=
 OpenBabel11052419163D

 32 37  0  0  1  0  0  0  0  0999 V2000
  191.0490  176.2310  144.8610 C   0  0  1  0  0  3  0  0  0  0  0  0
  188.6680  176.9110  144.6640 C   0  0  1  0  0  3  0  0  0  0  0  0
  192.3670  176.4250  145.6240 C   0  0  0  0  0  2  0  0  0  0  0  0
  189.9500  177.1270  145.4530 C   0  0  1  0  0  3  0  0  0  0  0  0
  187.4590  177.4760  145.3890 C   0  0  0  0  0  0  0  0  0  0  0  0
  185.1840  178.2420  140.1550 C   0  0  0  0  0  2  0  0  0  0  0  0
  188.8970  177.4470  143.2470 C   0  0  1  0  0  3  0  0  0  0  0  0
  185.3640  178.0820  142.5660 N   0  0  0  0  0  0  0  0  0  0  0  0
  186.3860  177.8230  143.3060 C   0  0  0  0  0  0  0  0  0  0  0  0
  189.7460  176.9830  146.9880 C   0  0  1  0  0  3  0  0  0  0  0  0
  186.3900  177.8500  144.7360 N   0  0  0  0  0  0  0  0  0  0  0  0
  188.4620  176.4950  147.3200 O   0  0  0  0  0  0  0  0  0  0  0  0
  190.8130  176.0960  147.6270 C   0  0  0  0  0  2  0  0  0  0  0  0
  189.9070  176.5310  142.5630 C   0  0  0  0  0  2  0  0  0  0  0  0
  191.2360  176.5190  143.3480 C   0  0  2  0  0  3  0  0  0  0  0  0
  187.5830  177.5470  142.5450 C   0  0  0  0  0  0  0  0  0  0  0  0
  187.5040  177.4440  146.8960 C   0  0  2  0  0  3  0  0  0  0  0  0
  192.2030  176.5120  147.1500 C   0  0  0  0  0  2  0  0  0  0  0  0
  185.8890  177.9710  141.2440 C   0  0  0  0  0  0  0  0  0  0  0  0
  187.3270  177.6810  141.2530 C   0  0  0  0  0  3  0  0  0  0  0  0
  192.9080  173.3780  143.6380 C   0  0  0  0  0  0  0  0  0  0  0  0
  196.2490  174.2330  142.5450 O   0  0  0  0  0  0  0  0  0  0  0  0
  192.4600  172.6580  144.5700 O   0  0  0  0  0  0  0  0  0  0  0  0
  194.3060  175.0810  141.4930 C   0  0  0  0  0  2  0  0  0  0  0  0
  192.2070  175.5610  142.7080 C   0  0  0  0  0  0  0  0  0  0  0  0
  194.3000  173.4760  143.4810 O   0  0  0  0  0  0  0  0  0  0  0  0
  193.3220  176.0180  142.1200 C   0  0  0  0  0  3  0  0  0  0  0  0
  191.9350  174.0820  142.7320 C   0  0  2  0  0  3  0  0  0  0  0  0
  190.6270  173.8200  143.1080 F   0  0  0  0  0  0  0  0  0  0  0  0
  194.9910  174.2500  142.5330 C   0  0  0  0  0  0  0  0  0  0  0  0
  186.1490  177.0700  147.4780 C   0  0  0  0  0  2  0  0  0  0  0  0
  185.5360  178.2010  148.0170 O   0  0  0  0  0  1  0  0  0  0  0  0
  1  4  1  0  0  0  0
  1  3  1  1  0  0  0
  2  5  1  1  0  0  0
  2  4  1  0  0  0  0
  3 18  1  0  0  0  0
  4 10  1  0  0  0  0
  5 17  1  0  0  0  0
  6 19  2  0  0  0  0
  7  2  1  0  0  0  0
  8  9  2  0  0  0  0
  9 11  1  0  0  0  0
 10 12  1  0  0  0  0
 10 13  1  0  0  0  0
 11  5  2  0  0  0  0
 14  7  1  0  0  0  0
 14 15  1  0  0  0  0
 15  1  1  0  0  0  0
 16  7  1  0  0  0  0
 16  9  1  0  0  0  0
 17 12  1  0  0  0  0
 17 31  1  0  0  0  0
 18 13  1  0  0  0  0
 19 20  1  0  0  0  0
 19  8  1  0  0  0  0
 20 16  2  0  0  0  0
 21 23  2  0  0  0  0
 24 27  1  0  0  0  0
 24 30  1  0  0  0  0
 25 28  1  0  0  0  0
 25 15  1  0  0  0  0
 26 21  1  0  0  0  0
 27 25  2  0  0  0  0
 28 29  1  0  0  0  0
 28 21  1  0  0  0  0
 30 22  2  0  0  0  0
 30 26  1  0  0  0  0
 31 32  1  0  0  0  0
M  END
>  <MODEL>
1

>  <REMARK>
 VINA RESULT:      -8.3      0.000      0.000
  Name = 
  2 active torsions:
  status: ('A' for Active; 'I' for Inactive)
    1  A    between atoms: C_13  and  C_29
    2  A    between atoms: C_16  and  C_27
                            x       y       z     vdW  Elec       q    Type
                         _______ _______ _______ _____ _____    ______ ____

>  <TORSDO>
F 2

$$$$
=
 OpenBabel11052419163D

 32 37  0  0  1  0  0  0  0  0999 V2000
  190.4890  174.9180  143.0080 C   0  0  1  0  0  3  0  0  0  0  0  0
  189.5510  176.0140  145.0300 C   0  0  1  0  0  3  0  0  0  0  0  0
  191.6700  174.8540  142.0300 C   0  0  0  0  0  2  0  0  0  0  0  0
  190.7460  175.9780  144.0910 C   0  0  1  0  0  3  0  0  0  0  0  0
  189.8660  176.7640  146.3120 C   0  0  0  0  0  0  0  0  0  0  0  0
  184.2590  178.0680  146.4520 C   0  0  0  0  0  2  0  0  0  0  0  0
  188.3510  176.5400  144.2370 C   0  0  1  0  0  3  0  0  0  0  0  0
  186.5630  177.8110  147.1590 N   0  0  0  0  0  0  0  0  0  0  0  0
  187.5810  177.3540  146.5170 C   0  0  0  0  0  0  0  0  0  0  0  0
  192.1000  175.8290  144.8420 C   0  0  1  0  0  3  0  0  0  0  0  0
  188.9230  177.3400  147.0110 N   0  0  0  0  0  0  0  0  0  0  0  0
  191.9290  175.5670  146.2190 O   0  0  0  0  0  0  0  0  0  0  0  0
  192.9850  174.7500  144.2200 C   0  0  0  0  0  2  0  0  0  0  0  0
  187.9750  175.4790  143.2070 C   0  0  0  0  0  2  0  0  0  0  0  0
  189.1620  175.2100  142.2590 C   0  0  2  0  0  3  0  0  0  0  0  0
  187.2540  176.8910  145.1870 C   0  0  0  0  0  0  0  0  0  0  0  0
  191.2890  176.6830  146.8060 C   0  0  2  0  0  3  0  0  0  0  0  0
  193.0500  174.9250  142.7050 C   0  0  0  0  0  2  0  0  0  0  0  0
  185.4950  177.6460  146.2270 C   0  0  0  0  0  0  0  0  0  0  0  0
  185.9690  177.1050  144.9470 C   0  0  0  0  0  3  0  0  0  0  0  0
  189.8320  171.8610  141.2200 C   0  0  0  0  0  0  0  0  0  0  0  0
  189.8230  172.2050  137.6180 O   0  0  0  0  0  0  0  0  0  0  0  0
  190.5620  171.2240  142.0260 O   0  0  0  0  0  0  0  0  0  0  0  0
  188.2660  173.3180  139.0100 C   0  0  0  0  0  2  0  0  0  0  0  0
  188.8110  174.1130  141.2870 C   0  0  0  0  0  0  0  0  0  0  0  0
  190.1040  171.7520  139.8460 O   0  0  0  0  0  0  0  0  0  0  0  0
  188.6000  174.3950  139.9940 C   0  0  0  0  0  3  0  0  0  0  0  0
  188.7010  172.6900  141.7620 C   0  0  2  0  0  3  0  0  0  0  0  0
  188.6580  172.6270  143.1460 F   0  0  0  0  0  0  0  0  0  0  0  0
  189.4350  172.4060  138.7980 C   0  0  0  0  0  0  0  0  0  0  0  0
  191.3380  176.5380  148.3200 C   0  0  0  0  0  2  0  0  0  0  0  0
  191.7250  177.7470  148.8990 O   0  0  0  0  0  1  0  0  0  0  0  0
  1  3  1  6  0  0  0
  1  4  1  0  0  0  0
  2  5  1  1  0  0  0
  3 18  1  0  0  0  0
  4 10  1  0  0  0  0
  4  2  1  0  0  0  0
  5 17  1  0  0  0  0
  5 11  2  0  0  0  0
  7  2  1  0  0  0  0
  7 16  1  0  0  0  0
  9 11  1  0  0  0  0
  9  8  2  0  0  0  0
 10 12  1  0  0  0  0
 12 17  1  0  0  0  0
 13 10  1  0  0  0  0
 14  7  1  0  0  0  0
 15  1  1  0  0  0  0
 15 14  1  0  0  0  0
 16  9  1  0  0  0  0
 17 31  1  0  0  0  0
 18 13  1  0  0  0  0
 19  6  2  0  0  0  0
 19  8  1  0  0  0  0
 20 16  2  0  0  0  0
 20 19  1  0  0  0  0
 21 28  1  0  0  0  0
 21 23  2  0  0  0  0
 22 30  2  0  0  0  0
 24 27  1  0  0  0  0
 25 28  1  0  0  0  0
 25 15  1  0  0  0  0
 26 21  1  0  0  0  0
 27 25  2  0  0  0  0
 28 29  1  0  0  0  0
 30 24  1  0  0  0  0
 30 26  1  0  0  0  0
 31 32  1  0  0  0  0
M  END
>  <MODEL>
2

>  <REMARK>
 VINA RESULT:      -8.3      2.922      4.415
  Name = 
  2 active torsions:
  status: ('A' for Active; 'I' for Inactive)
    1  A    between atoms: C_13  and  C_29
    2  A    between atoms: C_16  and  C_27
                            x       y       z     vdW  Elec       q    Type
                         _______ _______ _______ _____ _____    ______ ____

>  <TORSDO>
F 2

$$$$
=
 OpenBabel11052419163D

 32 37  0  0  1  0  0  0  0  0999 V2000
  190.0420  175.0200  144.7050 C   0  0  1  0  0  3  0  0  0  0  0  0
  187.9870  176.4100  144.5810 C   0  0  1  0  0  3  0  0  0  0  0  0
  191.4240  174.8510  145.3520 C   0  0  0  0  0  2  0  0  0  0  0  0
  189.3440  176.2760  145.2520 C   0  0  1  0  0  3  0  0  0  0  0  0
  187.0960  177.4020  145.3060 C   0  0  0  0  0  0  0  0  0  0  0  0
  184.6590  178.3540  140.1770 C   0  0  0  0  0  2  0  0  0  0  0  0
  188.2280  176.7040  143.0960 C   0  0  1  0  0  3  0  0  0  0  0  0
  185.0220  178.3770  142.5730 N   0  0  0  0  0  0  0  0  0  0  0  0
  185.9800  177.8740  143.2710 C   0  0  0  0  0  0  0  0  0  0  0  0
  189.2610  176.3540  146.8030 C   0  0  1  0  0  3  0  0  0  0  0  0
  186.1370  178.0370  144.6830 N   0  0  0  0  0  0  0  0  0  0  0  0
  187.9300  176.3410  147.2750 O   0  0  0  0  0  0  0  0  0  0  0  0
  190.0560  175.2360  147.4770 C   0  0  0  0  0  2  0  0  0  0  0  0
  188.8260  175.4490  142.4670 C   0  0  0  0  0  2  0  0  0  0  0  0
  190.1560  175.0850  143.1590 C   0  0  2  0  0  3  0  0  0  0  0  0
  186.9480  177.1550  142.4740 C   0  0  0  0  0  0  0  0  0  0  0  0
  187.2800  177.5030  146.8010 C   0  0  2  0  0  3  0  0  0  0  0  0
  191.4500  175.1330  146.8630 C   0  0  0  0  0  2  0  0  0  0  0  0
  185.3500  177.9760  141.2430 C   0  0  0  0  0  0  0  0  0  0  0  0
  186.6180  177.2390  141.1940 C   0  0  0  0  0  3  0  0  0  0  0  0
  192.1320  173.6330  140.5650 C   0  0  0  0  0  0  0  0  0  0  0  0
  190.1610  170.7260  139.6960 O   0  0  0  0  0  0  0  0  0  0  0  0
  192.7660  174.4830  139.8850 O   0  0  0  0  0  0  0  0  0  0  0  0
  190.4720  171.4340  141.9320 C   0  0  0  0  0  2  0  0  0  0  0  0
  190.7080  173.8080  142.5810 C   0  0  0  0  0  0  0  0  0  0  0  0
  191.4770  172.5910  139.8880 O   0  0  0  0  0  0  0  0  0  0  0  0
  189.9460  172.7070  142.5180 C   0  0  0  0  0  3  0  0  0  0  0  0
  192.1200  173.7620  142.0640 C   0  0  2  0  0  3  0  0  0  0  0  0
  192.8380  174.8760  142.4710 F   0  0  0  0  0  0  0  0  0  0  0  0
  190.6930  171.5740  140.4570 C   0  0  0  0  0  0  0  0  0  0  0  0
  185.9410  177.6440  147.5110 C   0  0  0  0  0  2  0  0  0  0  0  0
  185.6810  178.9900  147.7660 O   0  0  0  0  0  1  0  0  0  0  0  0
  1  4  1  0  0  0  0
  1  3  1  1  0  0  0
  2  4  1  0  0  0  0
  2  5  1  1  0  0  0
  3 18  1  0  0  0  0
  4 10  1  0  0  0  0
  5 17  1  0  0  0  0
  6 19  2  0  0  0  0
  7  2  1  0  0  0  0
  8  9  2  0  0  0  0
  9 11  1  0  0  0  0
 10 12  1  0  0  0  0
 10 13  1  0  0  0  0
 11  5  2  0  0  0  0
 14  7  1  0  0  0  0
 14 15  1  0  0  0  0
 15  1  1  0  0  0  0
 16  7  1  0  0  0  0
 16  9  1  0  0  0  0
 17 12  1  0  0  0  0
 17 31  1  0  0  0  0
 18 13  1  0  0  0  0
 19  8  1  0  0  0  0
 20 19  1  0  0  0  0
 20 16  2  0  0  0  0
 21 28  1  0  0  0  0
 22 30  2  0  0  0  0
 23 21  2  0  0  0  0
 24 27  1  0  0  0  0
 25 15  1  0  0  0  0
 26 30  1  0  0  0  0
 26 21  1  0  0  0  0
 27 25  2  0  0  0  0
 28 29  1  0  0  0  0
 28 25  1  0  0  0  0
 30 24  1  0  0  0  0
 31 32  1  0  0  0  0
M  END
>  <MODEL>
3

>  <REMARK>
 VINA RESULT:      -8.3      2.041      2.684
  Name = 
  2 active torsions:
  status: ('A' for Active; 'I' for Inactive)
    1  A    between atoms: C_13  and  C_29
    2  A    between atoms: C_16  and  C_27
                            x       y       z     vdW  Elec       q    Type
                         _______ _______ _______ _____ _____    ______ ____

>  <TORSDO>
F 2

$$$$
=
 OpenBabel11052419163D

 32 37  0  0  1  0  0  0  0  0999 V2000
  190.3770  175.5370  144.5710 C   0  0  1  0  0  3  0  0  0  0  0  0
  188.1140  176.5610  144.5780 C   0  0  1  0  0  3  0  0  0  0  0  0
  191.7790  175.5500  145.1970 C   0  0  0  0  0  2  0  0  0  0  0  0
  189.4860  176.6020  145.2300 C   0  0  1  0  0  3  0  0  0  0  0  0
  187.0810  177.3200  145.3920 C   0  0  0  0  0  0  0  0  0  0  0  0
  184.4270  178.2910  140.3740 C   0  0  0  0  0  2  0  0  0  0  0  0
  188.2750  177.0230  143.1250 C   0  0  1  0  0  3  0  0  0  0  0  0
  184.8240  178.1640  142.7620 N   0  0  0  0  0  0  0  0  0  0  0  0
  185.8650  177.7720  143.4100 C   0  0  0  0  0  0  0  0  0  0  0  0
  189.4190  176.5280  146.7820 C   0  0  1  0  0  3  0  0  0  0  0  0
  186.0180  177.8340  144.8310 N   0  0  0  0  0  0  0  0  0  0  0  0
  188.1170  176.2470  147.2550 O   0  0  0  0  0  0  0  0  0  0  0  0
  190.4030  175.5070  147.3510 C   0  0  0  0  0  2  0  0  0  0  0  0
  189.0660  175.9480  142.3830 C   0  0  0  0  0  2  0  0  0  0  0  0
  190.4510  175.7560  143.0370 C   0  0  2  0  0  3  0  0  0  0  0  0
  186.9270  177.3010  142.5490 C   0  0  0  0  0  0  0  0  0  0  0  0
  187.2710  177.3180  146.8880 C   0  0  2  0  0  3  0  0  0  0  0  0
  191.7840  175.6970  146.7270 C   0  0  0  0  0  2  0  0  0  0  0  0
  185.1910  177.9440  141.4000 C   0  0  0  0  0  0  0  0  0  0  0  0
  186.5650  177.4410  141.2830 C   0  0  0  0  0  3  0  0  0  0  0  0
  191.6380  172.3980  143.2770 C   0  0  0  0  0  0  0  0  0  0  0  0
  194.9590  172.7030  141.8730 O   0  0  0  0  0  0  0  0  0  0  0  0
  191.1720  171.7730  144.2670 O   0  0  0  0  0  0  0  0  0  0  0  0
  193.0830  173.8270  140.9680 C   0  0  0  0  0  2  0  0  0  0  0  0
  191.2010  174.6480  142.3460 C   0  0  0  0  0  0  0  0  0  0  0  0
  193.0090  172.2750  142.9970 O   0  0  0  0  0  0  0  0  0  0  0  0
  192.3150  174.9160  141.6490 C   0  0  0  0  0  3  0  0  0  0  0  0
  190.7080  173.2300  142.4380 C   0  0  2  0  0  3  0  0  0  0  0  0
  189.4150  173.1820  142.9340 F   0  0  0  0  0  0  0  0  0  0  0  0
  193.7230  172.9160  141.9700 C   0  0  0  0  0  0  0  0  0  0  0  0
  185.9410  177.1660  147.6120 C   0  0  0  0  0  2  0  0  0  0  0  0
  185.4750  178.4180  148.0130 O   0  0  0  0  0  1  0  0  0  0  0  0
  1  3  1  1  0  0  0
  1  4  1  0  0  0  0
  2  4  1  0  0  0  0
  2  5  1  1  0  0  0
  3 18  1  0  0  0  0
  4 10  1  0  0  0  0
  5 17  1  0  0  0  0
  6 19  2  0  0  0  0
  7  2  1  0  0  0  0
  8  9  2  0  0  0  0
  9 11  1  0  0  0  0
 10 12  1  0  0  0  0
 10 13  1  0  0  0  0
 11  5  2  0  0  0  0
 14 15  1  0  0  0  0
 14  7  1  0  0  0  0
 15  1  1  0  0  0  0
 16  7  1  0  0  0  0
 16  9  1  0  0  0  0
 17 12  1  0  0  0  0
 17 31  1  0  0  0  0
 18 13  1  0  0  0  0
 19  8  1  0  0  0  0
 20 19  1  0  0  0  0
 20 16  2  0  0  0  0
 21 23  2  0  0  0  0
 22 30  2  0  0  0  0
 24 27  1  0  0  0  0
 24 30  1  0  0  0  0
 25 28  1  0  0  0  0
 25 15  1  0  0  0  0
 26 21  1  0  0  0  0
 27 25  2  0  0  0  0
 28 29  1  0  0  0  0
 28 21  1  0  0  0  0
 30 26  1  0  0  0  0
 31 32  1  0  0  0  0
M  END
>  <MODEL>
4

>  <REMARK>
 VINA RESULT:      -8.0      1.101      1.125
  Name = 
  2 active torsions:
  status: ('A' for Active; 'I' for Inactive)
    1  A    between atoms: C_13  and  C_29
    2  A    between atoms: C_16  and  C_27
                            x       y       z     vdW  Elec       q    Type
                         _______ _______ _______ _____ _____    ______ ____

>  <TORSDO>
F 2

$$$$
=
 OpenBabel11052419163D

 32 37  0  0  1  0  0  0  0  0999 V2000
  190.8660  173.8230  143.5250 C   0  0  1  0  0  3  0  0  0  0  0  0
  189.1080  175.0480  142.2680 C   0  0  1  0  0  3  0  0  0  0  0  0
  191.4450  172.4470  143.8850 C   0  0  0  0  0  2  0  0  0  0  0  0
  189.6540  173.6670  142.5920 C   0  0  1  0  0  3  0  0  0  0  0  0
  188.1500  175.0130  141.0910 C   0  0  0  0  0  0  0  0  0  0  0  0
  185.6040  179.5590  143.5410 C   0  0  0  0  0  2  0  0  0  0  0  0
  188.5390  175.6390  143.5630 C   0  0  1  0  0  3  0  0  0  0  0  0
  186.1950  177.8870  141.8890 N   0  0  0  0  0  0  0  0  0  0  0  0
  187.0210  176.9020  141.9650 C   0  0  0  0  0  0  0  0  0  0  0  0
  189.9140  172.8080  141.3220 C   0  0  1  0  0  3  0  0  0  0  0  0
  187.2160  175.9160  140.9480 N   0  0  0  0  0  0  0  0  0  0  0  0
  189.7720  173.5490  140.1280 O   0  0  0  0  0  0  0  0  0  0  0  0
  191.2890  172.1420  141.3520 C   0  0  0  0  0  2  0  0  0  0  0  0
  189.7110  175.9190  144.4990 C   0  0  0  0  0  2  0  0  0  0  0  0
  190.4770  174.6130  144.8020 C   0  0  2  0  0  3  0  0  0  0  0  0
  187.7170  176.8400  143.2310 C   0  0  0  0  0  0  0  0  0  0  0  0
  188.4280  173.9770  140.0290 C   0  0  2  0  0  3  0  0  0  0  0  0
  191.5230  171.4680  142.7020 C   0  0  0  0  0  2  0  0  0  0  0  0
  186.3410  178.5270  143.1570 C   0  0  0  0  0  0  0  0  0  0  0  0
  187.2820  177.8080  144.0230 C   0  0  0  0  0  3  0  0  0  0  0  0
  191.7120  176.4450  147.6070 C   0  0  0  0  0  0  0  0  0  0  0  0
  194.9410  177.5340  146.3940 O   0  0  0  0  0  0  0  0  0  0  0  0
  190.8040  177.0070  148.2740 O   0  0  0  0  0  0  0  0  0  0  0  0
  194.0830  175.3710  145.9680 C   0  0  0  0  0  2  0  0  0  0  0  0
  191.6730  174.9040  145.6700 C   0  0  0  0  0  0  0  0  0  0  0  0
  192.8780  177.1730  147.3210 O   0  0  0  0  0  0  0  0  0  0  0  0
  192.8860  175.0660  145.1230 C   0  0  0  0  0  3  0  0  0  0  0  0
  191.5120  175.0220  147.1620 C   0  0  2  0  0  3  0  0  0  0  0  0
  190.2770  174.5420  147.5710 F   0  0  0  0  0  0  0  0  0  0  0  0
  193.9810  176.7400  146.5650 C   0  0  0  0  0  0  0  0  0  0  0  0
  188.1910  174.5410  138.6360 C   0  0  0  0  0  2  0  0  0  0  0  0
  189.2000  174.1100  137.7740 O   0  0  0  0  0  1  0  0  0  0  0  0
  1  3  1  1  0  0  0
  1 15  1  0  0  0  0
  2  5  1  6  0  0  0
  2  4  1  0  0  0  0
  2  7  1  0  0  0  0
  4  1  1  0  0  0  0
  7 14  1  0  0  0  0
  8  9  2  0  0  0  0
  8 19  1  0  0  0  0
  9 16  1  0  0  0  0
 10 13  1  0  0  0  0
 10  4  1  0  0  0  0
 11  5  2  0  0  0  0
 11  9  1  0  0  0  0
 12 10  1  0  0  0  0
 13 18  1  0  0  0  0
 14 15  1  0  0  0  0
 15 25  1  0  0  0  0
 16  7  1  0  0  0  0
 16 20  2  0  0  0  0
 17 12  1  0  0  0  0
 17  5  1  0  0  0  0
 18  3  1  0  0  0  0
 19  6  2  0  0  0  0
 19 20  1  0  0  0  0
 21 23  2  0  0  0  0
 22 30  2  0  0  0  0
 24 30  1  0  0  0  0
 25 28  1  0  0  0  0
 26 21  1  0  0  0  0
 27 25  2  0  0  0  0
 27 24  1  0  0  0  0
 28 29  1  0  0  0  0
 28 21  1  0  0  0  0
 30 26  1  0  0  0  0
 31 17  1  0  0  0  0
 32 31  1  0  0  0  0
M  END
>  <MODEL>
5

>  <REMARK>
 VINA RESULT:      -7.9      2.933      5.202
  Name = 
  2 active torsions:
  status: ('A' for Active; 'I' for Inactive)
    1  A    between atoms: C_13  and  C_29
    2  A    between atoms: C_16  and  C_27
                            x       y       z     vdW  Elec       q    Type
                         _______ _______ _______ _____ _____    ______ ____

>  <TORSDO>
F 2

$$$$
=
 OpenBabel11052419163D

 32 37  0  0  1  0  0  0  0  0999 V2000
  189.7570  176.4570  145.6180 C   0  0  1  0  0  3  0  0  0  0  0  0
  190.6430  175.1510  143.7000 C   0  0  1  0  0  3  0  0  0  0  0  0
  189.8030  176.6730  147.1370 C   0  0  0  0  0  2  0  0  0  0  0  0
  190.7260  175.3360  145.2060 C   0  0  1  0  0  3  0  0  0  0  0  0
  191.8030  174.3260  143.1700 C   0  0  0  0  0  0  0  0  0  0  0  0
  188.1920  172.6530  139.0100 C   0  0  0  0  0  2  0  0  0  0  0  0
  189.2470  174.6090  143.3730 C   0  0  1  0  0  3  0  0  0  0  0  0
  190.2460  173.0050  140.2460 N   0  0  0  0  0  0  0  0  0  0  0  0
  190.4410  173.5750  141.3840 C   0  0  0  0  0  0  0  0  0  0  0  0
  192.1850  175.5150  145.7140 C   0  0  1  0  0  3  0  0  0  0  0  0
  191.6980  173.6380  142.0640 N   0  0  0  0  0  0  0  0  0  0  0  0
  193.1120  175.6590  144.6570 O   0  0  0  0  0  0  0  0  0  0  0  0
  192.3170  176.6950  146.6760 C   0  0  0  0  0  2  0  0  0  0  0  0
  188.2410  175.7190  143.6610 C   0  0  0  0  0  2  0  0  0  0  0  0
  188.3150  176.1370  145.1450 C   0  0  2  0  0  3  0  0  0  0  0  0
  189.2330  174.1160  141.9640 C   0  0  0  0  0  0  0  0  0  0  0  0
  193.1140  174.4630  143.9040 C   0  0  2  0  0  3  0  0  0  0  0  0
  191.2190  176.6400  147.7350 C   0  0  0  0  0  2  0  0  0  0  0  0
  188.8430  173.1710  140.0410 C   0  0  0  0  0  0  0  0  0  0  0  0
  188.2020  173.8380  141.1800 C   0  0  0  0  0  3  0  0  0  0  0  0
  185.0810  177.0770  146.3280 C   0  0  0  0  0  0  0  0  0  0  0  0
  184.1220  179.5810  143.8990 O   0  0  0  0  0  0  0  0  0  0  0  0
  184.4610  176.1340  146.8890 O   0  0  0  0  0  0  0  0  0  0  0  0
  186.3160  179.4230  144.7700 C   0  0  0  0  0  2  0  0  0  0  0  0
  187.3690  177.2800  145.4090 C   0  0  0  0  0  0  0  0  0  0  0  0
  184.3780  177.8930  145.4260 O   0  0  0  0  0  0  0  0  0  0  0  0
  187.2620  178.2880  144.5330 C   0  0  0  0  0  3  0  0  0  0  0  0
  186.5320  177.2920  146.6590 C   0  0  2  0  0  3  0  0  0  0  0  0
  186.9790  176.3480  147.5700 F   0  0  0  0  0  0  0  0  0  0  0  0
  184.8940  178.9640  144.6770 C   0  0  0  0  0  0  0  0  0  0  0  0
  194.2860  174.4930  142.9340 C   0  0  0  0  0  2  0  0  0  0  0  0
  194.7240  175.8070  142.7620 O   0  0  0  0  0  1  0  0  0  0  0  0
  1  3  1  1  0  0  0
  2  5  1  1  0  0  0
  2  4  1  0  0  0  0
  3 18  1  0  0  0  0
  4  1  1  0  0  0  0
  4 10  1  0  0  0  0
  5 17  1  0  0  0  0
  6 19  2  0  0  0  0
  7 14  1  0  0  0  0
  7  2  1  0  0  0  0
  8  9  2  0  0  0  0
  9 16  1  0  0  0  0
  9 11  1  0  0  0  0
 10 13  1  0  0  0  0
 11  5  2  0  0  0  0
 12 10  1  0  0  0  0
 13 18  1  0  0  0  0
 14 15  1  0  0  0  0
 15 25  1  0  0  0  0
 15  1  1  0  0  0  0
 16  7  1  0  0  0  0
 17 12  1  0  0  0  0
 19  8  1  0  0  0  0
 19 20  1  0  0  0  0
 20 16  2  0  0  0  0
 21 28  1  0  0  0  0
 21 23  2  0  0  0  0
 22 30  2  0  0  0  0
 25 28  1  0  0  0  0
 26 21  1  0  0  0  0
 27 24  1  0  0  0  0
 27 25  2  0  0  0  0
 28 29  1  0  0  0  0
 30 24  1  0  0  0  0
 30 26  1  0  0  0  0
 31 17  1  0  0  0  0
 32 31  1  0  0  0  0
M  END
>  <MODEL>
6

>  <REMARK>
 VINA RESULT:      -7.8      3.049      6.843
  Name = 
  2 active torsions:
  status: ('A' for Active; 'I' for Inactive)
    1  A    between atoms: C_13  and  C_29
    2  A    between atoms: C_16  and  C_27
                            x       y       z     vdW  Elec       q    Type
                         _______ _______ _______ _____ _____    ______ ____

>  <TORSDO>
F 2

$$$$
=
 OpenBabel11052419163D

 32 37  0  0  1  0  0  0  0  0999 V2000
  189.8790  175.0960  143.2510 C   0  0  1  0  0  3  0  0  0  0  0  0
  187.9890  176.6220  143.7720 C   0  0  1  0  0  3  0  0  0  0  0  0
  190.3050  173.7900  142.5660 C   0  0  0  0  0  2  0  0  0  0  0  0
  188.3690  175.3260  143.0740 C   0  0  1  0  0  3  0  0  0  0  0  0
  186.6110  177.1030  143.3540 C   0  0  0  0  0  0  0  0  0  0  0  0
  186.3060  179.5070  148.5770 C   0  0  0  0  0  2  0  0  0  0  0  0
  188.1860  176.4150  145.2780 C   0  0  1  0  0  3  0  0  0  0  0  0
  185.7750  178.9730  146.2740 N   0  0  0  0  0  0  0  0  0  0  0  0
  186.3560  178.1680  145.4540 C   0  0  0  0  0  0  0  0  0  0  0  0
  187.8670  175.2630  141.6030 C   0  0  1  0  0  3  0  0  0  0  0  0
  185.8900  177.8620  144.1370 N   0  0  0  0  0  0  0  0  0  0  0  0
  187.3310  176.4930  141.1610 O   0  0  0  0  0  0  0  0  0  0  0  0
  188.9630  174.8050  140.6420 C   0  0  0  0  0  2  0  0  0  0  0  0
  189.6840  176.2860  145.5360 C   0  0  0  0  0  2  0  0  0  0  0  0
  190.2600  175.0860  144.7540 C   0  0  2  0  0  3  0  0  0  0  0  0
  187.5290  177.5350  146.0140 C   0  0  0  0  0  0  0  0  0  0  0  0
  186.1880  176.7840  141.9410 C   0  0  2  0  0  3  0  0  0  0  0  0
  189.6630  173.5630  141.1880 C   0  0  0  0  0  2  0  0  0  0  0  0
  186.5920  178.8890  147.4410 C   0  0  0  0  0  0  0  0  0  0  0  0
  187.6810  177.9190  147.2720 C   0  0  0  0  0  3  0  0  0  0  0  0
  193.4720  175.7030  143.3240 C   0  0  0  0  0  0  0  0  0  0  0  0
  195.2730  172.7120  144.2720 O   0  0  0  0  0  0  0  0  0  0  0  0
  193.4250  176.3860  142.2670 O   0  0  0  0  0  0  0  0  0  0  0  0
  193.7760  173.8160  145.7340 C   0  0  0  0  0  2  0  0  0  0  0  0
  191.7500  175.0020  144.9570 C   0  0  0  0  0  0  0  0  0  0  0  0
  194.3170  174.5820  143.3570 O   0  0  0  0  0  0  0  0  0  0  0  0
  192.2960  173.9250  145.5380 C   0  0  0  0  0  3  0  0  0  0  0  0
  192.6380  176.1280  144.5020 C   0  0  2  0  0  3  0  0  0  0  0  0
  191.8970  177.2600  144.2030 F   0  0  0  0  0  0  0  0  0  0  0  0
  194.4810  173.6780  144.4200 C   0  0  0  0  0  0  0  0  0  0  0  0
  185.4470  177.9540  141.3120 C   0  0  0  0  0  2  0  0  0  0  0  0
  185.4480  177.8230  139.9230 O   0  0  0  0  0  1  0  0  0  0  0  0
  1  3  1  1  0  0  0
  1 15  1  0  0  0  0
  2  5  1  1  0  0  0
  2  7  1  0  0  0  0
  4  1  1  0  0  0  0
  4  2  1  0  0  0  0
  5 11  2  0  0  0  0
  7 14  1  0  0  0  0
  7 16  1  0  0  0  0
  8 19  1  0  0  0  0
  9 16  1  0  0  0  0
  9  8  2  0  0  0  0
 10  4  1  0  0  0  0
 11  9  1  0  0  0  0
 12 10  1  0  0  0  0
 12 17  1  0  0  0  0
 13 18  1  0  0  0  0
 13 10  1  0  0  0  0
 15 25  1  0  0  0  0
 15 14  1  0  0  0  0
 16 20  2  0  0  0  0
 17  5  1  0  0  0  0
 18  3  1  0  0  0  0
 19  6  2  0  0  0  0
 20 19  1  0  0  0  0
 21 26  1  0  0  0  0
 21 28  1  0  0  0  0
 22 30  2  0  0  0  0
 23 21  2  0  0  0  0
 25 27  2  0  0  0  0
 26 30  1  0  0  0  0
 27 24  1  0  0  0  0
 28 25  1  0  0  0  0
 29 28  1  0  0  0  0
 30 24  1  0  0  0  0
 31 17  1  0  0  0  0
 32 31  1  0  0  0  0
M  END
>  <MODEL>
7

>  <REMARK>
 VINA RESULT:      -7.6      2.546      4.537
  Name = 
  2 active torsions:
  status: ('A' for Active; 'I' for Inactive)
    1  A    between atoms: C_13  and  C_29
    2  A    between atoms: C_16  and  C_27
                            x       y       z     vdW  Elec       q    Type
                         _______ _______ _______ _____ _____    ______ ____

>  <TORSDO>
F 2

$$$$
=
 OpenBabel11052419163D

 32 37  0  0  1  0  0  0  0  0999 V2000
  189.1890  175.4900  142.8120 C   0  0  1  0  0  3  0  0  0  0  0  0
  187.3780  177.0700  143.4390 C   0  0  1  0  0  3  0  0  0  0  0  0
  189.5430  174.1940  142.0700 C   0  0  0  0  0  2  0  0  0  0  0  0
  187.6860  175.7870  142.6850 C   0  0  1  0  0  3  0  0  0  0  0  0
  186.0100  177.6210  143.0760 C   0  0  0  0  0  0  0  0  0  0  0  0
  185.9410  179.8440  148.3880 C   0  0  0  0  0  2  0  0  0  0  0  0
  187.6050  176.8010  144.9300 C   0  0  1  0  0  3  0  0  0  0  0  0
  185.3280  179.4160  146.0830 N   0  0  0  0  0  0  0  0  0  0  0  0
  185.8550  178.6190  145.2190 C   0  0  0  0  0  0  0  0  0  0  0  0
  187.1430  175.7970  141.2280 C   0  0  1  0  0  3  0  0  0  0  0  0
  185.3410  178.3790  143.9060 N   0  0  0  0  0  0  0  0  0  0  0  0
  186.6460  177.0630  140.8440 O   0  0  0  0  0  0  0  0  0  0  0  0
  188.1930  175.3310  140.2210 C   0  0  0  0  0  2  0  0  0  0  0  0
  189.1030  176.6030  145.1420 C   0  0  0  0  0  2  0  0  0  0  0  0
  189.6090  175.4100  144.3030 C   0  0  2  0  0  3  0  0  0  0  0  0
  187.0140  177.9190  145.7240 C   0  0  0  0  0  0  0  0  0  0  0  0
  185.5370  177.3710  141.6660 C   0  0  2  0  0  3  0  0  0  0  0  0
  188.8560  174.0430  140.7030 C   0  0  0  0  0  2  0  0  0  0  0  0
  186.1720  179.2560  147.2230 C   0  0  0  0  0  0  0  0  0  0  0  0
  187.2150  178.2510  146.9900 C   0  0  0  0  0  3  0  0  0  0  0  0
  192.3150  175.1090  146.6110 C   0  0  0  0  0  0  0  0  0  0  0  0
  194.7900  177.2790  145.1100 O   0  0  0  0  0  0  0  0  0  0  0  0
  191.9400  174.9160  147.7980 O   0  0  0  0  0  0  0  0  0  0  0  0
  193.4210  175.8320  143.8330 C   0  0  0  0  0  2  0  0  0  0  0  0
  191.0990  175.2600  144.4610 C   0  0  0  0  0  0  0  0  0  0  0  0
  193.3450  176.0350  146.3790 O   0  0  0  0  0  0  0  0  0  0  0  0
  191.9380  175.9550  143.6800 C   0  0  0  0  0  3  0  0  0  0  0  0
  191.6580  174.3310  145.5040 C   0  0  2  0  0  3  0  0  0  0  0  0
  190.6740  173.4910  146.0050 F   0  0  0  0  0  0  0  0  0  0  0  0
  193.8760  176.4160  145.1350 C   0  0  0  0  0  0  0  0  0  0  0  0
  184.8280  178.5920  141.0990 C   0  0  0  0  0  2  0  0  0  0  0  0
  183.8980  178.1960  140.1380 O   0  0  0  0  0  1  0  0  0  0  0  0
  1  3  1  1  0  0  0
  1 15  1  0  0  0  0
  2  5  1  1  0  0  0
  2  7  1  0  0  0  0
  4  1  1  0  0  0  0
  4  2  1  0  0  0  0
  5 11  2  0  0  0  0
  7 14  1  0  0  0  0
  7 16  1  0  0  0  0
  8 19  1  0  0  0  0
  9 16  1  0  0  0  0
  9  8  2  0  0  0  0
 10  4  1  0  0  0  0
 11  9  1  0  0  0  0
 12 10  1  0  0  0  0
 12 17  1  0  0  0  0
 13 18  1  0  0  0  0
 13 10  1  0  0  0  0
 15 25  1  0  0  0  0
 15 14  1  0  0  0  0
 16 20  2  0  0  0  0
 17  5  1  0  0  0  0
 18  3  1  0  0  0  0
 19  6  2  0  0  0  0
 20 19  1  0  0  0  0
 21 23  2  0  0  0  0
 22 30  2  0  0  0  0
 24 30  1  0  0  0  0
 25 28  1  0  0  0  0
 26 21  1  0  0  0  0
 27 24  1  0  0  0  0
 27 25  2  0  0  0  0
 28 29  1  0  0  0  0
 28 21  1  0  0  0  0
 30 26  1  0  0  0  0
 31 17  1  0  0  0  0
 32 31  1  0  0  0  0
M  END
>  <MODEL>
8

>  <REMARK>
 VINA RESULT:      -7.5      2.773      4.692
  Name = 
  2 active torsions:
  status: ('A' for Active; 'I' for Inactive)
    1  A    between atoms: C_13  and  C_29
    2  A    between atoms: C_16  and  C_27
                            x       y       z     vdW  Elec       q    Type
                         _______ _______ _______ _____ _____    ______ ____

>  <TORSDO>
F 2

$$$$
=
 OpenBabel11052419163D

 32 37  0  0  1  0  0  0  0  0999 V2000
  188.0270  177.0510  144.4220 C   0  0  1  0  0  3  0  0  0  0  0  0
  190.4050  176.7600  145.0810 C   0  0  1  0  0  3  0  0  0  0  0  0
  186.5690  176.6850  144.7340 C   0  0  0  0  0  2  0  0  0  0  0  0
  188.9750  176.3790  145.4300 C   0  0  1  0  0  3  0  0  0  0  0  0
  191.3640  176.4390  146.2130 C   0  0  0  0  0  0  0  0  0  0  0  0
  195.3500  175.7770  142.1110 C   0  0  0  0  0  2  0  0  0  0  0  0
  190.7410  176.1190  143.7310 C   0  0  1  0  0  3  0  0  0  0  0  0
  194.3490  176.0340  144.3020 N   0  0  0  0  0  0  0  0  0  0  0  0
  193.1130  176.1620  144.6400 C   0  0  0  0  0  0  0  0  0  0  0  0
  188.6290  176.6360  146.9240 C   0  0  1  0  0  3  0  0  0  0  0  0
  192.6310  176.2100  145.9850 N   0  0  0  0  0  0  0  0  0  0  0  0
  189.6470  177.3450  147.6010 O   0  0  0  0  0  0  0  0  0  0  0  0
  187.2980  177.3700  147.0860 C   0  0  0  0  0  2  0  0  0  0  0  0
  189.9050  176.8200  142.6640 C   0  0  0  0  0  2  0  0  0  0  0  0
  188.4010  176.6560  142.9700 C   0  0  2  0  0  3  0  0  0  0  0  0
  192.2150  176.1970  143.5070 C   0  0  0  0  0  0  0  0  0  0  0  0
  190.8110  176.5440  147.6130 C   0  0  2  0  0  3  0  0  0  0  0  0
  186.2200  176.7080  146.2310 C   0  0  0  0  0  2  0  0  0  0  0  0
  194.2900  175.9870  142.8770 C   0  0  0  0  0  0  0  0  0  0  0  0
  192.9070  176.0380  142.3890 C   0  0  0  0  0  3  0  0  0  0  0  0
  185.8240  179.0730  142.4610 C   0  0  0  0  0  0  0  0  0  0  0  0
  183.9120  177.5410  139.7980 O   0  0  0  0  0  0  0  0  0  0  0  0
  185.5030  179.6900  143.5110 O   0  0  0  0  0  0  0  0  0  0  0  0
  186.2770  177.5030  139.8550 C   0  0  0  0  0  2  0  0  0  0  0  0
  187.5810  177.4060  141.9530 C   0  0  0  0  0  0  0  0  0  0  0  0
  184.7980  178.6180  141.6150 O   0  0  0  0  0  0  0  0  0  0  0  0
  187.1070  176.7790  140.8680 C   0  0  0  0  0  3  0  0  0  0  0  0
  187.2820  178.8670  142.1540 C   0  0  2  0  0  3  0  0  0  0  0  0
  188.0800  179.4090  143.1500 F   0  0  0  0  0  0  0  0  0  0  0  0
  184.9460  177.8840  140.4260 C   0  0  0  0  0  0  0  0  0  0  0  0
  191.8270  177.1650  148.5600 C   0  0  0  0  0  2  0  0  0  0  0  0
  191.2040  178.1230  149.3600 O   0  0  0  0  0  1  0  0  0  0  0  0
  1  3  1  1  0  0  0
  1  4  1  0  0  0  0
  2  4  1  0  0  0  0
  2  5  1  1  0  0  0
  3 18  1  0  0  0  0
  4 10  1  0  0  0  0
  5 17  1  0  0  0  0
  6 19  2  0  0  0  0
  7  2  1  0  0  0  0
  8  9  2  0  0  0  0
  9 11  1  0  0  0  0
 10 13  1  0  0  0  0
 10 12  1  0  0  0  0
 11  5  2  0  0  0  0
 12 17  1  0  0  0  0
 14 15  1  0  0  0  0
 14  7  1  0  0  0  0
 15  1  1  0  0  0  0
 16  7  1  0  0  0  0
 16  9  1  0  0  0  0
 17 31  1  0  0  0  0
 18 13  1  0  0  0  0
 19  8  1  0  0  0  0
 20 19  1  0  0  0  0
 20 16  2  0  0  0  0
 21 23  2  0  0  0  0
 22 30  2  0  0  0  0
 24 30  1  0  0  0  0
 24 27  1  0  0  0  0
 25 28  1  0  0  0  0
 25 15  1  0  0  0  0
 26 21  1  0  0  0  0
 27 25  2  0  0  0  0
 28 21  1  0  0  0  0
 28 29  1  0  0  0  0
 30 26  1  0  0  0  0
 31 32  1  0  0  0  0
M  END
>  <MODEL>
9

>  <REMARK>
 VINA RESULT:      -7.4      3.427      6.752
  Name = 
  2 active torsions:
  status: ('A' for Active; 'I' for Inactive)
    1  A    between atoms: C_13  and  C_29
    2  A    between atoms: C_16  and  C_27
                            x       y       z     vdW  Elec       q    Type
                         _______ _______ _______ _____ _____    ______ ____

>  <TORSDO>
F 2

$$$$
