=
 OpenBabel11052421383D

 32 38  0  0  0  0  0  0  0  0999 V2000
  192.8500  174.9850  146.7690 N   0  0  0  0  0  0  0  0  0  0  0  0
  188.5640  176.4530  144.3660 C   0  0  0  0  0  0  0  0  0  0  0  0
  185.8000  178.2590  147.9720 C   0  0  0  0  0  3  0  0  0  0  0  0
  184.8270  178.6290  147.0460 C   0  0  0  0  0  3  0  0  0  0  0  0
  187.7370  176.5850  142.0170 C   0  0  0  0  0  0  0  0  0  0  0  0
  186.7320  176.9820  141.1320 C   0  0  0  0  0  0  0  0  0  0  0  0
  190.7190  175.4340  144.9110 C   0  0  0  0  0  0  0  0  0  0  0  0
  189.3470  176.3480  146.6750 C   0  0  0  0  0  3  0  0  0  0  0  0
  184.6780  177.9350  140.5520 N   0  0  0  0  0  0  0  0  0  0  0  0
  191.5170  175.2820  147.3110 C   0  0  0  0  0  2  0  0  0  0  0  0
  186.9680  177.6300  147.5420 C   0  0  0  0  0  3  0  0  0  0  0  0
  188.3610  176.7240  145.7450 C   0  0  0  0  0  0  0  0  0  0  0  0
  187.1820  177.3600  146.1770 C   0  0  0  0  0  0  0  0  0  0  0  0
  186.3880  177.4750  143.8640 C   0  0  0  0  0  0  0  0  0  0  0  0
  185.1230  177.5610  139.2180 C   0  0  0  0  0  2  0  0  0  0  0  0
  192.7570  174.1360  145.5720 C   0  0  0  0  0  2  0  0  0  0  0  0
  190.5250  175.7230  146.2680 C   0  0  0  0  0  0  0  0  0  0  0  0
  186.7730  176.7520  139.3610 S   0  0  0  0  0  0  0  0  0  0  0  0
  191.9930  174.8150  144.4290 C   0  0  0  0  0  2  0  0  0  0  0  0
  185.0220  178.3690  145.6900 C   0  0  0  0  0  3  0  0  0  0  0  0
  186.1940  177.7350  145.2350 C   0  0  0  0  0  0  0  0  0  0  0  0
  185.4030  177.8540  142.9310 C   0  0  0  0  0  3  0  0  0  0  0  0
  189.7550  175.8120  143.9780 C   0  0  0  0  0  3  0  0  0  0  0  0
  188.8370  175.9770  141.5040 F   0  0  0  0  0  0  0  0  0  0  0  0
  183.4050  178.5980  140.7850 C   0  0  0  0  0  1  0  0  0  0  0  0
  187.5810  176.8290  143.4120 C   0  0  0  0  0  0  0  0  0  0  0  0
  185.5960  177.5990  141.5780 C   0  0  0  0  0  0  0  0  0  0  0  0
  193.5460  176.2340  146.4710 C   0  0  0  0  0  2  0  0  0  0  0  0
  194.9050  175.9340  145.8660 C   0  0  0  0  0  2  0  0  0  0  0  0
  195.1510  176.8550  144.6900 C   0  0  0  0  0  3  0  0  0  0  0  0
  195.0270  176.0600  143.4060 C   0  0  0  0  0  2  0  0  0  0  0  0
  196.3960  176.4030  143.9540 C   0  0  0  0  0  2  0  0  0  0  0  0
  1 10  1  0  0  0  0
  2 12  1  0  0  0  0
  4  3  2  0  0  0  0
  5 26  1  0  0  0  0
  6 27  1  0  0  0  0
  6  5  2  0  0  0  0
  7 17  2  0  0  0  0
  9 25  1  0  0  0  0
  9 27  1  0  0  0  0
 11  3  1  0  0  0  0
 12 13  1  0  0  0  0
 12  8  2  0  0  0  0
 13 11  2  0  0  0  0
 14 21  1  0  0  0  0
 15 18  1  0  0  0  0
 15  9  1  0  0  0  0
 16  1  1  0  0  0  0
 17  8  1  0  0  0  0
 17 10  1  0  0  0  0
 18  6  1  0  0  0  0
 19  7  1  0  0  0  0
 19 16  1  0  0  0  0
 20  4  1  0  0  0  0
 21 20  2  0  0  0  0
 21 13  1  0  0  0  0
 22 14  1  0  0  0  0
 23  2  2  0  0  0  0
 23  7  1  0  0  0  0
 24  5  1  0  0  0  0
 26 14  2  0  0  0  0
 26  2  1  0  0  0  0
 27 22  2  0  0  0  0
 28  1  1  0  0  0  0
 29 28  1  0  0  0  0
 30 29  1  0  0  0  0
 31 32  1  0  0  0  0
 31 30  1  0  0  0  0
 32 30  1  0  0  0  0
M  END
>  <MODEL>
1

>  <REMARK>
 VINA RESULT:      -8.4      0.000      0.000
  Name = 
  3 active torsions:
  status: ('A' for Active; 'I' for Inactive)
    1  A    between atoms: C_1  and  C_10
    2  A    between atoms: N_2  and  C_24
    3  A    between atoms: C_10  and  C_24
                            x       y       z     vdW  Elec       q    Type
                         _______ _______ _______ _____ _____    ______ ____

>  <TORSDO>
F 3

$$$$
=
 OpenBabel11052421383D

 32 38  0  0  0  0  0  0  0  0999 V2000
  185.5310  178.8850  142.4800 N   0  0  0  0  0  0  0  0  0  0  0  0
  189.0830  175.3100  143.4250 C   0  0  0  0  0  0  0  0  0  0  0  0
  191.1840  176.8590  147.5590 C   0  0  0  0  0  3  0  0  0  0  0  0
  191.9730  175.7110  147.5930 C   0  0  0  0  0  3  0  0  0  0  0  0
  189.7870  173.1260  142.4470 C   0  0  0  0  0  0  0  0  0  0  0  0
  190.5970  171.9920  142.5330 C   0  0  0  0  0  0  0  0  0  0  0  0
  187.3760  176.7000  142.3610 C   0  0  0  0  0  0  0  0  0  0  0  0
  188.4130  177.4380  144.4130 C   0  0  0  0  0  3  0  0  0  0  0  0
  192.2300  170.6260  143.4990 N   0  0  0  0  0  0  0  0  0  0  0  0
  186.7070  178.9310  143.3580 C   0  0  0  0  0  2  0  0  0  0  0  0
  190.2720  177.0470  146.5220 C   0  0  0  0  0  3  0  0  0  0  0  0
  189.2120  176.2810  144.4520 C   0  0  0  0  0  0  0  0  0  0  0  0
  190.1330  176.0890  145.5000 C   0  0  0  0  0  0  0  0  0  0  0  0
  190.8100  173.9500  144.5200 C   0  0  0  0  0  0  0  0  0  0  0  0
  191.9060  169.7920  142.3520 C   0  0  0  0  0  2  0  0  0  0  0  0
  185.8700  178.3090  141.1710 C   0  0  0  0  0  2  0  0  0  0  0  0
  187.4900  177.6450  143.3890 C   0  0  0  0  0  0  0  0  0  0  0  0
  190.6040  170.6420  141.3630 S   0  0  0  0  0  0  0  0  0  0  0  0
  186.3580  176.8600  141.2760 C   0  0  0  0  0  2  0  0  0  0  0  0
  191.8490  174.7510  146.5880 C   0  0  0  0  0  3  0  0  0  0  0  0
  190.9340  174.9220  145.5330 C   0  0  0  0  0  0  0  0  0  0  0  0
  191.6070  172.7890  144.5600 C   0  0  0  0  0  3  0  0  0  0  0  0
  188.1540  175.5440  142.3950 C   0  0  0  0  0  3  0  0  0  0  0  0
  188.9300  173.2220  141.3990 F   0  0  0  0  0  0  0  0  0  0  0  0
  193.2280  170.2370  144.4820 C   0  0  0  0  0  1  0  0  0  0  0  0
  189.8800  174.1340  143.4510 C   0  0  0  0  0  0  0  0  0  0  0  0
  191.4840  171.8290  143.5610 C   0  0  0  0  0  0  0  0  0  0  0  0
  184.4670  178.1210  143.1270 C   0  0  0  0  0  2  0  0  0  0  0  0
  184.1430  178.7300  144.4780 C   0  0  0  0  0  2  0  0  0  0  0  0
  184.6850  177.8410  145.5780 C   0  0  0  0  0  3  0  0  0  0  0  0
  184.0580  178.2490  146.8950 C   0  0  0  0  0  2  0  0  0  0  0  0
  185.4680  178.6860  146.5620 C   0  0  0  0  0  2  0  0  0  0  0  0
  1 28  1  0  0  0  0
  1 10  1  0  0  0  0
  2 26  2  0  0  0  0
  2 12  1  0  0  0  0
  3  4  1  0  0  0  0
  5  6  2  0  0  0  0
  5 26  1  0  0  0  0
  6 27  1  0  0  0  0
  7 23  2  0  0  0  0
  7 17  1  0  0  0  0
  8 12  1  0  0  0  0
  9 27  1  0  0  0  0
  9 25  1  0  0  0  0
 10 17  1  0  0  0  0
 11  3  2  0  0  0  0
 12 13  2  0  0  0  0
 13 21  1  0  0  0  0
 13 11  1  0  0  0  0
 14 22  1  0  0  0  0
 14 21  2  0  0  0  0
 15  9  1  0  0  0  0
 16 19  1  0  0  0  0
 16  1  1  0  0  0  0
 17  8  2  0  0  0  0
 18 15  1  0  0  0  0
 18  6  1  0  0  0  0
 19  7  1  0  0  0  0
 20  4  2  0  0  0  0
 21 20  1  0  0  0  0
 23  2  1  0  0  0  0
 24  5  1  0  0  0  0
 26 14  1  0  0  0  0
 27 22  2  0  0  0  0
 28 29  1  0  0  0  0
 29 30  1  0  0  0  0
 30 32  1  0  0  0  0
 30 31  1  0  0  0  0
 32 31  1  0  0  0  0
M  END
>  <MODEL>
2

>  <REMARK>
 VINA RESULT:      -8.3      2.664      7.615
  Name = 
  3 active torsions:
  status: ('A' for Active; 'I' for Inactive)
    1  A    between atoms: C_1  and  C_10
    2  A    between atoms: N_2  and  C_24
    3  A    between atoms: C_10  and  C_24
                            x       y       z     vdW  Elec       q    Type
                         _______ _______ _______ _____ _____    ______ ____

>  <TORSDO>
F 3

$$$$
=
 OpenBabel11052421383D

 32 38  0  0  0  0  0  0  0  0999 V2000
  190.7130  172.3290  139.3390 N   0  0  0  0  0  0  0  0  0  0  0  0
  188.6740  175.1590  143.0970 C   0  0  0  0  0  0  0  0  0  0  0  0
  191.9960  174.8660  146.6730 C   0  0  0  0  0  3  0  0  0  0  0  0
  191.2460  175.7470  147.4480 C   0  0  0  0  0  3  0  0  0  0  0  0
  186.6740  176.6150  143.4120 C   0  0  0  0  0  0  0  0  0  0  0  0
  185.9640  177.4990  144.2280 C   0  0  0  0  0  0  0  0  0  0  0  0
  189.0080  173.8660  141.0490 C   0  0  0  0  0  0  0  0  0  0  0  0
  190.6470  173.7490  142.8190 C   0  0  0  0  0  3  0  0  0  0  0  0
  185.5870  178.7490  146.1670 N   0  0  0  0  0  0  0  0  0  0  0  0
  191.0330  172.3670  140.7720 C   0  0  0  0  0  2  0  0  0  0  0  0
  191.5490  174.5000  145.4040 C   0  0  0  0  0  3  0  0  0  0  0  0
  189.8940  174.6400  143.6060 C   0  0  0  0  0  0  0  0  0  0  0  0
  190.3440  175.0110  144.8870 C   0  0  0  0  0  0  0  0  0  0  0  0
  188.3710  176.4310  145.1760 C   0  0  0  0  0  0  0  0  0  0  0  0
  184.3970  179.1410  145.4260 C   0  0  0  0  0  2  0  0  0  0  0  0
  189.2600  172.2860  139.1220 C   0  0  0  0  0  2  0  0  0  0  0  0
  190.2230  173.3740  141.5450 C   0  0  0  0  0  0  0  0  0  0  0  0
  184.4160  178.2780  143.7970 S   0  0  0  0  0  0  0  0  0  0  0  0
  188.5490  173.5300  139.6650 C   0  0  0  0  0  2  0  0  0  0  0  0
  190.0480  176.2630  146.9520 C   0  0  0  0  0  3  0  0  0  0  0  0
  189.5800  175.9070  145.6730 C   0  0  0  0  0  0  0  0  0  0  0  0
  187.6170  177.3260  145.9610 C   0  0  0  0  0  3  0  0  0  0  0  0
  188.2590  174.7580  141.8140 C   0  0  0  0  0  3  0  0  0  0  0  0
  186.1580  176.3170  142.1930 F   0  0  0  0  0  0  0  0  0  0  0  0
  185.8700  179.2580  147.4990 C   0  0  0  0  0  1  0  0  0  0  0  0
  187.9020  176.0620  143.8770 C   0  0  0  0  0  0  0  0  0  0  0  0
  186.4240  177.8440  145.4690 C   0  0  0  0  0  0  0  0  0  0  0  0
  191.3070  173.4860  138.6740 C   0  0  0  0  0  2  0  0  0  0  0  0
  191.3560  173.2500  137.1760 C   0  0  0  0  0  2  0  0  0  0  0  0
  190.9580  174.5170  136.4490 C   0  0  0  0  0  3  0  0  0  0  0  0
  189.4860  174.4450  136.0990 C   0  0  0  0  0  2  0  0  0  0  0  0
  190.5300  174.1700  135.0380 C   0  0  0  0  0  2  0  0  0  0  0  0
  1 10  1  0  0  0  0
  2 12  1  0  0  0  0
  2 26  1  0  0  0  0
  3  4  1  0  0  0  0
  5 26  2  0  0  0  0
  5  6  1  0  0  0  0
  6 27  2  0  0  0  0
  7 17  2  0  0  0  0
  7 23  1  0  0  0  0
  8 12  2  0  0  0  0
  9 25  1  0  0  0  0
 10 17  1  0  0  0  0
 11  3  2  0  0  0  0
 12 13  1  0  0  0  0
 13 11  1  0  0  0  0
 13 21  2  0  0  0  0
 14 21  1  0  0  0  0
 14 22  2  0  0  0  0
 15  9  1  0  0  0  0
 16  1  1  0  0  0  0
 16 19  1  0  0  0  0
 17  8  1  0  0  0  0
 18  6  1  0  0  0  0
 18 15  1  0  0  0  0
 19  7  1  0  0  0  0
 20  4  2  0  0  0  0
 21 20  1  0  0  0  0
 23  2  2  0  0  0  0
 24  5  1  0  0  0  0
 26 14  1  0  0  0  0
 27 22  1  0  0  0  0
 27  9  1  0  0  0  0
 28  1  1  0  0  0  0
 29 28  1  0  0  0  0
 30 29  1  0  0  0  0
 31 30  1  0  0  0  0
 32 31  1  0  0  0  0
 32 30  1  0  0  0  0
M  END
>  <MODEL>
3

>  <REMARK>
 VINA RESULT:      -8.1      3.826      6.083
  Name = 
  3 active torsions:
  status: ('A' for Active; 'I' for Inactive)
    1  A    between atoms: C_1  and  C_10
    2  A    between atoms: N_2  and  C_24
    3  A    between atoms: C_10  and  C_24
                            x       y       z     vdW  Elec       q    Type
                         _______ _______ _______ _____ _____    ______ ____

>  <TORSDO>
F 3

$$$$
=
 OpenBabel11052421383D

 32 38  0  0  0  0  0  0  0  0999 V2000
  191.3620  172.3170  139.6280 N   0  0  0  0  0  0  0  0  0  0  0  0
  188.9450  175.1330  143.1670 C   0  0  0  0  0  0  0  0  0  0  0  0
  191.9510  174.9440  147.0190 C   0  0  0  0  0  3  0  0  0  0  0  0
  191.1170  175.8160  147.7170 C   0  0  0  0  0  3  0  0  0  0  0  0
  186.8940  176.5470  143.2930 C   0  0  0  0  0  0  0  0  0  0  0  0
  186.0980  177.4220  144.0350 C   0  0  0  0  0  0  0  0  0  0  0  0
  189.4830  173.8310  141.1690 C   0  0  0  0  0  0  0  0  0  0  0  0
  190.9640  173.7650  143.0750 C   0  0  0  0  0  3  0  0  0  0  0  0
  185.5270  178.6800  145.9210 N   0  0  0  0  0  0  0  0  0  0  0  0
  191.5550  172.3750  141.0830 C   0  0  0  0  0  2  0  0  0  0  0  0
  191.6230  174.5580  145.7200 C   0  0  0  0  0  3  0  0  0  0  0  0
  190.1270  174.6450  143.7840 C   0  0  0  0  0  0  0  0  0  0  0  0
  190.4560  175.0370  145.0960 C   0  0  0  0  0  0  0  0  0  0  0  0
  188.4360  176.4160  145.1980 C   0  0  0  0  0  0  0  0  0  0  0  0
  184.3990  179.0380  145.0760 C   0  0  0  0  0  2  0  0  0  0  0  0
  189.9340  172.2400  139.2870 C   0  0  0  0  0  2  0  0  0  0  0  0
  190.6600  173.3700  141.7730 C   0  0  0  0  0  0  0  0  0  0  0  0
  184.5760  178.1630  143.4640 S   0  0  0  0  0  0  0  0  0  0  0  0
  189.1520  173.4730  139.7540 C   0  0  0  0  0  2  0  0  0  0  0  0
  189.9560  176.3010  147.1140 C   0  0  0  0  0  3  0  0  0  0  0  0
  189.6090  175.9230  145.8040 C   0  0  0  0  0  0  0  0  0  0  0  0
  187.5980  177.3000  145.9060 C   0  0  0  0  0  3  0  0  0  0  0  0
  188.6510  174.7120  141.8570 C   0  0  0  0  0  3  0  0  0  0  0  0
  186.4920  176.2270  142.0360 F   0  0  0  0  0  0  0  0  0  0  0  0
  185.6840  179.2060  147.2670 C   0  0  0  0  0  1  0  0  0  0  0  0
  188.0900  176.0250  143.8680 C   0  0  0  0  0  0  0  0  0  0  0  0
  186.4410  177.7880  145.3070 C   0  0  0  0  0  0  0  0  0  0  0  0
  191.9860  173.4810  139.0050 C   0  0  0  0  0  2  0  0  0  0  0  0
  193.4570  173.5350  139.3710 C   0  0  0  0  0  2  0  0  0  0  0  0
  193.7890  174.8990  139.9390 C   0  0  0  0  0  3  0  0  0  0  0  0
  195.2940  175.0320  140.0560 C   0  0  0  0  0  2  0  0  0  0  0  0
  194.4630  174.7280  141.2850 C   0  0  0  0  0  2  0  0  0  0  0  0
  1 10  1  0  0  0  0
  2 12  1  0  0  0  0
  2 26  1  0  0  0  0
  3  4  1  0  0  0  0
  5 26  2  0  0  0  0
  5  6  1  0  0  0  0
  6 27  2  0  0  0  0
  7 17  2  0  0  0  0
  7 23  1  0  0  0  0
  8 12  2  0  0  0  0
  9 25  1  0  0  0  0
 10 17  1  0  0  0  0
 11  3  2  0  0  0  0
 12 13  1  0  0  0  0
 13 11  1  0  0  0  0
 13 21  2  0  0  0  0
 14 21  1  0  0  0  0
 14 22  2  0  0  0  0
 15  9  1  0  0  0  0
 16  1  1  0  0  0  0
 16 19  1  0  0  0  0
 17  8  1  0  0  0  0
 18  6  1  0  0  0  0
 18 15  1  0  0  0  0
 19  7  1  0  0  0  0
 20  4  2  0  0  0  0
 21 20  1  0  0  0  0
 23  2  2  0  0  0  0
 24  5  1  0  0  0  0
 26 14  1  0  0  0  0
 27 22  1  0  0  0  0
 27  9  1  0  0  0  0
 28 29  1  0  0  0  0
 28  1  1  0  0  0  0
 29 30  1  0  0  0  0
 30 31  1  0  0  0  0
 30 32  1  0  0  0  0
 31 32  1  0  0  0  0
M  END
>  <MODEL>
4

>  <REMARK>
 VINA RESULT:      -8.0      3.153      5.110
  Name = 
  3 active torsions:
  status: ('A' for Active; 'I' for Inactive)
    1  A    between atoms: C_1  and  C_10
    2  A    between atoms: N_2  and  C_24
    3  A    between atoms: C_10  and  C_24
                            x       y       z     vdW  Elec       q    Type
                         _______ _______ _______ _____ _____    ______ ____

>  <TORSDO>
F 3

$$$$
=
 OpenBabel11052421383D

 32 38  0  0  0  0  0  0  0  0999 V2000
  185.2680  177.7490  146.9240 N   0  0  0  0  0  0  0  0  0  0  0  0
  189.6530  176.2450  144.7320 C   0  0  0  0  0  0  0  0  0  0  0  0
  188.1600  173.5780  140.9150 C   0  0  0  0  0  3  0  0  0  0  0  0
  189.4820  173.4120  140.5090 C   0  0  0  0  0  3  0  0  0  0  0  0
  192.0920  176.6570  145.0480 C   0  0  0  0  0  0  0  0  0  0  0  0
  193.3980  176.4630  144.5930 C   0  0  0  0  0  0  0  0  0  0  0  0
  187.9900  177.1330  146.2900 C   0  0  0  0  0  0  0  0  0  0  0  0
  187.2720  175.8290  144.3880 C   0  0  0  0  0  3  0  0  0  0  0  0
  195.0330  175.6320  143.1430 N   0  0  0  0  0  0  0  0  0  0  0  0
  185.5210  176.6680  145.9630 C   0  0  0  0  0  2  0  0  0  0  0  0
  187.8710  174.3210  142.0590 C   0  0  0  0  0  3  0  0  0  0  0  0
  188.6060  175.6580  143.9730 C   0  0  0  0  0  0  0  0  0  0  0  0
  188.9000  174.9100  142.8170 C   0  0  0  0  0  0  0  0  0  0  0  0
  191.2890  175.3240  143.1500 C   0  0  0  0  0  0  0  0  0  0  0  0
  195.9080  176.3300  144.0730 C   0  0  0  0  0  2  0  0  0  0  0  0
  186.2670  177.7440  148.0020 C   0  0  0  0  0  2  0  0  0  0  0  0
  186.9590  176.5720  145.5250 C   0  0  0  0  0  0  0  0  0  0  0  0
  194.8660  177.1090  145.3790 S   0  0  0  0  0  0  0  0  0  0  0  0
  187.6900  177.9820  147.4840 C   0  0  0  0  0  2  0  0  0  0  0  0
  190.5150  173.9890  141.2480 C   0  0  0  0  0  3  0  0  0  0  0  0
  190.2440  174.7420  142.4060 C   0  0  0  0  0  0  0  0  0  0  0  0
  192.6250  175.1570  142.7330 C   0  0  0  0  0  3  0  0  0  0  0  0
  189.3150  176.9810  145.8820 C   0  0  0  0  0  3  0  0  0  0  0  0
  191.9090  177.3920  146.1740 F   0  0  0  0  0  0  0  0  0  0  0  0
  195.5470  174.9080  141.9920 C   0  0  0  0  0  1  0  0  0  0  0  0
  191.0040  176.0850  144.3250 C   0  0  0  0  0  0  0  0  0  0  0  0
  193.6570  175.7330  143.4660 C   0  0  0  0  0  0  0  0  0  0  0  0
  185.2600  179.0330  146.2260 C   0  0  0  0  0  2  0  0  0  0  0  0
  184.3700  178.9470  145.0000 C   0  0  0  0  0  2  0  0  0  0  0  0
  184.9850  179.7450  143.8700 C   0  0  0  0  0  3  0  0  0  0  0  0
  185.0470  178.8780  142.6290 C   0  0  0  0  0  2  0  0  0  0  0  0
  186.2940  179.1020  143.4590 C   0  0  0  0  0  2  0  0  0  0  0  0
  1 16  1  0  0  0  0
  2 23  1  0  0  0  0
  3 11  1  0  0  0  0
  4  3  2  0  0  0  0
  4 20  1  0  0  0  0
  5 24  1  0  0  0  0
  6  5  1  0  0  0  0
  6 18  1  0  0  0  0
  7 19  1  0  0  0  0
  8 17  2  0  0  0  0
  9 27  1  0  0  0  0
  9 15  1  0  0  0  0
 10  1  1  0  0  0  0
 11 13  2  0  0  0  0
 12  8  1  0  0  0  0
 12  2  2  0  0  0  0
 13 12  1  0  0  0  0
 14 26  1  0  0  0  0
 15 18  1  0  0  0  0
 17 10  1  0  0  0  0
 17  7  1  0  0  0  0
 19 16  1  0  0  0  0
 20 21  2  0  0  0  0
 21 13  1  0  0  0  0
 21 14  1  0  0  0  0
 22 14  2  0  0  0  0
 22 27  1  0  0  0  0
 23  7  2  0  0  0  0
 25  9  1  0  0  0  0
 26  2  1  0  0  0  0
 26  5  2  0  0  0  0
 27  6  2  0  0  0  0
 28  1  1  0  0  0  0
 29 28  1  0  0  0  0
 30 29  1  0  0  0  0
 31 32  1  0  0  0  0
 31 30  1  0  0  0  0
 32 30  1  0  0  0  0
M  END
>  <MODEL>
5

>  <REMARK>
 VINA RESULT:      -7.9      2.972      7.763
  Name = 
  3 active torsions:
  status: ('A' for Active; 'I' for Inactive)
    1  A    between atoms: C_1  and  C_10
    2  A    between atoms: N_2  and  C_24
    3  A    between atoms: C_10  and  C_24
                            x       y       z     vdW  Elec       q    Type
                         _______ _______ _______ _____ _____    ______ ____

>  <TORSDO>
F 3

$$$$
=
 OpenBabel11052421383D

 32 38  0  0  0  0  0  0  0  0999 V2000
  185.3190  179.0200  143.2080 N   0  0  0  0  0  0  0  0  0  0  0  0
  189.0260  175.6560  142.0960 C   0  0  0  0  0  0  0  0  0  0  0  0
  192.5800  176.7940  145.2550 C   0  0  0  0  0  3  0  0  0  0  0  0
  193.3400  175.7220  144.7920 C   0  0  0  0  0  3  0  0  0  0  0  0
  189.3220  173.6910  140.5880 C   0  0  0  0  0  0  0  0  0  0  0  0
  190.1220  172.6280  140.1670 C   0  0  0  0  0  0  0  0  0  0  0  0
  187.0060  177.0320  142.0260 C   0  0  0  0  0  0  0  0  0  0  0  0
  188.7650  177.5670  143.5920 C   0  0  0  0  0  3  0  0  0  0  0  0
  192.0340  171.2820  140.1820 N   0  0  0  0  0  0  0  0  0  0  0  0
  186.7490  179.0430  143.5460 C   0  0  0  0  0  2  0  0  0  0  0  0
  191.3240  177.0460  144.7050 C   0  0  0  0  0  3  0  0  0  0  0  0
  189.5360  176.4850  143.1290 C   0  0  0  0  0  0  0  0  0  0  0  0
  190.8050  176.2290  143.6840 C   0  0  0  0  0  0  0  0  0  0  0  0
  191.0750  174.3070  142.1910 C   0  0  0  0  0  0  0  0  0  0  0  0
  191.2930  170.5880  139.1390 C   0  0  0  0  0  2  0  0  0  0  0  0
  185.1150  178.6590  141.7970 C   0  0  0  0  0  2  0  0  0  0  0  0
  187.5040  177.8340  143.0610 C   0  0  0  0  0  0  0  0  0  0  0  0
  189.6850  171.4550  138.8920 S   0  0  0  0  0  0  0  0  0  0  0  0
  185.6340  177.2540  141.4710 C   0  0  0  0  0  2  0  0  0  0  0  0
  192.8420  174.9010  143.7800 C   0  0  0  0  0  3  0  0  0  0  0  0
  191.5760  175.1380  143.2130 C   0  0  0  0  0  0  0  0  0  0  0  0
  191.8450  173.2210  141.7300 C   0  0  0  0  0  3  0  0  0  0  0  0
  187.7560  175.9500  141.5670 C   0  0  0  0  0  3  0  0  0  0  0  0
  188.1140  173.8580  139.9920 F   0  0  0  0  0  0  0  0  0  0  0  0
  193.3510  170.8460  140.6160 C   0  0  0  0  0  1  0  0  0  0  0  0
  189.7900  174.5570  141.6200 C   0  0  0  0  0  0  0  0  0  0  0  0
  191.3510  172.4000  140.7230 C   0  0  0  0  0  0  0  0  0  0  0  0
  184.6220  178.0900  144.0920 C   0  0  0  0  0  2  0  0  0  0  0  0
  185.0270  178.3450  145.5310 C   0  0  0  0  0  2  0  0  0  0  0  0
  185.2130  177.0240  146.2480 C   0  0  0  0  0  3  0  0  0  0  0  0
  185.8110  177.2840  147.6150 C   0  0  0  0  0  2  0  0  0  0  0  0
  186.6900  176.7890  146.4860 C   0  0  0  0  0  2  0  0  0  0  0  0
  1 10  1  0  0  0  0
  1 28  1  0  0  0  0
  2 12  1  0  0  0  0
  4  3  1  0  0  0  0
  5 26  1  0  0  0  0
  6  5  2  0  0  0  0
  6 27  1  0  0  0  0
  7 17  1  0  0  0  0
  9 25  1  0  0  0  0
  9 27  1  0  0  0  0
 11  3  2  0  0  0  0
 12  8  1  0  0  0  0
 12 13  2  0  0  0  0
 13 11  1  0  0  0  0
 14 21  2  0  0  0  0
 15  9  1  0  0  0  0
 16  1  1  0  0  0  0
 17 10  1  0  0  0  0
 17  8  2  0  0  0  0
 18 15  1  0  0  0  0
 18  6  1  0  0  0  0
 19 16  1  0  0  0  0
 19  7  1  0  0  0  0
 20  4  2  0  0  0  0
 21 13  1  0  0  0  0
 21 20  1  0  0  0  0
 22 14  1  0  0  0  0
 23  7  2  0  0  0  0
 23  2  1  0  0  0  0
 24  5  1  0  0  0  0
 26  2  2  0  0  0  0
 26 14  1  0  0  0  0
 27 22  2  0  0  0  0
 28 29  1  0  0  0  0
 29 30  1  0  0  0  0
 30 32  1  0  0  0  0
 30 31  1  0  0  0  0
 32 31  1  0  0  0  0
M  END
>  <MODEL>
6

>  <REMARK>
 VINA RESULT:      -7.9      3.066      7.457
  Name = 
  3 active torsions:
  status: ('A' for Active; 'I' for Inactive)
    1  A    between atoms: C_1  and  C_10
    2  A    between atoms: N_2  and  C_24
    3  A    between atoms: C_10  and  C_24
                            x       y       z     vdW  Elec       q    Type
                         _______ _______ _______ _____ _____    ______ ____

>  <TORSDO>
F 3

$$$$
=
 OpenBabel11052421383D

 32 38  0  0  0  0  0  0  0  0999 V2000
  186.8860  177.3490  143.1880 N   0  0  0  0  0  0  0  0  0  0  0  0
  190.8230  174.0930  143.6320 C   0  0  0  0  0  0  0  0  0  0  0  0
  194.0430  176.5660  146.3560 C   0  0  0  0  0  3  0  0  0  0  0  0
  194.8870  175.4570  146.3710 C   0  0  0  0  0  3  0  0  0  0  0  0
  191.3350  171.7400  142.9800 C   0  0  0  0  0  0  0  0  0  0  0  0
  192.2150  170.6580  143.0320 C   0  0  0  0  0  0  0  0  0  0  0  0
  188.7550  175.1960  142.9330 C   0  0  0  0  0  0  0  0  0  0  0  0
  190.3500  176.3940  144.2940 C   0  0  0  0  0  3  0  0  0  0  0  0
  194.1780  169.5560  143.6620 N   0  0  0  0  0  0  0  0  0  0  0  0
  188.2790  177.5980  143.5810 C   0  0  0  0  0  2  0  0  0  0  0  0
  192.8270  176.5060  145.6760 C   0  0  0  0  0  3  0  0  0  0  0  0
  191.2060  175.2770  144.3130 C   0  0  0  0  0  0  0  0  0  0  0  0
  192.4340  175.3360  145.0000 C   0  0  0  0  0  0  0  0  0  0  0  0
  192.9170  173.0270  144.3450 C   0  0  0  0  0  0  0  0  0  0  0  0
  193.5600  168.4760  142.9070 C   0  0  0  0  0  2  0  0  0  0  0  0
  186.8180  176.4820  142.0020 C   0  0  0  0  0  2  0  0  0  0  0  0
  189.1270  176.3550  143.6260 C   0  0  0  0  0  0  0  0  0  0  0  0
  191.9410  169.0710  142.2580 S   0  0  0  0  0  0  0  0  0  0  0  0
  187.4270  175.0980  142.2520 C   0  0  0  0  0  2  0  0  0  0  0  0
  194.5140  174.2890  145.7070 C   0  0  0  0  0  3  0  0  0  0  0  0
  193.2910  174.2090  145.0150 C   0  0  0  0  0  0  0  0  0  0  0  0
  193.7720  171.9070  144.3670 C   0  0  0  0  0  3  0  0  0  0  0  0
  189.5900  174.0790  142.9550 C   0  0  0  0  0  3  0  0  0  0  0  0
  190.1750  171.5880  142.2910 F   0  0  0  0  0  0  0  0  0  0  0  0
  195.4730  169.4060  144.3070 C   0  0  0  0  0  1  0  0  0  0  0  0
  191.6740  172.9550  143.6440 C   0  0  0  0  0  0  0  0  0  0  0  0
  193.4020  170.7400  143.7070 C   0  0  0  0  0  0  0  0  0  0  0  0
  186.1600  176.7580  144.3090 C   0  0  0  0  0  2  0  0  0  0  0  0
  186.2980  177.6410  145.5350 C   0  0  0  0  0  2  0  0  0  0  0  0
  185.1250  177.4070  146.4630 C   0  0  0  0  0  3  0  0  0  0  0  0
  184.0930  178.4930  146.2400 C   0  0  0  0  0  2  0  0  0  0  0  0
  185.0190  178.5640  147.4350 C   0  0  0  0  0  2  0  0  0  0  0  0
  1 10  1  0  0  0  0
  1 28  1  0  0  0  0
  2 26  2  0  0  0  0
  2 12  1  0  0  0  0
  3  4  1  0  0  0  0
  5  6  2  0  0  0  0
  5 26  1  0  0  0  0
  6 27  1  0  0  0  0
  7 23  2  0  0  0  0
  7 17  1  0  0  0  0
  8 12  1  0  0  0  0
  9 27  1  0  0  0  0
  9 25  1  0  0  0  0
 10 17  1  0  0  0  0
 11  3  2  0  0  0  0
 12 13  2  0  0  0  0
 13 21  1  0  0  0  0
 13 11  1  0  0  0  0
 14 22  1  0  0  0  0
 14 21  2  0  0  0  0
 15  9  1  0  0  0  0
 16 19  1  0  0  0  0
 16  1  1  0  0  0  0
 17  8  2  0  0  0  0
 18 15  1  0  0  0  0
 18  6  1  0  0  0  0
 19  7  1  0  0  0  0
 20  4  2  0  0  0  0
 21 20  1  0  0  0  0
 23  2  1  0  0  0  0
 24  5  1  0  0  0  0
 26 14  1  0  0  0  0
 27 22  2  0  0  0  0
 28 29  1  0  0  0  0
 29 30  1  0  0  0  0
 30 32  1  0  0  0  0
 31 30  1  0  0  0  0
 31 32  1  0  0  0  0
M  END
>  <MODEL>
7

>  <REMARK>
 VINA RESULT:      -7.9      3.194      8.446
  Name = 
  3 active torsions:
  status: ('A' for Active; 'I' for Inactive)
    1  A    between atoms: C_1  and  C_10
    2  A    between atoms: N_2  and  C_24
    3  A    between atoms: C_10  and  C_24
                            x       y       z     vdW  Elec       q    Type
                         _______ _______ _______ _____ _____    ______ ____

>  <TORSDO>
F 3

$$$$
=
 OpenBabel11052421383D

 32 38  0  0  0  0  0  0  0  0999 V2000
  186.2580  178.2040  143.1750 N   0  0  0  0  0  0  0  0  0  0  0  0
  189.9500  174.6570  143.4680 C   0  0  0  0  0  0  0  0  0  0  0  0
  193.1750  176.6270  146.5720 C   0  0  0  0  0  3  0  0  0  0  0  0
  193.9450  175.4670  146.5140 C   0  0  0  0  0  3  0  0  0  0  0  0
  190.3440  172.3500  142.6080 C   0  0  0  0  0  0  0  0  0  0  0  0
  191.1500  171.2100  142.5910 C   0  0  0  0  0  0  0  0  0  0  0  0
  187.9970  175.9620  142.7900 C   0  0  0  0  0  0  0  0  0  0  0  0
  189.5920  176.9100  144.3370 C   0  0  0  0  0  3  0  0  0  0  0  0
  193.0030  169.9200  143.1960 N   0  0  0  0  0  0  0  0  0  0  0  0
  187.6420  178.3180  143.6540 C   0  0  0  0  0  2  0  0  0  0  0  0
  191.9950  176.7170  145.8340 C   0  0  0  0  0  3  0  0  0  0  0  0
  190.3720  175.7410  144.2820 C   0  0  0  0  0  0  0  0  0  0  0  0
  191.5640  175.6480  145.0270 C   0  0  0  0  0  0  0  0  0  0  0  0
  191.9320  173.3860  144.1660 C   0  0  0  0  0  0  0  0  0  0  0  0
  192.3580  168.9630  142.3090 C   0  0  0  0  0  2  0  0  0  0  0  0
  186.1970  177.4630  141.9060 C   0  0  0  0  0  2  0  0  0  0  0  0
  188.4050  177.0210  143.6130 C   0  0  0  0  0  0  0  0  0  0  0  0
  190.8160  169.7290  141.6500 S   0  0  0  0  0  0  0  0  0  0  0  0
  186.7020  176.0230  142.0430 C   0  0  0  0  0  2  0  0  0  0  0  0
  193.5330  174.3980  145.7190 C   0  0  0  0  0  3  0  0  0  0  0  0
  192.3450  174.4690  144.9680 C   0  0  0  0  0  0  0  0  0  0  0  0
  192.7110  172.2140  144.1140 C   0  0  0  0  0  3  0  0  0  0  0  0
  188.7560  174.7940  142.7380 C   0  0  0  0  0  3  0  0  0  0  0  0
  189.2150  172.3450  141.8550 F   0  0  0  0  0  0  0  0  0  0  0  0
  194.2500  169.6200  143.8800 C   0  0  0  0  0  1  0  0  0  0  0  0
  190.7250  173.4680  143.4050 C   0  0  0  0  0  0  0  0  0  0  0  0
  192.3030  171.1440  143.3240 C   0  0  0  0  0  0  0  0  0  0  0  0
  185.4380  177.5580  144.1970 C   0  0  0  0  0  2  0  0  0  0  0  0
  185.7100  178.1870  145.5500 C   0  0  0  0  0  2  0  0  0  0  0  0
  185.6100  177.1320  146.6300 C   0  0  0  0  0  3  0  0  0  0  0  0
  186.1110  177.7130  147.9360 C   0  0  0  0  0  2  0  0  0  0  0  0
  187.0010  176.7930  147.1270 C   0  0  0  0  0  2  0  0  0  0  0  0
  1 10  1  0  0  0  0
  1 28  1  0  0  0  0
  2 12  1  0  0  0  0
  4  3  1  0  0  0  0
  5 26  1  0  0  0  0
  6  5  2  0  0  0  0
  6 27  1  0  0  0  0
  7 17  1  0  0  0  0
  9 27  1  0  0  0  0
  9 25  1  0  0  0  0
 11  3  2  0  0  0  0
 12  8  1  0  0  0  0
 12 13  2  0  0  0  0
 13 11  1  0  0  0  0
 14 21  2  0  0  0  0
 15  9  1  0  0  0  0
 16 19  1  0  0  0  0
 16  1  1  0  0  0  0
 17 10  1  0  0  0  0
 17  8  2  0  0  0  0
 18 15  1  0  0  0  0
 18  6  1  0  0  0  0
 19  7  1  0  0  0  0
 20  4  2  0  0  0  0
 21 13  1  0  0  0  0
 21 20  1  0  0  0  0
 22 14  1  0  0  0  0
 23  7  2  0  0  0  0
 23  2  1  0  0  0  0
 24  5  1  0  0  0  0
 26  2  2  0  0  0  0
 26 14  1  0  0  0  0
 27 22  2  0  0  0  0
 28 29  1  0  0  0  0
 29 30  1  0  0  0  0
 30 32  1  0  0  0  0
 30 31  1  0  0  0  0
 32 31  1  0  0  0  0
M  END
>  <MODEL>
8

>  <REMARK>
 VINA RESULT:      -7.9      2.935      7.804
  Name = 
  3 active torsions:
  status: ('A' for Active; 'I' for Inactive)
    1  A    between atoms: C_1  and  C_10
    2  A    between atoms: N_2  and  C_24
    3  A    between atoms: C_10  and  C_24
                            x       y       z     vdW  Elec       q    Type
                         _______ _______ _______ _____ _____    ______ ____

>  <TORSDO>
F 3

$$$$
=
 OpenBabel11052421383D

 32 38  0  0  0  0  0  0  0  0999 V2000
  194.5420  172.7060  141.9900 N   0  0  0  0  0  0  0  0  0  0  0  0
  190.5220  175.5500  143.4200 C   0  0  0  0  0  0  0  0  0  0  0  0
  191.5670  176.7550  148.0420 C   0  0  0  0  0  3  0  0  0  0  0  0
  190.4180  177.5410  148.1010 C   0  0  0  0  0  3  0  0  0  0  0  0
  188.4690  176.4830  142.3550 C   0  0  0  0  0  0  0  0  0  0  0  0
  187.3340  177.2890  142.4660 C   0  0  0  0  0  0  0  0  0  0  0  0
  192.0200  174.0400  142.2130 C   0  0  0  0  0  0  0  0  0  0  0  0
  192.5280  174.6620  144.4910 C   0  0  0  0  0  3  0  0  0  0  0  0
  185.8610  178.7280  143.5740 N   0  0  0  0  0  0  0  0  0  0  0  0
  194.0790  173.0800  143.3330 C   0  0  0  0  0  2  0  0  0  0  0  0
  191.8810  176.0670  146.8710 C   0  0  0  0  0  3  0  0  0  0  0  0
  191.3690  175.4580  144.5550 C   0  0  0  0  0  0  0  0  0  0  0  0
  191.0510  176.1540  145.7370 C   0  0  0  0  0  0  0  0  0  0  0  0
  189.0390  177.0540  144.6720 C   0  0  0  0  0  0  0  0  0  0  0  0
  185.1750  178.6660  142.2920 C   0  0  0  0  0  2  0  0  0  0  0  0
  193.4220  172.2580  141.1510 C   0  0  0  0  0  2  0  0  0  0  0  0
  192.8650  173.9700  143.3280 C   0  0  0  0  0  0  0  0  0  0  0  0
  186.1340  177.5590  141.1720 S   0  0  0  0  0  0  0  0  0  0  0  0
  192.3770  173.3570  140.9310 C   0  0  0  0  0  2  0  0  0  0  0  0
  189.5840  177.6390  146.9870 C   0  0  0  0  0  3  0  0  0  0  0  0
  189.8840  176.9530  145.7960 C   0  0  0  0  0  0  0  0  0  0  0  0
  187.8810  177.8540  144.7350 C   0  0  0  0  0  3  0  0  0  0  0  0
  190.8750  174.8350  142.2610 C   0  0  0  0  0  3  0  0  0  0  0  0
  188.6900  175.8500  141.1740 F   0  0  0  0  0  0  0  0  0  0  0  0
  185.3580  179.5220  144.6830 C   0  0  0  0  0  1  0  0  0  0  0  0
  189.3510  176.3520  143.4670 C   0  0  0  0  0  0  0  0  0  0  0  0
  187.0480  177.9560  143.6260 C   0  0  0  0  0  0  0  0  0  0  0  0
  195.2340  173.8370  141.3780 C   0  0  0  0  0  2  0  0  0  0  0  0
  196.1450  174.4970  142.3960 C   0  0  0  0  0  2  0  0  0  0  0  0
  195.8570  175.9830  142.4470 C   0  0  0  0  0  3  0  0  0  0  0  0
  197.0080  176.6850  143.1380 C   0  0  0  0  0  2  0  0  0  0  0  0
  195.7240  176.4150  143.8930 C   0  0  0  0  0  2  0  0  0  0  0  0
  1 10  1  0  0  0  0
  2 26  2  0  0  0  0
  2 12  1  0  0  0  0
  3  4  1  0  0  0  0
  5  6  2  0  0  0  0
  5 26  1  0  0  0  0
  6 27  1  0  0  0  0
  7 23  2  0  0  0  0
  7 17  1  0  0  0  0
  8 12  1  0  0  0  0
  9 27  1  0  0  0  0
  9 25  1  0  0  0  0
 11  3  2  0  0  0  0
 12 13  2  0  0  0  0
 13 21  1  0  0  0  0
 13 11  1  0  0  0  0
 14 22  1  0  0  0  0
 14 21  2  0  0  0  0
 15  9  1  0  0  0  0
 16  1  1  0  0  0  0
 17 10  1  0  0  0  0
 17  8  2  0  0  0  0
 18 15  1  0  0  0  0
 18  6  1  0  0  0  0
 19 16  1  0  0  0  0
 19  7  1  0  0  0  0
 20  4  2  0  0  0  0
 21 20  1  0  0  0  0
 23  2  1  0  0  0  0
 24  5  1  0  0  0  0
 26 14  1  0  0  0  0
 27 22  2  0  0  0  0
 28  1  1  0  0  0  0
 28 29  1  0  0  0  0
 29 30  1  0  0  0  0
 30 31  1  0  0  0  0
 30 32  1  0  0  0  0
 31 32  1  0  0  0  0
M  END
>  <MODEL>
9

>  <REMARK>
 VINA RESULT:      -7.8      2.110      3.760
  Name = 
  3 active torsions:
  status: ('A' for Active; 'I' for Inactive)
    1  A    between atoms: C_1  and  C_10
    2  A    between atoms: N_2  and  C_24
    3  A    between atoms: C_10  and  C_24
                            x       y       z     vdW  Elec       q    Type
                         _______ _______ _______ _____ _____    ______ ____

>  <TORSDO>
F 3

$$$$
