=
 OpenBabel11052417363D

 25 27  0  0  1  0  0  0  0  0999 V2000
  186.0770  177.3360  143.2940 N   0  0  0  0  0  0  0  0  0  0  0  0
  186.5360  177.2980  144.6490 C   0  0  0  0  0  0  0  0  0  0  0  0
  184.9960  179.4850  143.6570 C   0  0  0  0  0  2  0  0  0  0  0  0
  186.8100  176.8730  142.1290 C   0  0  1  0  0  3  0  0  0  0  0  0
  185.1870  179.2660  145.0610 O   0  0  0  0  0  0  0  0  0  0  0  0
  185.9920  177.2700  140.9650 N   0  0  0  0  0  0  0  0  0  0  0  0
  186.4570  178.2260  146.8770 C   0  0  0  0  0  0  0  0  0  0  0  0
  185.9580  179.2270  147.8600 C   0  0  0  0  0  1  0  0  0  0  0  0
  187.4110  176.3480  145.0750 N   0  0  0  0  0  0  0  0  0  0  0  0
  184.9370  178.1490  142.9180 C   0  0  1  0  0  3  0  0  0  0  0  0
  185.0810  178.3280  141.4190 C   0  0  0  0  0  2  0  0  0  0  0  0
  187.3500  177.2370  147.2960 C   0  0  0  0  0  3  0  0  0  0  0  0
  187.8300  176.3030  146.3690 C   0  0  0  0  0  0  0  0  0  0  0  0
  186.0570  178.2710  145.5370 C   0  0  0  0  0  0  0  0  0  0  0  0
  186.5560  176.5580  138.6170 C   0  0  0  0  0  1  0  0  0  0  0  0
  186.7220  177.5940  139.7260 C   0  0  0  0  0  2  0  0  0  0  0  0
  189.1860  176.3910  142.1520 O   0  0  0  0  0  1  0  0  0  0  0  0
  188.2470  177.4250  142.1260 C   0  0  0  0  0  2  0  0  0  0  0  0
  188.7680  175.2370  146.8090 C   0  0  0  0  0  2  0  0  0  0  0  0
  189.6240  174.7840  145.6380 C   0  0  0  0  0  2  0  0  0  0  0  0
  191.0790  175.1550  145.8680 C   0  0  2  0  0  3  0  0  0  0  0  0
  191.2930  175.7250  147.5850 S   0  0  0  0  0  1  0  0  0  0  0  0
  191.5440  176.2050  144.8570 C   0  0  2  0  0  3  0  0  0  0  0  0
  193.0280  176.4790  145.0030 C   0  0  0  0  0  1  0  0  0  0  0  0
  190.8230  177.3930  144.9960 O   0  0  0  0  0  1  0  0  0  0  0  0
  1  2  1  0  0  0  0
  2  9  2  0  0  0  0
  2 14  1  0  0  0  0
  3  5  1  0  0  0  0
  4 18  1  6  0  0  0
  4  1  1  0  0  0  0
  5 14  1  0  0  0  0
  6 11  1  0  0  0  0
  6  4  1  0  0  0  0
  7 12  1  0  0  0  0
  7  8  1  0  0  0  0
  9 13  1  0  0  0  0
 10 11  1  6  0  0  0
 10  1  1  0  0  0  0
 10  3  1  0  0  0  0
 13 19  1  0  0  0  0
 13 12  2  0  0  0  0
 14  7  2  0  0  0  0
 15 16  1  0  0  0  0
 16  6  1  0  0  0  0
 18 17  1  0  0  0  0
 20 21  1  0  0  0  0
 20 19  1  0  0  0  0
 21 22  1  1  0  0  0
 23 25  1  0  0  0  0
 23 24  1  1  0  0  0
 23 21  1  0  0  0  0
M  END
>  <MODEL>
1

>  <REMARK>
 VINA RESULT:      -6.3      0.000      0.000
  Name = 
  6 active torsions:
  status: ('A' for Active; 'I' for Inactive)
    1  A    between atoms: C_2  and  C_21
    2  A    between atoms: C_5  and  C_22
    3  A    between atoms: C_6  and  C_15
    4  A    between atoms: C_6  and  C_23
    5  A    between atoms: N_10  and  C_11
    6  A    between atoms: C_15  and  C_21
                            x       y       z     vdW  Elec       q    Type
                         _______ _______ _______ _____ _____    ______ ____

>  <TORSDO>
F 6

$$$$
=
 OpenBabel11052417363D

 25 27  0  0  1  0  0  0  0  0999 V2000
  187.5640  177.5750  143.6850 N   0  0  0  0  0  0  0  0  0  0  0  0
  188.3390  176.4730  143.2010 C   0  0  0  0  0  0  0  0  0  0  0  0
  186.0250  177.3950  141.8100 C   0  0  0  0  0  2  0  0  0  0  0  0
  187.2690  177.8700  145.0760 C   0  0  1  0  0  3  0  0  0  0  0  0
  186.9870  176.5270  141.1940 O   0  0  0  0  0  0  0  0  0  0  0  0
  186.3170  178.9980  145.0480 N   0  0  0  0  0  0  0  0  0  0  0  0
  188.8220  174.9210  141.4150 C   0  0  0  0  0  0  0  0  0  0  0  0
  188.5610  174.3670  140.0590 C   0  0  0  0  0  1  0  0  0  0  0  0
  189.3340  175.9240  143.9480 N   0  0  0  0  0  0  0  0  0  0  0  0
  186.7200  178.3400  142.7880 C   0  0  1  0  0  3  0  0  0  0  0  0
  185.7260  179.0300  143.7040 C   0  0  0  0  0  2  0  0  0  0  0  0
  189.8440  174.3770  142.1960 C   0  0  0  0  0  3  0  0  0  0  0  0
  190.0810  174.8890  143.4780 C   0  0  0  0  0  0  0  0  0  0  0  0
  188.0470  175.9690  141.9270 C   0  0  0  0  0  0  0  0  0  0  0  0
  183.8890  178.8280  145.6910 C   0  0  0  0  0  1  0  0  0  0  0  0
  185.3300  179.0540  146.1410 C   0  0  0  0  0  2  0  0  0  0  0  0
  187.6160  176.2620  146.8590 O   0  0  0  0  0  1  0  0  0  0  0  0
  186.7620  176.6140  145.8100 C   0  0  0  0  0  2  0  0  0  0  0  0
  191.1780  174.3270  144.3090 C   0  0  0  0  0  2  0  0  0  0  0  0
  190.8320  174.4590  145.7820 C   0  0  0  0  0  2  0  0  0  0  0  0
  191.9650  175.1370  146.5360 C   0  0  2  0  0  3  0  0  0  0  0  0
  191.2850  176.4680  147.5770 S   0  0  0  0  0  1  0  0  0  0  0  0
  193.0320  175.6550  145.5710 C   0  0  2  0  0  3  0  0  0  0  0  0
  194.4200  175.4960  146.1620 C   0  0  0  0  0  1  0  0  0  0  0  0
  192.8060  176.9930  145.2400 O   0  0  0  0  0  1  0  0  0  0  0  0
  1  4  1  0  0  0  0
  2  1  1  0  0  0  0
  2  9  1  0  0  0  0
  4 18  1  6  0  0  0
  5  3  1  0  0  0  0
  5 14  1  0  0  0  0
  6  4  1  0  0  0  0
  6 16  1  0  0  0  0
  7 14  1  0  0  0  0
  7 12  2  0  0  0  0
  8  7  1  0  0  0  0
 10  3  1  6  0  0  0
 10  1  1  0  0  0  0
 10 11  1  0  0  0  0
 11  6  1  0  0  0  0
 12 13  1  0  0  0  0
 13  9  2  0  0  0  0
 13 19  1  0  0  0  0
 14  2  2  0  0  0  0
 15 16  1  0  0  0  0
 18 17  1  0  0  0  0
 19 20  1  0  0  0  0
 20 21  1  0  0  0  0
 21 22  1  6  0  0  0
 23 24  1  1  0  0  0
 23 21  1  0  0  0  0
 25 23  1  0  0  0  0
M  END
>  <MODEL>
2

>  <REMARK>
 VINA RESULT:      -6.1      2.016      4.378
  Name = 
  6 active torsions:
  status: ('A' for Active; 'I' for Inactive)
    1  A    between atoms: C_2  and  C_21
    2  A    between atoms: C_5  and  C_22
    3  A    between atoms: C_6  and  C_15
    4  A    between atoms: C_6  and  C_23
    5  A    between atoms: N_10  and  C_11
    6  A    between atoms: C_15  and  C_21
                            x       y       z     vdW  Elec       q    Type
                         _______ _______ _______ _____ _____    ______ ____

>  <TORSDO>
F 6

$$$$
=
 OpenBabel11052417363D

 25 27  0  0  1  0  0  0  0  0999 V2000
  192.2990  176.6240  145.3150 N   0  0  0  0  0  0  0  0  0  0  0  0
  190.8980  176.6920  145.0350 C   0  0  0  0  0  0  0  0  0  0  0  0
  191.8750  175.7010  147.5250 C   0  0  0  0  0  2  0  0  0  0  0  0
  193.3450  176.2740  144.3700 C   0  0  1  0  0  3  0  0  0  0  0  0
  190.5030  176.0800  147.3440 O   0  0  0  0  0  0  0  0  0  0  0  0
  194.5850  176.1880  145.1670 N   0  0  0  0  0  0  0  0  0  0  0  0
  188.6260  176.5410  145.8420 C   0  0  0  0  0  0  0  0  0  0  0  0
  187.6380  176.2970  146.9280 C   0  0  0  0  0  1  0  0  0  0  0  0
  190.4370  177.0000  143.7930 N   0  0  0  0  0  0  0  0  0  0  0  0
  192.7840  176.5930  146.6810 C   0  0  1  0  0  3  0  0  0  0  0  0
  194.1850  176.0230  146.5700 C   0  0  0  0  0  2  0  0  0  0  0  0
  188.1740  176.8650  144.5610 C   0  0  0  0  0  3  0  0  0  0  0  0
  189.1030  177.0820  143.5350 C   0  0  0  0  0  0  0  0  0  0  0  0
  190.0020  176.4360  146.0820 C   0  0  0  0  0  0  0  0  0  0  0  0
  196.1040  174.2850  145.8080 C   0  0  0  0  0  1  0  0  0  0  0  0
  195.5960  175.2170  144.7110 C   0  0  0  0  0  2  0  0  0  0  0  0
  192.9530  175.2220  142.2200 O   0  0  0  0  0  1  0  0  0  0  0  0
  192.9840  174.9910  143.5980 C   0  0  0  0  0  2  0  0  0  0  0  0
  188.6310  177.4440  142.1720 C   0  0  0  0  0  2  0  0  0  0  0  0
  187.4320  178.3720  142.2680 C   0  0  0  0  0  2  0  0  0  0  0  0
  186.1870  177.6890  141.7250 C   0  0  2  0  0  3  0  0  0  0  0  0
  186.3080  177.5690  139.9110 S   0  0  0  0  0  1  0  0  0  0  0  0
  184.9220  178.4270  142.1650 C   0  0  2  0  0  3  0  0  0  0  0  0
  184.6910  178.2650  143.6540 C   0  0  0  0  0  1  0  0  0  0  0  0
  183.8040  177.9770  141.4580 O   0  0  0  0  0  1  0  0  0  0  0  0
  1 10  1  0  0  0  0
  2  1  1  0  0  0  0
  2 14  1  0  0  0  0
  4 18  1  1  0  0  0
  4  6  1  0  0  0  0
  4  1  1  0  0  0  0
  5  3  1  0  0  0  0
  6 11  1  0  0  0  0
  7 14  2  0  0  0  0
  7  8  1  0  0  0  0
  9  2  2  0  0  0  0
 10 11  1  6  0  0  0
 10  3  1  0  0  0  0
 12  7  1  0  0  0  0
 13  9  1  0  0  0  0
 13 12  2  0  0  0  0
 14  5  1  0  0  0  0
 16  6  1  0  0  0  0
 16 15  1  0  0  0  0
 17 18  1  0  0  0  0
 19 20  1  0  0  0  0
 19 13  1  0  0  0  0
 21 22  1  6  0  0  0
 21 23  1  0  0  0  0
 21 20  1  0  0  0  0
 23 24  1  1  0  0  0
 25 23  1  0  0  0  0
M  END
>  <MODEL>
3

>  <REMARK>
 VINA RESULT:      -5.9      3.266      7.135
  Name = 
  6 active torsions:
  status: ('A' for Active; 'I' for Inactive)
    1  A    between atoms: C_2  and  C_21
    2  A    between atoms: C_5  and  C_22
    3  A    between atoms: C_6  and  C_15
    4  A    between atoms: C_6  and  C_23
    5  A    between atoms: N_10  and  C_11
    6  A    between atoms: C_15  and  C_21
                            x       y       z     vdW  Elec       q    Type
                         _______ _______ _______ _____ _____    ______ ____

>  <TORSDO>
F 6

$$$$
=
 OpenBabel11052417363D

 25 27  0  0  1  0  0  0  0  0999 V2000
  185.9990  177.2100  143.8420 N   0  0  0  0  0  0  0  0  0  0  0  0
  187.2560  176.8910  144.4460 C   0  0  0  0  0  0  0  0  0  0  0  0
  185.6520  179.0510  145.3930 C   0  0  0  0  0  2  0  0  0  0  0  0
  185.6890  177.1460  142.4240 C   0  0  1  0  0  3  0  0  0  0  0  0
  186.7340  178.5140  146.1650 O   0  0  0  0  0  0  0  0  0  0  0  0
  184.3340  177.7170  142.2900 N   0  0  0  0  0  0  0  0  0  0  0  0
  188.8080  177.2170  146.2680 C   0  0  0  0  0  0  0  0  0  0  0  0
  189.2070  177.8710  147.5430 C   0  0  0  0  0  1  0  0  0  0  0  0
  188.0990  175.9790  143.8900 N   0  0  0  0  0  0  0  0  0  0  0  0
  184.9870  177.9450  144.5750 C   0  0  1  0  0  3  0  0  0  0  0  0
  184.0780  178.5090  143.5000 C   0  0  0  0  0  2  0  0  0  0  0  0
  189.6550  176.2720  145.6840 C   0  0  0  0  0  3  0  0  0  0  0  0
  189.2860  175.6650  144.4770 C   0  0  0  0  0  0  0  0  0  0  0  0
  187.6030  177.5450  145.6350 C   0  0  0  0  0  0  0  0  0  0  0  0
  182.6030  178.2590  140.5440 C   0  0  0  0  0  1  0  0  0  0  0  0
  184.0400  178.4270  141.0320 C   0  0  0  0  0  2  0  0  0  0  0  0
  187.3310  176.9860  140.6470 O   0  0  0  0  0  1  0  0  0  0  0  0
  186.7730  177.8530  141.5900 C   0  0  0  0  0  2  0  0  0  0  0  0
  190.1740  174.6460  143.8580 C   0  0  0  0  0  2  0  0  0  0  0  0
  191.3750  174.3920  144.7530 C   0  0  0  0  0  2  0  0  0  0  0  0
  192.6600  174.7750  144.0380 C   0  0  2  0  0  3  0  0  0  0  0  0
  193.6950  173.2910  143.8200 S   0  0  0  0  0  1  0  0  0  0  0  0
  193.4000  175.8800  144.7940 C   0  0  2  0  0  3  0  0  0  0  0  0
  193.4000  175.6090  146.2860 C   0  0  0  0  0  1  0  0  0  0  0  0
  192.8360  177.1320  144.5380 O   0  0  0  0  0  1  0  0  0  0  0  0
  1  2  1  0  0  0  0
  1 10  1  0  0  0  0
  2 14  1  0  0  0  0
  3  5  1  0  0  0  0
  4 18  1  6  0  0  0
  4  1  1  0  0  0  0
  6  4  1  0  0  0  0
  6 11  1  0  0  0  0
  7  8  1  0  0  0  0
  9  2  2  0  0  0  0
  9 13  1  0  0  0  0
 10 11  1  6  0  0  0
 10  3  1  0  0  0  0
 12  7  1  0  0  0  0
 13 12  2  0  0  0  0
 14  5  1  0  0  0  0
 14  7  2  0  0  0  0
 15 16  1  0  0  0  0
 16  6  1  0  0  0  0
 17 18  1  0  0  0  0
 19 13  1  0  0  0  0
 19 20  1  0  0  0  0
 21 22  1  1  0  0  0
 21 20  1  0  0  0  0
 21 23  1  0  0  0  0
 23 24  1  1  0  0  0
 25 23  1  0  0  0  0
M  END
>  <MODEL>
4

>  <REMARK>
 VINA RESULT:      -5.9      1.966      2.532
  Name = 
  6 active torsions:
  status: ('A' for Active; 'I' for Inactive)
    1  A    between atoms: C_2  and  C_21
    2  A    between atoms: C_5  and  C_22
    3  A    between atoms: C_6  and  C_15
    4  A    between atoms: C_6  and  C_23
    5  A    between atoms: N_10  and  C_11
    6  A    between atoms: C_15  and  C_21
                            x       y       z     vdW  Elec       q    Type
                         _______ _______ _______ _____ _____    ______ ____

>  <TORSDO>
F 6

$$$$
=
 OpenBabel11052417363D

 25 27  0  0  1  0  0  0  0  0999 V2000
  187.8170  177.4530  143.5580 N   0  0  0  0  0  0  0  0  0  0  0  0
  188.6320  176.2860  143.4050 C   0  0  0  0  0  0  0  0  0  0  0  0
  186.8290  177.1230  141.3600 C   0  0  0  0  0  2  0  0  0  0  0  0
  187.1770  177.8950  144.7840 C   0  0  1  0  0  3  0  0  0  0  0  0
  187.8720  176.1710  141.1100 O   0  0  0  0  0  0  0  0  0  0  0  0
  186.3290  179.0410  144.3960 N   0  0  0  0  0  0  0  0  0  0  0  0
  189.4910  174.5470  141.9670 C   0  0  0  0  0  0  0  0  0  0  0  0
  189.5740  173.8650  140.6470 C   0  0  0  0  0  1  0  0  0  0  0  0
  189.3600  175.7900  144.4420 N   0  0  0  0  0  0  0  0  0  0  0  0
  187.2860  178.1440  142.4000 C   0  0  1  0  0  3  0  0  0  0  0  0
  186.1220  178.9510  142.9450 C   0  0  0  0  0  2  0  0  0  0  0  0
  190.2360  174.0580  143.0420 C   0  0  0  0  0  3  0  0  0  0  0  0
  190.1490  174.6920  144.2880 C   0  0  0  0  0  0  0  0  0  0  0  0
  188.6660  175.6630  142.1510 C   0  0  0  0  0  0  0  0  0  0  0  0
  183.8130  179.1070  144.3430 C   0  0  0  0  0  1  0  0  0  0  0  0
  185.0900  179.2350  145.1700 C   0  0  0  0  0  2  0  0  0  0  0  0
  186.8880  176.5270  146.7650 O   0  0  0  0  0  1  0  0  0  0  0  0
  186.4250  176.7360  145.4640 C   0  0  0  0  0  2  0  0  0  0  0  0
  190.9520  174.1880  145.4340 C   0  0  0  0  0  2  0  0  0  0  0  0
  191.9980  175.2170  145.8260 C   0  0  0  0  0  2  0  0  0  0  0  0
  193.3580  174.8320  145.2670 C   0  0  2  0  0  3  0  0  0  0  0  0
  193.4660  173.0180  145.1360 S   0  0  0  0  0  1  0  0  0  0  0  0
  194.4860  175.4100  146.1230 C   0  0  2  0  0  3  0  0  0  0  0  0
  194.1590  176.8220  146.5690 C   0  0  0  0  0  1  0  0  0  0  0  0
  195.7000  175.3980  145.4330 O   0  0  0  0  0  1  0  0  0  0  0  0
  1  4  1  0  0  0  0
  2  1  1  0  0  0  0
  2  9  1  0  0  0  0
  4 18  1  6  0  0  0
  5  3  1  0  0  0  0
  5 14  1  0  0  0  0
  6  4  1  0  0  0  0
  6 16  1  0  0  0  0
  7 14  1  0  0  0  0
  7 12  2  0  0  0  0
  8  7  1  0  0  0  0
 10  3  1  6  0  0  0
 10 11  1  0  0  0  0
 10  1  1  0  0  0  0
 11  6  1  0  0  0  0
 12 13  1  0  0  0  0
 13  9  2  0  0  0  0
 13 19  1  0  0  0  0
 14  2  2  0  0  0  0
 15 16  1  0  0  0  0
 18 17  1  0  0  0  0
 19 20  1  0  0  0  0
 21 22  1  1  0  0  0
 21 20  1  0  0  0  0
 21 23  1  0  0  0  0
 23 24  1  6  0  0  0
 25 23  1  0  0  0  0
M  END
>  <MODEL>
5

>  <REMARK>
 VINA RESULT:      -5.8      2.365      4.525
  Name = 
  6 active torsions:
  status: ('A' for Active; 'I' for Inactive)
    1  A    between atoms: C_2  and  C_21
    2  A    between atoms: C_5  and  C_22
    3  A    between atoms: C_6  and  C_15
    4  A    between atoms: C_6  and  C_23
    5  A    between atoms: N_10  and  C_11
    6  A    between atoms: C_15  and  C_21
                            x       y       z     vdW  Elec       q    Type
                         _______ _______ _______ _____ _____    ______ ____

>  <TORSDO>
F 6

$$$$
=
 OpenBabel11052417363D

 25 27  0  0  1  0  0  0  0  0999 V2000
  187.6610  176.4710  144.7520 N   0  0  0  0  0  0  0  0  0  0  0  0
  189.0560  176.3390  145.0430 C   0  0  0  0  0  0  0  0  0  0  0  0
  187.2640  177.5970  146.8710 C   0  0  0  0  0  2  0  0  0  0  0  0
  187.0810  176.7540  143.4510 C   0  0  1  0  0  3  0  0  0  0  0  0
  188.5730  177.1670  147.2660 O   0  0  0  0  0  0  0  0  0  0  0  0
  185.6380  176.9510  143.6960 N   0  0  0  0  0  0  0  0  0  0  0  0
  190.8500  176.5100  146.6510 C   0  0  0  0  0  0  0  0  0  0  0  0
  191.3600  176.8350  148.0110 C   0  0  0  0  0  1  0  0  0  0  0  0
  189.9380  175.8990  144.1050 N   0  0  0  0  0  0  0  0  0  0  0  0
  186.6940  176.6500  145.8160 C   0  0  1  0  0  3  0  0  0  0  0  0
  185.4800  177.2430  145.1260 C   0  0  0  0  0  2  0  0  0  0  0  0
  191.7370  176.0500  145.6750 C   0  0  0  0  0  3  0  0  0  0  0  0
  191.2610  175.7570  144.3910 C   0  0  0  0  0  0  0  0  0  0  0  0
  189.4970  176.6750  146.3300 C   0  0  0  0  0  0  0  0  0  0  0  0
  184.0260  178.8780  143.5360 C   0  0  0  0  0  1  0  0  0  0  0  0
  184.9420  177.8980  142.8060 C   0  0  0  0  0  2  0  0  0  0  0  0
  188.2780  177.5950  141.5160 O   0  0  0  0  0  1  0  0  0  0  0  0
  187.7900  177.9450  142.7780 C   0  0  0  0  0  2  0  0  0  0  0  0
  192.1950  175.2500  143.3520 C   0  0  0  0  0  2  0  0  0  0  0  0
  193.4000  176.1690  143.2470 C   0  0  0  0  0  2  0  0  0  0  0  0
  194.6880  175.3760  143.4080 C   0  0  2  0  0  3  0  0  0  0  0  0
  194.2970  173.5980  143.4820 S   0  0  0  0  0  1  0  0  0  0  0  0
  195.4670  175.8410  144.6390 C   0  0  2  0  0  3  0  0  0  0  0  0
  195.3100  174.8570  145.7830 C   0  0  0  0  0  1  0  0  0  0  0  0
  195.0570  177.1130  145.0450 O   0  0  0  0  0  1  0  0  0  0  0  0
  1  2  1  0  0  0  0
  1 10  1  0  0  0  0
  2 14  1  0  0  0  0
  3  5  1  0  0  0  0
  4 18  1  1  0  0  0
  4  6  1  0  0  0  0
  4  1  1  0  0  0  0
  6 11  1  0  0  0  0
  7  8  1  0  0  0  0
  9 13  1  0  0  0  0
  9  2  2  0  0  0  0
 10 11  1  6  0  0  0
 10  3  1  0  0  0  0
 12  7  1  0  0  0  0
 13 12  2  0  0  0  0
 14  7  2  0  0  0  0
 14  5  1  0  0  0  0
 16 15  1  0  0  0  0
 16  6  1  0  0  0  0
 17 18  1  0  0  0  0
 19 13  1  0  0  0  0
 20 19  1  0  0  0  0
 20 21  1  0  0  0  0
 21 22  1  1  0  0  0
 21 23  1  0  0  0  0
 23 25  1  0  0  0  0
 23 24  1  1  0  0  0
M  END
>  <MODEL>
6

>  <REMARK>
 VINA RESULT:      -5.8      2.292      3.997
  Name = 
  6 active torsions:
  status: ('A' for Active; 'I' for Inactive)
    1  A    between atoms: C_2  and  C_21
    2  A    between atoms: C_5  and  C_22
    3  A    between atoms: C_6  and  C_15
    4  A    between atoms: C_6  and  C_23
    5  A    between atoms: N_10  and  C_11
    6  A    between atoms: C_15  and  C_21
                            x       y       z     vdW  Elec       q    Type
                         _______ _______ _______ _____ _____    ______ ____

>  <TORSDO>
F 6

$$$$
=
 OpenBabel11052417363D

 25 27  0  0  1  0  0  0  0  0999 V2000
  186.1050  177.1720  143.7680 N   0  0  0  0  0  0  0  0  0  0  0  0
  187.3760  176.8660  144.3490 C   0  0  0  0  0  0  0  0  0  0  0  0
  185.7360  178.9640  145.3710 C   0  0  0  0  0  2  0  0  0  0  0  0
  185.7810  177.1400  142.3520 C   0  0  1  0  0  3  0  0  0  0  0  0
  186.8380  178.4300  146.1170 O   0  0  0  0  0  0  0  0  0  0  0  0
  184.4120  177.6850  142.2480 N   0  0  0  0  0  0  0  0  0  0  0  0
  188.9410  177.1760  146.1630 C   0  0  0  0  0  0  0  0  0  0  0  0
  189.3400  177.8050  147.4510 C   0  0  0  0  0  1  0  0  0  0  0  0
  188.2320  175.9870  143.7610 N   0  0  0  0  0  0  0  0  0  0  0  0
  185.0860  177.8650  144.5310 C   0  0  1  0  0  3  0  0  0  0  0  0
  184.1530  178.4380  143.4810 C   0  0  0  0  0  2  0  0  0  0  0  0
  189.8010  176.2660  145.5450 C   0  0  0  0  0  3  0  0  0  0  0  0
  189.4320  175.6830  144.3260 C   0  0  0  0  0  0  0  0  0  0  0  0
  187.7220  177.4950  145.5520 C   0  0  0  0  0  0  0  0  0  0  0  0
  182.6350  178.2830  140.5680 C   0  0  0  0  0  1  0  0  0  0  0  0
  184.0890  178.4210  141.0130 C   0  0  0  0  0  2  0  0  0  0  0  0
  187.4250  177.0550  140.5710 O   0  0  0  0  0  1  0  0  0  0  0  0
  186.8410  177.8920  141.5260 C   0  0  0  0  0  2  0  0  0  0  0  0
  190.3350  174.7010  143.6700 C   0  0  0  0  0  2  0  0  0  0  0  0
  190.3300  174.9160  142.1670 C   0  0  0  0  0  2  0  0  0  0  0  0
  190.0330  173.6130  141.4440 C   0  0  2  0  0  3  0  0  0  0  0  0
  191.2110  173.4020  140.0700 S   0  0  0  0  0  1  0  0  0  0  0  0
  188.5820  173.5710  140.9620 C   0  0  2  0  0  3  0  0  0  0  0  0
  187.6920  172.8890  141.9830 C   0  0  0  0  0  1  0  0  0  0  0  0
  188.4780  172.9220  139.7300 O   0  0  0  0  0  1  0  0  0  0  0  0
  1  2  1  0  0  0  0
  1 10  1  0  0  0  0
  2 14  1  0  0  0  0
  3  5  1  0  0  0  0
  4 18  1  6  0  0  0
  4  1  1  0  0  0  0
  6  4  1  0  0  0  0
  6 11  1  0  0  0  0
  7  8  1  0  0  0  0
  9 13  1  0  0  0  0
  9  2  2  0  0  0  0
 10 11  1  6  0  0  0
 10  3  1  0  0  0  0
 12  7  1  0  0  0  0
 13 12  2  0  0  0  0
 14  5  1  0  0  0  0
 14  7  2  0  0  0  0
 15 16  1  0  0  0  0
 16  6  1  0  0  0  0
 17 18  1  0  0  0  0
 19 13  1  0  0  0  0
 20 19  1  0  0  0  0
 21 22  1  6  0  0  0
 21 20  1  0  0  0  0
 23 21  1  0  0  0  0
 23 24  1  1  0  0  0
 25 23  1  0  0  0  0
M  END
>  <MODEL>
7

>  <REMARK>
 VINA RESULT:      -5.8      2.765      3.752
  Name = 
  6 active torsions:
  status: ('A' for Active; 'I' for Inactive)
    1  A    between atoms: C_2  and  C_21
    2  A    between atoms: C_5  and  C_22
    3  A    between atoms: C_6  and  C_15
    4  A    between atoms: C_6  and  C_23
    5  A    between atoms: N_10  and  C_11
    6  A    between atoms: C_15  and  C_21
                            x       y       z     vdW  Elec       q    Type
                         _______ _______ _______ _____ _____    ______ ____

>  <TORSDO>
F 6

$$$$
=
 OpenBabel11052417363D

 25 27  0  0  1  0  0  0  0  0999 V2000
  193.9610  176.4130  144.0230 N   0  0  0  0  0  0  0  0  0  0  0  0
  192.6700  176.4990  144.6340 C   0  0  0  0  0  0  0  0  0  0  0  0
  194.9370  175.5290  146.0680 C   0  0  0  0  0  2  0  0  0  0  0  0
  194.2340  176.0310  142.6480 C   0  0  1  0  0  3  0  0  0  0  0  0
  193.7310  175.9270  146.7330 O   0  0  0  0  0  0  0  0  0  0  0  0
  195.7040  175.9370  142.5480 N   0  0  0  0  0  0  0  0  0  0  0  0
  191.3300  176.3970  146.6400 C   0  0  0  0  0  0  0  0  0  0  0  0
  191.1860  176.1840  148.1060 C   0  0  0  0  0  1  0  0  0  0  0  0
  191.5600  176.7950  143.9070 N   0  0  0  0  0  0  0  0  0  0  0  0
  195.1660  176.3940  144.8290 C   0  0  1  0  0  3  0  0  0  0  0  0
  196.2210  175.8000  143.9150 C   0  0  0  0  0  2  0  0  0  0  0  0
  190.2040  176.7090  145.8760 C   0  0  0  0  0  3  0  0  0  0  0  0
  190.3360  176.8960  144.4940 C   0  0  0  0  0  0  0  0  0  0  0  0
  192.5760  176.2730  146.0130 C   0  0  0  0  0  0  0  0  0  0  0  0
  196.6550  175.5310  140.2530 C   0  0  0  0  0  1  0  0  0  0  0  0
  196.2380  174.9440  141.5990 C   0  0  0  0  0  2  0  0  0  0  0  0
  192.7750  174.9010  141.0740 O   0  0  0  0  0  1  0  0  0  0  0  0
  193.4770  174.7440  142.2720 C   0  0  0  0  0  2  0  0  0  0  0  0
  189.1450  177.2450  143.6760 C   0  0  0  0  0  2  0  0  0  0  0  0
  188.0090  177.6930  144.5790 C   0  0  0  0  0  2  0  0  0  0  0  0
  186.6720  177.5160  143.8780 C   0  0  2  0  0  3  0  0  0  0  0  0
  186.7590  176.0770  142.7650 S   0  0  0  0  0  1  0  0  0  0  0  0
  186.2720  178.7910  143.1320 C   0  0  2  0  0  3  0  0  0  0  0  0
  185.5890  179.7720  144.0650 C   0  0  0  0  0  1  0  0  0  0  0  0
  185.4370  178.5020  142.0510 O   0  0  0  0  0  1  0  0  0  0  0  0
  1  2  1  0  0  0  0
  1 10  1  0  0  0  0
  2 14  1  0  0  0  0
  3  5  1  0  0  0  0
  4 18  1  1  0  0  0
  4  1  1  0  0  0  0
  6  4  1  0  0  0  0
  6 11  1  0  0  0  0
  7  8  1  0  0  0  0
  9 13  1  0  0  0  0
  9  2  2  0  0  0  0
 10 11  1  6  0  0  0
 10  3  1  0  0  0  0
 12  7  1  0  0  0  0
 13 12  2  0  0  0  0
 14  7  2  0  0  0  0
 14  5  1  0  0  0  0
 15 16  1  0  0  0  0
 16  6  1  0  0  0  0
 17 18  1  0  0  0  0
 19 13  1  0  0  0  0
 19 20  1  0  0  0  0
 21 22  1  6  0  0  0
 21 20  1  0  0  0  0
 23 21  1  0  0  0  0
 23 24  1  1  0  0  0
 25 23  1  0  0  0  0
M  END
>  <MODEL>
8

>  <REMARK>
 VINA RESULT:      -5.7      3.723      7.381
  Name = 
  6 active torsions:
  status: ('A' for Active; 'I' for Inactive)
    1  A    between atoms: C_2  and  C_21
    2  A    between atoms: C_5  and  C_22
    3  A    between atoms: C_6  and  C_15
    4  A    between atoms: C_6  and  C_23
    5  A    between atoms: N_10  and  C_11
    6  A    between atoms: C_15  and  C_21
                            x       y       z     vdW  Elec       q    Type
                         _______ _______ _______ _____ _____    ______ ____

>  <TORSDO>
F 6

$$$$
=
 OpenBabel11052417363D

 25 27  0  0  1  0  0  0  0  0999 V2000
  187.1760  176.5860  144.4000 N   0  0  0  0  0  0  0  0  0  0  0  0
  188.5430  176.1920  144.5540 C   0  0  0  0  0  0  0  0  0  0  0  0
  187.1200  177.4960  146.6550 C   0  0  0  0  0  2  0  0  0  0  0  0
  186.5680  177.1170  143.1920 C   0  0  1  0  0  3  0  0  0  0  0  0
  188.3590  176.8110  146.8870 O   0  0  0  0  0  0  0  0  0  0  0  0
  185.2010  177.5160  143.5800 N   0  0  0  0  0  0  0  0  0  0  0  0
  190.4420  175.8690  146.0110 C   0  0  0  0  0  0  0  0  0  0  0  0
  191.0890  175.9380  147.3500 C   0  0  0  0  0  1  0  0  0  0  0  0
  189.2710  175.7300  143.5020 N   0  0  0  0  0  0  0  0  0  0  0  0
  186.3260  176.7910  145.5570 C   0  0  1  0  0  3  0  0  0  0  0  0
  185.1900  177.6550  145.0420 C   0  0  0  0  0  2  0  0  0  0  0  0
  191.1690  175.3910  144.9190 C   0  0  0  0  0  3  0  0  0  0  0  0
  190.5650  175.3390  143.6560 C   0  0  0  0  0  0  0  0  0  0  0  0
  189.1190  176.2920  145.8280 C   0  0  0  0  0  0  0  0  0  0  0  0
  183.8570  178.2880  141.5950 C   0  0  0  0  0  1  0  0  0  0  0  0
  184.6220  178.6660  142.8620 C   0  0  0  0  0  2  0  0  0  0  0  0
  187.8310  177.9390  141.2920 O   0  0  0  0  0  1  0  0  0  0  0  0
  187.4260  178.2470  142.5940 C   0  0  0  0  0  2  0  0  0  0  0  0
  191.3260  174.8160  142.4910 C   0  0  0  0  0  2  0  0  0  0  0  0
  190.4150  173.9780  141.6110 C   0  0  0  0  0  2  0  0  0  0  0  0
  190.5700  172.5020  141.9370 C   0  0  2  0  0  3  0  0  0  0  0  0
  191.0600  171.5990  140.4320 S   0  0  0  0  0  1  0  0  0  0  0  0
  189.2870  171.9370  142.5490 C   0  0  2  0  0  3  0  0  0  0  0  0
  188.0680  172.6660  142.0180 C   0  0  0  0  0  1  0  0  0  0  0  0
  189.3170  172.0120  143.9430 O   0  0  0  0  0  1  0  0  0  0  0  0
  1  2  1  0  0  0  0
  1 10  1  0  0  0  0
  2 14  1  0  0  0  0
  3  5  1  0  0  0  0
  4 18  1  1  0  0  0
  4  6  1  0  0  0  0
  4  1  1  0  0  0  0
  6 11  1  0  0  0  0
  7  8  1  0  0  0  0
  9 13  1  0  0  0  0
  9  2  2  0  0  0  0
 10 11  1  6  0  0  0
 10  3  1  0  0  0  0
 12  7  1  0  0  0  0
 13 12  2  0  0  0  0
 14  7  2  0  0  0  0
 14  5  1  0  0  0  0
 15 16  1  0  0  0  0
 16  6  1  0  0  0  0
 17 18  1  0  0  0  0
 19 13  1  0  0  0  0
 20 21  1  0  0  0  0
 20 19  1  0  0  0  0
 21 22  1  6  0  0  0
 21 23  1  0  0  0  0
 23 24  1  6  0  0  0
 23 25  1  0  0  0  0
M  END
>  <MODEL>
9

>  <REMARK>
 VINA RESULT:      -5.6      2.938      4.386
  Name = 
  6 active torsions:
  status: ('A' for Active; 'I' for Inactive)
    1  A    between atoms: C_2  and  C_21
    2  A    between atoms: C_5  and  C_22
    3  A    between atoms: C_6  and  C_15
    4  A    between atoms: C_6  and  C_23
    5  A    between atoms: N_10  and  C_11
    6  A    between atoms: C_15  and  C_21
                            x       y       z     vdW  Elec       q    Type
                         _______ _______ _______ _____ _____    ______ ____

>  <TORSDO>
F 6

$$$$
