=
 OpenBabel11052421413D

 32 32  0  0  1  0  0  0  0  0999 V2000
  189.3990  175.4790  142.3990 C   0  0  2  0  0  3  0  0  0  0  0  0
  190.1360  175.7760  143.7280 C   0  0  2  0  0  3  0  0  0  0  0  0
  190.2000  175.5720  147.3790 C   0  0  0  0  0  3  0  0  0  0  0  0
  189.7380  175.7450  146.1720 C   0  0  0  0  0  0  0  0  0  0  0  0
  189.2760  175.9180  144.9620 C   0  0  0  0  0  3  0  0  0  0  0  0
  191.5950  175.2010  147.5800 C   0  0  0  0  0  3  0  0  0  0  0  0
  192.5390  175.7330  146.8190 C   0  0  0  0  0  2  0  0  0  0  0  0
  191.1080  176.7970  143.6290 O   0  0  0  0  0  0  0  0  0  0  0  0
  190.4580  178.0160  143.3720 C   0  0  0  0  0  1  0  0  0  0  0  0
  187.8700  175.5030  142.5490 C   0  0  0  0  0  2  0  0  0  0  0  0
  187.2130  176.7550  141.9680 C   0  0  1  0  0  3  0  0  0  0  0  0
  187.2190  176.6750  140.5740 O   0  0  0  0  0  0  0  0  0  0  0  0
  186.2780  177.6170  140.1590 C   0  0  0  0  0  1  0  0  0  0  0  0
  185.8960  176.8750  142.4200 O   0  0  0  0  0  0  0  0  0  0  0  0
  185.9500  176.4990  143.7640 C   0  0  0  0  0  2  0  0  0  0  0  0
  185.7930  177.3130  146.0980 C   0  0  0  0  0  2  0  0  0  0  0  0
  184.8990  178.6920  144.3250 C   0  0  1  0  0  3  0  0  0  0  0  0
  184.0360  178.6210  145.5320 C   0  0  0  0  0  3  0  0  0  0  0  0
  184.5260  177.8870  146.4520 N   0  0  0  0  0  0  0  0  0  0  0  0
  185.4500  180.0970  144.1840 C   0  0  0  0  0  1  0  0  0  0  0  0
  186.0360  177.7300  144.6510 C   0  0  2  0  0  3  0  0  0  0  0  0
  189.8630  174.1650  141.7840 C   0  0  0  0  0  2  0  0  0  0  0  0
  189.4790  173.0950  142.5960 O   0  0  0  0  0  0  0  0  0  0  0  0
  190.6260  172.3080  142.7150 C   0  0  0  0  0  2  0  0  0  0  0  0
  190.8860  171.9900  144.1760 C   0  0  2  0  0  3  0  0  0  0  0  0
  189.6350  172.2790  144.9810 C   0  0  0  0  0  1  0  0  0  0  0  0
  191.9900  172.8020  144.6680 N   0  0  0  0  0  2  0  0  0  0  0  0
  193.3040  172.2760  144.8700 C   0  0  0  0  0  0  0  0  0  0  0  0
  193.5590  171.0730  144.5870 O   0  0  0  0  0  0  0  0  0  0  0  0
  194.2990  173.1130  145.3770 O   0  0  0  0  0  0  0  0  0  0  0  0
  195.6730  172.7580  145.3290 C   0  0  0  0  0  2  0  0  0  0  0  0
  196.4970  173.8400  145.9930 C   0  0  0  0  0  1  0  0  0  0  0  0
  1 22  1  1  0  0  0
  1 10  1  0  0  0  0
  1  2  1  0  0  0  0
  2  5  1  1  0  0  0
  3  6  1  0  0  0  0
  4  3  2  0  0  0  0
  5  4  2  0  0  0  0
  7  6  2  0  0  0  0
  8  2  1  0  0  0  0
  9  8  1  0  0  0  0
 11 14  1  0  0  0  0
 11 10  1  1  0  0  0
 12 11  1  0  0  0  0
 13 12  1  0  0  0  0
 14 15  1  0  0  0  0
 16 19  1  0  0  0  0
 17 20  1  1  0  0  0
 17 21  1  0  0  0  0
 17 18  1  0  0  0  0
 18 19  2  0  0  0  0
 21 15  1  6  0  0  0
 21 16  1  0  0  0  0
 22 23  1  0  0  0  0
 23 24  1  0  0  0  0
 24 25  1  0  0  0  0
 25 27  1  0  0  0  0
 25 26  1  1  0  0  0
 27 28  1  0  0  0  0
 28 30  1  0  0  0  0
 29 28  2  0  0  0  0
 31 30  1  0  0  0  0
 31 32  1  0  0  0  0
M  END
>  <MODEL>
1

>  <REMARK>
 VINA RESULT:      -5.5      0.000      0.000
  Name = 
  17 active torsions:
  status: ('A' for Active; 'I' for Inactive)
    1  A    between atoms: C_1  and  O_20
    2  A    between atoms: C_2  and  C_9
    3  A    between atoms: C_2  and  O_23
    4  A    between atoms: O_3  and  C_14
    5  A    between atoms: C_4  and  C_5
    6  A    between atoms: O_6  and  C_31
    7  A    between atoms: C_8  and  O_23
    8  A    between atoms: C_8  and  C_28
    9  A    between atoms: C_9  and  N_10
   10  A    between atoms: C_13  and  C_28
   11  A    between atoms: C_13  and  C_31
   12  A    between atoms: C_14  and  C_26
   13  A    between atoms: C_14  and  C_28
   14  A    between atoms: O_16  and  C_27
   15  A    between atoms: O_16  and  C_31
   16  A    between atoms: C_19  and  O_20
   17  A    between atoms: C_27  and  C_32
                            x       y       z     vdW  Elec       q    Type
                         _______ _______ _______ _____ _____    ______ ____

>  <TORSDO>
F 17

$$$$
=
 OpenBabel11052421413D

 32 32  0  0  1  0  0  0  0  0999 V2000
  188.7140  177.4770  144.4550 C   0  0  2  0  0  3  0  0  0  0  0  0
  188.2380  176.3750  145.4320 C   0  0  2  0  0  3  0  0  0  0  0  0
  186.0300  178.5090  147.4170 C   0  0  0  0  0  3  0  0  0  0  0  0
  186.9770  177.6610  147.1320 C   0  0  0  0  0  0  0  0  0  0  0  0
  187.9270  176.8100  146.8440 C   0  0  0  0  0  3  0  0  0  0  0  0
  185.2340  179.1020  146.3490 C   0  0  0  0  0  3  0  0  0  0  0  0
  184.0720  178.5650  146.0110 C   0  0  0  0  0  2  0  0  0  0  0  0
  189.0190  175.1960  145.3920 O   0  0  0  0  0  0  0  0  0  0  0  0
  189.2620  174.7710  146.7090 C   0  0  0  0  0  1  0  0  0  0  0  0
  187.7140  177.7360  143.3180 C   0  0  0  0  0  2  0  0  0  0  0  0
  186.5910  176.7020  143.2350 C   0  0  1  0  0  3  0  0  0  0  0  0
  185.5510  177.2120  142.4560 O   0  0  0  0  0  0  0  0  0  0  0  0
  185.6260  178.5940  142.6220 C   0  0  0  0  0  1  0  0  0  0  0  0
  187.0580  175.5140  142.6660 O   0  0  0  0  0  0  0  0  0  0  0  0
  187.5790  175.8970  141.4290 C   0  0  0  0  0  2  0  0  0  0  0  0
  188.4340  174.3010  139.7380 C   0  0  0  0  0  2  0  0  0  0  0  0
  188.9030  173.8810  142.0710 C   0  0  1  0  0  3  0  0  0  0  0  0
  188.5120  172.6710  141.3050 C   0  0  0  0  0  3  0  0  0  0  0  0
  188.2670  172.9170  140.0770 N   0  0  0  0  0  0  0  0  0  0  0  0
  190.3570  173.7650  142.4850 C   0  0  0  0  0  1  0  0  0  0  0  0
  188.7510  175.0060  141.0520 C   0  0  2  0  0  3  0  0  0  0  0  0
  190.1000  177.1730  143.9010 C   0  0  0  0  0  2  0  0  0  0  0  0
  191.0700  177.4400  144.8700 O   0  0  0  0  0  0  0  0  0  0  0  0
  192.2690  177.0030  144.3030 C   0  0  0  0  0  2  0  0  0  0  0  0
  192.9330  175.9870  145.2150 C   0  0  2  0  0  3  0  0  0  0  0  0
  192.5770  176.3010  146.6540 C   0  0  0  0  0  1  0  0  0  0  0  0
  194.3770  176.0390  145.0400 N   0  0  0  0  0  2  0  0  0  0  0  0
  195.1930  174.8660  145.0040 C   0  0  0  0  0  0  0  0  0  0  0  0
  194.6660  173.7220  145.0900 O   0  0  0  0  0  0  0  0  0  0  0  0
  196.5750  175.0040  144.8670 O   0  0  0  0  0  0  0  0  0  0  0  0
  197.2120  174.9360  143.6000 C   0  0  0  0  0  2  0  0  0  0  0  0
  197.3860  176.3340  143.0470 C   0  0  0  0  0  1  0  0  0  0  0  0
  1 10  1  6  0  0  0
  1  2  1  0  0  0  0
  2  5  1  1  0  0  0
  4  3  2  0  0  0  0
  5  4  2  0  0  0  0
  6  3  1  0  0  0  0
  7  6  2  0  0  0  0
  8  2  1  0  0  0  0
  8  9  1  0  0  0  0
 11 10  1  6  0  0  0
 12 13  1  0  0  0  0
 12 11  1  0  0  0  0
 14 11  1  0  0  0  0
 15 14  1  0  0  0  0
 16 19  1  0  0  0  0
 16 21  1  0  0  0  0
 17 20  1  6  0  0  0
 18 17  1  0  0  0  0
 19 18  2  0  0  0  0
 21 15  1  1  0  0  0
 21 17  1  0  0  0  0
 22  1  1  0  0  0  0
 22 23  1  0  0  0  0
 24 23  1  0  0  0  0
 24 25  1  0  0  0  0
 25 26  1  1  0  0  0
 27 25  1  0  0  0  0
 28 27  1  0  0  0  0
 28 29  2  0  0  0  0
 30 28  1  0  0  0  0
 31 30  1  0  0  0  0
 32 31  1  0  0  0  0
M  END
>  <MODEL>
2

>  <REMARK>
 VINA RESULT:      -5.4      2.497      4.995
  Name = 
  17 active torsions:
  status: ('A' for Active; 'I' for Inactive)
    1  A    between atoms: C_1  and  O_20
    2  A    between atoms: C_2  and  C_9
    3  A    between atoms: C_2  and  O_23
    4  A    between atoms: O_3  and  C_14
    5  A    between atoms: C_4  and  C_5
    6  A    between atoms: O_6  and  C_31
    7  A    between atoms: C_8  and  O_23
    8  A    between atoms: C_8  and  C_28
    9  A    between atoms: C_9  and  N_10
   10  A    between atoms: C_13  and  C_28
   11  A    between atoms: C_13  and  C_31
   12  A    between atoms: C_14  and  C_26
   13  A    between atoms: C_14  and  C_28
   14  A    between atoms: O_16  and  C_27
   15  A    between atoms: O_16  and  C_31
   16  A    between atoms: C_19  and  O_20
   17  A    between atoms: C_27  and  C_32
                            x       y       z     vdW  Elec       q    Type
                         _______ _______ _______ _____ _____    ______ ____

>  <TORSDO>
F 17

$$$$
=
 OpenBabel11052421413D

 32 32  0  0  1  0  0  0  0  0999 V2000
  190.3380  176.4460  144.2080 C   0  0  2  0  0  3  0  0  0  0  0  0
  189.1570  176.5550  143.2140 C   0  0  2  0  0  3  0  0  0  0  0  0
  189.5320  172.9230  143.0090 C   0  0  0  0  0  3  0  0  0  0  0  0
  189.2230  174.1410  142.6640 C   0  0  0  0  0  0  0  0  0  0  0  0
  188.9140  175.3630  142.3180 C   0  0  0  0  0  3  0  0  0  0  0  0
  190.1630  172.6670  144.2980 C   0  0  0  0  0  3  0  0  0  0  0  0
  191.4290  172.9980  144.4940 C   0  0  0  0  0  2  0  0  0  0  0  0
  189.1140  177.7780  142.5050 O   0  0  0  0  0  0  0  0  0  0  0  0
  187.8460  177.9140  141.9160 C   0  0  0  0  0  1  0  0  0  0  0  0
  189.9070  176.6530  145.6690 C   0  0  0  0  0  2  0  0  0  0  0  0
  188.7820  175.7210  146.1180 C   0  0  1  0  0  3  0  0  0  0  0  0
  189.3040  174.7430  146.9670 O   0  0  0  0  0  0  0  0  0  0  0  0
  190.4220  175.3390  147.5510 C   0  0  0  0  0  1  0  0  0  0  0  0
  187.7880  176.4370  146.7900 O   0  0  0  0  0  0  0  0  0  0  0  0
  186.8510  176.7490  145.8030 C   0  0  0  0  0  2  0  0  0  0  0  0
  185.7900  178.3780  147.3400 C   0  0  0  0  0  2  0  0  0  0  0  0
  185.2440  178.4760  144.9870 C   0  0  1  0  0  3  0  0  0  0  0  0
  184.0760  178.6420  145.8880 C   0  0  0  0  0  3  0  0  0  0  0  0
  184.3870  178.5840  147.1230 N   0  0  0  0  0  0  0  0  0  0  0  0
  185.5060  179.7800  144.2600 C   0  0  0  0  0  1  0  0  0  0  0  0
  186.3910  178.1910  145.9510 C   0  0  2  0  0  3  0  0  0  0  0  0
  191.4710  177.3950  143.8370 C   0  0  0  0  0  2  0  0  0  0  0  0
  192.4360  176.7150  143.0900 O   0  0  0  0  0  0  0  0  0  0  0  0
  193.4170  176.3580  144.0180 C   0  0  0  0  0  2  0  0  0  0  0  0
  194.6050  175.7390  143.3030 C   0  0  2  0  0  3  0  0  0  0  0  0
  194.1040  174.8020  142.2220 C   0  0  0  0  0  1  0  0  0  0  0  0
  195.4240  175.0040  144.2560 N   0  0  0  0  0  2  0  0  0  0  0  0
  196.8500  174.9590  144.1740 C   0  0  0  0  0  0  0  0  0  0  0  0
  197.4560  175.6010  143.2720 O   0  0  0  0  0  0  0  0  0  0  0  0
  197.5600  174.2030  145.1070 O   0  0  0  0  0  0  0  0  0  0  0  0
  196.9170  173.5730  146.2050 C   0  0  0  0  0  2  0  0  0  0  0  0
  196.8410  172.0810  145.9580 C   0  0  0  0  0  1  0  0  0  0  0  0
  1 22  1  6  0  0  0
  1 10  1  0  0  0  0
  2  5  1  6  0  0  0
  2  1  1  0  0  0  0
  3  6  1  0  0  0  0
  4  3  2  0  0  0  0
  5  4  2  0  0  0  0
  6  7  2  0  0  0  0
  8  2  1  0  0  0  0
  9  8  1  0  0  0  0
 11 10  1  1  0  0  0
 11 14  1  0  0  0  0
 11 12  1  0  0  0  0
 12 13  1  0  0  0  0
 15 14  1  0  0  0  0
 17 20  1  1  0  0  0
 17 18  1  0  0  0  0
 17 21  1  0  0  0  0
 18 19  2  0  0  0  0
 19 16  1  0  0  0  0
 21 15  1  1  0  0  0
 21 16  1  0  0  0  0
 23 22  1  0  0  0  0
 23 24  1  0  0  0  0
 25 26  1  6  0  0  0
 25 24  1  0  0  0  0
 25 27  1  0  0  0  0
 28 27  1  0  0  0  0
 28 30  1  0  0  0  0
 29 28  2  0  0  0  0
 30 31  1  0  0  0  0
 32 31  1  0  0  0  0
M  END
>  <MODEL>
3

>  <REMARK>
 VINA RESULT:      -5.4      2.252      4.036
  Name = 
  17 active torsions:
  status: ('A' for Active; 'I' for Inactive)
    1  A    between atoms: C_1  and  O_20
    2  A    between atoms: C_2  and  C_9
    3  A    between atoms: C_2  and  O_23
    4  A    between atoms: O_3  and  C_14
    5  A    between atoms: C_4  and  C_5
    6  A    between atoms: O_6  and  C_31
    7  A    between atoms: C_8  and  O_23
    8  A    between atoms: C_8  and  C_28
    9  A    between atoms: C_9  and  N_10
   10  A    between atoms: C_13  and  C_28
   11  A    between atoms: C_13  and  C_31
   12  A    between atoms: C_14  and  C_26
   13  A    between atoms: C_14  and  C_28
   14  A    between atoms: O_16  and  C_27
   15  A    between atoms: O_16  and  C_31
   16  A    between atoms: C_19  and  O_20
   17  A    between atoms: C_27  and  C_32
                            x       y       z     vdW  Elec       q    Type
                         _______ _______ _______ _____ _____    ______ ____

>  <TORSDO>
F 17

$$$$
=
 OpenBabel11052421413D

 32 32  0  0  1  0  0  0  0  0999 V2000
  189.9670  175.1720  144.2360 C   0  0  2  0  0  3  0  0  0  0  0  0
  191.4120  174.8370  143.7960 C   0  0  2  0  0  3  0  0  0  0  0  0
  194.2290  174.8840  146.1280 C   0  0  0  0  0  3  0  0  0  0  0  0
  193.2270  174.4280  145.4310 C   0  0  0  0  0  0  0  0  0  0  0  0
  192.2220  173.9710  144.7320 C   0  0  0  0  0  3  0  0  0  0  0  0
  194.6280  176.2810  146.0050 C   0  0  0  0  0  3  0  0  0  0  0  0
  195.1710  176.7190  144.8800 C   0  0  0  0  0  2  0  0  0  0  0  0
  192.1440  175.9540  143.3290 O   0  0  0  0  0  0  0  0  0  0  0  0
  192.7650  175.6120  142.1160 C   0  0  0  0  0  1  0  0  0  0  0  0
  189.6310  174.6340  145.6360 C   0  0  0  0  0  2  0  0  0  0  0  0
  189.3920  175.7280  146.6760 C   0  0  1  0  0  3  0  0  0  0  0  0
  190.6190  176.2710  147.0650 O   0  0  0  0  0  0  0  0  0  0  0  0
  191.0730  175.4320  148.0820 C   0  0  0  0  0  1  0  0  0  0  0  0
  188.5830  176.7390  146.1510 O   0  0  0  0  0  0  0  0  0  0  0  0
  187.4860  176.7940  147.0130 C   0  0  0  0  0  2  0  0  0  0  0  0
  186.5710  177.2640  144.7590 C   0  0  0  0  0  2  0  0  0  0  0  0
  185.5880  178.3780  146.6660 C   0  0  1  0  0  3  0  0  0  0  0  0
  185.7840  179.2570  145.4850 C   0  0  0  0  0  3  0  0  0  0  0  0
  186.3060  178.6490  144.4930 N   0  0  0  0  0  0  0  0  0  0  0  0
  184.1040  178.1820  146.9050 C   0  0  0  0  0  1  0  0  0  0  0  0
  186.2120  177.0570  146.2270 C   0  0  2  0  0  3  0  0  0  0  0  0
  188.9450  174.6940  143.2110 C   0  0  0  0  0  2  0  0  0  0  0  0
  189.0950  175.4080  142.0200 O   0  0  0  0  0  0  0  0  0  0  0  0
  187.8190  175.8960  141.7340 C   0  0  0  0  0  2  0  0  0  0  0  0
  187.9130  177.3150  141.2050 C   0  0  2  0  0  3  0  0  0  0  0  0
  188.9240  178.0880  142.0290 C   0  0  0  0  0  1  0  0  0  0  0  0
  186.6100  177.9590  141.2890 N   0  0  0  0  0  2  0  0  0  0  0  0
  185.6440  177.8850  140.2370 C   0  0  0  0  0  0  0  0  0  0  0  0
  185.8870  177.2140  139.1970 O   0  0  0  0  0  0  0  0  0  0  0  0
  184.4310  178.5590  140.3820 O   0  0  0  0  0  0  0  0  0  0  0  0
  183.4690  178.1700  141.3500 C   0  0  0  0  0  2  0  0  0  0  0  0
  182.0950  178.1460  140.7150 C   0  0  0  0  0  1  0  0  0  0  0  0
  1 22  1  6  0  0  0
  1 10  1  0  0  0  0
  2  1  1  0  0  0  0
  2  5  1  1  0  0  0
  4  3  2  0  0  0  0
  5  4  2  0  0  0  0
  6  3  1  0  0  0  0
  7  6  2  0  0  0  0
  8  2  1  0  0  0  0
  9  8  1  0  0  0  0
 11 10  1  6  0  0  0
 11 12  1  0  0  0  0
 12 13  1  0  0  0  0
 14 11  1  0  0  0  0
 14 15  1  0  0  0  0
 16 21  1  0  0  0  0
 17 20  1  6  0  0  0
 18 17  1  0  0  0  0
 19 16  1  0  0  0  0
 19 18  2  0  0  0  0
 21 17  1  0  0  0  0
 21 15  1  1  0  0  0
 23 22  1  0  0  0  0
 24 23  1  0  0  0  0
 25 27  1  0  0  0  0
 25 24  1  0  0  0  0
 25 26  1  1  0  0  0
 28 30  1  0  0  0  0
 28 27  1  0  0  0  0
 29 28  2  0  0  0  0
 30 31  1  0  0  0  0
 32 31  1  0  0  0  0
M  END
>  <MODEL>
4

>  <REMARK>
 VINA RESULT:      -5.4      2.538      6.542
  Name = 
  17 active torsions:
  status: ('A' for Active; 'I' for Inactive)
    1  A    between atoms: C_1  and  O_20
    2  A    between atoms: C_2  and  C_9
    3  A    between atoms: C_2  and  O_23
    4  A    between atoms: O_3  and  C_14
    5  A    between atoms: C_4  and  C_5
    6  A    between atoms: O_6  and  C_31
    7  A    between atoms: C_8  and  O_23
    8  A    between atoms: C_8  and  C_28
    9  A    between atoms: C_9  and  N_10
   10  A    between atoms: C_13  and  C_28
   11  A    between atoms: C_13  and  C_31
   12  A    between atoms: C_14  and  C_26
   13  A    between atoms: C_14  and  C_28
   14  A    between atoms: O_16  and  C_27
   15  A    between atoms: O_16  and  C_31
   16  A    between atoms: C_19  and  O_20
   17  A    between atoms: C_27  and  C_32
                            x       y       z     vdW  Elec       q    Type
                         _______ _______ _______ _____ _____    ______ ____

>  <TORSDO>
F 17

$$$$
=
 OpenBabel11052421413D

 32 32  0  0  1  0  0  0  0  0999 V2000
  190.5680  175.5910  144.5030 C   0  0  2  0  0  3  0  0  0  0  0  0
  192.0900  175.8730  144.5150 C   0  0  2  0  0  3  0  0  0  0  0  0
  193.5830  172.5920  145.1360 C   0  0  0  0  0  3  0  0  0  0  0  0
  193.2510  173.8390  145.3210 C   0  0  0  0  0  0  0  0  0  0  0  0
  192.9160  175.0880  145.5070 C   0  0  0  0  0  3  0  0  0  0  0  0
  193.1350  171.8880  143.9400 C   0  0  0  0  0  3  0  0  0  0  0  0
  192.2090  170.9460  144.0330 C   0  0  0  0  0  2  0  0  0  0  0  0
  192.4200  177.2480  144.5090 O   0  0  0  0  0  0  0  0  0  0  0  0
  191.4860  177.9330  143.7130 C   0  0  0  0  0  1  0  0  0  0  0  0
  189.9950  175.3580  145.9090 C   0  0  0  0  0  2  0  0  0  0  0  0
  189.1680  176.5300  146.4400 C   0  0  1  0  0  3  0  0  0  0  0  0
  190.0240  177.4830  146.9960 O   0  0  0  0  0  0  0  0  0  0  0  0
  190.8200  176.7690  147.8910 C   0  0  0  0  0  1  0  0  0  0  0  0
  188.4260  177.1150  145.4110 O   0  0  0  0  0  0  0  0  0  0  0  0
  187.0970  176.9910  145.8220 C   0  0  0  0  0  2  0  0  0  0  0  0
  185.8100  178.4760  147.3300 C   0  0  0  0  0  2  0  0  0  0  0  0
  185.3020  178.5000  144.9670 C   0  0  1  0  0  3  0  0  0  0  0  0
  184.1040  178.5190  145.8440 C   0  0  0  0  0  3  0  0  0  0  0  0
  184.3960  178.5040  147.0860 N   0  0  0  0  0  0  0  0  0  0  0  0
  185.4120  179.8250  144.2390 C   0  0  0  0  0  1  0  0  0  0  0  0
  186.4570  178.3640  145.9540 C   0  0  2  0  0  3  0  0  0  0  0  0
  190.2220  174.4320  143.5760 C   0  0  0  0  0  2  0  0  0  0  0  0
  190.6730  174.7050  142.2820 O   0  0  0  0  0  0  0  0  0  0  0  0
  190.1930  173.6480  141.5070 C   0  0  0  0  0  2  0  0  0  0  0  0
  188.7050  173.8220  141.2590 C   0  0  2  0  0  3  0  0  0  0  0  0
  188.2540  172.8240  140.2110 C   0  0  0  0  0  1  0  0  0  0  0  0
  188.4390  175.1770  140.8000 N   0  0  0  0  0  2  0  0  0  0  0  0
  187.5380  176.0570  141.4760 C   0  0  0  0  0  0  0  0  0  0  0  0
  186.9610  175.6870  142.5350 O   0  0  0  0  0  0  0  0  0  0  0  0
  187.3110  177.3300  140.9510 O   0  0  0  0  0  0  0  0  0  0  0  0
  186.3260  177.5660  139.9560 C   0  0  0  0  0  2  0  0  0  0  0  0
  185.1000  178.1810  140.5960 C   0  0  0  0  0  1  0  0  0  0  0  0
  1 22  1  6  0  0  0
  1  2  1  0  0  0  0
  1 10  1  0  0  0  0
  2  5  1  1  0  0  0
  3  4  2  0  0  0  0
  4  5  2  0  0  0  0
  6  7  2  0  0  0  0
  6  3  1  0  0  0  0
  8  2  1  0  0  0  0
  9  8  1  0  0  0  0
 11 10  1  6  0  0  0
 11 12  1  0  0  0  0
 12 13  1  0  0  0  0
 14 15  1  0  0  0  0
 14 11  1  0  0  0  0
 17 20  1  1  0  0  0
 17 18  1  0  0  0  0
 17 21  1  0  0  0  0
 18 19  2  0  0  0  0
 19 16  1  0  0  0  0
 21 15  1  1  0  0  0
 21 16  1  0  0  0  0
 23 22  1  0  0  0  0
 24 23  1  0  0  0  0
 25 26  1  6  0  0  0
 25 24  1  0  0  0  0
 27 25  1  0  0  0  0
 27 28  1  0  0  0  0
 28 29  2  0  0  0  0
 30 28  1  0  0  0  0
 31 32  1  0  0  0  0
 31 30  1  0  0  0  0
M  END
>  <MODEL>
5

>  <REMARK>
 VINA RESULT:      -5.3      2.150      5.430
  Name = 
  17 active torsions:
  status: ('A' for Active; 'I' for Inactive)
    1  A    between atoms: C_1  and  O_20
    2  A    between atoms: C_2  and  C_9
    3  A    between atoms: C_2  and  O_23
    4  A    between atoms: O_3  and  C_14
    5  A    between atoms: C_4  and  C_5
    6  A    between atoms: O_6  and  C_31
    7  A    between atoms: C_8  and  O_23
    8  A    between atoms: C_8  and  C_28
    9  A    between atoms: C_9  and  N_10
   10  A    between atoms: C_13  and  C_28
   11  A    between atoms: C_13  and  C_31
   12  A    between atoms: C_14  and  C_26
   13  A    between atoms: C_14  and  C_28
   14  A    between atoms: O_16  and  C_27
   15  A    between atoms: O_16  and  C_31
   16  A    between atoms: C_19  and  O_20
   17  A    between atoms: C_27  and  C_32
                            x       y       z     vdW  Elec       q    Type
                         _______ _______ _______ _____ _____    ______ ____

>  <TORSDO>
F 17

$$$$
=
 OpenBabel11052421413D

 32 32  0  0  1  0  0  0  0  0999 V2000
  188.5170  176.9750  144.6790 C   0  0  2  0  0  3  0  0  0  0  0  0
  188.0750  176.5410  146.0970 C   0  0  2  0  0  3  0  0  0  0  0  0
  185.5500  179.1200  145.5070 C   0  0  0  0  0  3  0  0  0  0  0  0
  186.3040  178.2720  146.1480 C   0  0  0  0  0  0  0  0  0  0  0  0
  187.0610  177.4210  146.7890 C   0  0  0  0  0  3  0  0  0  0  0  0
  185.6820  179.2690  144.0630 C   0  0  0  0  0  3  0  0  0  0  0  0
  184.8640  178.6170  143.2510 C   0  0  0  0  0  2  0  0  0  0  0  0
  189.1450  176.1830  146.9480 O   0  0  0  0  0  0  0  0  0  0  0  0
  189.0470  174.8130  147.2450 C   0  0  0  0  0  1  0  0  0  0  0  0
  188.4870  175.8200  143.6660 C   0  0  0  0  0  2  0  0  0  0  0  0
  187.6870  176.1290  142.4010 C   0  0  1  0  0  3  0  0  0  0  0  0
  188.0410  177.3940  141.9280 O   0  0  0  0  0  0  0  0  0  0  0  0
  187.3100  177.5520  140.7510 C   0  0  0  0  0  1  0  0  0  0  0  0
  187.9410  175.1750  141.4120 O   0  0  0  0  0  0  0  0  0  0  0  0
  187.9400  173.9550  142.0920 C   0  0  0  0  0  2  0  0  0  0  0  0
  189.4360  172.0420  142.5820 C   0  0  0  0  0  2  0  0  0  0  0  0
  190.2440  173.8100  141.1450 C   0  0  1  0  0  3  0  0  0  0  0  0
  191.2410  173.3300  142.1350 C   0  0  0  0  0  3  0  0  0  0  0  0
  190.7920  172.4000  142.8830 N   0  0  0  0  0  0  0  0  0  0  0  0
  190.6990  173.4270  139.7500 C   0  0  0  0  0  1  0  0  0  0  0  0
  188.9870  173.0240  141.5040 C   0  0  2  0  0  3  0  0  0  0  0  0
  189.8860  177.6440  144.7000 C   0  0  0  0  0  2  0  0  0  0  0  0
  190.8020  176.8770  143.9750 O   0  0  0  0  0  0  0  0  0  0  0  0
  192.0310  177.1100  144.5960 C   0  0  0  0  0  2  0  0  0  0  0  0
  192.5150  175.8430  145.2770 C   0  0  2  0  0  3  0  0  0  0  0  0
  192.6140  176.0850  146.7700 C   0  0  0  0  0  1  0  0  0  0  0  0
  193.8190  175.4670  144.7480 N   0  0  0  0  0  2  0  0  0  0  0  0
  194.2600  174.1100  144.6780 C   0  0  0  0  0  0  0  0  0  0  0  0
  193.5000  173.1730  145.0480 O   0  0  0  0  0  0  0  0  0  0  0  0
  195.5390  173.8370  144.1890 O   0  0  0  0  0  0  0  0  0  0  0  0
  196.7070  174.3150  144.8390 C   0  0  0  0  0  2  0  0  0  0  0  0
  196.9140  173.5540  146.1310 C   0  0  0  0  0  1  0  0  0  0  0  0
  1 10  1  6  0  0  0
  1 22  1  0  0  0  0
  1  2  1  0  0  0  0
  2  5  1  1  0  0  0
  2  8  1  0  0  0  0
  3  4  2  0  0  0  0
  4  5  2  0  0  0  0
  6  3  1  0  0  0  0
  7  6  2  0  0  0  0
  8  9  1  0  0  0  0
 11 10  1  1  0  0  0
 12 11  1  0  0  0  0
 13 12  1  0  0  0  0
 14 15  1  0  0  0  0
 14 11  1  0  0  0  0
 16 19  1  0  0  0  0
 17 20  1  6  0  0  0
 17 21  1  0  0  0  0
 17 18  1  0  0  0  0
 18 19  2  0  0  0  0
 21 15  1  1  0  0  0
 21 16  1  0  0  0  0
 23 24  1  0  0  0  0
 23 22  1  0  0  0  0
 24 25  1  0  0  0  0
 25 26  1  1  0  0  0
 27 25  1  0  0  0  0
 28 27  1  0  0  0  0
 28 29  2  0  0  0  0
 30 28  1  0  0  0  0
 30 31  1  0  0  0  0
 31 32  1  0  0  0  0
M  END
>  <MODEL>
6

>  <REMARK>
 VINA RESULT:      -5.3      2.242      5.187
  Name = 
  17 active torsions:
  status: ('A' for Active; 'I' for Inactive)
    1  A    between atoms: C_1  and  O_20
    2  A    between atoms: C_2  and  C_9
    3  A    between atoms: C_2  and  O_23
    4  A    between atoms: O_3  and  C_14
    5  A    between atoms: C_4  and  C_5
    6  A    between atoms: O_6  and  C_31
    7  A    between atoms: C_8  and  O_23
    8  A    between atoms: C_8  and  C_28
    9  A    between atoms: C_9  and  N_10
   10  A    between atoms: C_13  and  C_28
   11  A    between atoms: C_13  and  C_31
   12  A    between atoms: C_14  and  C_26
   13  A    between atoms: C_14  and  C_28
   14  A    between atoms: O_16  and  C_27
   15  A    between atoms: O_16  and  C_31
   16  A    between atoms: C_19  and  O_20
   17  A    between atoms: C_27  and  C_32
                            x       y       z     vdW  Elec       q    Type
                         _______ _______ _______ _____ _____    ______ ____

>  <TORSDO>
F 17

$$$$
=
 OpenBabel11052421413D

 32 32  0  0  1  0  0  0  0  0999 V2000
  189.7730  174.4500  143.8390 C   0  0  2  0  0  3  0  0  0  0  0  0
  189.7250  175.2790  142.5320 C   0  0  2  0  0  3  0  0  0  0  0  0
  187.5780  178.1970  142.0300 C   0  0  0  0  0  3  0  0  0  0  0  0
  188.6230  177.4910  142.3580 C   0  0  0  0  0  0  0  0  0  0  0  0
  189.6710  176.7810  142.6850 C   0  0  0  0  0  3  0  0  0  0  0  0
  186.4030  177.5440  141.4680 C   0  0  0  0  0  3  0  0  0  0  0  0
  185.9490  177.9040  140.2780 C   0  0  0  0  0  2  0  0  0  0  0  0
  188.7930  174.8010  141.5830 O   0  0  0  0  0  0  0  0  0  0  0  0
  187.7530  174.1440  142.2620 C   0  0  0  0  0  1  0  0  0  0  0  0
  190.1120  175.3020  145.0720 C   0  0  0  0  0  2  0  0  0  0  0  0
  188.9840  175.3740  146.1010 C   0  0  1  0  0  3  0  0  0  0  0  0
  189.4350  174.8550  147.3170 O   0  0  0  0  0  0  0  0  0  0  0  0
  190.7320  175.3490  147.4550 C   0  0  0  0  0  1  0  0  0  0  0  0
  188.5700  176.6960  146.2850 O   0  0  0  0  0  0  0  0  0  0  0  0
  187.2930  176.7460  145.7220 C   0  0  0  0  0  2  0  0  0  0  0  0
  186.3140  178.3000  147.3850 C   0  0  0  0  0  2  0  0  0  0  0  0
  185.3630  178.2270  145.1640 C   0  0  1  0  0  3  0  0  0  0  0  0
  184.3560  178.2900  146.2530 C   0  0  0  0  0  3  0  0  0  0  0  0
  184.8800  178.3250  147.4150 N   0  0  0  0  0  0  0  0  0  0  0  0
  185.3280  179.5190  144.3730 C   0  0  0  0  0  1  0  0  0  0  0  0
  186.6860  178.1260  145.9160 C   0  0  2  0  0  3  0  0  0  0  0  0
  190.7270  173.2680  143.7160 C   0  0  0  0  0  2  0  0  0  0  0  0
  191.9240  173.5500  144.3800 O   0  0  0  0  0  0  0  0  0  0  0  0
  192.4990  172.3010  144.6230 C   0  0  0  0  0  2  0  0  0  0  0  0
  193.9850  172.4590  144.8900 C   0  0  2  0  0  3  0  0  0  0  0  0
  194.5000  171.2190  145.5940 C   0  0  0  0  0  1  0  0  0  0  0  0
  194.2130  173.6320  145.7210 N   0  0  0  0  0  2  0  0  0  0  0  0
  195.0210  174.7320  145.2970 C   0  0  0  0  0  0  0  0  0  0  0  0
  195.5420  174.7340  144.1480 O   0  0  0  0  0  0  0  0  0  0  0  0
  195.2180  175.8050  146.1680 O   0  0  0  0  0  0  0  0  0  0  0  0
  194.1760  176.7150  146.4840 C   0  0  0  0  0  2  0  0  0  0  0  0
  193.3930  177.0400  145.2300 C   0  0  0  0  0  1  0  0  0  0  0  0
  1 22  1  6  0  0  0
  1 10  1  0  0  0  0
  2  5  1  1  0  0  0
  2  1  1  0  0  0  0
  3  4  2  0  0  0  0
  4  5  2  0  0  0  0
  6  3  1  0  0  0  0
  7  6  2  0  0  0  0
  8  9  1  0  0  0  0
  8  2  1  0  0  0  0
 11 10  1  6  0  0  0
 11 14  1  0  0  0  0
 11 12  1  0  0  0  0
 12 13  1  0  0  0  0
 15 14  1  0  0  0  0
 16 19  1  0  0  0  0
 17 20  1  1  0  0  0
 17 21  1  0  0  0  0
 17 18  1  0  0  0  0
 18 19  2  0  0  0  0
 21 15  1  1  0  0  0
 21 16  1  0  0  0  0
 22 23  1  0  0  0  0
 23 24  1  0  0  0  0
 24 25  1  0  0  0  0
 25 26  1  1  0  0  0
 25 27  1  0  0  0  0
 28 27  1  0  0  0  0
 28 30  1  0  0  0  0
 29 28  2  0  0  0  0
 30 31  1  0  0  0  0
 32 31  1  0  0  0  0
M  END
>  <MODEL>
7

>  <REMARK>
 VINA RESULT:      -5.3      1.849      4.371
  Name = 
  17 active torsions:
  status: ('A' for Active; 'I' for Inactive)
    1  A    between atoms: C_1  and  O_20
    2  A    between atoms: C_2  and  C_9
    3  A    between atoms: C_2  and  O_23
    4  A    between atoms: O_3  and  C_14
    5  A    between atoms: C_4  and  C_5
    6  A    between atoms: O_6  and  C_31
    7  A    between atoms: C_8  and  O_23
    8  A    between atoms: C_8  and  C_28
    9  A    between atoms: C_9  and  N_10
   10  A    between atoms: C_13  and  C_28
   11  A    between atoms: C_13  and  C_31
   12  A    between atoms: C_14  and  C_26
   13  A    between atoms: C_14  and  C_28
   14  A    between atoms: O_16  and  C_27
   15  A    between atoms: O_16  and  C_31
   16  A    between atoms: C_19  and  O_20
   17  A    between atoms: C_27  and  C_32
                            x       y       z     vdW  Elec       q    Type
                         _______ _______ _______ _____ _____    ______ ____

>  <TORSDO>
F 17

$$$$
=
 OpenBabel11052421413D

 32 32  0  0  1  0  0  0  0  0999 V2000
  189.4950  175.7490  142.3190 C   0  0  2  0  0  3  0  0  0  0  0  0
  190.0510  175.7110  143.7630 C   0  0  2  0  0  3  0  0  0  0  0  0
  189.8560  174.8830  147.3200 C   0  0  0  0  0  3  0  0  0  0  0  0
  189.5350  174.9360  146.0580 C   0  0  0  0  0  0  0  0  0  0  0  0
  189.2140  174.9890  144.7920 C   0  0  0  0  0  3  0  0  0  0  0  0
  191.0820  175.5180  147.7890 C   0  0  0  0  0  3  0  0  0  0  0  0
  191.1170  176.8260  147.9900 C   0  0  0  0  0  2  0  0  0  0  0  0
  190.5190  176.9610  144.2320 O   0  0  0  0  0  0  0  0  0  0  0  0
  191.2440  177.5860  143.2040 C   0  0  0  0  0  1  0  0  0  0  0  0
  187.9630  175.8510  142.2740 C   0  0  0  0  0  2  0  0  0  0  0  0
  187.4480  177.2500  141.9370 C   0  0  1  0  0  3  0  0  0  0  0  0
  187.3000  177.3670  140.5530 O   0  0  0  0  0  0  0  0  0  0  0  0
  186.0180  177.8870  140.3740 C   0  0  0  0  0  1  0  0  0  0  0  0
  186.2170  177.4840  142.5560 O   0  0  0  0  0  0  0  0  0  0  0  0
  186.3400  176.8940  143.8160 C   0  0  0  0  0  2  0  0  0  0  0  0
  187.4190  177.9930  145.7560 C   0  0  0  0  0  2  0  0  0  0  0  0
  185.0560  177.4970  145.8690 C   0  0  1  0  0  3  0  0  0  0  0  0
  185.7990  177.1950  147.1190 C   0  0  0  0  0  3  0  0  0  0  0  0
  187.0430  177.4620  147.0350 N   0  0  0  0  0  0  0  0  0  0  0  0
  184.1070  178.6530  146.1170 C   0  0  0  0  0  1  0  0  0  0  0  0
  186.1540  177.9360  144.9060 C   0  0  2  0  0  3  0  0  0  0  0  0
  189.9850  174.5610  141.5000 C   0  0  0  0  0  2  0  0  0  0  0  0
  191.0200  173.9100  142.1770 O   0  0  0  0  0  0  0  0  0  0  0  0
  191.7460  173.2610  141.1770 C   0  0  0  0  0  2  0  0  0  0  0  0
  193.0370  174.0120  140.9050 C   0  0  2  0  0  3  0  0  0  0  0  0
  194.0310  173.0760  140.2470 C   0  0  0  0  0  1  0  0  0  0  0  0
  193.5850  174.5160  142.1570 N   0  0  0  0  0  2  0  0  0  0  0  0
  194.3090  175.7460  142.2420 C   0  0  0  0  0  0  0  0  0  0  0  0
  194.4670  176.4640  141.2160 O   0  0  0  0  0  0  0  0  0  0  0  0
  194.8320  176.1410  143.4740 O   0  0  0  0  0  0  0  0  0  0  0  0
  194.3690  175.5880  144.6960 C   0  0  0  0  0  2  0  0  0  0  0  0
  194.0900  176.7030  145.6810 C   0  0  0  0  0  1  0  0  0  0  0  0
  1 22  1  6  0  0  0
  1  2  1  0  0  0  0
  2  8  1  0  0  0  0
  2  5  1  1  0  0  0
  3  6  1  0  0  0  0
  4  3  2  0  0  0  0
  5  4  2  0  0  0  0
  6  7  2  0  0  0  0
  9  8  1  0  0  0  0
 10  1  1  0  0  0  0
 11 10  1  6  0  0  0
 11 14  1  0  0  0  0
 12 11  1  0  0  0  0
 13 12  1  0  0  0  0
 14 15  1  0  0  0  0
 16 19  1  0  0  0  0
 17 20  1  1  0  0  0
 17 18  1  0  0  0  0
 19 18  2  0  0  0  0
 21 15  1  6  0  0  0
 21 16  1  0  0  0  0
 21 17  1  0  0  0  0
 22 23  1  0  0  0  0
 24 23  1  0  0  0  0
 25 26  1  1  0  0  0
 25 24  1  0  0  0  0
 25 27  1  0  0  0  0
 27 28  1  0  0  0  0
 28 30  1  0  0  0  0
 29 28  2  0  0  0  0
 30 31  1  0  0  0  0
 31 32  1  0  0  0  0
M  END
>  <MODEL>
8

>  <REMARK>
 VINA RESULT:      -5.1      2.036      2.623
  Name = 
  17 active torsions:
  status: ('A' for Active; 'I' for Inactive)
    1  A    between atoms: C_1  and  O_20
    2  A    between atoms: C_2  and  C_9
    3  A    between atoms: C_2  and  O_23
    4  A    between atoms: O_3  and  C_14
    5  A    between atoms: C_4  and  C_5
    6  A    between atoms: O_6  and  C_31
    7  A    between atoms: C_8  and  O_23
    8  A    between atoms: C_8  and  C_28
    9  A    between atoms: C_9  and  N_10
   10  A    between atoms: C_13  and  C_28
   11  A    between atoms: C_13  and  C_31
   12  A    between atoms: C_14  and  C_26
   13  A    between atoms: C_14  and  C_28
   14  A    between atoms: O_16  and  C_27
   15  A    between atoms: O_16  and  C_31
   16  A    between atoms: C_19  and  O_20
   17  A    between atoms: C_27  and  C_32
                            x       y       z     vdW  Elec       q    Type
                         _______ _______ _______ _____ _____    ______ ____

>  <TORSDO>
F 17

$$$$
=
 OpenBabel11052421413D

 32 32  0  0  1  0  0  0  0  0999 V2000
  190.4530  176.4890  144.2370 C   0  0  2  0  0  3  0  0  0  0  0  0
  189.4490  176.4390  143.0600 C   0  0  2  0  0  3  0  0  0  0  0  0
  190.4540  172.9510  142.6190 C   0  0  0  0  0  3  0  0  0  0  0  0
  190.0670  174.1580  142.3190 C   0  0  0  0  0  0  0  0  0  0  0  0
  189.6780  175.3690  142.0180 C   0  0  0  0  0  3  0  0  0  0  0  0
  190.7110  172.5910  144.0080 C   0  0  0  0  0  3  0  0  0  0  0  0
  189.7060  172.2560  144.8030 C   0  0  0  0  0  2  0  0  0  0  0  0
  189.1770  177.7010  142.4830 O   0  0  0  0  0  0  0  0  0  0  0  0
  187.8330  177.7320  142.0770 C   0  0  0  0  0  1  0  0  0  0  0  0
  189.7820  176.8170  145.5790 C   0  0  0  0  0  2  0  0  0  0  0  0
  188.4770  176.0580  145.8190 C   0  0  1  0  0  3  0  0  0  0  0  0
  188.4170  175.6550  147.1550 O   0  0  0  0  0  0  0  0  0  0  0  0
  189.3490  174.6230  147.2580 C   0  0  0  0  0  1  0  0  0  0  0  0
  187.3760  176.8670  145.5270 O   0  0  0  0  0  0  0  0  0  0  0  0
  187.2910  177.7480  146.6070 C   0  0  0  0  0  2  0  0  0  0  0  0
  185.1830  178.8120  147.3540 C   0  0  0  0  0  2  0  0  0  0  0  0
  185.5880  178.5780  144.9830 C   0  0  1  0  0  3  0  0  0  0  0  0
  184.1990  178.2550  145.3950 C   0  0  0  0  0  3  0  0  0  0  0  0
  184.0090  178.3830  146.6490 N   0  0  0  0  0  0  0  0  0  0  0  0
  185.5820  179.8400  144.1420 C   0  0  0  0  0  1  0  0  0  0  0  0
  186.2910  178.8530  146.3080 C   0  0  2  0  0  3  0  0  0  0  0  0
  191.6000  177.4510  143.9530 C   0  0  0  0  0  2  0  0  0  0  0  0
  192.7550  176.7340  143.6290 O   0  0  0  0  0  0  0  0  0  0  0  0
  192.8570  175.7560  144.6200 C   0  0  0  0  0  2  0  0  0  0  0  0
  194.2240  175.8230  145.2750 C   0  0  2  0  0  3  0  0  0  0  0  0
  194.1600  176.7510  146.4720 C   0  0  0  0  0  1  0  0  0  0  0  0
  195.2040  176.3170  144.3180 N   0  0  0  0  0  2  0  0  0  0  0  0
  196.1280  175.4570  143.6480 C   0  0  0  0  0  0  0  0  0  0  0  0
  196.0970  174.2120  143.8450 O   0  0  0  0  0  0  0  0  0  0  0  0
  197.0590  176.0150  142.7700 O   0  0  0  0  0  0  0  0  0  0  0  0
  196.6610  176.7300  141.6110 C   0  0  0  0  0  2  0  0  0  0  0  0
  196.5310  175.7720  140.4460 C   0  0  0  0  0  1  0  0  0  0  0  0
  1 22  1  6  0  0  0
  1 10  1  0  0  0  0
  2  5  1  6  0  0  0
  2  1  1  0  0  0  0
  3  6  1  0  0  0  0
  4  3  2  0  0  0  0
  5  4  2  0  0  0  0
  6  7  2  0  0  0  0
  8  2  1  0  0  0  0
  9  8  1  0  0  0  0
 11 10  1  1  0  0  0
 11 12  1  0  0  0  0
 12 13  1  0  0  0  0
 14 11  1  0  0  0  0
 14 15  1  0  0  0  0
 17 20  1  6  0  0  0
 17 18  1  0  0  0  0
 17 21  1  0  0  0  0
 18 19  2  0  0  0  0
 19 16  1  0  0  0  0
 21 15  1  1  0  0  0
 21 16  1  0  0  0  0
 23 22  1  0  0  0  0
 23 24  1  0  0  0  0
 24 25  1  0  0  0  0
 25 26  1  1  0  0  0
 27 25  1  0  0  0  0
 28 29  2  0  0  0  0
 28 27  1  0  0  0  0
 30 28  1  0  0  0  0
 31 30  1  0  0  0  0
 32 31  1  0  0  0  0
M  END
>  <MODEL>
9

>  <REMARK>
 VINA RESULT:      -5.1      2.500      4.266
  Name = 
  17 active torsions:
  status: ('A' for Active; 'I' for Inactive)
    1  A    between atoms: C_1  and  O_20
    2  A    between atoms: C_2  and  C_9
    3  A    between atoms: C_2  and  O_23
    4  A    between atoms: O_3  and  C_14
    5  A    between atoms: C_4  and  C_5
    6  A    between atoms: O_6  and  C_31
    7  A    between atoms: C_8  and  O_23
    8  A    between atoms: C_8  and  C_28
    9  A    between atoms: C_9  and  N_10
   10  A    between atoms: C_13  and  C_28
   11  A    between atoms: C_13  and  C_31
   12  A    between atoms: C_14  and  C_26
   13  A    between atoms: C_14  and  C_28
   14  A    between atoms: O_16  and  C_27
   15  A    between atoms: O_16  and  C_31
   16  A    between atoms: C_19  and  O_20
   17  A    between atoms: C_27  and  C_32
                            x       y       z     vdW  Elec       q    Type
                         _______ _______ _______ _____ _____    ______ ____

>  <TORSDO>
F 17

$$$$
