=
 OpenBabel11052417543D

 31 35  0  0  1  0  0  0  0  0999 V2000
  191.1240  176.7760  147.4470 C   0  0  0  0  0  0  0  0  0  0  0  0
  188.4700  176.0350  144.7890 C   0  0  2  0  0  3  0  0  0  0  0  0
  187.3920  177.0530  145.2250 C   0  0  2  0  0  3  0  0  0  0  0  0
  191.6780  173.1170  141.7930 O   0  0  0  0  0  0  0  0  0  0  0  0
  190.7110  173.5030  141.0810 C   0  0  0  0  0  0  0  0  0  0  0  0
  185.2850  176.9950  146.7510 C   0  0  0  0  0  2  0  0  0  0  0  0
  189.7900  176.1650  145.5120 C   0  0  0  0  0  0  0  0  0  0  0  0
  192.2410  176.1620  146.8740 C   0  0  0  0  0  3  0  0  0  0  0  0
  186.7320  176.5490  146.5240 C   0  0  0  0  0  2  0  0  0  0  0  0
  189.7800  175.0530  142.8830 C   0  0  0  0  0  0  0  0  0  0  0  0
  191.2300  177.3970  148.7220 N   0  0  0  0  0  1  0  0  0  0  0  0
  186.3900  176.8140  142.9310 C   0  0  0  0  0  3  0  0  0  0  0  0
  185.1240  178.5140  146.8600 C   0  0  0  0  0  2  0  0  0  0  0  0
  190.8180  174.9080  143.6590 N   0  0  0  0  0  0  0  0  0  0  0  0
  188.6880  176.0230  143.2690 C   0  0  1  0  0  3  0  0  0  0  0  0
  189.7470  174.4300  141.5910 N   0  0  0  0  0  2  0  0  0  0  0  0
  189.8990  176.7660  146.7740 C   0  0  0  0  0  3  0  0  0  0  0  0
  185.6410  179.2910  145.6470 C   0  0  0  0  0  2  0  0  0  0  0  0
  190.9180  175.5430  144.9430 C   0  0  0  0  0  0  0  0  0  0  0  0
  192.1390  175.5440  145.6250 C   0  0  0  0  0  3  0  0  0  0  0  0
  187.3560  175.7150  142.6030 C   0  0  0  0  0  2  0  0  0  0  0  0
  186.3820  177.4180  144.1300 C   0  0  0  0  0  0  0  0  0  0  0  0
  185.4150  178.5600  144.3230 C   0  0  0  0  0  2  0  0  0  0  0  0
  191.8290  170.4590  139.2570 C   0  0  1  0  0  3  0  0  0  0  0  0
  189.8140  171.7450  139.6540 O   0  0  0  0  0  0  0  0  0  0  0  0
  192.5430  174.0950  138.9390 O   0  0  0  0  0  1  0  0  0  0  0  0
  192.6490  169.3110  139.8040 C   0  0  0  0  0  1  0  0  0  0  0  0
  190.6230  170.7030  140.1610 C   0  0  0  0  0  2  0  0  0  0  0  0
  191.8140  172.9100  138.8300 C   0  0  2  0  0  3  0  0  0  0  0  0
  190.5340  172.9650  139.6860 C   0  0  2  0  0  3  0  0  0  0  0  0
  192.6810  171.7200  139.2240 C   0  0  0  0  0  2  0  0  0  0  0  0
  1 11  1  0  0  0  0
  2  3  1  0  0  0  0
  2  7  1  1  0  0  0
  3  9  1  1  0  0  0
  5 16  1  0  0  0  0
  5  4  2  0  0  0  0
  6 13  1  0  0  0  0
  7 17  1  0  0  0  0
  8  1  1  0  0  0  0
  9  6  1  0  0  0  0
 10 15  1  0  0  0  0
 10 14  2  0  0  0  0
 12 22  2  0  0  0  0
 14 19  1  0  0  0  0
 15 21  1  6  0  0  0
 15  2  1  0  0  0  0
 16 10  1  0  0  0  0
 17  1  2  0  0  0  0
 18 13  1  0  0  0  0
 19  7  2  0  0  0  0
 19 20  1  0  0  0  0
 20  8  2  0  0  0  0
 21 12  1  0  0  0  0
 22 23  1  0  0  0  0
 22  3  1  0  0  0  0
 23 18  1  0  0  0  0
 24 27  1  1  0  0  0
 24 28  1  0  0  0  0
 25 30  1  0  0  0  0
 25 28  1  0  0  0  0
 29 26  1  1  0  0  0
 29 31  1  0  0  0  0
 29 30  1  0  0  0  0
 30  5  1  1  0  0  0
 31 24  1  0  0  0  0
M  END
>  <MODEL>
1

>  <REMARK>
 VINA RESULT:      -9.0      0.000      0.000
  Name = 
  1 active torsions:
  status: ('A' for Active; 'I' for Inactive)
    1  A    between atoms: C_9  and  C_22
                            x       y       z     vdW  Elec       q    Type
                         _______ _______ _______ _____ _____    ______ ____

>  <TORSDO>
F 1

$$$$
=
 OpenBabel11052417543D

 31 35  0  0  1  0  0  0  0  0999 V2000
  191.0180  176.6420  147.3880 C   0  0  0  0  0  0  0  0  0  0  0  0
  188.3700  175.7530  144.7700 C   0  0  2  0  0  3  0  0  0  0  0  0
  187.3950  176.9310  144.9930 C   0  0  2  0  0  3  0  0  0  0  0  0
  191.3280  172.0820  142.4110 O   0  0  0  0  0  0  0  0  0  0  0  0
  190.4270  172.4440  141.6060 C   0  0  0  0  0  0  0  0  0  0  0  0
  185.2550  177.3320  146.4180 C   0  0  0  0  0  2  0  0  0  0  0  0
  189.6770  175.8640  145.5190 C   0  0  0  0  0  0  0  0  0  0  0  0
  192.0780  175.8340  146.9670 C   0  0  0  0  0  3  0  0  0  0  0  0
  186.6520  176.7120  146.3250 C   0  0  0  0  0  2  0  0  0  0  0  0
  189.6180  174.3490  143.1000 C   0  0  0  0  0  0  0  0  0  0  0  0
  191.1550  177.4460  148.5530 N   0  0  0  0  0  1  0  0  0  0  0  0
  186.4340  176.4270  142.7250 C   0  0  0  0  0  3  0  0  0  0  0  0
  185.2530  178.8560  146.2790 C   0  0  0  0  0  2  0  0  0  0  0  0
  190.6140  174.2280  143.9320 N   0  0  0  0  0  0  0  0  0  0  0  0
  188.6260  175.4740  143.2810 C   0  0  1  0  0  3  0  0  0  0  0  0
  189.5530  173.5330  141.9220 N   0  0  0  0  0  2  0  0  0  0  0  0
  189.8160  176.6460  146.6740 C   0  0  0  0  0  3  0  0  0  0  0  0
  185.8810  179.3720  144.9810 C   0  0  0  0  0  2  0  0  0  0  0  0
  190.7470  175.0480  145.1030 C   0  0  0  0  0  0  0  0  0  0  0  0
  191.9430  175.0360  145.8280 C   0  0  0  0  0  3  0  0  0  0  0  0
  187.2860  175.1980  142.6160 C   0  0  0  0  0  2  0  0  0  0  0  0
  186.4590  177.2140  143.8120 C   0  0  0  0  0  0  0  0  0  0  0  0
  185.6140  178.4640  143.7810 C   0  0  0  0  0  2  0  0  0  0  0  0
  191.2860  173.0890  138.0440 C   0  0  1  0  0  3  0  0  0  0  0  0
  191.4520  171.3280  139.6990 O   0  0  0  0  0  0  0  0  0  0  0  0
  188.1020  172.8110  139.9460 O   0  0  0  0  0  1  0  0  0  0  0  0
  192.0270  174.2830  137.4800 C   0  0  0  0  0  1  0  0  0  0  0  0
  192.0990  172.4710  139.1780 C   0  0  0  0  0  2  0  0  0  0  0  0
  189.2650  172.3770  139.3080 C   0  0  2  0  0  3  0  0  0  0  0  0
  190.2300  171.7090  140.3070 C   0  0  2  0  0  3  0  0  0  0  0  0
  189.9410  173.5420  138.5950 C   0  0  0  0  0  2  0  0  0  0  0  0
  1 11  1  0  0  0  0
  2  3  1  0  0  0  0
  2  7  1  1  0  0  0
  3  9  1  1  0  0  0
  5 16  1  0  0  0  0
  5  4  2  0  0  0  0
  7 17  1  0  0  0  0
  8  1  1  0  0  0  0
  9  6  1  0  0  0  0
 10 15  1  0  0  0  0
 10 14  2  0  0  0  0
 12 22  2  0  0  0  0
 13  6  1  0  0  0  0
 14 19  1  0  0  0  0
 15 21  1  6  0  0  0
 15  2  1  0  0  0  0
 16 10  1  0  0  0  0
 17  1  2  0  0  0  0
 18 13  1  0  0  0  0
 19  7  2  0  0  0  0
 19 20  1  0  0  0  0
 20  8  2  0  0  0  0
 21 12  1  0  0  0  0
 22  3  1  0  0  0  0
 23 22  1  0  0  0  0
 23 18  1  0  0  0  0
 24 27  1  1  0  0  0
 24 31  1  0  0  0  0
 24 28  1  0  0  0  0
 25 30  1  0  0  0  0
 28 25  1  0  0  0  0
 29 26  1  1  0  0  0
 29 30  1  0  0  0  0
 30  5  1  1  0  0  0
 31 29  1  0  0  0  0
M  END
>  <MODEL>
2

>  <REMARK>
 VINA RESULT:      -8.9      1.140      1.795
  Name = 
  1 active torsions:
  status: ('A' for Active; 'I' for Inactive)
    1  A    between atoms: C_9  and  C_22
                            x       y       z     vdW  Elec       q    Type
                         _______ _______ _______ _____ _____    ______ ____

>  <TORSDO>
F 1

$$$$
=
 OpenBabel11052417543D

 31 35  0  0  1  0  0  0  0  0999 V2000
  185.6250  177.7580  140.8240 C   0  0  0  0  0  0  0  0  0  0  0  0
  187.6430  177.0830  144.0060 C   0  0  2  0  0  3  0  0  0  0  0  0
  186.5480  177.3680  145.0590 C   0  0  2  0  0  3  0  0  0  0  0  0
  191.6920  174.8520  141.4720 O   0  0  0  0  0  0  0  0  0  0  0  0
  191.7330  174.4930  142.6810 C   0  0  0  0  0  0  0  0  0  0  0  0
  185.8060  179.4290  146.4630 C   0  0  0  0  0  2  0  0  0  0  0  0
  187.1550  177.0630  142.5770 C   0  0  0  0  0  0  0  0  0  0  0  0
  186.4470  177.1580  139.8650 C   0  0  0  0  0  3  0  0  0  0  0  0
  186.3040  178.8880  145.1200 C   0  0  0  0  0  2  0  0  0  0  0  0
  189.4730  175.5370  143.2460 C   0  0  0  0  0  0  0  0  0  0  0  0
  184.4320  178.4200  140.4230 N   0  0  0  0  0  1  0  0  0  0  0  0
  187.9470  176.0810  146.7060 C   0  0  0  0  0  3  0  0  0  0  0  0
  184.4520  178.8550  146.8890 C   0  0  0  0  0  2  0  0  0  0  0  0
  189.1920  175.8020  142.0010 N   0  0  0  0  0  0  0  0  0  0  0  0
  188.4440  175.8110  144.3180 C   0  0  1  0  0  3  0  0  0  0  0  0
  190.6770  174.8340  143.5850 N   0  0  0  0  0  2  0  0  0  0  0  0
  185.9850  177.7230  142.1740 C   0  0  0  0  0  3  0  0  0  0  0  0
  184.4190  177.3260  146.9870 C   0  0  0  0  0  2  0  0  0  0  0  0
  187.9810  176.4650  141.6060 C   0  0  0  0  0  0  0  0  0  0  0  0
  187.6250  176.5150  140.2550 C   0  0  0  0  0  3  0  0  0  0  0  0
  189.0550  175.9650  145.7020 C   0  0  0  0  0  2  0  0  0  0  0  0
  186.8070  176.7360  146.4330 C   0  0  0  0  0  0  0  0  0  0  0  0
  185.7320  176.7270  147.4910 C   0  0  0  0  0  2  0  0  0  0  0  0
  194.1510  174.9440  145.4720 C   0  0  1  0  0  3  0  0  0  0  0  0
  192.7190  173.2380  144.5200 O   0  0  0  0  0  0  0  0  0  0  0  0
  194.4210  174.9640  141.7620 O   0  0  0  0  0  1  0  0  0  0  0  0
  194.1750  176.0600  146.4940 C   0  0  0  0  0  1  0  0  0  0  0  0
  192.7630  174.3110  145.4380 C   0  0  0  0  0  2  0  0  0  0  0  0
  194.2820  174.4250  143.0420 C   0  0  2  0  0  3  0  0  0  0  0  0
  192.9180  173.7270  143.2050 C   0  0  2  0  0  3  0  0  0  0  0  0
  194.4660  175.5110  144.0950 C   0  0  0  0  0  2  0  0  0  0  0  0
  1 17  1  0  0  0  0
  2  7  1  6  0  0  0
  2 15  1  0  0  0  0
  2  3  1  0  0  0  0
  3  9  1  1  0  0  0
  3 22  1  0  0  0  0
  4  5  2  0  0  0  0
  5 16  1  0  0  0  0
  6 13  1  0  0  0  0
  8 20  1  0  0  0  0
  8  1  2  0  0  0  0
  9  6  1  0  0  0  0
 10 16  1  0  0  0  0
 10 15  1  0  0  0  0
 11  1  1  0  0  0  0
 13 18  1  0  0  0  0
 14 10  2  0  0  0  0
 15 21  1  1  0  0  0
 17  7  2  0  0  0  0
 18 23  1  0  0  0  0
 19 14  1  0  0  0  0
 19  7  1  0  0  0  0
 20 19  2  0  0  0  0
 21 12  1  0  0  0  0
 22 12  2  0  0  0  0
 22 23  1  0  0  0  0
 24 27  1  1  0  0  0
 25 28  1  0  0  0  0
 28 24  1  0  0  0  0
 29 26  1  6  0  0  0
 29 30  1  0  0  0  0
 29 31  1  0  0  0  0
 30  5  1  1  0  0  0
 30 25  1  0  0  0  0
 31 24  1  0  0  0  0
M  END
>  <MODEL>
3

>  <REMARK>
 VINA RESULT:      -8.7      2.717      5.171
  Name = 
  1 active torsions:
  status: ('A' for Active; 'I' for Inactive)
    1  A    between atoms: C_9  and  C_22
                            x       y       z     vdW  Elec       q    Type
                         _______ _______ _______ _____ _____    ______ ____

>  <TORSDO>
F 1

$$$$
=
 OpenBabel11052417543D

 31 35  0  0  1  0  0  0  0  0999 V2000
  191.2340  177.1090  147.9570 C   0  0  0  0  0  0  0  0  0  0  0  0
  189.0020  175.8320  145.1200 C   0  0  2  0  0  3  0  0  0  0  0  0
  187.8360  176.8380  145.2500 C   0  0  2  0  0  3  0  0  0  0  0  0
  192.7010  172.6950  143.0540 O   0  0  0  0  0  0  0  0  0  0  0  0
  191.8290  172.9160  142.1710 C   0  0  0  0  0  0  0  0  0  0  0  0
  185.5430  176.8830  146.4770 C   0  0  0  0  0  2  0  0  0  0  0  0
  190.2040  176.1430  145.9810 C   0  0  0  0  0  0  0  0  0  0  0  0
  192.4420  176.4830  147.6360 C   0  0  0  0  0  3  0  0  0  0  0  0
  187.0230  176.4930  146.5120 C   0  0  0  0  0  2  0  0  0  0  0  0
  190.5990  174.6570  143.5760 C   0  0  0  0  0  0  0  0  0  0  0  0
  191.1390  177.9160  149.1240 N   0  0  0  0  0  1  0  0  0  0  0  0
  187.1710  176.2050  142.9080 C   0  0  0  0  0  3  0  0  0  0  0  0
  185.3100  178.3890  146.3300 C   0  0  0  0  0  2  0  0  0  0  0  0
  191.5250  174.6890  144.4940 N   0  0  0  0  0  0  0  0  0  0  0  0
  189.4290  175.6080  143.6620 C   0  0  1  0  0  3  0  0  0  0  0  0
  190.7690  173.8500  142.4020 N   0  0  0  0  0  2  0  0  0  0  0  0
  190.1140  176.9280  147.1390 C   0  0  0  0  0  3  0  0  0  0  0  0
  185.9610  179.0080  145.0890 C   0  0  0  0  0  2  0  0  0  0  0  0
  191.4220  175.5110  145.6660 C   0  0  0  0  0  0  0  0  0  0  0  0
  192.5360  175.6830  146.4940 C   0  0  0  0  0  3  0  0  0  0  0  0
  188.2140  175.1280  142.8830 C   0  0  0  0  0  2  0  0  0  0  0  0
  186.9740  176.9780  143.9880 C   0  0  0  0  0  0  0  0  0  0  0  0
  185.9480  178.0780  143.8750 C   0  0  0  0  0  2  0  0  0  0  0  0
  189.7730  172.9050  139.0700 C   0  0  1  0  0  3  0  0  0  0  0  0
  192.0950  173.0170  139.7520 O   0  0  0  0  0  0  0  0  0  0  0  0
  190.4410  170.4260  141.7610 O   0  0  0  0  0  1  0  0  0  0  0  0
  188.5660  173.7670  138.7660 C   0  0  0  0  0  1  0  0  0  0  0  0
  190.9390  173.7910  139.4990 C   0  0  0  0  0  2  0  0  0  0  0  0
  190.6950  171.1960  140.6250 C   0  0  2  0  0  3  0  0  0  0  0  0
  191.8660  172.1690  140.8640 C   0  0  2  0  0  3  0  0  0  0  0  0
  189.4380  171.9490  140.2060 C   0  0  0  0  0  2  0  0  0  0  0  0
  1 11  1  0  0  0  0
  2  3  1  0  0  0  0
  2  7  1  1  0  0  0
  3  9  1  1  0  0  0
  5 16  1  0  0  0  0
  5  4  2  0  0  0  0
  6  9  1  0  0  0  0
  7 17  1  0  0  0  0
  8  1  1  0  0  0  0
 10 15  1  0  0  0  0
 10 14  2  0  0  0  0
 12 22  2  0  0  0  0
 13  6  1  0  0  0  0
 14 19  1  0  0  0  0
 15 21  1  6  0  0  0
 15  2  1  0  0  0  0
 16 10  1  0  0  0  0
 17  1  2  0  0  0  0
 18 13  1  0  0  0  0
 19  7  2  0  0  0  0
 19 20  1  0  0  0  0
 20  8  2  0  0  0  0
 21 12  1  0  0  0  0
 22  3  1  0  0  0  0
 23 22  1  0  0  0  0
 23 18  1  0  0  0  0
 24 27  1  1  0  0  0
 24 28  1  0  0  0  0
 24 31  1  0  0  0  0
 25 30  1  0  0  0  0
 28 25  1  0  0  0  0
 29 30  1  0  0  0  0
 29 26  1  1  0  0  0
 30  5  1  1  0  0  0
 31 29  1  0  0  0  0
M  END
>  <MODEL>
4

>  <REMARK>
 VINA RESULT:      -8.5      1.211      2.075
  Name = 
  1 active torsions:
  status: ('A' for Active; 'I' for Inactive)
    1  A    between atoms: C_9  and  C_22
                            x       y       z     vdW  Elec       q    Type
                         _______ _______ _______ _____ _____    ______ ____

>  <TORSDO>
F 1

$$$$
=
 OpenBabel11052417543D

 31 35  0  0  1  0  0  0  0  0999 V2000
  194.6930  175.3790  145.2720 C   0  0  0  0  0  0  0  0  0  0  0  0
  191.2910  174.9210  143.5760 C   0  0  2  0  0  3  0  0  0  0  0  0
  191.6770  173.8470  142.5340 C   0  0  2  0  0  3  0  0  0  0  0  0
  188.6250  177.6040  147.2480 O   0  0  0  0  0  0  0  0  0  0  0  0
  187.8100  176.8750  146.6180 C   0  0  0  0  0  0  0  0  0  0  0  0
  192.4500  173.8550  140.0500 C   0  0  0  0  0  2  0  0  0  0  0  0
  192.3670  175.2320  144.5900 C   0  0  0  0  0  0  0  0  0  0  0  0
  194.3100  176.0450  146.4410 C   0  0  0  0  0  3  0  0  0  0  0  0
  192.5270  174.5090  141.4320 C   0  0  0  0  0  2  0  0  0  0  0  0
  189.6400  175.6530  145.3230 C   0  0  0  0  0  0  0  0  0  0  0  0
  196.0670  175.1180  145.0210 N   0  0  0  0  0  1  0  0  0  0  0  0
  189.2260  173.3250  142.3230 C   0  0  0  0  0  3  0  0  0  0  0  0
  192.9450  172.4070  140.0300 C   0  0  0  0  0  2  0  0  0  0  0  0
  190.6030  176.1820  146.0250 N   0  0  0  0  0  0  0  0  0  0  0  0
  189.9620  174.6090  144.2800 C   0  0  1  0  0  3  0  0  0  0  0  0
  188.2700  175.9270  145.6480 N   0  0  0  0  0  2  0  0  0  0  0  0
  193.7250  174.9860  144.3440 C   0  0  0  0  0  3  0  0  0  0  0  0
  192.2110  171.4770  141.0010 C   0  0  0  0  0  2  0  0  0  0  0  0
  191.9880  175.9070  145.7660 C   0  0  0  0  0  0  0  0  0  0  0  0
  192.9610  176.3110  146.6870 C   0  0  0  0  0  3  0  0  0  0  0  0
  188.8840  174.4800  143.2150 C   0  0  0  0  0  2  0  0  0  0  0  0
  190.4930  173.0370  141.9880 C   0  0  0  0  0  0  0  0  0  0  0  0
  190.7250  171.8090  141.1440 C   0  0  0  0  0  2  0  0  0  0  0  0
  185.0620  178.8420  145.0630 C   0  0  1  0  0  3  0  0  0  0  0  0
  185.5550  176.5720  145.7500 O   0  0  0  0  0  0  0  0  0  0  0  0
  186.6950  178.8390  148.4050 O   0  0  0  0  0  1  0  0  0  0  0  0
  185.1630  179.7900  143.8880 C   0  0  0  0  0  1  0  0  0  0  0  0
  185.6710  177.4940  144.6860 C   0  0  0  0  0  2  0  0  0  0  0  0
  185.8690  178.3900  147.3730 C   0  0  2  0  0  3  0  0  0  0  0  0
  186.3300  177.0150  146.8510 C   0  0  2  0  0  3  0  0  0  0  0  0
  185.8310  179.4150  146.2450 C   0  0  0  0  0  2  0  0  0  0  0  0
  1  8  1  0  0  0  0
  2 15  1  0  0  0  0
  2  7  1  1  0  0  0
  3  9  1  6  0  0  0
  3  2  1  0  0  0  0
  5  4  2  0  0  0  0
  6  9  1  0  0  0  0
  7 19  2  0  0  0  0
  8 20  2  0  0  0  0
 10 16  1  0  0  0  0
 10 14  2  0  0  0  0
 11  1  1  0  0  0  0
 12 21  1  0  0  0  0
 13  6  1  0  0  0  0
 13 18  1  0  0  0  0
 15 21  1  6  0  0  0
 15 10  1  0  0  0  0
 16  5  1  0  0  0  0
 17  7  1  0  0  0  0
 17  1  2  0  0  0  0
 18 23  1  0  0  0  0
 19 14  1  0  0  0  0
 19 20  1  0  0  0  0
 22 12  2  0  0  0  0
 22  3  1  0  0  0  0
 23 22  1  0  0  0  0
 24 27  1  6  0  0  0
 24 31  1  0  0  0  0
 25 30  1  0  0  0  0
 28 24  1  0  0  0  0
 28 25  1  0  0  0  0
 29 26  1  1  0  0  0
 30  5  1  6  0  0  0
 30 29  1  0  0  0  0
 31 29  1  0  0  0  0
M  END
>  <MODEL>
5

>  <REMARK>
 VINA RESULT:      -8.4      3.242      7.861
  Name = 
  1 active torsions:
  status: ('A' for Active; 'I' for Inactive)
    1  A    between atoms: C_9  and  C_22
                            x       y       z     vdW  Elec       q    Type
                         _______ _______ _______ _____ _____    ______ ____

>  <TORSDO>
F 1

$$$$
=
 OpenBabel11052417543D

 31 35  0  0  1  0  0  0  0  0999 V2000
  185.9740  178.7550  143.2200 C   0  0  0  0  0  0  0  0  0  0  0  0
  188.7060  176.0820  142.9910 C   0  0  2  0  0  3  0  0  0  0  0  0
  189.0100  175.9090  144.4970 C   0  0  2  0  0  3  0  0  0  0  0  0
  187.8150  175.0050  137.9080 O   0  0  0  0  0  0  0  0  0  0  0  0
  188.4310  174.0300  138.4190 C   0  0  0  0  0  0  0  0  0  0  0  0
  190.7180  176.9200  146.1790 C   0  0  0  0  0  2  0  0  0  0  0  0
  187.5080  176.9500  142.6850 C   0  0  0  0  0  0  0  0  0  0  0  0
  185.4180  178.6660  141.9410 C   0  0  0  0  0  3  0  0  0  0  0  0
  189.7800  177.1490  144.9910 C   0  0  0  0  0  2  0  0  0  0  0  0
  188.2550  174.9440  140.7960 C   0  0  0  0  0  0  0  0  0  0  0  0
  185.4830  179.7190  144.1430 N   0  0  0  0  0  1  0  0  0  0  0  0
  190.0760  173.7060  143.9190 C   0  0  0  0  0  3  0  0  0  0  0  0
  189.9990  176.4450  147.4440 C   0  0  0  0  0  2  0  0  0  0  0  0
  187.4420  175.9040  140.4550 N   0  0  0  0  0  0  0  0  0  0  0  0
  188.6000  174.7400  142.2530 C   0  0  1  0  0  3  0  0  0  0  0  0
  188.6890  173.9790  139.8260 N   0  0  0  0  0  2  0  0  0  0  0  0
  187.0250  177.9090  143.5860 C   0  0  0  0  0  3  0  0  0  0  0  0
  189.1900  175.1570  147.2630 C   0  0  0  0  0  2  0  0  0  0  0  0
  186.9470  176.8680  141.3960 C   0  0  0  0  0  0  0  0  0  0  0  0
  185.9050  177.7260  141.0280 C   0  0  0  0  0  3  0  0  0  0  0  0
  189.9050  173.9860  142.4560 C   0  0  0  0  0  2  0  0  0  0  0  0
  189.6910  174.5830  144.8590 C   0  0  0  0  0  0  0  0  0  0  0  0
  189.8450  174.1660  146.3000 C   0  0  0  0  0  2  0  0  0  0  0  0
  191.3430  171.7170  138.5160 C   0  0  1  0  0  3  0  0  0  0  0  0
  188.9410  171.6590  138.2050 O   0  0  0  0  0  0  0  0  0  0  0  0
  190.2760  174.4670  136.2510 O   0  0  0  0  0  1  0  0  0  0  0  0
  192.4200  171.6410  139.5780 C   0  0  0  0  0  1  0  0  0  0  0  0
  189.9690  171.6300  139.1750 C   0  0  0  0  0  2  0  0  0  0  0  0
  190.2730  173.1950  136.8250 C   0  0  2  0  0  3  0  0  0  0  0  0
  188.9410  172.9140  137.5470 C   0  0  2  0  0  3  0  0  0  0  0  0
  191.4520  173.0440  137.7790 C   0  0  0  0  0  2  0  0  0  0  0  0
  1 17  1  0  0  0  0
  1 11  1  0  0  0  0
  2  7  1  1  0  0  0
  2  3  1  0  0  0  0
  3 22  1  0  0  0  0
  3  9  1  6  0  0  0
  4  5  2  0  0  0  0
  5 16  1  0  0  0  0
  6 13  1  0  0  0  0
  7 17  2  0  0  0  0
  8  1  2  0  0  0  0
  9  6  1  0  0  0  0
 10 15  1  0  0  0  0
 12 22  2  0  0  0  0
 14 10  2  0  0  0  0
 14 19  1  0  0  0  0
 15 21  1  6  0  0  0
 15  2  1  0  0  0  0
 16 10  1  0  0  0  0
 18 13  1  0  0  0  0
 19  7  1  0  0  0  0
 20 19  2  0  0  0  0
 20  8  1  0  0  0  0
 21 12  1  0  0  0  0
 22 23  1  0  0  0  0
 23 18  1  0  0  0  0
 24 28  1  0  0  0  0
 24 27  1  1  0  0  0
 25 28  1  0  0  0  0
 29 26  1  1  0  0  0
 29 30  1  0  0  0  0
 29 31  1  0  0  0  0
 30 25  1  0  0  0  0
 30  5  1  1  0  0  0
 31 24  1  0  0  0  0
M  END
>  <MODEL>
6

>  <REMARK>
 VINA RESULT:      -8.3      2.570      4.567
  Name = 
  1 active torsions:
  status: ('A' for Active; 'I' for Inactive)
    1  A    between atoms: C_9  and  C_22
                            x       y       z     vdW  Elec       q    Type
                         _______ _______ _______ _____ _____    ______ ____

>  <TORSDO>
F 1

$$$$
=
 OpenBabel11052417543D

 31 35  0  0  1  0  0  0  0  0999 V2000
  192.0500  169.4300  142.2810 C   0  0  0  0  0  0  0  0  0  0  0  0
  193.1470  172.1300  144.7640 C   0  0  2  0  0  3  0  0  0  0  0  0
  194.6350  171.7380  144.9150 C   0  0  2  0  0  3  0  0  0  0  0  0
  188.7540  174.9960  144.2360 O   0  0  0  0  0  0  0  0  0  0  0  0
  189.6570  175.7370  144.7120 C   0  0  0  0  0  0  0  0  0  0  0  0
  196.0130  170.2580  146.5520 C   0  0  0  0  0  2  0  0  0  0  0  0
  192.4030  171.3810  143.6830 C   0  0  0  0  0  0  0  0  0  0  0  0
  190.8390  169.9670  141.8360 C   0  0  0  0  0  3  0  0  0  0  0  0
  194.7230  170.4450  145.7490 C   0  0  0  0  0  2  0  0  0  0  0  0
  191.4910  173.9870  144.4090 C   0  0  0  0  0  0  0  0  0  0  0  0
  192.4880  168.1660  141.7990 N   0  0  0  0  0  1  0  0  0  0  0  0
  195.0400  174.0490  145.8210 C   0  0  0  0  0  3  0  0  0  0  0  0
  197.2700  170.1830  145.6810 C   0  0  0  0  0  2  0  0  0  0  0  0
  190.7260  173.1860  143.7210 N   0  0  0  0  0  0  0  0  0  0  0  0
  192.9500  173.6440  144.6010 C   0  0  1  0  0  3  0  0  0  0  0  0
  191.0040  175.2670  144.8370 N   0  0  0  0  0  2  0  0  0  0  0  0
  192.8240  170.1290  143.2120 C   0  0  0  0  0  3  0  0  0  0  0  0
  197.4830  171.4000  144.7770 C   0  0  0  0  0  2  0  0  0  0  0  0
  191.1790  171.9130  143.2350 C   0  0  0  0  0  0  0  0  0  0  0  0
  190.4020  171.2050  142.3140 C   0  0  0  0  0  3  0  0  0  0  0  0
  193.5680  174.3330  145.8080 C   0  0  0  0  0  2  0  0  0  0  0  0
  195.5380  172.8630  145.4370 C   0  0  0  0  0  0  0  0  0  0  0  0
  197.0390  172.7140  145.4210 C   0  0  0  0  0  2  0  0  0  0  0  0
  186.6320  177.4060  146.0890 C   0  0  1  0  0  3  0  0  0  0  0  0
  188.9930  177.1640  146.5710 O   0  0  0  0  0  0  0  0  0  0  0  0
  188.6220  177.7830  142.9700 O   0  0  0  0  0  1  0  0  0  0  0  0
  185.2800  176.7800  146.3580 C   0  0  0  0  0  1  0  0  0  0  0  0
  187.7210  176.5820  146.7690 C   0  0  0  0  0  2  0  0  0  0  0  0
  188.3160  177.9010  144.3260 C   0  0  2  0  0  3  0  0  0  0  0  0
  189.3260  177.1240  145.1930 C   0  0  2  0  0  3  0  0  0  0  0  0
  186.8920  177.4250  144.5900 C   0  0  0  0  0  2  0  0  0  0  0  0
  1 17  1  0  0  0  0
  2  7  1  6  0  0  0
  2  3  1  0  0  0  0
  3 22  1  0  0  0  0
  3  9  1  1  0  0  0
  4  5  2  0  0  0  0
  5 16  1  0  0  0  0
  8  1  2  0  0  0  0
  8 20  1  0  0  0  0
  9  6  1  0  0  0  0
 10 15  1  0  0  0  0
 10 16  1  0  0  0  0
 11  1  1  0  0  0  0
 13  6  1  0  0  0  0
 14 10  2  0  0  0  0
 15  2  1  0  0  0  0
 15 21  1  1  0  0  0
 17  7  2  0  0  0  0
 18 23  1  0  0  0  0
 18 13  1  0  0  0  0
 19  7  1  0  0  0  0
 19 14  1  0  0  0  0
 20 19  2  0  0  0  0
 21 12  1  0  0  0  0
 22 12  2  0  0  0  0
 23 22  1  0  0  0  0
 24 27  1  6  0  0  0
 24 28  1  0  0  0  0
 25 28  1  0  0  0  0
 29 26  1  6  0  0  0
 29 31  1  0  0  0  0
 29 30  1  0  0  0  0
 30  5  1  6  0  0  0
 30 25  1  0  0  0  0
 31 24  1  0  0  0  0
M  END
>  <MODEL>
7

>  <REMARK>
 VINA RESULT:      -8.1      3.976      8.855
  Name = 
  1 active torsions:
  status: ('A' for Active; 'I' for Inactive)
    1  A    between atoms: C_9  and  C_22
                            x       y       z     vdW  Elec       q    Type
                         _______ _______ _______ _____ _____    ______ ____

>  <TORSDO>
F 1

$$$$
=
 OpenBabel11052417543D

 31 35  0  0  1  0  0  0  0  0999 V2000
  186.1610  178.5960  147.1270 C   0  0  0  0  0  0  0  0  0  0  0  0
  186.1390  178.1870  143.3200 C   0  0  2  0  0  3  0  0  0  0  0  0
  187.5020  177.4800  143.1390 C   0  0  2  0  0  3  0  0  0  0  0  0
  181.0510  179.4600  142.7890 O   0  0  0  0  0  0  0  0  0  0  0  0
  181.4120  178.8280  141.7590 C   0  0  0  0  0  0  0  0  0  0  0  0
  189.9380  178.2370  142.6290 C   0  0  0  0  0  2  0  0  0  0  0  0
  185.6980  178.3490  144.7560 C   0  0  0  0  0  0  0  0  0  0  0  0
  184.8120  178.8780  147.3630 C   0  0  0  0  0  3  0  0  0  0  0  0
  188.6270  178.5080  143.3700 C   0  0  0  0  0  2  0  0  0  0  0  0
  183.6990  178.2250  142.7220 C   0  0  0  0  0  0  0  0  0  0  0  0
  187.0840  178.5810  148.2080 N   0  0  0  0  0  1  0  0  0  0  0  0
  186.6940  176.7350  140.8770 C   0  0  0  0  0  3  0  0  0  0  0  0
  190.6040  176.9170  143.0270 C   0  0  0  0  0  2  0  0  0  0  0  0
  183.4040  178.6640  143.9130 N   0  0  0  0  0  0  0  0  0  0  0  0
  185.0250  177.5400  142.4850 C   0  0  1  0  0  3  0  0  0  0  0  0
  182.7120  178.2330  141.6800 N   0  0  0  0  0  2  0  0  0  0  0  0
  186.6040  178.3460  145.8250 C   0  0  0  0  0  3  0  0  0  0  0  0
  189.7200  175.6820  142.8290 C   0  0  0  0  0  2  0  0  0  0  0  0
  184.3410  178.6390  145.0000 C   0  0  0  0  0  0  0  0  0  0  0  0
  183.9040  178.9030  146.3020 C   0  0  0  0  0  3  0  0  0  0  0  0
  185.4540  177.5640  141.0260 C   0  0  0  0  0  2  0  0  0  0  0  0
  187.6460  176.7040  141.8240 C   0  0  0  0  0  0  0  0  0  0  0  0
  188.8160  175.7790  141.6000 C   0  0  0  0  0  2  0  0  0  0  0  0
  178.3730  180.6310  140.5970 C   0  0  1  0  0  3  0  0  0  0  0  0
  180.5130  179.8740  139.7510 O   0  0  0  0  0  0  0  0  0  0  0  0
  179.0600  177.1670  141.7630 O   0  0  0  0  0  1  0  0  0  0  0  0
  177.6920  181.8070  141.2630 C   0  0  0  0  0  1  0  0  0  0  0  0
  179.8560  180.9380  140.4090 C   0  0  0  0  0  2  0  0  0  0  0  0
  179.0560  178.2570  140.8920 C   0  0  2  0  0  3  0  0  0  0  0  0
  180.4910  178.7190  140.5730 C   0  0  2  0  0  3  0  0  0  0  0  0
  178.2340  179.3980  141.4780 C   0  0  0  0  0  2  0  0  0  0  0  0
  1  8  1  0  0  0  0
  1 11  1  0  0  0  0
  2  7  1  1  0  0  0
  3  2  1  0  0  0  0
  3  9  1  6  0  0  0
  5  4  2  0  0  0  0
  6 13  1  0  0  0  0
  6  9  1  0  0  0  0
  7 19  2  0  0  0  0
  7 17  1  0  0  0  0
 10 14  2  0  0  0  0
 12 21  1  0  0  0  0
 12 22  2  0  0  0  0
 14 19  1  0  0  0  0
 15 21  1  6  0  0  0
 15 10  1  0  0  0  0
 15  2  1  0  0  0  0
 16  5  1  0  0  0  0
 16 10  1  0  0  0  0
 17  1  2  0  0  0  0
 18 13  1  0  0  0  0
 19 20  1  0  0  0  0
 20  8  2  0  0  0  0
 22  3  1  0  0  0  0
 23 22  1  0  0  0  0
 23 18  1  0  0  0  0
 24 27  1  1  0  0  0
 24 31  1  0  0  0  0
 25 28  1  0  0  0  0
 25 30  1  0  0  0  0
 28 24  1  0  0  0  0
 29 31  1  0  0  0  0
 29 26  1  1  0  0  0
 30 29  1  0  0  0  0
 30  5  1  1  0  0  0
M  END
>  <MODEL>
8

>  <REMARK>
 VINA RESULT:      -7.8      5.730      9.496
  Name = 
  1 active torsions:
  status: ('A' for Active; 'I' for Inactive)
    1  A    between atoms: C_9  and  C_22
                            x       y       z     vdW  Elec       q    Type
                         _______ _______ _______ _____ _____    ______ ____

>  <TORSDO>
F 1

$$$$
=
 OpenBabel11052417543D

 31 35  0  0  1  0  0  0  0  0999 V2000
  190.6810  172.1040  140.9850 C   0  0  0  0  0  0  0  0  0  0  0  0
  190.6570  175.0750  143.4000 C   0  0  2  0  0  3  0  0  0  0  0  0
  192.1380  175.0500  143.8380 C   0  0  2  0  0  3  0  0  0  0  0  0
  185.9110  176.8040  141.8910 O   0  0  0  0  0  0  0  0  0  0  0  0
  186.5190  177.7540  142.4570 C   0  0  0  0  0  0  0  0  0  0  0  0
  193.4820  173.9960  145.8010 C   0  0  0  0  0  2  0  0  0  0  0  0
  190.3170  174.1330  142.2690 C   0  0  0  0  0  0  0  0  0  0  0  0
  189.4860  172.3230  140.2940 C   0  0  0  0  0  3  0  0  0  0  0  0
  192.3580  173.8450  144.7740 C   0  0  0  0  0  2  0  0  0  0  0  0
  188.7230  176.4750  142.6160 C   0  0  0  0  0  0  0  0  0  0  0  0
  191.4740  170.9620  140.6880 N   0  0  0  0  0  1  0  0  0  0  0  0
  191.8370  177.4220  144.6160 C   0  0  0  0  0  3  0  0  0  0  0  0
  194.8640  174.1880  145.1720 C   0  0  0  0  0  2  0  0  0  0  0  0
  188.3000  175.4920  141.8710 N   0  0  0  0  0  0  0  0  0  0  0  0
  190.1580  176.4930  143.0870 C   0  0  1  0  0  3  0  0  0  0  0  0
  187.8880  177.6190  142.8510 N   0  0  0  0  0  2  0  0  0  0  0  0
  191.0890  172.9990  141.9780 C   0  0  0  0  0  3  0  0  0  0  0  0
  194.9640  175.3880  144.2250 C   0  0  0  0  0  2  0  0  0  0  0  0
  189.1110  174.3450  141.5730 C   0  0  0  0  0  0  0  0  0  0  0  0
  188.7000  173.4400  140.5890 C   0  0  0  0  0  3  0  0  0  0  0  0
  190.3680  177.3510  144.3240 C   0  0  0  0  0  2  0  0  0  0  0  0
  192.6520  176.3740  144.4190 C   0  0  0  0  0  0  0  0  0  0  0  0
  194.1230  176.5820  144.6770 C   0  0  0  0  0  2  0  0  0  0  0  0
  184.4380  179.0180  145.2690 C   0  0  1  0  0  3  0  0  0  0  0  0
  186.3170  179.7030  143.9020 O   0  0  0  0  0  0  0  0  0  0  0  0
  183.7820  178.2250  141.6950 O   0  0  0  0  0  1  0  0  0  0  0  0
  184.0830  178.2910  146.5480 C   0  0  0  0  0  1  0  0  0  0  0  0
  185.9510  178.9960  145.0700 C   0  0  0  0  0  2  0  0  0  0  0  0
  184.2610  178.9480  142.7880 C   0  0  2  0  0  3  0  0  0  0  0  0
  185.7990  179.0410  142.7620 C   0  0  2  0  0  3  0  0  0  0  0  0
  183.7760  178.3200  144.0890 C   0  0  0  0  0  2  0  0  0  0  0  0
  1 17  1  0  0  0  0
  2  7  1  6  0  0  0
  2  3  1  0  0  0  0
  3 22  1  0  0  0  0
  3  9  1  1  0  0  0
  4  5  2  0  0  0  0
  5 16  1  0  0  0  0
  8 20  1  0  0  0  0
  8  1  2  0  0  0  0
  9  6  1  0  0  0  0
 10 16  1  0  0  0  0
 10 15  1  0  0  0  0
 11  1  1  0  0  0  0
 13  6  1  0  0  0  0
 14 10  2  0  0  0  0
 15  2  1  0  0  0  0
 15 21  1  1  0  0  0
 17  7  2  0  0  0  0
 18 23  1  0  0  0  0
 18 13  1  0  0  0  0
 19 14  1  0  0  0  0
 19  7  1  0  0  0  0
 20 19  2  0  0  0  0
 21 12  1  0  0  0  0
 22 12  2  0  0  0  0
 22 23  1  0  0  0  0
 24 27  1  1  0  0  0
 25 28  1  0  0  0  0
 28 24  1  0  0  0  0
 29 26  1  6  0  0  0
 29 31  1  0  0  0  0
 30  5  1  1  0  0  0
 30 29  1  0  0  0  0
 30 25  1  0  0  0  0
 31 24  1  0  0  0  0
M  END
>  <MODEL>
9

>  <REMARK>
 VINA RESULT:      -7.7      3.198      8.039
  Name = 
  1 active torsions:
  status: ('A' for Active; 'I' for Inactive)
    1  A    between atoms: C_9  and  C_22
                            x       y       z     vdW  Elec       q    Type
                         _______ _______ _______ _____ _____    ______ ____

>  <TORSDO>
F 1

$$$$
