=
 OpenBabel11052417213D

 30 36  0  0  1  0  0  0  0  0999 V2000
  189.9200  176.1260  144.1690 C   0  0  0  0  0  0  0  0  0  0  0  0
  190.7950  176.9830  147.6810 C   0  0  0  0  0  3  0  0  0  0  0  0
  194.4640  173.9260  144.7260 C   0  0  0  0  0  2  0  0  0  0  0  0
  190.6930  175.9900  142.8900 C   0  0  0  0  0  2  0  0  0  0  0  0
  188.5080  176.2500  144.1920 C   0  0  0  0  0  0  0  0  0  0  0  0
  186.3000  176.1740  143.1630 C   0  0  0  0  0  3  0  0  0  0  0  0
  190.2360  174.1630  141.1830 C   0  0  1  0  0  3  0  0  0  0  0  0
  187.6540  175.8220  143.1320 C   0  0  0  0  0  0  0  0  0  0  0  0
  187.9130  176.8520  145.3400 C   0  0  0  0  0  0  0  0  0  0  0  0
  192.3570  173.2970  143.3590 C   0  0  1  0  0  3  0  0  0  0  0  0
  192.9790  173.5750  144.7340 C   0  0  0  0  0  2  0  0  0  0  0  0
  188.6690  177.1020  146.4930 C   0  0  0  0  0  3  0  0  0  0  0  0
  187.9740  174.6640  142.2260 C   0  0  0  0  0  2  0  0  0  0  0  0
  192.1720  176.6900  147.6730 C   0  0  0  0  0  3  0  0  0  0  0  0
  190.9090  173.5040  143.4420 N   0  0  1  0  0  0  0  0  0  0  0  0
  189.0480  171.9260  143.5340 C   0  0  0  0  0  1  0  0  0  0  0  0
  186.5600  177.1900  145.3360 C   0  0  0  0  0  3  0  0  0  0  0  0
  190.0330  176.8200  146.5120 C   0  0  0  0  0  0  0  0  0  0  0  0
  194.7290  175.4010  145.0670 C   0  0  0  0  0  2  0  0  0  0  0  0
  194.2360  175.8300  146.4670 C   0  0  0  0  0  2  0  0  0  0  0  0
  185.7630  176.8830  144.2370 C   0  0  0  0  0  3  0  0  0  0  0  0
  190.6600  176.3890  145.3310 C   0  0  0  0  0  0  0  0  0  0  0  0
  188.9070  174.9430  141.0500 C   0  0  0  0  0  2  0  0  0  0  0  0
  192.5320  174.4030  142.3230 C   0  0  0  0  0  2  0  0  0  0  0  0
  191.0240  174.5630  142.4310 C   0  0  2  0  0  0  0  0  0  0  0  0
  190.3000  172.3410  142.7880 C   0  0  1  0  0  3  0  0  0  0  0  0
  190.8800  171.8980  140.4130 C   0  0  0  0  0  1  0  0  0  0  0  0
  192.7960  176.2800  146.4860 C   0  0  0  0  0  0  0  0  0  0  0  0
  192.0320  176.1840  145.3320 C   0  0  0  0  0  3  0  0  0  0  0  0
  189.9700  172.6800  141.3390 C   0  0  2  0  0  3  0  0  0  0  0  0
  1  5  2  0  0  0  0
  1 22  1  0  0  0  0
  3 11  1  0  0  0  0
  3 19  1  0  0  0  0
  4  1  1  0  0  0  0
  5  9  1  0  0  0  0
  6 21  1  0  0  0  0
  7 23  1  1  0  0  0
  7 30  1  0  0  0  0
  7 25  1  0  0  0  0
  8  6  2  0  0  0  0
  8  5  1  0  0  0  0
  9 12  2  0  0  0  0
 10 24  1  6  0  0  0
 10 15  1  0  0  0  0
 10 11  1  0  0  0  0
 12 18  1  0  0  0  0
 13  8  1  0  0  0  0
 14  2  1  0  0  0  0
 17  9  1  0  0  0  0
 18  2  2  0  0  0  0
 19 20  1  0  0  0  0
 20 28  1  0  0  0  0
 21 17  2  0  0  0  0
 22 29  2  0  0  0  0
 22 18  1  0  0  0  0
 23 13  1  0  0  0  0
 24 25  1  0  0  0  0
 25  4  1  0  0  0  0
 25 15  1  0  0  0  0
 26 15  1  0  0  0  0
 26 16  1  0  0  0  0
 27 30  1  0  0  0  0
 28 14  2  0  0  0  0
 29 28  1  0  0  0  0
 30 26  1  0  0  0  0
M  END
>  <MODEL>
1

>  <REMARK>
 VINA RESULT:      -9.0      0.000      0.000
  Name = 
  0 active torsions:
  status: ('A' for Active; 'I' for Inactive)
                            x       y       z     vdW  Elec       q    Type
                         _______ _______ _______ _____ _____    ______ ____

>  <TORSDO>
F 0

$$$$
=
 OpenBabel11052417213D

 30 36  0  0  1  0  0  0  0  0999 V2000
  188.6070  176.4670  145.3310 C   0  0  0  0  0  0  0  0  0  0  0  0
  188.6550  178.5480  148.4140 C   0  0  0  0  0  3  0  0  0  0  0  0
  184.3130  179.1440  144.9030 C   0  0  0  0  0  2  0  0  0  0  0  0
  187.5360  175.7790  144.5360 C   0  0  0  0  0  2  0  0  0  0  0  0
  189.9820  176.1540  145.1820 C   0  0  0  0  0  0  0  0  0  0  0  0
  191.8600  175.0870  144.0520 C   0  0  0  0  0  3  0  0  0  0  0  0
  187.5210  175.7180  141.9950 C   0  0  1  0  0  3  0  0  0  0  0  0
  190.5360  175.5380  144.0190 C   0  0  0  0  0  0  0  0  0  0  0  0
  190.8550  176.4630  146.2660 C   0  0  0  0  0  0  0  0  0  0  0  0
  185.9990  178.2270  143.1650 C   0  0  1  0  0  3  0  0  0  0  0  0
  185.7470  179.1300  144.3800 C   0  0  0  0  0  2  0  0  0  0  0  0
  190.4170  177.2490  147.3400 C   0  0  0  0  0  3  0  0  0  0  0  0
  189.9800  175.7310  142.6340 C   0  0  0  0  0  2  0  0  0  0  0  0
  187.3150  178.9790  148.4430 C   0  0  0  0  0  3  0  0  0  0  0  0
  187.4250  177.8950  143.1080 N   0  0  1  0  0  0  0  0  0  0  0  0
  189.2230  178.7070  141.6710 C   0  0  0  0  0  1  0  0  0  0  0  0
  192.1700  175.9960  146.2660 C   0  0  0  0  0  3  0  0  0  0  0  0
  189.0970  177.6900  147.3930 C   0  0  0  0  0  0  0  0  0  0  0  0
  184.1650  178.4350  146.2580 C   0  0  0  0  0  2  0  0  0  0  0  0
  185.0010  179.0580  147.3980 C   0  0  0  0  0  2  0  0  0  0  0  0
  192.6600  175.2810  145.1770 C   0  0  0  0  0  3  0  0  0  0  0  0
  188.1870  177.2470  146.4180 C   0  0  0  0  0  0  0  0  0  0  0  0
  188.7870  174.8630  142.2410 C   0  0  0  0  0  2  0  0  0  0  0  0
  185.5880  176.7680  143.3330 C   0  0  0  0  0  2  0  0  0  0  0  0
  187.0780  176.4750  143.2480 C   0  0  2  0  0  0  0  0  0  0  0  0
  187.8310  178.1100  141.7160 C   0  0  1  0  0  3  0  0  0  0  0  0
  186.6670  176.8150  139.9440 C   0  0  0  0  0  1  0  0  0  0  0  0
  186.4070  178.5170  147.4800 C   0  0  0  0  0  0  0  0  0  0  0  0
  186.8560  177.6250  146.5170 C   0  0  0  0  0  3  0  0  0  0  0  0
  187.7930  176.7870  140.9590 C   0  0  2  0  0  3  0  0  0  0  0  0
  1 22  1  0  0  0  0
  2 14  1  0  0  0  0
  3 19  1  0  0  0  0
  4  1  1  0  0  0  0
  5  1  2  0  0  0  0
  5  9  1  0  0  0  0
  6 21  1  0  0  0  0
  7 23  1  1  0  0  0
  7 25  1  0  0  0  0
  8  6  2  0  0  0  0
  8  5  1  0  0  0  0
  9 12  2  0  0  0  0
 10 24  1  1  0  0  0
 10 11  1  0  0  0  0
 11  3  1  0  0  0  0
 12 18  1  0  0  0  0
 13  8  1  0  0  0  0
 15 10  1  0  0  0  0
 15 25  1  0  0  0  0
 16 26  1  0  0  0  0
 17  9  1  0  0  0  0
 18  2  2  0  0  0  0
 19 20  1  0  0  0  0
 20 28  1  0  0  0  0
 21 17  2  0  0  0  0
 22 29  2  0  0  0  0
 22 18  1  0  0  0  0
 23 13  1  0  0  0  0
 25 24  1  0  0  0  0
 25  4  1  0  0  0  0
 26 15  1  0  0  0  0
 27 30  1  0  0  0  0
 28 14  2  0  0  0  0
 29 28  1  0  0  0  0
 30 26  1  0  0  0  0
 30  7  1  0  0  0  0
M  END
>  <MODEL>
2

>  <REMARK>
 VINA RESULT:      -8.8      2.130      5.940
  Name = 
  0 active torsions:
  status: ('A' for Active; 'I' for Inactive)
                            x       y       z     vdW  Elec       q    Type
                         _______ _______ _______ _____ _____    ______ ____

>  <TORSDO>
F 0

$$$$
=
 OpenBabel11052417213D

 30 36  0  0  1  0  0  0  0  0999 V2000
  189.4510  175.9720  144.2540 C   0  0  0  0  0  0  0  0  0  0  0  0
  190.8110  175.6840  147.7030 C   0  0  0  0  0  3  0  0  0  0  0  0
  193.5800  173.0980  143.5580 C   0  0  0  0  0  2  0  0  0  0  0  0
  190.0550  176.0930  142.8860 C   0  0  0  0  0  2  0  0  0  0  0  0
  188.0910  176.2790  144.5120 C   0  0  0  0  0  0  0  0  0  0  0  0
  185.8100  176.7990  143.8280 C   0  0  0  0  0  3  0  0  0  0  0  0
  189.1200  174.8970  140.8470 C   0  0  1  0  0  3  0  0  0  0  0  0
  187.0730  176.2860  143.5110 C   0  0  0  0  0  0  0  0  0  0  0  0
  187.7280  176.6130  145.8500 C   0  0  0  0  0  0  0  0  0  0  0  0
  191.2690  173.1730  142.3940 C   0  0  1  0  0  3  0  0  0  0  0  0
  192.0650  172.9670  143.6890 C   0  0  0  0  0  2  0  0  0  0  0  0
  188.6280  176.4230  146.9070 C   0  0  0  0  0  3  0  0  0  0  0  0
  187.0950  175.3940  142.3000 C   0  0  0  0  0  2  0  0  0  0  0  0
  192.1090  175.2170  147.4210 C   0  0  0  0  0  3  0  0  0  0  0  0
  189.8940  173.5470  142.7360 N   0  0  1  0  0  0  0  0  0  0  0  0
  187.8080  172.2800  142.6830 C   0  0  0  0  0  1  0  0  0  0  0  0
  186.4600  177.1220  146.1290 C   0  0  0  0  0  3  0  0  0  0  0  0
  189.9180  175.9620  146.6550 C   0  0  0  0  0  0  0  0  0  0  0  0
  194.1290  174.3670  144.2290 C   0  0  0  0  0  2  0  0  0  0  0  0
  193.8610  174.4520  145.7480 C   0  0  0  0  0  2  0  0  0  0  0  0
  185.5150  177.2470  145.1150 C   0  0  0  0  0  3  0  0  0  0  0  0
  190.3380  175.7950  145.3250 C   0  0  0  0  0  0  0  0  0  0  0  0
  187.9380  175.8600  141.1140 C   0  0  0  0  0  2  0  0  0  0  0  0
  191.5260  174.4890  141.6660 C   0  0  0  0  0  2  0  0  0  0  0  0
  190.0870  174.8200  142.0290 C   0  0  2  0  0  0  0  0  0  0  0  0
  189.0310  172.7090  141.8970 C   0  0  1  0  0  3  0  0  0  0  0  0
  189.2830  172.8700  139.4310 C   0  0  0  0  0  1  0  0  0  0  0  0
  192.5300  175.0740  146.0910 C   0  0  0  0  0  0  0  0  0  0  0  0
  191.6470  175.4100  145.0750 C   0  0  0  0  0  3  0  0  0  0  0  0
  188.6190  173.4820  140.6490 C   0  0  2  0  0  3  0  0  0  0  0  0
  1  5  2  0  0  0  0
  1 22  1  0  0  0  0
  3 11  1  0  0  0  0
  3 19  1  0  0  0  0
  4  1  1  0  0  0  0
  5  9  1  0  0  0  0
  6 21  1  0  0  0  0
  7 23  1  1  0  0  0
  7 25  1  0  0  0  0
  8  6  2  0  0  0  0
  8  5  1  0  0  0  0
  9 17  1  0  0  0  0
  9 12  2  0  0  0  0
 10 24  1  6  0  0  0
 10 15  1  0  0  0  0
 10 11  1  0  0  0  0
 13  8  1  0  0  0  0
 14  2  1  0  0  0  0
 18 12  1  0  0  0  0
 18  2  2  0  0  0  0
 19 20  1  0  0  0  0
 20 28  1  0  0  0  0
 21 17  2  0  0  0  0
 22 18  1  0  0  0  0
 23 13  1  0  0  0  0
 24 25  1  0  0  0  0
 25 15  1  0  0  0  0
 25  4  1  0  0  0  0
 26 16  1  0  0  0  0
 26 15  1  0  0  0  0
 27 30  1  0  0  0  0
 28 14  2  0  0  0  0
 29 22  2  0  0  0  0
 29 28  1  0  0  0  0
 30  7  1  0  0  0  0
 30 26  1  0  0  0  0
M  END
>  <MODEL>
3

>  <REMARK>
 VINA RESULT:      -8.6      1.089      1.242
  Name = 
  0 active torsions:
  status: ('A' for Active; 'I' for Inactive)
                            x       y       z     vdW  Elec       q    Type
                         _______ _______ _______ _____ _____    ______ ____

>  <TORSDO>
F 0

$$$$
=
 OpenBabel11052417213D

 30 36  0  0  1  0  0  0  0  0999 V2000
  188.7140  176.7750  143.5540 C   0  0  0  0  0  0  0  0  0  0  0  0
  185.1920  177.1640  142.4230 C   0  0  0  0  0  3  0  0  0  0  0  0
  186.4170  178.5250  147.7320 C   0  0  0  0  0  2  0  0  0  0  0  0
  189.6200  177.5410  144.4730 C   0  0  0  0  0  2  0  0  0  0  0  0
  189.2050  175.8240  142.6230 C   0  0  0  0  0  0  0  0  0  0  0  0
  190.9460  174.4060  141.6770 C   0  0  0  0  0  3  0  0  0  0  0  0
  191.2420  176.4160  146.0730 C   0  0  1  0  0  3  0  0  0  0  0  0
  190.4670  175.1690  142.7480 C   0  0  0  0  0  0  0  0  0  0  0  0
  188.3920  175.5200  141.4930 C   0  0  0  0  0  0  0  0  0  0  0  0
  188.3960  176.8990  147.3590 C   0  0  1  0  0  3  0  0  0  0  0  0
  186.9140  177.2160  147.1240 C   0  0  0  0  0  2  0  0  0  0  0  0
  187.0660  175.9670  141.4200 C   0  0  0  0  0  3  0  0  0  0  0  0
  191.1130  174.8580  144.0710 C   0  0  0  0  0  2  0  0  0  0  0  0
  184.6870  177.9760  143.4550 C   0  0  0  0  0  3  0  0  0  0  0  0
  188.8510  175.9610  146.3280 N   0  0  1  0  0  0  0  0  0  0  0  0
  189.3160  173.5670  146.4060 C   0  0  0  0  0  1  0  0  0  0  0  0
  188.9020  174.7560  140.4430 C   0  0  0  0  0  3  0  0  0  0  0  0
  186.5410  176.7720  142.4290 C   0  0  0  0  0  0  0  0  0  0  0  0
  186.1090  179.5950  146.6720 C   0  0  0  0  0  2  0  0  0  0  0  0
  185.0120  179.1950  145.6600 C   0  0  0  0  0  2  0  0  0  0  0  0
  190.1880  174.2300  140.5200 C   0  0  0  0  0  3  0  0  0  0  0  0
  187.3860  177.2180  143.4590 C   0  0  0  0  0  0  0  0  0  0  0  0
  191.8960  175.9860  144.7390 C   0  0  0  0  0  2  0  0  0  0  0  0
  189.3780  177.9790  146.9160 C   0  0  0  0  0  2  0  0  0  0  0  0
  189.8270  176.9620  145.8790 C   0  0  2  0  0  0  0  0  0  0  0  0
  189.5940  174.9160  147.0380 C   0  0  1  0  0  3  0  0  0  0  0  0
  191.5660  175.5920  148.3880 C   0  0  0  0  0  1  0  0  0  0  0  0
  185.5410  178.4360  144.4680 C   0  0  0  0  0  0  0  0  0  0  0  0
  186.8810  178.0820  144.4200 C   0  0  0  0  0  3  0  0  0  0  0  0
  191.0860  175.2260  146.9970 C   0  0  2  0  0  3  0  0  0  0  0  0
  1  4  1  0  0  0  0
  2 18  2  0  0  0  0
  2 14  1  0  0  0  0
  4 25  1  0  0  0  0
  5  8  1  0  0  0  0
  5  1  2  0  0  0  0
  6  8  2  0  0  0  0
  7 23  1  6  0  0  0
  7 30  1  0  0  0  0
  8 13  1  0  0  0  0
  9  5  1  0  0  0  0
 10 24  1  6  0  0  0
 11 10  1  0  0  0  0
 11  3  1  0  0  0  0
 12  9  2  0  0  0  0
 12 18  1  0  0  0  0
 13 23  1  0  0  0  0
 14 28  2  0  0  0  0
 15 26  1  0  0  0  0
 15 10  1  0  0  0  0
 16 26  1  0  0  0  0
 17 21  2  0  0  0  0
 17  9  1  0  0  0  0
 18 22  1  0  0  0  0
 19  3  1  0  0  0  0
 20 19  1  0  0  0  0
 21  6  1  0  0  0  0
 22  1  1  0  0  0  0
 22 29  2  0  0  0  0
 25  7  1  0  0  0  0
 25 15  1  0  0  0  0
 25 24  1  0  0  0  0
 28 20  1  0  0  0  0
 29 28  1  0  0  0  0
 30 26  1  0  0  0  0
 30 27  1  0  0  0  0
M  END
>  <MODEL>
4

>  <REMARK>
 VINA RESULT:      -8.5      1.941      6.134
  Name = 
  0 active torsions:
  status: ('A' for Active; 'I' for Inactive)
                            x       y       z     vdW  Elec       q    Type
                         _______ _______ _______ _____ _____    ______ ____

>  <TORSDO>
F 0

$$$$
=
 OpenBabel11052417213D

 30 36  0  0  1  0  0  0  0  0999 V2000
  189.3160  174.6810  144.1130 C   0  0  0  0  0  0  0  0  0  0  0  0
  188.0080  173.6470  140.7880 C   0  0  0  0  0  3  0  0  0  0  0  0
  193.2520  172.1540  142.1330 C   0  0  0  0  0  2  0  0  0  0  0  0
  190.2160  174.0530  145.1370 C   0  0  0  0  0  2  0  0  0  0  0  0
  188.4800  175.7870  144.4130 C   0  0  0  0  0  0  0  0  0  0  0  0
  187.7170  177.6140  145.8340 C   0  0  0  0  0  3  0  0  0  0  0  0
  191.9640  175.3650  146.4360 C   0  0  1  0  0  3  0  0  0  0  0  0
  188.7070  176.6830  145.5010 C   0  0  0  0  0  0  0  0  0  0  0  0
  187.3400  176.0020  143.5840 C   0  0  0  0  0  0  0  0  0  0  0  0
  193.0850  174.1870  143.7260 C   0  0  1  0  0  3  0  0  0  0  0  0
  192.7630  173.5830  142.3540 C   0  0  0  0  0  2  0  0  0  0  0  0
  187.1780  175.2910  142.3880 C   0  0  0  0  0  3  0  0  0  0  0  0
  190.0760  177.0160  146.0290 C   0  0  0  0  0  2  0  0  0  0  0  0
  188.9550  172.6660  140.4420 C   0  0  0  0  0  3  0  0  0  0  0  0
  192.1460  175.2800  143.9970 N   0  0  1  0  0  0  0  0  0  0  0  0
  192.4190  177.7040  143.9340 C   0  0  0  0  0  1  0  0  0  0  0  0
  186.3730  176.9380  143.9470 C   0  0  0  0  0  3  0  0  0  0  0  0
  188.1020  174.3140  142.0210 C   0  0  0  0  0  0  0  0  0  0  0  0
  192.1050  171.1310  142.0910 C   0  0  0  0  0  2  0  0  0  0  0  0
  191.0780  171.3700  140.9620 C   0  0  0  0  0  2  0  0  0  0  0  0
  186.5440  177.7170  145.0870 C   0  0  0  0  0  3  0  0  0  0  0  0
  189.1320  173.9760  142.9140 C   0  0  0  0  0  0  0  0  0  0  0  0
  190.6940  176.0300  147.0180 C   0  0  0  0  0  2  0  0  0  0  0  0
  192.6080  173.3790  144.9290 C   0  0  0  0  0  2  0  0  0  0  0  0
  191.6680  174.5480  145.1770 C   0  0  2  0  0  0  0  0  0  0  0  0
  192.9620  176.3980  144.4780 C   0  0  1  0  0  3  0  0  0  0  0  0
  194.3440  176.0490  146.5130 C   0  0  0  0  0  1  0  0  0  0  0  0
  189.9680  172.3170  141.3470 C   0  0  0  0  0  0  0  0  0  0  0  0
  190.0040  172.9510  142.5810 C   0  0  0  0  0  3  0  0  0  0  0  0
  192.9640  176.4160  146.0020 C   0  0  2  0  0  3  0  0  0  0  0  0
  1  5  1  0  0  0  0
  1  4  1  0  0  0  0
  2 18  1  0  0  0  0
  3 11  1  0  0  0  0
  4 25  1  0  0  0  0
  5  8  1  0  0  0  0
  7 23  1  6  0  0  0
  8  6  2  0  0  0  0
  8 13  1  0  0  0  0
  9 17  1  0  0  0  0
  9  5  2  0  0  0  0
 10 11  1  6  0  0  0
 10 15  1  0  0  0  0
 10 24  1  0  0  0  0
 12  9  1  0  0  0  0
 13 23  1  0  0  0  0
 14  2  2  0  0  0  0
 14 28  1  0  0  0  0
 15 26  1  0  0  0  0
 15 25  1  0  0  0  0
 16 26  1  0  0  0  0
 17 21  2  0  0  0  0
 18 12  2  0  0  0  0
 18 22  1  0  0  0  0
 19  3  1  0  0  0  0
 20 28  1  0  0  0  0
 20 19  1  0  0  0  0
 21  6  1  0  0  0  0
 22  1  2  0  0  0  0
 24 25  1  0  0  0  0
 25  7  1  0  0  0  0
 26 30  1  0  0  0  0
 28 29  2  0  0  0  0
 29 22  1  0  0  0  0
 30  7  1  0  0  0  0
 30 27  1  0  0  0  0
M  END
>  <MODEL>
5

>  <REMARK>
 VINA RESULT:      -8.3      1.266      4.949
  Name = 
  0 active torsions:
  status: ('A' for Active; 'I' for Inactive)
                            x       y       z     vdW  Elec       q    Type
                         _______ _______ _______ _____ _____    ______ ____

>  <TORSDO>
F 0

$$$$
=
 OpenBabel11052417213D

 30 36  0  0  1  0  0  0  0  0999 V2000
  191.0880  174.7030  143.4670 C   0  0  0  0  0  0  0  0  0  0  0  0
  189.0670  173.0380  140.8250 C   0  0  0  0  0  3  0  0  0  0  0  0
  187.0850  177.8000  143.0450 C   0  0  0  0  0  2  0  0  0  0  0  0
  191.3780  176.1290  143.8350 C   0  0  0  0  0  2  0  0  0  0  0  0
  191.8690  173.6210  143.9480 C   0  0  0  0  0  0  0  0  0  0  0  0
  193.5610  172.6360  145.3990 C   0  0  0  0  0  3  0  0  0  0  0  0
  191.5050  176.9400  146.2400 C   0  0  1  0  0  3  0  0  0  0  0  0
  192.6740  173.6830  145.1250 C   0  0  0  0  0  0  0  0  0  0  0  0
  191.8560  172.4080  143.1990 C   0  0  0  0  0  0  0  0  0  0  0  0
  188.5870  177.1230  145.0420 C   0  0  1  0  0  3  0  0  0  0  0  0
  187.6180  176.6820  143.9370 C   0  0  0  0  0  2  0  0  0  0  0  0
  190.9340  172.2140  142.1610 C   0  0  0  0  0  3  0  0  0  0  0  0
  192.3390  174.5410  146.3150 C   0  0  0  0  0  2  0  0  0  0  0  0
  188.1920  174.0850  140.4840 C   0  0  0  0  0  3  0  0  0  0  0  0
  189.4020  175.9740  145.4460 N   0  0  1  0  0  0  0  0  0  0  0  0
  189.3160  174.5410  147.4200 C   0  0  0  0  0  1  0  0  0  0  0  0
  192.7540  171.3850  143.5000 C   0  0  0  0  0  3  0  0  0  0  0  0
  190.0550  173.2350  141.8050 C   0  0  0  0  0  0  0  0  0  0  0  0
  187.6580  177.7490  141.6190 C   0  0  0  0  0  2  0  0  0  0  0  0
  187.3340  176.4490  140.8490 C   0  0  0  0  0  2  0  0  0  0  0  0
  193.6280  171.5130  144.5760 C   0  0  0  0  0  3  0  0  0  0  0  0
  190.1780  174.4910  142.4210 C   0  0  0  0  0  0  0  0  0  0  0  0
  192.7430  176.0120  146.2430 C   0  0  0  0  0  2  0  0  0  0  0  0
  189.8030  177.9160  144.5730 C   0  0  0  0  0  2  0  0  0  0  0  0
  190.6040  176.7050  145.0270 C   0  0  2  0  0  0  0  0  0  0  0  0
  189.3840  175.9670  146.9120 C   0  0  1  0  0  3  0  0  0  0  0  0
  190.2380  177.9730  148.1030 C   0  0  0  0  0  1  0  0  0  0  0  0
  188.3330  175.3430  141.0870 C   0  0  0  0  0  0  0  0  0  0  0  0
  189.3540  175.5280  142.0090 C   0  0  0  0  0  3  0  0  0  0  0  0
  190.6300  176.6640  147.4450 C   0  0  2  0  0  3  0  0  0  0  0  0
  1  4  1  0  0  0  0
  1  5  1  0  0  0  0
  2 18  1  0  0  0  0
  3 11  1  0  0  0  0
  4 25  1  0  0  0  0
  5  8  1  0  0  0  0
  7 23  1  6  0  0  0
  7 30  1  0  0  0  0
  8  6  2  0  0  0  0
  8 13  1  0  0  0  0
  9 17  1  0  0  0  0
  9  5  2  0  0  0  0
 10 11  1  6  0  0  0
 10 15  1  0  0  0  0
 12  9  1  0  0  0  0
 14  2  2  0  0  0  0
 14 28  1  0  0  0  0
 15 26  1  0  0  0  0
 17 21  2  0  0  0  0
 18 12  2  0  0  0  0
 18 22  1  0  0  0  0
 19  3  1  0  0  0  0
 20 28  1  0  0  0  0
 20 19  1  0  0  0  0
 21  6  1  0  0  0  0
 22  1  2  0  0  0  0
 23 13  1  0  0  0  0
 24 25  1  0  0  0  0
 24 10  1  0  0  0  0
 25 15  1  0  0  0  0
 25  7  1  0  0  0  0
 26 16  1  0  0  0  0
 26 30  1  0  0  0  0
 28 29  2  0  0  0  0
 29 22  1  0  0  0  0
 30 27  1  0  0  0  0
M  END
>  <MODEL>
6

>  <REMARK>
 VINA RESULT:      -8.2      1.502      6.564
  Name = 
  0 active torsions:
  status: ('A' for Active; 'I' for Inactive)
                            x       y       z     vdW  Elec       q    Type
                         _______ _______ _______ _____ _____    ______ ____

>  <TORSDO>
F 0

$$$$
=
 OpenBabel11052417213D

 30 36  0  0  1  0  0  0  0  0999 V2000
  188.0030  175.7810  142.8200 C   0  0  0  0  0  0  0  0  0  0  0  0
  187.4410  175.6510  139.1450 C   0  0  0  0  0  3  0  0  0  0  0  0
  191.7560  172.7390  141.2520 C   0  0  0  0  0  2  0  0  0  0  0  0
  188.4630  174.7960  143.8540 C   0  0  0  0  0  2  0  0  0  0  0  0
  187.3470  176.9910  143.1620 C   0  0  0  0  0  0  0  0  0  0  0  0
  186.6040  178.6900  144.7430 C   0  0  0  0  0  3  0  0  0  0  0  0
  190.0260  175.4170  145.7600 C   0  0  1  0  0  3  0  0  0  0  0  0
  187.4480  177.6150  144.4420 C   0  0  0  0  0  0  0  0  0  0  0  0
  186.5290  177.6070  142.1700 C   0  0  0  0  0  0  0  0  0  0  0  0
  191.5720  174.4630  143.1740 C   0  0  1  0  0  3  0  0  0  0  0  0
  191.5120  174.1880  141.6660 C   0  0  0  0  0  2  0  0  0  0  0  0
  186.5530  177.1620  140.8420 C   0  0  0  0  0  3  0  0  0  0  0  0
  188.6670  177.5180  145.3180 C   0  0  0  0  0  2  0  0  0  0  0  0
  188.2390  174.5410  138.8100 C   0  0  0  0  0  3  0  0  0  0  0  0
  190.8240  175.6910  143.4630 N   0  0  1  0  0  0  0  0  0  0  0  0
  191.5670  177.9550  143.9920 C   0  0  0  0  0  1  0  0  0  0  0  0
  185.7000  178.6760  142.5060 C   0  0  0  0  0  3  0  0  0  0  0  0
  187.3350  176.0650  140.4840 C   0  0  0  0  0  0  0  0  0  0  0  0
  190.4850  172.0440  140.7370 C   0  0  0  0  0  2  0  0  0  0  0  0
  189.8580  172.7050  139.4890 C   0  0  0  0  0  2  0  0  0  0  0  0
  185.7120  179.1940  143.7980 C   0  0  0  0  0  3  0  0  0  0  0  0
  188.0080  175.3470  141.4860 C   0  0  0  0  0  0  0  0  0  0  0  0
  188.8010  176.2640  146.1790 C   0  0  0  0  0  2  0  0  0  0  0  0
  190.6490  173.6090  144.0360 C   0  0  0  0  0  2  0  0  0  0  0  0
  189.9200  174.9130  144.3200 C   0  0  2  0  0  0  0  0  0  0  0  0
  191.6850  176.4850  144.3440 C   0  0  1  0  0  3  0  0  0  0  0  0
  192.3880  175.4850  146.5070 C   0  0  0  0  0  1  0  0  0  0  0  0
  188.8910  173.8150  139.8180 C   0  0  0  0  0  0  0  0  0  0  0  0
  188.7230  174.2110  141.1370 C   0  0  0  0  0  3  0  0  0  0  0  0
  191.2890  176.2520  145.7980 C   0  0  2  0  0  3  0  0  0  0  0  0
  1  5  1  0  0  0  0
  1  4  1  0  0  0  0
  2 18  1  0  0  0  0
  3 11  1  0  0  0  0
  4 25  1  0  0  0  0
  5  8  1  0  0  0  0
  7 30  1  0  0  0  0
  7 23  1  6  0  0  0
  8  6  2  0  0  0  0
  8 13  1  0  0  0  0
  9 17  1  0  0  0  0
  9  5  2  0  0  0  0
 10 11  1  6  0  0  0
 10 15  1  0  0  0  0
 10 24  1  0  0  0  0
 12  9  1  0  0  0  0
 13 23  1  0  0  0  0
 14  2  2  0  0  0  0
 14 28  1  0  0  0  0
 15 25  1  0  0  0  0
 15 26  1  0  0  0  0
 16 26  1  0  0  0  0
 17 21  2  0  0  0  0
 18 12  2  0  0  0  0
 18 22  1  0  0  0  0
 19  3  1  0  0  0  0
 20 28  1  0  0  0  0
 20 19  1  0  0  0  0
 21  6  1  0  0  0  0
 22  1  2  0  0  0  0
 24 25  1  0  0  0  0
 25  7  1  0  0  0  0
 26 30  1  0  0  0  0
 28 29  2  0  0  0  0
 29 22  1  0  0  0  0
 30 27  1  0  0  0  0
M  END
>  <MODEL>
7

>  <REMARK>
 VINA RESULT:      -8.2      1.604      5.298
  Name = 
  0 active torsions:
  status: ('A' for Active; 'I' for Inactive)
                            x       y       z     vdW  Elec       q    Type
                         _______ _______ _______ _____ _____    ______ ____

>  <TORSDO>
F 0

$$$$
=
 OpenBabel11052417213D

 30 36  0  0  1  0  0  0  0  0999 V2000
  188.3930  175.2010  142.7980 C   0  0  0  0  0  0  0  0  0  0  0  0
  188.5660  174.1660  139.2300 C   0  0  0  0  0  3  0  0  0  0  0  0
  192.2480  171.8950  142.8110 C   0  0  0  0  0  2  0  0  0  0  0  0
  188.5960  174.5040  144.1120 C   0  0  0  0  0  2  0  0  0  0  0  0
  187.7340  176.4530  142.6960 C   0  0  0  0  0  0  0  0  0  0  0  0
  186.7660  178.4830  143.6330 C   0  0  0  0  0  3  0  0  0  0  0  0
  189.7740  175.5870  146.0860 C   0  0  1  0  0  3  0  0  0  0  0  0
  187.6060  177.3740  143.7790 C   0  0  0  0  0  0  0  0  0  0  0  0
  187.1570  176.7990  141.4390 C   0  0  0  0  0  0  0  0  0  0  0  0
  191.7600  174.0380  144.1780 C   0  0  1  0  0  3  0  0  0  0  0  0
  191.9890  173.3990  142.8020 C   0  0  0  0  0  2  0  0  0  0  0  0
  187.4250  176.0410  140.2920 C   0  0  0  0  0  3  0  0  0  0  0  0
  188.6210  177.5050  144.8820 C   0  0  0  0  0  2  0  0  0  0  0  0
  189.3660  173.0130  139.3430 C   0  0  0  0  0  3  0  0  0  0  0  0
  191.0230  175.2930  144.0020 N   0  0  1  0  0  0  0  0  0  0  0  0
  191.7420  177.6230  144.1060 C   0  0  0  0  0  1  0  0  0  0  0  0
  186.3240  177.9120  141.3310 C   0  0  0  0  0  3  0  0  0  0  0  0
  188.2140  174.8960  140.3770 C   0  0  0  0  0  0  0  0  0  0  0  0
  191.0760  171.0850  142.2330 C   0  0  0  0  0  2  0  0  0  0  0  0
  190.7380  171.4130  140.7620 C   0  0  0  0  0  2  0  0  0  0  0  0
  186.1010  178.7320  142.4330 C   0  0  0  0  0  3  0  0  0  0  0  0
  188.6440  174.4520  141.6390 C   0  0  0  0  0  0  0  0  0  0  0  0
  188.5280  176.5020  146.0300 C   0  0  0  0  0  2  0  0  0  0  0  0
  190.6490  173.4150  145.0160 C   0  0  0  0  0  2  0  0  0  0  0  0
  189.9350  174.7440  144.8210 C   0  0  2  0  0  0  0  0  0  0  0  0
  191.7250  176.2870  144.8200 C   0  0  1  0  0  3  0  0  0  0  0  0
  191.9410  175.8560  147.2570 C   0  0  0  0  0  1  0  0  0  0  0  0
  189.7740  172.5630  140.6070 C   0  0  0  0  0  0  0  0  0  0  0  0
  189.3640  173.2700  141.7290 C   0  0  0  0  0  3  0  0  0  0  0  0
  191.0390  176.4160  146.1750 C   0  0  2  0  0  3  0  0  0  0  0  0
  1  4  1  0  0  0  0
  2 14  2  0  0  0  0
  2 18  1  0  0  0  0
  4 25  1  0  0  0  0
  5  1  1  0  0  0  0
  5  8  1  0  0  0  0
  6  8  2  0  0  0  0
  7 23  1  6  0  0  0
  7 30  1  0  0  0  0
  8 13  1  0  0  0  0
  9  5  2  0  0  0  0
 10 11  1  6  0  0  0
 10 24  1  0  0  0  0
 11  3  1  0  0  0  0
 12 18  2  0  0  0  0
 12  9  1  0  0  0  0
 13 23  1  0  0  0  0
 14 28  1  0  0  0  0
 15 10  1  0  0  0  0
 15 26  1  0  0  0  0
 15 25  1  0  0  0  0
 16 26  1  0  0  0  0
 17  9  1  0  0  0  0
 17 21  2  0  0  0  0
 18 22  1  0  0  0  0
 19  3  1  0  0  0  0
 20 19  1  0  0  0  0
 21  6  1  0  0  0  0
 22 29  1  0  0  0  0
 22  1  2  0  0  0  0
 25 24  1  0  0  0  0
 25  7  1  0  0  0  0
 26 30  1  0  0  0  0
 28 20  1  0  0  0  0
 28 29  2  0  0  0  0
 30 27  1  0  0  0  0
M  END
>  <MODEL>
8

>  <REMARK>
 VINA RESULT:      -8.1      1.571      5.199
  Name = 
  0 active torsions:
  status: ('A' for Active; 'I' for Inactive)
                            x       y       z     vdW  Elec       q    Type
                         _______ _______ _______ _____ _____    ______ ____

>  <TORSDO>
F 0

$$$$
=
 OpenBabel11052417213D

 30 36  0  0  1  0  0  0  0  0999 V2000
  190.7020  173.6050  144.2490 C   0  0  0  0  0  0  0  0  0  0  0  0
  190.8570  176.8180  146.1160 C   0  0  0  0  0  3  0  0  0  0  0  0
  187.0470  176.3370  142.0180 C   0  0  0  0  0  2  0  0  0  0  0  0
  189.5980  172.7790  143.6560 C   0  0  0  0  0  2  0  0  0  0  0  0
  192.0010  173.0840  144.4760 C   0  0  0  0  0  0  0  0  0  0  0  0
  193.7390  171.3930  144.2360 C   0  0  0  0  0  3  0  0  0  0  0  0
  189.8050  171.5910  141.4180 C   0  0  1  0  0  3  0  0  0  0  0  0
  192.5330  171.9480  143.7950 C   0  0  0  0  0  0  0  0  0  0  0  0
  192.8130  173.7290  145.4550 C   0  0  0  0  0  0  0  0  0  0  0  0
  188.6830  174.5320  141.1410 C   0  0  1  0  0  3  0  0  0  0  0  0
  188.4950  175.9060  141.7960 C   0  0  0  0  0  2  0  0  0  0  0  0
  192.4340  174.9610  146.0030 C   0  0  0  0  0  3  0  0  0  0  0  0
  192.1530  171.5720  142.3880 C   0  0  0  0  0  2  0  0  0  0  0  0
  189.6260  177.3860  145.7360 C   0  0  0  0  0  3  0  0  0  0  0  0
  190.0200  174.0290  141.4680 N   0  0  1  0  0  0  0  0  0  0  0  0
  192.0630  173.8740  140.1410 C   0  0  0  0  0  1  0  0  0  0  0  0
  194.0100  173.1470  145.8710 C   0  0  0  0  0  3  0  0  0  0  0  0
  191.2210  175.5460  145.6440 C   0  0  0  0  0  0  0  0  0  0  0  0
  186.6450  176.3330  143.5010 C   0  0  0  0  0  2  0  0  0  0  0  0
  187.4750  177.2870  144.3890 C   0  0  0  0  0  2  0  0  0  0  0  0
  194.4550  171.9640  145.2870 C   0  0  0  0  0  3  0  0  0  0  0  0
  190.3380  174.8360  144.8150 C   0  0  0  0  0  0  0  0  0  0  0  0
  190.8590  170.7810  142.2090 C   0  0  0  0  0  2  0  0  0  0  0  0
  187.9910  173.3680  141.8420 C   0  0  0  0  0  2  0  0  0  0  0  0
  189.4000  172.8780  142.1380 C   0  0  2  0  0  0  0  0  0  0  0  0
  190.5850  173.5450  140.2040 C   0  0  1  0  0  3  0  0  0  0  0  0
  189.3660  171.7560  138.9850 C   0  0  0  0  0  1  0  0  0  0  0  0
  188.7400  176.6630  144.9250 C   0  0  0  0  0  0  0  0  0  0  0  0
  189.0990  175.3860  144.5210 C   0  0  0  0  0  3  0  0  0  0  0  0
  190.3690  172.0400  140.0860 C   0  0  2  0  0  3  0  0  0  0  0  0
  1  5  2  0  0  0  0
  1 22  1  0  0  0  0
  3 19  1  0  0  0  0
  4  1  1  0  0  0  0
  5  9  1  0  0  0  0
  6 21  1  0  0  0  0
  7 25  1  0  0  0  0
  7 23  1  1  0  0  0
  8  6  2  0  0  0  0
  8  5  1  0  0  0  0
  9 17  1  0  0  0  0
  9 12  2  0  0  0  0
 10 15  1  0  0  0  0
 10 11  1  1  0  0  0
 10 24  1  0  0  0  0
 11  3  1  0  0  0  0
 13  8  1  0  0  0  0
 14  2  1  0  0  0  0
 15 25  1  0  0  0  0
 16 26  1  0  0  0  0
 18 12  1  0  0  0  0
 18  2  2  0  0  0  0
 19 20  1  0  0  0  0
 20 28  1  0  0  0  0
 21 17  2  0  0  0  0
 22 18  1  0  0  0  0
 23 13  1  0  0  0  0
 24 25  1  0  0  0  0
 25  4  1  0  0  0  0
 26 15  1  0  0  0  0
 27 30  1  0  0  0  0
 28 14  2  0  0  0  0
 29 22  2  0  0  0  0
 29 28  1  0  0  0  0
 30 26  1  0  0  0  0
 30  7  1  0  0  0  0
M  END
>  <MODEL>
9

>  <REMARK>
 VINA RESULT:      -8.0      1.446      5.182
  Name = 
  0 active torsions:
  status: ('A' for Active; 'I' for Inactive)
                            x       y       z     vdW  Elec       q    Type
                         _______ _______ _______ _____ _____    ______ ____

>  <TORSDO>
F 0

$$$$
