=
 OpenBabel11052417223D

 30 34  0  0  1  0  0  0  0  0999 V2000
  190.5040  176.0910  146.2960 C   0  0  1  0  0  3  0  0  0  0  0  0
  194.2460  176.3830  146.5130 C   0  0  0  0  0  2  0  0  0  0  0  0
  193.1750  173.1260  143.1700 C   0  0  0  0  0  1  0  0  0  0  0  0
  189.6870  176.6870  145.1030 C   0  0  2  0  0  3  0  0  0  0  0  0
  189.7700  174.9630  147.0280 C   0  0  0  0  0  2  0  0  0  0  0  0
  186.2970  178.6660  142.8750 C   0  0  0  0  0  2  0  0  0  0  0  0
  187.5780  176.1790  146.4690 C   0  0  2  0  0  3  0  0  0  0  0  0
  189.4880  176.9970  142.5460 C   0  0  0  0  0  2  0  0  0  0  0  0
  190.0170  174.1230  143.1960 C   0  0  0  0  0  1  0  0  0  0  0  0
  188.3980  175.4200  147.5220 C   0  0  0  0  0  2  0  0  0  0  0  0
  188.2440  176.1410  145.0830 C   0  0  1  0  0  3  0  0  0  0  0  0
  195.0540  175.9050  145.4770 O   0  0  0  0  0  0  0  0  0  0  0  0
  188.0580  176.4360  142.6100 C   0  0  2  0  0  3  0  0  0  0  0  0
  187.0830  178.2910  141.6200 C   0  0  0  0  0  2  0  0  0  0  0  0
  192.8940  176.7910  145.9510 C   0  0  0  0  0  2  0  0  0  0  0  0
  191.9280  174.7270  144.6700 C   0  0  1  0  0  3  0  0  0  0  0  0
  195.2920  174.5500  145.7520 C   0  0  0  0  0  2  0  0  0  0  0  0
  191.9140  175.6160  145.9430 C   0  0  2  0  0  3  0  0  0  0  0  0
  191.4280  177.5470  143.7100 O   0  0  0  0  0  1  0  0  0  0  0  0
  191.0390  175.2100  143.5030 C   0  0  2  0  0  3  0  0  0  0  0  0
  190.4020  176.6020  143.7230 C   0  0  1  0  0  0  0  0  0  0  0  0
  187.2580  176.8890  141.5310 O   0  0  0  0  0  0  0  0  0  0  0  0
  187.0720  178.1960  144.0980 C   0  0  0  0  0  2  0  0  0  0  0  0
  193.3080  174.2220  144.2130 C   0  0  1  0  0  3  0  0  0  0  0  0
  194.0940  173.6640  145.3940 C   0  0  0  0  0  2  0  0  0  0  0  0
  187.3790  176.7050  143.9560 C   0  0  2  0  0  3  0  0  0  0  0  0
  187.3970  177.4960  146.8980 O   0  0  0  0  0  0  0  0  0  0  0  0
  186.2700  177.4620  147.6490 N   0  0  0  0  0  2  0  0  0  0  0  0
  185.5190  178.6620  147.3290 C   0  0  0  0  0  2  0  0  0  0  0  0
  184.2990  178.2910  146.5130 C   0  0  0  0  0  1  0  0  0  0  0  0
  1  5  1  6  0  0  0
  3 24  1  0  0  0  0
  4  1  1  0  0  0  0
  5 10  1  0  0  0  0
  6 23  1  0  0  0  0
  7 27  1  0  0  0  0
  7 10  1  0  0  0  0
  8 13  1  0  0  0  0
  8 21  1  0  0  0  0
  9 20  1  0  0  0  0
 11  4  1  0  0  0  0
 11  7  1  0  0  0  0
 12 17  1  0  0  0  0
 12  2  1  0  0  0  0
 13 26  1  0  0  0  0
 14  6  1  0  0  0  0
 15  2  1  0  0  0  0
 16 18  1  0  0  0  0
 18 15  1  0  0  0  0
 18  1  1  0  0  0  0
 19 21  1  0  0  0  0
 20 21  1  0  0  0  0
 20 16  1  0  0  0  0
 21  4  1  0  0  0  0
 22 14  1  0  0  0  0
 22 13  1  0  0  0  0
 24 16  1  0  0  0  0
 24 25  1  0  0  0  0
 25 17  1  0  0  0  0
 26 23  1  0  0  0  0
 26 11  1  0  0  0  0
 27 28  1  0  0  0  0
 29 28  1  0  0  0  0
 30 29  1  0  0  0  0
M  END
>  <MODEL>
1

>  <REMARK>
 VINA RESULT:      -8.5      0.000      0.000
  Name = 
  3 active torsions:
  status: ('A' for Active; 'I' for Inactive)
    1  A    between atoms: O_6  and  C_8
    2  A    between atoms: O_6  and  N_21
    3  A    between atoms: C_9  and  N_21
                            x       y       z     vdW  Elec       q    Type
                         _______ _______ _______ _____ _____    ______ ____

>  <TORSDO>
F 3

$$$$
=
 OpenBabel11052417223D

 30 34  0  0  1  0  0  0  0  0999 V2000
  189.7450  175.3940  143.5280 C   0  0  1  0  0  3  0  0  0  0  0  0
  192.0690  172.4630  143.9140 C   0  0  0  0  0  2  0  0  0  0  0  0
  193.6150  176.0010  146.7440 C   0  0  0  0  0  1  0  0  0  0  0  0
  188.7090  175.7900  144.6320 C   0  0  2  0  0  3  0  0  0  0  0  0
  190.1060  176.5530  142.5940 C   0  0  0  0  0  2  0  0  0  0  0  0
  184.8780  177.2910  146.4850 C   0  0  0  0  0  2  0  0  0  0  0  0
  187.7080  177.4140  142.9200 C   0  0  2  0  0  3  0  0  0  0  0  0
  188.2510  176.1690  147.1450 C   0  0  0  0  0  2  0  0  0  0  0  0
  190.7480  177.6040  146.3270 C   0  0  0  0  0  1  0  0  0  0  0  0
  188.8610  177.1490  141.9390 C   0  0  0  0  0  2  0  0  0  0  0  0
  188.1340  177.1990  144.3820 C   0  0  1  0  0  3  0  0  0  0  0  0
  192.9280  172.3810  145.0130 O   0  0  0  0  0  0  0  0  0  0  0  0
  187.6990  177.5650  146.8130 C   0  0  2  0  0  3  0  0  0  0  0  0
  185.6380  177.1950  147.8060 C   0  0  0  0  0  2  0  0  0  0  0  0
  190.8330  173.2620  144.2960 C   0  0  0  0  0  2  0  0  0  0  0  0
  191.6510  175.5660  145.2230 C   0  0  1  0  0  3  0  0  0  0  0  0
  194.0970  173.0720  144.6560 C   0  0  0  0  0  2  0  0  0  0  0  0
  191.0350  174.7580  144.0490 C   0  0  2  0  0  3  0  0  0  0  0  0
  189.2020  174.1990  146.3460 O   0  0  0  0  0  1  0  0  0  0  0  0
  190.6510  176.0840  146.2790 C   0  0  2  0  0  3  0  0  0  0  0  0
  189.2040  175.5700  146.0910 C   0  0  1  0  0  0  0  0  0  0  0  0
  186.7850  178.0240  147.7940 O   0  0  0  0  0  0  0  0  0  0  0  0
  185.7940  176.8360  145.3580 C   0  0  0  0  0  2  0  0  0  0  0  0
  192.9380  174.9880  145.8380 C   0  0  1  0  0  3  0  0  0  0  0  0
  193.9250  174.5920  144.7450 C   0  0  0  0  0  2  0  0  0  0  0  0
  187.0930  177.6410  145.4090 C   0  0  2  0  0  3  0  0  0  0  0  0
  186.6330  176.5850  142.5880 O   0  0  0  0  0  0  0  0  0  0  0  0
  186.0280  177.2060  141.5470 N   0  0  0  0  0  2  0  0  0  0  0  0
  185.4580  178.4340  142.0680 C   0  0  0  0  0  2  0  0  0  0  0  0
  184.0070  178.2020  142.4300 C   0  0  0  0  0  1  0  0  0  0  0  0
  1  5  1  1  0  0  0
  1 18  1  0  0  0  0
  1  4  1  0  0  0  0
  2 15  1  0  0  0  0
  2 12  1  0  0  0  0
  4 21  1  0  0  0  0
  6 14  1  0  0  0  0
  7 11  1  0  0  0  0
 10  5  1  0  0  0  0
 10  7  1  0  0  0  0
 11  4  1  0  0  0  0
 11 26  1  0  0  0  0
 13  8  1  0  0  0  0
 13 22  1  0  0  0  0
 16 24  1  0  0  0  0
 16 20  1  0  0  0  0
 17 25  1  0  0  0  0
 17 12  1  0  0  0  0
 18 15  1  0  0  0  0
 18 16  1  0  0  0  0
 20  9  1  0  0  0  0
 21 20  1  0  0  0  0
 21 19  1  0  0  0  0
 21  8  1  0  0  0  0
 22 14  1  0  0  0  0
 23 26  1  0  0  0  0
 23  6  1  0  0  0  0
 24  3  1  0  0  0  0
 25 24  1  0  0  0  0
 26 13  1  0  0  0  0
 27  7  1  0  0  0  0
 28 29  1  0  0  0  0
 28 27  1  0  0  0  0
 29 30  1  0  0  0  0
M  END
>  <MODEL>
2

>  <REMARK>
 VINA RESULT:      -7.9      1.947      4.072
  Name = 
  3 active torsions:
  status: ('A' for Active; 'I' for Inactive)
    1  A    between atoms: O_6  and  C_8
    2  A    between atoms: O_6  and  N_21
    3  A    between atoms: C_9  and  N_21
                            x       y       z     vdW  Elec       q    Type
                         _______ _______ _______ _____ _____    ______ ____

>  <TORSDO>
F 3

$$$$
=
 OpenBabel11052417223D

 30 34  0  0  1  0  0  0  0  0999 V2000
  188.2400  175.9730  142.9720 C   0  0  1  0  0  3  0  0  0  0  0  0
  186.0550  179.0320  143.0430 C   0  0  0  0  0  2  0  0  0  0  0  0
  186.2020  177.1760  147.4540 C   0  0  0  0  0  1  0  0  0  0  0  0
  189.6810  175.9610  143.5820 C   0  0  2  0  0  3  0  0  0  0  0  0
  187.6180  174.5780  142.8630 C   0  0  0  0  0  2  0  0  0  0  0  0
  194.0540  174.9590  144.0650 C   0  0  0  0  0  2  0  0  0  0  0  0
  189.9890  173.6750  142.4630 C   0  0  2  0  0  3  0  0  0  0  0  0
  191.2070  176.6110  145.5610 C   0  0  0  0  0  2  0  0  0  0  0  0
  188.7420  175.2460  146.5690 C   0  0  0  0  0  1  0  0  0  0  0  0
  188.5090  173.6330  142.0570 C   0  0  0  0  0  2  0  0  0  0  0  0
  190.2160  174.5220  143.7270 C   0  0  1  0  0  3  0  0  0  0  0  0
  185.7490  179.6550  144.2570 O   0  0  0  0  0  0  0  0  0  0  0  0
  191.6860  175.1530  145.6440 C   0  0  2  0  0  3  0  0  0  0  0  0
  193.9310  175.6760  145.4080 C   0  0  0  0  0  2  0  0  0  0  0  0
  187.4010  178.3360  143.1580 C   0  0  0  0  0  2  0  0  0  0  0  0
  187.2730  176.7270  145.2150 C   0  0  1  0  0  3  0  0  0  0  0  0
  184.6070  179.0090  144.7570 C   0  0  0  0  0  2  0  0  0  0  0  0
  187.2480  176.9030  143.6730 C   0  0  2  0  0  3  0  0  0  0  0  0
  189.8330  178.1620  144.5000 O   0  0  0  0  0  1  0  0  0  0  0  0
  188.6720  176.5880  145.8540 C   0  0  2  0  0  3  0  0  0  0  0  0
  189.8440  176.8180  144.8710 C   0  0  1  0  0  0  0  0  0  0  0  0
  192.9710  175.0450  146.2340 O   0  0  0  0  0  0  0  0  0  0  0  0
  192.7060  175.0020  143.3600 C   0  0  0  0  0  2  0  0  0  0  0  0
  186.3290  177.6420  146.0140 C   0  0  1  0  0  3  0  0  0  0  0  0
  184.9370  177.6550  145.3930 C   0  0  0  0  0  2  0  0  0  0  0  0
  191.6340  174.4370  144.2920 C   0  0  2  0  0  3  0  0  0  0  0  0
  190.7390  174.1710  141.3920 O   0  0  0  0  0  0  0  0  0  0  0  0
  190.1090  173.7030  140.2870 N   0  0  0  0  0  2  0  0  0  0  0  0
  191.1450  173.3610  139.3300 C   0  0  0  0  0  2  0  0  0  0  0  0
  192.4770  173.8870  139.8210 C   0  0  0  0  0  1  0  0  0  0  0  0
  1  5  1  1  0  0  0
  1  4  1  0  0  0  0
  1 18  1  0  0  0  0
  2 15  1  0  0  0  0
  2 12  1  0  0  0  0
  4 11  1  0  0  0  0
  4 21  1  0  0  0  0
  6 14  1  0  0  0  0
  7 11  1  0  0  0  0
  8 13  1  0  0  0  0
 10  7  1  0  0  0  0
 10  5  1  0  0  0  0
 11 26  1  0  0  0  0
 12 17  1  0  0  0  0
 13 22  1  0  0  0  0
 14 22  1  0  0  0  0
 15 18  1  0  0  0  0
 16 20  1  0  0  0  0
 16 24  1  0  0  0  0
 17 25  1  0  0  0  0
 18 16  1  0  0  0  0
 19 21  1  0  0  0  0
 20  9  1  0  0  0  0
 21  8  1  0  0  0  0
 21 20  1  0  0  0  0
 23  6  1  0  0  0  0
 23 26  1  0  0  0  0
 24  3  1  0  0  0  0
 25 24  1  0  0  0  0
 26 13  1  0  0  0  0
 27  7  1  0  0  0  0
 28 27  1  0  0  0  0
 29 30  1  0  0  0  0
 29 28  1  0  0  0  0
M  END
>  <MODEL>
3

>  <REMARK>
 VINA RESULT:      -7.8      2.492      7.077
  Name = 
  3 active torsions:
  status: ('A' for Active; 'I' for Inactive)
    1  A    between atoms: O_6  and  C_8
    2  A    between atoms: O_6  and  N_21
    3  A    between atoms: C_9  and  N_21
                            x       y       z     vdW  Elec       q    Type
                         _______ _______ _______ _____ _____    ______ ____

>  <TORSDO>
F 3

$$$$
=
 OpenBabel11052417223D

 30 34  0  0  1  0  0  0  0  0999 V2000
  187.8930  175.9330  142.6490 C   0  0  1  0  0  3  0  0  0  0  0  0
  185.7380  179.0000  142.9400 C   0  0  0  0  0  2  0  0  0  0  0  0
  186.5260  177.2830  147.3390 C   0  0  0  0  0  1  0  0  0  0  0  0
  189.4070  175.9350  143.0430 C   0  0  2  0  0  3  0  0  0  0  0  0
  187.2630  174.5370  142.6750 C   0  0  0  0  0  2  0  0  0  0  0  0
  193.8050  174.9330  142.9180 C   0  0  0  0  0  2  0  0  0  0  0  0
  189.5520  173.6140  141.9640 C   0  0  2  0  0  3  0  0  0  0  0  0
  191.2040  176.6410  144.7580 C   0  0  0  0  0  2  0  0  0  0  0  0
  188.9120  175.3170  146.1560 C   0  0  0  0  0  1  0  0  0  0  0  0
  188.0290  173.5640  141.7780 C   0  0  0  0  0  2  0  0  0  0  0  0
  189.9590  174.4990  143.1540 C   0  0  1  0  0  3  0  0  0  0  0  0
  185.6110  179.6620  144.1650 O   0  0  0  0  0  0  0  0  0  0  0  0
  191.6910  175.1840  144.8170 C   0  0  2  0  0  3  0  0  0  0  0  0
  193.8780  175.6920  144.2410 C   0  0  0  0  0  2  0  0  0  0  0  0
  187.0870  178.3030  142.8800 C   0  0  0  0  0  2  0  0  0  0  0  0
  187.2610  176.7600  144.9830 C   0  0  1  0  0  3  0  0  0  0  0  0
  184.5550  179.0360  144.8450 C   0  0  0  0  0  2  0  0  0  0  0  0
  187.0120  176.8880  143.4560 C   0  0  2  0  0  3  0  0  0  0  0  0
  189.6880  178.1630  143.8590 O   0  0  0  0  0  1  0  0  0  0  0  0
  188.7380  176.6360  145.4160 C   0  0  2  0  0  3  0  0  0  0  0  0
  189.7550  176.8310  144.2670 C   0  0  1  0  0  0  0  0  0  0  0  0
  193.0480  175.0910  145.2170 O   0  0  0  0  0  0  0  0  0  0  0  0
  192.3690  174.9580  142.4150 C   0  0  0  0  0  2  0  0  0  0  0  0
  186.4420  177.7030  145.8820 C   0  0  1  0  0  3  0  0  0  0  0  0
  184.9740  177.7010  145.4690 C   0  0  0  0  0  2  0  0  0  0  0  0
  191.4440  174.4260  143.5100 C   0  0  2  0  0  3  0  0  0  0  0  0
  190.1370  174.0730  140.7800 O   0  0  0  0  0  0  0  0  0  0  0  0
  189.9510  173.0670  139.8920 N   0  0  0  0  0  2  0  0  0  0  0  0
  189.8110  173.6840  138.5860 C   0  0  0  0  0  2  0  0  0  0  0  0
  188.4080  173.4520  138.0680 C   0  0  0  0  0  1  0  0  0  0  0  0
  1  5  1  1  0  0  0
  1  4  1  0  0  0  0
  1 18  1  0  0  0  0
  2 12  1  0  0  0  0
  4 11  1  0  0  0  0
  4 21  1  0  0  0  0
  6 14  1  0  0  0  0
  7 11  1  0  0  0  0
  8 13  1  0  0  0  0
 10  7  1  0  0  0  0
 10  5  1  0  0  0  0
 11 26  1  0  0  0  0
 12 17  1  0  0  0  0
 13 22  1  0  0  0  0
 14 22  1  0  0  0  0
 15  2  1  0  0  0  0
 15 18  1  0  0  0  0
 16 20  1  0  0  0  0
 16 24  1  0  0  0  0
 17 25  1  0  0  0  0
 18 16  1  0  0  0  0
 19 21  1  0  0  0  0
 20  9  1  0  0  0  0
 21  8  1  0  0  0  0
 21 20  1  0  0  0  0
 23  6  1  0  0  0  0
 23 26  1  0  0  0  0
 24  3  1  0  0  0  0
 25 24  1  0  0  0  0
 26 13  1  0  0  0  0
 27  7  1  0  0  0  0
 28 27  1  0  0  0  0
 29 28  1  0  0  0  0
 30 29  1  0  0  0  0
M  END
>  <MODEL>
4

>  <REMARK>
 VINA RESULT:      -7.7      2.750      7.031
  Name = 
  3 active torsions:
  status: ('A' for Active; 'I' for Inactive)
    1  A    between atoms: O_6  and  C_8
    2  A    between atoms: O_6  and  N_21
    3  A    between atoms: C_9  and  N_21
                            x       y       z     vdW  Elec       q    Type
                         _______ _______ _______ _____ _____    ______ ____

>  <TORSDO>
F 3

$$$$
=
 OpenBabel11052417223D

 30 34  0  0  1  0  0  0  0  0999 V2000
  188.2000  176.2200  142.4200 C   0  0  1  0  0  3  0  0  0  0  0  0
  190.3070  173.2020  141.6530 C   0  0  0  0  0  2  0  0  0  0  0  0
  192.9690  176.3140  144.1340 C   0  0  0  0  0  1  0  0  0  0  0  0
  187.6340  176.5030  143.8510 C   0  0  2  0  0  3  0  0  0  0  0  0
  188.2990  177.4770  141.5510 C   0  0  0  0  0  2  0  0  0  0  0  0
  184.7820  177.8630  147.0740 C   0  0  0  0  0  2  0  0  0  0  0  0
  186.2220  178.3550  142.7810 C   0  0  2  0  0  3  0  0  0  0  0  0
  188.0920  176.5760  146.3920 C   0  0  0  0  0  2  0  0  0  0  0  0
  190.2500  178.0340  144.9170 C   0  0  0  0  0  1  0  0  0  0  0  0
  186.9480  178.1840  141.4390 C   0  0  0  0  0  2  0  0  0  0  0  0
  187.1070  177.9480  143.9710 C   0  0  1  0  0  3  0  0  0  0  0  0
  191.4830  172.9600  142.3690 O   0  0  0  0  0  0  0  0  0  0  0  0
  187.5570  178.0170  146.4260 C   0  0  2  0  0  3  0  0  0  0  0  0
  185.9400  177.5810  148.0290 C   0  0  0  0  0  2  0  0  0  0  0  0
  189.3350  173.9800  142.5260 C   0  0  0  0  0  2  0  0  0  0  0  0
  190.5780  176.1270  143.3540 C   0  0  1  0  0  3  0  0  0  0  0  0
  192.5030  173.6580  141.7040 C   0  0  0  0  0  2  0  0  0  0  0  0
  189.5430  175.4890  142.3880 C   0  0  2  0  0  3  0  0  0  0  0  0
  188.5730  174.6970  145.1040 O   0  0  0  0  0  1  0  0  0  0  0  0
  190.0380  176.5350  144.7420 C   0  0  2  0  0  3  0  0  0  0  0  0
  188.5820  176.0880  145.0150 C   0  0  1  0  0  0  0  0  0  0  0  0
  187.0670  178.3740  147.7080 O   0  0  0  0  0  0  0  0  0  0  0  0
  185.2230  177.5280  145.6560 C   0  0  0  0  0  2  0  0  0  0  0  0
  191.9540  175.4420  143.4150 C   0  0  1  0  0  3  0  0  0  0  0  0
  192.4780  175.1590  142.0120 C   0  0  0  0  0  2  0  0  0  0  0  0
  186.5130  178.2840  145.3390 C   0  0  2  0  0  3  0  0  0  0  0  0
  185.0440  177.6040  142.7580 O   0  0  0  0  0  0  0  0  0  0  0  0
  184.4290  177.9640  141.6050 N   0  0  0  0  0  2  0  0  0  0  0  0
  183.0600  178.2980  141.9490 C   0  0  0  0  0  2  0  0  0  0  0  0
  182.1760  178.1150  140.7340 C   0  0  0  0  0  1  0  0  0  0  0  0
  1  5  1  1  0  0  0
  1  4  1  0  0  0  0
  2 12  1  0  0  0  0
  2 15  1  0  0  0  0
  4 11  1  0  0  0  0
  4 21  1  0  0  0  0
  6 14  1  0  0  0  0
  7 11  1  0  0  0  0
  8 13  1  0  0  0  0
 10  5  1  0  0  0  0
 10  7  1  0  0  0  0
 11 26  1  0  0  0  0
 13 22  1  0  0  0  0
 16 24  1  0  0  0  0
 16 20  1  0  0  0  0
 17 25  1  0  0  0  0
 17 12  1  0  0  0  0
 18  1  1  0  0  0  0
 18 15  1  0  0  0  0
 18 16  1  0  0  0  0
 20  9  1  0  0  0  0
 20 21  1  0  0  0  0
 21 19  1  0  0  0  0
 21  8  1  0  0  0  0
 22 14  1  0  0  0  0
 23  6  1  0  0  0  0
 24  3  1  0  0  0  0
 25 24  1  0  0  0  0
 26 23  1  0  0  0  0
 26 13  1  0  0  0  0
 27  7  1  0  0  0  0
 28 29  1  0  0  0  0
 28 27  1  0  0  0  0
 30 29  1  0  0  0  0
M  END
>  <MODEL>
5

>  <REMARK>
 VINA RESULT:      -7.6      2.329      4.696
  Name = 
  3 active torsions:
  status: ('A' for Active; 'I' for Inactive)
    1  A    between atoms: O_6  and  C_8
    2  A    between atoms: O_6  and  N_21
    3  A    between atoms: C_9  and  N_21
                            x       y       z     vdW  Elec       q    Type
                         _______ _______ _______ _____ _____    ______ ____

>  <TORSDO>
F 3

$$$$
=
 OpenBabel11052417223D

 30 34  0  0  1  0  0  0  0  0999 V2000
  188.4700  175.1980  142.0610 C   0  0  1  0  0  3  0  0  0  0  0  0
  186.1540  177.6110  140.3430 C   0  0  0  0  0  2  0  0  0  0  0  0
  185.7870  178.2690  145.0720 C   0  0  0  0  0  1  0  0  0  0  0  0
  189.8140  175.6550  142.7200 C   0  0  2  0  0  3  0  0  0  0  0  0
  187.9360  173.8800  142.6300 C   0  0  0  0  0  2  0  0  0  0  0  0
  194.1230  175.5240  144.0530 C   0  0  0  0  0  2  0  0  0  0  0  0
  190.3790  173.1680  142.9730 C   0  0  2  0  0  3  0  0  0  0  0  0
  191.0240  177.3800  144.2130 C   0  0  0  0  0  2  0  0  0  0  0  0
  188.5120  176.4490  145.5480 C   0  0  0  0  0  1  0  0  0  0  0  0
  188.9720  172.7620  142.5120 C   0  0  0  0  0  2  0  0  0  0  0  0
  190.3920  174.5560  143.6350 C   0  0  1  0  0  3  0  0  0  0  0  0
  185.6570  178.7230  141.0290 O   0  0  0  0  0  0  0  0  0  0  0  0
  191.5560  176.2270  145.0800 C   0  0  2  0  0  3  0  0  0  0  0  0
  193.7850  176.8030  144.8160 C   0  0  0  0  0  2  0  0  0  0  0  0
  187.5030  177.2220  140.9250 C   0  0  0  0  0  2  0  0  0  0  0  0
  187.1720  176.8700  143.4950 C   0  0  1  0  0  3  0  0  0  0  0  0
  184.4890  178.2980  141.6820 C   0  0  0  0  0  2  0  0  0  0  0  0
  187.3500  176.2390  142.0870 C   0  0  2  0  0  3  0  0  0  0  0  0
  189.7350  178.0200  142.3830 O   0  0  0  0  0  1  0  0  0  0  0  0
  188.4760  177.2290  144.2400 C   0  0  2  0  0  3  0  0  0  0  0  0
  189.7600  177.0580  143.3920 C   0  0  1  0  0  0  0  0  0  0  0  0
  192.7520  176.5750  145.7560 O   0  0  0  0  0  0  0  0  0  0  0  0
  192.8830  175.0560  143.3060 C   0  0  0  0  0  2  0  0  0  0  0  0
  186.0860  177.9530  143.6160 C   0  0  1  0  0  3  0  0  0  0  0  0
  184.7930  177.4960  142.9520 C   0  0  0  0  0  2  0  0  0  0  0  0
  191.7220  174.9250  144.2920 C   0  0  2  0  0  3  0  0  0  0  0  0
  191.2430  173.1330  141.8740 O   0  0  0  0  0  0  0  0  0  0  0  0
  190.6640  172.2660  141.0090 N   0  0  0  0  0  2  0  0  0  0  0  0
  191.1080  172.6440  139.6800 C   0  0  0  0  0  2  0  0  0  0  0  0
  190.0620  173.5270  139.0330 C   0  0  0  0  0  1  0  0  0  0  0  0
  1 18  1  0  0  0  0
  1  5  1  1  0  0  0
  1  4  1  0  0  0  0
  2 15  1  0  0  0  0
  2 12  1  0  0  0  0
  4 21  1  0  0  0  0
  4 11  1  0  0  0  0
  6 14  1  0  0  0  0
  7 11  1  0  0  0  0
  8 13  1  0  0  0  0
 10  5  1  0  0  0  0
 10  7  1  0  0  0  0
 11 26  1  0  0  0  0
 12 17  1  0  0  0  0
 13 22  1  0  0  0  0
 14 22  1  0  0  0  0
 15 18  1  0  0  0  0
 16 24  1  0  0  0  0
 16 20  1  0  0  0  0
 17 25  1  0  0  0  0
 18 16  1  0  0  0  0
 19 21  1  0  0  0  0
 20  9  1  0  0  0  0
 21  8  1  0  0  0  0
 21 20  1  0  0  0  0
 23  6  1  0  0  0  0
 23 26  1  0  0  0  0
 24  3  1  0  0  0  0
 25 24  1  0  0  0  0
 26 13  1  0  0  0  0
 27  7  1  0  0  0  0
 28 27  1  0  0  0  0
 29 28  1  0  0  0  0
 30 29  1  0  0  0  0
M  END
>  <MODEL>
6

>  <REMARK>
 VINA RESULT:      -7.4      2.626      7.201
  Name = 
  3 active torsions:
  status: ('A' for Active; 'I' for Inactive)
    1  A    between atoms: O_6  and  C_8
    2  A    between atoms: O_6  and  N_21
    3  A    between atoms: C_9  and  N_21
                            x       y       z     vdW  Elec       q    Type
                         _______ _______ _______ _____ _____    ______ ____

>  <TORSDO>
F 3

$$$$
=
 OpenBabel11052417223D

 30 34  0  0  1  0  0  0  0  0999 V2000
  190.0390  177.2190  144.7110 C   0  0  1  0  0  3  0  0  0  0  0  0
  187.3270  177.8050  147.2490 C   0  0  0  0  0  2  0  0  0  0  0  0
  185.3110  177.5400  142.9140 C   0  0  0  0  0  1  0  0  0  0  0  0
  190.2530  175.8310  144.0220 C   0  0  2  0  0  3  0  0  0  0  0  0
  190.6150  178.3880  143.9070 C   0  0  0  0  0  2  0  0  0  0  0  0
  192.4010  172.3210  142.1690 C   0  0  0  0  0  2  0  0  0  0  0  0
  192.4460  176.7800  143.0940 C   0  0  2  0  0  3  0  0  0  0  0  0
  189.1720  173.7920  142.8620 C   0  0  0  0  0  2  0  0  0  0  0  0
  188.1280  176.3290  141.6650 C   0  0  0  0  0  1  0  0  0  0  0  0
  192.1010  178.1830  143.6140 C   0  0  0  0  0  2  0  0  0  0  0  0
  191.1860  175.9490  142.7990 C   0  0  1  0  0  3  0  0  0  0  0  0
  185.9910  177.5490  146.9280 O   0  0  0  0  0  0  0  0  0  0  0  0
  190.1330  173.9820  141.6780 C   0  0  2  0  0  3  0  0  0  0  0  0
  191.0020  171.8360  141.7940 C   0  0  0  0  0  2  0  0  0  0  0  0
  188.2270  176.8990  146.4250 C   0  0  0  0  0  2  0  0  0  0  0  0
  187.6130  177.2680  143.9100 C   0  0  1  0  0  3  0  0  0  0  0  0
  185.4920  178.7220  146.3420 C   0  0  0  0  0  2  0  0  0  0  0  0
  188.5910  177.5410  145.0840 C   0  0  2  0  0  3  0  0  0  0  0  0
  188.4520  174.5560  144.9410 O   0  0  0  0  0  1  0  0  0  0  0  0
  187.8570  175.9650  143.1190 C   0  0  2  0  0  3  0  0  0  0  0  0
  188.9410  175.0450  143.7300 C   0  0  1  0  0  0  0  0  0  0  0  0
  190.3450  172.7750  140.9640 O   0  0  0  0  0  0  0  0  0  0  0  0
  192.2790  173.6350  142.9270 C   0  0  0  0  0  2  0  0  0  0  0  0
  186.1240  177.5330  144.1970 C   0  0  1  0  0  3  0  0  0  0  0  0
  185.9400  178.8810  144.8850 C   0  0  0  0  0  2  0  0  0  0  0  0
  191.4610  174.6220  142.0930 C   0  0  2  0  0  3  0  0  0  0  0  0
  193.2580  176.1360  144.0330 O   0  0  0  0  0  0  0  0  0  0  0  0
  193.6530  177.1190  144.8770 N   0  0  0  0  0  2  0  0  0  0  0  0
  194.0660  176.4710  146.1080 C   0  0  0  0  0  2  0  0  0  0  0  0
  193.0240  175.4500  146.5130 C   0  0  0  0  0  1  0  0  0  0  0  0
  1  5  1  6  0  0  0
  1 18  1  0  0  0  0
  3 24  1  0  0  0  0
  4  1  1  0  0  0  0
  6 23  1  0  0  0  0
  7 10  1  0  0  0  0
  7 27  1  0  0  0  0
  8 21  1  0  0  0  0
  9 20  1  0  0  0  0
 10  5  1  0  0  0  0
 11  7  1  0  0  0  0
 11  4  1  0  0  0  0
 12  2  1  0  0  0  0
 13 26  1  0  0  0  0
 13  8  1  0  0  0  0
 14  6  1  0  0  0  0
 15  2  1  0  0  0  0
 16 24  1  0  0  0  0
 16 18  1  0  0  0  0
 17 12  1  0  0  0  0
 18 15  1  0  0  0  0
 20 21  1  0  0  0  0
 20 16  1  0  0  0  0
 21  4  1  0  0  0  0
 21 19  1  0  0  0  0
 22 13  1  0  0  0  0
 22 14  1  0  0  0  0
 24 25  1  0  0  0  0
 25 17  1  0  0  0  0
 26 11  1  0  0  0  0
 26 23  1  0  0  0  0
 27 28  1  0  0  0  0
 28 29  1  0  0  0  0
 29 30  1  0  0  0  0
M  END
>  <MODEL>
7

>  <REMARK>
 VINA RESULT:      -7.3      2.323      6.428
  Name = 
  3 active torsions:
  status: ('A' for Active; 'I' for Inactive)
    1  A    between atoms: O_6  and  C_8
    2  A    between atoms: O_6  and  N_21
    3  A    between atoms: C_9  and  N_21
                            x       y       z     vdW  Elec       q    Type
                         _______ _______ _______ _____ _____    ______ ____

>  <TORSDO>
F 3

$$$$
=
 OpenBabel11052417223D

 30 34  0  0  1  0  0  0  0  0999 V2000
  191.0700  176.2180  145.3280 C   0  0  1  0  0  3  0  0  0  0  0  0
  187.8670  177.3890  146.9120 C   0  0  0  0  0  2  0  0  0  0  0  0
  186.9430  176.1240  142.3880 C   0  0  0  0  0  1  0  0  0  0  0  0
  191.3600  174.7070  145.0460 C   0  0  2  0  0  3  0  0  0  0  0  0
  191.8930  177.1660  144.4500 C   0  0  0  0  0  2  0  0  0  0  0  0
  193.6740  170.8560  144.6260 C   0  0  0  0  0  2  0  0  0  0  0  0
  193.7650  175.4070  144.5020 C   0  0  2  0  0  3  0  0  0  0  0  0
  190.4680  172.4570  144.1440 C   0  0  0  0  0  2  0  0  0  0  0  0
  189.9000  174.6470  142.1850 C   0  0  0  0  0  1  0  0  0  0  0  0
  193.3910  176.8940  144.5890 C   0  0  0  0  0  2  0  0  0  0  0  0
  192.5650  174.5340  144.0990 C   0  0  1  0  0  3  0  0  0  0  0  0
  186.6350  177.0680  146.3360 O   0  0  0  0  0  0  0  0  0  0  0  0
  191.6970  172.3620  143.2250 C   0  0  2  0  0  3  0  0  0  0  0  0
  192.3800  170.3010  144.0340 C   0  0  0  0  0  2  0  0  0  0  0  0
  188.8830  176.3130  146.5640 C   0  0  0  0  0  2  0  0  0  0  0  0
  188.9160  176.0860  143.9590 C   0  0  1  0  0  3  0  0  0  0  0  0
  186.3640  178.0730  145.3950 C   0  0  0  0  0  2  0  0  0  0  0  0
  189.5970  176.6220  145.2470 C   0  0  2  0  0  3  0  0  0  0  0  0
  189.3160  173.6870  145.7510 O   0  0  0  0  0  1  0  0  0  0  0  0
  189.2650  174.6330  143.5700 C   0  0  2  0  0  3  0  0  0  0  0  0
  190.1120  173.8790  144.6220 C   0  0  1  0  0  0  0  0  0  0  0  0
  192.0000  171.0220  142.8770 O   0  0  0  0  0  0  0  0  0  0  0  0
  193.4530  172.3110  145.0120 C   0  0  0  0  0  2  0  0  0  0  0  0
  187.4210  176.4150  143.8000 C   0  0  1  0  0  3  0  0  0  0  0  0
  187.1590  177.8870  144.0980 C   0  0  0  0  0  2  0  0  0  0  0  0
  192.9210  173.0780  143.8010 C   0  0  2  0  0  3  0  0  0  0  0  0
  194.2860  174.9990  145.7330 O   0  0  0  0  0  0  0  0  0  0  0  0
  195.5390  175.5120  145.7630 N   0  0  0  0  0  2  0  0  0  0  0  0
  196.4040  174.5370  145.1240 C   0  0  0  0  0  2  0  0  0  0  0  0
  196.8160  173.4900  146.1360 C   0  0  0  0  0  1  0  0  0  0  0  0
  1  5  1  6  0  0  0
  3 24  1  0  0  0  0
  4  1  1  0  0  0  0
  5 10  1  0  0  0  0
  6 23  1  0  0  0  0
  7 10  1  0  0  0  0
  7 27  1  0  0  0  0
  8 21  1  0  0  0  0
  9 20  1  0  0  0  0
 11  7  1  0  0  0  0
 11  4  1  0  0  0  0
 12  2  1  0  0  0  0
 13 26  1  0  0  0  0
 13  8  1  0  0  0  0
 14  6  1  0  0  0  0
 15  2  1  0  0  0  0
 16 18  1  0  0  0  0
 17 12  1  0  0  0  0
 18  1  1  0  0  0  0
 18 15  1  0  0  0  0
 20 16  1  0  0  0  0
 20 21  1  0  0  0  0
 21  4  1  0  0  0  0
 21 19  1  0  0  0  0
 22 13  1  0  0  0  0
 22 14  1  0  0  0  0
 24 16  1  0  0  0  0
 24 25  1  0  0  0  0
 25 17  1  0  0  0  0
 26 11  1  0  0  0  0
 26 23  1  0  0  0  0
 27 28  1  0  0  0  0
 29 28  1  0  0  0  0
 29 30  1  0  0  0  0
M  END
>  <MODEL>
8

>  <REMARK>
 VINA RESULT:      -7.3      2.643      7.017
  Name = 
  3 active torsions:
  status: ('A' for Active; 'I' for Inactive)
    1  A    between atoms: O_6  and  C_8
    2  A    between atoms: O_6  and  N_21
    3  A    between atoms: C_9  and  N_21
                            x       y       z     vdW  Elec       q    Type
                         _______ _______ _______ _____ _____    ______ ____

>  <TORSDO>
F 3

$$$$
=
 OpenBabel11052417223D

 30 34  0  0  1  0  0  0  0  0999 V2000
  189.4070  175.2190  142.8590 C   0  0  1  0  0  3  0  0  0  0  0  0
  187.0740  177.7330  141.3170 C   0  0  0  0  0  2  0  0  0  0  0  0
  186.0950  177.4310  145.9940 C   0  0  0  0  0  1  0  0  0  0  0  0
  190.6110  175.6410  143.7640 C   0  0  2  0  0  3  0  0  0  0  0  0
  188.9460  173.7790  143.1010 C   0  0  0  0  0  2  0  0  0  0  0  0
  194.7280  175.5880  145.6130 C   0  0  0  0  0  2  0  0  0  0  0  0
  191.3920  173.2030  143.6310 C   0  0  2  0  0  3  0  0  0  0  0  0
  191.4600  177.1320  145.6950 C   0  0  0  0  0  2  0  0  0  0  0  0
  188.9160  175.7690  146.4890 C   0  0  0  0  0  1  0  0  0  0  0  0
  190.0960  172.7880  142.9200 C   0  0  0  0  0  2  0  0  0  0  0  0
  191.1870  174.4330  144.5310 C   0  0  1  0  0  3  0  0  0  0  0  0
  186.3910  178.6500  142.1220 O   0  0  0  0  0  0  0  0  0  0  0  0
  192.0000  175.8780  146.3990 C   0  0  2  0  0  3  0  0  0  0  0  0
  194.1750  176.6640  146.5450 C   0  0  0  0  0  2  0  0  0  0  0  0
  188.3790  177.3430  141.9930 C   0  0  0  0  0  2  0  0  0  0  0  0
  187.7890  176.4760  144.3880 C   0  0  1  0  0  3  0  0  0  0  0  0
  185.2050  178.0170  142.5240 C   0  0  0  0  0  2  0  0  0  0  0  0
  188.1910  176.1450  142.9250 C   0  0  2  0  0  3  0  0  0  0  0  0
  190.3340  178.0130  143.8560 O   0  0  0  0  0  1  0  0  0  0  0  0
  188.9540  176.7830  145.3530 C   0  0  2  0  0  3  0  0  0  0  0  0
  190.3380  176.8790  144.6680 C   0  0  1  0  0  0  0  0  0  0  0  0
  193.0680  176.1790  147.2810 O   0  0  0  0  0  0  0  0  0  0  0  0
  193.6360  175.1790  144.6340 C   0  0  0  0  0  2  0  0  0  0  0  0
  186.5920  177.4280  144.5590 C   0  0  1  0  0  3  0  0  0  0  0  0
  185.4380  177.0100  143.6560 C   0  0  0  0  0  2  0  0  0  0  0  0
  192.3880  174.7700  145.4160 C   0  0  2  0  0  3  0  0  0  0  0  0
  192.3770  173.4490  142.6700 O   0  0  0  0  0  0  0  0  0  0  0  0
  192.8590  172.2240  142.3510 N   0  0  0  0  0  2  0  0  0  0  0  0
  193.5690  171.7380  143.5200 C   0  0  0  0  0  2  0  0  0  0  0  0
  195.0590  171.7780  143.2570 C   0  0  0  0  0  1  0  0  0  0  0  0
  1 18  1  0  0  0  0
  1  5  1  1  0  0  0
  1  4  1  0  0  0  0
  2 15  1  0  0  0  0
  2 12  1  0  0  0  0
  4 11  1  0  0  0  0
  4 21  1  0  0  0  0
  6 14  1  0  0  0  0
  7 11  1  0  0  0  0
  8 13  1  0  0  0  0
 10  5  1  0  0  0  0
 10  7  1  0  0  0  0
 11 26  1  0  0  0  0
 12 17  1  0  0  0  0
 13 22  1  0  0  0  0
 14 22  1  0  0  0  0
 15 18  1  0  0  0  0
 16 24  1  0  0  0  0
 16 20  1  0  0  0  0
 17 25  1  0  0  0  0
 18 16  1  0  0  0  0
 19 21  1  0  0  0  0
 20  9  1  0  0  0  0
 21 20  1  0  0  0  0
 21  8  1  0  0  0  0
 23 26  1  0  0  0  0
 23  6  1  0  0  0  0
 24  3  1  0  0  0  0
 25 24  1  0  0  0  0
 26 13  1  0  0  0  0
 27  7  1  0  0  0  0
 28 27  1  0  0  0  0
 28 29  1  0  0  0  0
 30 29  1  0  0  0  0
M  END
>  <MODEL>
9

>  <REMARK>
 VINA RESULT:      -7.2      2.369      7.189
  Name = 
  3 active torsions:
  status: ('A' for Active; 'I' for Inactive)
    1  A    between atoms: O_6  and  C_8
    2  A    between atoms: O_6  and  N_21
    3  A    between atoms: C_9  and  N_21
                            x       y       z     vdW  Elec       q    Type
                         _______ _______ _______ _____ _____    ______ ____

>  <TORSDO>
F 3

$$$$
