=
 OpenBabel11052419053D

 32 35  0  0  1  0  0  0  0  0999 V2000
  190.3890  174.5260  142.2230 C   0  0  1  0  0  3  0  0  0  0  0  0
  189.4460  175.1790  143.2550 C   0  0  2  0  0  3  0  0  0  0  0  0
  191.6960  173.9410  142.7910 C   0  0  2  0  0  3  0  0  0  0  0  0
  191.1530  175.6350  147.7520 C   0  0  0  0  0  3  0  0  0  0  0  0
  189.4270  174.4860  144.6080 C   0  0  0  0  0  2  0  0  0  0  0  0
  192.8360  175.5610  146.0210 C   0  0  0  0  0  3  0  0  0  0  0  0
  191.8880  175.1380  145.0820 C   0  0  0  0  0  0  0  0  0  0  0  0
  191.5760  172.6020  143.5340 C   0  0  0  0  0  2  0  0  0  0  0  0
  189.7730  173.7490  141.0870 C   0  0  0  0  0  0  0  0  0  0  0  0
  192.3970  174.9830  143.6640 C   0  0  0  0  0  2  0  0  0  0  0  0
  189.1740  172.3760  141.2350 C   0  0  0  0  0  2  0  0  0  0  0  0
  189.7720  174.2560  139.9780 O   0  0  0  0  0  0  0  0  0  0  0  0
  190.9860  171.4870  142.6920 C   0  0  0  0  0  2  0  0  0  0  0  0
  190.5310  174.9860  145.4930 C   0  0  0  0  0  0  0  0  0  0  0  0
  189.4900  171.6940  142.5540 C   0  0  0  0  0  2  0  0  0  0  0  0
  192.4750  175.8040  147.3470 C   0  0  0  0  0  3  0  0  0  0  0  0
  190.1900  175.2250  146.8300 C   0  0  0  0  0  3  0  0  0  0  0  0
  187.2450  174.7830  142.3880 O   0  0  0  0  0  1  0  0  0  0  0  0
  188.1120  175.8090  142.7800 C   0  0  1  0  0  0  0  0  0  0  0  0
  187.5460  178.2660  145.5930 C   0  0  0  0  0  3  0  0  0  0  0  0
  185.6260  176.8330  145.4270 C   0  0  0  0  0  3  0  0  0  0  0  0
  187.4800  176.5390  143.9120 N   0  0  0  0  0  0  0  0  0  0  0  0
  186.2780  177.8980  146.0490 C   0  0  0  0  0  0  0  0  0  0  0  0
  186.2420  176.1690  144.3670 C   0  0  0  0  0  3  0  0  0  0  0  0
  188.1380  177.5800  144.5310 C   0  0  0  0  0  0  0  0  0  0  0  0
  189.2880  177.9370  144.1530 O   0  0  0  0  0  0  0  0  0  0  0  0
  184.3620  178.5590  147.3470 N   0  0  0  0  0  2  0  0  0  0  0  0
  186.4560  179.4300  148.1230 C   0  0  0  0  0  1  0  0  0  0  0  0
  185.6420  178.6190  147.1720 C   0  0  0  0  0  0  0  0  0  0  0  0
  188.3500  176.7360  141.5600 C   0  0  0  0  0  2  0  0  0  0  0  0
  187.1730  176.8310  140.5960 C   0  0  0  0  0  2  0  0  0  0  0  0
  186.2490  177.9640  140.9970 C   0  0  0  0  0  1  0  0  0  0  0  0
  1  9  1  1  0  0  0
  1  3  1  0  0  0  0
  1  2  1  0  0  0  0
  2 19  1  6  0  0  0
  2  5  1  0  0  0  0
  3  8  1  1  0  0  0
  3 10  1  0  0  0  0
  5 14  1  0  0  0  0
  6 16  2  0  0  0  0
  7 14  2  0  0  0  0
  7  6  1  0  0  0  0
  9 11  1  0  0  0  0
 10  7  1  0  0  0  0
 11 15  1  0  0  0  0
 12  9  2  0  0  0  0
 13  8  1  0  0  0  0
 14 17  1  0  0  0  0
 15 13  1  0  0  0  0
 16  4  1  0  0  0  0
 17  4  2  0  0  0  0
 19 18  1  6  0  0  0
 19 22  1  0  0  0  0
 20 23  2  0  0  0  0
 21 23  1  0  0  0  0
 22 24  1  0  0  0  0
 22 25  1  0  0  0  0
 23 29  1  0  0  0  0
 24 21  2  0  0  0  0
 25 20  1  0  0  0  0
 26 25  2  0  0  0  0
 29 27  2  0  0  0  0
 29 28  1  0  0  0  0
 30 19  1  0  0  0  0
 31 32  1  0  0  0  0
 31 30  1  0  0  0  0
M  END
>  <MODEL>
1

>  <REMARK>
 VINA RESULT:      -7.1      0.000      0.000
  Name = 
  5 active torsions:
  status: ('A' for Active; 'I' for Inactive)
    1  A    between atoms: C_1  and  C_4
    2  A    between atoms: C_1  and  C_27
    3  A    between atoms: C_5  and  C_27
    4  A    between atoms: N_16  and  C_27
    5  A    between atoms: C_19  and  C_26
                            x       y       z     vdW  Elec       q    Type
                         _______ _______ _______ _____ _____    ______ ____

>  <TORSDO>
F 5

$$$$
=
 OpenBabel11052419053D

 32 35  0  0  1  0  0  0  0  0999 V2000
  187.2490  178.1840  145.8870 C   0  0  1  0  0  3  0  0  0  0  0  0
  187.9950  176.9840  145.2650 C   0  0  2  0  0  3  0  0  0  0  0  0
  186.1970  178.8560  144.9820 C   0  0  2  0  0  3  0  0  0  0  0  0
  187.1690  176.1190  140.5840 C   0  0  0  0  0  3  0  0  0  0  0  0
  187.1390  176.1240  144.3500 C   0  0  0  0  0  2  0  0  0  0  0  0
  186.8410  178.4100  141.2750 C   0  0  0  0  0  3  0  0  0  0  0  0
  186.8940  178.0380  142.6230 C   0  0  0  0  0  0  0  0  0  0  0  0
  184.8660  178.1100  144.8160 C   0  0  0  0  0  2  0  0  0  0  0  0
  186.8960  178.1230  147.3520 C   0  0  0  0  0  0  0  0  0  0  0  0
  186.8120  179.1760  143.6190 C   0  0  0  0  0  2  0  0  0  0  0  0
  185.7790  177.2860  147.9130 C   0  0  0  0  0  2  0  0  0  0  0  0
  187.5460  178.8030  148.1280 O   0  0  0  0  0  0  0  0  0  0  0  0
  184.1430  177.8500  146.1240 C   0  0  0  0  0  2  0  0  0  0  0  0
  187.1160  176.6680  142.9520 C   0  0  0  0  0  0  0  0  0  0  0  0
  184.8320  176.7230  146.8680 C   0  0  0  0  0  2  0  0  0  0  0  0
  186.9720  177.4600  140.2610 C   0  0  0  0  0  3  0  0  0  0  0  0
  187.2360  175.7280  141.9220 C   0  0  0  0  0  3  0  0  0  0  0  0
  188.4590  175.5500  147.1310 O   0  0  0  0  0  1  0  0  0  0  0  0
  189.0810  176.2500  146.0900 C   0  0  1  0  0  0  0  0  0  0  0  0
  191.1450  174.7530  143.3040 C   0  0  0  0  0  3  0  0  0  0  0  0
  190.3380  172.9750  144.7030 C   0  0  0  0  0  3  0  0  0  0  0  0
  189.7780  175.2620  145.2230 N   0  0  0  0  0  0  0  0  0  0  0  0
  191.0760  173.3880  143.5920 C   0  0  0  0  0  0  0  0  0  0  0  0
  189.6980  173.9230  145.4990 C   0  0  0  0  0  3  0  0  0  0  0  0
  190.4920  175.6780  144.1190 C   0  0  0  0  0  0  0  0  0  0  0  0
  190.5710  176.9020  143.8210 O   0  0  0  0  0  0  0  0  0  0  0  0
  192.7700  172.7560  142.0030 N   0  0  0  0  0  2  0  0  0  0  0  0
  191.3220  170.9760  142.6980 C   0  0  0  0  0  1  0  0  0  0  0  0
  191.7660  172.4000  142.7370 C   0  0  0  0  0  0  0  0  0  0  0  0
  190.0730  177.2660  146.7150 C   0  0  0  0  0  2  0  0  0  0  0  0
  191.0090  176.6770  147.7630 C   0  0  0  0  0  2  0  0  0  0  0  0
  192.3550  176.3480  147.1460 C   0  0  0  0  0  1  0  0  0  0  0  0
  1  9  1  1  0  0  0
  2  1  1  0  0  0  0
  2 19  1  1  0  0  0
  3 10  1  6  0  0  0
  3  1  1  0  0  0  0
  4 17  1  0  0  0  0
  5  2  1  0  0  0  0
  6  7  2  0  0  0  0
  7 14  1  0  0  0  0
  7 10  1  0  0  0  0
  8  3  1  0  0  0  0
  8 13  1  0  0  0  0
  9 11  1  0  0  0  0
  9 12  2  0  0  0  0
 13 15  1  0  0  0  0
 14  5  1  0  0  0  0
 15 11  1  0  0  0  0
 16  4  2  0  0  0  0
 16  6  1  0  0  0  0
 17 14  2  0  0  0  0
 19 30  1  0  0  0  0
 19 18  1  1  0  0  0
 20 23  2  0  0  0  0
 20 25  1  0  0  0  0
 21 24  2  0  0  0  0
 22 24  1  0  0  0  0
 22 19  1  0  0  0  0
 23 21  1  0  0  0  0
 25 22  1  0  0  0  0
 26 25  2  0  0  0  0
 27 29  2  0  0  0  0
 28 29  1  0  0  0  0
 29 23  1  0  0  0  0
 30 31  1  0  0  0  0
 32 31  1  0  0  0  0
M  END
>  <MODEL>
2

>  <REMARK>
 VINA RESULT:      -7.0      2.180      7.232
  Name = 
  5 active torsions:
  status: ('A' for Active; 'I' for Inactive)
    1  A    between atoms: C_1  and  C_4
    2  A    between atoms: C_1  and  C_27
    3  A    between atoms: C_5  and  C_27
    4  A    between atoms: N_16  and  C_27
    5  A    between atoms: C_19  and  C_26
                            x       y       z     vdW  Elec       q    Type
                         _______ _______ _______ _____ _____    ______ ____

>  <TORSDO>
F 5

$$$$
=
 OpenBabel11052419053D

 32 35  0  0  1  0  0  0  0  0999 V2000
  191.4110  174.3710  145.5110 C   0  0  1  0  0  3  0  0  0  0  0  0
  190.5300  175.0300  144.4290 C   0  0  2  0  0  3  0  0  0  0  0  0
  192.2410  173.1580  145.0460 C   0  0  2  0  0  3  0  0  0  0  0  0
  190.2740  172.7580  140.1730 C   0  0  0  0  0  3  0  0  0  0  0  0
  191.1480  175.0370  143.0410 C   0  0  0  0  0  2  0  0  0  0  0  0
  190.7760  171.3390  142.0620 C   0  0  0  0  0  3  0  0  0  0  0  0
  191.0220  172.4570  142.8680 C   0  0  0  0  0  0  0  0  0  0  0  0
  193.4920  173.4690  144.2120 C   0  0  0  0  0  2  0  0  0  0  0  0
  192.0820  175.2620  146.5250 C   0  0  0  0  0  0  0  0  0  0  0  0
  191.3400  172.1590  144.3190 C   0  0  0  0  0  2  0  0  0  0  0  0
  193.2860  176.1140  146.2290 C   0  0  0  0  0  2  0  0  0  0  0  0
  191.6310  175.2850  147.6570 O   0  0  0  0  0  0  0  0  0  0  0  0
  194.4860  174.3730  144.9150 C   0  0  0  0  0  2  0  0  0  0  0  0
  190.8630  173.7590  142.3090 C   0  0  0  0  0  0  0  0  0  0  0  0
  193.9680  175.7980  144.9090 C   0  0  0  0  0  2  0  0  0  0  0  0
  190.4090  171.4860  140.7230 C   0  0  0  0  0  3  0  0  0  0  0  0
  190.5030  173.8860  140.9620 C   0  0  0  0  0  3  0  0  0  0  0  0
  190.4790  177.3460  145.0530 O   0  0  0  0  0  1  0  0  0  0  0  0
  189.6470  176.2480  144.8010 C   0  0  1  0  0  0  0  0  0  0  0  0
  188.2790  177.9390  141.7130 C   0  0  0  0  0  3  0  0  0  0  0  0
  186.7560  176.2040  142.3780 C   0  0  0  0  0  3  0  0  0  0  0  0
  188.7680  176.5910  143.6520 N   0  0  0  0  0  0  0  0  0  0  0  0
  187.0950  177.2300  141.4950 C   0  0  0  0  0  0  0  0  0  0  0  0
  187.6010  175.9040  143.4460 C   0  0  0  0  0  3  0  0  0  0  0  0
  189.1030  177.6160  142.7930 C   0  0  0  0  0  0  0  0  0  0  0  0
  190.1600  178.2840  142.9620 O   0  0  0  0  0  0  0  0  0  0  0  0
  186.5440  177.2170  139.1520 N   0  0  0  0  0  2  0  0  0  0  0  0
  184.9380  178.3040  140.5610 C   0  0  0  0  0  1  0  0  0  0  0  0
  186.2160  177.5630  140.3540 C   0  0  0  0  0  0  0  0  0  0  0  0
  188.8270  175.9560  146.0850 C   0  0  0  0  0  2  0  0  0  0  0  0
  188.3970  177.1970  146.8580 C   0  0  0  0  0  2  0  0  0  0  0  0
  186.8850  177.3180  146.8680 C   0  0  0  0  0  1  0  0  0  0  0  0
  1  9  1  6  0  0  0
  2 19  1  1  0  0  0
  2  1  1  0  0  0  0
  3  8  1  6  0  0  0
  3  1  1  0  0  0  0
  4 16  2  0  0  0  0
  4 17  1  0  0  0  0
  5  2  1  0  0  0  0
  6  7  2  0  0  0  0
  7 10  1  0  0  0  0
  8 13  1  0  0  0  0
  9 12  2  0  0  0  0
 10  3  1  0  0  0  0
 11  9  1  0  0  0  0
 14  7  1  0  0  0  0
 14  5  1  0  0  0  0
 15 13  1  0  0  0  0
 15 11  1  0  0  0  0
 16  6  1  0  0  0  0
 17 14  2  0  0  0  0
 19 18  1  1  0  0  0
 19 30  1  0  0  0  0
 20 25  1  0  0  0  0
 21 24  2  0  0  0  0
 22 19  1  0  0  0  0
 23 20  2  0  0  0  0
 23 21  1  0  0  0  0
 24 22  1  0  0  0  0
 25 26  2  0  0  0  0
 25 22  1  0  0  0  0
 27 29  2  0  0  0  0
 29 28  1  0  0  0  0
 29 23  1  0  0  0  0
 30 31  1  0  0  0  0
 31 32  1  0  0  0  0
M  END
>  <MODEL>
3

>  <REMARK>
 VINA RESULT:      -7.0      2.084      5.205
  Name = 
  5 active torsions:
  status: ('A' for Active; 'I' for Inactive)
    1  A    between atoms: C_1  and  C_4
    2  A    between atoms: C_1  and  C_27
    3  A    between atoms: C_5  and  C_27
    4  A    between atoms: N_16  and  C_27
    5  A    between atoms: C_19  and  C_26
                            x       y       z     vdW  Elec       q    Type
                         _______ _______ _______ _____ _____    ______ ____

>  <TORSDO>
F 5

$$$$
=
 OpenBabel11052419053D

 32 35  0  0  1  0  0  0  0  0999 V2000
  189.8430  176.9960  145.7510 C   0  0  1  0  0  3  0  0  0  0  0  0
  188.9960  177.2000  144.4770 C   0  0  2  0  0  3  0  0  0  0  0  0
  189.0580  176.9760  147.0770 C   0  0  2  0  0  3  0  0  0  0  0  0
  184.3230  178.2380  145.1350 C   0  0  0  0  0  3  0  0  0  0  0  0
  187.6280  176.5390  144.5250 C   0  0  0  0  0  2  0  0  0  0  0  0
  185.7790  178.8720  146.9560 C   0  0  0  0  0  3  0  0  0  0  0  0
  186.8260  178.1170  146.4150 C   0  0  0  0  0  0  0  0  0  0  0  0
  188.2760  175.6920  147.3870 C   0  0  0  0  0  2  0  0  0  0  0  0
  191.0180  176.0530  145.6820 C   0  0  0  0  0  0  0  0  0  0  0  0
  188.1430  178.2000  147.1580 C   0  0  0  0  0  2  0  0  0  0  0  0
  190.8920  174.5540  145.6650 C   0  0  0  0  0  2  0  0  0  0  0  0
  192.1380  176.5320  145.6520 O   0  0  0  0  0  0  0  0  0  0  0  0
  189.1400  174.4460  147.4290 C   0  0  0  0  0  2  0  0  0  0  0  0
  186.6150  177.4270  145.1850 C   0  0  0  0  0  0  0  0  0  0  0  0
  189.5080  174.0360  146.0170 C   0  0  0  0  0  2  0  0  0  0  0  0
  184.5350  178.9300  146.3260 C   0  0  0  0  0  3  0  0  0  0  0  0
  185.3570  177.4890  144.5730 C   0  0  0  0  0  3  0  0  0  0  0  0
  190.9510  177.8460  143.2470 O   0  0  0  0  0  1  0  0  0  0  0  0
  189.6950  177.2480  143.0950 C   0  0  1  0  0  0  0  0  0  0  0  0
  191.3530  174.1300  141.7560 C   0  0  0  0  0  3  0  0  0  0  0  0
  189.0050  173.6990  142.0180 C   0  0  0  0  0  3  0  0  0  0  0  0
  189.9020  175.8620  142.5970 N   0  0  0  0  0  0  0  0  0  0  0  0
  190.2740  173.2490  141.6520 C   0  0  0  0  0  0  0  0  0  0  0  0
  188.8410  175.0030  142.4840 C   0  0  0  0  0  3  0  0  0  0  0  0
  191.1570  175.4300  142.2230 C   0  0  0  0  0  0  0  0  0  0  0  0
  192.1540  176.1990  142.2950 O   0  0  0  0  0  0  0  0  0  0  0  0
  190.5160  170.8780  141.9890 N   0  0  0  0  0  2  0  0  0  0  0  0
  190.6240  171.5890  139.7030 C   0  0  0  0  0  1  0  0  0  0  0  0
  190.4710  171.8690  141.1600 C   0  0  0  0  0  0  0  0  0  0  0  0
  188.8700  178.1010  142.0960 C   0  0  0  0  0  2  0  0  0  0  0  0
  187.9120  177.3020  141.2200 C   0  0  0  0  0  2  0  0  0  0  0  0
  186.5480  177.9630  141.1870 C   0  0  0  0  0  1  0  0  0  0  0  0
  1  9  1  6  0  0  0
  1  3  1  0  0  0  0
  2 19  1  6  0  0  0
  2  5  1  0  0  0  0
  2  1  1  0  0  0  0
  3 10  1  6  0  0  0
  3  8  1  0  0  0  0
  4 16  1  0  0  0  0
  5 14  1  0  0  0  0
  7  6  1  0  0  0  0
  7 10  1  0  0  0  0
  8 13  1  0  0  0  0
 11  9  1  0  0  0  0
 11 15  1  0  0  0  0
 12  9  2  0  0  0  0
 14  7  2  0  0  0  0
 15 13  1  0  0  0  0
 16  6  2  0  0  0  0
 17  4  2  0  0  0  0
 17 14  1  0  0  0  0
 19 18  1  1  0  0  0
 20 25  1  0  0  0  0
 21 24  2  0  0  0  0
 22 19  1  0  0  0  0
 23 20  2  0  0  0  0
 23 21  1  0  0  0  0
 24 22  1  0  0  0  0
 25 26  2  0  0  0  0
 25 22  1  0  0  0  0
 28 29  1  0  0  0  0
 29 23  1  0  0  0  0
 29 27  2  0  0  0  0
 30 19  1  0  0  0  0
 31 30  1  0  0  0  0
 32 31  1  0  0  0  0
M  END
>  <MODEL>
4

>  <REMARK>
 VINA RESULT:      -6.9      2.256      6.078
  Name = 
  5 active torsions:
  status: ('A' for Active; 'I' for Inactive)
    1  A    between atoms: C_1  and  C_4
    2  A    between atoms: C_1  and  C_27
    3  A    between atoms: C_5  and  C_27
    4  A    between atoms: N_16  and  C_27
    5  A    between atoms: C_19  and  C_26
                            x       y       z     vdW  Elec       q    Type
                         _______ _______ _______ _____ _____    ______ ____

>  <TORSDO>
F 5

$$$$
=
 OpenBabel11052419053D

 32 35  0  0  1  0  0  0  0  0999 V2000
  188.1780  175.4770  143.7850 C   0  0  1  0  0  3  0  0  0  0  0  0
  188.6620  175.7030  145.2330 C   0  0  2  0  0  3  0  0  0  0  0  0
  187.0510  176.4130  143.3050 C   0  0  2  0  0  3  0  0  0  0  0  0
  186.1380  178.8550  147.8860 C   0  0  0  0  0  3  0  0  0  0  0  0
  188.6660  177.1600  145.6680 C   0  0  0  0  0  2  0  0  0  0  0  0
  184.9010  177.7970  146.1010 C   0  0  0  0  0  3  0  0  0  0  0  0
  186.0840  177.3030  145.5400 C   0  0  0  0  0  0  0  0  0  0  0  0
  187.4640  177.8470  142.9460 C   0  0  0  0  0  2  0  0  0  0  0  0
  189.2010  175.1090  142.7400 C   0  0  0  0  0  0  0  0  0  0  0  0
  185.9100  176.4170  144.3230 C   0  0  0  0  0  2  0  0  0  0  0  0
  190.1750  176.0850  142.1380 C   0  0  0  0  0  2  0  0  0  0  0  0
  189.2330  173.9550  142.3490 O   0  0  0  0  0  0  0  0  0  0  0  0
  188.5220  177.9250  141.8610 C   0  0  0  0  0  2  0  0  0  0  0  0
  187.3230  177.5770  146.1910 C   0  0  0  0  0  0  0  0  0  0  0  0
  189.8700  177.5420  142.4400 C   0  0  0  0  0  2  0  0  0  0  0  0
  184.9250  178.5710  147.2630 C   0  0  0  0  0  3  0  0  0  0  0  0
  187.3280  178.3630  147.3490 C   0  0  0  0  0  3  0  0  0  0  0  0
  189.5070  173.4720  145.4790 O   0  0  0  0  0  1  0  0  0  0  0  0
  189.7820  174.8030  145.8130 C   0  0  1  0  0  0  0  0  0  0  0  0
  193.1160  174.5540  144.0540 C   0  0  0  0  0  3  0  0  0  0  0  0
  192.7180  176.8530  144.6240 C   0  0  0  0  0  3  0  0  0  0  0  0
  191.0840  175.1730  145.1950 N   0  0  0  0  0  0  0  0  0  0  0  0
  193.5380  175.8850  144.0410 C   0  0  0  0  0  0  0  0  0  0  0  0
  191.5020  176.4780  145.1940 C   0  0  0  0  0  3  0  0  0  0  0  0
  191.8940  174.2090  144.6350 C   0  0  0  0  0  0  0  0  0  0  0  0
  191.5520  172.9940  144.6350 O   0  0  0  0  0  0  0  0  0  0  0  0
  195.8040  176.6850  144.1620 N   0  0  0  0  0  2  0  0  0  0  0  0
  195.0340  176.1650  141.9530 C   0  0  0  0  0  1  0  0  0  0  0  0
  194.8280  176.2620  143.4270 C   0  0  0  0  0  0  0  0  0  0  0  0
  189.8280  174.9160  147.3590 C   0  0  0  0  0  2  0  0  0  0  0  0
  191.1910  175.2910  147.9280 C   0  0  0  0  0  2  0  0  0  0  0  0
  191.1920  176.7320  148.3990 C   0  0  0  0  0  1  0  0  0  0  0  0
  1  9  1  6  0  0  0
  1  2  1  0  0  0  0
  2  5  1  0  0  0  0
  2 19  1  6  0  0  0
  3  8  1  1  0  0  0
  3  1  1  0  0  0  0
  3 10  1  0  0  0  0
  5 14  1  0  0  0  0
  6 16  1  0  0  0  0
  7  6  2  0  0  0  0
  7 14  1  0  0  0  0
 10  7  1  0  0  0  0
 11 15  1  0  0  0  0
 11  9  1  0  0  0  0
 12  9  2  0  0  0  0
 13 15  1  0  0  0  0
 13  8  1  0  0  0  0
 14 17  2  0  0  0  0
 16  4  2  0  0  0  0
 17  4  1  0  0  0  0
 19 18  1  6  0  0  0
 19 30  1  0  0  0  0
 20 25  1  0  0  0  0
 21 24  2  0  0  0  0
 22 19  1  0  0  0  0
 23 20  2  0  0  0  0
 23 21  1  0  0  0  0
 24 22  1  0  0  0  0
 25 22  1  0  0  0  0
 26 25  2  0  0  0  0
 28 29  1  0  0  0  0
 29 23  1  0  0  0  0
 29 27  2  0  0  0  0
 30 31  1  0  0  0  0
 31 32  1  0  0  0  0
M  END
>  <MODEL>
5

>  <REMARK>
 VINA RESULT:      -6.9      2.437      6.477
  Name = 
  5 active torsions:
  status: ('A' for Active; 'I' for Inactive)
    1  A    between atoms: C_1  and  C_4
    2  A    between atoms: C_1  and  C_27
    3  A    between atoms: C_5  and  C_27
    4  A    between atoms: N_16  and  C_27
    5  A    between atoms: C_19  and  C_26
                            x       y       z     vdW  Elec       q    Type
                         _______ _______ _______ _____ _____    ______ ____

>  <TORSDO>
F 5

$$$$
=
 OpenBabel11052419053D

 32 35  0  0  1  0  0  0  0  0999 V2000
  190.1630  174.9070  145.8060 C   0  0  1  0  0  3  0  0  0  0  0  0
  189.3240  175.7020  144.7830 C   0  0  2  0  0  3  0  0  0  0  0  0
  190.8360  173.6290  145.2660 C   0  0  2  0  0  3  0  0  0  0  0  0
  188.6700  173.6430  140.4610 C   0  0  0  0  0  3  0  0  0  0  0  0
  189.8910  175.6960  143.3730 C   0  0  0  0  0  2  0  0  0  0  0  0
  189.0760  172.1030  142.2780 C   0  0  0  0  0  3  0  0  0  0  0  0
  189.4730  173.1540  143.1130 C   0  0  0  0  0  0  0  0  0  0  0  0
  192.0850  173.8330  144.3960 C   0  0  0  0  0  2  0  0  0  0  0  0
  190.9640  175.6780  146.8240 C   0  0  0  0  0  0  0  0  0  0  0  0
  189.8050  172.7650  144.5390 C   0  0  0  0  0  2  0  0  0  0  0  0
  192.2450  176.4030  146.5120 C   0  0  0  0  0  2  0  0  0  0  0  0
  190.5580  175.7050  147.9730 O   0  0  0  0  0  0  0  0  0  0  0  0
  193.1970  174.5940  145.0920 C   0  0  0  0  0  2  0  0  0  0  0  0
  189.4400  174.4870  142.6070 C   0  0  0  0  0  0  0  0  0  0  0  0
  192.8410  176.0670  145.1570 C   0  0  0  0  0  2  0  0  0  0  0  0
  188.6820  172.3420  140.9600 C   0  0  0  0  0  3  0  0  0  0  0  0
  189.0510  174.7060  141.2810 C   0  0  0  0  0  3  0  0  0  0  0  0
  189.5150  178.0500  145.2360 O   0  0  0  0  0  1  0  0  0  0  0  0
  188.5960  176.9940  145.2320 C   0  0  1  0  0  0  0  0  0  0  0  0
  185.2300  177.1600  143.5270 C   0  0  0  0  0  3  0  0  0  0  0  0
  186.8190  178.3940  142.2140 C   0  0  0  0  0  3  0  0  0  0  0  0
  187.5230  177.3210  144.2560 N   0  0  0  0  0  0  0  0  0  0  0  0
  185.5120  177.9380  142.4020 C   0  0  0  0  0  0  0  0  0  0  0  0
  187.8040  178.0740  143.1470 C   0  0  0  0  0  3  0  0  0  0  0  0
  186.2390  176.8540  144.4420 C   0  0  0  0  0  0  0  0  0  0  0  0
  185.9460  176.1410  145.4410 O   0  0  0  0  0  0  0  0  0  0  0  0
  184.7530  178.5650  140.2060 N   0  0  0  0  0  2  0  0  0  0  0  0
  183.0150  178.2730  141.8300 C   0  0  0  0  0  1  0  0  0  0  0  0
  184.4520  178.2700  141.4280 C   0  0  0  0  0  0  0  0  0  0  0  0
  188.0370  176.8330  146.6700 C   0  0  0  0  0  2  0  0  0  0  0  0
  187.9950  178.1220  147.4820 C   0  0  0  0  0  2  0  0  0  0  0  0
  186.5650  178.4820  147.8330 C   0  0  0  0  0  1  0  0  0  0  0  0
  1  9  1  6  0  0  0
  2 19  1  1  0  0  0
  2  1  1  0  0  0  0
  3  8  1  6  0  0  0
  3  1  1  0  0  0  0
  4 16  2  0  0  0  0
  4 17  1  0  0  0  0
  5  2  1  0  0  0  0
  6  7  2  0  0  0  0
  7 10  1  0  0  0  0
  8 13  1  0  0  0  0
  9 12  2  0  0  0  0
 10  3  1  0  0  0  0
 11  9  1  0  0  0  0
 13 15  1  0  0  0  0
 14  7  1  0  0  0  0
 14  5  1  0  0  0  0
 15 11  1  0  0  0  0
 16  6  1  0  0  0  0
 17 14  2  0  0  0  0
 19 18  1  1  0  0  0
 19 30  1  0  0  0  0
 20 25  1  0  0  0  0
 21 23  1  0  0  0  0
 21 24  2  0  0  0  0
 22 25  1  0  0  0  0
 22 19  1  0  0  0  0
 23 20  2  0  0  0  0
 24 22  1  0  0  0  0
 25 26  2  0  0  0  0
 27 29  2  0  0  0  0
 29 28  1  0  0  0  0
 29 23  1  0  0  0  0
 30 31  1  0  0  0  0
 31 32  1  0  0  0  0
M  END
>  <MODEL>
6

>  <REMARK>
 VINA RESULT:      -6.8      1.996      5.133
  Name = 
  5 active torsions:
  status: ('A' for Active; 'I' for Inactive)
    1  A    between atoms: C_1  and  C_4
    2  A    between atoms: C_1  and  C_27
    3  A    between atoms: C_5  and  C_27
    4  A    between atoms: N_16  and  C_27
    5  A    between atoms: C_19  and  C_26
                            x       y       z     vdW  Elec       q    Type
                         _______ _______ _______ _____ _____    ______ ____

>  <TORSDO>
F 5

$$$$
=
 OpenBabel11052419053D

 32 35  0  0  1  0  0  0  0  0999 V2000
  191.0750  176.4100  145.2120 C   0  0  1  0  0  3  0  0  0  0  0  0
  190.8840  175.3360  144.1210 C   0  0  2  0  0  3  0  0  0  0  0  0
  190.0280  177.5410  145.2250 C   0  0  2  0  0  3  0  0  0  0  0  0
  187.4410  176.1820  140.8380 C   0  0  0  0  0  3  0  0  0  0  0  0
  189.4310  175.0110  143.8130 C   0  0  0  0  0  2  0  0  0  0  0  0
  188.3810  178.1550  141.8680 C   0  0  0  0  0  3  0  0  0  0  0  0
  189.0080  177.3760  142.8470 C   0  0  0  0  0  0  0  0  0  0  0  0
  188.6520  177.1880  145.8080 C   0  0  0  0  0  2  0  0  0  0  0  0
  191.5660  175.9690  146.5680 C   0  0  0  0  0  0  0  0  0  0  0  0
  189.8850  178.1340  143.8220 C   0  0  0  0  0  2  0  0  0  0  0  0
  190.7110  175.2580  147.5810 C   0  0  0  0  0  2  0  0  0  0  0  0
  192.7220  176.2150  146.8680 O   0  0  0  0  0  0  0  0  0  0  0  0
  188.7050  176.6910  147.2410 C   0  0  0  0  0  2  0  0  0  0  0  0
  188.8630  175.9580  142.7980 C   0  0  0  0  0  0  0  0  0  0  0  0
  189.2250  175.2670  147.2640 C   0  0  0  0  0  2  0  0  0  0  0  0
  187.5990  177.5660  140.8730 C   0  0  0  0  0  3  0  0  0  0  0  0
  188.0680  175.3860  141.7980 C   0  0  0  0  0  3  0  0  0  0  0  0
  191.8090  173.3930  145.1810 O   0  0  0  0  0  1  0  0  0  0  0  0
  191.8940  174.1650  144.0160 C   0  0  1  0  0  0  0  0  0  0  0  0
  191.3330  172.9440  140.4860 C   0  0  0  0  0  3  0  0  0  0  0  0
  190.6710  171.2120  142.0130 C   0  0  0  0  0  3  0  0  0  0  0  0
  191.5290  173.2990  142.8630 N   0  0  0  0  0  0  0  0  0  0  0  0
  190.8290  171.6590  140.7000 C   0  0  0  0  0  0  0  0  0  0  0  0
  191.0230  172.0440  143.0740 C   0  0  0  0  0  3  0  0  0  0  0  0
  191.6740  173.7550  141.5700 C   0  0  0  0  0  0  0  0  0  0  0  0
  192.1180  174.9130  141.3360 O   0  0  0  0  0  0  0  0  0  0  0  0
  190.8160  169.5470  139.5460 N   0  0  0  0  0  2  0  0  0  0  0  0
  189.6910  171.3290  138.4030 C   0  0  0  0  0  1  0  0  0  0  0  0
  190.4660  170.7910  139.5600 C   0  0  0  0  0  0  0  0  0  0  0  0
  193.3430  174.7030  143.8960 C   0  0  0  0  0  2  0  0  0  0  0  0
  194.3800  173.9140  144.6860 C   0  0  0  0  0  2  0  0  0  0  0  0
  195.4500  174.8410  145.2290 C   0  0  0  0  0  1  0  0  0  0  0  0
  1  3  1  0  0  0  0
  1  9  1  1  0  0  0
  2 19  1  1  0  0  0
  2  1  1  0  0  0  0
  3 10  1  6  0  0  0
  3  8  1  0  0  0  0
  4 16  2  0  0  0  0
  4 17  1  0  0  0  0
  5  2  1  0  0  0  0
  6  7  2  0  0  0  0
  7 10  1  0  0  0  0
  8 13  1  0  0  0  0
  9 12  2  0  0  0  0
  9 11  1  0  0  0  0
 13 15  1  0  0  0  0
 14  7  1  0  0  0  0
 14  5  1  0  0  0  0
 15 11  1  0  0  0  0
 16  6  1  0  0  0  0
 17 14  2  0  0  0  0
 19 18  1  1  0  0  0
 20 23  2  0  0  0  0
 20 25  1  0  0  0  0
 21 24  2  0  0  0  0
 22 24  1  0  0  0  0
 22 19  1  0  0  0  0
 23 21  1  0  0  0  0
 25 22  1  0  0  0  0
 26 25  2  0  0  0  0
 27 29  2  0  0  0  0
 28 29  1  0  0  0  0
 29 23  1  0  0  0  0
 30 19  1  0  0  0  0
 30 31  1  0  0  0  0
 31 32  1  0  0  0  0
M  END
>  <MODEL>
7

>  <REMARK>
 VINA RESULT:      -6.7      2.892      7.259
  Name = 
  5 active torsions:
  status: ('A' for Active; 'I' for Inactive)
    1  A    between atoms: C_1  and  C_4
    2  A    between atoms: C_1  and  C_27
    3  A    between atoms: C_5  and  C_27
    4  A    between atoms: N_16  and  C_27
    5  A    between atoms: C_19  and  C_26
                            x       y       z     vdW  Elec       q    Type
                         _______ _______ _______ _____ _____    ______ ____

>  <TORSDO>
F 5

$$$$
=
 OpenBabel11052419053D

 32 35  0  0  1  0  0  0  0  0999 V2000
  191.5850  174.0920  145.0920 C   0  0  1  0  0  3  0  0  0  0  0  0
  191.8810  174.4990  143.6330 C   0  0  2  0  0  3  0  0  0  0  0  0
  192.6650  174.4770  146.1230 C   0  0  2  0  0  3  0  0  0  0  0  0
  196.2660  176.3200  142.7450 C   0  0  0  0  0  3  0  0  0  0  0  0
  192.6090  175.8260  143.4910 C   0  0  0  0  0  2  0  0  0  0  0  0
  196.1380  174.8450  144.6530 C   0  0  0  0  0  3  0  0  0  0  0  0
  194.7390  174.8860  144.6230 C   0  0  0  0  0  0  0  0  0  0  0  0
  192.7120  175.9540  146.5400 C   0  0  0  0  0  2  0  0  0  0  0  0
  190.1620  174.1820  145.5830 C   0  0  0  0  0  0  0  0  0  0  0  0
  194.0370  174.0080  145.6380 C   0  0  0  0  0  2  0  0  0  0  0  0
  189.4710  175.4740  145.9260 C   0  0  0  0  0  2  0  0  0  0  0  0
  189.5370  173.1450  145.7240 O   0  0  0  0  0  0  0  0  0  0  0  0
  191.4110  176.4630  147.1320 C   0  0  0  0  0  2  0  0  0  0  0  0
  194.0940  175.6490  143.6050 C   0  0  0  0  0  0  0  0  0  0  0  0
  190.3980  176.6730  146.0240 C   0  0  0  0  0  2  0  0  0  0  0  0
  196.8980  175.5590  143.7260 C   0  0  0  0  0  3  0  0  0  0  0  0
  194.8730  176.3660  142.6900 C   0  0  0  0  0  3  0  0  0  0  0  0
  190.3020  172.8930  142.8050 O   0  0  0  0  0  1  0  0  0  0  0  0
  190.8620  174.1440  142.5200 C   0  0  1  0  0  0  0  0  0  0  0  0
  187.4200  175.6930  142.3970 C   0  0  0  0  0  3  0  0  0  0  0  0
  189.0460  177.4500  142.5960 C   0  0  0  0  0  3  0  0  0  0  0  0
  189.7650  175.1490  142.5150 N   0  0  0  0  0  0  0  0  0  0  0  0
  187.7100  177.0550  142.4980 C   0  0  0  0  0  0  0  0  0  0  0  0
  190.0520  176.4860  142.6010 C   0  0  0  0  0  3  0  0  0  0  0  0
  188.4500  174.7520  142.4020 C   0  0  0  0  0  0  0  0  0  0  0  0
  188.1480  173.5310  142.3010 O   0  0  0  0  0  0  0  0  0  0  0  0
  186.0050  178.3510  141.3990 N   0  0  0  0  0  2  0  0  0  0  0  0
  186.2280  178.7620  143.7500 C   0  0  0  0  0  1  0  0  0  0  0  0
  186.6260  178.0610  142.4950 C   0  0  0  0  0  0  0  0  0  0  0  0
  191.5680  174.0560  141.1420 C   0  0  0  0  0  2  0  0  0  0  0  0
  192.6910  173.0290  141.0690 C   0  0  0  0  0  2  0  0  0  0  0  0
  193.9230  173.6340  140.4250 C   0  0  0  0  0  1  0  0  0  0  0  0
  1  9  1  1  0  0  0
  1  3  1  0  0  0  0
  2 19  1  6  0  0  0
  2  1  1  0  0  0  0
  3 10  1  6  0  0  0
  3  8  1  0  0  0  0
  4 16  1  0  0  0  0
  5 14  1  0  0  0  0
  5  2  1  0  0  0  0
  7  6  1  0  0  0  0
  7 10  1  0  0  0  0
  8 13  1  0  0  0  0
  9 12  2  0  0  0  0
  9 11  1  0  0  0  0
 11 15  1  0  0  0  0
 14  7  2  0  0  0  0
 15 13  1  0  0  0  0
 16  6  2  0  0  0  0
 17  4  2  0  0  0  0
 17 14  1  0  0  0  0
 19 18  1  1  0  0  0
 20 25  1  0  0  0  0
 20 23  2  0  0  0  0
 21 24  2  0  0  0  0
 22 19  1  0  0  0  0
 22 24  1  0  0  0  0
 23 21  1  0  0  0  0
 25 22  1  0  0  0  0
 26 25  2  0  0  0  0
 27 29  2  0  0  0  0
 29 23  1  0  0  0  0
 29 28  1  0  0  0  0
 30 19  1  0  0  0  0
 31 30  1  0  0  0  0
 32 31  1  0  0  0  0
M  END
>  <MODEL>
8

>  <REMARK>
 VINA RESULT:      -6.5      2.445      4.887
  Name = 
  5 active torsions:
  status: ('A' for Active; 'I' for Inactive)
    1  A    between atoms: C_1  and  C_4
    2  A    between atoms: C_1  and  C_27
    3  A    between atoms: C_5  and  C_27
    4  A    between atoms: N_16  and  C_27
    5  A    between atoms: C_19  and  C_26
                            x       y       z     vdW  Elec       q    Type
                         _______ _______ _______ _____ _____    ______ ____

>  <TORSDO>
F 5

$$$$
=
 OpenBabel11052419053D

 32 35  0  0  1  0  0  0  0  0999 V2000
  190.8140  176.5120  145.3400 C   0  0  1  0  0  3  0  0  0  0  0  0
  190.8860  175.5120  144.1660 C   0  0  2  0  0  3  0  0  0  0  0  0
  189.5920  177.4500  145.3420 C   0  0  2  0  0  3  0  0  0  0  0  0
  187.5890  176.0420  140.6750 C   0  0  0  0  0  3  0  0  0  0  0  0
  189.5350  174.9790  143.7180 C   0  0  0  0  0  2  0  0  0  0  0  0
  188.1040  178.0530  141.9100 C   0  0  0  0  0  3  0  0  0  0  0  0
  188.7850  177.3120  142.8820 C   0  0  0  0  0  0  0  0  0  0  0  0
  188.2580  176.8310  145.7840 C   0  0  0  0  0  2  0  0  0  0  0  0
  191.2760  176.0500  146.6990 C   0  0  0  0  0  0  0  0  0  0  0  0
  189.4490  178.1230  143.9760 C   0  0  0  0  0  2  0  0  0  0  0  0
  190.4850  175.1290  147.5870 C   0  0  0  0  0  2  0  0  0  0  0  0
  192.3490  176.4570  147.1100 O   0  0  0  0  0  0  0  0  0  0  0  0
  188.2940  176.2360  147.1790 C   0  0  0  0  0  2  0  0  0  0  0  0
  188.8860  175.8980  142.7250 C   0  0  0  0  0  0  0  0  0  0  0  0
  189.0460  174.9200  147.1500 C   0  0  0  0  0  2  0  0  0  0  0  0
  187.5060  177.4260  140.8160 C   0  0  0  0  0  3  0  0  0  0  0  0
  188.2720  175.2860  141.6270 C   0  0  0  0  0  3  0  0  0  0  0  0
  192.0160  173.6300  145.1330 O   0  0  0  0  0  1  0  0  0  0  0  0
  192.0850  174.5350  144.0670 C   0  0  1  0  0  0  0  0  0  0  0  0
  191.5710  171.6970  141.6290 C   0  0  0  0  0  3  0  0  0  0  0  0
  192.1680  173.6700  140.3960 C   0  0  0  0  0  3  0  0  0  0  0  0
  191.9890  173.7630  142.8000 N   0  0  0  0  0  0  0  0  0  0  0  0
  191.8220  172.3180  140.4030 C   0  0  0  0  0  0  0  0  0  0  0  0
  192.2470  174.3700  141.5990 C   0  0  0  0  0  3  0  0  0  0  0  0
  191.6610  172.4230  142.8170 C   0  0  0  0  0  0  0  0  0  0  0  0
  191.4360  171.8250  143.9050 O   0  0  0  0  0  0  0  0  0  0  0  0
  192.2010  172.0510  138.0420 N   0  0  0  0  0  2  0  0  0  0  0  0
  191.0840  170.2120  139.0990 C   0  0  0  0  0  1  0  0  0  0  0  0
  191.7270  171.5580  139.1390 C   0  0  0  0  0  0  0  0  0  0  0  0
  193.4270  175.3050  144.1710 C   0  0  0  0  0  2  0  0  0  0  0  0
  194.6040  174.4660  144.6540 C   0  0  0  0  0  2  0  0  0  0  0  0
  195.2410  175.1010  145.8750 C   0  0  0  0  0  1  0  0  0  0  0  0
  1  3  1  0  0  0  0
  1  9  1  1  0  0  0
  2 19  1  1  0  0  0
  2  1  1  0  0  0  0
  3 10  1  6  0  0  0
  3  8  1  0  0  0  0
  4 16  2  0  0  0  0
  4 17  1  0  0  0  0
  5  2  1  0  0  0  0
  6  7  2  0  0  0  0
  7 10  1  0  0  0  0
  8 13  1  0  0  0  0
  9 12  2  0  0  0  0
  9 11  1  0  0  0  0
 14  7  1  0  0  0  0
 14  5  1  0  0  0  0
 15 13  1  0  0  0  0
 15 11  1  0  0  0  0
 16  6  1  0  0  0  0
 17 14  2  0  0  0  0
 19 30  1  0  0  0  0
 19 18  1  1  0  0  0
 20 25  1  0  0  0  0
 21 23  1  0  0  0  0
 21 24  2  0  0  0  0
 22 25  1  0  0  0  0
 22 19  1  0  0  0  0
 23 20  2  0  0  0  0
 24 22  1  0  0  0  0
 25 26  2  0  0  0  0
 27 29  2  0  0  0  0
 28 29  1  0  0  0  0
 29 23  1  0  0  0  0
 30 31  1  0  0  0  0
 31 32  1  0  0  0  0
M  END
>  <MODEL>
9

>  <REMARK>
 VINA RESULT:      -6.5      3.031      7.455
  Name = 
  5 active torsions:
  status: ('A' for Active; 'I' for Inactive)
    1  A    between atoms: C_1  and  C_4
    2  A    between atoms: C_1  and  C_27
    3  A    between atoms: C_5  and  C_27
    4  A    between atoms: N_16  and  C_27
    5  A    between atoms: C_19  and  C_26
                            x       y       z     vdW  Elec       q    Type
                         _______ _______ _______ _____ _____    ______ ____

>  <TORSDO>
F 5

$$$$
