=
 OpenBabel11052418033D

 28 31  0  0  1  0  0  0  0  0999 V2000
  191.1760  175.0500  145.3160 C   0  0  0  0  0  0  0  0  0  0  0  0
  191.6730  177.5520  149.1220 Cl  0  0  0  0  0  0  0  0  0  0  0  0
  187.9420  176.9420  145.3090 C   0  0  0  0  0  0  0  0  0  0  0  0
  190.2870  176.7310  146.8660 C   0  0  0  0  0  0  0  0  0  0  0  0
  188.9670  176.0610  144.9380 C   0  0  0  0  0  3  0  0  0  0  0  0
  192.4440  175.7110  147.2850 C   0  0  0  0  0  3  0  0  0  0  0  0
  189.2610  177.6090  147.2390 C   0  0  0  0  0  3  0  0  0  0  0  0
  191.4450  176.6090  147.6550 C   0  0  0  0  0  0  0  0  0  0  0  0
  188.1020  177.7130  146.4700 C   0  0  0  0  0  3  0  0  0  0  0  0
  192.3110  174.9400  146.1320 C   0  0  0  0  0  3  0  0  0  0  0  0
  190.1460  175.9490  145.6910 C   0  0  0  0  0  0  0  0  0  0  0  0
  186.7710  176.7620  143.1900 C   0  0  0  0  0  3  0  0  0  0  0  0
  184.4860  178.2160  144.6050 C   0  0  0  0  0  3  0  0  0  0  0  0
  185.0520  178.1880  142.1840 C   0  0  0  0  0  0  0  0  0  0  0  0
  186.6940  177.0280  144.5030 C   0  0  0  0  0  0  0  0  0  0  0  0
  185.1100  176.9110  146.5310 C   0  0  0  0  0  1  0  0  0  0  0  0
  184.5170  178.7890  143.2450 C   0  0  0  0  0  3  0  0  0  0  0  0
  185.4010  177.4030  145.1540 C   0  0  0  0  0  0  0  0  0  0  0  0
  185.0610  178.8490  140.9620 O   0  0  0  0  0  1  0  0  0  0  0  0
  185.6040  176.8030  142.2630 C   0  0  0  0  0  2  0  0  0  0  0  0
  191.1080  174.2150  144.0900 C   0  0  0  0  0  0  0  0  0  0  0  0
  191.3690  174.7900  142.9080 C   0  0  0  0  0  3  0  0  0  0  0  0
  190.7720  172.0240  142.8100 C   0  0  1  0  0  3  0  0  0  0  0  0
  191.3350  174.0100  141.6280 C   0  0  0  0  0  2  0  0  0  0  0  0
  189.6790  172.3830  145.0560 C   0  0  0  0  0  1  0  0  0  0  0  0
  190.8790  172.7170  144.1800 C   0  0  2  0  0  3  0  0  0  0  0  0
  189.4810  172.0800  142.3020 F   0  0  0  0  0  0  0  0  0  0  0  0
  191.7170  172.6170  141.8610 N   0  0  0  0  0  2  0  0  0  0  0  0
  1 11  2  0  0  0  0
  1 10  1  0  0  0  0
  3  9  1  0  0  0  0
  4  7  1  0  0  0  0
  4  8  2  0  0  0  0
  5  3  2  0  0  0  0
  5 11  1  0  0  0  0
  6  8  1  0  0  0  0
  8  2  1  0  0  0  0
  9  7  2  0  0  0  0
 10  6  2  0  0  0  0
 11  4  1  0  0  0  0
 12 15  2  0  0  0  0
 13 18  2  0  0  0  0
 14 20  1  0  0  0  0
 14 17  2  0  0  0  0
 15 18  1  0  0  0  0
 15  3  1  0  0  0  0
 17 13  1  0  0  0  0
 18 16  1  0  0  0  0
 19 14  1  0  0  0  0
 20 12  1  0  0  0  0
 21 26  1  0  0  0  0
 21  1  1  0  0  0  0
 22 21  2  0  0  0  0
 23 27  1  6  0  0  0
 23 26  1  0  0  0  0
 24 28  1  0  0  0  0
 24 22  1  0  0  0  0
 26 25  1  1  0  0  0
 28 23  1  0  0  0  0
M  END
>  <MODEL>
1

>  <REMARK>
 VINA RESULT:      -8.2      0.000      0.000
  Name = 
  2 active torsions:
  status: ('A' for Active; 'I' for Inactive)
    1  A    between atoms: C_1  and  C_2
    2  A    between atoms: C_10  and  C_13
                            x       y       z     vdW  Elec       q    Type
                         _______ _______ _______ _____ _____    ______ ____

>  <TORSDO>
F 2

$$$$
=
 OpenBabel11052418033D

 28 31  0  0  1  0  0  0  0  0999 V2000
  190.2750  174.4530  143.8000 C   0  0  0  0  0  0  0  0  0  0  0  0
  190.2820  172.6780  139.5760 Cl  0  0  0  0  0  0  0  0  0  0  0  0
  187.5310  176.4570  142.2200 C   0  0  0  0  0  0  0  0  0  0  0  0
  189.3350  174.3960  141.5350 C   0  0  0  0  0  0  0  0  0  0  0  0
  188.4470  175.9700  143.1610 C   0  0  0  0  0  3  0  0  0  0  0  0
  191.1690  172.9290  142.1280 C   0  0  0  0  0  3  0  0  0  0  0  0
  188.4220  174.8860  140.5920 C   0  0  0  0  0  3  0  0  0  0  0  0
  190.2480  173.3860  141.1860 C   0  0  0  0  0  0  0  0  0  0  0  0
  187.5300  175.9050  140.9300 C   0  0  0  0  0  3  0  0  0  0  0  0
  191.1840  173.4570  143.4170 C   0  0  0  0  0  3  0  0  0  0  0  0
  189.3450  174.9380  142.8460 C   0  0  0  0  0  0  0  0  0  0  0  0
  186.7710  178.1740  143.7580 C   0  0  0  0  0  3  0  0  0  0  0  0
  184.2740  178.3030  142.0010 C   0  0  0  0  0  3  0  0  0  0  0  0
  184.5090  178.8490  144.4160 C   0  0  0  0  0  0  0  0  0  0  0  0
  186.6030  177.5650  142.5750 C   0  0  0  0  0  0  0  0  0  0  0  0
  185.7910  177.9570  140.1620 C   0  0  0  0  0  1  0  0  0  0  0  0
  183.7740  178.4400  143.3830 C   0  0  0  0  0  3  0  0  0  0  0  0
  185.5190  177.9730  141.6270 C   0  0  0  0  0  0  0  0  0  0  0  0
  183.9370  178.8930  145.6800 O   0  0  0  0  0  1  0  0  0  0  0  0
  185.9210  179.3000  144.2420 C   0  0  0  0  0  2  0  0  0  0  0  0
  190.3310  174.9570  145.1960 C   0  0  0  0  0  0  0  0  0  0  0  0
  189.5050  174.4210  146.1040 C   0  0  0  0  0  3  0  0  0  0  0  0
  191.2540  176.4200  147.0820 C   0  0  1  0  0  3  0  0  0  0  0  0
  189.5120  174.8660  147.5360 C   0  0  0  0  0  2  0  0  0  0  0  0
  191.4390  177.1550  144.6750 C   0  0  0  0  0  1  0  0  0  0  0  0
  191.3870  175.9620  145.6190 C   0  0  2  0  0  3  0  0  0  0  0  0
  190.3570  177.4730  147.2140 F   0  0  0  0  0  0  0  0  0  0  0  0
  190.8510  175.3000  147.9350 N   0  0  0  0  0  2  0  0  0  0  0  0
  1 21  1  0  0  0  0
  2  8  1  0  0  0  0
  3 15  1  0  0  0  0
  3  5  2  0  0  0  0
  4 11  1  0  0  0  0
  6 10  2  0  0  0  0
  7  9  2  0  0  0  0
  7  4  1  0  0  0  0
  8  4  2  0  0  0  0
  8  6  1  0  0  0  0
  9  3  1  0  0  0  0
 10  1  1  0  0  0  0
 11  5  1  0  0  0  0
 11  1  2  0  0  0  0
 12 20  1  0  0  0  0
 13 17  1  0  0  0  0
 14 19  1  0  0  0  0
 15 12  2  0  0  0  0
 16 18  1  0  0  0  0
 17 14  2  0  0  0  0
 18 13  2  0  0  0  0
 18 15  1  0  0  0  0
 20 14  1  0  0  0  0
 21 26  1  0  0  0  0
 21 22  2  0  0  0  0
 22 24  1  0  0  0  0
 23 27  1  6  0  0  0
 23 28  1  0  0  0  0
 24 28  1  0  0  0  0
 26 25  1  6  0  0  0
 26 23  1  0  0  0  0
M  END
>  <MODEL>
2

>  <REMARK>
 VINA RESULT:      -8.1      3.279      5.015
  Name = 
  2 active torsions:
  status: ('A' for Active; 'I' for Inactive)
    1  A    between atoms: C_1  and  C_2
    2  A    between atoms: C_10  and  C_13
                            x       y       z     vdW  Elec       q    Type
                         _______ _______ _______ _____ _____    ______ ____

>  <TORSDO>
F 2

$$$$
=
 OpenBabel11052418033D

 28 31  0  0  1  0  0  0  0  0999 V2000
  191.4820  174.5880  143.9880 C   0  0  0  0  0  0  0  0  0  0  0  0
  194.0850  176.8670  146.9920 Cl  0  0  0  0  0  0  0  0  0  0  0  0
  188.9060  176.8010  145.5710 C   0  0  0  0  0  0  0  0  0  0  0  0
  191.6760  176.2850  145.7480 C   0  0  0  0  0  0  0  0  0  0  0  0
  189.5060  175.8350  144.7510 C   0  0  0  0  0  3  0  0  0  0  0  0
  193.6280  175.0330  145.0460 C   0  0  0  0  0  3  0  0  0  0  0  0
  191.0780  177.2480  146.5700 C   0  0  0  0  0  3  0  0  0  0  0  0
  193.0520  176.0130  145.8520 C   0  0  0  0  0  0  0  0  0  0  0  0
  189.7080  177.5030  146.4830 C   0  0  0  0  0  3  0  0  0  0  0  0
  192.8530  174.3270  144.1270 C   0  0  0  0  0  3  0  0  0  0  0  0
  190.8830  175.5710  144.8140 C   0  0  0  0  0  0  0  0  0  0  0  0
  186.9080  177.3320  144.2990 C   0  0  0  0  0  3  0  0  0  0  0  0
  185.6020  177.8280  147.0170 C   0  0  0  0  0  3  0  0  0  0  0  0
  185.0330  178.8230  144.8100 C   0  0  0  0  0  0  0  0  0  0  0  0
  187.4410  177.0480  145.4970 C   0  0  0  0  0  0  0  0  0  0  0  0
  186.9150  175.9540  147.7690 C   0  0  0  0  0  1  0  0  0  0  0  0
  185.0710  178.8900  146.1400 C   0  0  0  0  0  3  0  0  0  0  0  0
  186.6020  176.9800  146.7340 C   0  0  0  0  0  0  0  0  0  0  0  0
  184.5500  179.9080  144.0900 O   0  0  0  0  0  1  0  0  0  0  0  0
  185.4580  177.5960  144.0740 C   0  0  0  0  0  2  0  0  0  0  0  0
  190.7200  173.8150  142.9740 C   0  0  0  0  0  0  0  0  0  0  0  0
  190.4870  174.3780  141.7810 C   0  0  0  0  0  3  0  0  0  0  0  0
  189.4840  171.7500  142.1010 C   0  0  1  0  0  3  0  0  0  0  0  0
  189.7370  173.6560  140.7010 C   0  0  0  0  0  2  0  0  0  0  0  0
  189.6360  172.2080  144.5780 C   0  0  0  0  0  1  0  0  0  0  0  0
  190.3250  172.3710  143.2310 C   0  0  2  0  0  3  0  0  0  0  0  0
  188.1320  172.0310  142.2490 F   0  0  0  0  0  0  0  0  0  0  0  0
  189.9580  172.2130  140.7950 N   0  0  0  0  0  2  0  0  0  0  0  0
  1 10  2  0  0  0  0
  1 11  1  0  0  0  0
  3  9  1  0  0  0  0
  4  8  1  0  0  0  0
  4  7  1  0  0  0  0
  5 11  1  0  0  0  0
  5  3  2  0  0  0  0
  6  8  2  0  0  0  0
  8  2  1  0  0  0  0
  9  7  2  0  0  0  0
 10  6  1  0  0  0  0
 11  4  2  0  0  0  0
 12 15  2  0  0  0  0
 14 17  2  0  0  0  0
 15  3  1  0  0  0  0
 15 18  1  0  0  0  0
 17 13  1  0  0  0  0
 18 13  2  0  0  0  0
 18 16  1  0  0  0  0
 19 14  1  0  0  0  0
 20 12  1  0  0  0  0
 20 14  1  0  0  0  0
 21 26  1  0  0  0  0
 21  1  1  0  0  0  0
 22 21  2  0  0  0  0
 23 27  1  1  0  0  0
 23 26  1  0  0  0  0
 24 28  1  0  0  0  0
 24 22  1  0  0  0  0
 26 25  1  1  0  0  0
 28 23  1  0  0  0  0
M  END
>  <MODEL>
3

>  <REMARK>
 VINA RESULT:      -7.9      1.530      2.000
  Name = 
  2 active torsions:
  status: ('A' for Active; 'I' for Inactive)
    1  A    between atoms: C_1  and  C_2
    2  A    between atoms: C_10  and  C_13
                            x       y       z     vdW  Elec       q    Type
                         _______ _______ _______ _____ _____    ______ ____

>  <TORSDO>
F 2

$$$$
=
 OpenBabel11052418033D

 28 31  0  0  1  0  0  0  0  0999 V2000
  193.1540  173.1500  143.4630 C   0  0  0  0  0  0  0  0  0  0  0  0
  196.8180  173.7910  146.1380 Cl  0  0  0  0  0  0  0  0  0  0  0  0
  191.9640  176.0170  145.5630 C   0  0  0  0  0  0  0  0  0  0  0  0
  194.2570  174.3970  145.2640 C   0  0  0  0  0  0  0  0  0  0  0  0
  191.9960  174.9960  144.6040 C   0  0  0  0  0  3  0  0  0  0  0  0
  195.3970  172.5500  144.1880 C   0  0  0  0  0  3  0  0  0  0  0  0
  194.2250  175.4150  146.2260 C   0  0  0  0  0  3  0  0  0  0  0  0
  195.3910  173.5760  145.1310 C   0  0  0  0  0  0  0  0  0  0  0  0
  193.0920  176.2150  146.3740 C   0  0  0  0  0  3  0  0  0  0  0  0
  194.2920  172.3380  143.3660 C   0  0  0  0  0  3  0  0  0  0  0  0
  193.1300  174.1870  144.4290 C   0  0  0  0  0  0  0  0  0  0  0  0
  190.1450  176.8440  146.9410 C   0  0  0  0  0  3  0  0  0  0  0  0
  188.9070  177.7920  144.3120 C   0  0  0  0  0  3  0  0  0  0  0  0
  187.7700  177.1650  146.4340 C   0  0  0  0  0  0  0  0  0  0  0  0
  190.7430  176.8480  145.7400 C   0  0  0  0  0  0  0  0  0  0  0  0
  191.1670  178.3120  143.6630 C   0  0  0  0  0  1  0  0  0  0  0  0
  187.7710  177.2840  145.1070 C   0  0  0  0  0  3  0  0  0  0  0  0
  190.2100  177.6560  144.5990 C   0  0  0  0  0  0  0  0  0  0  0  0
  186.6540  176.6310  147.0660 O   0  0  0  0  0  1  0  0  0  0  0  0
  188.9200  177.6310  147.2630 C   0  0  0  0  0  2  0  0  0  0  0  0
  192.0190  172.8840  142.5420 C   0  0  0  0  0  0  0  0  0  0  0  0
  191.9710  173.5450  141.3780 C   0  0  0  0  0  3  0  0  0  0  0  0
  189.8670  171.7030  141.8180 C   0  0  1  0  0  3  0  0  0  0  0  0
  190.8660  173.3200  140.3890 C   0  0  0  0  0  2  0  0  0  0  0  0
  190.4590  171.9160  144.2620 C   0  0  0  0  0  1  0  0  0  0  0  0
  191.0080  171.7930  142.8480 C   0  0  2  0  0  3  0  0  0  0  0  0
  188.8370  172.5870  142.1100 F   0  0  0  0  0  0  0  0  0  0  0  0
  190.3750  171.9430  140.4670 N   0  0  0  0  0  2  0  0  0  0  0  0
  1 11  1  0  0  0  0
  3 15  1  0  0  0  0
  3  9  1  0  0  0  0
  4  7  1  0  0  0  0
  5  3  2  0  0  0  0
  6  8  2  0  0  0  0
  7  9  2  0  0  0  0
  8  4  1  0  0  0  0
  8  2  1  0  0  0  0
 10  1  2  0  0  0  0
 10  6  1  0  0  0  0
 11  5  1  0  0  0  0
 11  4  2  0  0  0  0
 12 20  1  0  0  0  0
 13 18  2  0  0  0  0
 13 17  1  0  0  0  0
 14 19  1  0  0  0  0
 14 20  1  0  0  0  0
 15 12  2  0  0  0  0
 16 18  1  0  0  0  0
 17 14  2  0  0  0  0
 18 15  1  0  0  0  0
 21 26  1  0  0  0  0
 21  1  1  0  0  0  0
 22 21  2  0  0  0  0
 23 27  1  1  0  0  0
 23 26  1  0  0  0  0
 24 28  1  0  0  0  0
 24 22  1  0  0  0  0
 26 25  1  1  0  0  0
 28 23  1  0  0  0  0
M  END
>  <MODEL>
4

>  <REMARK>
 VINA RESULT:      -7.7      2.645      4.396
  Name = 
  2 active torsions:
  status: ('A' for Active; 'I' for Inactive)
    1  A    between atoms: C_1  and  C_2
    2  A    between atoms: C_10  and  C_13
                            x       y       z     vdW  Elec       q    Type
                         _______ _______ _______ _____ _____    ______ ____

>  <TORSDO>
F 2

$$$$
=
 OpenBabel11052418033D

 28 31  0  0  1  0  0  0  0  0999 V2000
  186.4460  177.2870  143.8700 C   0  0  0  0  0  0  0  0  0  0  0  0
  187.0380  176.5730  139.3840 Cl  0  0  0  0  0  0  0  0  0  0  0  0
  189.7540  175.5270  143.8970 C   0  0  0  0  0  0  0  0  0  0  0  0
  187.8210  176.4090  142.0380 C   0  0  0  0  0  0  0  0  0  0  0  0
  188.5920  176.1780  144.3320 C   0  0  0  0  0  3  0  0  0  0  0  0
  185.6860  177.4530  141.5650 C   0  0  0  0  0  3  0  0  0  0  0  0
  188.9800  175.7550  141.6030 C   0  0  0  0  0  3  0  0  0  0  0  0
  186.8470  176.8280  141.1140 C   0  0  0  0  0  0  0  0  0  0  0  0
  189.9360  175.3180  142.5210 C   0  0  0  0  0  3  0  0  0  0  0  0
  185.4870  177.6780  142.9260 C   0  0  0  0  0  3  0  0  0  0  0  0
  187.6240  176.6360  143.4250 C   0  0  0  0  0  0  0  0  0  0  0  0
  191.2770  175.9180  145.7460 C   0  0  0  0  0  3  0  0  0  0  0  0
  192.4170  173.1630  145.0750 C   0  0  0  0  0  3  0  0  0  0  0  0
  193.5490  175.0990  146.1510 C   0  0  0  0  0  0  0  0  0  0  0  0
  190.7560  175.0350  144.8810 C   0  0  0  0  0  0  0  0  0  0  0  0
  190.1340  172.5500  144.6100 C   0  0  0  0  0  1  0  0  0  0  0  0
  193.5920  173.9890  145.4150 C   0  0  0  0  0  3  0  0  0  0  0  0
  191.1600  173.5950  144.8890 C   0  0  0  0  0  0  0  0  0  0  0  0
  194.7190  175.8160  146.3650 O   0  0  0  0  0  1  0  0  0  0  0  0
  192.2840  175.5680  146.7880 C   0  0  0  0  0  2  0  0  0  0  0  0
  186.1810  177.5760  145.3030 C   0  0  0  0  0  0  0  0  0  0  0  0
  186.4160  176.6140  146.2050 C   0  0  0  0  0  3  0  0  0  0  0  0
  185.4800  179.0680  147.2610 C   0  0  1  0  0  3  0  0  0  0  0  0
  186.1870  176.8340  147.6710 C   0  0  0  0  0  2  0  0  0  0  0  0
  184.6190  179.5130  144.9320 C   0  0  0  0  0  1  0  0  0  0  0  0
  185.7780  178.9690  145.7550 C   0  0  2  0  0  3  0  0  0  0  0  0
  184.1700  178.7130  147.5540 F   0  0  0  0  0  0  0  0  0  0  0  0
  186.4130  178.2360  148.0240 N   0  0  0  0  0  2  0  0  0  0  0  0
  1 21  1  0  0  0  0
  2  8  1  0  0  0  0
  3  5  1  0  0  0  0
  3 15  1  0  0  0  0
  4 11  1  0  0  0  0
  6 10  1  0  0  0  0
  7  4  2  0  0  0  0
  7  9  1  0  0  0  0
  8  6  2  0  0  0  0
  8  4  1  0  0  0  0
  9  3  2  0  0  0  0
 10  1  2  0  0  0  0
 11  1  1  0  0  0  0
 11  5  2  0  0  0  0
 12 20  1  0  0  0  0
 13 17  1  0  0  0  0
 14 19  1  0  0  0  0
 14 20  1  0  0  0  0
 15 18  1  0  0  0  0
 15 12  2  0  0  0  0
 16 18  1  0  0  0  0
 17 14  2  0  0  0  0
 18 13  2  0  0  0  0
 21 26  1  0  0  0  0
 21 22  2  0  0  0  0
 22 24  1  0  0  0  0
 23 27  1  6  0  0  0
 23 28  1  0  0  0  0
 24 28  1  0  0  0  0
 26 25  1  6  0  0  0
 26 23  1  0  0  0  0
M  END
>  <MODEL>
5

>  <REMARK>
 VINA RESULT:      -7.7      4.203      7.769
  Name = 
  2 active torsions:
  status: ('A' for Active; 'I' for Inactive)
    1  A    between atoms: C_1  and  C_2
    2  A    between atoms: C_10  and  C_13
                            x       y       z     vdW  Elec       q    Type
                         _______ _______ _______ _____ _____    ______ ____

>  <TORSDO>
F 2

$$$$
=
 OpenBabel11052418033D

 28 31  0  0  1  0  0  0  0  0999 V2000
  192.7220  174.1820  142.9410 C   0  0  0  0  0  0  0  0  0  0  0  0
  190.3400  171.7170  139.9000 Cl  0  0  0  0  0  0  0  0  0  0  0  0
  189.2640  175.4700  143.5880 C   0  0  0  0  0  0  0  0  0  0  0  0
  190.5680  173.5980  141.9240 C   0  0  0  0  0  0  0  0  0  0  0  0
  190.6510  175.2890  143.6690 C   0  0  0  0  0  3  0  0  0  0  0  0
  192.6030  172.5310  141.1570 C   0  0  0  0  0  3  0  0  0  0  0  0
  189.1820  173.7810  141.8400 C   0  0  0  0  0  3  0  0  0  0  0  0
  191.2200  172.6830  141.0790 C   0  0  0  0  0  0  0  0  0  0  0  0
  188.5370  174.7070  142.6620 C   0  0  0  0  0  3  0  0  0  0  0  0
  193.3460  173.2730  142.0740 C   0  0  0  0  0  3  0  0  0  0  0  0
  191.3180  174.3550  142.8600 C   0  0  0  0  0  0  0  0  0  0  0  0
  188.7700  176.4100  145.7700 C   0  0  0  0  0  3  0  0  0  0  0  0
  186.5530  177.9510  144.3380 C   0  0  0  0  0  3  0  0  0  0  0  0
  186.6700  177.2410  146.7190 C   0  0  0  0  0  0  0  0  0  0  0  0
  188.5840  176.4800  144.4440 C   0  0  0  0  0  0  0  0  0  0  0  0
  188.1230  178.1290  142.5200 C   0  0  0  0  0  1  0  0  0  0  0  0
  185.9650  177.5530  145.6320 C   0  0  0  0  0  3  0  0  0  0  0  0
  187.7210  177.5330  143.8250 C   0  0  0  0  0  0  0  0  0  0  0  0
  186.0020  176.8370  147.8680 O   0  0  0  0  0  1  0  0  0  0  0  0
  188.1580  177.3560  146.7470 C   0  0  0  0  0  2  0  0  0  0  0  0
  193.5700  174.9240  143.9080 C   0  0  0  0  0  0  0  0  0  0  0  0
  194.3530  175.9090  143.4490 C   0  0  0  0  0  3  0  0  0  0  0  0
  194.4570  175.4760  146.2450 C   0  0  1  0  0  3  0  0  0  0  0  0
  195.2260  176.7140  144.3660 C   0  0  0  0  0  2  0  0  0  0  0  0
  193.5500  173.1800  145.7220 C   0  0  0  0  0  1  0  0  0  0  0  0
  193.4580  174.6650  145.4000 C   0  0  2  0  0  3  0  0  0  0  0  0
  195.6890  174.8410  146.3390 F   0  0  0  0  0  0  0  0  0  0  0  0
  194.6210  176.8220  145.6930 N   0  0  0  0  0  2  0  0  0  0  0  0
  1 21  1  0  0  0  0
  2  8  1  0  0  0  0
  3  5  1  0  0  0  0
  3 15  1  0  0  0  0
  4 11  1  0  0  0  0
  6 10  1  0  0  0  0
  7  4  2  0  0  0  0
  7  9  1  0  0  0  0
  8  6  2  0  0  0  0
  8  4  1  0  0  0  0
  9  3  2  0  0  0  0
 10  1  2  0  0  0  0
 11  1  1  0  0  0  0
 11  5  2  0  0  0  0
 12 20  1  0  0  0  0
 13 17  1  0  0  0  0
 14 20  1  0  0  0  0
 14 19  1  0  0  0  0
 15 12  2  0  0  0  0
 16 18  1  0  0  0  0
 17 14  2  0  0  0  0
 18 13  2  0  0  0  0
 18 15  1  0  0  0  0
 21 26  1  0  0  0  0
 22 21  2  0  0  0  0
 22 24  1  0  0  0  0
 23 27  1  6  0  0  0
 24 28  1  0  0  0  0
 26 25  1  6  0  0  0
 26 23  1  0  0  0  0
 28 23  1  0  0  0  0
M  END
>  <MODEL>
6

>  <REMARK>
 VINA RESULT:      -7.7      3.588      5.222
  Name = 
  2 active torsions:
  status: ('A' for Active; 'I' for Inactive)
    1  A    between atoms: C_1  and  C_2
    2  A    between atoms: C_10  and  C_13
                            x       y       z     vdW  Elec       q    Type
                         _______ _______ _______ _____ _____    ______ ____

>  <TORSDO>
F 2

$$$$
=
 OpenBabel11052418033D

 28 31  0  0  1  0  0  0  0  0999 V2000
  188.4100  176.7390  144.9950 C   0  0  0  0  0  0  0  0  0  0  0  0
  191.5290  175.2780  148.0160 Cl  0  0  0  0  0  0  0  0  0  0  0  0
  190.0290  173.9970  143.0210 C   0  0  0  0  0  0  0  0  0  0  0  0
  190.2290  175.1980  145.5680 C   0  0  0  0  0  0  0  0  0  0  0  0
  189.1860  175.0580  143.3770 C   0  0  0  0  0  3  0  0  0  0  0  0
  189.5140  176.8800  147.1580 C   0  0  0  0  0  3  0  0  0  0  0  0
  191.0750  174.1400  145.2120 C   0  0  0  0  0  3  0  0  0  0  0  0
  190.3450  175.8110  146.8280 C   0  0  0  0  0  0  0  0  0  0  0  0
  190.9770  173.5460  143.9520 C   0  0  0  0  0  3  0  0  0  0  0  0
  188.5600  177.3400  146.2520 C   0  0  0  0  0  3  0  0  0  0  0  0
  189.2600  175.6610  144.6420 C   0  0  0  0  0  0  0  0  0  0  0  0
  191.0860  173.1530  141.0050 C   0  0  0  0  0  3  0  0  0  0  0  0
  188.2840  173.2440  139.7880 C   0  0  0  0  0  3  0  0  0  0  0  0
  190.4860  173.4290  138.6460 C   0  0  0  0  0  0  0  0  0  0  0  0
  189.9430  173.3860  141.6670 C   0  0  0  0  0  0  0  0  0  0  0  0
  187.5310  172.5300  141.9620 C   0  0  0  0  0  1  0  0  0  0  0  0
  189.1830  173.6990  138.7090 C   0  0  0  0  0  3  0  0  0  0  0  0
  188.6100  173.0510  141.0750 C   0  0  0  0  0  0  0  0  0  0  0  0
  191.2370  173.9520  137.6020 O   0  0  0  0  0  1  0  0  0  0  0  0
  191.1520  172.5430  139.6460 C   0  0  0  0  0  2  0  0  0  0  0  0
  187.3590  177.2650  144.0860 C   0  0  0  0  0  0  0  0  0  0  0  0
  187.7230  178.0920  143.0960 C   0  0  0  0  0  3  0  0  0  0  0  0
  184.9620  177.4780  143.2130 C   0  0  1  0  0  3  0  0  0  0  0  0
  186.7240  178.6520  142.1290 C   0  0  0  0  0  2  0  0  0  0  0  0
  185.4060  176.8550  145.6180 C   0  0  0  0  0  1  0  0  0  0  0  0
  185.9250  176.7780  144.1890 C   0  0  2  0  0  3  0  0  0  0  0  0
  184.4780  178.6720  143.7330 F   0  0  0  0  0  0  0  0  0  0  0  0
  185.6190  177.7140  141.9260 N   0  0  0  0  0  2  0  0  0  0  0  0
  1 10  1  0  0  0  0
  3  5  2  0  0  0  0
  3  9  1  0  0  0  0
  4  8  2  0  0  0  0
  5 11  1  0  0  0  0
  7  4  1  0  0  0  0
  8  6  1  0  0  0  0
  8  2  1  0  0  0  0
  9  7  2  0  0  0  0
 10  6  2  0  0  0  0
 11  1  2  0  0  0  0
 11  4  1  0  0  0  0
 12 15  2  0  0  0  0
 13 18  2  0  0  0  0
 14 17  2  0  0  0  0
 14 20  1  0  0  0  0
 15  3  1  0  0  0  0
 17 13  1  0  0  0  0
 18 15  1  0  0  0  0
 18 16  1  0  0  0  0
 19 14  1  0  0  0  0
 20 12  1  0  0  0  0
 21 26  1  0  0  0  0
 21  1  1  0  0  0  0
 22 21  2  0  0  0  0
 23 27  1  1  0  0  0
 23 26  1  0  0  0  0
 24 22  1  0  0  0  0
 26 25  1  1  0  0  0
 28 24  1  0  0  0  0
 28 23  1  0  0  0  0
M  END
>  <MODEL>
7

>  <REMARK>
 VINA RESULT:      -7.6      3.269      5.918
  Name = 
  2 active torsions:
  status: ('A' for Active; 'I' for Inactive)
    1  A    between atoms: C_1  and  C_2
    2  A    between atoms: C_10  and  C_13
                            x       y       z     vdW  Elec       q    Type
                         _______ _______ _______ _____ _____    ______ ____

>  <TORSDO>
F 2

$$$$
=
 OpenBabel11052418033D

 28 31  0  0  1  0  0  0  0  0999 V2000
  188.5610  174.9640  142.6170 C   0  0  0  0  0  0  0  0  0  0  0  0
  185.7540  178.0050  144.5820 Cl  0  0  0  0  0  0  0  0  0  0  0  0
  190.8750  176.4880  145.1390 C   0  0  0  0  0  0  0  0  0  0  0  0
  188.1920  176.7190  144.2900 C   0  0  0  0  0  0  0  0  0  0  0  0
  190.3840  175.6840  144.1010 C   0  0  0  0  0  3  0  0  0  0  0  0
  186.3960  176.0590  142.8040 C   0  0  0  0  0  3  0  0  0  0  0  0
  188.6840  177.5260  145.3250 C   0  0  0  0  0  3  0  0  0  0  0  0
  186.8630  176.8510  143.8530 C   0  0  0  0  0  0  0  0  0  0  0  0
  190.0100  177.4120  145.7440 C   0  0  0  0  0  3  0  0  0  0  0  0
  187.2350  175.1290  142.1920 C   0  0  0  0  0  3  0  0  0  0  0  0
  189.0510  175.7740  143.6720 C   0  0  0  0  0  0  0  0  0  0  0  0
  193.1880  177.2070  144.9850 C   0  0  0  0  0  3  0  0  0  0  0  0
  193.8310  174.6620  146.5510 C   0  0  0  0  0  3  0  0  0  0  0  0
  195.2690  175.9140  144.9540 C   0  0  0  0  0  0  0  0  0  0  0  0
  192.2980  176.3860  145.5620 C   0  0  0  0  0  0  0  0  0  0  0  0
  191.7900  175.1190  147.7470 C   0  0  0  0  0  1  0  0  0  0  0  0
  194.9130  174.7790  145.5540 C   0  0  0  0  0  3  0  0  0  0  0  0
  192.7050  175.3910  146.6020 C   0  0  0  0  0  0  0  0  0  0  0  0
  196.2760  175.8890  143.9970 O   0  0  0  0  0  1  0  0  0  0  0  0
  194.6430  177.2200  145.3140 C   0  0  0  0  0  2  0  0  0  0  0  0
  189.3940  173.9400  141.9360 C   0  0  0  0  0  0  0  0  0  0  0  0
  189.6220  174.0700  140.6220 C   0  0  0  0  0  3  0  0  0  0  0  0
  190.8470  171.8350  141.8530 C   0  0  1  0  0  3  0  0  0  0  0  0
  190.4650  173.0860  139.8670 C   0  0  0  0  0  2  0  0  0  0  0  0
  189.1120  172.1300  143.6620 C   0  0  0  0  0  1  0  0  0  0  0  0
  190.0810  172.8420  142.7290 C   0  0  2  0  0  3  0  0  0  0  0  0
  190.0190  170.8240  141.3840 F   0  0  0  0  0  0  0  0  0  0  0  0
  191.4980  172.5190  140.7340 N   0  0  0  0  0  2  0  0  0  0  0  0
  1 11  1  0  0  0  0
  3 15  1  0  0  0  0
  3  9  1  0  0  0  0
  4  7  1  0  0  0  0
  5  3  2  0  0  0  0
  6  8  2  0  0  0  0
  7  9  2  0  0  0  0
  8  4  1  0  0  0  0
  8  2  1  0  0  0  0
 10  1  2  0  0  0  0
 10  6  1  0  0  0  0
 11  5  1  0  0  0  0
 11  4  2  0  0  0  0
 12 20  1  0  0  0  0
 12 15  2  0  0  0  0
 13 18  2  0  0  0  0
 14 20  1  0  0  0  0
 14 17  2  0  0  0  0
 15 18  1  0  0  0  0
 17 13  1  0  0  0  0
 18 16  1  0  0  0  0
 19 14  1  0  0  0  0
 21  1  1  0  0  0  0
 21 26  1  0  0  0  0
 22 21  2  0  0  0  0
 23 27  1  6  0  0  0
 23 26  1  0  0  0  0
 24 22  1  0  0  0  0
 24 28  1  0  0  0  0
 26 25  1  6  0  0  0
 28 23  1  0  0  0  0
M  END
>  <MODEL>
8

>  <REMARK>
 VINA RESULT:      -7.6      3.188      6.103
  Name = 
  2 active torsions:
  status: ('A' for Active; 'I' for Inactive)
    1  A    between atoms: C_1  and  C_2
    2  A    between atoms: C_10  and  C_13
                            x       y       z     vdW  Elec       q    Type
                         _______ _______ _______ _____ _____    ______ ____

>  <TORSDO>
F 2

$$$$
=
 OpenBabel11052418033D

 28 31  0  0  1  0  0  0  0  0999 V2000
  191.0380  174.2170  142.8090 C   0  0  0  0  0  0  0  0  0  0  0  0
  188.2170  172.6460  139.5590 Cl  0  0  0  0  0  0  0  0  0  0  0  0
  187.9100  176.0950  143.6630 C   0  0  0  0  0  0  0  0  0  0  0  0
  188.8130  174.2000  141.7760 C   0  0  0  0  0  0  0  0  0  0  0  0
  189.2320  175.6290  143.6970 C   0  0  0  0  0  3  0  0  0  0  0  0
  190.5920  172.8390  140.8540 C   0  0  0  0  0  3  0  0  0  0  0  0
  187.4930  174.6680  141.7400 C   0  0  0  0  0  3  0  0  0  0  0  0
  189.2690  173.2740  140.8210 C   0  0  0  0  0  0  0  0  0  0  0  0
  187.0470  175.6050  142.6720 C   0  0  0  0  0  3  0  0  0  0  0  0
  191.4670  173.3050  141.8340 C   0  0  0  0  0  3  0  0  0  0  0  0
  189.6980  174.6790  142.7760 C   0  0  0  0  0  0  0  0  0  0  0  0
  187.9030  177.0400  145.8990 C   0  0  0  0  0  3  0  0  0  0  0  0
  185.4710  178.6330  144.9580 C   0  0  0  0  0  3  0  0  0  0  0  0
  186.0660  177.9150  147.2630 C   0  0  0  0  0  0  0  0  0  0  0  0
  187.4460  177.1170  144.6400 C   0  0  0  0  0  0  0  0  0  0  0  0
  186.6310  178.7820  142.8510 C   0  0  0  0  0  1  0  0  0  0  0  0
  185.1570  178.2450  146.3460 C   0  0  0  0  0  3  0  0  0  0  0  0
  186.4960  178.1910  144.2130 C   0  0  0  0  0  0  0  0  0  0  0  0
  185.6430  177.5230  148.5270 O   0  0  0  0  0  1  0  0  0  0  0  0
  187.5290  177.9970  146.9800 C   0  0  0  0  0  2  0  0  0  0  0  0
  192.0150  174.6580  143.8370 C   0  0  0  0  0  0  0  0  0  0  0  0
  192.0030  174.0540  145.0330 C   0  0  0  0  0  3  0  0  0  0  0  0
  193.9710  176.0610  144.7050 C   0  0  1  0  0  3  0  0  0  0  0  0
  192.9670  174.4320  146.1180 C   0  0  0  0  0  2  0  0  0  0  0  0
  192.5070  176.9120  142.8340 C   0  0  0  0  0  1  0  0  0  0  0  0
  193.0910  175.6760  143.5030 C   0  0  2  0  0  3  0  0  0  0  0  0
  193.3990  177.0770  145.4600 F   0  0  0  0  0  0  0  0  0  0  0  0
  194.2330  174.8910  145.5460 N   0  0  0  0  0  2  0  0  0  0  0  0
  1 21  1  0  0  0  0
  2  8  1  0  0  0  0
  3  5  1  0  0  0  0
  3 15  1  0  0  0  0
  4 11  1  0  0  0  0
  6 10  1  0  0  0  0
  7  4  2  0  0  0  0
  7  9  1  0  0  0  0
  8  6  2  0  0  0  0
  8  4  1  0  0  0  0
  9  3  2  0  0  0  0
 10  1  2  0  0  0  0
 11  1  1  0  0  0  0
 11  5  2  0  0  0  0
 12 20  1  0  0  0  0
 13 17  1  0  0  0  0
 14 19  1  0  0  0  0
 15 12  2  0  0  0  0
 16 18  1  0  0  0  0
 17 14  2  0  0  0  0
 18 15  1  0  0  0  0
 18 13  2  0  0  0  0
 20 14  1  0  0  0  0
 21 22  2  0  0  0  0
 22 24  1  0  0  0  0
 23 27  1  1  0  0  0
 23 28  1  0  0  0  0
 26 25  1  1  0  0  0
 26 21  1  0  0  0  0
 26 23  1  0  0  0  0
 28 24  1  0  0  0  0
M  END
>  <MODEL>
9

>  <REMARK>
 VINA RESULT:      -7.5      3.432      5.082
  Name = 
  2 active torsions:
  status: ('A' for Active; 'I' for Inactive)
    1  A    between atoms: C_1  and  C_2
    2  A    between atoms: C_10  and  C_13
                            x       y       z     vdW  Elec       q    Type
                         _______ _______ _______ _____ _____    ______ ____

>  <TORSDO>
F 2

$$$$
