=
 OpenBabel11052419523D

 37 44  0  0  1  0  0  0  0  0999 V2000
  189.3020  174.7470  140.9060 C   0  0  0  0  0  2  0  0  0  0  0  0
  190.3000  175.2860  145.0370 C   0  0  0  0  0  0  0  0  0  0  0  0
  188.7490  173.5550  140.1540 C   0  0  1  0  0  3  0  0  0  0  0  0
  193.1620  173.6800  143.1460 C   0  0  0  0  0  2  0  0  0  0  0  0
  188.1840  176.4770  145.3050 C   0  0  0  0  0  0  0  0  0  0  0  0
  191.2020  175.0040  144.0980 C   0  0  0  0  0  0  0  0  0  0  0  0
  192.0000  174.0060  140.0620 C   0  0  1  0  0  3  0  0  0  0  0  0
  189.2560  176.1620  144.5460 C   0  0  0  0  0  0  0  0  0  0  0  0
  192.4890  174.2860  144.3450 C   0  0  0  0  0  0  0  0  0  0  0  0
  188.1020  175.9180  146.6730 C   0  0  0  0  0  3  0  0  0  0  0  0
  189.8730  172.9660  139.3260 C   0  0  0  0  0  2  0  0  0  0  0  0
  189.6070  176.4340  143.1250 C   0  0  0  0  0  0  0  0  0  0  0  0
  190.1370  177.8560  143.0150 C   0  0  0  0  0  2  0  0  0  0  0  0
  191.5200  175.3580  147.1310 C   0  0  0  0  0  3  0  0  0  0  0  0
  189.0730  175.1550  147.1960 C   0  0  0  0  0  3  0  0  0  0  0  0
  188.9560  177.4320  142.1780 C   0  0  0  0  0  2  0  0  0  0  0  0
  191.1630  172.7230  140.1150 C   0  0  2  0  0  3  0  0  0  0  0  0
  192.2310  172.7520  142.3920 C   0  0  0  0  0  2  0  0  0  0  0  0
  190.3330  174.7910  146.4460 C   0  0  1  0  0  3  0  0  0  0  0  0
  190.7440  175.4750  142.7240 C   0  0  2  0  0  3  0  0  0  0  0  0
  193.1720  174.3210  145.5310 C   0  0  0  0  0  0  0  0  0  0  0  0
  191.3970  173.5460  141.3910 C   0  0  1  0  0  0  0  0  0  0  0  0
  193.4660  173.6390  139.9020 C   0  0  0  0  0  1  0  0  0  0  0  0
  190.2480  174.3130  141.9440 N   0  0  2  0  0  0  0  0  0  0  0  0
  192.7630  175.1200  146.7160 C   0  0  0  0  0  3  0  0  0  0  0  0
  195.6210  174.3520  145.7430 C   0  0  0  0  0  3  0  0  0  0  0  0
  194.4840  173.6420  145.6850 C   0  0  0  0  0  0  0  0  0  0  0  0
  194.5560  172.1630  145.6710 C   0  0  0  0  0  3  0  0  0  0  0  0
  195.7630  170.1460  145.5070 O   0  0  0  0  0  1  0  0  0  0  0  0
  196.9790  172.3150  145.2300 C   0  0  0  0  0  2  0  0  0  0  0  0
  195.7220  171.5330  145.4990 C   0  0  0  0  0  0  0  0  0  0  0  0
  196.9460  173.6710  145.9410 C   0  0  0  0  0  2  0  0  0  0  0  0
  185.9560  176.8060  144.3100 C   0  0  0  0  0  3  0  0  0  0  0  0
  187.0500  177.3060  144.8670 C   0  0  0  0  0  3  0  0  0  0  0  0
  184.9270  177.6510  143.9220 O   0  0  0  0  0  1  0  0  0  0  0  0
  187.3740  173.3140  141.8730 C   0  0  0  0  0  1  0  0  0  0  0  0
  188.2400  172.6020  141.0400 O   0  0  0  0  0  0  0  0  0  0  0  0
  2 19  1  0  0  0  0
  3  1  1  0  0  0  0
  3 37  1  1  0  0  0
  4  9  1  0  0  0  0
  5 10  1  0  0  0  0
  6  9  1  0  0  0  0
  6  2  2  0  0  0  0
  7 23  1  1  0  0  0
  7 17  1  0  0  0  0
  7 22  1  0  0  0  0
  8  2  1  0  0  0  0
  8  5  2  0  0  0  0
  9 21  2  0  0  0  0
 10 15  2  0  0  0  0
 11  3  1  0  0  0  0
 12  8  1  0  0  0  0
 13 12  1  0  0  0  0
 16 13  1  0  0  0  0
 16 12  1  0  0  0  0
 17 11  1  6  0  0  0
 17 22  1  0  0  0  0
 18  4  1  0  0  0  0
 19 14  1  1  0  0  0
 19 15  1  0  0  0  0
 20 12  1  0  0  0  0
 20  6  1  1  0  0  0
 21 27  1  0  0  0  0
 21 25  1  0  0  0  0
 22 24  1  0  0  0  0
 22 18  1  1  0  0  0
 24  1  1  6  0  0  0
 24 20  1  0  0  0  0
 25 14  2  0  0  0  0
 26 32  1  0  0  0  0
 27 26  2  0  0  0  0
 28 27  1  0  0  0  0
 30 31  1  0  0  0  0
 30 32  1  0  0  0  0
 31 29  1  0  0  0  0
 31 28  2  0  0  0  0
 33 34  2  0  0  0  0
 34  5  1  0  0  0  0
 35 33  1  0  0  0  0
 37 36  1  0  0  0  0
M  END
>  <MODEL>
1

>  <REMARK>
 VINA RESULT:      -9.0      0.000      0.000
  Name = 
  3 active torsions:
  status: ('A' for Active; 'I' for Inactive)
    1  A    between atoms: C_5  and  O_23
    2  A    between atoms: C_6  and  C_31
    3  A    between atoms: C_9  and  C_30
                            x       y       z     vdW  Elec       q    Type
                         _______ _______ _______ _____ _____    ______ ____

>  <TORSDO>
F 3

$$$$
=
 OpenBabel11052419523D

 37 44  0  0  1  0  0  0  0  0999 V2000
  192.2690  172.7770  141.2930 C   0  0  0  0  0  2  0  0  0  0  0  0
  192.6090  175.0110  144.9320 C   0  0  0  0  0  0  0  0  0  0  0  0
  192.2820  173.2120  139.8430 C   0  0  1  0  0  3  0  0  0  0  0  0
  189.0330  174.9830  143.6830 C   0  0  0  0  0  2  0  0  0  0  0  0
  194.9430  174.3020  145.0510 C   0  0  0  0  0  0  0  0  0  0  0  0
  191.4430  174.6100  144.4270 C   0  0  0  0  0  0  0  0  0  0  0  0
  189.3480  172.7640  141.2450 C   0  0  1  0  0  3  0  0  0  0  0  0
  193.6610  174.0390  144.7170 C   0  0  0  0  0  0  0  0  0  0  0  0
  190.1370  175.3010  144.6510 C   0  0  0  0  0  0  0  0  0  0  0  0
  195.2560  175.6110  145.6650 C   0  0  0  0  0  3  0  0  0  0  0  0
  190.8640  173.1140  139.3170 C   0  0  0  0  0  2  0  0  0  0  0  0
  193.0120  172.9110  143.9940 C   0  0  0  0  0  0  0  0  0  0  0  0
  192.8410  171.7450  144.9570 C   0  0  0  0  0  2  0  0  0  0  0  0
  192.0670  176.2880  146.9220 C   0  0  0  0  0  3  0  0  0  0  0  0
  194.3090  176.5190  145.9440 C   0  0  0  0  0  3  0  0  0  0  0  0
  193.6040  171.5470  143.6710 C   0  0  0  0  0  2  0  0  0  0  0  0
  189.8220  173.7910  140.2110 C   0  0  2  0  0  3  0  0  0  0  0  0
  189.4610  175.2200  142.2490 C   0  0  0  0  0  2  0  0  0  0  0  0
  192.8430  176.2970  145.6570 C   0  0  1  0  0  3  0  0  0  0  0  0
  191.6080  173.3710  143.5570 C   0  0  2  0  0  3  0  0  0  0  0  0
  189.8360  176.0290  145.7720 C   0  0  0  0  0  0  0  0  0  0  0  0
  190.1580  173.9790  141.6990 C   0  0  1  0  0  0  0  0  0  0  0  0
  187.8510  172.9210  141.4540 C   0  0  0  0  0  1  0  0  0  0  0  0
  191.5680  173.7650  142.1260 N   0  0  2  0  0  0  0  0  0  0  0  0
  190.7390  176.1860  146.9420 C   0  0  0  0  0  3  0  0  0  0  0  0
  187.6570  176.1580  146.9010 C   0  0  0  0  0  3  0  0  0  0  0  0
  188.4910  176.6290  145.9620 C   0  0  0  0  0  0  0  0  0  0  0  0
  188.0200  177.6900  145.0420 C   0  0  0  0  0  3  0  0  0  0  0  0
  186.3160  179.0390  144.1310 O   0  0  0  0  0  1  0  0  0  0  0  0
  185.7090  177.2810  145.8050 C   0  0  0  0  0  2  0  0  0  0  0  0
  186.7280  178.0300  144.9900 C   0  0  0  0  0  0  0  0  0  0  0  0
  186.3120  176.7910  147.1250 C   0  0  0  0  0  2  0  0  0  0  0  0
  196.4850  172.4890  145.6850 C   0  0  0  0  0  3  0  0  0  0  0  0
  196.0810  173.4010  144.8120 C   0  0  0  0  0  3  0  0  0  0  0  0
  197.5660  171.6740  145.3890 O   0  0  0  0  0  1  0  0  0  0  0  0
  193.4410  174.5380  138.5020 C   0  0  0  0  0  1  0  0  0  0  0  0
  192.7630  174.5190  139.7210 O   0  0  0  0  0  0  0  0  0  0  0  0
  2 19  1  0  0  0  0
  3 37  1  1  0  0  0
  3  1  1  0  0  0  0
  4  9  1  0  0  0  0
  5 10  1  0  0  0  0
  6  9  1  0  0  0  0
  6  2  2  0  0  0  0
  7 23  1  1  0  0  0
  7 22  1  0  0  0  0
  8  2  1  0  0  0  0
  8  5  2  0  0  0  0
  9 21  2  0  0  0  0
 10 15  2  0  0  0  0
 11  3  1  0  0  0  0
 12  8  1  0  0  0  0
 12 13  1  0  0  0  0
 14 25  2  0  0  0  0
 16 12  1  0  0  0  0
 16 13  1  0  0  0  0
 17 11  1  6  0  0  0
 17  7  1  0  0  0  0
 17 22  1  0  0  0  0
 18  4  1  0  0  0  0
 19 15  1  1  0  0  0
 19 14  1  0  0  0  0
 20 12  1  0  0  0  0
 20  6  1  1  0  0  0
 21 27  1  0  0  0  0
 21 25  1  0  0  0  0
 22 24  1  0  0  0  0
 22 18  1  1  0  0  0
 24  1  1  6  0  0  0
 24 20  1  0  0  0  0
 26 32  1  0  0  0  0
 27 26  2  0  0  0  0
 28 27  1  0  0  0  0
 29 31  1  0  0  0  0
 30 32  1  0  0  0  0
 31 28  2  0  0  0  0
 31 30  1  0  0  0  0
 34  5  1  0  0  0  0
 34 33  2  0  0  0  0
 35 33  1  0  0  0  0
 36 37  1  0  0  0  0
M  END
>  <MODEL>
2

>  <REMARK>
 VINA RESULT:      -8.8      1.586      6.790
  Name = 
  3 active torsions:
  status: ('A' for Active; 'I' for Inactive)
    1  A    between atoms: C_5  and  O_23
    2  A    between atoms: C_6  and  C_31
    3  A    between atoms: C_9  and  C_30
                            x       y       z     vdW  Elec       q    Type
                         _______ _______ _______ _____ _____    ______ ____

>  <TORSDO>
F 3

$$$$
=
 OpenBabel11052419523D

 37 44  0  0  1  0  0  0  0  0999 V2000
  192.6590  175.5070  146.5140 C   0  0  0  0  0  2  0  0  0  0  0  0
  189.4100  175.0250  143.7640 C   0  0  0  0  0  0  0  0  0  0  0  0
  193.9640  176.2660  146.4030 C   0  0  1  0  0  3  0  0  0  0  0  0
  192.1580  172.5100  143.0760 C   0  0  0  0  0  2  0  0  0  0  0  0
  188.1900  176.7140  145.0390 C   0  0  0  0  0  0  0  0  0  0  0  0
  190.3700  174.1150  143.9290 C   0  0  0  0  0  0  0  0  0  0  0  0
  194.0420  173.0510  145.7460 C   0  0  1  0  0  3  0  0  0  0  0  0
  189.0590  175.6810  145.0070 C   0  0  2  0  0  3  0  0  0  0  0  0
  190.8120  173.1470  142.8800 C   0  0  0  0  0  0  0  0  0  0  0  0
  187.5800  177.1590  143.7670 C   0  0  0  0  0  3  0  0  0  0  0  0
  195.0760  175.2540  146.2190 C   0  0  0  0  0  2  0  0  0  0  0  0
  189.9320  175.0570  146.0400 C   0  0  0  0  0  0  0  0  0  0  0  0
  189.0880  174.1230  146.8950 C   0  0  0  0  0  2  0  0  0  0  0  0
  187.9720  174.1640  142.0110 C   0  0  0  0  0  3  0  0  0  0  0  0
  187.8230  176.5440  142.5990 C   0  0  0  0  0  3  0  0  0  0  0  0
  189.8650  175.2370  147.5490 C   0  0  0  0  0  2  0  0  0  0  0  0
  194.8020  174.2250  145.1180 C   0  0  2  0  0  3  0  0  0  0  0  0
  193.2460  173.5480  143.2610 C   0  0  0  0  0  2  0  0  0  0  0  0
  188.7370  175.3490  142.4700 C   0  0  0  0  0  0  0  0  0  0  0  0
  190.9910  174.2040  145.3160 C   0  0  2  0  0  3  0  0  0  0  0  0
  190.0000  172.6690  141.8860 C   0  0  0  0  0  0  0  0  0  0  0  0
  193.3400  173.9530  144.7290 C   0  0  1  0  0  0  0  0  0  0  0  0
  194.5540  171.7500  145.1510 C   0  0  0  0  0  1  0  0  0  0  0  0
  192.3020  174.8970  145.2260 N   0  0  2  0  0  0  0  0  0  0  0  0
  188.5580  172.9980  141.7440 C   0  0  0  0  0  3  0  0  0  0  0  0
  190.5640  170.3580  141.2650 C   0  0  0  0  0  3  0  0  0  0  0  0
  190.4850  171.6510  140.9180 C   0  0  0  0  0  0  0  0  0  0  0  0
  190.9850  172.0760  139.5900 C   0  0  0  0  0  3  0  0  0  0  0  0
  192.1430  171.6610  137.5800 O   0  0  0  0  0  1  0  0  0  0  0  0
  192.0880  169.8820  139.3390 C   0  0  0  0  0  2  0  0  0  0  0  0
  191.7010  171.2430  138.8270 C   0  0  0  0  0  0  0  0  0  0  0  0
  191.0140  169.3210  140.2750 C   0  0  0  0  0  2  0  0  0  0  0  0
  186.6850  177.3050  146.8960 C   0  0  0  0  0  3  0  0  0  0  0  0
  187.8260  177.4760  146.2430 C   0  0  0  0  0  3  0  0  0  0  0  0
  186.4120  178.0610  148.0260 O   0  0  0  0  0  1  0  0  0  0  0  0
  195.0860  177.9280  145.4640 C   0  0  0  0  0  1  0  0  0  0  0  0
  193.9290  177.1590  145.3280 O   0  0  0  0  0  0  0  0  0  0  0  0
  2  6  2  0  0  0  0
  3 37  1  6  0  0  0
  3  1  1  0  0  0  0
  4 18  1  0  0  0  0
  5 34  1  0  0  0  0
  7 23  1  6  0  0  0
  8  2  1  6  0  0  0
  8  5  1  0  0  0  0
  8 12  1  0  0  0  0
  9  4  1  0  0  0  0
  9  6  1  0  0  0  0
 10  5  2  0  0  0  0
 11  3  1  0  0  0  0
 12 13  1  0  0  0  0
 12 16  1  0  0  0  0
 13 16  1  0  0  0  0
 14 19  1  0  0  0  0
 15 10  1  0  0  0  0
 17  7  1  0  0  0  0
 17 11  1  1  0  0  0
 19 15  2  0  0  0  0
 19  2  1  0  0  0  0
 20  6  1  6  0  0  0
 20 12  1  0  0  0  0
 21  9  2  0  0  0  0
 22 18  1  6  0  0  0
 22 17  1  0  0  0  0
 22 24  1  0  0  0  0
 22  7  1  0  0  0  0
 24 20  1  0  0  0  0
 24  1  1  1  0  0  0
 25 21  1  0  0  0  0
 25 14  2  0  0  0  0
 27 26  2  0  0  0  0
 27 21  1  0  0  0  0
 28 27  1  0  0  0  0
 29 31  1  0  0  0  0
 30 32  1  0  0  0  0
 31 30  1  0  0  0  0
 31 28  2  0  0  0  0
 32 26  1  0  0  0  0
 33 35  1  0  0  0  0
 34 33  2  0  0  0  0
 37 36  1  0  0  0  0
M  END
>  <MODEL>
3

>  <REMARK>
 VINA RESULT:      -8.8      2.323      5.792
  Name = 
  3 active torsions:
  status: ('A' for Active; 'I' for Inactive)
    1  A    between atoms: C_5  and  O_23
    2  A    between atoms: C_6  and  C_31
    3  A    between atoms: C_9  and  C_30
                            x       y       z     vdW  Elec       q    Type
                         _______ _______ _______ _____ _____    ______ ____

>  <TORSDO>
F 3

$$$$
=
 OpenBabel11052419523D

 37 44  0  0  1  0  0  0  0  0999 V2000
  195.6200  173.6390  143.5630 C   0  0  0  0  0  2  0  0  0  0  0  0
  191.5530  172.9790  142.3910 C   0  0  0  0  0  0  0  0  0  0  0  0
  196.4410  173.0730  144.7020 C   0  0  1  0  0  3  0  0  0  0  0  0
  191.7780  175.6320  145.0870 C   0  0  0  0  0  2  0  0  0  0  0  0
  192.3850  171.4810  140.6510 C   0  0  0  0  0  0  0  0  0  0  0  0
  191.9460  174.0320  143.1090 C   0  0  0  0  0  0  0  0  0  0  0  0
  195.0670  176.0180  145.1670 C   0  0  1  0  0  3  0  0  0  0  0  0
  192.5380  172.5930  141.4030 C   0  0  2  0  0  3  0  0  0  0  0  0
  191.0770  174.7780  144.0690 C   0  0  0  0  0  0  0  0  0  0  0  0
  191.1670  170.6640  140.8440 C   0  0  0  0  0  3  0  0  0  0  0  0
  196.6090  174.1640  145.7400 C   0  0  0  0  0  2  0  0  0  0  0  0
  193.6560  173.5630  141.5620 C   0  0  0  0  0  0  0  0  0  0  0  0
  193.6270  174.5410  140.3960 C   0  0  0  0  0  2  0  0  0  0  0  0
  189.1460  173.1820  142.1770 C   0  0  0  0  0  3  0  0  0  0  0  0
  190.1960  171.0130  141.7000 C   0  0  0  0  0  3  0  0  0  0  0  0
  194.8750  173.7380  140.6680 C   0  0  0  0  0  2  0  0  0  0  0  0
  195.2980  174.8510  146.1340 C   0  0  2  0  0  3  0  0  0  0  0  0
  192.7960  174.8360  145.8780 C   0  0  0  0  0  2  0  0  0  0  0  0
  190.2510  172.2630  142.5460 C   0  0  0  0  0  0  0  0  0  0  0  0
  193.4090  174.3650  142.8550 C   0  0  2  0  0  3  0  0  0  0  0  0
  189.7170  174.8840  143.9500 C   0  0  0  0  0  0  0  0  0  0  0  0
  194.1300  174.8090  145.1370 C   0  0  1  0  0  0  0  0  0  0  0  0
  194.5050  177.2010  145.9370 C   0  0  0  0  0  1  0  0  0  0  0  0
  194.2320  173.8690  143.9870 N   0  0  2  0  0  0  0  0  0  0  0  0
  188.9220  174.3240  142.8250 C   0  0  0  0  0  3  0  0  0  0  0  0
  188.7430  175.2990  146.1690 C   0  0  0  0  0  3  0  0  0  0  0  0
  188.9220  175.7020  144.9020 C   0  0  0  0  0  0  0  0  0  0  0  0
  188.2320  176.9230  144.4260 C   0  0  0  0  0  3  0  0  0  0  0  0
  186.6590  178.6560  144.7000 O   0  0  0  0  0  1  0  0  0  0  0  0
  186.8220  176.8770  146.4520 C   0  0  0  0  0  2  0  0  0  0  0  0
  187.2770  177.5030  145.1610 C   0  0  0  0  0  0  0  0  0  0  0  0
  187.9750  176.1460  147.1450 C   0  0  0  0  0  2  0  0  0  0  0  0
  193.2720  171.2140  138.3700 C   0  0  0  0  0  3  0  0  0  0  0  0
  193.3620  170.9810  139.6710 C   0  0  0  0  0  3  0  0  0  0  0  0
  194.2340  170.7090  137.5070 O   0  0  0  0  0  1  0  0  0  0  0  0
  196.8040  171.3300  146.0180 C   0  0  0  0  0  1  0  0  0  0  0  0
  195.8130  171.9560  145.2590 O   0  0  0  0  0  0  0  0  0  0  0  0
  1  3  1  0  0  0  0
  2 19  1  0  0  0  0
  2  6  2  0  0  0  0
  3 37  1  1  0  0  0
  3 11  1  0  0  0  0
  4 18  1  0  0  0  0
  5 10  2  0  0  0  0
  6  9  1  0  0  0  0
  7 23  1  1  0  0  0
  7 17  1  0  0  0  0
  8  5  1  1  0  0  0
  8 12  1  0  0  0  0
  8  2  1  0  0  0  0
  9  4  1  0  0  0  0
 10 15  1  0  0  0  0
 12 20  1  0  0  0  0
 13 16  1  0  0  0  0
 13 12  1  0  0  0  0
 14 19  1  0  0  0  0
 14 25  2  0  0  0  0
 15 19  2  0  0  0  0
 16 12  1  0  0  0  0
 17 11  1  6  0  0  0
 20  6  1  1  0  0  0
 20 24  1  0  0  0  0
 21  9  2  0  0  0  0
 21 27  1  0  0  0  0
 22  7  1  0  0  0  0
 22 18  1  1  0  0  0
 22 17  1  0  0  0  0
 24  1  1  6  0  0  0
 24 22  1  0  0  0  0
 25 21  1  0  0  0  0
 26 32  1  0  0  0  0
 27 26  2  0  0  0  0
 28 27  1  0  0  0  0
 28 31  2  0  0  0  0
 29 31  1  0  0  0  0
 30 32  1  0  0  0  0
 31 30  1  0  0  0  0
 33 34  2  0  0  0  0
 34  5  1  0  0  0  0
 35 33  1  0  0  0  0
 37 36  1  0  0  0  0
M  END
>  <MODEL>
4

>  <REMARK>
 VINA RESULT:      -7.9      2.097      7.536
  Name = 
  3 active torsions:
  status: ('A' for Active; 'I' for Inactive)
    1  A    between atoms: C_5  and  O_23
    2  A    between atoms: C_6  and  C_31
    3  A    between atoms: C_9  and  C_30
                            x       y       z     vdW  Elec       q    Type
                         _______ _______ _______ _____ _____    ______ ____

>  <TORSDO>
F 3

$$$$
=
 OpenBabel11052419523D

 37 44  0  0  1  0  0  0  0  0999 V2000
  187.9260  177.7760  144.2510 C   0  0  0  0  0  2  0  0  0  0  0  0
  190.9060  174.7680  143.6010 C   0  0  0  0  0  0  0  0  0  0  0  0
  186.5070  177.6880  144.7710 C   0  0  1  0  0  3  0  0  0  0  0  0
  188.5660  175.0290  140.6320 C   0  0  0  0  0  2  0  0  0  0  0  0
  191.9480  175.4670  145.6960 C   0  0  0  0  0  0  0  0  0  0  0  0
  190.1360  175.2570  142.6280 C   0  0  0  0  0  0  0  0  0  0  0  0
  186.9060  177.7560  141.5130 C   0  0  1  0  0  3  0  0  0  0  0  0
  191.2680  175.7790  144.5720 C   0  0  0  0  0  0  0  0  0  0  0  0
  189.7580  174.5140  141.3890 C   0  0  0  0  0  0  0  0  0  0  0  0
  192.3380  174.0560  145.9120 C   0  0  0  0  0  3  0  0  0  0  0  0
  185.5700  177.8830  143.5970 C   0  0  0  0  0  2  0  0  0  0  0  0
  190.6260  177.0340  144.0920 C   0  0  0  0  0  0  0  0  0  0  0  0
  191.7000  177.9430  143.5130 C   0  0  0  0  0  2  0  0  0  0  0  0
  192.2790  173.0580  142.5650 C   0  0  0  0  0  3  0  0  0  0  0  0
  192.0830  173.0940  145.0130 C   0  0  0  0  0  3  0  0  0  0  0  0
  190.8170  178.4440  144.6290 C   0  0  0  0  0  2  0  0  0  0  0  0
  185.8980  177.0020  142.3880 C   0  0  2  0  0  3  0  0  0  0  0  0
  187.3430  175.1360  141.5210 C   0  0  0  0  0  2  0  0  0  0  0  0
  191.3760  173.3540  143.7040 C   0  0  1  0  0  3  0  0  0  0  0  0
  189.6560  176.6660  142.9510 C   0  0  2  0  0  3  0  0  0  0  0  0
  190.5310  173.5420  140.8110 C   0  0  0  0  0  0  0  0  0  0  0  0
  187.3360  176.4810  142.2410 C   0  0  1  0  0  0  0  0  0  0  0  0
  186.5620  177.5320  140.0500 C   0  0  0  0  0  1  0  0  0  0  0  0
  188.2450  176.6130  143.4120 N   0  0  2  0  0  0  0  0  0  0  0  0
  191.8740  173.1330  141.2980 C   0  0  0  0  0  3  0  0  0  0  0  0
  189.7660  171.6020  139.5100 C   0  0  0  0  0  3  0  0  0  0  0  0
  190.1270  172.8930  139.5370 C   0  0  0  0  0  0  0  0  0  0  0  0
  190.2210  173.6450  138.2640 C   0  0  0  0  0  3  0  0  0  0  0  0
  190.2380  173.7430  135.9100 O   0  0  0  0  0  1  0  0  0  0  0  0
  190.0880  171.5110  137.0310 C   0  0  0  0  0  2  0  0  0  0  0  0
  190.1640  173.0130  137.0870 C   0  0  0  0  0  0  0  0  0  0  0  0
  189.3160  170.9540  138.2300 C   0  0  0  0  0  2  0  0  0  0  0  0
  191.5410  176.6300  147.8280 C   0  0  0  0  0  3  0  0  0  0  0  0
  192.3010  176.4160  146.7630 C   0  0  0  0  0  3  0  0  0  0  0  0
  191.9410  177.5410  148.7940 O   0  0  0  0  0  1  0  0  0  0  0  0
  185.4710  176.7420  146.4840 C   0  0  0  0  0  1  0  0  0  0  0  0
  186.2780  176.4520  145.3820 O   0  0  0  0  0  0  0  0  0  0  0  0
  1  3  1  0  0  0  0
  2 19  1  0  0  0  0
  2  8  1  0  0  0  0
  3 37  1  6  0  0  0
  4  9  1  0  0  0  0
  4 18  1  0  0  0  0
  5 10  1  0  0  0  0
  5 34  1  0  0  0  0
  6  2  2  0  0  0  0
  7 23  1  6  0  0  0
  7 22  1  0  0  0  0
  7 17  1  0  0  0  0
  8  5  2  0  0  0  0
  9  6  1  0  0  0  0
 11  3  1  0  0  0  0
 12  8  1  0  0  0  0
 12 16  1  0  0  0  0
 13 12  1  0  0  0  0
 13 16  1  0  0  0  0
 15 10  2  0  0  0  0
 17 11  1  1  0  0  0
 19 14  1  6  0  0  0
 19 15  1  0  0  0  0
 20  6  1  1  0  0  0
 20 24  1  0  0  0  0
 20 12  1  0  0  0  0
 21 25  1  0  0  0  0
 21  9  2  0  0  0  0
 22 18  1  6  0  0  0
 22 17  1  0  0  0  0
 22 24  1  0  0  0  0
 24  1  1  6  0  0  0
 25 14  2  0  0  0  0
 26 27  2  0  0  0  0
 27 21  1  0  0  0  0
 28 27  1  0  0  0  0
 29 31  1  0  0  0  0
 30 31  1  0  0  0  0
 30 32  1  0  0  0  0
 31 28  2  0  0  0  0
 32 26  1  0  0  0  0
 33 35  1  0  0  0  0
 34 33  2  0  0  0  0
 37 36  1  0  0  0  0
M  END
>  <MODEL>
5

>  <REMARK>
 VINA RESULT:      -7.8      2.703      6.362
  Name = 
  3 active torsions:
  status: ('A' for Active; 'I' for Inactive)
    1  A    between atoms: C_5  and  O_23
    2  A    between atoms: C_6  and  C_31
    3  A    between atoms: C_9  and  C_30
                            x       y       z     vdW  Elec       q    Type
                         _______ _______ _______ _____ _____    ______ ____

>  <TORSDO>
F 3

$$$$
=
 OpenBabel11052419523D

 37 44  0  0  1  0  0  0  0  0999 V2000
  188.5060  175.9100  143.5570 C   0  0  0  0  0  2  0  0  0  0  0  0
  191.3780  173.4280  141.5730 C   0  0  0  0  0  0  0  0  0  0  0  0
  188.4990  177.3940  143.8580 C   0  0  1  0  0  3  0  0  0  0  0  0
  192.2610  173.8720  145.2300 C   0  0  0  0  0  2  0  0  0  0  0  0
  189.9610  173.5190  139.5860 C   0  0  0  0  0  0  0  0  0  0  0  0
  191.2880  173.5250  142.9000 C   0  0  0  0  0  0  0  0  0  0  0  0
  189.4990  175.3860  146.2550 C   0  0  1  0  0  3  0  0  0  0  0  0
  190.0820  173.4860  140.9310 C   0  0  2  0  0  3  0  0  0  0  0  0
  192.4240  173.3100  143.8470 C   0  0  0  0  0  0  0  0  0  0  0  0
  191.1930  173.4780  138.7680 C   0  0  0  0  0  3  0  0  0  0  0  0
  188.7620  177.5680  145.3400 C   0  0  0  0  0  2  0  0  0  0  0  0
  189.0990  173.6270  142.0410 C   0  0  0  0  0  0  0  0  0  0  0  0
  188.3740  172.3010  142.2250 C   0  0  0  0  0  2  0  0  0  0  0  0
  193.2520  171.9500  141.1410 C   0  0  0  0  0  3  0  0  0  0  0  0
  192.4130  173.3590  139.3130 C   0  0  0  0  0  3  0  0  0  0  0  0
  187.5820  173.5570  141.9580 C   0  0  0  0  0  2  0  0  0  0  0  0
  189.9750  176.7860  145.8510 C   0  0  2  0  0  3  0  0  0  0  0  0
  191.9360  175.3520  145.1980 C   0  0  0  0  0  2  0  0  0  0  0  0
  192.6470  173.2610  140.8020 C   0  0  0  0  0  0  0  0  0  0  0  0
  189.8830  173.9180  143.3360 C   0  0  2  0  0  3  0  0  0  0  0  0
  193.4850  172.4820  143.5970 C   0  0  0  0  0  0  0  0  0  0  0  0
  190.4300  175.5540  145.0530 C   0  0  1  0  0  0  0  0  0  0  0  0
  190.2180  174.9610  147.5240 C   0  0  0  0  0  1  0  0  0  0  0  0
  189.8620  175.3590  143.6900 N   0  0  2  0  0  0  0  0  0  0  0  0
  193.6290  171.6390  142.3810 C   0  0  0  0  0  3  0  0  0  0  0  0
  195.5600  173.1250  144.7470 C   0  0  0  0  0  3  0  0  0  0  0  0
  194.5440  172.2590  144.6140 C   0  0  0  0  0  0  0  0  0  0  0  0
  194.5410  171.0180  145.4220 C   0  0  0  0  0  3  0  0  0  0  0  0
  195.5880  169.4870  146.8760 O   0  0  0  0  0  1  0  0  0  0  0  0
  196.9000  171.4360  146.0160 C   0  0  0  0  0  2  0  0  0  0  0  0
  195.6240  170.6450  146.1130 C   0  0  0  0  0  0  0  0  0  0  0  0
  196.6100  172.9250  145.8030 C   0  0  0  0  0  2  0  0  0  0  0  0
  188.3760  174.6940  138.1120 C   0  0  0  0  0  3  0  0  0  0  0  0
  188.6910  173.6410  138.8530 C   0  0  0  0  0  3  0  0  0  0  0  0
  187.1590  174.7370  137.4490 O   0  0  0  0  0  1  0  0  0  0  0  0
  188.8710  178.2810  141.8640 C   0  0  0  0  0  1  0  0  0  0  0  0
  189.4710  178.0580  143.1040 O   0  0  0  0  0  0  0  0  0  0  0  0
  1  3  1  0  0  0  0
  2  6  2  0  0  0  0
  3 37  1  6  0  0  0
  3 11  1  0  0  0  0
  6  9  1  0  0  0  0
  7 23  1  1  0  0  0
  8  5  1  6  0  0  0
  8  2  1  0  0  0  0
  8 12  1  0  0  0  0
  9  4  1  0  0  0  0
 10 15  1  0  0  0  0
 10  5  2  0  0  0  0
 12 13  1  0  0  0  0
 12 20  1  0  0  0  0
 14 25  2  0  0  0  0
 15 19  2  0  0  0  0
 16 12  1  0  0  0  0
 16 13  1  0  0  0  0
 17 11  1  6  0  0  0
 17  7  1  0  0  0  0
 18  4  1  0  0  0  0
 19 14  1  0  0  0  0
 19  2  1  0  0  0  0
 20  6  1  6  0  0  0
 20 24  1  0  0  0  0
 21  9  2  0  0  0  0
 21 27  1  0  0  0  0
 22 18  1  1  0  0  0
 22 17  1  0  0  0  0
 22  7  1  0  0  0  0
 24  1  1  1  0  0  0
 24 22  1  0  0  0  0
 25 21  1  0  0  0  0
 26 32  1  0  0  0  0
 27 26  2  0  0  0  0
 27 28  1  0  0  0  0
 28 31  2  0  0  0  0
 30 31  1  0  0  0  0
 31 29  1  0  0  0  0
 32 30  1  0  0  0  0
 33 34  2  0  0  0  0
 34  5  1  0  0  0  0
 35 33  1  0  0  0  0
 36 37  1  0  0  0  0
M  END
>  <MODEL>
6

>  <REMARK>
 VINA RESULT:      -7.6      1.676      5.127
  Name = 
  3 active torsions:
  status: ('A' for Active; 'I' for Inactive)
    1  A    between atoms: C_5  and  O_23
    2  A    between atoms: C_6  and  C_31
    3  A    between atoms: C_9  and  C_30
                            x       y       z     vdW  Elec       q    Type
                         _______ _______ _______ _____ _____    ______ ____

>  <TORSDO>
F 3

$$$$
=
 OpenBabel11052419523D

 37 44  0  0  1  0  0  0  0  0999 V2000
  193.6320  172.9990  143.2870 C   0  0  0  0  0  2  0  0  0  0  0  0
  190.2430  173.5320  140.7230 C   0  0  0  0  0  0  0  0  0  0  0  0
  193.8300  172.1520  144.5270 C   0  0  1  0  0  3  0  0  0  0  0  0
  190.0430  175.8220  143.7350 C   0  0  0  0  0  2  0  0  0  0  0  0
  191.3030  172.0010  139.1430 C   0  0  0  0  0  0  0  0  0  0  0  0
  190.5670  174.3860  141.6940 C   0  0  0  0  0  0  0  0  0  0  0  0
  193.0690  175.3130  144.9800 C   0  0  1  0  0  3  0  0  0  0  0  0
  191.4100  172.9720  140.0750 C   0  0  2  0  0  3  0  0  0  0  0  0
  189.5940  175.2630  142.4140 C   0  0  0  0  0  0  0  0  0  0  0  0
  189.9500  171.5240  138.7780 C   0  0  0  0  0  3  0  0  0  0  0  0
  193.8410  173.0790  145.7250 C   0  0  0  0  0  2  0  0  0  0  0  0
  192.5760  173.5960  140.7590 C   0  0  0  0  0  0  0  0  0  0  0  0
  193.1950  174.6300  139.8290 C   0  0  0  0  0  2  0  0  0  0  0  0
  188.1920  174.3830  139.7470 C   0  0  0  0  0  3  0  0  0  0  0  0
  188.8350  172.0540  139.3020 C   0  0  0  0  0  3  0  0  0  0  0  0
  194.0440  173.5070  140.3690 C   0  0  0  0  0  2  0  0  0  0  0  0
  192.6650  174.0580  145.7630 C   0  0  2  0  0  3  0  0  0  0  0  0
  190.4960  174.7270  144.6800 C   0  0  0  0  0  2  0  0  0  0  0  0
  188.8510  173.1780  140.3100 C   0  0  0  0  0  0  0  0  0  0  0  0
  192.0560  174.3370  142.0060 C   0  0  2  0  0  3  0  0  0  0  0  0
  188.4320  175.7340  141.8640 C   0  0  0  0  0  0  0  0  0  0  0  0
  191.9660  174.4020  144.4380 C   0  0  1  0  0  0  0  0  0  0  0  0
  192.5400  176.5420  145.7000 C   0  0  0  0  0  1  0  0  0  0  0  0
  192.2730  173.5570  143.2510 N   0  0  2  0  0  0  0  0  0  0  0  0
  188.0040  175.4910  140.4610 C   0  0  0  0  0  3  0  0  0  0  0  0
  187.4720  177.9590  142.2790 C   0  0  0  0  0  3  0  0  0  0  0  0
  187.5460  176.6610  142.6130 C   0  0  0  0  0  0  0  0  0  0  0  0
  186.8130  176.1790  143.8060 C   0  0  0  0  0  3  0  0  0  0  0  0
  185.5660  176.5590  145.7690 O   0  0  0  0  0  1  0  0  0  0  0  0
  186.4480  178.5210  144.4910 C   0  0  0  0  0  2  0  0  0  0  0  0
  186.2620  177.0380  144.6690 C   0  0  0  0  0  0  0  0  0  0  0  0
  186.5450  178.8900  143.0080 C   0  0  0  0  0  2  0  0  0  0  0  0
  192.8750  171.6690  137.2770 C   0  0  0  0  0  3  0  0  0  0  0  0
  192.4350  171.3330  138.4810 C   0  0  0  0  0  3  0  0  0  0  0  0
  193.9490  170.9940  136.7180 O   0  0  0  0  0  1  0  0  0  0  0  0
  193.4660  169.9710  144.6350 C   0  0  0  0  0  1  0  0  0  0  0  0
  192.8110  171.2030  144.6480 O   0  0  0  0  0  0  0  0  0  0  0  0
  1  3  1  0  0  0  0
  2  6  2  0  0  0  0
  3 37  1  1  0  0  0
  3 11  1  0  0  0  0
  4 18  1  0  0  0  0
  6  9  1  0  0  0  0
  7 23  1  1  0  0  0
  7 17  1  0  0  0  0
  8  5  1  1  0  0  0
  8  2  1  0  0  0  0
  8 12  1  0  0  0  0
  9  4  1  0  0  0  0
 10  5  2  0  0  0  0
 10 15  1  0  0  0  0
 12 20  1  0  0  0  0
 13 16  1  0  0  0  0
 13 12  1  0  0  0  0
 14 19  1  0  0  0  0
 14 25  2  0  0  0  0
 15 19  2  0  0  0  0
 16 12  1  0  0  0  0
 17 11  1  6  0  0  0
 19  2  1  0  0  0  0
 20  6  1  6  0  0  0
 20 24  1  0  0  0  0
 21  9  2  0  0  0  0
 21 27  1  0  0  0  0
 22 18  1  1  0  0  0
 22  7  1  0  0  0  0
 22 17  1  0  0  0  0
 24  1  1  1  0  0  0
 24 22  1  0  0  0  0
 25 21  1  0  0  0  0
 26 27  2  0  0  0  0
 26 32  1  0  0  0  0
 27 28  1  0  0  0  0
 28 31  2  0  0  0  0
 30 31  1  0  0  0  0
 31 29  1  0  0  0  0
 32 30  1  0  0  0  0
 33 34  2  0  0  0  0
 34  5  1  0  0  0  0
 35 33  1  0  0  0  0
 36 37  1  0  0  0  0
M  END
>  <MODEL>
7

>  <REMARK>
 VINA RESULT:      -7.2      2.019      7.687
  Name = 
  3 active torsions:
  status: ('A' for Active; 'I' for Inactive)
    1  A    between atoms: C_5  and  O_23
    2  A    between atoms: C_6  and  C_31
    3  A    between atoms: C_9  and  C_30
                            x       y       z     vdW  Elec       q    Type
                         _______ _______ _______ _____ _____    ______ ____

>  <TORSDO>
F 3

$$$$
=
 OpenBabel11052419523D

 37 44  0  0  1  0  0  0  0  0999 V2000
  189.7940  174.1780  142.8400 C   0  0  0  0  0  2  0  0  0  0  0  0
  193.9110  175.2390  143.3600 C   0  0  0  0  0  0  0  0  0  0  0  0
  189.0760  172.8500  142.9570 C   0  0  1  0  0  3  0  0  0  0  0  0
  193.2710  173.9540  139.8550 C   0  0  0  0  0  2  0  0  0  0  0  0
  193.3250  176.0910  145.5730 C   0  0  0  0  0  0  0  0  0  0  0  0
  193.3570  175.0230  142.1670 C   0  0  0  0  0  0  0  0  0  0  0  0
  189.9640  173.8110  139.9460 C   0  0  1  0  0  3  0  0  0  0  0  0
  192.9980  175.8870  144.2790 C   0  0  0  0  0  0  0  0  0  0  0  0
  194.0970  174.5480  140.9600 C   0  0  0  0  0  0  0  0  0  0  0  0
  194.6580  175.6510  146.0390 C   0  0  0  0  0  3  0  0  0  0  0  0
  188.7390  172.3800  141.5570 C   0  0  0  0  0  2  0  0  0  0  0  0
  191.7390  176.0840  143.5070 C   0  0  0  0  0  0  0  0  0  0  0  0
  191.6090  177.5580  143.1500 C   0  0  0  0  0  2  0  0  0  0  0  0
  196.2540  175.6940  142.9320 C   0  0  0  0  0  3  0  0  0  0  0  0
  195.5640  175.1040  145.2140 C   0  0  0  0  0  3  0  0  0  0  0  0
  190.5070  176.8750  143.9200 C   0  0  0  0  0  2  0  0  0  0  0  0
  189.9230  172.4190  140.5870 C   0  0  2  0  0  3  0  0  0  0  0  0
  192.3950  172.8240  140.3570 C   0  0  0  0  0  2  0  0  0  0  0  0
  195.3110  174.8840  143.7410 C   0  0  1  0  0  3  0  0  0  0  0  0
  191.8580  175.2890  142.1920 C   0  0  2  0  0  3  0  0  0  0  0  0
  195.4230  174.7990  140.7240 C   0  0  0  0  0  0  0  0  0  0  0  0
  191.0810  173.3800  140.8980 C   0  0  1  0  0  0  0  0  0  0  0  0
  190.3310  173.6730  138.4780 C   0  0  0  0  0  1  0  0  0  0  0  0
  191.1280  173.9980  142.2510 N   0  0  2  0  0  0  0  0  0  0  0  0
  196.2940  175.6230  141.6020 C   0  0  0  0  0  3  0  0  0  0  0  0
  196.6620  173.1520  139.3840 C   0  0  0  0  0  3  0  0  0  0  0  0
  196.0790  174.3570  139.4670 C   0  0  0  0  0  0  0  0  0  0  0  0
  196.1840  175.2920  138.3220 C   0  0  0  0  0  3  0  0  0  0  0  0
  197.0870  175.9280  136.2410 O   0  0  0  0  0  1  0  0  0  0  0  0
  197.9360  173.8520  137.3490 C   0  0  0  0  0  2  0  0  0  0  0  0
  197.0200  175.0450  137.3090 C   0  0  0  0  0  0  0  0  0  0  0  0
  197.2890  172.6850  138.1000 C   0  0  0  0  0  2  0  0  0  0  0  0
  191.7280  175.9620  147.4430 C   0  0  0  0  0  3  0  0  0  0  0  0
  192.4380  176.6830  146.5870 C   0  0  0  0  0  3  0  0  0  0  0  0
  190.9140  176.5920  148.3720 O   0  0  0  0  0  1  0  0  0  0  0  0
  189.7090  172.1840  144.9710 C   0  0  0  0  0  1  0  0  0  0  0  0
  189.8760  171.9100  143.6130 O   0  0  0  0  0  0  0  0  0  0  0  0
  1  3  1  0  0  0  0
  2 19  1  0  0  0  0
  2  8  1  0  0  0  0
  3 37  1  6  0  0  0
  4 18  1  0  0  0  0
  4  9  1  0  0  0  0
  5 10  1  0  0  0  0
  5 34  1  0  0  0  0
  6  2  2  0  0  0  0
  7 23  1  6  0  0  0
  7 17  1  0  0  0  0
  7 22  1  0  0  0  0
  8  5  2  0  0  0  0
  9  6  1  0  0  0  0
 11  3  1  0  0  0  0
 12 16  1  0  0  0  0
 12  8  1  0  0  0  0
 13 12  1  0  0  0  0
 13 16  1  0  0  0  0
 15 10  2  0  0  0  0
 17 22  1  0  0  0  0
 17 11  1  1  0  0  0
 19 14  1  6  0  0  0
 19 15  1  0  0  0  0
 20  6  1  1  0  0  0
 20 24  1  0  0  0  0
 20 12  1  0  0  0  0
 21  9  2  0  0  0  0
 21 25  1  0  0  0  0
 22 18  1  6  0  0  0
 22 24  1  0  0  0  0
 24  1  1  6  0  0  0
 25 14  2  0  0  0  0
 26 27  2  0  0  0  0
 27 21  1  0  0  0  0
 28 27  1  0  0  0  0
 29 31  1  0  0  0  0
 30 32  1  0  0  0  0
 31 30  1  0  0  0  0
 31 28  2  0  0  0  0
 32 26  1  0  0  0  0
 33 35  1  0  0  0  0
 34 33  2  0  0  0  0
 37 36  1  0  0  0  0
M  END
>  <MODEL>
8

>  <REMARK>
 VINA RESULT:      -7.0      3.143      5.242
  Name = 
  3 active torsions:
  status: ('A' for Active; 'I' for Inactive)
    1  A    between atoms: C_5  and  O_23
    2  A    between atoms: C_6  and  C_31
    3  A    between atoms: C_9  and  C_30
                            x       y       z     vdW  Elec       q    Type
                         _______ _______ _______ _____ _____    ______ ____

>  <TORSDO>
F 3

$$$$
=
 OpenBabel11052419523D

 37 44  0  0  1  0  0  0  0  0999 V2000
  188.4670  175.2890  142.3130 C   0  0  0  0  0  2  0  0  0  0  0  0
  192.1980  173.8240  140.8010 C   0  0  0  0  0  0  0  0  0  0  0  0
  188.0180  176.6830  142.6980 C   0  0  1  0  0  3  0  0  0  0  0  0
  192.2620  174.0610  144.5820 C   0  0  0  0  0  2  0  0  0  0  0  0
  191.1860  173.7870  138.5780 C   0  0  0  0  0  0  0  0  0  0  0  0
  191.8480  173.7480  142.0860 C   0  0  0  0  0  0  0  0  0  0  0  0
  189.0620  174.7270  145.1180 C   0  0  1  0  0  3  0  0  0  0  0  0
  191.0680  173.6340  139.9150 C   0  0  2  0  0  3  0  0  0  0  0  0
  192.8120  173.7130  143.2270 C   0  0  0  0  0  0  0  0  0  0  0  0
  192.5130  174.1400  138.0260 C   0  0  0  0  0  3  0  0  0  0  0  0
  187.9550  176.7500  144.2100 C   0  0  0  0  0  2  0  0  0  0  0  0
  189.9010  173.4050  140.8100 C   0  0  0  0  0  0  0  0  0  0  0  0
  189.5270  171.9300  140.7610 C   0  0  0  0  0  2  0  0  0  0  0  0
  194.4400  172.9090  140.6670 C   0  0  0  0  0  3  0  0  0  0  0  0
  193.6030  174.2640  138.7970 C   0  0  0  0  0  3  0  0  0  0  0  0
  188.4950  172.9750  140.4180 C   0  0  0  0  0  2  0  0  0  0  0  0
  189.2190  176.2360  144.9060 C   0  0  2  0  0  3  0  0  0  0  0  0
  191.5710  175.4090  144.5760 C   0  0  0  0  0  2  0  0  0  0  0  0
  193.5830  174.0610  140.2930 C   0  0  0  0  0  0  0  0  0  0  0  0
  190.3350  173.7330  142.2520 C   0  0  2  0  0  3  0  0  0  0  0  0
  194.0800  173.2040  143.1470 C   0  0  0  0  0  0  0  0  0  0  0  0
  190.1170  175.2510  144.1420 C   0  0  1  0  0  0  0  0  0  0  0  0
  189.6270  174.3520  146.4780 C   0  0  0  0  0  1  0  0  0  0  0  0
  189.8730  175.0770  142.6840 N   0  0  2  0  0  0  0  0  0  0  0  0
  194.6560  172.5630  141.9350 C   0  0  0  0  0  3  0  0  0  0  0  0
  195.5890  174.2310  144.7930 C   0  0  0  0  0  3  0  0  0  0  0  0
  194.9600  173.1350  144.3410 C   0  0  0  0  0  0  0  0  0  0  0  0
  195.2320  171.8290  144.9830 C   0  0  0  0  0  3  0  0  0  0  0  0
  196.4630  170.4540  146.4490 O   0  0  0  0  0  1  0  0  0  0  0  0
  197.1750  172.8310  146.1280 C   0  0  0  0  0  2  0  0  0  0  0  0
  196.2400  171.6850  145.8500 C   0  0  0  0  0  0  0  0  0  0  0  0
  196.4460  174.1740  146.0260 C   0  0  0  0  0  2  0  0  0  0  0  0
  190.2650  173.5970  136.3030 C   0  0  0  0  0  3  0  0  0  0  0  0
  190.0820  173.6750  137.6130 C   0  0  0  0  0  3  0  0  0  0  0  0
  189.1740  173.4920  135.4540 O   0  0  0  0  0  1  0  0  0  0  0  0
  188.1310  178.4190  141.3280 C   0  0  0  0  0  1  0  0  0  0  0  0
  188.9000  177.6450  142.1980 O   0  0  0  0  0  0  0  0  0  0  0  0
  1  3  1  0  0  0  0
  2  6  2  0  0  0  0
  3 37  1  1  0  0  0
  3 11  1  0  0  0  0
  6  9  1  0  0  0  0
  7 23  1  1  0  0  0
  8  5  1  1  0  0  0
  8  2  1  0  0  0  0
  8 12  1  0  0  0  0
  9  4  1  0  0  0  0
 10  5  2  0  0  0  0
 10 15  1  0  0  0  0
 12 20  1  0  0  0  0
 13 12  1  0  0  0  0
 14 25  2  0  0  0  0
 15 19  2  0  0  0  0
 16 13  1  0  0  0  0
 16 12  1  0  0  0  0
 17 11  1  6  0  0  0
 17  7  1  0  0  0  0
 18  4  1  0  0  0  0
 19 14  1  0  0  0  0
 19  2  1  0  0  0  0
 20  6  1  6  0  0  0
 20 24  1  0  0  0  0
 21  9  2  0  0  0  0
 21 27  1  0  0  0  0
 22 18  1  1  0  0  0
 22 17  1  0  0  0  0
 22  7  1  0  0  0  0
 24  1  1  1  0  0  0
 24 22  1  0  0  0  0
 25 21  1  0  0  0  0
 26 32  1  0  0  0  0
 27 26  2  0  0  0  0
 27 28  1  0  0  0  0
 28 31  2  0  0  0  0
 31 30  1  0  0  0  0
 31 29  1  0  0  0  0
 32 30  1  0  0  0  0
 33 34  2  0  0  0  0
 34  5  1  0  0  0  0
 35 33  1  0  0  0  0
 36 37  1  0  0  0  0
M  END
>  <MODEL>
9

>  <REMARK>
 VINA RESULT:      -6.7      1.746      5.454
  Name = 
  3 active torsions:
  status: ('A' for Active; 'I' for Inactive)
    1  A    between atoms: C_5  and  O_23
    2  A    between atoms: C_6  and  C_31
    3  A    between atoms: C_9  and  C_30
                            x       y       z     vdW  Elec       q    Type
                         _______ _______ _______ _____ _____    ______ ____

>  <TORSDO>
F 3

$$$$
