=
 OpenBabel11052421223D

 43 47  0  0  1  0  0  0  0  0999 V2000
  190.2000  174.1210  141.7820 N   0  0  0  0  0  0  0  0  0  0  0  0
  193.4310  176.1530  145.2350 C   0  0  0  0  0  0  0  0  0  0  0  0
  192.1000  174.2430  144.6570 C   0  0  0  0  0  0  0  0  0  0  0  0
  192.6130  176.9540  144.4130 C   0  0  0  0  0  3  0  0  0  0  0  0
  194.5670  176.7660  145.9700 C   0  0  0  0  0  1  0  0  0  0  0  0
  191.3220  175.0110  143.8390 C   0  0  0  0  0  0  0  0  0  0  0  0
  193.1730  174.7790  145.3670 C   0  0  0  0  0  3  0  0  0  0  0  0
  191.5390  176.3840  143.7090 C   0  0  0  0  0  3  0  0  0  0  0  0
  190.2310  174.1690  143.2600 C   0  0  2  0  0  3  0  0  0  0  0  0
  190.5150  172.7740  143.8620 C   0  0  0  0  0  2  0  0  0  0  0  0
  191.6660  172.9370  144.6910 O   0  0  0  0  0  0  0  0  0  0  0  0
  191.0080  173.0080  141.2570 C   0  0  1  0  0  3  0  0  0  0  0  0
  190.2030  172.1320  140.5200 O   0  0  0  0  0  1  0  0  0  0  0  0
  192.1250  173.5230  140.3530 C   0  0  0  0  0  2  0  0  0  0  0  0
  194.9730  175.4440  141.9490 C   0  0  0  0  0  0  0  0  0  0  0  0
  195.6020  174.4370  142.6920 C   0  0  0  0  0  0  0  0  0  0  0  0
  196.7250  174.7280  143.4560 O   0  0  0  0  0  1  0  0  0  0  0  0
  193.9680  172.8320  141.9000 C   0  0  0  0  0  3  0  0  0  0  0  0
  193.8430  175.1440  141.1830 C   0  0  0  0  0  3  0  0  0  0  0  0
  193.3420  173.8370  141.1540 C   0  0  0  0  0  0  0  0  0  0  0  0
  195.4510  176.7120  141.9710 F   0  0  0  0  0  0  0  0  0  0  0  0
  195.0980  173.1320  142.6670 C   0  0  0  0  0  3  0  0  0  0  0  0
  188.8290  174.1630  141.2280 C   0  0  0  0  0  2  0  0  0  0  0  0
  187.7950  174.7970  142.1680 C   0  0  0  0  0  2  0  0  0  0  0  0
  187.3140  176.1620  141.6780 C   0  0  2  0  0  3  0  0  0  0  0  0
  188.4310  177.1900  141.7130 C   0  0  0  0  0  1  0  0  0  0  0  0
  186.1150  176.6570  142.4780 C   0  0  0  0  0  2  0  0  0  0  0  0
  185.8960  178.9760  143.5320 N   0  0  0  0  0  2  0  0  0  0  0  0
  185.9130  178.1410  142.3680 C   0  0  0  0  0  0  0  0  0  0  0  0
  185.7720  178.6780  141.2370 O   0  0  0  0  0  0  0  0  0  0  0  0
  185.7550  178.5550  144.8960 C   0  0  0  0  0  0  0  0  0  0  0  0
  186.6140  177.6870  147.0710 N   0  0  0  0  0  2  0  0  0  0  0  0
  184.5150  178.4550  145.3870 C   0  0  0  0  0  3  0  0  0  0  0  0
  184.2420  178.0610  146.8060 C   0  0  0  0  0  2  0  0  0  0  0  0
  186.9630  178.3360  145.7990 C   0  0  1  0  0  3  0  0  0  0  0  0
  185.4610  178.3520  147.6650 C   0  0  0  0  0  2  0  0  0  0  0  0
  188.0080  177.4850  145.0850 C   0  0  0  0  0  2  0  0  0  0  0  0
  188.8930  176.7920  146.0660 C   0  0  0  0  0  0  0  0  0  0  0  0
  190.5660  175.5110  147.8700 C   0  0  0  0  0  3  0  0  0  0  0  0
  190.7050  176.8740  147.6000 C   0  0  0  0  0  3  0  0  0  0  0  0
  189.5680  174.7860  147.2170 C   0  0  0  0  0  3  0  0  0  0  0  0
  189.8740  177.4810  146.7110 N   0  0  0  0  0  0  0  0  0  0  0  0
  188.7230  175.4270  146.3090 C   0  0  0  0  0  3  0  0  0  0  0  0
  2  7  1  0  0  0  0
  2  5  1  0  0  0  0
  3 11  1  0  0  0  0
  3  7  2  0  0  0  0
  4  2  2  0  0  0  0
  6  3  1  0  0  0  0
  8  6  2  0  0  0  0
  8  4  1  0  0  0  0
  9  1  1  6  0  0  0
  9  6  1  0  0  0  0
  9 10  1  0  0  0  0
 10 11  1  0  0  0  0
 12 13  1  6  0  0  0
 12  1  1  0  0  0  0
 14 20  1  0  0  0  0
 14 12  1  0  0  0  0
 15 21  1  0  0  0  0
 15 16  1  0  0  0  0
 16 17  1  0  0  0  0
 18 22  1  0  0  0  0
 19 15  2  0  0  0  0
 20 19  1  0  0  0  0
 20 18  2  0  0  0  0
 22 16  2  0  0  0  0
 23  1  1  0  0  0  0
 23 24  1  0  0  0  0
 25 26  1  1  0  0  0
 25 24  1  0  0  0  0
 25 27  1  0  0  0  0
 28 31  1  0  0  0  0
 29 27  1  0  0  0  0
 29 28  1  0  0  0  0
 30 29  2  0  0  0  0
 31 33  2  0  0  0  0
 31 35  1  0  0  0  0
 32 36  1  0  0  0  0
 33 34  1  0  0  0  0
 34 36  1  0  0  0  0
 35 37  1  6  0  0  0
 35 32  1  0  0  0  0
 37 38  1  0  0  0  0
 38 43  2  0  0  0  0
 38 42  1  0  0  0  0
 40 39  1  0  0  0  0
 41 39  2  0  0  0  0
 42 40  2  0  0  0  0
 43 41  1  0  0  0  0
M  END
>  <MODEL>
1

>  <REMARK>
 VINA RESULT:      -7.6      0.000      0.000
  Name = 
  12 active torsions:
  status: ('A' for Active; 'I' for Inactive)
    1  A    between atoms: C_1  and  C_34
    2  A    between atoms: C_1  and  C_35
    3  A    between atoms: C_2  and  C_6
    4  A    between atoms: C_2  and  C_13
    5  A    between atoms: N_3  and  C_4
    6  A    between atoms: C_6  and  C_12
    7  A    between atoms: N_8  and  C_27
    8  A    between atoms: N_8  and  C_30
    9  A    between atoms: N_8  and  C_34
   10  A    between atoms: C_11  and  C_14
   11  A    between atoms: C_13  and  C_27
   12  A    between atoms: C_14  and  C_41
                            x       y       z     vdW  Elec       q    Type
                         _______ _______ _______ _____ _____    ______ ____

>  <TORSDO>
F 12

$$$$
=
 OpenBabel11052421223D

 43 47  0  0  1  0  0  0  0  0999 V2000
  188.1440  176.0150  142.0780 N   0  0  0  0  0  0  0  0  0  0  0  0
  190.5240  175.8060  146.6370 C   0  0  0  0  0  0  0  0  0  0  0  0
  190.0790  177.1470  144.6990 C   0  0  0  0  0  0  0  0  0  0  0  0
  190.2500  174.6480  145.8810 C   0  0  0  0  0  3  0  0  0  0  0  0
  190.9050  175.6830  148.0670 C   0  0  0  0  0  1  0  0  0  0  0  0
  189.7870  176.0290  143.9710 C   0  0  0  0  0  0  0  0  0  0  0  0
  190.4440  177.0750  146.0420 C   0  0  0  0  0  3  0  0  0  0  0  0
  189.8840  174.7530  144.5300 C   0  0  0  0  0  3  0  0  0  0  0  0
  189.4810  176.4210  142.5610 C   0  0  2  0  0  3  0  0  0  0  0  0
  189.6240  177.9610  142.5920 C   0  0  0  0  0  2  0  0  0  0  0  0
  189.9890  178.2880  143.9330 O   0  0  0  0  0  0  0  0  0  0  0  0
  187.2430  177.1710  141.9350 C   0  0  1  0  0  3  0  0  0  0  0  0
  186.9480  177.3900  140.5850 O   0  0  0  0  0  1  0  0  0  0  0  0
  185.9360  176.9420  142.6890 C   0  0  0  0  0  2  0  0  0  0  0  0
  186.7030  176.9130  146.3990 C   0  0  0  0  0  0  0  0  0  0  0  0
  186.3540  178.2200  146.7620 C   0  0  0  0  0  0  0  0  0  0  0  0
  186.4920  178.6420  148.0780 O   0  0  0  0  0  1  0  0  0  0  0  0
  185.7230  178.6880  144.4700 C   0  0  0  0  0  3  0  0  0  0  0  0
  186.5610  176.4960  145.0720 C   0  0  0  0  0  3  0  0  0  0  0  0
  186.0670  177.3820  144.1070 C   0  0  0  0  0  0  0  0  0  0  0  0
  187.1810  176.0480  147.3270 F   0  0  0  0  0  0  0  0  0  0  0  0
  185.8650  179.1060  145.7970 C   0  0  0  0  0  3  0  0  0  0  0  0
  188.1970  175.1600  140.8720 C   0  0  0  0  0  2  0  0  0  0  0  0
  188.3750  173.6660  141.1740 C   0  0  0  0  0  2  0  0  0  0  0  0
  189.8380  173.2270  141.1250 C   0  0  2  0  0  3  0  0  0  0  0  0
  190.4280  173.4130  139.7380 C   0  0  0  0  0  1  0  0  0  0  0  0
  190.0070  171.7830  141.5830 C   0  0  0  0  0  2  0  0  0  0  0  0
  191.4890  171.7440  143.6660 N   0  0  0  0  0  2  0  0  0  0  0  0
  190.1900  171.6610  143.0680 C   0  0  0  0  0  0  0  0  0  0  0  0
  189.1900  171.4990  143.8170 O   0  0  0  0  0  0  0  0  0  0  0  0
  192.7560  171.6410  142.9990 C   0  0  0  0  0  0  0  0  0  0  0  0
  194.9530  172.5280  142.2200 N   0  0  0  0  0  2  0  0  0  0  0  0
  192.9990  170.5260  142.3030 C   0  0  0  0  0  3  0  0  0  0  0  0
  194.2980  170.2880  141.5950 C   0  0  0  0  0  2  0  0  0  0  0  0
  193.8380  172.7030  143.1610 C   0  0  1  0  0  3  0  0  0  0  0  0
  195.3900  171.1380  142.2230 C   0  0  0  0  0  2  0  0  0  0  0  0
  193.2450  174.0940  142.9670 C   0  0  0  0  0  2  0  0  0  0  0  0
  193.5700  174.9790  144.1230 C   0  0  0  0  0  0  0  0  0  0  0  0
  194.1990  176.6390  146.2550 C   0  0  0  0  0  3  0  0  0  0  0  0
  193.8450  177.1660  145.0110 C   0  0  0  0  0  3  0  0  0  0  0  0
  194.2370  175.2540  146.4220 C   0  0  0  0  0  3  0  0  0  0  0  0
  193.5410  176.3330  143.9800 N   0  0  0  0  0  0  0  0  0  0  0  0
  193.9200  174.4150  145.3510 C   0  0  0  0  0  3  0  0  0  0  0  0
  2  5  1  0  0  0  0
  3  7  2  0  0  0  0
  4  2  2  0  0  0  0
  6  8  2  0  0  0  0
  6  3  1  0  0  0  0
  7  2  1  0  0  0  0
  8  4  1  0  0  0  0
  9  1  1  1  0  0  0
  9 10  1  0  0  0  0
  9  6  1  0  0  0  0
 10 11  1  0  0  0  0
 11  3  1  0  0  0  0
 12 13  1  6  0  0  0
 12  1  1  0  0  0  0
 12 14  1  0  0  0  0
 14 20  1  0  0  0  0
 15 16  1  0  0  0  0
 15 21  1  0  0  0  0
 16 17  1  0  0  0  0
 18 22  1  0  0  0  0
 19 15  2  0  0  0  0
 20 18  2  0  0  0  0
 20 19  1  0  0  0  0
 22 16  2  0  0  0  0
 23 24  1  0  0  0  0
 23  1  1  0  0  0  0
 25 26  1  6  0  0  0
 25 24  1  0  0  0  0
 25 27  1  0  0  0  0
 27 29  1  0  0  0  0
 29 28  1  0  0  0  0
 29 30  2  0  0  0  0
 31 35  1  0  0  0  0
 31 28  1  0  0  0  0
 32 36  1  0  0  0  0
 32 35  1  0  0  0  0
 33 31  2  0  0  0  0
 34 36  1  0  0  0  0
 34 33  1  0  0  0  0
 35 37  1  6  0  0  0
 37 38  1  0  0  0  0
 38 43  1  0  0  0  0
 39 41  1  0  0  0  0
 40 39  2  0  0  0  0
 42 38  2  0  0  0  0
 42 40  1  0  0  0  0
 43 41  2  0  0  0  0
M  END
>  <MODEL>
2

>  <REMARK>
 VINA RESULT:      -7.3      2.775      7.476
  Name = 
  12 active torsions:
  status: ('A' for Active; 'I' for Inactive)
    1  A    between atoms: C_1  and  C_34
    2  A    between atoms: C_1  and  C_35
    3  A    between atoms: C_2  and  C_6
    4  A    between atoms: C_2  and  C_13
    5  A    between atoms: N_3  and  C_4
    6  A    between atoms: C_6  and  C_12
    7  A    between atoms: N_8  and  C_27
    8  A    between atoms: N_8  and  C_30
    9  A    between atoms: N_8  and  C_34
   10  A    between atoms: C_11  and  C_14
   11  A    between atoms: C_13  and  C_27
   12  A    between atoms: C_14  and  C_41
                            x       y       z     vdW  Elec       q    Type
                         _______ _______ _______ _____ _____    ______ ____

>  <TORSDO>
F 12

$$$$
=
 OpenBabel11052421223D

 43 47  0  0  1  0  0  0  0  0999 V2000
  187.9550  175.8660  142.3070 N   0  0  0  0  0  0  0  0  0  0  0  0
  190.6160  175.6900  146.7090 C   0  0  0  0  0  0  0  0  0  0  0  0
  190.0330  177.0260  144.8040 C   0  0  0  0  0  0  0  0  0  0  0  0
  190.3120  174.5290  145.9710 C   0  0  0  0  0  3  0  0  0  0  0  0
  191.0870  175.5730  148.1130 C   0  0  0  0  0  1  0  0  0  0  0  0
  189.7120  175.9030  144.0950 C   0  0  0  0  0  0  0  0  0  0  0  0
  190.4820  176.9580  146.1210 C   0  0  0  0  0  3  0  0  0  0  0  0
  189.8610  174.6290  144.6450 C   0  0  0  0  0  3  0  0  0  0  0  0
  189.3140  176.2910  142.7070 C   0  0  2  0  0  3  0  0  0  0  0  0
  189.4370  177.8320  142.7310 C   0  0  0  0  0  2  0  0  0  0  0  0
  189.8790  178.1650  144.0460 O   0  0  0  0  0  0  0  0  0  0  0  0
  187.0670  177.0200  142.0890 C   0  0  1  0  0  3  0  0  0  0  0  0
  186.7350  177.1240  140.7330 O   0  0  0  0  0  1  0  0  0  0  0  0
  185.7800  176.8800  142.8970 C   0  0  0  0  0  2  0  0  0  0  0  0
  186.6840  177.0050  146.5740 C   0  0  0  0  0  0  0  0  0  0  0  0
  186.3920  178.3400  146.8840 C   0  0  0  0  0  0  0  0  0  0  0  0
  186.5930  178.8200  148.1710 O   0  0  0  0  0  1  0  0  0  0  0  0
  185.6910  178.7180  144.5950 C   0  0  0  0  0  3  0  0  0  0  0  0
  186.4790  176.5290  145.2750 C   0  0  0  0  0  3  0  0  0  0  0  0
  185.9780  177.3840  144.2860 C   0  0  0  0  0  0  0  0  0  0  0  0
  187.1680  176.1710  147.5260 F   0  0  0  0  0  0  0  0  0  0  0  0
  185.8960  179.1940  145.8930 C   0  0  0  0  0  3  0  0  0  0  0  0
  187.9540  174.9040  141.1840 C   0  0  0  0  0  2  0  0  0  0  0  0
  189.3130  174.2370  140.9320 C   0  0  0  0  0  2  0  0  0  0  0  0
  189.3490  172.7820  141.3960 C   0  0  2  0  0  3  0  0  0  0  0  0
  188.0360  172.3710  142.0390 C   0  0  0  0  0  1  0  0  0  0  0  0
  190.5090  172.5240  142.3500 C   0  0  0  0  0  2  0  0  0  0  0  0
  193.0280  172.7820  141.9930 N   0  0  0  0  0  2  0  0  0  0  0  0
  191.7820  172.1710  141.6360 C   0  0  0  0  0  0  0  0  0  0  0  0
  191.7740  171.3110  140.7150 O   0  0  0  0  0  0  0  0  0  0  0  0
  193.2150  173.9600  142.7910 C   0  0  0  0  0  0  0  0  0  0  0  0
  193.8040  175.1680  144.8920 N   0  0  0  0  0  2  0  0  0  0  0  0
  192.8340  175.1290  142.2670 C   0  0  0  0  0  3  0  0  0  0  0  0
  193.0120  176.4290  142.9900 C   0  0  0  0  0  2  0  0  0  0  0  0
  193.9250  173.9110  144.1400 C   0  0  1  0  0  3  0  0  0  0  0  0
  194.1170  176.2960  144.0240 C   0  0  0  0  0  2  0  0  0  0  0  0
  193.3660  172.7750  144.9900 C   0  0  0  0  0  2  0  0  0  0  0  0
  194.4450  171.8240  145.3860 C   0  0  0  0  0  0  0  0  0  0  0  0
  196.4330  170.0470  146.1510 C   0  0  0  0  0  3  0  0  0  0  0  0
  195.1270  169.6110  145.9180 C   0  0  0  0  0  3  0  0  0  0  0  0
  196.7370  171.4010  145.9960 C   0  0  0  0  0  3  0  0  0  0  0  0
  194.1680  170.5000  145.5440 N   0  0  0  0  0  0  0  0  0  0  0  0
  195.7390  172.2990  145.6110 C   0  0  0  0  0  3  0  0  0  0  0  0
  2  5  1  0  0  0  0
  3  7  2  0  0  0  0
  4  2  2  0  0  0  0
  6  8  2  0  0  0  0
  6  3  1  0  0  0  0
  7  2  1  0  0  0  0
  8  4  1  0  0  0  0
  9  1  1  1  0  0  0
  9 10  1  0  0  0  0
  9  6  1  0  0  0  0
 10 11  1  0  0  0  0
 11  3  1  0  0  0  0
 12 13  1  6  0  0  0
 12  1  1  0  0  0  0
 12 14  1  0  0  0  0
 14 20  1  0  0  0  0
 15 16  1  0  0  0  0
 15 21  1  0  0  0  0
 16 17  1  0  0  0  0
 18 22  1  0  0  0  0
 19 15  2  0  0  0  0
 20 18  2  0  0  0  0
 20 19  1  0  0  0  0
 22 16  2  0  0  0  0
 23  1  1  0  0  0  0
 24 23  1  0  0  0  0
 24 25  1  0  0  0  0
 25 26  1  1  0  0  0
 25 27  1  0  0  0  0
 28 31  1  0  0  0  0
 29 28  1  0  0  0  0
 29 27  1  0  0  0  0
 30 29  2  0  0  0  0
 31 35  1  0  0  0  0
 33 31  2  0  0  0  0
 33 34  1  0  0  0  0
 34 36  1  0  0  0  0
 35 32  1  0  0  0  0
 35 37  1  1  0  0  0
 36 32  1  0  0  0  0
 37 38  1  0  0  0  0
 38 42  2  0  0  0  0
 38 43  1  0  0  0  0
 40 39  2  0  0  0  0
 41 39  1  0  0  0  0
 42 40  1  0  0  0  0
 43 41  2  0  0  0  0
M  END
>  <MODEL>
3

>  <REMARK>
 VINA RESULT:      -7.2      3.075      7.451
  Name = 
  12 active torsions:
  status: ('A' for Active; 'I' for Inactive)
    1  A    between atoms: C_1  and  C_34
    2  A    between atoms: C_1  and  C_35
    3  A    between atoms: C_2  and  C_6
    4  A    between atoms: C_2  and  C_13
    5  A    between atoms: N_3  and  C_4
    6  A    between atoms: C_6  and  C_12
    7  A    between atoms: N_8  and  C_27
    8  A    between atoms: N_8  and  C_30
    9  A    between atoms: N_8  and  C_34
   10  A    between atoms: C_11  and  C_14
   11  A    between atoms: C_13  and  C_27
   12  A    between atoms: C_14  and  C_41
                            x       y       z     vdW  Elec       q    Type
                         _______ _______ _______ _____ _____    ______ ____

>  <TORSDO>
F 12

$$$$
=
 OpenBabel11052421223D

 43 47  0  0  1  0  0  0  0  0999 V2000
  190.7760  175.6880  145.2490 N   0  0  0  0  0  0  0  0  0  0  0  0
  187.7890  177.1480  141.3200 C   0  0  0  0  0  0  0  0  0  0  0  0
  189.0420  175.3460  142.2880 C   0  0  0  0  0  0  0  0  0  0  0  0
  188.5780  178.0660  142.0420 C   0  0  0  0  0  3  0  0  0  0  0  0
  186.7100  177.6430  140.4270 C   0  0  0  0  0  1  0  0  0  0  0  0
  189.7900  176.2320  143.0100 C   0  0  0  0  0  0  0  0  0  0  0  0
  188.0230  175.7690  141.4360 C   0  0  0  0  0  3  0  0  0  0  0  0
  189.5980  177.6090  142.8930 C   0  0  0  0  0  3  0  0  0  0  0  0
  190.8280  175.4860  143.7850 C   0  0  2  0  0  3  0  0  0  0  0  0
  190.5460  174.0120  143.4110 C   0  0  0  0  0  2  0  0  0  0  0  0
  189.4480  174.0470  142.5000 O   0  0  0  0  0  0  0  0  0  0  0  0
  189.4440  175.3790  145.7940 C   0  0  1  0  0  3  0  0  0  0  0  0
  189.4630  174.1410  146.4470 O   0  0  0  0  0  1  0  0  0  0  0  0
  188.9980  176.4480  146.7880 C   0  0  0  0  0  2  0  0  0  0  0  0
  185.7820  178.4470  146.8700 C   0  0  0  0  0  0  0  0  0  0  0  0
  185.1790  178.0490  145.6700 C   0  0  0  0  0  0  0  0  0  0  0  0
  183.9450  178.5670  145.2990 O   0  0  0  0  0  1  0  0  0  0  0  0
  187.0650  176.5990  145.2060 C   0  0  0  0  0  3  0  0  0  0  0  0
  187.0240  177.9200  147.2360 C   0  0  0  0  0  3  0  0  0  0  0  0
  187.6650  176.9930  146.4070 C   0  0  0  0  0  0  0  0  0  0  0  0
  185.1680  179.3440  147.6800 F   0  0  0  0  0  0  0  0  0  0  0  0
  185.8220  177.1250  144.8390 C   0  0  0  0  0  3  0  0  0  0  0  0
  191.8760  175.0100  145.9690 C   0  0  0  0  0  2  0  0  0  0  0  0
  192.7190  175.9460  146.8450 C   0  0  0  0  0  2  0  0  0  0  0  0
  194.2000  175.9270  146.4690 C   0  0  2  0  0  3  0  0  0  0  0  0
  194.6210  177.2250  145.8040 C   0  0  0  0  0  1  0  0  0  0  0  0
  194.5390  174.7400  145.5750 C   0  0  0  0  0  2  0  0  0  0  0  0
  196.7970  174.7850  144.3760 N   0  0  0  0  0  2  0  0  0  0  0  0
  196.0120  174.4500  145.5260 C   0  0  0  0  0  0  0  0  0  0  0  0
  196.5850  173.9180  146.5140 O   0  0  0  0  0  0  0  0  0  0  0  0
  196.3120  175.1240  143.0680 C   0  0  0  0  0  0  0  0  0  0  0  0
  195.2660  174.6030  140.8640 N   0  0  0  0  0  2  0  0  0  0  0  0
  196.5510  176.3620  142.6230 C   0  0  0  0  0  3  0  0  0  0  0  0
  196.0630  176.8440  141.2900 C   0  0  0  0  0  2  0  0  0  0  0  0
  195.4570  174.1600  142.2530 C   0  0  1  0  0  3  0  0  0  0  0  0
  194.8760  176.0080  140.8430 C   0  0  0  0  0  2  0  0  0  0  0  0
  196.0910  172.7730  142.2420 C   0  0  0  0  0  2  0  0  0  0  0  0
  195.3150  171.8250  143.0940 C   0  0  0  0  0  0  0  0  0  0  0  0
  193.8820  170.0370  144.6570 C   0  0  0  0  0  3  0  0  0  0  0  0
  195.2620  169.9020  144.4870 C   0  0  0  0  0  3  0  0  0  0  0  0
  193.2180  171.0910  144.0270 C   0  0  0  0  0  3  0  0  0  0  0  0
  195.9440  170.7900  143.7160 N   0  0  0  0  0  0  0  0  0  0  0  0
  193.9360  171.9930  143.2390 C   0  0  0  0  0  3  0  0  0  0  0  0
  1 12  1  0  0  0  0
  1 23  1  0  0  0  0
  2  7  2  0  0  0  0
  2  4  1  0  0  0  0
  3 11  1  0  0  0  0
  3  6  2  0  0  0  0
  4  8  2  0  0  0  0
  5  2  1  0  0  0  0
  6  9  1  0  0  0  0
  7  3  1  0  0  0  0
  8  6  1  0  0  0  0
  9  1  1  1  0  0  0
 10  9  1  0  0  0  0
 11 10  1  0  0  0  0
 12 13  1  1  0  0  0
 12 14  1  0  0  0  0
 15 19  1  0  0  0  0
 15 21  1  0  0  0  0
 16 15  2  0  0  0  0
 17 16  1  0  0  0  0
 18 20  1  0  0  0  0
 20 14  1  0  0  0  0
 20 19  2  0  0  0  0
 22 18  2  0  0  0  0
 22 16  1  0  0  0  0
 23 24  1  0  0  0  0
 25 26  1  6  0  0  0
 25 24  1  0  0  0  0
 27 25  1  0  0  0  0
 28 29  1  0  0  0  0
 29 27  1  0  0  0  0
 29 30  2  0  0  0  0
 31 28  1  0  0  0  0
 32 35  1  0  0  0  0
 33 31  2  0  0  0  0
 34 33  1  0  0  0  0
 35 37  1  6  0  0  0
 35 31  1  0  0  0  0
 36 32  1  0  0  0  0
 36 34  1  0  0  0  0
 37 38  1  0  0  0  0
 38 43  2  0  0  0  0
 38 42  1  0  0  0  0
 40 39  1  0  0  0  0
 41 39  2  0  0  0  0
 42 40  2  0  0  0  0
 43 41  1  0  0  0  0
M  END
>  <MODEL>
4

>  <REMARK>
 VINA RESULT:      -6.8      3.122      8.793
  Name = 
  12 active torsions:
  status: ('A' for Active; 'I' for Inactive)
    1  A    between atoms: C_1  and  C_34
    2  A    between atoms: C_1  and  C_35
    3  A    between atoms: C_2  and  C_6
    4  A    between atoms: C_2  and  C_13
    5  A    between atoms: N_3  and  C_4
    6  A    between atoms: C_6  and  C_12
    7  A    between atoms: N_8  and  C_27
    8  A    between atoms: N_8  and  C_30
    9  A    between atoms: N_8  and  C_34
   10  A    between atoms: C_11  and  C_14
   11  A    between atoms: C_13  and  C_27
   12  A    between atoms: C_14  and  C_41
                            x       y       z     vdW  Elec       q    Type
                         _______ _______ _______ _____ _____    ______ ____

>  <TORSDO>
F 12

$$$$
=
 OpenBabel11052421223D

 43 47  0  0  1  0  0  0  0  0999 V2000
  191.2560  172.5890  143.2460 N   0  0  0  0  0  0  0  0  0  0  0  0
  195.8200  173.3510  145.5010 C   0  0  0  0  0  0  0  0  0  0  0  0
  194.3600  171.7400  144.4880 C   0  0  0  0  0  0  0  0  0  0  0  0
  194.7060  174.1710  145.7690 C   0  0  0  0  0  3  0  0  0  0  0  0
  197.1790  173.7920  145.9070 C   0  0  0  0  0  1  0  0  0  0  0  0
  193.2810  172.5450  144.7220 C   0  0  0  0  0  0  0  0  0  0  0  0
  195.6500  172.1150  144.8570 C   0  0  0  0  0  3  0  0  0  0  0  0
  193.4180  173.7670  145.3840 C   0  0  0  0  0  3  0  0  0  0  0  0
  192.0380  171.8540  144.2640 C   0  0  2  0  0  3  0  0  0  0  0  0
  192.5740  170.5160  143.7020 C   0  0  0  0  0  2  0  0  0  0  0  0
  193.9880  170.5560  143.8920 O   0  0  0  0  0  0  0  0  0  0  0  0
  191.3570  171.9560  141.9210 C   0  0  1  0  0  3  0  0  0  0  0  0
  190.1170  171.4280  141.5420 O   0  0  0  0  0  1  0  0  0  0  0  0
  191.8010  172.9650  140.8650 C   0  0  0  0  0  2  0  0  0  0  0  0
  195.1910  174.3160  141.8800 C   0  0  0  0  0  0  0  0  0  0  0  0
  194.8430  175.5680  142.4030 C   0  0  0  0  0  0  0  0  0  0  0  0
  195.8240  176.4180  142.8980 O   0  0  0  0  0  1  0  0  0  0  0  0
  192.5100  175.1160  141.9310 C   0  0  0  0  0  3  0  0  0  0  0  0
  194.1980  173.4660  141.3840 C   0  0  0  0  0  3  0  0  0  0  0  0
  192.8560  173.8630  141.4130 C   0  0  0  0  0  0  0  0  0  0  0  0
  196.4880  173.9220  141.8490 F   0  0  0  0  0  0  0  0  0  0  0  0
  193.5020  175.9660  142.4270 C   0  0  0  0  0  3  0  0  0  0  0  0
  189.8630  172.8560  143.6650 C   0  0  0  0  0  2  0  0  0  0  0  0
  189.6910  173.0450  145.1780 C   0  0  0  0  0  2  0  0  0  0  0  0
  189.7410  174.5140  145.5970 C   0  0  2  0  0  3  0  0  0  0  0  0
  189.3170  174.6940  147.0430 C   0  0  0  0  0  1  0  0  0  0  0  0
  188.8910  175.3880  144.6830 C   0  0  0  0  0  2  0  0  0  0  0  0
  188.6950  177.8780  145.2300 N   0  0  0  0  0  2  0  0  0  0  0  0
  189.3940  176.8010  144.5960 C   0  0  0  0  0  0  0  0  0  0  0  0
  190.4580  177.0560  143.9720 O   0  0  0  0  0  0  0  0  0  0  0  0
  187.3520  177.8590  145.7350 C   0  0  0  0  0  0  0  0  0  0  0  0
  184.8800  178.1210  145.5300 N   0  0  0  0  0  2  0  0  0  0  0  0
  187.1890  177.6820  147.0500 C   0  0  0  0  0  3  0  0  0  0  0  0
  185.8350  177.6070  147.6880 C   0  0  0  0  0  2  0  0  0  0  0  0
  186.1430  177.9190  144.8070 C   0  0  1  0  0  3  0  0  0  0  0  0
  184.8000  177.1980  146.6540 C   0  0  0  0  0  2  0  0  0  0  0  0
  186.3140  179.0450  143.7920 C   0  0  0  0  0  2  0  0  0  0  0  0
  186.1900  178.5300  142.3980 C   0  0  0  0  0  0  0  0  0  0  0  0
  185.9350  177.5510  139.8150 C   0  0  0  0  0  3  0  0  0  0  0  0
  184.8680  178.1850  140.4540 C   0  0  0  0  0  3  0  0  0  0  0  0
  187.1470  177.4090  140.4910 C   0  0  0  0  0  3  0  0  0  0  0  0
  185.0150  178.6560  141.7210 N   0  0  0  0  0  0  0  0  0  0  0  0
  187.2800  177.9010  141.7920 C   0  0  0  0  0  3  0  0  0  0  0  0
  1 23  1  0  0  0  0
  2  4  1  0  0  0  0
  2  5  1  0  0  0  0
  3  6  2  0  0  0  0
  3  7  1  0  0  0  0
  6  8  1  0  0  0  0
  7  2  2  0  0  0  0
  8  4  2  0  0  0  0
  9  1  1  6  0  0  0
  9  6  1  0  0  0  0
 10 11  1  0  0  0  0
 10  9  1  0  0  0  0
 11  3  1  0  0  0  0
 12 13  1  6  0  0  0
 12  1  1  0  0  0  0
 14 20  1  0  0  0  0
 14 12  1  0  0  0  0
 15 16  1  0  0  0  0
 16 22  2  0  0  0  0
 16 17  1  0  0  0  0
 18 22  1  0  0  0  0
 19 20  1  0  0  0  0
 19 15  2  0  0  0  0
 20 18  2  0  0  0  0
 21 15  1  0  0  0  0
 23 24  1  0  0  0  0
 24 25  1  0  0  0  0
 25 26  1  1  0  0  0
 27 25  1  0  0  0  0
 28 31  1  0  0  0  0
 29 27  1  0  0  0  0
 29 28  1  0  0  0  0
 30 29  2  0  0  0  0
 31 33  2  0  0  0  0
 32 36  1  0  0  0  0
 33 34  1  0  0  0  0
 35 37  1  6  0  0  0
 35 32  1  0  0  0  0
 35 31  1  0  0  0  0
 36 34  1  0  0  0  0
 38 37  1  0  0  0  0
 39 40  2  0  0  0  0
 39 41  1  0  0  0  0
 40 42  1  0  0  0  0
 41 43  2  0  0  0  0
 42 38  2  0  0  0  0
 43 38  1  0  0  0  0
M  END
>  <MODEL>
5

>  <REMARK>
 VINA RESULT:      -6.8      1.964      4.044
  Name = 
  12 active torsions:
  status: ('A' for Active; 'I' for Inactive)
    1  A    between atoms: C_1  and  C_34
    2  A    between atoms: C_1  and  C_35
    3  A    between atoms: C_2  and  C_6
    4  A    between atoms: C_2  and  C_13
    5  A    between atoms: N_3  and  C_4
    6  A    between atoms: C_6  and  C_12
    7  A    between atoms: N_8  and  C_27
    8  A    between atoms: N_8  and  C_30
    9  A    between atoms: N_8  and  C_34
   10  A    between atoms: C_11  and  C_14
   11  A    between atoms: C_13  and  C_27
   12  A    between atoms: C_14  and  C_41
                            x       y       z     vdW  Elec       q    Type
                         _______ _______ _______ _____ _____    ______ ____

>  <TORSDO>
F 12

$$$$
=
 OpenBabel11052421223D

 43 47  0  0  1  0  0  0  0  0999 V2000
  190.4360  175.2380  145.3640 N   0  0  0  0  0  0  0  0  0  0  0  0
  187.6880  176.9960  141.3840 C   0  0  0  0  0  0  0  0  0  0  0  0
  188.4640  175.0440  142.5410 C   0  0  0  0  0  0  0  0  0  0  0  0
  188.7480  177.7350  141.9450 C   0  0  0  0  0  3  0  0  0  0  0  0
  186.7240  177.6630  140.4710 C   0  0  0  0  0  1  0  0  0  0  0  0
  189.4780  175.7640  143.1080 C   0  0  0  0  0  0  0  0  0  0  0  0
  187.5410  175.6310  141.6770 C   0  0  0  0  0  3  0  0  0  0  0  0
  189.6620  177.1150  142.8130 C   0  0  0  0  0  3  0  0  0  0  0  0
  190.3250  174.8550  143.9400 C   0  0  2  0  0  3  0  0  0  0  0  0
  189.6230  173.4860  143.7800 C   0  0  0  0  0  2  0  0  0  0  0  0
  188.5130  173.7190  142.9130 O   0  0  0  0  0  0  0  0  0  0  0  0
  189.1140  175.4450  145.9770 C   0  0  1  0  0  3  0  0  0  0  0  0
  188.9240  174.5440  147.0310 O   0  0  0  0  0  1  0  0  0  0  0  0
  188.9790  176.8660  146.5190 C   0  0  0  0  0  2  0  0  0  0  0  0
  185.6170  177.5860  144.9280 C   0  0  0  0  0  0  0  0  0  0  0  0
  184.9690  178.2810  145.9570 C   0  0  0  0  0  0  0  0  0  0  0  0
  183.6680  178.7370  145.7830 O   0  0  0  0  0  1  0  0  0  0  0  0
  186.9410  178.0600  147.3480 C   0  0  0  0  0  3  0  0  0  0  0  0
  186.9270  177.1300  145.1100 C   0  0  0  0  0  3  0  0  0  0  0  0
  187.5910  177.3710  146.3190 C   0  0  0  0  0  0  0  0  0  0  0  0
  184.9820  177.3490  143.7540 F   0  0  0  0  0  0  0  0  0  0  0  0
  185.6320  178.5170  147.1660 C   0  0  0  0  0  3  0  0  0  0  0  0
  191.3090  174.3330  146.1420 C   0  0  0  0  0  2  0  0  0  0  0  0
  192.7280  174.8740  146.3670 C   0  0  0  0  0  2  0  0  0  0  0  0
  193.6600  174.5860  145.1910 C   0  0  2  0  0  3  0  0  0  0  0  0
  194.7140  173.5560  145.5560 C   0  0  0  0  0  1  0  0  0  0  0  0
  194.3210  175.8580  144.6720 C   0  0  0  0  0  2  0  0  0  0  0  0
  193.3780  176.5270  142.3910 N   0  0  0  0  0  2  0  0  0  0  0  0
  193.4040  176.6830  143.8140 C   0  0  0  0  0  0  0  0  0  0  0  0
  192.6240  177.5190  144.3440 O   0  0  0  0  0  0  0  0  0  0  0  0
  194.3540  175.8590  141.5770 C   0  0  0  0  0  0  0  0  0  0  0  0
  195.2180  173.9350  140.2450 N   0  0  0  0  0  2  0  0  0  0  0  0
  195.5390  176.4560  141.4190 C   0  0  0  0  0  3  0  0  0  0  0  0
  196.6240  175.8740  140.5640 C   0  0  0  0  0  2  0  0  0  0  0  0
  194.0280  174.5750  140.8220 C   0  0  1  0  0  3  0  0  0  0  0  0
  196.0200  174.9270  139.5410 C   0  0  0  0  0  2  0  0  0  0  0  0
  193.3360  173.5800  141.7480 C   0  0  0  0  0  2  0  0  0  0  0  0
  192.0760  173.0670  141.1350 C   0  0  0  0  0  0  0  0  0  0  0  0
  189.7510  172.0900  139.9780 C   0  0  0  0  0  3  0  0  0  0  0  0
  190.5540  171.2770  140.7820 C   0  0  0  0  0  3  0  0  0  0  0  0
  190.1300  173.4150  139.7560 C   0  0  0  0  0  3  0  0  0  0  0  0
  191.6900  171.7770  141.3380 N   0  0  0  0  0  0  0  0  0  0  0  0
  191.3000  173.9110  140.3370 C   0  0  0  0  0  3  0  0  0  0  0  0
  1 12  1  0  0  0  0
  1 23  1  0  0  0  0
  2  7  2  0  0  0  0
  2  4  1  0  0  0  0
  3 11  1  0  0  0  0
  3  6  2  0  0  0  0
  4  8  2  0  0  0  0
  5  2  1  0  0  0  0
  6  9  1  0  0  0  0
  7  3  1  0  0  0  0
  8  6  1  0  0  0  0
  9  1  1  1  0  0  0
 10  9  1  0  0  0  0
 11 10  1  0  0  0  0
 12 14  1  0  0  0  0
 12 13  1  1  0  0  0
 15 19  2  0  0  0  0
 15 16  1  0  0  0  0
 16 22  2  0  0  0  0
 17 16  1  0  0  0  0
 19 20  1  0  0  0  0
 20 14  1  0  0  0  0
 20 18  2  0  0  0  0
 21 15  1  0  0  0  0
 22 18  1  0  0  0  0
 23 24  1  0  0  0  0
 25 26  1  1  0  0  0
 25 24  1  0  0  0  0
 27 25  1  0  0  0  0
 28 29  1  0  0  0  0
 29 30  2  0  0  0  0
 29 27  1  0  0  0  0
 31 28  1  0  0  0  0
 32 35  1  0  0  0  0
 33 31  2  0  0  0  0
 34 33  1  0  0  0  0
 35 31  1  0  0  0  0
 35 37  1  1  0  0  0
 36 32  1  0  0  0  0
 36 34  1  0  0  0  0
 38 42  1  0  0  0  0
 38 37  1  0  0  0  0
 39 40  1  0  0  0  0
 40 42  2  0  0  0  0
 41 39  2  0  0  0  0
 41 43  1  0  0  0  0
 43 38  2  0  0  0  0
M  END
>  <MODEL>
6

>  <REMARK>
 VINA RESULT:      -6.7      2.743      8.425
  Name = 
  12 active torsions:
  status: ('A' for Active; 'I' for Inactive)
    1  A    between atoms: C_1  and  C_34
    2  A    between atoms: C_1  and  C_35
    3  A    between atoms: C_2  and  C_6
    4  A    between atoms: C_2  and  C_13
    5  A    between atoms: N_3  and  C_4
    6  A    between atoms: C_6  and  C_12
    7  A    between atoms: N_8  and  C_27
    8  A    between atoms: N_8  and  C_30
    9  A    between atoms: N_8  and  C_34
   10  A    between atoms: C_11  and  C_14
   11  A    between atoms: C_13  and  C_27
   12  A    between atoms: C_14  and  C_41
                            x       y       z     vdW  Elec       q    Type
                         _______ _______ _______ _____ _____    ______ ____

>  <TORSDO>
F 12

$$$$
=
 OpenBabel11052421223D

 43 47  0  0  1  0  0  0  0  0999 V2000
  192.0710  172.3530  141.7330 N   0  0  0  0  0  0  0  0  0  0  0  0
  195.7740  173.1670  145.2130 C   0  0  0  0  0  0  0  0  0  0  0  0
  195.1940  172.0610  143.1650 C   0  0  0  0  0  0  0  0  0  0  0  0
  194.4060  173.2400  145.5440 C   0  0  0  0  0  3  0  0  0  0  0  0
  196.7910  173.7210  146.1430 C   0  0  0  0  0  1  0  0  0  0  0  0
  193.8660  172.1560  143.4700 C   0  0  0  0  0  0  0  0  0  0  0  0
  196.1800  172.5650  144.0110 C   0  0  0  0  0  3  0  0  0  0  0  0
  193.4360  172.7240  144.6700 C   0  0  0  0  0  3  0  0  0  0  0  0
  193.0640  171.4850  142.4020 C   0  0  2  0  0  3  0  0  0  0  0  0
  194.1460  171.0010  141.4090 C   0  0  0  0  0  2  0  0  0  0  0  0
  195.3950  171.4030  141.9720 O   0  0  0  0  0  0  0  0  0  0  0  0
  192.6340  173.0050  140.5390 C   0  0  1  0  0  3  0  0  0  0  0  0
  191.8880  172.6650  139.4050 O   0  0  0  0  0  1  0  0  0  0  0  0
  192.6260  174.5240  140.6910 C   0  0  0  0  0  2  0  0  0  0  0  0
  195.0300  176.0810  143.1700 C   0  0  0  0  0  0  0  0  0  0  0  0
  196.2630  175.8320  142.5510 C   0  0  0  0  0  0  0  0  0  0  0  0
  197.4440  176.2480  143.1510 O   0  0  0  0  0  1  0  0  0  0  0  0
  195.1200  174.7390  140.7150 C   0  0  0  0  0  3  0  0  0  0  0  0
  193.8450  175.6580  142.5590 C   0  0  0  0  0  3  0  0  0  0  0  0
  193.8890  174.9910  141.3300 C   0  0  0  0  0  0  0  0  0  0  0  0
  194.9790  176.7270  144.3600 F   0  0  0  0  0  0  0  0  0  0  0  0
  196.3060  175.1610  141.3250 C   0  0  0  0  0  3  0  0  0  0  0  0
  190.7830  171.6720  141.4770 C   0  0  0  0  0  2  0  0  0  0  0  0
  189.8880  171.5410  142.7170 C   0  0  0  0  0  2  0  0  0  0  0  0
  189.8850  172.8050  143.5750 C   0  0  2  0  0  3  0  0  0  0  0  0
  189.7270  172.4760  145.0490 C   0  0  0  0  0  1  0  0  0  0  0  0
  188.8040  173.7830  143.1330 C   0  0  0  0  0  2  0  0  0  0  0  0
  190.1730  175.9420  143.0980 N   0  0  0  0  0  2  0  0  0  0  0  0
  189.3590  174.9810  142.4170 C   0  0  0  0  0  0  0  0  0  0  0  0
  189.1270  175.1470  141.1890 O   0  0  0  0  0  0  0  0  0  0  0  0
  190.3220  176.0980  144.5170 C   0  0  0  0  0  0  0  0  0  0  0  0
  189.5790  176.8500  146.7760 N   0  0  0  0  0  2  0  0  0  0  0  0
  191.4970  175.7550  145.0560 C   0  0  0  0  0  3  0  0  0  0  0  0
  191.7590  175.8380  146.5290 C   0  0  0  0  0  2  0  0  0  0  0  0
  189.1600  176.5270  145.4050 C   0  0  1  0  0  3  0  0  0  0  0  0
  190.4440  175.7950  147.2890 C   0  0  0  0  0  2  0  0  0  0  0  0
  188.4600  177.7430  144.8070 C   0  0  0  0  0  2  0  0  0  0  0  0
  187.0490  177.8350  145.2820 C   0  0  0  0  0  0  0  0  0  0  0  0
  184.4190  177.9770  146.1510 C   0  0  0  0  0  3  0  0  0  0  0  0
  185.2390  176.9040  146.5070 C   0  0  0  0  0  3  0  0  0  0  0  0
  184.9360  178.9910  145.3440 C   0  0  0  0  0  3  0  0  0  0  0  0
  186.5250  176.8550  146.0690 N   0  0  0  0  0  0  0  0  0  0  0  0
  186.2600  178.9240  144.9050 C   0  0  0  0  0  3  0  0  0  0  0  0
  2  4  1  0  0  0  0
  2  5  1  0  0  0  0
  3  6  2  0  0  0  0
  3  7  1  0  0  0  0
  6  8  1  0  0  0  0
  7  2  2  0  0  0  0
  8  4  2  0  0  0  0
  9  1  1  6  0  0  0
  9  6  1  0  0  0  0
 10 11  1  0  0  0  0
 10  9  1  0  0  0  0
 11  3  1  0  0  0  0
 12 13  1  6  0  0  0
 12 14  1  0  0  0  0
 12  1  1  0  0  0  0
 14 20  1  0  0  0  0
 15 21  1  0  0  0  0
 16 17  1  0  0  0  0
 16 15  2  0  0  0  0
 18 22  2  0  0  0  0
 18 20  1  0  0  0  0
 19 15  1  0  0  0  0
 20 19  2  0  0  0  0
 22 16  1  0  0  0  0
 23  1  1  0  0  0  0
 23 24  1  0  0  0  0
 24 25  1  0  0  0  0
 25 26  1  1  0  0  0
 27 25  1  0  0  0  0
 28 31  1  0  0  0  0
 29 28  1  0  0  0  0
 29 27  1  0  0  0  0
 30 29  2  0  0  0  0
 31 33  2  0  0  0  0
 31 35  1  0  0  0  0
 32 36  1  0  0  0  0
 33 34  1  0  0  0  0
 34 36  1  0  0  0  0
 35 37  1  6  0  0  0
 35 32  1  0  0  0  0
 37 38  1  0  0  0  0
 38 42  1  0  0  0  0
 39 40  1  0  0  0  0
 41 39  2  0  0  0  0
 42 40  2  0  0  0  0
 43 38  2  0  0  0  0
 43 41  1  0  0  0  0
M  END
>  <MODEL>
7

>  <REMARK>
 VINA RESULT:      -6.7      1.970      4.158
  Name = 
  12 active torsions:
  status: ('A' for Active; 'I' for Inactive)
    1  A    between atoms: C_1  and  C_34
    2  A    between atoms: C_1  and  C_35
    3  A    between atoms: C_2  and  C_6
    4  A    between atoms: C_2  and  C_13
    5  A    between atoms: N_3  and  C_4
    6  A    between atoms: C_6  and  C_12
    7  A    between atoms: N_8  and  C_27
    8  A    between atoms: N_8  and  C_30
    9  A    between atoms: N_8  and  C_34
   10  A    between atoms: C_11  and  C_14
   11  A    between atoms: C_13  and  C_27
   12  A    between atoms: C_14  and  C_41
                            x       y       z     vdW  Elec       q    Type
                         _______ _______ _______ _____ _____    ______ ____

>  <TORSDO>
F 12

$$$$
=
 OpenBabel11052421223D

 43 47  0  0  1  0  0  0  0  0999 V2000
  189.5950  174.4920  142.2330 N   0  0  0  0  0  0  0  0  0  0  0  0
  188.5410  177.1090  146.5370 C   0  0  0  0  0  0  0  0  0  0  0  0
  189.6240  177.1760  144.3980 C   0  0  0  0  0  0  0  0  0  0  0  0
  188.6160  175.7020  146.5160 C   0  0  0  0  0  3  0  0  0  0  0  0
  187.9210  177.7990  147.6980 C   0  0  0  0  0  1  0  0  0  0  0  0
  189.6740  175.8120  144.3620 C   0  0  0  0  0  0  0  0  0  0  0  0
  189.0540  177.8620  145.4700 C   0  0  0  0  0  3  0  0  0  0  0  0
  189.1950  175.0390  145.4220 C   0  0  0  0  0  3  0  0  0  0  0  0
  190.3820  175.3750  143.1210 C   0  0  2  0  0  3  0  0  0  0  0  0
  190.7190  176.7150  142.4260 C   0  0  0  0  0  2  0  0  0  0  0  0
  190.2150  177.7350  143.2870 O   0  0  0  0  0  0  0  0  0  0  0  0
  188.5610  175.2410  141.4990 C   0  0  1  0  0  3  0  0  0  0  0  0
  188.4940  174.7990  140.1730 O   0  0  0  0  0  1  0  0  0  0  0  0
  187.1900  175.0560  142.1450 C   0  0  0  0  0  2  0  0  0  0  0  0
  185.5160  177.6100  144.3860 C   0  0  0  0  0  0  0  0  0  0  0  0
  185.7660  178.7970  143.6860 C   0  0  0  0  0  0  0  0  0  0  0  0
  185.3130  180.0120  144.1830 O   0  0  0  0  0  1  0  0  0  0  0  0
  186.9370  177.5410  141.9760 C   0  0  0  0  0  3  0  0  0  0  0  0
  185.9760  176.3900  143.8800 C   0  0  0  0  0  3  0  0  0  0  0  0
  186.6830  176.3540  142.6720 C   0  0  0  0  0  0  0  0  0  0  0  0
  184.8320  177.6350  145.5560 F   0  0  0  0  0  0  0  0  0  0  0  0
  186.4770  178.7610  142.4810 C   0  0  0  0  0  3  0  0  0  0  0  0
  190.4370  173.6450  141.3600 C   0  0  0  0  0  2  0  0  0  0  0  0
  191.7870  173.2600  141.9790 C   0  0  0  0  0  2  0  0  0  0  0  0
  191.7050  171.9910  142.8260 C   0  0  2  0  0  3  0  0  0  0  0  0
  190.4050  171.2450  142.5850 C   0  0  0  0  0  1  0  0  0  0  0  0
  191.8750  172.2920  144.3100 C   0  0  0  0  0  2  0  0  0  0  0  0
  194.0380  172.7980  145.5760 N   0  0  0  0  0  2  0  0  0  0  0  0
  193.2200  171.8830  144.8380 C   0  0  0  0  0  0  0  0  0  0  0  0
  193.6430  170.7110  144.6500 O   0  0  0  0  0  0  0  0  0  0  0  0
  193.8840  174.2230  145.6580 C   0  0  0  0  0  0  0  0  0  0  0  0
  194.5720  176.5780  145.2090 N   0  0  0  0  0  2  0  0  0  0  0  0
  192.9050  174.6940  146.4380 C   0  0  0  0  0  3  0  0  0  0  0  0
  192.6230  176.1590  146.5750 C   0  0  0  0  0  2  0  0  0  0  0  0
  194.7190  175.1720  144.8060 C   0  0  1  0  0  3  0  0  0  0  0  0
  193.1600  176.9030  145.3630 C   0  0  0  0  0  2  0  0  0  0  0  0
  196.1940  174.7910  144.8850 C   0  0  0  0  0  2  0  0  0  0  0  0
  196.7570  174.5550  143.5240 C   0  0  0  0  0  0  0  0  0  0  0  0
  197.7860  174.1400  140.9810 C   0  0  0  0  0  3  0  0  0  0  0  0
  197.9410  175.3670  141.6310 C   0  0  0  0  0  3  0  0  0  0  0  0
  197.1000  173.1100  141.6260 C   0  0  0  0  0  3  0  0  0  0  0  0
  197.4280  175.5480  142.8770 N   0  0  0  0  0  0  0  0  0  0  0  0
  196.5810  173.3140  142.9060 C   0  0  0  0  0  3  0  0  0  0  0  0
  2  5  1  0  0  0  0
  3  7  1  0  0  0  0
  4  2  1  0  0  0  0
  6  3  2  0  0  0  0
  6  8  1  0  0  0  0
  7  2  2  0  0  0  0
  8  4  2  0  0  0  0
  9  1  1  6  0  0  0
  9  6  1  0  0  0  0
 10  9  1  0  0  0  0
 10 11  1  0  0  0  0
 11  3  1  0  0  0  0
 12 13  1  6  0  0  0
 12 14  1  0  0  0  0
 12  1  1  0  0  0  0
 14 20  1  0  0  0  0
 15 21  1  0  0  0  0
 16 17  1  0  0  0  0
 16 15  2  0  0  0  0
 18 22  2  0  0  0  0
 18 20  1  0  0  0  0
 19 15  1  0  0  0  0
 20 19  2  0  0  0  0
 22 16  1  0  0  0  0
 23 24  1  0  0  0  0
 23  1  1  0  0  0  0
 24 25  1  0  0  0  0
 25 26  1  1  0  0  0
 25 27  1  0  0  0  0
 27 29  1  0  0  0  0
 28 31  1  0  0  0  0
 29 28  1  0  0  0  0
 30 29  2  0  0  0  0
 31 33  2  0  0  0  0
 32 36  1  0  0  0  0
 33 34  1  0  0  0  0
 35 37  1  1  0  0  0
 35 32  1  0  0  0  0
 35 31  1  0  0  0  0
 36 34  1  0  0  0  0
 38 37  1  0  0  0  0
 39 41  1  0  0  0  0
 39 40  2  0  0  0  0
 40 42  1  0  0  0  0
 41 43  2  0  0  0  0
 42 38  2  0  0  0  0
 43 38  1  0  0  0  0
M  END
>  <MODEL>
8

>  <REMARK>
 VINA RESULT:      -6.7      2.970      7.756
  Name = 
  12 active torsions:
  status: ('A' for Active; 'I' for Inactive)
    1  A    between atoms: C_1  and  C_34
    2  A    between atoms: C_1  and  C_35
    3  A    between atoms: C_2  and  C_6
    4  A    between atoms: C_2  and  C_13
    5  A    between atoms: N_3  and  C_4
    6  A    between atoms: C_6  and  C_12
    7  A    between atoms: N_8  and  C_27
    8  A    between atoms: N_8  and  C_30
    9  A    between atoms: N_8  and  C_34
   10  A    between atoms: C_11  and  C_14
   11  A    between atoms: C_13  and  C_27
   12  A    between atoms: C_14  and  C_41
                            x       y       z     vdW  Elec       q    Type
                         _______ _______ _______ _____ _____    ______ ____

>  <TORSDO>
F 12

$$$$
=
 OpenBabel11052421223D

 43 47  0  0  1  0  0  0  0  0999 V2000
  190.4790  176.5290  144.7400 N   0  0  0  0  0  0  0  0  0  0  0  0
  185.6990  177.5490  146.3520 C   0  0  0  0  0  0  0  0  0  0  0  0
  188.0290  177.6040  146.9170 C   0  0  0  0  0  0  0  0  0  0  0  0
  185.9690  176.5520  145.3940 C   0  0  0  0  0  3  0  0  0  0  0  0
  184.3080  178.0320  146.5450 C   0  0  0  0  0  1  0  0  0  0  0  0
  188.2980  176.6580  145.9690 C   0  0  0  0  0  0  0  0  0  0  0  0
  186.7380  178.0820  147.1310 C   0  0  0  0  0  3  0  0  0  0  0  0
  187.2810  176.0910  145.2000 C   0  0  0  0  0  3  0  0  0  0  0  0
  189.7530  176.3150  146.0110 C   0  0  2  0  0  3  0  0  0  0  0  0
  190.2930  177.2370  147.1280 C   0  0  0  0  0  2  0  0  0  0  0  0
  189.1650  177.9690  147.6050 O   0  0  0  0  0  0  0  0  0  0  0  0
  189.9770  177.7100  144.0190 C   0  0  1  0  0  3  0  0  0  0  0  0
  190.9120  178.7490  144.0840 O   0  0  0  0  0  1  0  0  0  0  0  0
  189.7130  177.3820  142.5510 C   0  0  0  0  0  2  0  0  0  0  0  0
  186.2280  178.8650  142.6080 C   0  0  0  0  0  0  0  0  0  0  0  0
  185.6330  178.2110  141.5220 C   0  0  0  0  0  0  0  0  0  0  0  0
  184.3130  178.4780  141.1800 O   0  0  0  0  0  1  0  0  0  0  0  0
  187.6970  177.0090  141.1150 C   0  0  0  0  0  3  0  0  0  0  0  0
  187.5570  178.5900  142.9460 C   0  0  0  0  0  3  0  0  0  0  0  0
  188.2910  177.6590  142.2020 C   0  0  0  0  0  0  0  0  0  0  0  0
  185.5240  179.7680  143.3340 F   0  0  0  0  0  0  0  0  0  0  0  0
  186.3690  177.2830  140.7760 C   0  0  0  0  0  3  0  0  0  0  0  0
  191.9490  176.5210  144.9030 C   0  0  0  0  0  2  0  0  0  0  0  0
  192.5910  175.1400  144.7120 C   0  0  0  0  0  2  0  0  0  0  0  0
  193.5770  174.7910  145.8270 C   0  0  2  0  0  3  0  0  0  0  0  0
  194.2130  176.0380  146.4160 C   0  0  0  0  0  1  0  0  0  0  0  0
  194.6520  173.8250  145.3450 C   0  0  0  0  0  2  0  0  0  0  0  0
  194.4180  172.7000  143.0610 N   0  0  0  0  0  2  0  0  0  0  0  0
  194.8100  173.8280  143.8510 C   0  0  0  0  0  0  0  0  0  0  0  0
  195.2800  174.8410  143.2670 O   0  0  0  0  0  0  0  0  0  0  0  0
  194.1360  171.3730  143.5290 C   0  0  0  0  0  0  0  0  0  0  0  0
  192.6200  169.5350  144.2690 N   0  0  0  0  0  2  0  0  0  0  0  0
  195.1760  170.6020  143.8640 C   0  0  0  0  0  3  0  0  0  0  0  0
  195.0100  169.1880  144.3300 C   0  0  0  0  0  2  0  0  0  0  0  0
  192.7200  170.8090  143.5420 C   0  0  1  0  0  3  0  0  0  0  0  0
  193.6830  168.6350  143.8390 C   0  0  0  0  0  2  0  0  0  0  0  0
  191.7580  171.8100  144.1720 C   0  0  0  0  0  2  0  0  0  0  0  0
  190.7660  172.3010  143.1710 C   0  0  0  0  0  0  0  0  0  0  0  0
  188.9470  173.2260  141.2920 C   0  0  0  0  0  3  0  0  0  0  0  0
  189.9440  172.3120  140.9430 C   0  0  0  0  0  3  0  0  0  0  0  0
  188.8710  173.6790  142.6100 C   0  0  0  0  0  3  0  0  0  0  0  0
  190.8250  171.8720  141.8800 N   0  0  0  0  0  0  0  0  0  0  0  0
  189.7850  173.2160  143.5590 C   0  0  0  0  0  3  0  0  0  0  0  0
  1 23  1  0  0  0  0
  2  5  1  0  0  0  0
  2  7  1  0  0  0  0
  3  7  2  0  0  0  0
  3 11  1  0  0  0  0
  4  2  2  0  0  0  0
  6  9  1  0  0  0  0
  6  3  1  0  0  0  0
  8  4  1  0  0  0  0
  8  6  2  0  0  0  0
  9  1  1  6  0  0  0
  9 10  1  0  0  0  0
 10 11  1  0  0  0  0
 12 13  1  6  0  0  0
 12  1  1  0  0  0  0
 14 12  1  0  0  0  0
 15 19  1  0  0  0  0
 15 21  1  0  0  0  0
 16 15  2  0  0  0  0
 17 16  1  0  0  0  0
 18 20  1  0  0  0  0
 20 14  1  0  0  0  0
 20 19  2  0  0  0  0
 22 18  2  0  0  0  0
 22 16  1  0  0  0  0
 24 23  1  0  0  0  0
 24 25  1  0  0  0  0
 25 26  1  6  0  0  0
 27 25  1  0  0  0  0
 28 31  1  0  0  0  0
 28 29  1  0  0  0  0
 29 27  1  0  0  0  0
 30 29  2  0  0  0  0
 31 35  1  0  0  0  0
 31 33  2  0  0  0  0
 33 34  1  0  0  0  0
 35 37  1  1  0  0  0
 35 32  1  0  0  0  0
 36 32  1  0  0  0  0
 36 34  1  0  0  0  0
 38 43  1  0  0  0  0
 38 37  1  0  0  0  0
 39 41  1  0  0  0  0
 40 39  2  0  0  0  0
 40 42  1  0  0  0  0
 41 43  2  0  0  0  0
 42 38  2  0  0  0  0
M  END
>  <MODEL>
9

>  <REMARK>
 VINA RESULT:      -6.5      2.903      8.415
  Name = 
  12 active torsions:
  status: ('A' for Active; 'I' for Inactive)
    1  A    between atoms: C_1  and  C_34
    2  A    between atoms: C_1  and  C_35
    3  A    between atoms: C_2  and  C_6
    4  A    between atoms: C_2  and  C_13
    5  A    between atoms: N_3  and  C_4
    6  A    between atoms: C_6  and  C_12
    7  A    between atoms: N_8  and  C_27
    8  A    between atoms: N_8  and  C_30
    9  A    between atoms: N_8  and  C_34
   10  A    between atoms: C_11  and  C_14
   11  A    between atoms: C_13  and  C_27
   12  A    between atoms: C_14  and  C_41
                            x       y       z     vdW  Elec       q    Type
                         _______ _______ _______ _____ _____    ______ ____

>  <TORSDO>
F 12

$$$$
