=
 OpenBabel11052419103D

 32 37  0  0  1  0  0  0  0  0999 V2000
  189.7670  175.4660  144.5960 C   0  0  0  0  0  0  0  0  0  0  0  0
  187.5580  176.4950  144.5260 C   0  0  0  0  0  0  0  0  0  0  0  0
  190.9010  174.8350  145.3700 C   0  0  0  0  0  2  0  0  0  0  0  0
  188.6330  175.9770  145.2690 C   0  0  0  0  0  0  0  0  0  0  0  0
  186.3900  176.9740  145.1600 C   0  0  0  0  0  0  0  0  0  0  0  0
  185.7550  178.1430  140.2880 C   0  0  0  0  0  2  0  0  0  0  0  0
  187.6300  176.5050  143.1210 C   0  0  0  0  0  0  0  0  0  0  0  0
  184.2910  178.0340  142.2800 C   0  0  0  0  0  3  0  0  0  0  0  0
  185.4250  177.4980  143.0510 C   0  0  0  0  0  0  0  0  0  0  0  0
  188.6110  176.0890  146.7780 C   0  0  1  0  0  3  0  0  0  0  0  0
  185.3660  177.4590  144.4080 N   0  0  0  0  0  0  0  0  0  0  0  0
  187.1880  175.9460  147.3110 C   0  0  0  0  0  2  0  0  0  0  0  0
  189.5370  175.0830  147.4430 C   0  0  0  0  0  2  0  0  0  0  0  0
  188.7310  176.0040  142.5000 N   0  0  0  0  0  0  0  0  0  0  0  0
  189.7880  175.4810  143.1820 C   0  0  0  0  0  0  0  0  0  0  0  0
  186.5630  177.0200  142.3750 C   0  0  0  0  0  0  0  0  0  0  0  0
  186.2630  176.9820  146.6610 C   0  0  1  0  0  3  0  0  0  0  0  0
  190.9250  175.2350  146.8440 C   0  0  0  0  0  2  0  0  0  0  0  0
  184.4240  178.2940  140.9770 C   0  0  0  0  0  3  0  0  0  0  0  0
  186.5590  176.9740  140.8680 C   0  0  0  0  0  2  0  0  0  0  0  0
  191.9920  173.1840  141.2690 C   0  0  0  0  0  0  0  0  0  0  0  0
  192.0050  172.0180  140.7930 O   0  0  0  0  0  0  0  0  0  0  0  0
  190.8980  174.9390  142.4420 N   0  0  0  0  0  0  0  0  0  0  0  0
  193.0530  173.9650  141.1260 O   0  0  0  0  0  0  0  0  0  0  0  0
  191.9960  175.6820  142.2770 N   0  0  0  0  0  0  0  0  0  0  0  0
  190.8670  173.6650  141.9460 C   0  0  0  0  0  0  0  0  0  0  0  0
  189.8440  172.9350  142.0820 O   0  0  0  0  0  0  0  0  0  0  0  0
  193.0780  175.2000  141.6130 C   0  0  0  0  0  0  0  0  0  0  0  0
  195.2810  175.9690  142.3760 C   0  0  0  0  0  1  0  0  0  0  0  0
  194.2030  176.0070  141.4550 O   0  0  0  0  0  0  0  0  0  0  0  0
  186.5370  178.3780  147.2010 C   0  0  0  0  0  2  0  0  0  0  0  0
  185.3390  178.9950  147.5610 O   0  0  0  0  0  1  0  0  0  0  0  0
  1  4  1  0  0  0  0
  1  3  1  0  0  0  0
  2  5  1  0  0  0  0
  2  4  2  0  0  0  0
  3 18  1  0  0  0  0
  4 10  1  0  0  0  0
  5 17  1  0  0  0  0
  6 20  1  0  0  0  0
  6 19  1  0  0  0  0
  7  2  1  0  0  0  0
  8  9  1  0  0  0  0
  9 11  1  0  0  0  0
 10 12  1  1  0  0  0
 10 13  1  0  0  0  0
 11  5  2  0  0  0  0
 14  7  2  0  0  0  0
 14 15  1  0  0  0  0
 15  1  2  0  0  0  0
 16  9  2  0  0  0  0
 16  7  1  0  0  0  0
 17 31  1  1  0  0  0
 17 12  1  0  0  0  0
 18 13  1  0  0  0  0
 19  8  2  0  0  0  0
 20 16  1  0  0  0  0
 21 26  1  0  0  0  0
 22 21  2  0  0  0  0
 23 15  1  0  0  0  0
 24 21  1  0  0  0  0
 24 28  1  0  0  0  0
 25 23  1  0  0  0  0
 26 27  2  0  0  0  0
 26 23  1  0  0  0  0
 28 25  2  0  0  0  0
 30 28  1  0  0  0  0
 30 29  1  0  0  0  0
 31 32  1  0  0  0  0
M  END
>  <MODEL>
1

>  <REMARK>
 VINA RESULT:      -8.2      0.000      0.000
  Name = 
  3 active torsions:
  status: ('A' for Active; 'I' for Inactive)
    1  A    between atoms: C_13  and  C_29
    2  A    between atoms: O_15  and  C_26
    3  A    between atoms: N_16  and  C_27
                            x       y       z     vdW  Elec       q    Type
                         _______ _______ _______ _____ _____    ______ ____

>  <TORSDO>
F 3

$$$$
=
 OpenBabel11052419103D

 32 37  0  0  1  0  0  0  0  0999 V2000
  189.6340  175.4070  144.6740 C   0  0  0  0  0  0  0  0  0  0  0  0
  187.4620  176.5010  144.4950 C   0  0  0  0  0  0  0  0  0  0  0  0
  190.7200  174.7660  145.5070 C   0  0  0  0  0  2  0  0  0  0  0  0
  188.4940  175.9730  145.2910 C   0  0  0  0  0  0  0  0  0  0  0  0
  186.2890  177.0340  145.0720 C   0  0  0  0  0  0  0  0  0  0  0  0
  185.8610  178.0700  140.1480 C   0  0  0  0  0  2  0  0  0  0  0  0
  187.5840  176.4640  143.0940 C   0  0  0  0  0  0  0  0  0  0  0  0
  184.3260  178.0680  142.0890 C   0  0  0  0  0  3  0  0  0  0  0  0
  185.4150  177.5220  142.9150 C   0  0  0  0  0  0  0  0  0  0  0  0
  188.4240  176.1330  146.7940 C   0  0  1  0  0  3  0  0  0  0  0  0
  185.3080  177.5270  144.2700 N   0  0  0  0  0  0  0  0  0  0  0  0
  186.9790  176.0490  147.2800 C   0  0  0  0  0  2  0  0  0  0  0  0
  189.2930  175.1190  147.5220 C   0  0  0  0  0  2  0  0  0  0  0  0
  188.6890  175.9110  142.5280 N   0  0  0  0  0  0  0  0  0  0  0  0
  189.7050  175.3770  143.2630 C   0  0  0  0  0  0  0  0  0  0  0  0
  186.5600  176.9890  142.2950 C   0  0  0  0  0  0  0  0  0  0  0  0
  186.1100  177.0930  146.5660 C   0  0  1  0  0  3  0  0  0  0  0  0
  190.7060  175.2110  146.9680 C   0  0  0  0  0  2  0  0  0  0  0  0
  184.5130  178.2840  140.7840 C   0  0  0  0  0  3  0  0  0  0  0  0
  186.6070  176.8960  140.7910 C   0  0  0  0  0  2  0  0  0  0  0  0
  192.9770  174.8760  141.5790 C   0  0  0  0  0  0  0  0  0  0  0  0
  194.0280  175.5040  141.2850 O   0  0  0  0  0  0  0  0  0  0  0  0
  190.8220  174.7790  142.5790 N   0  0  0  0  0  0  0  0  0  0  0  0
  192.8500  173.6050  141.2240 O   0  0  0  0  0  0  0  0  0  0  0  0
  190.7420  173.5040  142.1910 N   0  0  0  0  0  0  0  0  0  0  0  0
  191.9420  175.5040  142.2780 C   0  0  0  0  0  0  0  0  0  0  0  0
  192.0530  176.7120  142.6320 O   0  0  0  0  0  0  0  0  0  0  0  0
  191.7580  172.9080  141.5150 C   0  0  0  0  0  0  0  0  0  0  0  0
  190.6400  170.7280  141.6810 C   0  0  0  0  0  1  0  0  0  0  0  0
  191.6400  171.5730  141.1330 O   0  0  0  0  0  0  0  0  0  0  0  0
  186.4100  178.4960  147.0740 C   0  0  0  0  0  2  0  0  0  0  0  0
  185.2590  179.0610  147.6230 O   0  0  0  0  0  1  0  0  0  0  0  0
  1  4  1  0  0  0  0
  1  3  1  0  0  0  0
  2  5  1  0  0  0  0
  2  4  2  0  0  0  0
  3 18  1  0  0  0  0
  4 10  1  0  0  0  0
  5 17  1  0  0  0  0
  6 19  1  0  0  0  0
  6 20  1  0  0  0  0
  7  2  1  0  0  0  0
  8  9  1  0  0  0  0
  9 11  1  0  0  0  0
 10 12  1  1  0  0  0
 10 13  1  0  0  0  0
 11  5  2  0  0  0  0
 14  7  2  0  0  0  0
 14 15  1  0  0  0  0
 15  1  2  0  0  0  0
 16  9  2  0  0  0  0
 16  7  1  0  0  0  0
 17 31  1  1  0  0  0
 17 12  1  0  0  0  0
 18 13  1  0  0  0  0
 19  8  2  0  0  0  0
 20 16  1  0  0  0  0
 21 26  1  0  0  0  0
 22 21  2  0  0  0  0
 23 15  1  0  0  0  0
 24 28  1  0  0  0  0
 24 21  1  0  0  0  0
 25 23  1  0  0  0  0
 26 23  1  0  0  0  0
 26 27  2  0  0  0  0
 28 25  2  0  0  0  0
 30 28  1  0  0  0  0
 30 29  1  0  0  0  0
 31 32  1  0  0  0  0
M  END
>  <MODEL>
2

>  <REMARK>
 VINA RESULT:      -8.2      0.800      2.051
  Name = 
  3 active torsions:
  status: ('A' for Active; 'I' for Inactive)
    1  A    between atoms: C_13  and  C_29
    2  A    between atoms: O_15  and  C_26
    3  A    between atoms: N_16  and  C_27
                            x       y       z     vdW  Elec       q    Type
                         _______ _______ _______ _____ _____    ______ ____

>  <TORSDO>
F 3

$$$$
=
 OpenBabel11052419103D

 32 37  0  0  1  0  0  0  0  0999 V2000
  189.2220  175.1590  142.6540 C   0  0  0  0  0  0  0  0  0  0  0  0
  188.2330  176.0530  144.6950 C   0  0  0  0  0  0  0  0  0  0  0  0
  190.3120  174.3840  141.9490 C   0  0  0  0  0  2  0  0  0  0  0  0
  189.2910  175.3920  144.0470 C   0  0  0  0  0  0  0  0  0  0  0  0
  188.2440  176.2650  146.0910 C   0  0  0  0  0  0  0  0  0  0  0  0
  184.1840  178.7880  144.4620 C   0  0  0  0  0  2  0  0  0  0  0  0
  187.1220  176.4810  143.9440 C   0  0  0  0  0  0  0  0  0  0  0  0
  185.0190  178.0240  146.6620 C   0  0  0  0  0  3  0  0  0  0  0  0
  186.1270  177.3410  145.9750 C   0  0  0  0  0  0  0  0  0  0  0  0
  190.5410  175.0520  144.8300 C   0  0  1  0  0  3  0  0  0  0  0  0
  187.1980  176.9000  146.6850 N   0  0  0  0  0  0  0  0  0  0  0  0
  190.1940  174.6880  146.2710 C   0  0  0  0  0  2  0  0  0  0  0  0
  191.3460  173.9410  144.1750 C   0  0  0  0  0  2  0  0  0  0  0  0
  187.0820  176.2410  142.6060 N   0  0  0  0  0  0  0  0  0  0  0  0
  188.0790  175.5920  141.9430 C   0  0  0  0  0  0  0  0  0  0  0  0
  186.0650  177.1410  144.5840 C   0  0  0  0  0  0  0  0  0  0  0  0
  189.4080  175.8230  146.9390 C   0  0  1  0  0  3  0  0  0  0  0  0
  191.6220  174.3320  142.7320 C   0  0  0  0  0  2  0  0  0  0  0  0
  184.0810  178.6640  145.9590 C   0  0  0  0  0  3  0  0  0  0  0  0
  184.8190  177.5410  143.8360 C   0  0  0  0  0  2  0  0  0  0  0  0
  187.2110  175.9610  138.3510 C   0  0  0  0  0  0  0  0  0  0  0  0
  186.6860  176.7830  137.5550 O   0  0  0  0  0  0  0  0  0  0  0  0
  187.9360  175.3490  140.5310 N   0  0  0  0  0  0  0  0  0  0  0  0
  187.6320  174.7870  137.9010 O   0  0  0  0  0  0  0  0  0  0  0  0
  188.3350  174.1780  140.0280 N   0  0  0  0  0  0  0  0  0  0  0  0
  187.3560  176.2730  139.7060 C   0  0  0  0  0  0  0  0  0  0  0  0
  186.9680  177.3910  140.1470 O   0  0  0  0  0  0  0  0  0  0  0  0
  188.1900  173.8930  138.7090 C   0  0  0  0  0  0  0  0  0  0  0  0
  189.8690  172.1040  138.6130 C   0  0  0  0  0  1  0  0  0  0  0  0
  188.6260  172.6630  138.2190 O   0  0  0  0  0  0  0  0  0  0  0  0
  190.3110  177.0090  147.2460 C   0  0  0  0  0  2  0  0  0  0  0  0
  191.4350  176.5830  147.9540 O   0  0  0  0  0  1  0  0  0  0  0  0
  1  4  1  0  0  0  0
  2  5  1  0  0  0  0
  3  1  1  0  0  0  0
  3 18  1  0  0  0  0
  4  2  2  0  0  0  0
  4 10  1  0  0  0  0
  5 11  2  0  0  0  0
  5 17  1  0  0  0  0
  6 19  1  0  0  0  0
  7 16  1  0  0  0  0
  7  2  1  0  0  0  0
  9  8  1  0  0  0  0
  9 11  1  0  0  0  0
 10 13  1  6  0  0  0
 10 12  1  0  0  0  0
 12 17  1  0  0  0  0
 14  7  2  0  0  0  0
 15 14  1  0  0  0  0
 15  1  2  0  0  0  0
 16  9  2  0  0  0  0
 17 31  1  6  0  0  0
 18 13  1  0  0  0  0
 19  8  2  0  0  0  0
 20  6  1  0  0  0  0
 20 16  1  0  0  0  0
 21 26  1  0  0  0  0
 22 21  2  0  0  0  0
 23 15  1  0  0  0  0
 24 21  1  0  0  0  0
 24 28  1  0  0  0  0
 25 23  1  0  0  0  0
 26 27  2  0  0  0  0
 26 23  1  0  0  0  0
 28 25  2  0  0  0  0
 30 29  1  0  0  0  0
 30 28  1  0  0  0  0
 31 32  1  0  0  0  0
M  END
>  <MODEL>
3

>  <REMARK>
 VINA RESULT:      -7.3      2.867      4.446
  Name = 
  3 active torsions:
  status: ('A' for Active; 'I' for Inactive)
    1  A    between atoms: C_13  and  C_29
    2  A    between atoms: O_15  and  C_26
    3  A    between atoms: N_16  and  C_27
                            x       y       z     vdW  Elec       q    Type
                         _______ _______ _______ _____ _____    ______ ____

>  <TORSDO>
F 3

$$$$
=
 OpenBabel11052419103D

 32 37  0  0  1  0  0  0  0  0999 V2000
  191.7890  174.9150  145.4780 C   0  0  0  0  0  0  0  0  0  0  0  0
  190.0480  175.0970  143.7810 C   0  0  0  0  0  0  0  0  0  0  0  0
  192.2910  175.1690  146.8800 C   0  0  0  0  0  2  0  0  0  0  0  0
  190.5280  175.4050  145.0660 C   0  0  0  0  0  0  0  0  0  0  0  0
  188.7750  175.5310  143.3490 C   0  0  0  0  0  0  0  0  0  0  0  0
  190.8630  173.4520  139.2470 C   0  0  0  0  0  2  0  0  0  0  0  0
  190.8350  174.3100  142.9200 C   0  0  0  0  0  0  0  0  0  0  0  0
  188.5790  174.1400  139.9060 C   0  0  0  0  0  3  0  0  0  0  0  0
  189.0930  174.4660  141.2470 C   0  0  0  0  0  0  0  0  0  0  0  0
  189.7430  176.3590  145.9400 C   0  0  1  0  0  3  0  0  0  0  0  0
  188.3390  175.2060  142.1020 N   0  0  0  0  0  0  0  0  0  0  0  0
  188.2420  176.1870  145.7170 C   0  0  0  0  0  2  0  0  0  0  0  0
  190.0870  176.2050  147.4130 C   0  0  0  0  0  2  0  0  0  0  0  0
  192.0420  173.8500  143.3430 N   0  0  0  0  0  0  0  0  0  0  0  0
  192.5370  174.1140  144.5840 C   0  0  0  0  0  0  0  0  0  0  0  0
  190.3620  174.0010  141.6380 C   0  0  0  0  0  0  0  0  0  0  0  0
  187.8940  176.3720  144.2350 C   0  0  1  0  0  3  0  0  0  0  0  0
  191.5930  176.3370  147.5720 C   0  0  0  0  0  2  0  0  0  0  0  0
  189.3910  173.6230  138.9800 C   0  0  0  0  0  3  0  0  0  0  0  0
  191.1310  173.0920  140.7130 C   0  0  0  0  0  2  0  0  0  0  0  0
  196.1720  173.6680  145.2030 C   0  0  0  0  0  0  0  0  0  0  0  0
  197.2580  174.3000  145.1250 O   0  0  0  0  0  0  0  0  0  0  0  0
  193.8090  173.5550  144.9620 N   0  0  0  0  0  0  0  0  0  0  0  0
  196.1720  172.4090  145.6200 O   0  0  0  0  0  0  0  0  0  0  0  0
  193.8660  172.2880  145.3790 N   0  0  0  0  0  0  0  0  0  0  0  0
  194.9640  174.2810  144.8570 C   0  0  0  0  0  0  0  0  0  0  0  0
  194.9470  175.4830  144.4680 O   0  0  0  0  0  0  0  0  0  0  0  0
  195.0470  171.7090  145.7150 C   0  0  0  0  0  0  0  0  0  0  0  0
  196.2740  169.7420  146.5230 C   0  0  0  0  0  1  0  0  0  0  0  0
  195.0650  170.3860  146.1530 O   0  0  0  0  0  0  0  0  0  0  0  0
  187.9880  177.8360  143.8280 C   0  0  0  0  0  2  0  0  0  0  0  0
  186.7590  178.2750  143.3350 O   0  0  0  0  0  1  0  0  0  0  0  0
  1  3  1  0  0  0  0
  2  4  2  0  0  0  0
  3 18  1  0  0  0  0
  4  1  1  0  0  0  0
  4 10  1  0  0  0  0
  5  2  1  0  0  0  0
  5 17  1  0  0  0  0
  6 20  1  0  0  0  0
  7 14  2  0  0  0  0
  7  2  1  0  0  0  0
  8  9  1  0  0  0  0
  9 16  2  0  0  0  0
  9 11  1  0  0  0  0
 10 12  1  1  0  0  0
 10 13  1  0  0  0  0
 11  5  2  0  0  0  0
 13 18  1  0  0  0  0
 14 15  1  0  0  0  0
 15 23  1  0  0  0  0
 15  1  2  0  0  0  0
 16  7  1  0  0  0  0
 17 31  1  6  0  0  0
 17 12  1  0  0  0  0
 19  6  1  0  0  0  0
 19  8  2  0  0  0  0
 20 16  1  0  0  0  0
 21 24  1  0  0  0  0
 22 21  2  0  0  0  0
 23 25  1  0  0  0  0
 24 28  1  0  0  0  0
 25 28  2  0  0  0  0
 26 23  1  0  0  0  0
 26 21  1  0  0  0  0
 27 26  2  0  0  0  0
 28 30  1  0  0  0  0
 30 29  1  0  0  0  0
 32 31  1  0  0  0  0
M  END
>  <MODEL>
4

>  <REMARK>
 VINA RESULT:      -7.2      3.210      4.807
  Name = 
  3 active torsions:
  status: ('A' for Active; 'I' for Inactive)
    1  A    between atoms: C_13  and  C_29
    2  A    between atoms: O_15  and  C_26
    3  A    between atoms: N_16  and  C_27
                            x       y       z     vdW  Elec       q    Type
                         _______ _______ _______ _____ _____    ______ ____

>  <TORSDO>
F 3

$$$$
=
 OpenBabel11052419103D

 32 37  0  0  1  0  0  0  0  0999 V2000
  192.0990  175.2370  145.2190 C   0  0  0  0  0  0  0  0  0  0  0  0
  190.1680  175.2150  143.7300 C   0  0  0  0  0  0  0  0  0  0  0  0
  192.7230  175.5500  146.5590 C   0  0  0  0  0  2  0  0  0  0  0  0
  190.7520  175.5770  144.9560 C   0  0  0  0  0  0  0  0  0  0  0  0
  188.8140  175.4970  143.4480 C   0  0  0  0  0  0  0  0  0  0  0  0
  190.6530  173.6700  139.1140 C   0  0  0  0  0  2  0  0  0  0  0  0
  190.9390  174.5230  142.7760 C   0  0  0  0  0  0  0  0  0  0  0  0
  188.3940  174.0890  140.0320 C   0  0  0  0  0  3  0  0  0  0  0  0
  189.0140  174.4740  141.3110 C   0  0  0  0  0  0  0  0  0  0  0  0
  189.9650  176.4350  145.9240 C   0  0  1  0  0  3  0  0  0  0  0  0
  188.2810  175.1220  142.2540 N   0  0  0  0  0  0  0  0  0  0  0  0
  188.4790  176.0900  145.8680 C   0  0  0  0  0  2  0  0  0  0  0  0
  190.4880  176.3240  147.3470 C   0  0  0  0  0  2  0  0  0  0  0  0
  192.2310  174.2070  143.0570 N   0  0  0  0  0  0  0  0  0  0  0  0
  192.8290  174.5280  144.2380 C   0  0  0  0  0  0  0  0  0  0  0  0
  190.3640  174.1590  141.5520 C   0  0  0  0  0  0  0  0  0  0  0  0
  187.9470  176.2320  144.4360 C   0  0  1  0  0  3  0  0  0  0  0  0
  191.9770  176.6290  147.3390 C   0  0  0  0  0  2  0  0  0  0  0  0
  189.1510  173.6680  139.0150 C   0  0  0  0  0  3  0  0  0  0  0  0
  191.1240  173.3450  140.5360 C   0  0  0  0  0  2  0  0  0  0  0  0
  195.8280  172.6400  145.3510 C   0  0  0  0  0  0  0  0  0  0  0  0
  196.1440  171.5810  145.9540 O   0  0  0  0  0  0  0  0  0  0  0  0
  194.1920  174.1200  144.4650 N   0  0  0  0  0  0  0  0  0  0  0  0
  196.7770  173.4590  144.9190 O   0  0  0  0  0  0  0  0  0  0  0  0
  195.1850  174.9140  144.0580 N   0  0  0  0  0  0  0  0  0  0  0  0
  194.4850  172.9610  145.1290 C   0  0  0  0  0  0  0  0  0  0  0  0
  193.5710  172.1850  145.5250 O   0  0  0  0  0  0  0  0  0  0  0  0
  196.4840  174.5850  144.2790 C   0  0  0  0  0  0  0  0  0  0  0  0
  197.2120  176.5600  143.0150 C   0  0  0  0  0  1  0  0  0  0  0  0
  197.4940  175.4360  143.8330 O   0  0  0  0  0  0  0  0  0  0  0  0
  187.8260  177.6960  144.0390 C   0  0  0  0  0  2  0  0  0  0  0  0
  186.6030  177.9190  143.4040 O   0  0  0  0  0  1  0  0  0  0  0  0
  1  3  1  0  0  0  0
  2  4  2  0  0  0  0
  3 18  1  0  0  0  0
  4  1  1  0  0  0  0
  4 10  1  0  0  0  0
  5  2  1  0  0  0  0
  5 17  1  0  0  0  0
  6 20  1  0  0  0  0
  7 14  2  0  0  0  0
  7  2  1  0  0  0  0
  8  9  1  0  0  0  0
  9 16  2  0  0  0  0
  9 11  1  0  0  0  0
 10 12  1  1  0  0  0
 10 13  1  0  0  0  0
 11  5  2  0  0  0  0
 14 15  1  0  0  0  0
 15 23  1  0  0  0  0
 15  1  2  0  0  0  0
 16  7  1  0  0  0  0
 17 31  1  6  0  0  0
 17 12  1  0  0  0  0
 18 13  1  0  0  0  0
 19  6  1  0  0  0  0
 19  8  2  0  0  0  0
 20 16  1  0  0  0  0
 21 22  2  0  0  0  0
 23 26  1  0  0  0  0
 24 21  1  0  0  0  0
 25 28  2  0  0  0  0
 25 23  1  0  0  0  0
 26 21  1  0  0  0  0
 26 27  2  0  0  0  0
 28 24  1  0  0  0  0
 29 30  1  0  0  0  0
 30 28  1  0  0  0  0
 32 31  1  0  0  0  0
M  END
>  <MODEL>
5

>  <REMARK>
 VINA RESULT:      -7.1      2.863      4.280
  Name = 
  3 active torsions:
  status: ('A' for Active; 'I' for Inactive)
    1  A    between atoms: C_13  and  C_29
    2  A    between atoms: O_15  and  C_26
    3  A    between atoms: N_16  and  C_27
                            x       y       z     vdW  Elec       q    Type
                         _______ _______ _______ _____ _____    ______ ____

>  <TORSDO>
F 3

$$$$
=
 OpenBabel11052419103D

 32 37  0  0  1  0  0  0  0  0999 V2000
  188.3660  176.6040  144.0500 C   0  0  0  0  0  0  0  0  0  0  0  0
  189.9170  175.0740  142.9570 C   0  0  0  0  0  0  0  0  0  0  0  0
  188.0270  177.5520  145.1780 C   0  0  0  0  0  2  0  0  0  0  0  0
  189.5890  175.8960  144.0490 C   0  0  0  0  0  0  0  0  0  0  0  0
  191.1480  174.3860  142.8990 C   0  0  0  0  0  0  0  0  0  0  0  0
  188.5590  172.6870  138.9090 C   0  0  0  0  0  2  0  0  0  0  0  0
  189.0150  174.9620  141.8820 C   0  0  0  0  0  0  0  0  0  0  0  0
  190.9220  172.6120  139.6380 C   0  0  0  0  0  3  0  0  0  0  0  0
  190.5690  173.4670  140.7830 C   0  0  0  0  0  0  0  0  0  0  0  0
  190.4960  175.9110  145.2610 C   0  0  1  0  0  3  0  0  0  0  0  0
  191.4350  173.6060  141.8210 N   0  0  0  0  0  0  0  0  0  0  0  0
  191.9570  175.7540  144.8460 C   0  0  0  0  0  2  0  0  0  0  0  0
  190.3090  177.1630  146.1040 C   0  0  0  0  0  2  0  0  0  0  0  0
  187.8470  175.6570  141.9090 N   0  0  0  0  0  0  0  0  0  0  0  0
  187.4990  176.4740  142.9410 C   0  0  0  0  0  0  0  0  0  0  0  0
  189.3350  174.1440  140.7910 C   0  0  0  0  0  0  0  0  0  0  0  0
  192.1480  174.4750  144.0220 C   0  0  1  0  0  3  0  0  0  0  0  0
  188.8350  177.2970  146.4480 C   0  0  0  0  0  2  0  0  0  0  0  0
  189.9980  172.2800  138.7330 C   0  0  0  0  0  3  0  0  0  0  0  0
  188.4410  174.0600  139.5810 C   0  0  0  0  0  2  0  0  0  0  0  0
  184.5220  178.2910  141.6630 C   0  0  0  0  0  0  0  0  0  0  0  0
  183.9810  178.6330  140.5790 O   0  0  0  0  0  0  0  0  0  0  0  0
  186.2570  177.2010  142.8690 N   0  0  0  0  0  0  0  0  0  0  0  0
  183.9610  178.6320  142.8140 O   0  0  0  0  0  0  0  0  0  0  0  0
  185.6560  177.5770  144.0000 N   0  0  0  0  0  0  0  0  0  0  0  0
  185.7090  177.5520  141.6650 C   0  0  0  0  0  0  0  0  0  0  0  0
  186.2500  177.2110  140.5760 O   0  0  0  0  0  0  0  0  0  0  0  0
  184.5010  178.2910  143.9790 C   0  0  0  0  0  0  0  0  0  0  0  0
  184.4430  178.2770  146.4330 C   0  0  0  0  0  1  0  0  0  0  0  0
  183.8990  178.6600  145.1800 O   0  0  0  0  0  0  0  0  0  0  0  0
  192.0580  173.2360  144.9020 C   0  0  0  0  0  2  0  0  0  0  0  0
  193.3140  172.6420  145.0200 O   0  0  0  0  0  1  0  0  0  0  0  0
  1  3  1  0  0  0  0
  2  4  2  0  0  0  0
  3 18  1  0  0  0  0
  4  1  1  0  0  0  0
  4 10  1  0  0  0  0
  5  2  1  0  0  0  0
  5 17  1  0  0  0  0
  6 20  1  0  0  0  0
  7 14  2  0  0  0  0
  7  2  1  0  0  0  0
  8  9  1  0  0  0  0
  9 16  2  0  0  0  0
  9 11  1  0  0  0  0
 10 12  1  6  0  0  0
 10 13  1  0  0  0  0
 11  5  2  0  0  0  0
 13 18  1  0  0  0  0
 14 15  1  0  0  0  0
 15  1  2  0  0  0  0
 16  7  1  0  0  0  0
 17 12  1  0  0  0  0
 17 31  1  1  0  0  0
 19  6  1  0  0  0  0
 19  8  2  0  0  0  0
 20 16  1  0  0  0  0
 21 26  1  0  0  0  0
 21 24  1  0  0  0  0
 22 21  2  0  0  0  0
 23 15  1  0  0  0  0
 23 25  1  0  0  0  0
 24 28  1  0  0  0  0
 26 23  1  0  0  0  0
 27 26  2  0  0  0  0
 28 25  2  0  0  0  0
 28 30  1  0  0  0  0
 30 29  1  0  0  0  0
 31 32  1  0  0  0  0
M  END
>  <MODEL>
6

>  <REMARK>
 VINA RESULT:      -7.1      2.638      6.806
  Name = 
  3 active torsions:
  status: ('A' for Active; 'I' for Inactive)
    1  A    between atoms: C_13  and  C_29
    2  A    between atoms: O_15  and  C_26
    3  A    between atoms: N_16  and  C_27
                            x       y       z     vdW  Elec       q    Type
                         _______ _______ _______ _____ _____    ______ ____

>  <TORSDO>
F 3

$$$$
=
 OpenBabel11052419103D

 32 37  0  0  1  0  0  0  0  0999 V2000
  188.9570  175.4980  143.1120 C   0  0  0  0  0  0  0  0  0  0  0  0
  191.2670  174.7200  143.1490 C   0  0  0  0  0  0  0  0  0  0  0  0
  187.5850  175.5200  142.4770 C   0  0  0  0  0  2  0  0  0  0  0  0
  190.0180  174.7870  142.5070 C   0  0  0  0  0  0  0  0  0  0  0  0
  192.3380  173.9830  142.5990 C   0  0  0  0  0  0  0  0  0  0  0  0
  194.3510  176.3630  146.5720 C   0  0  0  0  0  2  0  0  0  0  0  0
  191.4430  175.3690  144.3850 C   0  0  0  0  0  0  0  0  0  0  0  0
  195.0340  174.4880  145.1090 C   0  0  0  0  0  3  0  0  0  0  0  0
  193.7270  174.5710  144.4370 C   0  0  0  0  0  0  0  0  0  0  0  0
  189.8690  174.2020  141.1190 C   0  0  1  0  0  3  0  0  0  0  0  0
  193.5290  173.9320  143.2540 N   0  0  0  0  0  0  0  0  0  0  0  0
  190.7310  172.9520  140.9620 C   0  0  0  0  0  2  0  0  0  0  0  0
  188.4190  173.9000  140.7750 C   0  0  0  0  0  2  0  0  0  0  0  0
  190.4040  176.0440  144.9450 N   0  0  0  0  0  0  0  0  0  0  0  0
  189.1760  176.1210  144.3620 C   0  0  0  0  0  0  0  0  0  0  0  0
  192.6850  175.3070  145.0300 C   0  0  0  0  0  0  0  0  0  0  0  0
  192.1980  173.2670  141.2810 C   0  0  1  0  0  3  0  0  0  0  0  0
  187.5990  175.1610  140.9930 C   0  0  0  0  0  2  0  0  0  0  0  0
  195.3160  175.2920  146.1380 C   0  0  0  0  0  3  0  0  0  0  0  0
  192.8950  175.9150  146.3930 C   0  0  0  0  0  2  0  0  0  0  0  0
  186.6230  177.1250  146.8660 C   0  0  0  0  0  0  0  0  0  0  0  0
  186.1830  176.7890  147.9970 O   0  0  0  0  0  0  0  0  0  0  0  0
  188.1210  176.8270  145.0450 N   0  0  0  0  0  0  0  0  0  0  0  0
  186.0850  178.1570  146.2310 O   0  0  0  0  0  0  0  0  0  0  0  0
  187.5390  177.8670  144.4450 N   0  0  0  0  0  0  0  0  0  0  0  0
  187.6750  176.4210  146.2730 C   0  0  0  0  0  0  0  0  0  0  0  0
  188.2050  175.4420  146.8700 O   0  0  0  0  0  0  0  0  0  0  0  0
  186.5200  178.5420  145.0370 C   0  0  0  0  0  0  0  0  0  0  0  0
  184.5340  179.7600  144.2620 C   0  0  0  0  0  1  0  0  0  0  0  0
  185.9420  179.6280  144.3830 O   0  0  0  0  0  0  0  0  0  0  0  0
  192.8370  174.0890  140.1700 C   0  0  0  0  0  2  0  0  0  0  0  0
  193.9160  173.3950  139.6230 O   0  0  0  0  0  1  0  0  0  0  0  0
  1 15  1  0  0  0  0
  2  7  1  0  0  0  0
  3  1  1  0  0  0  0
  4  1  2  0  0  0  0
  4  2  1  0  0  0  0
  5  2  2  0  0  0  0
  5 11  1  0  0  0  0
  7 14  1  0  0  0  0
  7 16  2  0  0  0  0
  8 19  2  0  0  0  0
  9 16  1  0  0  0  0
  9  8  1  0  0  0  0
 10 13  1  1  0  0  0
 10  4  1  0  0  0  0
 11  9  2  0  0  0  0
 12 10  1  0  0  0  0
 12 17  1  0  0  0  0
 13 18  1  0  0  0  0
 15 14  2  0  0  0  0
 15 23  1  0  0  0  0
 16 20  1  0  0  0  0
 17 31  1  6  0  0  0
 17  5  1  0  0  0  0
 18  3  1  0  0  0  0
 19  6  1  0  0  0  0
 20  6  1  0  0  0  0
 21 22  2  0  0  0  0
 23 26  1  0  0  0  0
 24 21  1  0  0  0  0
 25 28  2  0  0  0  0
 25 23  1  0  0  0  0
 26 21  1  0  0  0  0
 26 27  2  0  0  0  0
 28 24  1  0  0  0  0
 29 30  1  0  0  0  0
 30 28  1  0  0  0  0
 32 31  1  0  0  0  0
M  END
>  <MODEL>
7

>  <REMARK>
 VINA RESULT:      -7.1      2.268      7.992
  Name = 
  3 active torsions:
  status: ('A' for Active; 'I' for Inactive)
    1  A    between atoms: C_13  and  C_29
    2  A    between atoms: O_15  and  C_26
    3  A    between atoms: N_16  and  C_27
                            x       y       z     vdW  Elec       q    Type
                         _______ _______ _______ _____ _____    ______ ____

>  <TORSDO>
F 3

$$$$
=
 OpenBabel11052419103D

 32 37  0  0  1  0  0  0  0  0999 V2000
  190.2390  175.9250  145.1890 C   0  0  0  0  0  0  0  0  0  0  0  0
  191.6570  174.3510  143.9830 C   0  0  0  0  0  0  0  0  0  0  0  0
  190.0140  176.8790  146.3400 C   0  0  0  0  0  2  0  0  0  0  0  0
  191.4360  175.1800  145.0970 C   0  0  0  0  0  0  0  0  0  0  0  0
  192.8590  173.6260  143.8330 C   0  0  0  0  0  0  0  0  0  0  0  0
  189.9330  172.0220  140.0420 C   0  0  0  0  0  2  0  0  0  0  0  0
  190.6760  174.2720  142.9770 C   0  0  0  0  0  0  0  0  0  0  0  0
  192.3390  171.8710  140.5960 C   0  0  0  0  0  3  0  0  0  0  0  0
  192.0970  172.7330  141.7650 C   0  0  0  0  0  0  0  0  0  0  0  0
  192.4300  175.1620  146.2390 C   0  0  1  0  0  3  0  0  0  0  0  0
  193.0410  172.8420  142.7360 N   0  0  0  0  0  0  0  0  0  0  0  0
  193.8500  174.9620  145.7180 C   0  0  0  0  0  2  0  0  0  0  0  0
  192.3440  176.4160  147.0950 C   0  0  0  0  0  2  0  0  0  0  0  0
  189.5350  175.0020  143.0900 N   0  0  0  0  0  0  0  0  0  0  0  0
  189.2890  175.8260  144.1460 C   0  0  0  0  0  0  0  0  0  0  0  0
  190.8890  173.4480  141.8640 C   0  0  0  0  0  0  0  0  0  0  0  0
  193.9400  173.6800  144.8800 C   0  0  1  0  0  3  0  0  0  0  0  0
  190.9040  176.5940  147.5470 C   0  0  0  0  0  2  0  0  0  0  0  0
  191.3420  171.5720  139.7600 C   0  0  0  0  0  3  0  0  0  0  0  0
  189.9060  173.3960  140.7230 C   0  0  0  0  0  2  0  0  0  0  0  0
  186.6170  178.2630  143.3000 C   0  0  0  0  0  0  0  0  0  0  0  0
  186.3280  179.1300  142.4350 O   0  0  0  0  0  0  0  0  0  0  0  0
  188.0690  176.5910  144.1660 N   0  0  0  0  0  0  0  0  0  0  0  0
  185.7900  178.0440  144.3130 O   0  0  0  0  0  0  0  0  0  0  0  0
  187.2060  176.4160  145.1700 N   0  0  0  0  0  0  0  0  0  0  0  0
  187.8010  177.5260  143.2040 C   0  0  0  0  0  0  0  0  0  0  0  0
  188.5940  177.7160  142.2390 O   0  0  0  0  0  0  0  0  0  0  0  0
  186.0590  177.1380  145.2460 C   0  0  0  0  0  0  0  0  0  0  0  0
  184.4410  177.9840  146.8880 C   0  0  0  0  0  1  0  0  0  0  0  0
  185.1790  176.9210  146.3050 O   0  0  0  0  0  0  0  0  0  0  0  0
  193.8770  172.4410  145.7630 C   0  0  0  0  0  2  0  0  0  0  0  0
  195.1070  171.7840  145.7530 O   0  0  0  0  0  1  0  0  0  0  0  0
  1  3  1  0  0  0  0
  2  4  2  0  0  0  0
  3 18  1  0  0  0  0
  4  1  1  0  0  0  0
  4 10  1  0  0  0  0
  5  2  1  0  0  0  0
  5 17  1  0  0  0  0
  6 20  1  0  0  0  0
  7 14  2  0  0  0  0
  7  2  1  0  0  0  0
  8  9  1  0  0  0  0
  9 16  2  0  0  0  0
  9 11  1  0  0  0  0
 10 12  1  6  0  0  0
 10 13  1  0  0  0  0
 11  5  2  0  0  0  0
 13 18  1  0  0  0  0
 14 15  1  0  0  0  0
 15 23  1  0  0  0  0
 15  1  2  0  0  0  0
 16  7  1  0  0  0  0
 17 12  1  0  0  0  0
 17 31  1  1  0  0  0
 19  6  1  0  0  0  0
 19  8  2  0  0  0  0
 20 16  1  0  0  0  0
 21 24  1  0  0  0  0
 22 21  2  0  0  0  0
 23 25  1  0  0  0  0
 24 28  1  0  0  0  0
 25 28  2  0  0  0  0
 26 21  1  0  0  0  0
 26 23  1  0  0  0  0
 27 26  2  0  0  0  0
 28 30  1  0  0  0  0
 30 29  1  0  0  0  0
 32 31  1  0  0  0  0
M  END
>  <MODEL>
8

>  <REMARK>
 VINA RESULT:      -7.0      2.721      7.063
  Name = 
  3 active torsions:
  status: ('A' for Active; 'I' for Inactive)
    1  A    between atoms: C_13  and  C_29
    2  A    between atoms: O_15  and  C_26
    3  A    between atoms: N_16  and  C_27
                            x       y       z     vdW  Elec       q    Type
                         _______ _______ _______ _____ _____    ______ ____

>  <TORSDO>
F 3

$$$$
=
 OpenBabel11052419103D

 32 37  0  0  1  0  0  0  0  0999 V2000
  189.5450  174.7950  142.2280 C   0  0  0  0  0  0  0  0  0  0  0  0
  190.8980  175.6770  144.0540 C   0  0  0  0  0  0  0  0  0  0  0  0
  188.2680  174.7890  141.4210 C   0  0  0  0  0  2  0  0  0  0  0  0
  189.6770  175.6330  143.3590 C   0  0  0  0  0  0  0  0  0  0  0  0
  191.0840  176.5340  145.1610 C   0  0  0  0  0  0  0  0  0  0  0  0
  195.2940  173.7490  144.9990 C   0  0  0  0  0  2  0  0  0  0  0  0
  191.9710  174.8780  143.6170 C   0  0  0  0  0  0  0  0  0  0  0  0
  194.6020  175.8340  146.1380 C   0  0  0  0  0  3  0  0  0  0  0  0
  193.3240  175.7760  145.4110 C   0  0  0  0  0  0  0  0  0  0  0  0
  188.4870  176.3900  143.9080 C   0  0  1  0  0  3  0  0  0  0  0  0
  192.2830  176.5560  145.8030 N   0  0  0  0  0  0  0  0  0  0  0  0
  188.9310  177.6910  144.5710 C   0  0  0  0  0  2  0  0  0  0  0  0
  187.4370  176.6620  142.8420 C   0  0  0  0  0  2  0  0  0  0  0  0
  191.8170  174.0840  142.5240 N   0  0  0  0  0  0  0  0  0  0  0  0
  190.6550  174.0230  141.8150 C   0  0  0  0  0  0  0  0  0  0  0  0
  193.1900  174.9160  144.3050 C   0  0  0  0  0  0  0  0  0  0  0  0
  189.9680  177.4110  145.6660 C   0  0  1  0  0  3  0  0  0  0  0  0
  187.0660  175.3440  142.1830 C   0  0  0  0  0  2  0  0  0  0  0  0
  195.5470  174.9160  145.9170 C   0  0  0  0  0  3  0  0  0  0  0  0
  194.3910  174.1430  143.8240 C   0  0  0  0  0  2  0  0  0  0  0  0
  190.4390  171.0580  139.5880 C   0  0  0  0  0  0  0  0  0  0  0  0
  190.3100  169.8070  139.6420 O   0  0  0  0  0  0  0  0  0  0  0  0
  190.5920  173.1810  140.6480 N   0  0  0  0  0  0  0  0  0  0  0  0
  190.5580  171.6570  138.4120 O   0  0  0  0  0  0  0  0  0  0  0  0
  190.7170  173.7330  139.4390 N   0  0  0  0  0  0  0  0  0  0  0  0
  190.4550  171.8240  140.7580 C   0  0  0  0  0  0  0  0  0  0  0  0
  190.3320  171.2680  141.8850 O   0  0  0  0  0  0  0  0  0  0  0  0
  190.6960  172.9740  138.3130 C   0  0  0  0  0  0  0  0  0  0  0  0
  189.7070  174.1660  136.4080 C   0  0  0  0  0  1  0  0  0  0  0  0
  190.8220  173.5880  137.0680 O   0  0  0  0  0  0  0  0  0  0  0  0
  189.3180  176.7780  146.8880 C   0  0  0  0  0  2  0  0  0  0  0  0
  188.1840  177.5030  147.2550 O   0  0  0  0  0  1  0  0  0  0  0  0
  1  4  1  0  0  0  0
  2  5  1  0  0  0  0
  3 18  1  0  0  0  0
  3  1  1  0  0  0  0
  4 10  1  0  0  0  0
  4  2  2  0  0  0  0
  5 17  1  0  0  0  0
  5 11  2  0  0  0  0
  6 19  1  0  0  0  0
  7  2  1  0  0  0  0
  7 16  1  0  0  0  0
  9 11  1  0  0  0  0
  9  8  1  0  0  0  0
 10 13  1  6  0  0  0
 10 12  1  0  0  0  0
 12 17  1  0  0  0  0
 14  7  2  0  0  0  0
 15  1  2  0  0  0  0
 15 14  1  0  0  0  0
 16  9  2  0  0  0  0
 17 31  1  1  0  0  0
 18 13  1  0  0  0  0
 19  8  2  0  0  0  0
 20 16  1  0  0  0  0
 20  6  1  0  0  0  0
 21 22  2  0  0  0  0
 21 26  1  0  0  0  0
 23 26  1  0  0  0  0
 23 15  1  0  0  0  0
 24 21  1  0  0  0  0
 25 23  1  0  0  0  0
 26 27  2  0  0  0  0
 28 24  1  0  0  0  0
 28 25  2  0  0  0  0
 29 30  1  0  0  0  0
 30 28  1  0  0  0  0
 31 32  1  0  0  0  0
M  END
>  <MODEL>
9

>  <REMARK>
 VINA RESULT:      -7.0      2.793      5.845
  Name = 
  3 active torsions:
  status: ('A' for Active; 'I' for Inactive)
    1  A    between atoms: C_13  and  C_29
    2  A    between atoms: O_15  and  C_26
    3  A    between atoms: N_16  and  C_27
                            x       y       z     vdW  Elec       q    Type
                         _______ _______ _______ _____ _____    ______ ____

>  <TORSDO>
F 3

$$$$
