=
 OpenBabel11052421413D

 32 36  0  0  1  0  0  0  0  0999 V2000
  187.9170  176.7300  146.2110 C   0  0  0  0  0  0  0  0  0  0  0  0
  191.3750  175.6960  143.6740 C   0  0  1  0  0  3  0  0  0  0  0  0
  193.5810  175.2060  144.7540 C   0  0  0  0  0  0  0  0  0  0  0  0
  194.5950  174.2360  145.2100 C   0  0  0  0  0  0  0  0  0  0  0  0
  190.6580  175.0950  146.0930 C   0  0  0  0  0  2  0  0  0  0  0  0
  189.1250  175.5780  142.7640 N   0  0  0  0  0  2  0  0  0  0  0  0
  196.4760  172.3860  146.0390 N   0  0  0  0  0  0  0  0  0  0  0  0
  187.8960  176.3760  144.7370 C   0  0  0  0  0  2  0  0  0  0  0  0
  190.5320  175.3830  142.4290 C   0  0  2  0  0  3  0  0  0  0  0  0
  190.7360  174.0110  141.7720 C   0  0  2  0  0  3  0  0  0  0  0  0
  192.5460  173.4000  143.3830 C   0  0  2  0  0  3  0  0  0  0  0  0
  196.7040  173.7100  146.2580 C   0  0  0  0  0  3  0  0  0  0  0  0
  188.5740  176.0240  147.1540 C   0  0  0  0  0  3  0  0  0  0  0  0
  189.0310  175.4920  144.2150 C   0  0  2  0  0  3  0  0  0  0  0  0
  195.7660  174.6590  145.8490 C   0  0  0  0  0  3  0  0  0  0  0  0
  189.3940  174.7940  146.9050 C   0  0  0  0  0  2  0  0  0  0  0  0
  191.2360  172.9400  142.7360 C   0  0  1  0  0  3  0  0  0  0  0  0
  193.1100  172.3740  144.3710 C   0  0  0  0  0  2  0  0  0  0  0  0
  190.3710  175.8820  144.8060 C   0  0  2  0  0  3  0  0  0  0  0  0
  193.6940  176.4270  145.0490 O   0  0  0  0  0  0  0  0  0  0  0  0
  195.3440  171.9500  145.4230 C   0  0  0  0  0  3  0  0  0  0  0  0
  192.4580  174.7430  143.9820 N   0  0  0  0  0  0  0  0  0  0  0  0
  194.3850  172.8660  144.9850 C   0  0  0  0  0  0  0  0  0  0  0  0
  191.0100  173.4150  139.6580 C   0  0  0  0  0  1  0  0  0  0  0  0
  191.6150  174.1310  140.6920 O   0  0  0  0  0  0  0  0  0  0  0  0
  188.9690  171.9360  143.0310 C   0  0  0  0  0  1  0  0  0  0  0  0
  190.1530  172.5580  143.7420 C   0  0  0  0  0  2  0  0  0  0  0  0
  187.1790  177.8610  146.5790 O   0  0  0  0  0  0  0  0  0  0  0  0
  185.7900  177.8220  146.8880 C   0  0  0  0  0  2  0  0  0  0  0  0
  185.0360  178.6480  145.9040 C   0  0  0  0  0  0  0  0  0  0  0  0
  185.7700  179.4570  144.8920 C   0  0  0  0  0  1  0  0  0  0  0  0
  183.8170  178.6900  145.9480 O   0  0  0  0  0  0  0  0  0  0  0  0
  1 28  1  0  0  0  0
  1 13  2  0  0  0  0
  2 22  1  1  0  0  0
  2 19  1  0  0  0  0
  3 20  2  0  0  0  0
  3  4  1  0  0  0  0
  4 15  1  0  0  0  0
  5 16  1  0  0  0  0
  6 14  1  0  0  0  0
  7 12  1  0  0  0  0
  8  1  1  0  0  0  0
  9  6  1  1  0  0  0
  9  2  1  0  0  0  0
 10 25  1  6  0  0  0
 10  9  1  0  0  0  0
 10 17  1  0  0  0  0
 11 22  1  0  0  0  0
 11 18  1  1  0  0  0
 14  8  1  1  0  0  0
 14 19  1  0  0  0  0
 15 12  2  0  0  0  0
 16 13  1  0  0  0  0
 17 11  1  0  0  0  0
 17 27  1  1  0  0  0
 18 23  1  0  0  0  0
 19  5  1  1  0  0  0
 21  7  2  0  0  0  0
 22  3  1  0  0  0  0
 23  4  2  0  0  0  0
 23 21  1  0  0  0  0
 24 25  1  0  0  0  0
 26 27  1  0  0  0  0
 28 29  1  0  0  0  0
 30 32  2  0  0  0  0
 30 29  1  0  0  0  0
 31 30  1  0  0  0  0
M  END
>  <MODEL>
1

>  <REMARK>
 VINA RESULT:      -7.5      0.000      0.000
  Name = 
  5 active torsions:
  status: ('A' for Active; 'I' for Inactive)
    1  A    between atoms: C_1  and  C_10
    2  A    between atoms: C_2  and  O_24
    3  A    between atoms: C_10  and  O_24
    4  A    between atoms: O_13  and  C_15
    5  A    between atoms: C_25  and  C_26
                            x       y       z     vdW  Elec       q    Type
                         _______ _______ _______ _____ _____    ______ ____

>  <TORSDO>
F 5

$$$$
=
 OpenBabel11052421413D

 32 36  0  0  1  0  0  0  0  0999 V2000
  189.2640  173.2550  139.8320 C   0  0  0  0  0  0  0  0  0  0  0  0
  189.9420  176.5340  142.7050 C   0  0  1  0  0  3  0  0  0  0  0  0
  187.9730  177.6230  143.8040 C   0  0  0  0  0  0  0  0  0  0  0  0
  187.0970  177.7980  144.9780 C   0  0  0  0  0  0  0  0  0  0  0  0
  188.1090  174.7210  142.4240 C   0  0  0  0  0  2  0  0  0  0  0  0
  191.7750  175.0610  142.0910 N   0  0  0  0  0  2  0  0  0  0  0  0
  185.4890  178.1030  147.2070 N   0  0  0  0  0  0  0  0  0  0  0  0
  190.5840  173.6650  140.4560 C   0  0  0  0  0  2  0  0  0  0  0  0
  191.4320  176.2200  142.9090 C   0  0  2  0  0  3  0  0  0  0  0  0
  191.9120  176.0130  144.3520 C   0  0  2  0  0  3  0  0  0  0  0  0
  189.6500  176.5210  145.2820 C   0  0  2  0  0  3  0  0  0  0  0  0
  185.2010  178.8060  146.0770 C   0  0  0  0  0  3  0  0  0  0  0  0
  188.1200  173.0730  140.5230 C   0  0  0  0  0  3  0  0  0  0  0  0
  190.5250  174.3660  141.8150 C   0  0  2  0  0  3  0  0  0  0  0  0
  185.9990  178.6640  144.9410 C   0  0  0  0  0  3  0  0  0  0  0  0
  187.9580  173.2550  142.0010 C   0  0  0  0  0  2  0  0  0  0  0  0
  190.8170  175.5300  145.2970 C   0  0  1  0  0  3  0  0  0  0  0  0
  188.5050  176.1000  146.2090 C   0  0  0  0  0  2  0  0  0  0  0  0
  189.3930  175.3710  141.8860 C   0  0  2  0  0  3  0  0  0  0  0  0
  187.6690  178.1580  142.7020 O   0  0  0  0  0  0  0  0  0  0  0  0
  186.5490  177.2520  147.2670 C   0  0  0  0  0  3  0  0  0  0  0  0
  189.1680  176.8300  143.9250 N   0  0  0  0  0  0  0  0  0  0  0  0
  187.3820  177.0900  146.1580 C   0  0  0  0  0  0  0  0  0  0  0  0
  193.7850  176.8560  145.1780 C   0  0  0  0  0  1  0  0  0  0  0  0
  192.4750  177.1970  144.8360 O   0  0  0  0  0  0  0  0  0  0  0  0
  191.6170  173.1780  145.0390 C   0  0  0  0  0  1  0  0  0  0  0  0
  190.4110  174.0940  144.9780 C   0  0  0  0  0  2  0  0  0  0  0  0
  189.2820  173.0440  138.4480 O   0  0  0  0  0  0  0  0  0  0  0  0
  188.5600  173.8520  137.5240 C   0  0  0  0  0  2  0  0  0  0  0  0
  189.4810  174.3360  136.4580 C   0  0  0  0  0  0  0  0  0  0  0  0
  190.9560  174.2310  136.6430 C   0  0  0  0  0  1  0  0  0  0  0  0
  189.0300  174.8510  135.4480 O   0  0  0  0  0  0  0  0  0  0  0  0
  1  8  1  0  0  0  0
  1 13  2  0  0  0  0
  2  9  1  0  0  0  0
  2 22  1  1  0  0  0
  3 22  1  0  0  0  0
  3  4  1  0  0  0  0
  4 23  1  0  0  0  0
  7 21  1  0  0  0  0
  9  6  1  6  0  0  0
  9 10  1  0  0  0  0
 10 25  1  1  0  0  0
 10 17  1  0  0  0  0
 11 17  1  0  0  0  0
 11 18  1  1  0  0  0
 12  7  2  0  0  0  0
 13 16  1  0  0  0  0
 14  8  1  6  0  0  0
 14 19  1  0  0  0  0
 14  6  1  0  0  0  0
 15  4  2  0  0  0  0
 15 12  1  0  0  0  0
 16  5  1  0  0  0  0
 17 27  1  6  0  0  0
 19  5  1  1  0  0  0
 19  2  1  0  0  0  0
 20  3  2  0  0  0  0
 22 11  1  0  0  0  0
 23 18  1  0  0  0  0
 23 21  2  0  0  0  0
 25 24  1  0  0  0  0
 27 26  1  0  0  0  0
 28  1  1  0  0  0  0
 29 28  1  0  0  0  0
 30 31  1  0  0  0  0
 30 29  1  0  0  0  0
 32 30  2  0  0  0  0
M  END
>  <MODEL>
2

>  <REMARK>
 VINA RESULT:      -7.2      2.520      7.452
  Name = 
  5 active torsions:
  status: ('A' for Active; 'I' for Inactive)
    1  A    between atoms: C_1  and  C_10
    2  A    between atoms: C_2  and  O_24
    3  A    between atoms: C_10  and  O_24
    4  A    between atoms: O_13  and  C_15
    5  A    between atoms: C_25  and  C_26
                            x       y       z     vdW  Elec       q    Type
                         _______ _______ _______ _____ _____    ______ ____

>  <TORSDO>
F 5

$$$$
=
 OpenBabel11052421413D

 32 36  0  0  1  0  0  0  0  0999 V2000
  189.2970  173.2400  139.7170 C   0  0  0  0  0  0  0  0  0  0  0  0
  189.9460  176.4460  142.6760 C   0  0  1  0  0  3  0  0  0  0  0  0
  187.9670  177.4980  143.7940 C   0  0  0  0  0  0  0  0  0  0  0  0
  187.0860  177.6380  144.9680 C   0  0  0  0  0  0  0  0  0  0  0  0
  188.1240  174.6330  142.3400 C   0  0  0  0  0  2  0  0  0  0  0  0
  191.7890  174.9990  142.0330 N   0  0  0  0  0  2  0  0  0  0  0  0
  185.4660  177.8780  147.1960 N   0  0  0  0  0  0  0  0  0  0  0  0
  190.6130  173.6400  140.3580 C   0  0  0  0  0  2  0  0  0  0  0  0
  191.4370  176.1350  142.8790 C   0  0  2  0  0  3  0  0  0  0  0  0
  191.9120  175.8920  144.3180 C   0  0  2  0  0  3  0  0  0  0  0  0
  189.6430  176.3660  145.2510 C   0  0  2  0  0  3  0  0  0  0  0  0
  185.1790  178.6080  146.0840 C   0  0  0  0  0  3  0  0  0  0  0  0
  188.1520  173.0340  140.3970 C   0  0  0  0  0  3  0  0  0  0  0  0
  190.5440  174.3050  141.7340 C   0  0  2  0  0  3  0  0  0  0  0  0
  185.9840  178.4990  144.9490 C   0  0  0  0  0  3  0  0  0  0  0  0
  187.9820  173.1780  141.8800 C   0  0  0  0  0  2  0  0  0  0  0  0
  190.8150  175.3800  145.2450 C   0  0  1  0  0  3  0  0  0  0  0  0
  188.4960  175.9150  146.1610 C   0  0  0  0  0  2  0  0  0  0  0  0
  189.4070  175.3030  141.8250 C   0  0  2  0  0  3  0  0  0  0  0  0
  187.6650  178.0590  142.7050 O   0  0  0  0  0  0  0  0  0  0  0  0
  186.5290  177.0310  147.2390 C   0  0  0  0  0  3  0  0  0  0  0  0
  189.1660  176.7070  143.9000 N   0  0  0  0  0  0  0  0  0  0  0  0
  187.3680  176.9010  146.1310 C   0  0  0  0  0  0  0  0  0  0  0  0
  193.8160  176.7670  145.0330 C   0  0  0  0  0  1  0  0  0  0  0  0
  192.4670  177.0670  144.8350 O   0  0  0  0  0  0  0  0  0  0  0  0
  191.6250  173.0370  144.9450 C   0  0  0  0  0  1  0  0  0  0  0  0
  190.4180  173.9510  144.8880 C   0  0  0  0  0  2  0  0  0  0  0  0
  189.3230  173.0650  138.3280 O   0  0  0  0  0  0  0  0  0  0  0  0
  190.3580  172.3640  137.6470 C   0  0  0  0  0  2  0  0  0  0  0  0
  189.8130  171.1020  137.0730 C   0  0  0  0  0  0  0  0  0  0  0  0
  189.7550  169.8680  137.9070 C   0  0  0  0  0  1  0  0  0  0  0  0
  189.4470  171.0670  135.9100 O   0  0  0  0  0  0  0  0  0  0  0  0
  1  8  1  0  0  0  0
  1 13  2  0  0  0  0
  2  9  1  0  0  0  0
  2 22  1  1  0  0  0
  3 22  1  0  0  0  0
  3  4  1  0  0  0  0
  4 23  1  0  0  0  0
  7 21  1  0  0  0  0
  9  6  1  6  0  0  0
  9 10  1  0  0  0  0
 10 25  1  1  0  0  0
 10 17  1  0  0  0  0
 11 18  1  1  0  0  0
 12  7  2  0  0  0  0
 13 16  1  0  0  0  0
 14  8  1  6  0  0  0
 14 19  1  0  0  0  0
 14  6  1  0  0  0  0
 15  4  2  0  0  0  0
 15 12  1  0  0  0  0
 16  5  1  0  0  0  0
 17 27  1  6  0  0  0
 17 11  1  0  0  0  0
 19  5  1  1  0  0  0
 19  2  1  0  0  0  0
 20  3  2  0  0  0  0
 22 11  1  0  0  0  0
 23 18  1  0  0  0  0
 23 21  2  0  0  0  0
 25 24  1  0  0  0  0
 27 26  1  0  0  0  0
 28  1  1  0  0  0  0
 29 28  1  0  0  0  0
 30 29  1  0  0  0  0
 30 31  1  0  0  0  0
 32 30  2  0  0  0  0
M  END
>  <MODEL>
3

>  <REMARK>
 VINA RESULT:      -7.2      2.496      7.698
  Name = 
  5 active torsions:
  status: ('A' for Active; 'I' for Inactive)
    1  A    between atoms: C_1  and  C_10
    2  A    between atoms: C_2  and  O_24
    3  A    between atoms: C_10  and  O_24
    4  A    between atoms: O_13  and  C_15
    5  A    between atoms: C_25  and  C_26
                            x       y       z     vdW  Elec       q    Type
                         _______ _______ _______ _____ _____    ______ ____

>  <TORSDO>
F 5

$$$$
=
 OpenBabel11052421413D

 32 36  0  0  1  0  0  0  0  0999 V2000
  186.2870  176.9920  144.9900 C   0  0  0  0  0  0  0  0  0  0  0  0
  190.1270  174.8800  145.4960 C   0  0  1  0  0  3  0  0  0  0  0  0
  190.6010  172.8530  144.1030 C   0  0  0  0  0  0  0  0  0  0  0  0
  191.2760  172.2180  142.9550 C   0  0  0  0  0  0  0  0  0  0  0  0
  188.4840  175.2020  143.5160 C   0  0  0  0  0  2  0  0  0  0  0  0
  189.8680  177.1440  146.3410 N   0  0  0  0  0  2  0  0  0  0  0  0
  192.5690  171.0650  140.8010 N   0  0  0  0  0  0  0  0  0  0  0  0
  187.5090  177.4840  145.7420 C   0  0  0  0  0  2  0  0  0  0  0  0
  190.8150  176.0390  146.2340 C   0  0  2  0  0  3  0  0  0  0  0  0
  192.1510  176.5370  145.6660 C   0  0  2  0  0  3  0  0  0  0  0  0
  192.1550  174.7890  143.8800 C   0  0  2  0  0  3  0  0  0  0  0  0
  191.7510  170.2990  141.5720 C   0  0  0  0  0  3  0  0  0  0  0  0
  186.3190  176.4640  143.7500 C   0  0  0  0  0  3  0  0  0  0  0  0
  188.8670  176.9310  145.3040 C   0  0  2  0  0  3  0  0  0  0  0  0
  191.0870  170.8630  142.6630 C   0  0  0  0  0  3  0  0  0  0  0  0
  187.5510  176.2640  142.9210 C   0  0  0  0  0  2  0  0  0  0  0  0
  192.3100  176.2840  144.1700 C   0  0  1  0  0  3  0  0  0  0  0  0
  192.3000  174.4570  142.3920 C   0  0  0  0  0  2  0  0  0  0  0  0
  188.8030  175.4480  144.9980 C   0  0  2  0  0  3  0  0  0  0  0  0
  189.7390  172.2120  144.7660 O   0  0  0  0  0  0  0  0  0  0  0  0
  192.7660  172.3860  141.0620 C   0  0  0  0  0  3  0  0  0  0  0  0
  190.9260  174.2120  144.4510 N   0  0  0  0  0  0  0  0  0  0  0  0
  192.1330  172.9870  142.1510 C   0  0  0  0  0  0  0  0  0  0  0  0
  194.2260  176.9080  146.3430 C   0  0  0  0  0  1  0  0  0  0  0  0
  193.2090  175.9510  146.3660 O   0  0  0  0  0  0  0  0  0  0  0  0
  191.6160  178.6320  143.6760 C   0  0  0  0  0  1  0  0  0  0  0  0
  191.3680  177.1710  143.3610 C   0  0  0  0  0  2  0  0  0  0  0  0
  185.0630  177.1300  145.6560 O   0  0  0  0  0  0  0  0  0  0  0  0
  184.4230  178.3850  145.8640 C   0  0  0  0  0  2  0  0  0  0  0  0
  184.3650  179.1340  144.5780 C   0  0  0  0  0  0  0  0  0  0  0  0
  185.3850  180.1790  144.2770 C   0  0  0  0  0  1  0  0  0  0  0  0
  183.4630  178.9200  143.7850 O   0  0  0  0  0  0  0  0  0  0  0  0
  1 28  1  0  0  0  0
  1  8  1  0  0  0  0
  2 22  1  6  0  0  0
  2  9  1  0  0  0  0
  3 22  1  0  0  0  0
  3 20  2  0  0  0  0
  4  3  1  0  0  0  0
  7 21  2  0  0  0  0
  7 12  1  0  0  0  0
  9  6  1  6  0  0  0
 10  9  1  0  0  0  0
 10 25  1  1  0  0  0
 11 18  1  6  0  0  0
 11 17  1  0  0  0  0
 11 22  1  0  0  0  0
 12 15  2  0  0  0  0
 13  1  2  0  0  0  0
 14  8  1  1  0  0  0
 14  6  1  0  0  0  0
 15  4  1  0  0  0  0
 16  5  1  0  0  0  0
 16 13  1  0  0  0  0
 17 27  1  6  0  0  0
 17 10  1  0  0  0  0
 19  5  1  6  0  0  0
 19 14  1  0  0  0  0
 19  2  1  0  0  0  0
 21 23  1  0  0  0  0
 23 18  1  0  0  0  0
 23  4  2  0  0  0  0
 24 25  1  0  0  0  0
 27 26  1  0  0  0  0
 28 29  1  0  0  0  0
 30 29  1  0  0  0  0
 31 30  1  0  0  0  0
 32 30  2  0  0  0  0
M  END
>  <MODEL>
4

>  <REMARK>
 VINA RESULT:      -7.0      2.459      4.348
  Name = 
  5 active torsions:
  status: ('A' for Active; 'I' for Inactive)
    1  A    between atoms: C_1  and  C_10
    2  A    between atoms: C_2  and  O_24
    3  A    between atoms: C_10  and  O_24
    4  A    between atoms: O_13  and  C_15
    5  A    between atoms: C_25  and  C_26
                            x       y       z     vdW  Elec       q    Type
                         _______ _______ _______ _____ _____    ______ ____

>  <TORSDO>
F 5

$$$$
=
 OpenBabel11052421413D

 32 36  0  0  1  0  0  0  0  0999 V2000
  187.6990  177.5410  145.5530 C   0  0  0  0  0  0  0  0  0  0  0  0
  189.7010  173.8670  144.1550 C   0  0  1  0  0  3  0  0  0  0  0  0
  189.3270  173.0890  141.8040 C   0  0  0  0  0  0  0  0  0  0  0  0
  189.7910  172.9610  140.4090 C   0  0  0  0  0  0  0  0  0  0  0  0
  188.8970  176.0440  142.9990 C   0  0  0  0  0  2  0  0  0  0  0  0
  190.4860  174.9860  146.1640 N   0  0  0  0  0  2  0  0  0  0  0  0
  190.7030  172.7290  137.8100 N   0  0  0  0  0  0  0  0  0  0  0  0
  188.8200  176.7900  146.2470 C   0  0  0  0  0  2  0  0  0  0  0  0
  190.7240  173.8340  145.3010 C   0  0  2  0  0  3  0  0  0  0  0  0
  192.2080  173.7580  144.9130 C   0  0  2  0  0  3  0  0  0  0  0  0
  191.6650  173.6260  142.4780 C   0  0  2  0  0  3  0  0  0  0  0  0
  189.4720  172.2460  138.1270 C   0  0  0  0  0  3  0  0  0  0  0  0
  187.7020  177.8740  144.2470 C   0  0  0  0  0  3  0  0  0  0  0  0
  189.7510  175.9560  145.3640 C   0  0  2  0  0  3  0  0  0  0  0  0
  188.9920  172.3550  139.4330 C   0  0  0  0  0  3  0  0  0  0  0  0
  188.7900  177.5500  143.2680 C   0  0  0  0  0  2  0  0  0  0  0  0
  192.5100  174.3410  143.5370 C   0  0  1  0  0  3  0  0  0  0  0  0
  191.9130  174.1620  141.0640 C   0  0  0  0  0  2  0  0  0  0  0  0
  188.9930  175.2100  144.2850 C   0  0  2  0  0  3  0  0  0  0  0  0
  188.1460  172.7690  142.1110 O   0  0  0  0  0  0  0  0  0  0  0  0
  191.4980  173.3250  138.7400 C   0  0  0  0  0  3  0  0  0  0  0  0
  190.2300  173.5940  142.8050 N   0  0  0  0  0  0  0  0  0  0  0  0
  191.0630  173.4430  140.0610 C   0  0  0  0  0  0  0  0  0  0  0  0
  193.9770  172.5150  145.3880 C   0  0  0  0  0  1  0  0  0  0  0  0
  192.6440  172.4320  144.9790 O   0  0  0  0  0  0  0  0  0  0  0  0
  193.3410  176.4970  144.4830 C   0  0  0  0  0  1  0  0  0  0  0  0
  192.3470  175.8580  143.5350 C   0  0  0  0  0  2  0  0  0  0  0  0
  186.6190  177.9110  146.3630 O   0  0  0  0  0  0  0  0  0  0  0  0
  185.8690  179.1060  146.1700 C   0  0  0  0  0  2  0  0  0  0  0  0
  184.4900  178.7640  145.7220 C   0  0  0  0  0  0  0  0  0  0  0  0
  184.0720  179.0410  144.3190 C   0  0  0  0  0  1  0  0  0  0  0  0
  183.6910  178.2900  146.5130 O   0  0  0  0  0  0  0  0  0  0  0  0
  1  8  1  0  0  0  0
  1 28  1  0  0  0  0
  2 22  1  6  0  0  0
  2 19  1  0  0  0  0
  2  9  1  0  0  0  0
  3 20  2  0  0  0  0
  3 22  1  0  0  0  0
  4  3  1  0  0  0  0
  5 16  1  0  0  0  0
  7 12  2  0  0  0  0
  7 21  1  0  0  0  0
  9  6  1  6  0  0  0
 10 25  1  6  0  0  0
 10  9  1  0  0  0  0
 11 18  1  6  0  0  0
 11 22  1  0  0  0  0
 11 17  1  0  0  0  0
 12 15  1  0  0  0  0
 13  1  2  0  0  0  0
 14  6  1  0  0  0  0
 14  8  1  1  0  0  0
 15  4  2  0  0  0  0
 16 13  1  0  0  0  0
 17 27  1  1  0  0  0
 17 10  1  0  0  0  0
 19  5  1  6  0  0  0
 19 14  1  0  0  0  0
 21 23  2  0  0  0  0
 23  4  1  0  0  0  0
 23 18  1  0  0  0  0
 25 24  1  0  0  0  0
 27 26  1  0  0  0  0
 29 28  1  0  0  0  0
 30 29  1  0  0  0  0
 30 32  2  0  0  0  0
 31 30  1  0  0  0  0
M  END
>  <MODEL>
5

>  <REMARK>
 VINA RESULT:      -6.7      2.126      5.002
  Name = 
  5 active torsions:
  status: ('A' for Active; 'I' for Inactive)
    1  A    between atoms: C_1  and  C_10
    2  A    between atoms: C_2  and  O_24
    3  A    between atoms: C_10  and  O_24
    4  A    between atoms: O_13  and  C_15
    5  A    between atoms: C_25  and  C_26
                            x       y       z     vdW  Elec       q    Type
                         _______ _______ _______ _____ _____    ______ ____

>  <TORSDO>
F 5

$$$$
=
 OpenBabel11052421413D

 32 36  0  0  1  0  0  0  0  0999 V2000
  188.8270  176.8340  146.2220 C   0  0  0  0  0  0  0  0  0  0  0  0
  191.9760  174.2220  144.5720 C   0  0  1  0  0  3  0  0  0  0  0  0
  192.1630  173.9500  142.0890 C   0  0  0  0  0  0  0  0  0  0  0  0
  192.8270  174.2750  140.8130 C   0  0  0  0  0  0  0  0  0  0  0  0
  190.7400  176.3340  143.7140 C   0  0  0  0  0  2  0  0  0  0  0  0
  192.1260  174.9970  146.8700 N   0  0  0  0  0  2  0  0  0  0  0  0
  194.1100  174.9000  138.4440 N   0  0  0  0  0  0  0  0  0  0  0  0
  190.0130  176.2490  146.9660 C   0  0  0  0  0  2  0  0  0  0  0  0
  192.8000  174.1800  145.8670 C   0  0  2  0  0  3  0  0  0  0  0  0
  194.2800  174.5750  145.7680 C   0  0  2  0  0  3  0  0  0  0  0  0
  194.1330  174.8870  143.2940 C   0  0  2  0  0  3  0  0  0  0  0  0
  193.0390  174.0610  138.4190 C   0  0  0  0  0  3  0  0  0  0  0  0
  188.9100  177.4540  145.0280 C   0  0  0  0  0  3  0  0  0  0  0  0
  191.2560  175.9100  146.1400 C   0  0  2  0  0  3  0  0  0  0  0  0
  192.3770  173.7340  139.6030 C   0  0  0  0  0  3  0  0  0  0  0  0
  190.1670  177.6560  144.2370 C   0  0  0  0  0  2  0  0  0  0  0  0
  194.5840  175.5210  144.6130 C   0  0  1  0  0  3  0  0  0  0  0  0
  194.4040  175.7850  142.0820 C   0  0  0  0  0  2  0  0  0  0  0  0
  190.8990  175.2720  144.8130 C   0  0  2  0  0  3  0  0  0  0  0  0
  191.0950  173.2790  142.0940 O   0  0  0  0  0  0  0  0  0  0  0  0
  194.5650  175.4410  139.6070 C   0  0  0  0  0  3  0  0  0  0  0  0
  192.7380  174.4160  143.3240 N   0  0  0  0  0  0  0  0  0  0  0  0
  193.9410  175.1310  140.8160 C   0  0  0  0  0  0  0  0  0  0  0  0
  196.3620  173.8500  145.9780 C   0  0  0  0  0  1  0  0  0  0  0  0
  195.0690  173.4250  145.6660 O   0  0  0  0  0  0  0  0  0  0  0  0
  194.5680  177.5030  146.1330 C   0  0  0  0  0  1  0  0  0  0  0  0
  193.9910  176.9050  144.8660 C   0  0  0  0  0  2  0  0  0  0  0  0
  187.5870  176.7170  146.8610 O   0  0  0  0  0  0  0  0  0  0  0  0
  186.7990  177.8370  147.2500 C   0  0  0  0  0  2  0  0  0  0  0  0
  185.5030  177.8150  146.5160 C   0  0  0  0  0  0  0  0  0  0  0  0
  185.0220  179.0380  145.8140 C   0  0  0  0  0  1  0  0  0  0  0  0
  184.8170  176.8060  146.5180 O   0  0  0  0  0  0  0  0  0  0  0  0
  1 28  1  0  0  0  0
  1  8  1  0  0  0  0
  2 22  1  6  0  0  0
  2 19  1  0  0  0  0
  2  9  1  0  0  0  0
  3 20  2  0  0  0  0
  3 22  1  0  0  0  0
  4 23  1  0  0  0  0
  4  3  1  0  0  0  0
  5 16  1  0  0  0  0
  7 21  1  0  0  0  0
  9  6  1  1  0  0  0
 10 25  1  6  0  0  0
 10  9  1  0  0  0  0
 11 18  1  6  0  0  0
 11 22  1  0  0  0  0
 11 17  1  0  0  0  0
 12  7  2  0  0  0  0
 12 15  1  0  0  0  0
 13  1  2  0  0  0  0
 14  6  1  0  0  0  0
 14  8  1  1  0  0  0
 15  4  2  0  0  0  0
 16 13  1  0  0  0  0
 17 27  1  1  0  0  0
 17 10  1  0  0  0  0
 19  5  1  6  0  0  0
 19 14  1  0  0  0  0
 21 23  2  0  0  0  0
 23 18  1  0  0  0  0
 25 24  1  0  0  0  0
 27 26  1  0  0  0  0
 28 29  1  0  0  0  0
 30 32  2  0  0  0  0
 30 29  1  0  0  0  0
 31 30  1  0  0  0  0
M  END
>  <MODEL>
6

>  <REMARK>
 VINA RESULT:      -6.7      2.157      4.739
  Name = 
  5 active torsions:
  status: ('A' for Active; 'I' for Inactive)
    1  A    between atoms: C_1  and  C_10
    2  A    between atoms: C_2  and  O_24
    3  A    between atoms: C_10  and  O_24
    4  A    between atoms: O_13  and  C_15
    5  A    between atoms: C_25  and  C_26
                            x       y       z     vdW  Elec       q    Type
                         _______ _______ _______ _____ _____    ______ ____

>  <TORSDO>
F 5

$$$$
=
 OpenBabel11052421413D

 32 36  0  0  1  0  0  0  0  0999 V2000
  186.7630  178.1190  143.6850 C   0  0  0  0  0  0  0  0  0  0  0  0
  189.0310  174.3470  143.3840 C   0  0  1  0  0  3  0  0  0  0  0  0
  189.0870  173.1250  141.1980 C   0  0  0  0  0  0  0  0  0  0  0  0
  189.7900  172.7590  139.9550 C   0  0  0  0  0  0  0  0  0  0  0  0
  188.4130  176.2280  141.7100 C   0  0  0  0  0  2  0  0  0  0  0  0
  189.4350  175.8590  145.2430 N   0  0  0  0  0  2  0  0  0  0  0  0
  191.1490  172.0870  137.6420 N   0  0  0  0  0  0  0  0  0  0  0  0
  187.7550  177.5650  144.6910 C   0  0  0  0  0  2  0  0  0  0  0  0
  189.8370  174.5780  144.6710 C   0  0  2  0  0  3  0  0  0  0  0  0
  191.3660  174.5010  144.5630 C   0  0  2  0  0  3  0  0  0  0  0  0
  191.2630  173.8890  142.1430 C   0  0  2  0  0  3  0  0  0  0  0  0
  189.8870  171.6140  137.8330 C   0  0  0  0  0  3  0  0  0  0  0  0
  186.9910  178.2000  142.3590 C   0  0  0  0  0  3  0  0  0  0  0  0
  188.8390  176.6260  144.1570 C   0  0  2  0  0  3  0  0  0  0  0  0
  189.1840  171.9440  138.9920 C   0  0  0  0  0  3  0  0  0  0  0  0
  188.2390  177.7500  141.6610 C   0  0  0  0  0  2  0  0  0  0  0  0
  191.8980  174.8280  143.1720 C   0  0  1  0  0  3  0  0  0  0  0  0
  191.7480  174.1610  140.7160 C   0  0  0  0  0  2  0  0  0  0  0  0
  188.2920  175.6550  143.1300 C   0  0  2  0  0  3  0  0  0  0  0  0
  187.8750  172.8120  141.3560 O   0  0  0  0  0  0  0  0  0  0  0  0
  191.7590  172.8840  138.5610 C   0  0  0  0  0  3  0  0  0  0  0  0
  189.7930  173.8500  142.2220 N   0  0  0  0  0  0  0  0  0  0  0  0
  191.0970  173.2270  139.7410 C   0  0  0  0  0  0  0  0  0  0  0  0
  193.1170  173.4260  145.3890 C   0  0  0  0  0  1  0  0  0  0  0  0
  191.8030  173.2330  144.9570 O   0  0  0  0  0  0  0  0  0  0  0  0
  192.4160  177.1650  143.8870 C   0  0  0  0  0  1  0  0  0  0  0  0
  191.7160  176.3090  142.8500 C   0  0  0  0  0  2  0  0  0  0  0  0
  185.5520  178.5820  144.2130 O   0  0  0  0  0  0  0  0  0  0  0  0
  185.4690  179.4190  145.3620 C   0  0  0  0  0  2  0  0  0  0  0  0
  185.0790  178.6040  146.5460 C   0  0  0  0  0  0  0  0  0  0  0  0
  185.9480  178.5830  147.7550 C   0  0  0  0  0  1  0  0  0  0  0  0
  184.0650  177.9250  146.5140 O   0  0  0  0  0  0  0  0  0  0  0  0
  1 28  1  0  0  0  0
  1  8  1  0  0  0  0
  2 22  1  6  0  0  0
  2  9  1  0  0  0  0
  3 20  2  0  0  0  0
  3 22  1  0  0  0  0
  4  3  1  0  0  0  0
  7 12  2  0  0  0  0
  7 21  1  0  0  0  0
  9  6  1  6  0  0  0
 10  9  1  0  0  0  0
 10 25  1  6  0  0  0
 11 18  1  6  0  0  0
 11 22  1  0  0  0  0
 11 17  1  0  0  0  0
 12 15  1  0  0  0  0
 13  1  2  0  0  0  0
 14  8  1  1  0  0  0
 14  6  1  0  0  0  0
 15  4  2  0  0  0  0
 16  5  1  0  0  0  0
 16 13  1  0  0  0  0
 17 27  1  6  0  0  0
 17 10  1  0  0  0  0
 19  5  1  6  0  0  0
 19  2  1  0  0  0  0
 19 14  1  0  0  0  0
 21 23  2  0  0  0  0
 23  4  1  0  0  0  0
 23 18  1  0  0  0  0
 25 24  1  0  0  0  0
 27 26  1  0  0  0  0
 28 29  1  0  0  0  0
 29 30  1  0  0  0  0
 30 31  1  0  0  0  0
 32 30  2  0  0  0  0
M  END
>  <MODEL>
7

>  <REMARK>
 VINA RESULT:      -6.7      2.503      5.257
  Name = 
  5 active torsions:
  status: ('A' for Active; 'I' for Inactive)
    1  A    between atoms: C_1  and  C_10
    2  A    between atoms: C_2  and  O_24
    3  A    between atoms: C_10  and  O_24
    4  A    between atoms: O_13  and  C_15
    5  A    between atoms: C_25  and  C_26
                            x       y       z     vdW  Elec       q    Type
                         _______ _______ _______ _____ _____    ______ ____

>  <TORSDO>
F 5

$$$$
=
 OpenBabel11052421413D

 32 36  0  0  1  0  0  0  0  0999 V2000
  186.8060  177.5520  146.0070 C   0  0  0  0  0  0  0  0  0  0  0  0
  189.8450  176.4230  143.0150 C   0  0  1  0  0  3  0  0  0  0  0  0
  192.2710  176.5880  143.6140 C   0  0  0  0  0  0  0  0  0  0  0  0
  193.5350  175.9460  144.0200 C   0  0  0  0  0  0  0  0  0  0  0  0
  189.7530  176.3900  145.6060 C   0  0  0  0  0  2  0  0  0  0  0  0
  187.5370  175.7180  142.7250 N   0  0  0  0  0  2  0  0  0  0  0  0
  195.8880  174.7010  144.7690 N   0  0  0  0  0  0  0  0  0  0  0  0
  186.5740  176.8160  144.7010 C   0  0  0  0  0  2  0  0  0  0  0  0
  188.8610  175.6610  142.1150 C   0  0  2  0  0  3  0  0  0  0  0  0
  189.2190  174.2110  141.7580 C   0  0  2  0  0  3  0  0  0  0  0  0
  191.3940  174.3430  142.9790 C   0  0  2  0  0  3  0  0  0  0  0  0
  195.8690  176.0530  144.6200 C   0  0  0  0  0  3  0  0  0  0  0  0
  187.7660  177.2350  146.8990 C   0  0  0  0  0  3  0  0  0  0  0  0
  187.7460  176.0110  144.1370 C   0  0  2  0  0  3  0  0  0  0  0  0
  194.6910  176.7010  144.2450 C   0  0  0  0  0  3  0  0  0  0  0  0
  188.7630  176.1260  146.7460 C   0  0  0  0  0  2  0  0  0  0  0  0
  190.1100  173.5300  142.7900 C   0  0  1  0  0  3  0  0  0  0  0  0
  192.3430  173.7200  144.0090 C   0  0  0  0  0  2  0  0  0  0  0  0
  189.0620  176.7490  144.2820 C   0  0  2  0  0  3  0  0  0  0  0  0
  192.1790  177.8460  143.5870 O   0  0  0  0  0  0  0  0  0  0  0  0
  194.7750  173.9450  144.5600 C   0  0  0  0  0  3  0  0  0  0  0  0
  191.1420  175.7670  143.2610 N   0  0  0  0  0  0  0  0  0  0  0  0
  193.5800  174.5500  144.1700 C   0  0  0  0  0  0  0  0  0  0  0  0
  188.7680  174.0530  139.5960 C   0  0  0  0  0  1  0  0  0  0  0  0
  189.8260  174.1720  140.4990 O   0  0  0  0  0  0  0  0  0  0  0  0
  189.6870  171.8960  144.6300 C   0  0  0  0  0  1  0  0  0  0  0  0
  189.3490  173.2690  144.0860 C   0  0  0  0  0  2  0  0  0  0  0  0
  185.9310  178.6120  146.2750 O   0  0  0  0  0  0  0  0  0  0  0  0
  184.5830  178.6480  145.8190 C   0  0  0  0  0  2  0  0  0  0  0  0
  184.5270  179.2950  144.4780 C   0  0  0  0  0  0  0  0  0  0  0  0
  183.6950  178.6970  143.3960 C   0  0  0  0  0  1  0  0  0  0  0  0
  185.1900  180.2940  144.2530 O   0  0  0  0  0  0  0  0  0  0  0  0
  1 28  1  0  0  0  0
  1 13  2  0  0  0  0
  2 22  1  1  0  0  0
  2 19  1  0  0  0  0
  3  4  1  0  0  0  0
  4 23  2  0  0  0  0
  4 15  1  0  0  0  0
  5 16  1  0  0  0  0
  6 14  1  0  0  0  0
  8  1  1  0  0  0  0
  9  6  1  1  0  0  0
  9  2  1  0  0  0  0
 10 25  1  6  0  0  0
 10  9  1  0  0  0  0
 10 17  1  0  0  0  0
 11 22  1  0  0  0  0
 11 18  1  1  0  0  0
 12  7  1  0  0  0  0
 14 19  1  0  0  0  0
 14  8  1  6  0  0  0
 15 12  2  0  0  0  0
 16 13  1  0  0  0  0
 17 11  1  0  0  0  0
 17 27  1  1  0  0  0
 18 23  1  0  0  0  0
 19  5  1  1  0  0  0
 20  3  2  0  0  0  0
 21  7  2  0  0  0  0
 22  3  1  0  0  0  0
 23 21  1  0  0  0  0
 24 25  1  0  0  0  0
 27 26  1  0  0  0  0
 29 28  1  0  0  0  0
 30 29  1  0  0  0  0
 31 30  1  0  0  0  0
 32 30  2  0  0  0  0
M  END
>  <MODEL>
8

>  <REMARK>
 VINA RESULT:      -6.6      1.585      1.956
  Name = 
  5 active torsions:
  status: ('A' for Active; 'I' for Inactive)
    1  A    between atoms: C_1  and  C_10
    2  A    between atoms: C_2  and  O_24
    3  A    between atoms: C_10  and  O_24
    4  A    between atoms: O_13  and  C_15
    5  A    between atoms: C_25  and  C_26
                            x       y       z     vdW  Elec       q    Type
                         _______ _______ _______ _____ _____    ______ ____

>  <TORSDO>
F 5

$$$$
=
 OpenBabel11052421413D

 32 36  0  0  1  0  0  0  0  0999 V2000
  188.3640  177.4550  143.1200 C   0  0  0  0  0  0  0  0  0  0  0  0
  191.4620  174.5410  141.9510 C   0  0  1  0  0  3  0  0  0  0  0  0
  193.8360  174.9320  142.6480 C   0  0  0  0  0  0  0  0  0  0  0  0
  194.9730  174.6350  143.5380 C   0  0  0  0  0  0  0  0  0  0  0  0
  191.1650  176.1640  143.9500 C   0  0  0  0  0  2  0  0  0  0  0  0
  189.1140  173.9230  141.8450 N   0  0  0  0  0  2  0  0  0  0  0  0
  197.0850  174.0370  145.2210 N   0  0  0  0  0  0  0  0  0  0  0  0
  188.1450  176.0700  142.5440 C   0  0  0  0  0  2  0  0  0  0  0  0
  190.4640  173.4280  141.5970 C   0  0  2  0  0  3  0  0  0  0  0  0
  190.6640  172.0660  142.2770 C   0  0  2  0  0  3  0  0  0  0  0  0
  192.7360  172.8400  143.4380 C   0  0  2  0  0  3  0  0  0  0  0  0
  197.2480  174.9870  144.2600 C   0  0  0  0  0  3  0  0  0  0  0  0
  189.2050  177.7310  144.1380 C   0  0  0  0  0  3  0  0  0  0  0  0
  189.2470  175.0350  142.7760 C   0  0  2  0  0  3  0  0  0  0  0  0
  196.1940  175.3040  143.4020 C   0  0  0  0  0  3  0  0  0  0  0  0
  190.0630  176.7310  144.8530 C   0  0  0  0  0  2  0  0  0  0  0  0
  191.3790  172.1530  143.6200 C   0  0  1  0  0  3  0  0  0  0  0  0
  193.5150  172.9680  144.7520 C   0  0  0  0  0  2  0  0  0  0  0  0
  190.6300  175.6330  142.6120 C   0  0  2  0  0  3  0  0  0  0  0  0
  193.9050  175.8900  141.8300 O   0  0  0  0  0  0  0  0  0  0  0  0
  195.9060  173.3740  145.3760 C   0  0  0  0  0  3  0  0  0  0  0  0
  192.6440  174.1280  142.7310 N   0  0  0  0  0  0  0  0  0  0  0  0
  194.8300  173.6510  144.5310 C   0  0  0  0  0  0  0  0  0  0  0  0
  190.8160  169.9440  141.6620 C   0  0  0  0  0  1  0  0  0  0  0  0
  191.3580  171.2080  141.4190 O   0  0  0  0  0  0  0  0  0  0  0  0
  189.3160  171.9150  145.0070 C   0  0  0  0  0  1  0  0  0  0  0  0
  190.4910  172.8110  144.6730 C   0  0  0  0  0  2  0  0  0  0  0  0
  187.6120  178.4840  142.5420 O   0  0  0  0  0  0  0  0  0  0  0  0
  186.3090  178.2910  142.0000 C   0  0  0  0  0  2  0  0  0  0  0  0
  185.2850  178.6670  143.0140 C   0  0  0  0  0  0  0  0  0  0  0  0
  185.5530  179.7800  143.9680 C   0  0  0  0  0  1  0  0  0  0  0  0
  184.2410  178.0410  143.0880 O   0  0  0  0  0  0  0  0  0  0  0  0
  1 13  2  0  0  0  0
  2 19  1  0  0  0  0
  2 22  1  1  0  0  0
  3 22  1  0  0  0  0
  3  4  1  0  0  0  0
  4 23  1  0  0  0  0
  5 16  1  0  0  0  0
  6 14  1  0  0  0  0
  7 21  1  0  0  0  0
  8  1  1  0  0  0  0
  9  6  1  1  0  0  0
  9  2  1  0  0  0  0
  9 10  1  0  0  0  0
 10 25  1  6  0  0  0
 10 17  1  0  0  0  0
 11 17  1  0  0  0  0
 11 18  1  1  0  0  0
 12  7  2  0  0  0  0
 13 16  1  0  0  0  0
 14  8  1  6  0  0  0
 15  4  2  0  0  0  0
 15 12  1  0  0  0  0
 17 27  1  1  0  0  0
 19 14  1  0  0  0  0
 19  5  1  1  0  0  0
 20  3  2  0  0  0  0
 22 11  1  0  0  0  0
 23 18  1  0  0  0  0
 23 21  2  0  0  0  0
 25 24  1  0  0  0  0
 27 26  1  0  0  0  0
 28  1  1  0  0  0  0
 29 28  1  0  0  0  0
 29 30  1  0  0  0  0
 30 32  2  0  0  0  0
 30 31  1  0  0  0  0
M  END
>  <MODEL>
9

>  <REMARK>
 VINA RESULT:      -6.5      2.023      2.487
  Name = 
  5 active torsions:
  status: ('A' for Active; 'I' for Inactive)
    1  A    between atoms: C_1  and  C_10
    2  A    between atoms: C_2  and  O_24
    3  A    between atoms: C_10  and  O_24
    4  A    between atoms: O_13  and  C_15
    5  A    between atoms: C_25  and  C_26
                            x       y       z     vdW  Elec       q    Type
                         _______ _______ _______ _____ _____    ______ ____

>  <TORSDO>
F 5

$$$$
