=
 OpenBabel11052417153D

 30 33  0  0  1  0  0  0  0  0999 V2000
  187.0050  177.5190  142.7680 N   0  0  0  0  0  0  0  0  0  0  0  0
  185.4610  177.8160  140.9560 C   0  0  0  0  0  0  0  0  0  0  0  0
  184.0950  178.5000  145.6020 C   0  0  0  0  0  3  0  0  0  0  0  0
  187.3480  177.5200  144.0830 C   0  0  0  0  0  0  0  0  0  0  0  0
  184.4200  178.5130  146.9600 C   0  0  0  0  0  3  0  0  0  0  0  0
  184.1740  178.1340  140.5160 C   0  0  0  0  0  3  0  0  0  0  0  0
  186.5030  177.4740  139.9450 C   0  0  0  0  0  1  0  0  0  0  0  0
  185.0610  178.1710  144.6360 C   0  0  0  0  0  0  0  0  0  0  0  0
  183.1750  178.4630  141.4340 C   0  0  0  0  0  3  0  0  0  0  0  0
  185.7550  177.8260  142.3320 C   0  0  0  0  0  0  0  0  0  0  0  0
  186.3770  177.8490  145.0540 C   0  0  0  0  0  0  0  0  0  0  0  0
  185.7160  178.1990  147.3700 C   0  0  0  0  0  3  0  0  0  0  0  0
  186.6870  177.8690  146.4240 C   0  0  0  0  0  3  0  0  0  0  0  0
  183.4590  178.4760  142.8010 C   0  0  0  0  0  3  0  0  0  0  0  0
  184.7460  178.1600  143.2650 C   0  0  0  0  0  0  0  0  0  0  0  0
  188.7790  177.1870  144.4250 C   0  0  1  0  0  3  0  0  0  0  0  0
  189.5760  174.9980  143.8050 O   0  0  0  0  0  1  0  0  0  0  0  0
  188.9700  175.7150  144.8390 C   0  0  1  0  0  3  0  0  0  0  0  0
  189.9820  176.7820  146.8210 N   0  0  0  0  0  2  0  0  0  0  0  0
  191.4050  174.7510  145.8240 S   0  0  0  0  0  0  0  0  0  0  0  0
  189.7890  175.5220  146.1220 C   0  0  2  0  0  3  0  0  0  0  0  0
  191.0730  176.6050  147.6850 N   0  0  0  0  0  2  0  0  0  0  0  0
  192.1370  176.0060  146.8990 C   0  0  0  0  0  2  0  0  0  0  0  0
  189.7270  177.5830  143.2960 C   0  0  0  0  0  2  0  0  0  0  0  0
  190.8800  178.4140  143.8370 C   0  0  0  0  0  2  0  0  0  0  0  0
  192.2840  176.8050  142.8190 N   0  0  0  0  0  0  0  0  0  0  0  0
  192.1200  177.6630  143.7420 N   0  0  0  0  0  0  0  0  0  0  0  0
  194.4190  176.0130  143.7960 N   0  0  0  0  0  1  0  0  0  0  0  0
  193.4950  176.0580  142.7120 C   0  0  0  0  0  0  0  0  0  0  0  0
  193.7490  175.4330  141.6510 O   0  0  0  0  0  0  0  0  0  0  0  0
  1  4  1  0  0  0  0
  2 10  1  0  0  0  0
  3  5  2  0  0  0  0
  4 16  1  0  0  0  0
  4 11  2  0  0  0  0
  5 12  1  0  0  0  0
  6  2  2  0  0  0  0
  6  9  1  0  0  0  0
  7  2  1  0  0  0  0
  8 11  1  0  0  0  0
  8  3  1  0  0  0  0
  9 14  2  0  0  0  0
 10  1  2  0  0  0  0
 10 15  1  0  0  0  0
 11 13  1  0  0  0  0
 13 12  2  0  0  0  0
 14 15  1  0  0  0  0
 15  8  2  0  0  0  0
 16 24  1  6  0  0  0
 16 18  1  0  0  0  0
 18 17  1  6  0  0  0
 19 22  1  0  0  0  0
 20 21  1  0  0  0  0
 20 23  1  0  0  0  0
 21 18  1  6  0  0  0
 21 19  1  0  0  0  0
 23 22  1  0  0  0  0
 24 25  1  0  0  0  0
 26 27  2  0  0  0  0
 27 25  1  0  0  0  0
 29 26  1  0  0  0  0
 29 28  1  0  0  0  0
 30 29  2  0  0  0  0
M  END
>  <MODEL>
1

>  <REMARK>
 VINA RESULT:      -7.6      0.000      0.000
  Name = 
  7 active torsions:
  status: ('A' for Active; 'I' for Inactive)
    1  A    between atoms: C_4  and  C_13
    2  A    between atoms: N_7  and  C_15
    3  A    between atoms: C_8  and  C_12
    4  A    between atoms: C_8  and  C_13
    5  A    between atoms: C_13  and  C_27
    6  A    between atoms: N_16  and  C_30
    7  A    between atoms: C_27  and  C_30
                            x       y       z     vdW  Elec       q    Type
                         _______ _______ _______ _____ _____    ______ ____

>  <TORSDO>
F 7

$$$$
=
 OpenBabel11052417153D

 30 33  0  0  1  0  0  0  0  0999 V2000
  187.1480  177.6200  144.0440 N   0  0  0  0  0  0  0  0  0  0  0  0
  185.4490  178.8280  145.2320 C   0  0  0  0  0  0  0  0  0  0  0  0
  188.1960  175.4490  147.4580 C   0  0  0  0  0  3  0  0  0  0  0  0
  188.1490  176.7060  143.9550 C   0  0  0  0  0  0  0  0  0  0  0  0
  189.2240  174.5070  147.3970 C   0  0  0  0  0  3  0  0  0  0  0  0
  184.7590  179.0710  146.4220 C   0  0  0  0  0  3  0  0  0  0  0  0
  185.0810  179.6070  144.0150 C   0  0  0  0  0  1  0  0  0  0  0  0
  187.8300  176.1870  146.3190 C   0  0  0  0  0  0  0  0  0  0  0  0
  185.0800  178.3630  147.5810 C   0  0  0  0  0  3  0  0  0  0  0  0
  186.4720  177.8620  145.1980 C   0  0  0  0  0  0  0  0  0  0  0  0
  188.5160  175.9630  145.0990 C   0  0  0  0  0  0  0  0  0  0  0  0
  189.9000  174.2890  146.1960 C   0  0  0  0  0  3  0  0  0  0  0  0
  189.5490  175.0120  145.0560 C   0  0  0  0  0  3  0  0  0  0  0  0
  186.0940  177.4040  147.5560 C   0  0  0  0  0  3  0  0  0  0  0  0
  186.8000  177.1430  146.3710 C   0  0  0  0  0  0  0  0  0  0  0  0
  188.8340  176.5570  142.6190 C   0  0  1  0  0  3  0  0  0  0  0  0
  187.4000  176.9110  140.7140 O   0  0  0  0  0  1  0  0  0  0  0  0
  187.9270  175.9220  141.5470 C   0  0  1  0  0  3  0  0  0  0  0  0
  188.0640  174.8300  139.3380 N   0  0  0  0  0  2  0  0  0  0  0  0
  188.5470  173.1970  141.3980 S   0  0  0  0  0  0  0  0  0  0  0  0
  188.6210  174.8630  140.6800 C   0  0  2  0  0  3  0  0  0  0  0  0
  188.4130  173.5890  138.7830 N   0  0  0  0  0  2  0  0  0  0  0  0
  188.0710  172.5790  139.7680 C   0  0  0  0  0  2  0  0  0  0  0  0
  189.4240  177.8840  142.1460 C   0  0  0  0  0  2  0  0  0  0  0  0
  190.6040  178.2820  143.0180 C   0  0  0  0  0  2  0  0  0  0  0  0
  192.3630  177.0650  144.0280 N   0  0  0  0  0  0  0  0  0  0  0  0
  191.5950  177.2220  143.0260 N   0  0  0  0  0  0  0  0  0  0  0  0
  194.6360  176.2650  144.6010 N   0  0  0  0  0  1  0  0  0  0  0  0
  193.3430  176.0290  144.0520 C   0  0  0  0  0  0  0  0  0  0  0  0
  193.0620  174.8960  143.5850 O   0  0  0  0  0  0  0  0  0  0  0  0
  1 10  1  0  0  0  0
  2  6  1  0  0  0  0
  4  1  2  0  0  0  0
  4 11  1  0  0  0  0
  5  3  1  0  0  0  0
  6  9  2  0  0  0  0
  7  2  1  0  0  0  0
  8 15  1  0  0  0  0
  8  3  2  0  0  0  0
 10  2  2  0  0  0  0
 10 15  1  0  0  0  0
 11  8  1  0  0  0  0
 12  5  2  0  0  0  0
 13 11  2  0  0  0  0
 13 12  1  0  0  0  0
 14  9  1  0  0  0  0
 15 14  2  0  0  0  0
 16 24  1  6  0  0  0
 16  4  1  0  0  0  0
 18 17  1  6  0  0  0
 18 16  1  0  0  0  0
 19 21  1  0  0  0  0
 21 20  1  0  0  0  0
 21 18  1  1  0  0  0
 22 19  1  0  0  0  0
 22 23  1  0  0  0  0
 23 20  1  0  0  0  0
 24 25  1  0  0  0  0
 25 27  1  0  0  0  0
 26 29  1  0  0  0  0
 27 26  2  0  0  0  0
 29 28  1  0  0  0  0
 30 29  2  0  0  0  0
M  END
>  <MODEL>
2

>  <REMARK>
 VINA RESULT:      -7.5      2.462      4.712
  Name = 
  7 active torsions:
  status: ('A' for Active; 'I' for Inactive)
    1  A    between atoms: C_4  and  C_13
    2  A    between atoms: N_7  and  C_15
    3  A    between atoms: C_8  and  C_12
    4  A    between atoms: C_8  and  C_13
    5  A    between atoms: C_13  and  C_27
    6  A    between atoms: N_16  and  C_30
    7  A    between atoms: C_27  and  C_30
                            x       y       z     vdW  Elec       q    Type
                         _______ _______ _______ _____ _____    ______ ____

>  <TORSDO>
F 7

$$$$
=
 OpenBabel11052417153D

 30 33  0  0  1  0  0  0  0  0999 V2000
  187.2730  176.9750  142.2400 N   0  0  0  0  0  0  0  0  0  0  0  0
  185.5900  177.7060  140.6950 C   0  0  0  0  0  0  0  0  0  0  0  0
  184.7920  177.7170  145.5200 C   0  0  0  0  0  3  0  0  0  0  0  0
  187.7480  176.7250  143.4890 C   0  0  0  0  0  0  0  0  0  0  0  0
  185.2550  177.4740  146.8150 C   0  0  0  0  0  3  0  0  0  0  0  0
  184.3050  178.2050  140.4680 C   0  0  0  0  0  3  0  0  0  0  0  0
  186.4800  177.4480  139.5260 C   0  0  0  0  0  1  0  0  0  0  0  0
  185.6130  177.4720  144.4060 C   0  0  0  0  0  0  0  0  0  0  0  0
  183.4470  178.4620  141.5380 C   0  0  0  0  0  3  0  0  0  0  0  0
  186.0240  177.4590  142.0110 C   0  0  0  0  0  0  0  0  0  0  0  0
  186.9230  176.9700  144.6090 C   0  0  0  0  0  0  0  0  0  0  0  0
  186.5450  176.9830  147.0130 C   0  0  0  0  0  3  0  0  0  0  0  0
  187.3730  176.7320  145.9180 C   0  0  0  0  0  3  0  0  0  0  0  0
  183.8710  178.2200  142.8470 C   0  0  0  0  0  3  0  0  0  0  0  0
  185.1580  177.7190  143.0980 C   0  0  0  0  0  0  0  0  0  0  0  0
  189.1630  176.2150  143.6020 C   0  0  1  0  0  3  0  0  0  0  0  0
  190.1250  174.8450  141.8670 O   0  0  0  0  0  1  0  0  0  0  0  0
  189.3390  174.7980  143.0200 C   0  0  1  0  0  3  0  0  0  0  0  0
  191.3980  173.9220  144.0590 N   0  0  0  0  0  2  0  0  0  0  0  0
  189.5290  172.0670  143.5990 S   0  0  0  0  0  0  0  0  0  0  0  0
  189.9520  173.7870  143.9980 C   0  0  2  0  0  3  0  0  0  0  0  0
  191.8970  172.7220  144.5890 N   0  0  0  0  0  2  0  0  0  0  0  0
  191.2690  171.6430  143.8460 C   0  0  0  0  0  2  0  0  0  0  0  0
  190.1590  177.2010  142.9970 C   0  0  0  0  0  2  0  0  0  0  0  0
  191.1870  177.6240  144.0350 C   0  0  0  0  0  2  0  0  0  0  0  0
  191.5260  176.6600  146.1680 N   0  0  0  0  0  0  0  0  0  0  0  0
  190.7360  177.2450  145.3630 N   0  0  0  0  0  0  0  0  0  0  0  0
  190.2970  175.1190  147.6700 N   0  0  0  0  0  1  0  0  0  0  0  0
  191.0990  176.2810  147.4760 C   0  0  0  0  0  0  0  0  0  0  0  0
  191.4350  176.9780  148.4670 O   0  0  0  0  0  0  0  0  0  0  0  0
  1  4  1  0  0  0  0
  2 10  1  0  0  0  0
  3  5  2  0  0  0  0
  4 16  1  0  0  0  0
  4 11  2  0  0  0  0
  5 12  1  0  0  0  0
  6  2  2  0  0  0  0
  6  9  1  0  0  0  0
  7  2  1  0  0  0  0
  8 11  1  0  0  0  0
  8  3  1  0  0  0  0
  9 14  2  0  0  0  0
 10  1  2  0  0  0  0
 10 15  1  0  0  0  0
 11 13  1  0  0  0  0
 13 12  2  0  0  0  0
 14 15  1  0  0  0  0
 15  8  2  0  0  0  0
 16 24  1  6  0  0  0
 18 17  1  6  0  0  0
 18 16  1  0  0  0  0
 19 22  1  0  0  0  0
 20 23  1  0  0  0  0
 20 21  1  0  0  0  0
 21 18  1  6  0  0  0
 21 19  1  0  0  0  0
 23 22  1  0  0  0  0
 24 25  1  0  0  0  0
 25 27  1  0  0  0  0
 26 29  1  0  0  0  0
 27 26  2  0  0  0  0
 29 28  1  0  0  0  0
 29 30  2  0  0  0  0
M  END
>  <MODEL>
3

>  <REMARK>
 VINA RESULT:      -7.5      2.098      2.894
  Name = 
  7 active torsions:
  status: ('A' for Active; 'I' for Inactive)
    1  A    between atoms: C_4  and  C_13
    2  A    between atoms: N_7  and  C_15
    3  A    between atoms: C_8  and  C_12
    4  A    between atoms: C_8  and  C_13
    5  A    between atoms: C_13  and  C_27
    6  A    between atoms: N_16  and  C_30
    7  A    between atoms: C_27  and  C_30
                            x       y       z     vdW  Elec       q    Type
                         _______ _______ _______ _____ _____    ______ ____

>  <TORSDO>
F 7

$$$$
=
 OpenBabel11052417153D

 30 33  0  0  1  0  0  0  0  0999 V2000
  187.5820  176.4360  144.2910 N   0  0  0  0  0  0  0  0  0  0  0  0
  186.3630  177.0500  146.2640 C   0  0  0  0  0  0  0  0  0  0  0  0
  184.7730  178.2780  141.8050 C   0  0  0  0  0  3  0  0  0  0  0  0
  187.7740  176.3960  142.9470 C   0  0  0  0  0  0  0  0  0  0  0  0
  184.9430  178.2490  140.4200 C   0  0  0  0  0  3  0  0  0  0  0  0
  185.2600  177.6800  146.8460 C   0  0  0  0  0  3  0  0  0  0  0  0
  187.3620  176.3850  147.1500 C   0  0  0  0  0  1  0  0  0  0  0  0
  185.7090  177.6650  142.6550 C   0  0  0  0  0  0  0  0  0  0  0  0
  184.3040  178.3080  146.0470 C   0  0  0  0  0  3  0  0  0  0  0  0
  186.5130  177.0480  144.8650 C   0  0  0  0  0  0  0  0  0  0  0  0
  186.8350  177.0140  142.0920 C   0  0  0  0  0  0  0  0  0  0  0  0
  186.0500  177.6060  139.8660 C   0  0  0  0  0  3  0  0  0  0  0  0
  186.9890  176.9930  140.6960 C   0  0  0  0  0  3  0  0  0  0  0  0
  184.4450  178.3100  144.6580 C   0  0  0  0  0  3  0  0  0  0  0  0
  185.5450  177.6830  144.0530 C   0  0  0  0  0  0  0  0  0  0  0  0
  188.9910  175.6590  142.4430 C   0  0  1  0  0  3  0  0  0  0  0  0
  190.0300  177.7980  142.8350 O   0  0  0  0  0  1  0  0  0  0  0  0
  190.3010  176.4390  142.6680 C   0  0  1  0  0  3  0  0  0  0  0  0
  190.9680  176.8230  145.0130 N   0  0  0  0  0  2  0  0  0  0  0  0
  192.8960  175.7800  143.4830 S   0  0  0  0  0  0  0  0  0  0  0  0
  191.1290  175.9480  143.8630 C   0  0  2  0  0  3  0  0  0  0  0  0
  192.0570  176.5810  145.8640 N   0  0  0  0  0  2  0  0  0  0  0  0
  193.2520  176.6290  145.0380 C   0  0  0  0  0  2  0  0  0  0  0  0
  189.0650  174.2490  143.0230 C   0  0  0  0  0  2  0  0  0  0  0  0
  188.4730  173.2410  142.0510 C   0  0  0  0  0  2  0  0  0  0  0  0
  188.2010  173.0220  139.7110 N   0  0  0  0  0  0  0  0  0  0  0  0
  188.6270  173.7170  140.6870 N   0  0  0  0  0  0  0  0  0  0  0  0
  189.0700  172.7010  137.4130 N   0  0  0  0  0  1  0  0  0  0  0  0
  188.3450  173.4750  138.3650 C   0  0  0  0  0  0  0  0  0  0  0  0
  187.8270  174.5660  138.0170 O   0  0  0  0  0  0  0  0  0  0  0  0
  1 10  1  0  0  0  0
  2  6  1  0  0  0  0
  2  7  1  0  0  0  0
  3  8  1  0  0  0  0
  4  1  2  0  0  0  0
  5  3  2  0  0  0  0
  8 15  1  0  0  0  0
  9  6  2  0  0  0  0
 10  2  2  0  0  0  0
 11  8  2  0  0  0  0
 11  4  1  0  0  0  0
 12  5  1  0  0  0  0
 12 13  2  0  0  0  0
 13 11  1  0  0  0  0
 14  9  1  0  0  0  0
 15 14  2  0  0  0  0
 15 10  1  0  0  0  0
 16 18  1  0  0  0  0
 16  4  1  0  0  0  0
 16 24  1  1  0  0  0
 18 17  1  1  0  0  0
 19 22  1  0  0  0  0
 20 21  1  0  0  0  0
 20 23  1  0  0  0  0
 21 18  1  6  0  0  0
 21 19  1  0  0  0  0
 23 22  1  0  0  0  0
 25 24  1  0  0  0  0
 26 27  2  0  0  0  0
 27 25  1  0  0  0  0
 28 29  1  0  0  0  0
 29 26  1  0  0  0  0
 30 29  2  0  0  0  0
M  END
>  <MODEL>
4

>  <REMARK>
 VINA RESULT:      -7.4      2.877      4.791
  Name = 
  7 active torsions:
  status: ('A' for Active; 'I' for Inactive)
    1  A    between atoms: C_4  and  C_13
    2  A    between atoms: N_7  and  C_15
    3  A    between atoms: C_8  and  C_12
    4  A    between atoms: C_8  and  C_13
    5  A    between atoms: C_13  and  C_27
    6  A    between atoms: N_16  and  C_30
    7  A    between atoms: C_27  and  C_30
                            x       y       z     vdW  Elec       q    Type
                         _______ _______ _______ _____ _____    ______ ____

>  <TORSDO>
F 7

$$$$
=
 OpenBabel11052417153D

 30 33  0  0  1  0  0  0  0  0999 V2000
  187.3500  176.9460  142.5710 N   0  0  0  0  0  0  0  0  0  0  0  0
  185.8090  177.6510  140.8720 C   0  0  0  0  0  0  0  0  0  0  0  0
  184.6170  177.8090  145.6130 C   0  0  0  0  0  3  0  0  0  0  0  0
  187.7170  176.7270  143.8610 C   0  0  0  0  0  0  0  0  0  0  0  0
  184.9690  177.5970  146.9470 C   0  0  0  0  0  3  0  0  0  0  0  0
  184.5540  178.1570  140.5260 C   0  0  0  0  0  3  0  0  0  0  0  0
  186.7890  177.3510  139.7890 C   0  0  0  0  0  1  0  0  0  0  0  0
  185.5230  177.5230  144.5780 C   0  0  0  0  0  0  0  0  0  0  0  0
  183.6150  178.4540  141.5140 C   0  0  0  0  0  3  0  0  0  0  0  0
  186.1310  177.4370  142.2260 C   0  0  0  0  0  0  0  0  0  0  0  0
  186.8060  177.0130  144.9020 C   0  0  0  0  0  0  0  0  0  0  0  0
  186.2320  177.0980  147.2650 C   0  0  0  0  0  3  0  0  0  0  0  0
  187.1430  176.8080  146.2490 C   0  0  0  0  0  3  0  0  0  0  0  0
  183.9260  178.2450  142.8590 C   0  0  0  0  0  3  0  0  0  0  0  0
  185.1810  177.7370  143.2300 C   0  0  0  0  0  0  0  0  0  0  0  0
  189.1110  176.2050  144.1040 C   0  0  1  0  0  3  0  0  0  0  0  0
  190.8460  176.1570  142.4310 O   0  0  0  0  0  1  0  0  0  0  0  0
  189.7060  175.4850  142.8780 C   0  0  1  0  0  3  0  0  0  0  0  0
  189.6930  173.5950  144.4650 N   0  0  0  0  0  2  0  0  0  0  0  0
  191.8190  173.6520  142.8460 S   0  0  0  0  0  0  0  0  0  0  0  0
  190.0620  174.0130  143.1220 C   0  0  2  0  0  3  0  0  0  0  0  0
  190.4340  172.4380  144.7490 N   0  0  0  0  0  2  0  0  0  0  0  0
  191.8140  172.7280  144.3990 C   0  0  0  0  0  2  0  0  0  0  0  0
  190.0360  177.3070  144.6160 C   0  0  0  0  0  2  0  0  0  0  0  0
  190.6980  176.8850  145.9180 C   0  0  0  0  0  2  0  0  0  0  0  0
  192.9360  176.8150  145.1550 N   0  0  0  0  0  0  0  0  0  0  0  0
  191.9410  176.1880  145.6400 N   0  0  0  0  0  0  0  0  0  0  0  0
  194.9910  175.6700  145.9350 N   0  0  0  0  0  1  0  0  0  0  0  0
  194.1640  176.1450  144.8750 C   0  0  0  0  0  0  0  0  0  0  0  0
  194.5210  175.9710  143.6820 O   0  0  0  0  0  0  0  0  0  0  0  0
  1  4  1  0  0  0  0
  2 10  1  0  0  0  0
  3  5  2  0  0  0  0
  4 16  1  0  0  0  0
  4 11  2  0  0  0  0
  5 12  1  0  0  0  0
  6  2  2  0  0  0  0
  6  9  1  0  0  0  0
  7  2  1  0  0  0  0
  8 11  1  0  0  0  0
  8  3  1  0  0  0  0
  9 14  2  0  0  0  0
 10  1  2  0  0  0  0
 10 15  1  0  0  0  0
 11 13  1  0  0  0  0
 13 12  2  0  0  0  0
 14 15  1  0  0  0  0
 15  8  2  0  0  0  0
 16 24  1  6  0  0  0
 18 17  1  1  0  0  0
 18 16  1  0  0  0  0
 19 22  1  0  0  0  0
 20 21  1  0  0  0  0
 20 23  1  0  0  0  0
 21 18  1  1  0  0  0
 21 19  1  0  0  0  0
 23 22  1  0  0  0  0
 24 25  1  0  0  0  0
 26 27  2  0  0  0  0
 27 25  1  0  0  0  0
 29 26  1  0  0  0  0
 29 28  1  0  0  0  0
 30 29  2  0  0  0  0
M  END
>  <MODEL>
5

>  <REMARK>
 VINA RESULT:      -7.3      1.988      2.129
  Name = 
  7 active torsions:
  status: ('A' for Active; 'I' for Inactive)
    1  A    between atoms: C_4  and  C_13
    2  A    between atoms: N_7  and  C_15
    3  A    between atoms: C_8  and  C_12
    4  A    between atoms: C_8  and  C_13
    5  A    between atoms: C_13  and  C_27
    6  A    between atoms: N_16  and  C_30
    7  A    between atoms: C_27  and  C_30
                            x       y       z     vdW  Elec       q    Type
                         _______ _______ _______ _____ _____    ______ ____

>  <TORSDO>
F 7

$$$$
=
 OpenBabel11052417153D

 30 33  0  0  1  0  0  0  0  0999 V2000
  187.6010  176.5170  144.3270 N   0  0  0  0  0  0  0  0  0  0  0  0
  186.3880  177.0820  146.3180 C   0  0  0  0  0  0  0  0  0  0  0  0
  184.7160  178.3060  141.8880 C   0  0  0  0  0  3  0  0  0  0  0  0
  187.7780  176.4930  142.9800 C   0  0  0  0  0  0  0  0  0  0  0  0
  184.8710  178.2930  140.5010 C   0  0  0  0  0  3  0  0  0  0  0  0
  185.2760  177.6790  146.9180 C   0  0  0  0  0  3  0  0  0  0  0  0
  187.4140  176.4360  147.1870 C   0  0  0  0  0  1  0  0  0  0  0  0
  185.6780  177.7100  142.7230 C   0  0  0  0  0  0  0  0  0  0  0  0
  184.2950  178.2890  146.1350 C   0  0  0  0  0  3  0  0  0  0  0  0
  186.5220  177.0960  144.9180 C   0  0  0  0  0  0  0  0  0  0  0  0
  186.8140  177.0930  142.1410 C   0  0  0  0  0  0  0  0  0  0  0  0
  185.9880  177.6830  139.9290 C   0  0  0  0  0  3  0  0  0  0  0  0
  186.9520  177.0880  140.7430 C   0  0  0  0  0  3  0  0  0  0  0  0
  184.4200  178.3060  144.7450 C   0  0  0  0  0  3  0  0  0  0  0  0
  185.5290  177.7120  144.1220 C   0  0  0  0  0  0  0  0  0  0  0  0
  189.0070  175.7920  142.4560 C   0  0  1  0  0  3  0  0  0  0  0  0
  190.0340  177.9050  142.9970 O   0  0  0  0  0  1  0  0  0  0  0  0
  190.3100  176.5570  142.7610 C   0  0  1  0  0  3  0  0  0  0  0  0
  191.0020  176.8690  145.1090 N   0  0  0  0  0  2  0  0  0  0  0  0
  192.8580  175.7220  143.5640 S   0  0  0  0  0  0  0  0  0  0  0  0
  191.1050  175.9990  143.9490 C   0  0  2  0  0  3  0  0  0  0  0  0
  192.0740  176.5470  145.9550 N   0  0  0  0  0  2  0  0  0  0  0  0
  193.2690  176.5270  145.1290 C   0  0  0  0  0  2  0  0  0  0  0  0
  189.0730  174.3470  142.9440 C   0  0  0  0  0  2  0  0  0  0  0  0
  188.2460  173.4430  142.0450 C   0  0  0  0  0  2  0  0  0  0  0  0
  189.8360  171.6980  142.1880 N   0  0  0  0  0  0  0  0  0  0  0  0
  189.0920  172.4210  141.4540 N   0  0  0  0  0  0  0  0  0  0  0  0
  190.6250  170.4020  140.2290 N   0  0  0  0  0  1  0  0  0  0  0  0
  190.6740  170.6900  141.6240 C   0  0  0  0  0  0  0  0  0  0  0  0
  191.4640  170.0510  142.3640 O   0  0  0  0  0  0  0  0  0  0  0  0
  1 10  1  0  0  0  0
  2  6  1  0  0  0  0
  2  7  1  0  0  0  0
  3  8  1  0  0  0  0
  4  1  2  0  0  0  0
  5  3  2  0  0  0  0
  8 15  1  0  0  0  0
  9  6  2  0  0  0  0
 10  2  2  0  0  0  0
 11  8  2  0  0  0  0
 11  4  1  0  0  0  0
 12  5  1  0  0  0  0
 12 13  2  0  0  0  0
 13 11  1  0  0  0  0
 14  9  1  0  0  0  0
 15 14  2  0  0  0  0
 15 10  1  0  0  0  0
 16 18  1  0  0  0  0
 16 24  1  1  0  0  0
 16  4  1  0  0  0  0
 18 17  1  1  0  0  0
 19 22  1  0  0  0  0
 20 21  1  0  0  0  0
 20 23  1  0  0  0  0
 21 18  1  6  0  0  0
 21 19  1  0  0  0  0
 23 22  1  0  0  0  0
 25 24  1  0  0  0  0
 27 25  1  0  0  0  0
 27 26  2  0  0  0  0
 28 29  1  0  0  0  0
 29 26  1  0  0  0  0
 29 30  2  0  0  0  0
M  END
>  <MODEL>
6

>  <REMARK>
 VINA RESULT:      -7.0      2.945      4.583
  Name = 
  7 active torsions:
  status: ('A' for Active; 'I' for Inactive)
    1  A    between atoms: C_4  and  C_13
    2  A    between atoms: N_7  and  C_15
    3  A    between atoms: C_8  and  C_12
    4  A    between atoms: C_8  and  C_13
    5  A    between atoms: C_13  and  C_27
    6  A    between atoms: N_16  and  C_30
    7  A    between atoms: C_27  and  C_30
                            x       y       z     vdW  Elec       q    Type
                         _______ _______ _______ _____ _____    ______ ____

>  <TORSDO>
F 7

$$$$
=
 OpenBabel11052417153D

 30 33  0  0  1  0  0  0  0  0999 V2000
  187.6230  176.6880  142.3300 N   0  0  0  0  0  0  0  0  0  0  0  0
  185.8110  177.6890  141.1180 C   0  0  0  0  0  0  0  0  0  0  0  0
  185.6700  177.2270  145.9850 C   0  0  0  0  0  3  0  0  0  0  0  0
  188.2400  176.2740  143.4680 C   0  0  0  0  0  0  0  0  0  0  0  0
  186.2820  176.8150  147.1700 C   0  0  0  0  0  3  0  0  0  0  0  0
  184.5500  178.2910  141.1250 C   0  0  0  0  0  3  0  0  0  0  0  0
  186.5130  177.5030  139.8160 C   0  0  0  0  0  1  0  0  0  0  0  0
  186.3120  177.0510  144.7470 C   0  0  0  0  0  0  0  0  0  0  0  0
  183.8670  178.4840  142.3260 C   0  0  0  0  0  3  0  0  0  0  0  0
  186.3970  177.2730  142.3280 C   0  0  0  0  0  0  0  0  0  0  0  0
  187.5940  176.4480  144.7120 C   0  0  0  0  0  0  0  0  0  0  0  0
  187.5450  176.2230  147.1340 C   0  0  0  0  0  3  0  0  0  0  0  0
  188.1960  176.0410  145.9140 C   0  0  0  0  0  3  0  0  0  0  0  0
  184.4410  178.0750  143.5310 C   0  0  0  0  0  3  0  0  0  0  0  0
  185.7070  177.4680  143.5470 C   0  0  0  0  0  0  0  0  0  0  0  0
  189.6130  175.6640  143.3280 C   0  0  1  0  0  3  0  0  0  0  0  0
  188.3200  173.7100  142.7630 O   0  0  0  0  0  1  0  0  0  0  0  0
  189.5900  174.2810  142.6500 C   0  0  1  0  0  3  0  0  0  0  0  0
  188.8410  174.1260  140.3030 N   0  0  0  0  0  2  0  0  0  0  0  0
  191.2410  173.0420  140.7600 S   0  0  0  0  0  0  0  0  0  0  0  0
  189.9960  174.2980  141.1700 C   0  0  2  0  0  3  0  0  0  0  0  0
  189.3270  173.7080  139.0550 N   0  0  0  0  0  2  0  0  0  0  0  0
  190.2510  172.6160  139.3100 C   0  0  0  0  0  2  0  0  0  0  0  0
  190.5770  176.6200  142.6290 C   0  0  0  0  0  2  0  0  0  0  0  0
  191.0010  177.7340  143.5730 C   0  0  0  0  0  2  0  0  0  0  0  0
  192.7740  176.9700  144.9390 N   0  0  0  0  0  0  0  0  0  0  0  0
  191.5260  177.1690  144.8030 N   0  0  0  0  0  0  0  0  0  0  0  0
  194.2970  177.1160  146.8880 N   0  0  0  0  0  1  0  0  0  0  0  0
  193.3070  176.4150  146.1410 C   0  0  0  0  0  0  0  0  0  0  0  0
  192.8970  175.2970  146.5450 O   0  0  0  0  0  0  0  0  0  0  0  0
  1  4  1  0  0  0  0
  2  6  2  0  0  0  0
  2 10  1  0  0  0  0
  3  5  2  0  0  0  0
  4 11  2  0  0  0  0
  6  9  1  0  0  0  0
  7  2  1  0  0  0  0
  8  3  1  0  0  0  0
  9 14  2  0  0  0  0
 10  1  2  0  0  0  0
 10 15  1  0  0  0  0
 11  8  1  0  0  0  0
 11 13  1  0  0  0  0
 12  5  1  0  0  0  0
 13 12  2  0  0  0  0
 14 15  1  0  0  0  0
 15  8  2  0  0  0  0
 16 24  1  6  0  0  0
 16  4  1  0  0  0  0
 18 17  1  6  0  0  0
 18 16  1  0  0  0  0
 19 21  1  0  0  0  0
 20 21  1  0  0  0  0
 21 18  1  1  0  0  0
 22 23  1  0  0  0  0
 22 19  1  0  0  0  0
 23 20  1  0  0  0  0
 24 25  1  0  0  0  0
 25 27  1  0  0  0  0
 26 29  1  0  0  0  0
 27 26  2  0  0  0  0
 29 30  2  0  0  0  0
 29 28  1  0  0  0  0
M  END
>  <MODEL>
7

>  <REMARK>
 VINA RESULT:      -6.9      2.597      3.542
  Name = 
  7 active torsions:
  status: ('A' for Active; 'I' for Inactive)
    1  A    between atoms: C_4  and  C_13
    2  A    between atoms: N_7  and  C_15
    3  A    between atoms: C_8  and  C_12
    4  A    between atoms: C_8  and  C_13
    5  A    between atoms: C_13  and  C_27
    6  A    between atoms: N_16  and  C_30
    7  A    between atoms: C_27  and  C_30
                            x       y       z     vdW  Elec       q    Type
                         _______ _______ _______ _____ _____    ______ ____

>  <TORSDO>
F 7

$$$$
=
 OpenBabel11052417153D

 30 33  0  0  1  0  0  0  0  0999 V2000
  187.3280  176.6400  144.6890 N   0  0  0  0  0  0  0  0  0  0  0  0
  185.9030  177.4040  146.4620 C   0  0  0  0  0  0  0  0  0  0  0  0
  184.8650  178.3480  141.7770 C   0  0  0  0  0  3  0  0  0  0  0  0
  187.6720  176.5060  143.3820 C   0  0  0  0  0  0  0  0  0  0  0  0
  185.1930  178.2220  140.4250 C   0  0  0  0  0  3  0  0  0  0  0  0
  184.7550  178.0890  146.8680 C   0  0  0  0  0  3  0  0  0  0  0  0
  186.7780  176.7870  147.5000 C   0  0  0  0  0  1  0  0  0  0  0  0
  185.6830  177.7810  142.7690 C   0  0  0  0  0  0  0  0  0  0  0  0
  183.9110  178.6750  145.9240 C   0  0  0  0  0  3  0  0  0  0  0  0
  186.2130  177.3050  145.0930 C   0  0  0  0  0  0  0  0  0  0  0  0
  186.8520  177.0770  142.3840 C   0  0  0  0  0  0  0  0  0  0  0  0
  186.3420  177.5270  140.0480 C   0  0  0  0  0  3  0  0  0  0  0  0
  187.1650  176.9590  141.0200 C   0  0  0  0  0  3  0  0  0  0  0  0
  184.2110  178.5800  144.5640 C   0  0  0  0  0  3  0  0  0  0  0  0
  185.3590  177.8970  144.1330 C   0  0  0  0  0  0  0  0  0  0  0  0
  188.9220  175.7190  143.0730 C   0  0  1  0  0  3  0  0  0  0  0  0
  189.4210  174.5540  141.0220 O   0  0  0  0  0  1  0  0  0  0  0  0
  188.6520  174.4870  142.1860 C   0  0  1  0  0  3  0  0  0  0  0  0
  189.6750  173.3200  144.1050 N   0  0  0  0  0  2  0  0  0  0  0  0
  189.7760  171.9530  141.8100 S   0  0  0  0  0  0  0  0  0  0  0  0
  188.9160  173.1430  142.8770 C   0  0  2  0  0  3  0  0  0  0  0  0
  190.2440  172.0750  144.4140 N   0  0  0  0  0  2  0  0  0  0  0  0
  190.8750  171.5900  143.1990 C   0  0  0  0  0  2  0  0  0  0  0  0
  190.0090  176.6130  142.4820 C   0  0  0  0  0  2  0  0  0  0  0  0
  191.2530  176.5870  143.3560 C   0  0  0  0  0  2  0  0  0  0  0  0
  191.1040  176.1340  145.6730 N   0  0  0  0  0  0  0  0  0  0  0  0
  190.9100  176.9520  144.7190 N   0  0  0  0  0  0  0  0  0  0  0  0
  191.1990  175.6570  148.1020 N   0  0  0  0  0  1  0  0  0  0  0  0
  190.7710  176.4760  147.0180 C   0  0  0  0  0  0  0  0  0  0  0  0
  190.0960  177.5110  147.2470 O   0  0  0  0  0  0  0  0  0  0  0  0
  1 10  1  0  0  0  0
  2  6  1  0  0  0  0
  2  7  1  0  0  0  0
  3  8  1  0  0  0  0
  4  1  2  0  0  0  0
  5  3  2  0  0  0  0
  8 15  1  0  0  0  0
  9  6  2  0  0  0  0
 10  2  2  0  0  0  0
 11  8  2  0  0  0  0
 11  4  1  0  0  0  0
 12  5  1  0  0  0  0
 12 13  2  0  0  0  0
 13 11  1  0  0  0  0
 14  9  1  0  0  0  0
 15 14  2  0  0  0  0
 15 10  1  0  0  0  0
 16 24  1  6  0  0  0
 16  4  1  0  0  0  0
 18 17  1  6  0  0  0
 18 16  1  0  0  0  0
 19 22  1  0  0  0  0
 20 21  1  0  0  0  0
 20 23  1  0  0  0  0
 21 18  1  6  0  0  0
 21 19  1  0  0  0  0
 23 22  1  0  0  0  0
 24 25  1  0  0  0  0
 25 27  1  0  0  0  0
 26 29  1  0  0  0  0
 27 26  2  0  0  0  0
 29 30  2  0  0  0  0
 29 28  1  0  0  0  0
M  END
>  <MODEL>
8

>  <REMARK>
 VINA RESULT:      -6.8      2.431      4.461
  Name = 
  7 active torsions:
  status: ('A' for Active; 'I' for Inactive)
    1  A    between atoms: C_4  and  C_13
    2  A    between atoms: N_7  and  C_15
    3  A    between atoms: C_8  and  C_12
    4  A    between atoms: C_8  and  C_13
    5  A    between atoms: C_13  and  C_27
    6  A    between atoms: N_16  and  C_30
    7  A    between atoms: C_27  and  C_30
                            x       y       z     vdW  Elec       q    Type
                         _______ _______ _______ _____ _____    ______ ____

>  <TORSDO>
F 7

$$$$
=
 OpenBabel11052417153D

 30 33  0  0  1  0  0  0  0  0999 V2000
  188.3900  176.1740  142.5930 N   0  0  0  0  0  0  0  0  0  0  0  0
  186.8530  177.9890  142.2770 C   0  0  0  0  0  0  0  0  0  0  0  0
  187.9860  176.3640  146.7480 C   0  0  0  0  0  3  0  0  0  0  0  0
  189.0980  175.3030  143.3590 C   0  0  0  0  0  0  0  0  0  0  0  0
  188.7050  175.4840  147.5600 C   0  0  0  0  0  3  0  0  0  0  0  0
  185.9980  178.9470  142.8260 C   0  0  0  0  0  3  0  0  0  0  0  0
  187.0050  177.9250  140.7940 C   0  0  0  0  0  1  0  0  0  0  0  0
  188.1090  176.3120  145.3490 C   0  0  0  0  0  0  0  0  0  0  0  0
  185.8360  179.0370  144.2090 C   0  0  0  0  0  3  0  0  0  0  0  0
  187.5550  177.1080  143.1200 C   0  0  0  0  0  0  0  0  0  0  0  0
  188.9740  175.3530  144.7650 C   0  0  0  0  0  0  0  0  0  0  0  0
  189.5580  174.5420  146.9830 C   0  0  0  0  0  3  0  0  0  0  0  0
  189.6910  174.4770  145.5960 C   0  0  0  0  0  3  0  0  0  0  0  0
  186.5290  178.1680  145.0530 C   0  0  0  0  0  3  0  0  0  0  0  0
  187.3940  177.1980  144.5220 C   0  0  0  0  0  0  0  0  0  0  0  0
  190.0090  174.3350  142.6440 C   0  0  1  0  0  3  0  0  0  0  0  0
  189.4390  173.9760  140.3300 O   0  0  0  0  0  1  0  0  0  0  0  0
  189.2670  173.4600  141.6160 C   0  0  1  0  0  3  0  0  0  0  0  0
  190.4680  171.6620  142.8050 N   0  0  0  0  0  2  0  0  0  0  0  0
  190.6380  171.5160  140.1410 S   0  0  0  0  0  0  0  0  0  0  0  0
  189.6930  171.9860  141.6190 C   0  0  2  0  0  3  0  0  0  0  0  0
  191.1750  170.4840  142.5200 N   0  0  0  0  0  2  0  0  0  0  0  0
  191.8130  170.6800  141.2300 C   0  0  0  0  0  2  0  0  0  0  0  0
  191.2020  175.0540  142.0180 C   0  0  0  0  0  2  0  0  0  0  0  0
  192.4870  174.6800  142.7380 C   0  0  0  0  0  2  0  0  0  0  0  0
  192.9920  175.3320  144.9550 N   0  0  0  0  0  0  0  0  0  0  0  0
  192.7990  175.6770  143.7470 N   0  0  0  0  0  0  0  0  0  0  0  0
  194.4470  177.1330  145.8380 N   0  0  0  0  0  1  0  0  0  0  0  0
  193.2980  176.2990  145.9590 C   0  0  0  0  0  0  0  0  0  0  0  0
  192.5460  176.4170  146.9600 O   0  0  0  0  0  0  0  0  0  0  0  0
  1 10  2  0  0  0  0
  1  4  1  0  0  0  0
  2  6  2  0  0  0  0
  2 10  1  0  0  0  0
  3  5  2  0  0  0  0
  4 11  2  0  0  0  0
  6  9  1  0  0  0  0
  7  2  1  0  0  0  0
  8  3  1  0  0  0  0
  9 14  2  0  0  0  0
 10 15  1  0  0  0  0
 11  8  1  0  0  0  0
 11 13  1  0  0  0  0
 12  5  1  0  0  0  0
 13 12  2  0  0  0  0
 15 14  1  0  0  0  0
 15  8  2  0  0  0  0
 16 24  1  6  0  0  0
 16  4  1  0  0  0  0
 18 17  1  6  0  0  0
 18 16  1  0  0  0  0
 20 23  1  0  0  0  0
 20 21  1  0  0  0  0
 21 18  1  6  0  0  0
 21 19  1  0  0  0  0
 22 19  1  0  0  0  0
 23 22  1  0  0  0  0
 24 25  1  0  0  0  0
 25 27  1  0  0  0  0
 26 29  1  0  0  0  0
 27 26  2  0  0  0  0
 28 29  1  0  0  0  0
 29 30  2  0  0  0  0
M  END
>  <MODEL>
9

>  <REMARK>
 VINA RESULT:      -6.6      3.051      4.344
  Name = 
  7 active torsions:
  status: ('A' for Active; 'I' for Inactive)
    1  A    between atoms: C_4  and  C_13
    2  A    between atoms: N_7  and  C_15
    3  A    between atoms: C_8  and  C_12
    4  A    between atoms: C_8  and  C_13
    5  A    between atoms: C_13  and  C_27
    6  A    between atoms: N_16  and  C_30
    7  A    between atoms: C_27  and  C_30
                            x       y       z     vdW  Elec       q    Type
                         _______ _______ _______ _____ _____    ______ ____

>  <TORSDO>
F 7

$$$$
