=
 OpenBabel11052418503D

 34 38  0  0  1  0  0  0  0  0999 V2000
  186.7680  177.7520  143.3420 C   0  0  2  0  0  3  0  0  0  0  0  0
  185.4990  177.0680  145.2950 C   0  0  0  0  0  2  0  0  0  0  0  0
  187.6710  176.1880  145.0190 C   0  0  1  0  0  3  0  0  0  0  0  0
  189.7150  175.4840  146.3080 N   0  0  0  0  0  0  0  0  0  0  0  0
  185.5440  179.8460  144.1310 C   0  0  0  0  0  2  0  0  0  0  0  0
  184.4570  179.3580  145.0830 C   0  0  0  0  0  2  0  0  0  0  0  0
  188.3840  177.2690  147.0430 O   0  0  0  0  0  0  0  0  0  0  0  0
  186.8300  177.3740  144.7760 N   0  0  1  0  0  0  0  0  0  0  0  0
  185.7320  178.8330  143.0090 C   0  0  0  0  0  2  0  0  0  0  0  0
  188.4490  175.7410  143.7700 C   0  0  1  0  0  3  0  0  0  0  0  0
  186.6040  176.5400  142.4040 C   0  0  0  0  0  2  0  0  0  0  0  0
  184.9620  178.2820  146.0400 C   0  0  0  0  0  2  0  0  0  0  0  0
  190.0190  174.5530  145.2600 C   0  0  0  0  0  3  0  0  0  0  0  0
  189.4090  174.5980  144.0630 C   0  0  0  0  0  0  0  0  0  0  0  0
  188.6060  176.3840  146.1720 C   0  0  0  0  0  0  0  0  0  0  0  0
  187.4740  175.3980  142.7340 N   0  0  0  0  0  2  0  0  0  0  0  0
  190.9560  173.2440  140.8690 C   0  0  0  0  0  0  0  0  0  0  0  0
  190.7470  171.8720  141.0200 C   0  0  0  0  0  3  0  0  0  0  0  0
  189.8600  173.6590  143.0040 C   0  0  0  0  0  0  0  0  0  0  0  0
  190.1000  171.3860  142.1590 C   0  0  0  0  0  3  0  0  0  0  0  0
  190.5180  174.1320  141.8570 C   0  0  0  0  0  3  0  0  0  0  0  0
  189.6620  172.2740  143.1460 C   0  0  0  0  0  3  0  0  0  0  0  0
  191.5860  173.7160  139.7670 F   0  0  0  0  0  0  0  0  0  0  0  0
  190.5690  175.5200  147.4860 C   0  0  0  0  0  2  0  0  0  0  0  0
  191.9920  175.1670  147.1000 C   0  0  0  0  0  2  0  0  0  0  0  0
  192.7880  176.4390  146.8800 C   0  0  0  0  0  2  0  0  0  0  0  0
  194.1440  176.1150  146.2720 C   0  0  0  0  0  2  0  0  0  0  0  0
  196.2520  175.3430  144.5220 O   0  0  0  0  0  0  0  0  0  0  0  0
  194.0890  176.2060  144.8180 N   0  0  0  0  0  0  0  0  0  0  0  0
  195.2100  175.8250  144.0030 C   0  0  0  0  0  0  0  0  0  0  0  0
  193.7240  175.8770  142.0230 C   0  0  0  0  0  2  0  0  0  0  0  0
  192.7310  176.6170  142.8750 C   0  0  0  0  0  3  0  0  0  0  0  0
  192.9040  176.7200  144.1950 C   0  0  0  0  0  3  0  0  0  0  0  0
  195.1560  176.0670  142.5260 C   0  0  0  0  0  2  0  0  0  0  0  0
  1 11  1  6  0  0  0
  1  8  1  0  0  0  0
  2 12  1  0  0  0  0
  3 15  1  1  0  0  0
  4 24  1  0  0  0  0
  5  6  1  0  0  0  0
  6 12  1  0  0  0  0
  8  3  1  0  0  0  0
  8  2  1  6  0  0  0
  9  1  1  0  0  0  0
  9  5  1  0  0  0  0
 10 16  1  6  0  0  0
 10 14  1  0  0  0  0
 10  3  1  0  0  0  0
 11 16  1  0  0  0  0
 13  4  1  0  0  0  0
 14 13  2  0  0  0  0
 15  4  1  0  0  0  0
 15  7  2  0  0  0  0
 17 18  2  0  0  0  0
 17 21  1  0  0  0  0
 18 20  1  0  0  0  0
 19 22  1  0  0  0  0
 19 14  1  0  0  0  0
 20 22  2  0  0  0  0
 21 19  2  0  0  0  0
 23 17  1  0  0  0  0
 25 24  1  0  0  0  0
 26 25  1  0  0  0  0
 27 26  1  0  0  0  0
 29 27  1  0  0  0  0
 30 28  2  0  0  0  0
 30 29  1  0  0  0  0
 31 34  1  0  0  0  0
 31 32  1  0  0  0  0
 32 33  2  0  0  0  0
 33 29  1  0  0  0  0
 34 30  1  0  0  0  0
M  END
>  <MODEL>
1

>  <REMARK>
 VINA RESULT:      -8.0      0.000      0.000
  Name = 
  6 active torsions:
  status: ('A' for Active; 'I' for Inactive)
    1  A    between atoms: C_3  and  N_13
    2  A    between atoms: C_3  and  C_17
    3  A    between atoms: N_5  and  C_18
    4  A    between atoms: C_12  and  C_28
    5  A    between atoms: C_17  and  C_29
    6  A    between atoms: C_18  and  C_29
                            x       y       z     vdW  Elec       q    Type
                         _______ _______ _______ _____ _____    ______ ____

>  <TORSDO>
F 6

$$$$
=
 OpenBabel11052418503D

 34 38  0  0  1  0  0  0  0  0999 V2000
  186.4310  177.6650  143.6100 C   0  0  2  0  0  3  0  0  0  0  0  0
  185.5330  176.8930  145.7290 C   0  0  0  0  0  2  0  0  0  0  0  0
  187.7780  176.3740  145.2190 C   0  0  1  0  0  3  0  0  0  0  0  0
  190.0470  176.0970  146.2710 N   0  0  0  0  0  0  0  0  0  0  0  0
  184.9620  179.5670  144.4650 C   0  0  0  0  0  2  0  0  0  0  0  0
  184.0930  178.9600  145.5620 C   0  0  0  0  0  2  0  0  0  0  0  0
  188.5220  177.6740  147.0980 O   0  0  0  0  0  0  0  0  0  0  0  0
  186.7220  177.3870  145.0390 N   0  0  1  0  0  0  0  0  0  0  0  0
  185.1920  178.5360  143.3670 C   0  0  0  0  0  2  0  0  0  0  0  0
  188.4720  175.9910  143.9010 C   0  0  1  0  0  3  0  0  0  0  0  0
  186.3710  176.3890  142.7450 C   0  0  0  0  0  2  0  0  0  0  0  0
  184.8840  178.0410  146.4880 C   0  0  0  0  0  2  0  0  0  0  0  0
  190.3850  175.1700  145.2300 C   0  0  0  0  0  3  0  0  0  0  0  0
  189.6420  175.0430  144.1170 C   0  0  0  0  0  0  0  0  0  0  0  0
  188.7920  176.7900  146.2400 C   0  0  0  0  0  0  0  0  0  0  0  0
  187.4580  175.4300  143.0080 N   0  0  0  0  0  2  0  0  0  0  0  0
  190.3450  171.8950  142.1110 C   0  0  0  0  0  0  0  0  0  0  0  0
  191.0000  172.4180  140.9950 C   0  0  0  0  0  3  0  0  0  0  0  0
  190.1230  174.1320  143.0460 C   0  0  0  0  0  0  0  0  0  0  0  0
  191.2170  173.7940  140.8950 C   0  0  0  0  0  3  0  0  0  0  0  0
  189.9060  172.7470  143.1290 C   0  0  0  0  0  3  0  0  0  0  0  0
  190.7780  174.6460  141.9130 C   0  0  0  0  0  3  0  0  0  0  0  0
  190.1320  170.5600  142.2080 F   0  0  0  0  0  0  0  0  0  0  0  0
  191.0130  176.3440  147.3330 C   0  0  0  0  0  2  0  0  0  0  0  0
  192.2250  175.4540  147.1410 C   0  0  0  0  0  2  0  0  0  0  0  0
  193.3590  176.2640  146.5430 C   0  0  0  0  0  2  0  0  0  0  0  0
  194.5360  175.3600  146.2090 C   0  0  0  0  0  2  0  0  0  0  0  0
  195.5400  176.5250  143.8140 O   0  0  0  0  0  0  0  0  0  0  0  0
  194.3790  174.7850  144.8780 N   0  0  0  0  0  0  0  0  0  0  0  0
  194.8880  175.4520  143.7110 C   0  0  0  0  0  0  0  0  0  0  0  0
  194.5350  173.3650  142.4260 C   0  0  0  0  0  2  0  0  0  0  0  0
  193.6910  172.8840  143.5740 C   0  0  0  0  0  3  0  0  0  0  0  0
  193.6700  173.5470  144.7320 C   0  0  0  0  0  3  0  0  0  0  0  0
  194.5800  174.8930  142.3570 C   0  0  0  0  0  2  0  0  0  0  0  0
  1 11  1  6  0  0  0
  1  8  1  0  0  0  0
  2 12  1  0  0  0  0
  3 15  1  1  0  0  0
  4 24  1  0  0  0  0
  5  6  1  0  0  0  0
  6 12  1  0  0  0  0
  8  3  1  0  0  0  0
  8  2  1  1  0  0  0
  9  1  1  0  0  0  0
  9  5  1  0  0  0  0
 10 16  1  6  0  0  0
 10 14  1  0  0  0  0
 10  3  1  0  0  0  0
 11 16  1  0  0  0  0
 13  4  1  0  0  0  0
 14 13  2  0  0  0  0
 15  4  1  0  0  0  0
 15  7  2  0  0  0  0
 17 23  1  0  0  0  0
 17 21  1  0  0  0  0
 18 17  2  0  0  0  0
 19 21  2  0  0  0  0
 19 14  1  0  0  0  0
 20 18  1  0  0  0  0
 20 22  2  0  0  0  0
 22 19  1  0  0  0  0
 25 24  1  0  0  0  0
 26 25  1  0  0  0  0
 27 26  1  0  0  0  0
 29 27  1  0  0  0  0
 30 28  2  0  0  0  0
 30 29  1  0  0  0  0
 31 32  1  0  0  0  0
 32 33  2  0  0  0  0
 33 29  1  0  0  0  0
 34 31  1  0  0  0  0
 34 30  1  0  0  0  0
M  END
>  <MODEL>
2

>  <REMARK>
 VINA RESULT:      -8.0      1.324      1.627
  Name = 
  6 active torsions:
  status: ('A' for Active; 'I' for Inactive)
    1  A    between atoms: C_3  and  N_13
    2  A    between atoms: C_3  and  C_17
    3  A    between atoms: N_5  and  C_18
    4  A    between atoms: C_12  and  C_28
    5  A    between atoms: C_17  and  C_29
    6  A    between atoms: C_18  and  C_29
                            x       y       z     vdW  Elec       q    Type
                         _______ _______ _______ _____ _____    ______ ____

>  <TORSDO>
F 6

$$$$
=
 OpenBabel11052418503D

 34 38  0  0  1  0  0  0  0  0999 V2000
  186.9270  177.0030  146.3350 C   0  0  2  0  0  3  0  0  0  0  0  0
  186.4370  178.7040  144.6740 C   0  0  0  0  0  2  0  0  0  0  0  0
  187.9320  176.9760  144.0850 C   0  0  1  0  0  3  0  0  0  0  0  0
  188.6470  175.5330  142.1510 N   0  0  0  0  0  0  0  0  0  0  0  0
  184.4370  177.4970  146.5760 C   0  0  0  0  0  2  0  0  0  0  0  0
  184.2010  178.8130  145.8430 C   0  0  0  0  0  2  0  0  0  0  0  0
  186.4190  176.2280  142.3750 O   0  0  0  0  0  0  0  0  0  0  0  0
  186.7380  177.2910  144.8910 N   0  0  1  0  0  0  0  0  0  0  0  0
  185.8060  177.5230  147.2430 C   0  0  0  0  0  2  0  0  0  0  0  0
  189.0170  176.2370  144.8860 C   0  0  1  0  0  3  0  0  0  0  0  0
  188.3030  177.4520  146.8660 C   0  0  0  0  0  2  0  0  0  0  0  0
  184.9330  178.8730  144.5050 C   0  0  0  0  0  2  0  0  0  0  0  0
  189.9490  175.4330  142.7450 C   0  0  0  0  0  3  0  0  0  0  0  0
  190.1860  175.8050  144.0150 C   0  0  0  0  0  0  0  0  0  0  0  0
  187.5900  176.2120  142.8430 C   0  0  0  0  0  0  0  0  0  0  0  0
  189.4330  177.1070  145.9850 N   0  0  0  0  0  2  0  0  0  0  0  0
  193.9200  176.0860  144.6540 C   0  0  0  0  0  0  0  0  0  0  0  0
  194.0970  175.1520  145.6770 C   0  0  0  0  0  3  0  0  0  0  0  0
  191.5410  175.5710  144.5780 C   0  0  0  0  0  0  0  0  0  0  0  0
  193.0030  174.4290  146.1580 C   0  0  0  0  0  3  0  0  0  0  0  0
  192.6490  176.2960  144.1110 C   0  0  0  0  0  3  0  0  0  0  0  0
  191.7330  174.6390  145.6130 C   0  0  0  0  0  3  0  0  0  0  0  0
  194.9800  176.7900  144.1890 F   0  0  0  0  0  0  0  0  0  0  0  0
  188.4140  174.9050  140.8590 C   0  0  0  0  0  2  0  0  0  0  0  0
  188.9700  173.4940  140.8660 C   0  0  0  0  0  2  0  0  0  0  0  0
  190.0010  173.3500  139.7630 C   0  0  0  0  0  2  0  0  0  0  0  0
  190.8280  172.0910  139.9730 C   0  0  0  0  0  2  0  0  0  0  0  0
  190.3720  170.3990  142.2160 O   0  0  0  0  0  0  0  0  0  0  0  0
  191.5630  172.1640  141.2300 N   0  0  0  0  0  0  0  0  0  0  0  0
  191.2510  171.2930  142.3300 C   0  0  0  0  0  0  0  0  0  0  0  0
  193.3730  171.9790  143.4080 C   0  0  0  0  0  2  0  0  0  0  0  0
  193.4280  173.1110  142.4200 C   0  0  0  0  0  3  0  0  0  0  0  0
  192.5930  173.1510  141.3790 C   0  0  0  0  0  3  0  0  0  0  0  0
  191.9380  171.5010  143.6440 C   0  0  0  0  0  2  0  0  0  0  0  0
  1 11  1  1  0  0  0
  1  9  1  0  0  0  0
  3 15  1  6  0  0  0
  3 10  1  0  0  0  0
  3  8  1  0  0  0  0
  4 13  1  0  0  0  0
  4 15  1  0  0  0  0
  5  9  1  0  0  0  0
  6  5  1  0  0  0  0
  7 15  2  0  0  0  0
  8  2  1  1  0  0  0
  8  1  1  0  0  0  0
 10 14  1  6  0  0  0
 10 16  1  0  0  0  0
 12  2  1  0  0  0  0
 12  6  1  0  0  0  0
 13 14  2  0  0  0  0
 14 19  1  0  0  0  0
 16 11  1  0  0  0  0
 17 18  1  0  0  0  0
 18 20  2  0  0  0  0
 19 22  2  0  0  0  0
 21 19  1  0  0  0  0
 21 17  2  0  0  0  0
 22 20  1  0  0  0  0
 23 17  1  0  0  0  0
 24 25  1  0  0  0  0
 24  4  1  0  0  0  0
 26 27  1  0  0  0  0
 26 25  1  0  0  0  0
 27 29  1  0  0  0  0
 28 30  2  0  0  0  0
 29 33  1  0  0  0  0
 29 30  1  0  0  0  0
 30 34  1  0  0  0  0
 31 34  1  0  0  0  0
 32 31  1  0  0  0  0
 33 32  2  0  0  0  0
M  END
>  <MODEL>
3

>  <REMARK>
 VINA RESULT:      -7.9      2.672      4.868
  Name = 
  6 active torsions:
  status: ('A' for Active; 'I' for Inactive)
    1  A    between atoms: C_3  and  N_13
    2  A    between atoms: C_3  and  C_17
    3  A    between atoms: N_5  and  C_18
    4  A    between atoms: C_12  and  C_28
    5  A    between atoms: C_17  and  C_29
    6  A    between atoms: C_18  and  C_29
                            x       y       z     vdW  Elec       q    Type
                         _______ _______ _______ _____ _____    ______ ____

>  <TORSDO>
F 6

$$$$
=
 OpenBabel11052418503D

 34 38  0  0  1  0  0  0  0  0999 V2000
  188.4080  174.0650  141.6640 C   0  0  2  0  0  3  0  0  0  0  0  0
  190.7270  174.7790  141.6500 C   0  0  0  0  0  2  0  0  0  0  0  0
  189.4520  175.1880  143.5920 C   0  0  1  0  0  3  0  0  0  0  0  0
  189.6160  175.2740  146.1020 N   0  0  0  0  0  0  0  0  0  0  0  0
  189.6860  172.2130  140.4640 C   0  0  0  0  0  2  0  0  0  0  0  0
  191.0390  172.8130  140.0960 C   0  0  0  0  0  2  0  0  0  0  0  0
  190.8980  173.7510  144.8640 O   0  0  0  0  0  0  0  0  0  0  0  0
  189.6400  174.2510  142.4700 N   0  0  1  0  0  0  0  0  0  0  0  0
  188.6080  173.2840  140.3590 C   0  0  0  0  0  2  0  0  0  0  0  0
  187.9830  175.5970  143.7910 C   0  0  1  0  0  3  0  0  0  0  0  0
  187.6570  175.3850  141.3920 C   0  0  0  0  0  2  0  0  0  0  0  0
  191.6400  173.6340  141.2340 C   0  0  0  0  0  2  0  0  0  0  0  0
  188.5480  176.2310  146.1100 C   0  0  0  0  0  3  0  0  0  0  0  0
  187.7840  176.4600  145.0280 C   0  0  0  0  0  0  0  0  0  0  0  0
  190.0240  174.6600  144.8720 C   0  0  0  0  0  0  0  0  0  0  0  0
  187.5340  176.2620  142.5690 N   0  0  0  0  0  2  0  0  0  0  0  0
  185.5300  179.4830  144.5710 C   0  0  0  0  0  0  0  0  0  0  0  0
  184.4410  179.1410  145.3750 C   0  0  0  0  0  3  0  0  0  0  0  0
  186.6360  177.3950  145.1570 C   0  0  0  0  0  0  0  0  0  0  0  0
  184.4410  177.9290  146.0690 C   0  0  0  0  0  3  0  0  0  0  0  0
  186.6200  178.6130  144.4600 C   0  0  0  0  0  3  0  0  0  0  0  0
  185.5300  177.0600  145.9580 C   0  0  0  0  0  3  0  0  0  0  0  0
  185.5310  180.6570  143.8960 F   0  0  0  0  0  0  0  0  0  0  0  0
  190.2480  174.9150  147.3640 C   0  0  0  0  0  2  0  0  0  0  0  0
  191.3220  175.9300  147.7060 C   0  0  0  0  0  2  0  0  0  0  0  0
  192.6630  175.4420  147.1940 C   0  0  0  0  0  2  0  0  0  0  0  0
  193.4720  176.6040  146.6390 C   0  0  0  0  0  2  0  0  0  0  0  0
  192.3140  177.1790  144.1020 O   0  0  0  0  0  0  0  0  0  0  0  0
  194.0670  176.2490  145.3560 N   0  0  0  0  0  0  0  0  0  0  0  0
  193.4030  176.5460  144.1160 C   0  0  0  0  0  0  0  0  0  0  0  0
  195.5140  176.0410  142.9240 C   0  0  0  0  0  2  0  0  0  0  0  0
  196.0000  175.4060  144.1980 C   0  0  0  0  0  3  0  0  0  0  0  0
  195.3220  175.5550  145.3380 C   0  0  0  0  0  3  0  0  0  0  0  0
  193.9870  176.0360  142.8350 C   0  0  0  0  0  2  0  0  0  0  0  0
  1  9  1  6  0  0  0
  1  8  1  0  0  0  0
  3 10  1  0  0  0  0
  3 15  1  1  0  0  0
  4 13  1  0  0  0  0
  4 24  1  0  0  0  0
  6  5  1  0  0  0  0
  6 12  1  0  0  0  0
  7 15  2  0  0  0  0
  8  2  1  6  0  0  0
  8  3  1  0  0  0  0
  9  5  1  0  0  0  0
 10 16  1  6  0  0  0
 10 14  1  0  0  0  0
 11  1  1  0  0  0  0
 11 16  1  0  0  0  0
 12  2  1  0  0  0  0
 14 19  1  0  0  0  0
 14 13  2  0  0  0  0
 15  4  1  0  0  0  0
 17 18  1  0  0  0  0
 18 20  2  0  0  0  0
 19 22  2  0  0  0  0
 21 17  2  0  0  0  0
 21 19  1  0  0  0  0
 22 20  1  0  0  0  0
 23 17  1  0  0  0  0
 24 25  1  0  0  0  0
 26 25  1  0  0  0  0
 27 26  1  0  0  0  0
 28 30  2  0  0  0  0
 29 27  1  0  0  0  0
 30 29  1  0  0  0  0
 31 32  1  0  0  0  0
 32 33  2  0  0  0  0
 33 29  1  0  0  0  0
 34 31  1  0  0  0  0
 34 30  1  0  0  0  0
M  END
>  <MODEL>
4

>  <REMARK>
 VINA RESULT:      -7.8      2.338      5.521
  Name = 
  6 active torsions:
  status: ('A' for Active; 'I' for Inactive)
    1  A    between atoms: C_3  and  N_13
    2  A    between atoms: C_3  and  C_17
    3  A    between atoms: N_5  and  C_18
    4  A    between atoms: C_12  and  C_28
    5  A    between atoms: C_17  and  C_29
    6  A    between atoms: C_18  and  C_29
                            x       y       z     vdW  Elec       q    Type
                         _______ _______ _______ _____ _____    ______ ____

>  <TORSDO>
F 6

$$$$
=
 OpenBabel11052418503D

 34 38  0  0  1  0  0  0  0  0999 V2000
  191.9920  172.8020  140.5830 C   0  0  2  0  0  3  0  0  0  0  0  0
  190.0280  171.5470  139.9060 C   0  0  0  0  0  2  0  0  0  0  0  0
  189.7040  173.5420  141.1220 C   0  0  1  0  0  3  0  0  0  0  0  0
  188.1610  175.5190  141.3320 N   0  0  0  0  0  0  0  0  0  0  0  0
  192.5010  171.9520  138.2330 C   0  0  0  0  0  2  0  0  0  0  0  0
  191.4780  170.8550  137.9570 C   0  0  0  0  0  2  0  0  0  0  0  0
  188.5520  174.5150  139.2500 O   0  0  0  0  0  0  0  0  0  0  0  0
  190.5790  172.8800  140.1370 N   0  0  1  0  0  0  0  0  0  0  0  0
  192.8940  171.9260  139.7040 C   0  0  0  0  0  2  0  0  0  0  0  0
  190.4860  174.1770  142.2840 C   0  0  1  0  0  3  0  0  0  0  0  0
  192.1370  172.4070  142.0670 C   0  0  0  0  0  2  0  0  0  0  0  0
  190.0740  171.2390  138.4160 C   0  0  0  0  0  2  0  0  0  0  0  0
  188.5310  175.6240  142.7140 C   0  0  0  0  0  3  0  0  0  0  0  0
  189.5870  174.9660  143.2240 C   0  0  0  0  0  0  0  0  0  0  0  0
  188.8020  174.5550  140.4860 C   0  0  0  0  0  0  0  0  0  0  0  0
  191.2110  173.1100  142.9720 N   0  0  0  0  0  2  0  0  0  0  0  0
  189.5660  174.8760  147.0210 C   0  0  0  0  0  0  0  0  0  0  0  0
  190.6870  175.6530  147.3230 C   0  0  0  0  0  3  0  0  0  0  0  0
  189.9570  175.2140  144.6420 C   0  0  0  0  0  0  0  0  0  0  0  0
  191.4470  176.2090  146.2910 C   0  0  0  0  0  3  0  0  0  0  0  0
  189.2060  174.6550  145.6880 C   0  0  0  0  0  3  0  0  0  0  0  0
  191.0860  175.9880  144.9590 C   0  0  0  0  0  3  0  0  0  0  0  0
  188.8290  174.3340  148.0200 F   0  0  0  0  0  0  0  0  0  0  0  0
  187.1550  176.4280  140.8030 C   0  0  0  0  0  2  0  0  0  0  0  0
  187.2800  177.7810  141.4770 C   0  0  0  0  0  2  0  0  0  0  0  0
  185.9560  178.1560  142.1130 C   0  0  0  0  0  2  0  0  0  0  0  0
  186.1660  179.2060  143.1930 C   0  0  0  0  0  2  0  0  0  0  0  0
  187.9340  177.9640  145.0470 O   0  0  0  0  0  0  0  0  0  0  0  0
  185.7700  178.6880  144.4970 N   0  0  0  0  0  0  0  0  0  0  0  0
  186.7180  178.0440  145.3650 C   0  0  0  0  0  0  0  0  0  0  0  0
  185.0720  178.2140  147.2060 C   0  0  0  0  0  2  0  0  0  0  0  0
  184.0390  178.5300  146.1600 C   0  0  0  0  0  3  0  0  0  0  0  0
  184.3980  178.7920  144.9020 C   0  0  0  0  0  3  0  0  0  0  0  0
  186.2340  177.4050  146.6290 C   0  0  0  0  0  2  0  0  0  0  0  0
  1  9  1  6  0  0  0
  1 11  1  0  0  0  0
  3 15  1  6  0  0  0
  3 10  1  0  0  0  0
  4 13  1  0  0  0  0
  5  9  1  0  0  0  0
  6  5  1  0  0  0  0
  6 12  1  0  0  0  0
  7 15  2  0  0  0  0
  8  2  1  1  0  0  0
  8  1  1  0  0  0  0
  8  3  1  0  0  0  0
 10 16  1  1  0  0  0
 10 14  1  0  0  0  0
 11 16  1  0  0  0  0
 12  2  1  0  0  0  0
 13 14  2  0  0  0  0
 14 19  1  0  0  0  0
 15  4  1  0  0  0  0
 17 18  1  0  0  0  0
 17 23  1  0  0  0  0
 19 22  2  0  0  0  0
 19 21  1  0  0  0  0
 20 18  2  0  0  0  0
 21 17  2  0  0  0  0
 22 20  1  0  0  0  0
 24  4  1  0  0  0  0
 24 25  1  0  0  0  0
 25 26  1  0  0  0  0
 26 27  1  0  0  0  0
 27 29  1  0  0  0  0
 28 30  2  0  0  0  0
 29 33  1  0  0  0  0
 29 30  1  0  0  0  0
 30 34  1  0  0  0  0
 32 31  1  0  0  0  0
 33 32  2  0  0  0  0
 34 31  1  0  0  0  0
M  END
>  <MODEL>
5

>  <REMARK>
 VINA RESULT:      -7.7      3.052      7.920
  Name = 
  6 active torsions:
  status: ('A' for Active; 'I' for Inactive)
    1  A    between atoms: C_3  and  N_13
    2  A    between atoms: C_3  and  C_17
    3  A    between atoms: N_5  and  C_18
    4  A    between atoms: C_12  and  C_28
    5  A    between atoms: C_17  and  C_29
    6  A    between atoms: C_18  and  C_29
                            x       y       z     vdW  Elec       q    Type
                         _______ _______ _______ _____ _____    ______ ____

>  <TORSDO>
F 6

$$$$
=
 OpenBabel11052418503D

 34 38  0  0  1  0  0  0  0  0999 V2000
  186.9330  177.0830  146.4030 C   0  0  2  0  0  3  0  0  0  0  0  0
  186.4170  178.7230  144.6900 C   0  0  0  0  0  2  0  0  0  0  0  0
  187.9860  177.0380  144.1760 C   0  0  1  0  0  3  0  0  0  0  0  0
  188.7940  175.5750  142.2940 N   0  0  0  0  0  0  0  0  0  0  0  0
  184.4220  177.4910  146.5810 C   0  0  0  0  0  2  0  0  0  0  0  0
  184.1550  178.7790  145.8090 C   0  0  0  0  0  2  0  0  0  0  0  0
  186.5390  176.1930  142.4540 O   0  0  0  0  0  0  0  0  0  0  0  0
  186.7650  177.3280  144.9490 N   0  0  1  0  0  0  0  0  0  0  0  0
  185.7750  177.5830  147.2750 C   0  0  0  0  0  2  0  0  0  0  0  0
  189.0800  176.3590  145.0170 C   0  0  1  0  0  3  0  0  0  0  0  0
  188.2810  177.5950  146.9510 C   0  0  0  0  0  2  0  0  0  0  0  0
  184.9130  178.8330  144.4860 C   0  0  0  0  0  2  0  0  0  0  0  0
  190.0860  175.5380  142.9170 C   0  0  0  0  0  3  0  0  0  0  0  0
  190.2830  175.9480  144.1810 C   0  0  0  0  0  0  0  0  0  0  0  0
  187.6990  176.2320  142.9470 C   0  0  0  0  0  0  0  0  0  0  0  0
  189.4400  177.2700  146.1030 N   0  0  0  0  0  2  0  0  0  0  0  0
  193.8250  176.6750  145.3460 C   0  0  0  0  0  0  0  0  0  0  0  0
  194.1730  175.4630  145.9460 C   0  0  0  0  0  3  0  0  0  0  0  0
  191.6330  175.7780  144.7790 C   0  0  0  0  0  0  0  0  0  0  0  0
  193.2570  174.4080  145.9700 C   0  0  0  0  0  3  0  0  0  0  0  0
  192.5610  176.8320  144.7690 C   0  0  0  0  0  3  0  0  0  0  0  0
  191.9940  174.5660  145.3920 C   0  0  0  0  0  3  0  0  0  0  0  0
  194.7110  177.6990  145.3250 F   0  0  0  0  0  0  0  0  0  0  0  0
  188.6120  174.9070  141.0140 C   0  0  0  0  0  2  0  0  0  0  0  0
  189.4900  173.6730  140.9490 C   0  0  0  0  0  2  0  0  0  0  0  0
  190.1540  173.5930  139.5870 C   0  0  0  0  0  2  0  0  0  0  0  0
  189.1060  173.4220  138.4980 C   0  0  0  0  0  2  0  0  0  0  0  0
  189.5570  173.7420  135.7050 O   0  0  0  0  0  0  0  0  0  0  0  0
  189.4820  172.3450  137.5900 N   0  0  0  0  0  0  0  0  0  0  0  0
  189.6610  172.5810  136.1830 C   0  0  0  0  0  0  0  0  0  0  0  0
  190.7410  170.3610  135.9990 C   0  0  0  0  0  2  0  0  0  0  0  0
  190.1880  170.0560  137.3640 C   0  0  0  0  0  3  0  0  0  0  0  0
  189.6400  171.0170  138.1100 C   0  0  0  0  0  3  0  0  0  0  0  0
  189.9080  171.4190  135.2730 C   0  0  0  0  0  2  0  0  0  0  0  0
  1 11  1  1  0  0  0
  1  9  1  0  0  0  0
  3 15  1  6  0  0  0
  3  8  1  0  0  0  0
  3 10  1  0  0  0  0
  4 13  1  0  0  0  0
  4 15  1  0  0  0  0
  5  9  1  0  0  0  0
  6  5  1  0  0  0  0
  7 15  2  0  0  0  0
  8  2  1  1  0  0  0
  8  1  1  0  0  0  0
 10 14  1  6  0  0  0
 10 16  1  0  0  0  0
 12  2  1  0  0  0  0
 12  6  1  0  0  0  0
 13 14  2  0  0  0  0
 14 19  1  0  0  0  0
 16 11  1  0  0  0  0
 17 18  1  0  0  0  0
 18 20  2  0  0  0  0
 19 22  2  0  0  0  0
 21 19  1  0  0  0  0
 21 17  2  0  0  0  0
 22 20  1  0  0  0  0
 23 17  1  0  0  0  0
 24  4  1  0  0  0  0
 25 24  1  0  0  0  0
 26 25  1  0  0  0  0
 27 26  1  0  0  0  0
 28 30  2  0  0  0  0
 29 33  1  0  0  0  0
 29 27  1  0  0  0  0
 30 29  1  0  0  0  0
 31 32  1  0  0  0  0
 32 33  2  0  0  0  0
 34 31  1  0  0  0  0
 34 30  1  0  0  0  0
M  END
>  <MODEL>
6

>  <REMARK>
 VINA RESULT:      -7.5      3.510      6.166
  Name = 
  6 active torsions:
  status: ('A' for Active; 'I' for Inactive)
    1  A    between atoms: C_3  and  N_13
    2  A    between atoms: C_3  and  C_17
    3  A    between atoms: N_5  and  C_18
    4  A    between atoms: C_12  and  C_28
    5  A    between atoms: C_17  and  C_29
    6  A    between atoms: C_18  and  C_29
                            x       y       z     vdW  Elec       q    Type
                         _______ _______ _______ _____ _____    ______ ____

>  <TORSDO>
F 6

$$$$
=
 OpenBabel11052418503D

 34 38  0  0  1  0  0  0  0  0999 V2000
  189.1140  173.4130  142.0040 C   0  0  2  0  0  3  0  0  0  0  0  0
  191.3070  174.3650  141.5850 C   0  0  0  0  0  2  0  0  0  0  0  0
  190.1730  175.0130  143.5500 C   0  0  1  0  0  3  0  0  0  0  0  0
  190.5540  175.6220  145.9620 N   0  0  0  0  0  0  0  0  0  0  0  0
  190.5120  171.5120  141.0360 C   0  0  0  0  0  2  0  0  0  0  0  0
  191.7330  172.1730  140.4060 C   0  0  0  0  0  2  0  0  0  0  0  0
  191.9080  174.0330  144.8940 O   0  0  0  0  0  0  0  0  0  0  0  0
  190.3800  173.8950  142.6120 N   0  0  1  0  0  0  0  0  0  0  0  0
  189.2960  172.4110  140.8560 C   0  0  0  0  0  2  0  0  0  0  0  0
  188.6870  175.2850  143.8380 C   0  0  1  0  0  3  0  0  0  0  0  0
  188.1730  174.5580  141.5770 C   0  0  0  0  0  2  0  0  0  0  0  0
  192.3220  173.2690  141.2900 C   0  0  0  0  0  2  0  0  0  0  0  0
  189.3740  176.4350  145.9130 C   0  0  0  0  0  3  0  0  0  0  0  0
  188.4900  176.3530  144.9040 C   0  0  0  0  0  0  0  0  0  0  0  0
  190.9250  174.8210  144.8310 C   0  0  0  0  0  0  0  0  0  0  0  0
  188.0430  175.6350  142.5730 N   0  0  0  0  0  2  0  0  0  0  0  0
  185.0620  177.5870  145.9780 C   0  0  0  0  0  0  0  0  0  0  0  0
  184.9060  178.7130  145.1680 C   0  0  0  0  0  3  0  0  0  0  0  0
  187.2440  177.1590  144.9870 C   0  0  0  0  0  0  0  0  0  0  0  0
  185.9150  179.0700  144.2700 C   0  0  0  0  0  3  0  0  0  0  0  0
  186.2250  176.8170  145.8910 C   0  0  0  0  0  3  0  0  0  0  0  0
  187.0780  178.3000  144.1820 C   0  0  0  0  0  3  0  0  0  0  0  0
  184.0860  177.2410  146.8510 F   0  0  0  0  0  0  0  0  0  0  0  0
  191.3420  175.5990  147.1860 C   0  0  0  0  0  2  0  0  0  0  0  0
  192.3530  176.7280  147.1670 C   0  0  0  0  0  2  0  0  0  0  0  0
  193.7340  176.1680  146.8880 C   0  0  0  0  0  2  0  0  0  0  0  0
  194.2410  176.6560  145.5390 C   0  0  0  0  0  2  0  0  0  0  0  0
  194.1810  176.1130  142.7450 O   0  0  0  0  0  0  0  0  0  0  0  0
  195.0250  175.6180  144.8800 N   0  0  0  0  0  0  0  0  0  0  0  0
  194.9150  175.3840  143.4650 C   0  0  0  0  0  0  0  0  0  0  0  0
  196.9590  173.9930  143.5880 C   0  0  0  0  0  2  0  0  0  0  0  0
  196.7810  173.9870  145.0810 C   0  0  0  0  0  3  0  0  0  0  0  0
  195.8940  174.7930  145.6670 C   0  0  0  0  0  3  0  0  0  0  0  0
  195.6330  174.2190  142.8600 C   0  0  0  0  0  2  0  0  0  0  0  0
  1  9  1  6  0  0  0
  1  8  1  0  0  0  0
  3 10  1  0  0  0  0
  3 15  1  1  0  0  0
  4 24  1  0  0  0  0
  6  5  1  0  0  0  0
  6 12  1  0  0  0  0
  8  2  1  6  0  0  0
  8  3  1  0  0  0  0
  9  5  1  0  0  0  0
 10 16  1  6  0  0  0
 10 14  1  0  0  0  0
 11  1  1  0  0  0  0
 11 16  1  0  0  0  0
 12  2  1  0  0  0  0
 13  4  1  0  0  0  0
 14 19  1  0  0  0  0
 14 13  2  0  0  0  0
 15  7  2  0  0  0  0
 15  4  1  0  0  0  0
 17 23  1  0  0  0  0
 18 17  2  0  0  0  0
 19 21  2  0  0  0  0
 20 18  1  0  0  0  0
 21 17  1  0  0  0  0
 22 20  2  0  0  0  0
 22 19  1  0  0  0  0
 25 24  1  0  0  0  0
 26 25  1  0  0  0  0
 27 26  1  0  0  0  0
 28 30  2  0  0  0  0
 29 27  1  0  0  0  0
 29 33  1  0  0  0  0
 30 29  1  0  0  0  0
 31 32  1  0  0  0  0
 32 33  2  0  0  0  0
 34 30  1  0  0  0  0
 34 31  1  0  0  0  0
M  END
>  <MODEL>
7

>  <REMARK>
 VINA RESULT:      -7.3      2.479      5.766
  Name = 
  6 active torsions:
  status: ('A' for Active; 'I' for Inactive)
    1  A    between atoms: C_3  and  N_13
    2  A    between atoms: C_3  and  C_17
    3  A    between atoms: N_5  and  C_18
    4  A    between atoms: C_12  and  C_28
    5  A    between atoms: C_17  and  C_29
    6  A    between atoms: C_18  and  C_29
                            x       y       z     vdW  Elec       q    Type
                         _______ _______ _______ _____ _____    ______ ____

>  <TORSDO>
F 6

$$$$
=
 OpenBabel11052418503D

 34 38  0  0  1  0  0  0  0  0999 V2000
  192.0490  173.4190  139.7480 C   0  0  2  0  0  3  0  0  0  0  0  0
  190.1730  171.8800  139.7830 C   0  0  0  0  0  2  0  0  0  0  0  0
  190.0540  173.8050  141.1410 C   0  0  1  0  0  3  0  0  0  0  0  0
  188.4420  175.5270  142.0210 N   0  0  0  0  0  0  0  0  0  0  0  0
  191.7490  172.6520  137.3350 C   0  0  0  0  0  2  0  0  0  0  0  0
  190.8640  171.4110  137.4000 C   0  0  0  0  0  2  0  0  0  0  0  0
  188.1570  174.5890  139.8910 O   0  0  0  0  0  0  0  0  0  0  0  0
  190.5760  173.2810  139.8660 N   0  0  1  0  0  0  0  0  0  0  0  0
  192.6670  172.6880  138.5490 C   0  0  0  0  0  2  0  0  0  0  0  0
  191.1180  174.5540  141.9610 C   0  0  1  0  0  3  0  0  0  0  0  0
  192.7970  173.0530  141.0460 C   0  0  0  0  0  2  0  0  0  0  0  0
  189.6970  171.5800  138.3690 C   0  0  0  0  0  2  0  0  0  0  0  0
  189.2870  175.6880  143.1690 C   0  0  0  0  0  3  0  0  0  0  0  0
  190.5380  175.1990  143.2110 C   0  0  0  0  0  0  0  0  0  0  0  0
  188.8460  174.6690  140.9450 C   0  0  0  0  0  0  0  0  0  0  0  0
  192.1920  173.6090  142.2690 N   0  0  0  0  0  2  0  0  0  0  0  0
  193.2120  176.7180  145.4410 C   0  0  0  0  0  0  0  0  0  0  0  0
  192.9350  176.1030  146.6630 C   0  0  0  0  0  3  0  0  0  0  0  0
  191.3770  175.5030  144.3990 C   0  0  0  0  0  0  0  0  0  0  0  0
  191.8810  175.1910  146.7620 C   0  0  0  0  0  3  0  0  0  0  0  0
  192.4350  176.4220  144.3170 C   0  0  0  0  0  3  0  0  0  0  0  0
  191.1050  174.8950  145.6380 C   0  0  0  0  0  3  0  0  0  0  0  0
  194.2320  177.6040  145.3450 F   0  0  0  0  0  0  0  0  0  0  0  0
  187.1940  176.2720  141.9560 C   0  0  0  0  0  2  0  0  0  0  0  0
  187.4860  177.7490  141.7710 C   0  0  0  0  0  2  0  0  0  0  0  0
  186.7370  178.5500  142.8180 C   0  0  0  0  0  2  0  0  0  0  0  0
  185.7080  177.6750  143.5180 C   0  0  0  0  0  2  0  0  0  0  0  0
  183.8060  178.8350  145.2890 O   0  0  0  0  0  0  0  0  0  0  0  0
  185.8650  177.7560  144.9650 N   0  0  0  0  0  0  0  0  0  0  0  0
  184.8710  178.3880  145.7900 C   0  0  0  0  0  0  0  0  0  0  0  0
  185.9580  177.3870  147.7770 C   0  0  0  0  0  2  0  0  0  0  0  0
  187.1370  177.0860  146.8940 C   0  0  0  0  0  3  0  0  0  0  0  0
  187.0530  177.2260  145.5690 C   0  0  0  0  0  3  0  0  0  0  0  0
  185.1440  178.5700  147.2500 C   0  0  0  0  0  2  0  0  0  0  0  0
  1  9  1  6  0  0  0
  1  8  1  0  0  0  0
  1 11  1  0  0  0  0
  3 15  1  6  0  0  0
  3 10  1  0  0  0  0
  4 13  1  0  0  0  0
  5  6  1  0  0  0  0
  5  9  1  0  0  0  0
  6 12  1  0  0  0  0
  7 15  2  0  0  0  0
  8  2  1  1  0  0  0
  8  3  1  0  0  0  0
 10 16  1  1  0  0  0
 10 14  1  0  0  0  0
 11 16  1  0  0  0  0
 12  2  1  0  0  0  0
 13 14  2  0  0  0  0
 14 19  1  0  0  0  0
 15  4  1  0  0  0  0
 17 18  1  0  0  0  0
 18 20  2  0  0  0  0
 19 22  2  0  0  0  0
 21 19  1  0  0  0  0
 21 17  2  0  0  0  0
 22 20  1  0  0  0  0
 23 17  1  0  0  0  0
 24  4  1  0  0  0  0
 25 24  1  0  0  0  0
 25 26  1  0  0  0  0
 26 27  1  0  0  0  0
 27 29  1  0  0  0  0
 28 30  2  0  0  0  0
 29 33  1  0  0  0  0
 29 30  1  0  0  0  0
 30 34  1  0  0  0  0
 32 31  1  0  0  0  0
 33 32  2  0  0  0  0
 34 31  1  0  0  0  0
M  END
>  <MODEL>
8

>  <REMARK>
 VINA RESULT:      -7.2      2.861      7.823
  Name = 
  6 active torsions:
  status: ('A' for Active; 'I' for Inactive)
    1  A    between atoms: C_3  and  N_13
    2  A    between atoms: C_3  and  C_17
    3  A    between atoms: N_5  and  C_18
    4  A    between atoms: C_12  and  C_28
    5  A    between atoms: C_17  and  C_29
    6  A    between atoms: C_18  and  C_29
                            x       y       z     vdW  Elec       q    Type
                         _______ _______ _______ _____ _____    ______ ____

>  <TORSDO>
F 6

$$$$
=
 OpenBabel11052418503D

 34 38  0  0  1  0  0  0  0  0999 V2000
  191.3500  173.6010  139.9040 C   0  0  2  0  0  3  0  0  0  0  0  0
  189.2000  172.6540  140.5140 C   0  0  0  0  0  2  0  0  0  0  0  0
  189.9830  174.5110  141.7410 C   0  0  1  0  0  3  0  0  0  0  0  0
  189.2050  176.6010  142.9060 N   0  0  0  0  0  0  0  0  0  0  0  0
  190.2210  172.9930  137.7000 C   0  0  0  0  0  2  0  0  0  0  0  0
  189.0770  172.0520  138.0650 C   0  0  0  0  0  2  0  0  0  0  0  0
  188.1170  175.8210  140.9820 O   0  0  0  0  0  0  0  0  0  0  0  0
  189.9830  173.8830  140.4070 N   0  0  1  0  0  0  0  0  0  0  0  0
  191.4000  172.7460  138.6310 C   0  0  0  0  0  2  0  0  0  0  0  0
  191.3910  174.9130  142.2120 C   0  0  1  0  0  3  0  0  0  0  0  0
  192.2840  173.0160  140.9830 C   0  0  0  0  0  2  0  0  0  0  0  0
  188.3030  172.5270  139.2910 C   0  0  0  0  0  2  0  0  0  0  0  0
  190.3340  176.4980  143.7840 C   0  0  0  0  0  3  0  0  0  0  0  0
  191.3650  175.6740  143.5290 C   0  0  0  0  0  0  0  0  0  0  0  0
  189.0550  175.6840  141.8140 C   0  0  0  0  0  0  0  0  0  0  0  0
  192.2020  173.6990  142.2860 N   0  0  0  0  0  2  0  0  0  0  0  0
  194.3550  176.9270  145.5090 C   0  0  0  0  0  0  0  0  0  0  0  0
  194.7350  175.7730  146.1980 C   0  0  0  0  0  3  0  0  0  0  0  0
  192.5390  175.7070  144.4400 C   0  0  0  0  0  0  0  0  0  0  0  0
  194.0210  174.5860  146.0160 C   0  0  0  0  0  3  0  0  0  0  0  0
  193.2620  176.8950  144.6390 C   0  0  0  0  0  3  0  0  0  0  0  0
  192.9280  174.5540  145.1450 C   0  0  0  0  0  3  0  0  0  0  0  0
  195.0450  178.0790  145.6870 F   0  0  0  0  0  0  0  0  0  0  0  0
  188.2410  177.6700  143.1240 C   0  0  0  0  0  2  0  0  0  0  0  0
  187.0590  177.1430  143.9140 C   0  0  0  0  0  2  0  0  0  0  0  0
  187.2420  177.4730  145.3820 C   0  0  0  0  0  2  0  0  0  0  0  0
  187.5220  176.2080  146.1780 C   0  0  0  0  0  2  0  0  0  0  0  0
  189.3120  174.0480  146.6610 O   0  0  0  0  0  0  0  0  0  0  0  0
  188.7860  176.3240  146.8970 N   0  0  0  0  0  0  0  0  0  0  0  0
  189.6210  175.1760  147.1280 C   0  0  0  0  0  0  0  0  0  0  0  0
  191.4510  176.7070  147.7900 C   0  0  0  0  0  2  0  0  0  0  0  0
  190.4160  177.7940  147.8800 C   0  0  0  0  0  3  0  0  0  0  0  0
  189.1810  177.6020  147.4130 C   0  0  0  0  0  3  0  0  0  0  0  0
  190.8370  175.3200  147.9900 C   0  0  0  0  0  2  0  0  0  0  0  0
  1  9  1  6  0  0  0
  1  8  1  0  0  0  0
  1 11  1  0  0  0  0
  3 15  1  6  0  0  0
  3 10  1  0  0  0  0
  4 24  1  0  0  0  0
  4 13  1  0  0  0  0
  5  6  1  0  0  0  0
  5  9  1  0  0  0  0
  6 12  1  0  0  0  0
  7 15  2  0  0  0  0
  8  2  1  1  0  0  0
  8  3  1  0  0  0  0
 10 16  1  1  0  0  0
 10 14  1  0  0  0  0
 11 16  1  0  0  0  0
 12  2  1  0  0  0  0
 14 13  2  0  0  0  0
 14 19  1  0  0  0  0
 15  4  1  0  0  0  0
 17 23  1  0  0  0  0
 17 18  1  0  0  0  0
 19 21  1  0  0  0  0
 19 22  2  0  0  0  0
 20 18  2  0  0  0  0
 21 17  2  0  0  0  0
 22 20  1  0  0  0  0
 24 25  1  0  0  0  0
 25 26  1  0  0  0  0
 26 27  1  0  0  0  0
 27 29  1  0  0  0  0
 28 30  2  0  0  0  0
 29 30  1  0  0  0  0
 29 33  1  0  0  0  0
 30 34  1  0  0  0  0
 31 32  1  0  0  0  0
 31 34  1  0  0  0  0
 33 32  2  0  0  0  0
M  END
>  <MODEL>
9

>  <REMARK>
 VINA RESULT:      -7.2      2.800      6.488
  Name = 
  6 active torsions:
  status: ('A' for Active; 'I' for Inactive)
    1  A    between atoms: C_3  and  N_13
    2  A    between atoms: C_3  and  C_17
    3  A    between atoms: N_5  and  C_18
    4  A    between atoms: C_12  and  C_28
    5  A    between atoms: C_17  and  C_29
    6  A    between atoms: C_18  and  C_29
                            x       y       z     vdW  Elec       q    Type
                         _______ _______ _______ _____ _____    ______ ____

>  <TORSDO>
F 6

$$$$
