=
 OpenBabel11052417253D

 25 27  0  0  1  0  0  0  0  0999 V2000
  189.0810  175.7310  143.5320 C   0  0  0  0  0  0  0  0  0  0  0  0
  188.0840  176.6130  143.0510 C   0  0  0  0  0  0  0  0  0  0  0  0
  189.1910  174.6660  141.4000 C   0  0  0  0  0  3  0  0  0  0  0  0
  188.2080  175.5090  140.8890 C   0  0  0  0  0  3  0  0  0  0  0  0
  186.6580  177.3690  141.2130 C   0  0  0  0  0  0  0  0  0  0  0  0
  186.1600  177.2810  139.8070 C   0  0  0  0  0  1  0  0  0  0  0  0
  187.5380  177.6210  143.8600 C   0  0  0  0  0  3  0  0  0  0  0  0
  189.6000  174.7940  142.6880 N   0  0  0  0  0  0  0  0  0  0  0  0
  186.1260  178.3580  142.0430 C   0  0  0  0  0  3  0  0  0  0  0  0
  186.5600  178.4830  143.3630 C   0  0  0  0  0  0  0  0  0  0  0  0
  187.6450  176.4930  141.7080 C   0  0  0  0  0  0  0  0  0  0  0  0
  189.5820  175.7730  144.9300 C   0  0  0  0  0  0  0  0  0  0  0  0
  190.5580  175.7840  147.5390 C   0  0  0  0  0  3  0  0  0  0  0  0
  190.6850  176.5720  145.2980 C   0  0  0  0  0  0  0  0  0  0  0  0
  191.1340  176.5590  146.5830 N   0  0  0  0  0  0  0  0  0  0  0  0
  189.4720  174.9710  147.2200 C   0  0  0  0  0  3  0  0  0  0  0  0
  191.3210  177.4260  144.3520 N   0  0  0  0  0  1  0  0  0  0  0  0
  188.9890  174.9670  145.9110 C   0  0  0  0  0  3  0  0  0  0  0  0
  186.0030  179.5560  144.2320 C   0  0  0  0  0  2  0  0  0  0  0  0
  184.6190  179.1650  144.7220 C   0  0  0  0  0  2  0  0  0  0  0  0
  184.6850  178.6920  146.1350 C   0  0  0  0  0  0  0  0  0  0  0  0
  183.6790  178.2710  146.6880 O   0  0  0  0  0  0  0  0  0  0  0  0
  185.9920  178.7230  146.8600 C   0  0  2  0  0  3  0  0  0  0  0  0
  186.3240  177.3540  147.4250 C   0  0  0  0  0  1  0  0  0  0  0  0
  185.9420  179.6580  147.8940 O   0  0  0  0  0  1  0  0  0  0  0  0
  1 12  1  0  0  0  0
  2  1  1  0  0  0  0
  2  7  1  0  0  0  0
  3  8  1  0  0  0  0
  4  3  2  0  0  0  0
  4 11  1  0  0  0  0
  5 11  1  0  0  0  0
  5  9  2  0  0  0  0
  6  5  1  0  0  0  0
  8  1  2  0  0  0  0
  9 10  1  0  0  0  0
 10  7  2  0  0  0  0
 10 19  1  0  0  0  0
 11  2  2  0  0  0  0
 12 14  2  0  0  0  0
 12 18  1  0  0  0  0
 14 15  1  0  0  0  0
 15 13  2  0  0  0  0
 16 13  1  0  0  0  0
 17 14  1  0  0  0  0
 18 16  2  0  0  0  0
 19 20  1  0  0  0  0
 20 21  1  0  0  0  0
 21 22  2  0  0  0  0
 21 23  1  0  0  0  0
 23 24  1  1  0  0  0
 23 25  1  0  0  0  0
M  END
>  <MODEL>
1

>  <REMARK>
 VINA RESULT:      -7.2      0.000      0.000
  Name = 
  5 active torsions:
  status: ('A' for Active; 'I' for Inactive)
    1  A    between atoms: C_1  and  C_5
    2  A    between atoms: C_2  and  C_21
    3  A    between atoms: C_6  and  C_15
    4  A    between atoms: C_6  and  C_23
    5  A    between atoms: C_15  and  C_21
                            x       y       z     vdW  Elec       q    Type
                         _______ _______ _______ _____ _____    ______ ____

>  <TORSDO>
F 5

$$$$
=
 OpenBabel11052417253D

 25 27  0  0  1  0  0  0  0  0999 V2000
  187.4300  177.3000  141.8750 C   0  0  0  0  0  0  0  0  0  0  0  0
  186.2360  177.6660  142.5410 C   0  0  0  0  0  0  0  0  0  0  0  0
  186.3460  177.5410  139.7630 C   0  0  0  0  0  3  0  0  0  0  0  0
  185.1500  177.8990  140.3790 C   0  0  0  0  0  3  0  0  0  0  0  0
  183.8870  178.3420  142.4230 C   0  0  0  0  0  0  0  0  0  0  0  0
  182.6450  178.6660  141.6590 C   0  0  0  0  0  1  0  0  0  0  0  0
  186.1710  177.7660  143.9390 C   0  0  0  0  0  3  0  0  0  0  0  0
  187.4410  177.2550  140.5120 N   0  0  0  0  0  0  0  0  0  0  0  0
  183.8490  178.4250  143.8160 C   0  0  0  0  0  3  0  0  0  0  0  0
  184.9840  178.1350  144.5740 C   0  0  0  0  0  0  0  0  0  0  0  0
  185.0810  177.9680  141.7740 C   0  0  0  0  0  0  0  0  0  0  0  0
  188.6760  176.9470  142.6010 C   0  0  0  0  0  0  0  0  0  0  0  0
  190.9790  176.3060  144.0320 C   0  0  0  0  0  3  0  0  0  0  0  0
  188.9940  175.6100  142.9220 C   0  0  0  0  0  0  0  0  0  0  0  0
  190.1300  175.3300  143.6170 N   0  0  0  0  0  0  0  0  0  0  0  0
  190.7020  177.6420  143.7470 C   0  0  0  0  0  3  0  0  0  0  0  0
  188.1600  174.5350  142.4970 N   0  0  0  0  0  1  0  0  0  0  0  0
  189.5460  177.9580  143.0330 C   0  0  0  0  0  3  0  0  0  0  0  0
  184.9390  178.2500  146.0570 C   0  0  0  0  0  2  0  0  0  0  0  0
  185.7950  177.1660  146.6900 C   0  0  0  0  0  2  0  0  0  0  0  0
  187.0790  177.7440  147.1850 C   0  0  0  0  0  0  0  0  0  0  0  0
  187.0670  178.6430  148.0130 O   0  0  0  0  0  0  0  0  0  0  0  0
  188.3750  177.2040  146.6700 C   0  0  2  0  0  3  0  0  0  0  0  0
  188.4340  175.6980  146.8450 C   0  0  0  0  0  1  0  0  0  0  0  0
  189.4410  177.7980  147.3440 O   0  0  0  0  0  1  0  0  0  0  0  0
  1  2  1  0  0  0  0
  1 12  1  0  0  0  0
  2  7  1  0  0  0  0
  3  4  2  0  0  0  0
  3  8  1  0  0  0  0
  4 11  1  0  0  0  0
  5  9  2  0  0  0  0
  6  5  1  0  0  0  0
  7 10  2  0  0  0  0
  8  1  2  0  0  0  0
  9 10  1  0  0  0  0
 10 19  1  0  0  0  0
 11  5  1  0  0  0  0
 11  2  2  0  0  0  0
 12 14  2  0  0  0  0
 12 18  1  0  0  0  0
 14 15  1  0  0  0  0
 15 13  2  0  0  0  0
 16 13  1  0  0  0  0
 17 14  1  0  0  0  0
 18 16  2  0  0  0  0
 19 20  1  0  0  0  0
 20 21  1  0  0  0  0
 21 22  2  0  0  0  0
 23 24  1  1  0  0  0
 23 21  1  0  0  0  0
 23 25  1  0  0  0  0
M  END
>  <MODEL>
2

>  <REMARK>
 VINA RESULT:      -7.0      1.816      3.362
  Name = 
  5 active torsions:
  status: ('A' for Active; 'I' for Inactive)
    1  A    between atoms: C_1  and  C_5
    2  A    between atoms: C_2  and  C_21
    3  A    between atoms: C_6  and  C_15
    4  A    between atoms: C_6  and  C_23
    5  A    between atoms: C_15  and  C_21
                            x       y       z     vdW  Elec       q    Type
                         _______ _______ _______ _____ _____    ______ ____

>  <TORSDO>
F 5

$$$$
=
 OpenBabel11052417253D

 25 27  0  0  1  0  0  0  0  0999 V2000
  189.9390  176.7720  143.3460 C   0  0  0  0  0  0  0  0  0  0  0  0
  189.6370  176.8740  144.7250 C   0  0  0  0  0  0  0  0  0  0  0  0
  192.2610  176.5610  143.8510 C   0  0  0  0  0  3  0  0  0  0  0  0
  192.0080  176.6630  145.2170 C   0  0  0  0  0  3  0  0  0  0  0  0
  190.4090  176.9110  147.0470 C   0  0  0  0  0  0  0  0  0  0  0  0
  191.4870  176.8610  148.0790 C   0  0  0  0  0  1  0  0  0  0  0  0
  188.3180  176.9990  145.1850 C   0  0  0  0  0  3  0  0  0  0  0  0
  191.2370  176.6150  142.9610 N   0  0  0  0  0  0  0  0  0  0  0  0
  189.0870  177.0430  147.4760 C   0  0  0  0  0  3  0  0  0  0  0  0
  188.0440  177.0910  146.5500 C   0  0  0  0  0  0  0  0  0  0  0  0
  190.6940  176.8190  145.6690 C   0  0  0  0  0  0  0  0  0  0  0  0
  188.8960  176.8420  142.2910 C   0  0  0  0  0  0  0  0  0  0  0  0
  186.9930  177.0030  140.2620 C   0  0  0  0  0  3  0  0  0  0  0  0
  188.5030  175.7010  141.5590 C   0  0  0  0  0  0  0  0  0  0  0  0
  187.5670  175.8130  140.5780 N   0  0  0  0  0  0  0  0  0  0  0  0
  187.3560  178.1580  140.9510 C   0  0  0  0  0  3  0  0  0  0  0  0
  189.0480  174.4170  141.8530 N   0  0  0  0  0  1  0  0  0  0  0  0
  188.3110  178.0730  141.9640 C   0  0  0  0  0  3  0  0  0  0  0  0
  186.6360  177.2090  147.0200 C   0  0  0  0  0  2  0  0  0  0  0  0
  185.6840  176.7190  145.9420 C   0  0  0  0  0  2  0  0  0  0  0  0
  184.8500  177.8480  145.4350 C   0  0  0  0  0  0  0  0  0  0  0  0
  183.9850  178.3370  146.1460 O   0  0  0  0  0  0  0  0  0  0  0  0
  185.0940  178.3820  144.0600 C   0  0  2  0  0  3  0  0  0  0  0  0
  185.5200  179.8380  144.1190 C   0  0  0  0  0  1  0  0  0  0  0  0
  183.9380  178.2610  143.2890 O   0  0  0  0  0  1  0  0  0  0  0  0
  1  2  1  0  0  0  0
  2  7  2  0  0  0  0
  2 11  1  0  0  0  0
  3  4  2  0  0  0  0
  4 11  1  0  0  0  0
  5  9  1  0  0  0  0
  5  6  1  0  0  0  0
  7 10  1  0  0  0  0
  8  1  2  0  0  0  0
  8  3  1  0  0  0  0
 10 19  1  0  0  0  0
 10  9  2  0  0  0  0
 11  5  2  0  0  0  0
 12  1  1  0  0  0  0
 13 15  2  0  0  0  0
 13 16  1  0  0  0  0
 14 17  1  0  0  0  0
 14 12  2  0  0  0  0
 15 14  1  0  0  0  0
 16 18  2  0  0  0  0
 18 12  1  0  0  0  0
 20 19  1  0  0  0  0
 21 20  1  0  0  0  0
 21 22  2  0  0  0  0
 23 24  1  1  0  0  0
 23 21  1  0  0  0  0
 25 23  1  0  0  0  0
M  END
>  <MODEL>
3

>  <REMARK>
 VINA RESULT:      -7.0      1.579      4.966
  Name = 
  5 active torsions:
  status: ('A' for Active; 'I' for Inactive)
    1  A    between atoms: C_1  and  C_5
    2  A    between atoms: C_2  and  C_21
    3  A    between atoms: C_6  and  C_15
    4  A    between atoms: C_6  and  C_23
    5  A    between atoms: C_15  and  C_21
                            x       y       z     vdW  Elec       q    Type
                         _______ _______ _______ _____ _____    ______ ____

>  <TORSDO>
F 5

$$$$
=
 OpenBabel11052417253D

 25 27  0  0  1  0  0  0  0  0999 V2000
  187.8580  176.1000  142.0710 C   0  0  0  0  0  0  0  0  0  0  0  0
  187.3960  176.7770  143.2250 C   0  0  0  0  0  0  0  0  0  0  0  0
  186.7850  177.7090  140.6760 C   0  0  0  0  0  3  0  0  0  0  0  0
  186.3040  178.4010  141.7840 C   0  0  0  0  0  3  0  0  0  0  0  0
  186.1440  178.6340  144.2110 C   0  0  0  0  0  0  0  0  0  0  0  0
  185.3070  179.8660  144.1000 C   0  0  0  0  0  1  0  0  0  0  0  0
  187.7210  176.3390  144.5180 C   0  0  0  0  0  3  0  0  0  0  0  0
  187.5390  176.5930  140.8410 N   0  0  0  0  0  0  0  0  0  0  0  0
  186.4770  178.1710  145.4860 C   0  0  0  0  0  3  0  0  0  0  0  0
  187.2590  177.0260  145.6420 C   0  0  0  0  0  0  0  0  0  0  0  0
  186.6060  177.9440  143.0710 C   0  0  0  0  0  0  0  0  0  0  0  0
  188.6710  174.8580  142.1430 C   0  0  0  0  0  0  0  0  0  0  0  0
  190.1920  172.5260  142.1990 C   0  0  0  0  0  3  0  0  0  0  0  0
  190.0720  174.8980  142.3100 C   0  0  0  0  0  0  0  0  0  0  0  0
  190.7850  173.7400  142.3370 N   0  0  0  0  0  0  0  0  0  0  0  0
  188.8130  172.4370  142.0230 C   0  0  0  0  0  3  0  0  0  0  0  0
  190.7550  176.1370  142.4840 N   0  0  0  0  0  1  0  0  0  0  0  0
  188.0560  173.6080  141.9930 C   0  0  0  0  0  3  0  0  0  0  0  0
  187.6270  176.5540  147.0050 C   0  0  0  0  0  2  0  0  0  0  0  0
  188.9040  175.7330  146.9460 C   0  0  0  0  0  2  0  0  0  0  0  0
  190.0970  176.6280  147.0010 C   0  0  0  0  0  0  0  0  0  0  0  0
  190.0680  177.6440  147.6800 O   0  0  0  0  0  0  0  0  0  0  0  0
  191.3250  176.2630  146.2320 C   0  0  2  0  0  3  0  0  0  0  0  0
  191.3110  174.7890  145.8690 C   0  0  0  0  0  1  0  0  0  0  0  0
  192.4630  176.5500  146.9850 O   0  0  0  0  0  1  0  0  0  0  0  0
  1 12  1  0  0  0  0
  1  2  1  0  0  0  0
  2  7  1  0  0  0  0
  3  8  1  0  0  0  0
  3  4  2  0  0  0  0
  4 11  1  0  0  0  0
  5  9  2  0  0  0  0
  6  5  1  0  0  0  0
  7 10  2  0  0  0  0
  8  1  2  0  0  0  0
  9 10  1  0  0  0  0
 10 19  1  0  0  0  0
 11  2  2  0  0  0  0
 11  5  1  0  0  0  0
 12 14  1  0  0  0  0
 13 15  1  0  0  0  0
 14 15  2  0  0  0  0
 14 17  1  0  0  0  0
 16 13  2  0  0  0  0
 18 16  1  0  0  0  0
 18 12  2  0  0  0  0
 20 21  1  0  0  0  0
 20 19  1  0  0  0  0
 21 22  2  0  0  0  0
 23 24  1  1  0  0  0
 23 25  1  0  0  0  0
 23 21  1  0  0  0  0
M  END
>  <MODEL>
4

>  <REMARK>
 VINA RESULT:      -6.8      2.273      4.491
  Name = 
  5 active torsions:
  status: ('A' for Active; 'I' for Inactive)
    1  A    between atoms: C_1  and  C_5
    2  A    between atoms: C_2  and  C_21
    3  A    between atoms: C_6  and  C_15
    4  A    between atoms: C_6  and  C_23
    5  A    between atoms: C_15  and  C_21
                            x       y       z     vdW  Elec       q    Type
                         _______ _______ _______ _____ _____    ______ ____

>  <TORSDO>
F 5

$$$$
=
 OpenBabel11052417253D

 25 27  0  0  1  0  0  0  0  0999 V2000
  188.3540  177.2850  142.9610 C   0  0  0  0  0  0  0  0  0  0  0  0
  187.6940  177.1890  144.2100 C   0  0  0  0  0  0  0  0  0  0  0  0
  186.5960  178.6590  142.1170 C   0  0  0  0  0  3  0  0  0  0  0  0
  185.9100  178.5840  143.3270 C   0  0  0  0  0  3  0  0  0  0  0  0
  185.7860  177.7700  145.6270 C   0  0  0  0  0  0  0  0  0  0  0  0
  184.4750  178.4470  145.8620 C   0  0  0  0  0  1  0  0  0  0  0  0
  188.2480  176.4800  145.2860 C   0  0  0  0  0  3  0  0  0  0  0  0
  187.7830  178.0190  141.9640 N   0  0  0  0  0  0  0  0  0  0  0  0
  186.3570  177.0500  146.6780 C   0  0  0  0  0  3  0  0  0  0  0  0
  187.5820  176.4030  146.5090 C   0  0  0  0  0  0  0  0  0  0  0  0
  186.4520  177.8500  144.3870 C   0  0  0  0  0  0  0  0  0  0  0  0
  189.6460  176.6060  142.6840 C   0  0  0  0  0  0  0  0  0  0  0  0
  192.0730  175.3140  142.2410 C   0  0  0  0  0  3  0  0  0  0  0  0
  189.6970  175.3010  142.1480 C   0  0  0  0  0  0  0  0  0  0  0  0
  190.8990  174.7000  141.9390 N   0  0  0  0  0  0  0  0  0  0  0  0
  192.0720  176.5980  142.7810 C   0  0  0  0  0  3  0  0  0  0  0  0
  188.5050  174.6090  141.7860 N   0  0  0  0  0  1  0  0  0  0  0  0
  190.8540  177.2400  143.0030 C   0  0  0  0  0  3  0  0  0  0  0  0
  188.1940  175.6570  147.6440 C   0  0  0  0  0  2  0  0  0  0  0  0
  189.3250  174.7780  147.1400 C   0  0  0  0  0  2  0  0  0  0  0  0
  190.6360  175.4700  147.3170 C   0  0  0  0  0  0  0  0  0  0  0  0
  190.7100  176.4690  148.0170 O   0  0  0  0  0  0  0  0  0  0  0  0
  191.8530  174.9220  146.6430 C   0  0  2  0  0  3  0  0  0  0  0  0
  192.8320  176.0360  146.3190 C   0  0  0  0  0  1  0  0  0  0  0  0
  191.4910  174.2580  145.4710 O   0  0  0  0  0  1  0  0  0  0  0  0
  1  2  1  0  0  0  0
  2 11  2  0  0  0  0
  2  7  1  0  0  0  0
  3  4  2  0  0  0  0
  4 11  1  0  0  0  0
  5  6  1  0  0  0  0
  5  9  2  0  0  0  0
  7 10  2  0  0  0  0
  8  3  1  0  0  0  0
  8  1  2  0  0  0  0
 10  9  1  0  0  0  0
 10 19  1  0  0  0  0
 11  5  1  0  0  0  0
 12  1  1  0  0  0  0
 12 18  1  0  0  0  0
 13 16  1  0  0  0  0
 14 12  2  0  0  0  0
 15 14  1  0  0  0  0
 15 13  2  0  0  0  0
 16 18  2  0  0  0  0
 17 14  1  0  0  0  0
 20 21  1  0  0  0  0
 20 19  1  0  0  0  0
 21 22  2  0  0  0  0
 23 24  1  6  0  0  0
 23 21  1  0  0  0  0
 25 23  1  0  0  0  0
M  END
>  <MODEL>
5

>  <REMARK>
 VINA RESULT:      -6.8      2.587      5.139
  Name = 
  5 active torsions:
  status: ('A' for Active; 'I' for Inactive)
    1  A    between atoms: C_1  and  C_5
    2  A    between atoms: C_2  and  C_21
    3  A    between atoms: C_6  and  C_15
    4  A    between atoms: C_6  and  C_23
    5  A    between atoms: C_15  and  C_21
                            x       y       z     vdW  Elec       q    Type
                         _______ _______ _______ _____ _____    ______ ____

>  <TORSDO>
F 5

$$$$
=
 OpenBabel11052417253D

 25 27  0  0  1  0  0  0  0  0999 V2000
  187.0470  176.4590  142.7980 C   0  0  0  0  0  0  0  0  0  0  0  0
  186.7300  176.7360  144.1500 C   0  0  0  0  0  0  0  0  0  0  0  0
  185.1730  177.7470  142.0780 C   0  0  0  0  0  3  0  0  0  0  0  0
  184.8230  178.0380  143.3930 C   0  0  0  0  0  3  0  0  0  0  0  0
  185.2750  177.8290  145.7850 C   0  0  0  0  0  0  0  0  0  0  0  0
  184.0910  178.6660  146.1450 C   0  0  0  0  0  1  0  0  0  0  0  0
  187.5230  176.2610  145.2060 C   0  0  0  0  0  3  0  0  0  0  0  0
  186.2600  176.9770  141.8140 N   0  0  0  0  0  0  0  0  0  0  0  0
  186.0770  177.3360  146.8160 C   0  0  0  0  0  3  0  0  0  0  0  0
  187.1950  176.5520  146.5310 C   0  0  0  0  0  0  0  0  0  0  0  0
  185.5980  177.5370  144.4440 C   0  0  0  0  0  0  0  0  0  0  0  0
  188.2000  175.6100  142.4040 C   0  0  0  0  0  0  0  0  0  0  0  0
  190.3410  174.0250  141.5880 C   0  0  0  0  0  3  0  0  0  0  0  0
  189.5040  176.1380  142.2880 C   0  0  0  0  0  0  0  0  0  0  0  0
  190.5290  175.3360  141.8920 N   0  0  0  0  0  0  0  0  0  0  0  0
  189.0700  173.4610  141.6790 C   0  0  0  0  0  3  0  0  0  0  0  0
  189.7760  177.4990  142.6130 N   0  0  0  0  0  1  0  0  0  0  0  0
  188.0010  174.2600  142.0850 C   0  0  0  0  0  3  0  0  0  0  0  0
  188.0570  176.0510  147.6370 C   0  0  0  0  0  2  0  0  0  0  0  0
  188.9360  174.9160  147.1410 C   0  0  0  0  0  2  0  0  0  0  0  0
  190.3650  175.3450  147.1090 C   0  0  0  0  0  0  0  0  0  0  0  0
  190.8180  176.0330  148.0130 O   0  0  0  0  0  0  0  0  0  0  0  0
  191.2370  174.9140  145.9730 C   0  0  2  0  0  3  0  0  0  0  0  0
  191.8000  176.1200  145.2440 C   0  0  0  0  0  1  0  0  0  0  0  0
  190.5060  174.1260  145.0840 O   0  0  0  0  0  1  0  0  0  0  0  0
  1  2  1  0  0  0  0
  2 11  2  0  0  0  0
  2  7  1  0  0  0  0
  3  4  2  0  0  0  0
  4 11  1  0  0  0  0
  5  6  1  0  0  0  0
  5  9  2  0  0  0  0
  7 10  2  0  0  0  0
  8  3  1  0  0  0  0
  8  1  2  0  0  0  0
 10  9  1  0  0  0  0
 10 19  1  0  0  0  0
 11  5  1  0  0  0  0
 12  1  1  0  0  0  0
 13 16  2  0  0  0  0
 13 15  1  0  0  0  0
 14 12  1  0  0  0  0
 14 17  1  0  0  0  0
 15 14  2  0  0  0  0
 16 18  1  0  0  0  0
 18 12  2  0  0  0  0
 20 19  1  0  0  0  0
 21 20  1  0  0  0  0
 21 22  2  0  0  0  0
 23 24  1  6  0  0  0
 23 21  1  0  0  0  0
 25 23  1  0  0  0  0
M  END
>  <MODEL>
6

>  <REMARK>
 VINA RESULT:      -6.8      2.544      5.084
  Name = 
  5 active torsions:
  status: ('A' for Active; 'I' for Inactive)
    1  A    between atoms: C_1  and  C_5
    2  A    between atoms: C_2  and  C_21
    3  A    between atoms: C_6  and  C_15
    4  A    between atoms: C_6  and  C_23
    5  A    between atoms: C_15  and  C_21
                            x       y       z     vdW  Elec       q    Type
                         _______ _______ _______ _____ _____    ______ ____

>  <TORSDO>
F 5

$$$$
=
 OpenBabel11052417253D

 25 27  0  0  1  0  0  0  0  0999 V2000
  188.1170  177.4200  146.4300 C   0  0  0  0  0  0  0  0  0  0  0  0
  187.1720  177.5390  145.3830 C   0  0  0  0  0  0  0  0  0  0  0  0
  186.6590  178.6010  147.9030 C   0  0  0  0  0  3  0  0  0  0  0  0
  185.7050  178.7450  146.8990 C   0  0  0  0  0  3  0  0  0  0  0  0
  184.9950  178.3330  144.5980 C   0  0  0  0  0  0  0  0  0  0  0  0
  183.6950  179.0380  144.8080 C   0  0  0  0  0  1  0  0  0  0  0  0
  187.4000  176.9810  144.1160 C   0  0  0  0  0  3  0  0  0  0  0  0
  187.8240  177.9520  147.6510 N   0  0  0  0  0  0  0  0  0  0  0  0
  185.2520  177.7760  143.3450 C   0  0  0  0  0  3  0  0  0  0  0  0
  186.4510  177.1050  143.1000 C   0  0  0  0  0  0  0  0  0  0  0  0
  185.9500  178.2140  145.6290 C   0  0  0  0  0  0  0  0  0  0  0  0
  189.4300  176.7490  146.2510 C   0  0  0  0  0  0  0  0  0  0  0  0
  191.9230  175.5370  145.9720 C   0  0  0  0  0  3  0  0  0  0  0  0
  189.7080  175.4960  146.8390 C   0  0  0  0  0  0  0  0  0  0  0  0
  190.9350  174.9290  146.6790 N   0  0  0  0  0  0  0  0  0  0  0  0
  191.6970  176.7780  145.3810 C   0  0  0  0  0  3  0  0  0  0  0  0
  188.7110  174.7930  147.5740 N   0  0  0  0  0  1  0  0  0  0  0  0
  190.4490  177.3820  145.5260 C   0  0  0  0  0  3  0  0  0  0  0  0
  186.7050  176.4940  141.7660 C   0  0  0  0  0  2  0  0  0  0  0  0
  188.1900  176.2240  141.5910 C   0  0  0  0  0  2  0  0  0  0  0  0
  188.4110  174.8130  141.1580 C   0  0  0  0  0  0  0  0  0  0  0  0
  188.5040  174.5460  139.9690 O   0  0  0  0  0  0  0  0  0  0  0  0
  188.5320  173.7390  142.1900 C   0  0  2  0  0  3  0  0  0  0  0  0
  189.4940  174.1570  143.2870 C   0  0  0  0  0  1  0  0  0  0  0  0
  188.9790  172.5570  141.5980 O   0  0  0  0  0  1  0  0  0  0  0  0
  1  8  1  0  0  0  0
  2 11  1  0  0  0  0
  2  1  2  0  0  0  0
  4  3  1  0  0  0  0
  5  6  1  0  0  0  0
  5 11  1  0  0  0  0
  7  2  1  0  0  0  0
  8  3  2  0  0  0  0
  9  5  2  0  0  0  0
 10  9  1  0  0  0  0
 10  7  2  0  0  0  0
 11  4  2  0  0  0  0
 12  1  1  0  0  0  0
 12 14  1  0  0  0  0
 13 15  1  0  0  0  0
 14 17  1  0  0  0  0
 15 14  2  0  0  0  0
 16 18  1  0  0  0  0
 16 13  2  0  0  0  0
 18 12  2  0  0  0  0
 19 10  1  0  0  0  0
 20 19  1  0  0  0  0
 21 20  1  0  0  0  0
 21 23  1  0  0  0  0
 22 21  2  0  0  0  0
 23 24  1  1  0  0  0
 25 23  1  0  0  0  0
M  END
>  <MODEL>
7

>  <REMARK>
 VINA RESULT:      -6.6      3.107      5.219
  Name = 
  5 active torsions:
  status: ('A' for Active; 'I' for Inactive)
    1  A    between atoms: C_1  and  C_5
    2  A    between atoms: C_2  and  C_21
    3  A    between atoms: C_6  and  C_15
    4  A    between atoms: C_6  and  C_23
    5  A    between atoms: C_15  and  C_21
                            x       y       z     vdW  Elec       q    Type
                         _______ _______ _______ _____ _____    ______ ____

>  <TORSDO>
F 5

$$$$
=
 OpenBabel11052417253D

 25 27  0  0  1  0  0  0  0  0999 V2000
  187.4310  177.3070  146.1770 C   0  0  0  0  0  0  0  0  0  0  0  0
  186.8440  177.2750  144.8890 C   0  0  0  0  0  0  0  0  0  0  0  0
  185.6460  178.6740  146.9740 C   0  0  0  0  0  3  0  0  0  0  0  0
  185.0390  178.6730  145.7210 C   0  0  0  0  0  3  0  0  0  0  0  0
  185.0290  177.9420  143.3890 C   0  0  0  0  0  0  0  0  0  0  0  0
  183.7530  178.6630  143.1040 C   0  0  0  0  0  1  0  0  0  0  0  0
  187.4170  176.5480  143.8340 C   0  0  0  0  0  3  0  0  0  0  0  0
  186.8090  178.0020  147.1710 N   0  0  0  0  0  0  0  0  0  0  0  0
  185.6260  177.2170  142.3570 C   0  0  0  0  0  3  0  0  0  0  0  0
  186.8180  176.5240  142.5750 C   0  0  0  0  0  0  0  0  0  0  0  0
  185.6300  177.9720  144.6650 C   0  0  0  0  0  0  0  0  0  0  0  0
  188.7120  176.6240  146.4910 C   0  0  0  0  0  0  0  0  0  0  0  0
  191.0980  175.2880  147.0240 C   0  0  0  0  0  3  0  0  0  0  0  0
  189.9450  177.0930  145.9890 C   0  0  0  0  0  0  0  0  0  0  0  0
  191.0930  176.4200  146.2720 N   0  0  0  0  0  0  0  0  0  0  0  0
  189.9030  174.7820  147.5340 C   0  0  0  0  0  3  0  0  0  0  0  0
  190.0150  178.2860  145.2130 N   0  0  0  0  0  1  0  0  0  0  0  0
  188.7120  175.4530  147.2610 C   0  0  0  0  0  3  0  0  0  0  0  0
  187.4340  175.7350  141.4720 C   0  0  0  0  0  2  0  0  0  0  0  0
  187.8590  174.3690  141.9830 C   0  0  0  0  0  2  0  0  0  0  0  0
  189.2880  174.1100  141.6370 C   0  0  0  0  0  0  0  0  0  0  0  0
  189.5960  173.8180  140.4910 O   0  0  0  0  0  0  0  0  0  0  0  0
  190.3340  174.2240  142.6990 C   0  0  2  0  0  3  0  0  0  0  0  0
  189.8220  173.6660  144.0150 C   0  0  0  0  0  1  0  0  0  0  0  0
  190.7010  175.5590  142.8660 O   0  0  0  0  0  1  0  0  0  0  0  0
  1 12  1  0  0  0  0
  1  8  1  0  0  0  0
  2  1  2  0  0  0  0
  3  8  2  0  0  0  0
  4  3  1  0  0  0  0
  5 11  1  0  0  0  0
  6  5  1  0  0  0  0
  7  2  1  0  0  0  0
  9 10  1  0  0  0  0
  9  5  2  0  0  0  0
 10  7  2  0  0  0  0
 11  2  1  0  0  0  0
 11  4  2  0  0  0  0
 12 18  1  0  0  0  0
 13 16  1  0  0  0  0
 14 15  1  0  0  0  0
 14 12  2  0  0  0  0
 15 13  2  0  0  0  0
 17 14  1  0  0  0  0
 18 16  2  0  0  0  0
 19 20  1  0  0  0  0
 19 10  1  0  0  0  0
 21 20  1  0  0  0  0
 21 23  1  0  0  0  0
 22 21  2  0  0  0  0
 23 25  1  0  0  0  0
 23 24  1  1  0  0  0
M  END
>  <MODEL>
8

>  <REMARK>
 VINA RESULT:      -6.6      2.953      4.894
  Name = 
  5 active torsions:
  status: ('A' for Active; 'I' for Inactive)
    1  A    between atoms: C_1  and  C_5
    2  A    between atoms: C_2  and  C_21
    3  A    between atoms: C_6  and  C_15
    4  A    between atoms: C_6  and  C_23
    5  A    between atoms: C_15  and  C_21
                            x       y       z     vdW  Elec       q    Type
                         _______ _______ _______ _____ _____    ______ ____

>  <TORSDO>
F 5

$$$$
=
 OpenBabel11052417253D

 25 27  0  0  1  0  0  0  0  0999 V2000
  189.3170  174.9070  144.8130 C   0  0  0  0  0  0  0  0  0  0  0  0
  188.4050  175.9840  144.9220 C   0  0  0  0  0  0  0  0  0  0  0  0
  189.2390  174.5810  147.1750 C   0  0  0  0  0  3  0  0  0  0  0  0
  188.3460  175.6380  147.3270 C   0  0  0  0  0  3  0  0  0  0  0  0
  187.0020  177.4160  146.3260 C   0  0  0  0  0  0  0  0  0  0  0  0
  186.4630  177.8410  147.6520 C   0  0  0  0  0  1  0  0  0  0  0  0
  187.9490  176.6820  143.7930 C   0  0  0  0  0  3  0  0  0  0  0  0
  189.6960  174.2430  145.9430 N   0  0  0  0  0  0  0  0  0  0  0  0
  186.5720  178.0980  145.1860 C   0  0  0  0  0  3  0  0  0  0  0  0
  187.0440  177.7360  143.9230 C   0  0  0  0  0  0  0  0  0  0  0  0
  187.9180  176.3500  146.2020 C   0  0  0  0  0  0  0  0  0  0  0  0
  189.8930  174.4730  143.5150 C   0  0  0  0  0  0  0  0  0  0  0  0
  190.9200  173.7040  141.0430 C   0  0  0  0  0  3  0  0  0  0  0  0
  191.0680  175.0560  142.9940 C   0  0  0  0  0  0  0  0  0  0  0  0
  191.5470  174.6540  141.7850 N   0  0  0  0  0  0  0  0  0  0  0  0
  189.7520  173.1070  141.5120 C   0  0  0  0  0  3  0  0  0  0  0  0
  191.7880  176.0410  143.7300 N   0  0  0  0  0  1  0  0  0  0  0  0
  189.2410  173.4970  142.7490 C   0  0  0  0  0  3  0  0  0  0  0  0
  186.5610  178.4550  142.7130 C   0  0  0  0  0  2  0  0  0  0  0  0
  185.5600  177.5950  141.9600 C   0  0  0  0  0  2  0  0  0  0  0  0
  184.1970  178.1990  142.0400 C   0  0  0  0  0  0  0  0  0  0  0  0
  183.7280  178.5080  143.1260 O   0  0  0  0  0  0  0  0  0  0  0  0
  183.4230  178.4330  140.7830 C   0  0  2  0  0  3  0  0  0  0  0  0
  181.9570  178.0950  140.9870 C   0  0  0  0  0  1  0  0  0  0  0  0
  183.9450  177.6570  139.7490 O   0  0  0  0  0  1  0  0  0  0  0  0
  1  2  2  0  0  0  0
  1  8  1  0  0  0  0
  2 11  1  0  0  0  0
  3  4  1  0  0  0  0
  5  6  1  0  0  0  0
  7 10  2  0  0  0  0
  7  2  1  0  0  0  0
  8  3  2  0  0  0  0
  9  5  2  0  0  0  0
 10  9  1  0  0  0  0
 11  5  1  0  0  0  0
 11  4  2  0  0  0  0
 12  1  1  0  0  0  0
 13 16  2  0  0  0  0
 13 15  1  0  0  0  0
 14 12  1  0  0  0  0
 14 17  1  0  0  0  0
 15 14  2  0  0  0  0
 16 18  1  0  0  0  0
 18 12  2  0  0  0  0
 19 10  1  0  0  0  0
 20 21  1  0  0  0  0
 20 19  1  0  0  0  0
 21 22  2  0  0  0  0
 23 24  1  1  0  0  0
 23 21  1  0  0  0  0
 25 23  1  0  0  0  0
M  END
>  <MODEL>
9

>  <REMARK>
 VINA RESULT:      -6.5      2.357      4.786
  Name = 
  5 active torsions:
  status: ('A' for Active; 'I' for Inactive)
    1  A    between atoms: C_1  and  C_5
    2  A    between atoms: C_2  and  C_21
    3  A    between atoms: C_6  and  C_15
    4  A    between atoms: C_6  and  C_23
    5  A    between atoms: C_15  and  C_21
                            x       y       z     vdW  Elec       q    Type
                         _______ _______ _______ _____ _____    ______ ____

>  <TORSDO>
F 5

$$$$
