=
 OpenBabel11052421273D

 32 36  0  0  1  0  0  0  0  0999 V2000
  193.6250  175.5110  146.2650 C   0  0  0  0  0  3  0  0  0  0  0  0
  190.0320  177.9520  142.9550 C   0  0  0  0  0  3  0  0  0  0  0  0
  186.0050  176.6810  147.2070 C   0  0  0  0  0  3  0  0  0  0  0  0
  185.1160  177.1820  146.2300 C   0  0  0  0  0  3  0  0  0  0  0  0
  191.8020  176.5050  143.8830 C   0  0  0  0  0  0  0  0  0  0  0  0
  190.3350  176.7620  145.8740 C   0  0  0  0  0  3  0  0  0  0  0  0
  192.6110  176.3680  146.3260 C   0  0  0  0  0  3  0  0  0  0  0  0
  187.3830  176.5870  146.9400 C   0  0  0  0  0  3  0  0  0  0  0  0
  189.0970  177.0420  145.1460 C   0  0  0  0  0  0  0  0  0  0  0  0
  187.8260  176.9940  145.6830 C   0  0  0  0  0  0  0  0  0  0  0  0
  187.6420  177.8490  143.6280 N   0  0  0  0  0  0  0  0  0  0  0  0
  193.4880  174.6130  143.9570 C   0  0  0  0  0  3  0  0  0  0  0  0
  191.5340  176.5270  145.3450 C   0  0  0  0  0  0  0  0  0  0  0  0
  192.6710  175.6600  143.3270 C   0  0  0  0  0  3  0  0  0  0  0  0
  193.8960  174.5070  145.2270 C   0  0  0  0  0  0  0  0  0  0  0  0
  185.5950  177.5960  144.9740 C   0  0  0  0  0  3  0  0  0  0  0  0
  186.9650  177.4850  144.7340 C   0  0  0  0  0  0  0  0  0  0  0  0
  191.2360  177.4720  142.9860 N   0  0  0  0  0  0  0  0  0  0  0  0
  188.9500  177.5820  143.8740 C   0  0  0  0  0  0  0  0  0  0  0  0
  196.1820  173.3880  145.6190 C   0  0  0  0  0  0  0  0  0  0  0  0
  194.7470  173.4180  145.6170 N   0  0  0  0  0  2  0  0  0  0  0  0
  196.8610  174.3580  145.1880 O   0  0  0  0  0  0  0  0  0  0  0  0
  196.8800  172.1790  146.1250 C   0  0  0  0  0  1  0  0  0  0  0  0
  187.0850  178.4910  142.4410 C   0  0  0  0  0  2  0  0  0  0  0  0
  187.3460  176.2680  141.5500 O   0  0  0  0  0  0  0  0  0  0  0  0
  187.9940  175.6010  140.4890 C   0  0  2  0  0  3  0  0  0  0  0  0
  186.3050  177.8820  140.0890 C   0  0  1  0  0  3  0  0  0  0  0  0
  186.4910  176.8630  138.9940 C   0  0  0  0  0  3  0  0  0  0  0  0
  187.2430  175.7690  139.1890 C   0  0  0  0  0  3  0  0  0  0  0  0
  188.1290  174.1280  140.8160 C   0  0  0  0  0  1  0  0  0  0  0  0
  185.0070  177.7650  140.5950 O   0  0  0  0  0  1  0  0  0  0  0  0
  187.3370  177.6330  141.2060 C   0  0  1  0  0  3  0  0  0  0  0  0
  1  7  1  0  0  0  0
  2 18  1  0  0  0  0
  2 19  2  0  0  0  0
  4  3  2  0  0  0  0
  5 13  1  0  0  0  0
  8  3  1  0  0  0  0
  9 10  1  0  0  0  0
  9  6  2  0  0  0  0
 10  8  2  0  0  0  0
 11 19  1  0  0  0  0
 11 17  1  0  0  0  0
 12 15  1  0  0  0  0
 13  6  1  0  0  0  0
 13  7  2  0  0  0  0
 14  5  1  0  0  0  0
 14 12  2  0  0  0  0
 15 21  1  0  0  0  0
 15  1  2  0  0  0  0
 16  4  1  0  0  0  0
 17 16  2  0  0  0  0
 17 10  1  0  0  0  0
 18  5  2  0  0  0  0
 19  9  1  0  0  0  0
 20 23  1  0  0  0  0
 21 20  1  0  0  0  0
 22 20  2  0  0  0  0
 24 11  1  0  0  0  0
 26 30  1  1  0  0  0
 26 25  1  0  0  0  0
 27 31  1  1  0  0  0
 27 32  1  0  0  0  0
 28 29  2  0  0  0  0
 28 27  1  0  0  0  0
 29 26  1  0  0  0  0
 32 25  1  0  0  0  0
 32 24  1  1  0  0  0
M  END
>  <MODEL>
1

>  <REMARK>
 VINA RESULT:      -8.6      0.000      0.000
  Name = 
  3 active torsions:
  status: ('A' for Active; 'I' for Inactive)
    1  A    between atoms: N_10  and  C_24
    2  A    between atoms: N_16  and  C_27
    3  A    between atoms: C_27  and  C_32
                            x       y       z     vdW  Elec       q    Type
                         _______ _______ _______ _____ _____    ______ ____

>  <TORSDO>
F 3

$$$$
=
 OpenBabel11052421273D

 32 36  0  0  1  0  0  0  0  0999 V2000
  184.7230  178.2640  140.4600 C   0  0  0  0  0  3  0  0  0  0  0  0
  188.1330  177.1690  144.5830 C   0  0  0  0  0  3  0  0  0  0  0  0
  189.4680  172.2050  141.5040 C   0  0  0  0  0  3  0  0  0  0  0  0
  190.2010  171.9180  142.6770 C   0  0  0  0  0  3  0  0  0  0  0  0
  186.1520  177.7460  143.2310 C   0  0  0  0  0  0  0  0  0  0  0  0
  187.3210  176.1910  141.6820 C   0  0  0  0  0  3  0  0  0  0  0  0
  185.9580  177.8160  140.6610 C   0  0  0  0  0  3  0  0  0  0  0  0
  188.7000  173.3790  141.4090 C   0  0  0  0  0  3  0  0  0  0  0  0
  188.0590  175.4470  142.7030 C   0  0  0  0  0  0  0  0  0  0  0  0
  188.6870  174.2320  142.5100 C   0  0  0  0  0  0  0  0  0  0  0  0
  189.2590  174.9540  144.5450 N   0  0  0  0  0  0  0  0  0  0  0  0
  183.7130  178.2240  142.7240 C   0  0  0  0  0  3  0  0  0  0  0  0
  186.4820  177.2050  141.8860 C   0  0  0  0  0  0  0  0  0  0  0  0
  184.9330  178.1880  143.5440 C   0  0  0  0  0  3  0  0  0  0  0  0
  183.5890  178.2320  141.3920 C   0  0  0  0  0  0  0  0  0  0  0  0
  190.1760  172.8050  143.7690 C   0  0  0  0  0  3  0  0  0  0  0  0
  189.4010  173.9590  143.6490 C   0  0  0  0  0  0  0  0  0  0  0  0
  187.1490  177.9420  144.2430 N   0  0  0  0  0  0  0  0  0  0  0  0
  188.4380  175.8710  143.9710 C   0  0  0  0  0  0  0  0  0  0  0  0
  181.1060  178.9170  141.3640 C   0  0  0  0  0  0  0  0  0  0  0  0
  182.2860  178.3300  140.7960 N   0  0  0  0  0  2  0  0  0  0  0  0
  181.0980  179.3690  142.5410 O   0  0  0  0  0  0  0  0  0  0  0  0
  179.8640  178.9770  140.5530 C   0  0  0  0  0  1  0  0  0  0  0  0
  189.9320  175.0640  145.8360 C   0  0  0  0  0  2  0  0  0  0  0  0
  191.8040  175.8690  144.5500 O   0  0  0  0  0  0  0  0  0  0  0  0
  193.1110  175.4810  144.1890 C   0  0  2  0  0  3  0  0  0  0  0  0
  192.2000  175.5330  146.9060 C   0  0  1  0  0  3  0  0  0  0  0  0
  193.6620  175.7030  146.5830 C   0  0  0  0  0  3  0  0  0  0  0  0
  194.0910  175.7270  145.3120 C   0  0  0  0  0  3  0  0  0  0  0  0
  193.5470  176.2390  142.9530 C   0  0  0  0  0  1  0  0  0  0  0  0
  191.6920  176.7570  147.3470 O   0  0  0  0  0  1  0  0  0  0  0  0
  191.4450  175.0640  145.6470 C   0  0  1  0  0  3  0  0  0  0  0  0
  1  7  2  0  0  0  0
  1 15  1  0  0  0  0
  3  4  1  0  0  0  0
  4 16  2  0  0  0  0
  5 14  2  0  0  0  0
  5 18  1  0  0  0  0
  6 13  2  0  0  0  0
  6  9  1  0  0  0  0
  7 13  1  0  0  0  0
  8  3  2  0  0  0  0
  8 10  1  0  0  0  0
  9 19  2  0  0  0  0
 10  9  1  0  0  0  0
 10 17  2  0  0  0  0
 11 24  1  0  0  0  0
 12 14  1  0  0  0  0
 13  5  1  0  0  0  0
 15 12  2  0  0  0  0
 17 16  1  0  0  0  0
 17 11  1  0  0  0  0
 18  2  2  0  0  0  0
 19 11  1  0  0  0  0
 19  2  1  0  0  0  0
 20 22  2  0  0  0  0
 21 20  1  0  0  0  0
 21 15  1  0  0  0  0
 23 20  1  0  0  0  0
 25 32  1  0  0  0  0
 26 30  1  6  0  0  0
 26 25  1  0  0  0  0
 26 29  1  0  0  0  0
 27 31  1  6  0  0  0
 28 27  1  0  0  0  0
 29 28  2  0  0  0  0
 32 24  1  1  0  0  0
 32 27  1  0  0  0  0
M  END
>  <MODEL>
2

>  <REMARK>
 VINA RESULT:      -8.1      3.089      9.008
  Name = 
  3 active torsions:
  status: ('A' for Active; 'I' for Inactive)
    1  A    between atoms: N_10  and  C_24
    2  A    between atoms: N_16  and  C_27
    3  A    between atoms: C_27  and  C_32
                            x       y       z     vdW  Elec       q    Type
                         _______ _______ _______ _____ _____    ______ ____

>  <TORSDO>
F 3

$$$$
=
 OpenBabel11052421273D

 32 36  0  0  1  0  0  0  0  0999 V2000
  197.0290  172.9600  145.9020 C   0  0  0  0  0  3  0  0  0  0  0  0
  193.2730  175.4560  142.8220 C   0  0  0  0  0  3  0  0  0  0  0  0
  190.7630  177.0240  148.0330 C   0  0  0  0  0  3  0  0  0  0  0  0
  189.7530  177.5030  147.1690 C   0  0  0  0  0  3  0  0  0  0  0  0
  194.8200  173.8050  143.8060 C   0  0  0  0  0  0  0  0  0  0  0  0
  194.2420  175.1430  145.8210 C   0  0  0  0  0  3  0  0  0  0  0  0
  196.3540  174.1030  145.8570 C   0  0  0  0  0  3  0  0  0  0  0  0
  191.8930  176.3650  147.5160 C   0  0  0  0  0  3  0  0  0  0  0  0
  192.9450  175.6260  145.3450 C   0  0  0  0  0  0  0  0  0  0  0  0
  191.9680  176.1990  146.1340 C   0  0  0  0  0  0  0  0  0  0  0  0
  191.3170  176.4240  144.0100 N   0  0  0  0  0  0  0  0  0  0  0  0
  195.8860  171.5410  144.2190 C   0  0  0  0  0  3  0  0  0  0  0  0
  195.0850  174.3470  145.1650 C   0  0  0  0  0  0  0  0  0  0  0  0
  195.1990  172.5800  143.4390 C   0  0  0  0  0  3  0  0  0  0  0  0
  196.6620  171.6700  145.3020 C   0  0  0  0  0  0  0  0  0  0  0  0
  189.8620  177.3310  145.7780 C   0  0  0  0  0  3  0  0  0  0  0  0
  190.9900  176.6680  145.2930 C   0  0  0  0  0  0  0  0  0  0  0  0
  194.2490  174.6050  142.7600 N   0  0  0  0  0  0  0  0  0  0  0  0
  192.5150  175.7870  144.0340 C   0  0  0  0  0  0  0  0  0  0  0  0
  196.6690  169.4910  146.6730 C   0  0  0  0  0  0  0  0  0  0  0  0
  197.2860  170.5120  145.8770 N   0  0  0  0  0  2  0  0  0  0  0  0
  195.4570  169.5640  147.0110 O   0  0  0  0  0  0  0  0  0  0  0  0
  197.4810  168.3300  147.1200 C   0  0  0  0  0  1  0  0  0  0  0  0
  190.5710  176.8480  142.8280 C   0  0  0  0  0  2  0  0  0  0  0  0
  188.3560  177.7290  142.4740 O   0  0  0  0  0  0  0  0  0  0  0  0
  187.0810  177.7170  143.0780 C   0  0  2  0  0  3  0  0  0  0  0  0
  188.5500  175.3240  142.5020 C   0  0  1  0  0  3  0  0  0  0  0  0
  187.0450  175.3030  142.5720 C   0  0  0  0  0  3  0  0  0  0  0  0
  186.3480  176.4270  142.7960 C   0  0  0  0  0  3  0  0  0  0  0  0
  186.2660  178.8910  142.5770 C   0  0  0  0  0  1  0  0  0  0  0  0
  188.9400  175.1630  141.1690 O   0  0  0  0  0  1  0  0  0  0  0  0
  189.0740  176.6650  143.0520 C   0  0  1  0  0  3  0  0  0  0  0  0
  2 19  2  0  0  0  0
  4  3  2  0  0  0  0
  5 13  1  0  0  0  0
  7  1  1  0  0  0  0
  8  3  1  0  0  0  0
  9  6  2  0  0  0  0
  9 10  1  0  0  0  0
 10  8  2  0  0  0  0
 11 19  1  0  0  0  0
 11 17  1  0  0  0  0
 12 15  1  0  0  0  0
 13  6  1  0  0  0  0
 13  7  2  0  0  0  0
 14  5  1  0  0  0  0
 14 12  2  0  0  0  0
 15 21  1  0  0  0  0
 15  1  2  0  0  0  0
 16  4  1  0  0  0  0
 17 16  2  0  0  0  0
 17 10  1  0  0  0  0
 18  2  1  0  0  0  0
 18  5  2  0  0  0  0
 19  9  1  0  0  0  0
 20 22  2  0  0  0  0
 20 23  1  0  0  0  0
 21 20  1  0  0  0  0
 24 11  1  0  0  0  0
 25 32  1  0  0  0  0
 25 26  1  0  0  0  0
 26 30  1  6  0  0  0
 27 31  1  6  0  0  0
 27 28  1  0  0  0  0
 27 32  1  0  0  0  0
 28 29  2  0  0  0  0
 29 26  1  0  0  0  0
 32 24  1  6  0  0  0
M  END
>  <MODEL>
3

>  <REMARK>
 VINA RESULT:      -8.0      2.381      4.156
  Name = 
  3 active torsions:
  status: ('A' for Active; 'I' for Inactive)
    1  A    between atoms: N_10  and  C_24
    2  A    between atoms: N_16  and  C_27
    3  A    between atoms: C_27  and  C_32
                            x       y       z     vdW  Elec       q    Type
                         _______ _______ _______ _____ _____    ______ ____

>  <TORSDO>
F 3

$$$$
=
 OpenBabel11052421273D

 32 36  0  0  1  0  0  0  0  0999 V2000
  184.7120  178.2890  140.8830 C   0  0  0  0  0  3  0  0  0  0  0  0
  189.6830  177.4710  142.9940 C   0  0  0  0  0  3  0  0  0  0  0  0
  189.3880  172.1130  140.3260 C   0  0  0  0  0  3  0  0  0  0  0  0
  190.5940  171.9200  141.0360 C   0  0  0  0  0  3  0  0  0  0  0  0
  187.2940  178.0070  142.6830 C   0  0  0  0  0  0  0  0  0  0  0  0
  187.5820  176.2160  140.9820 C   0  0  0  0  0  3  0  0  0  0  0  0
  185.8930  177.7930  140.5300 C   0  0  0  0  0  3  0  0  0  0  0  0
  188.6670  173.3130  140.4550 C   0  0  0  0  0  3  0  0  0  0  0  0
  188.7200  175.5520  141.6170 C   0  0  0  0  0  0  0  0  0  0  0  0
  189.1810  174.2870  141.3090 C   0  0  0  0  0  0  0  0  0  0  0  0
  190.6560  175.2020  142.7130 N   0  0  0  0  0  0  0  0  0  0  0  0
  184.9100  178.5710  143.3390 C   0  0  0  0  0  3  0  0  0  0  0  0
  186.9410  177.2960  141.4260 C   0  0  0  0  0  0  0  0  0  0  0  0
  186.3740  178.5560  143.4770 C   0  0  0  0  0  3  0  0  0  0  0  0
  184.1630  178.4340  142.2380 C   0  0  0  0  0  0  0  0  0  0  0  0
  191.0940  172.9260  141.8820 C   0  0  0  0  0  3  0  0  0  0  0  0
  190.3540  174.1030  141.9960 C   0  0  0  0  0  0  0  0  0  0  0  0
  188.6540  178.2580  143.0650 N   0  0  0  0  0  0  0  0  0  0  0  0
  189.6600  176.0950  142.4850 C   0  0  0  0  0  0  0  0  0  0  0  0
  181.7710  178.2490  141.3020 C   0  0  0  0  0  0  0  0  0  0  0  0
  182.7330  178.5410  142.3250 N   0  0  0  0  0  2  0  0  0  0  0  0
  182.1270  177.9120  140.1410 O   0  0  0  0  0  0  0  0  0  0  0  0
  180.3230  178.3610  141.6160 C   0  0  0  0  0  1  0  0  0  0  0  0
  191.8660  175.4180  143.5030 C   0  0  0  0  0  2  0  0  0  0  0  0
  190.6700  174.8560  145.5180 O   0  0  0  0  0  0  0  0  0  0  0  0
  190.0510  175.4890  146.6170 C   0  0  2  0  0  3  0  0  0  0  0  0
  192.7440  176.0560  145.8120 C   0  0  1  0  0  3  0  0  0  0  0  0
  192.3130  176.2500  147.2430 C   0  0  0  0  0  3  0  0  0  0  0  0
  191.0680  175.9440  147.6380 C   0  0  0  0  0  3  0  0  0  0  0  0
  189.0630  174.5410  147.2640 C   0  0  0  0  0  1  0  0  0  0  0  0
  193.5970  174.9510  145.7470 O   0  0  0  0  0  1  0  0  0  0  0  0
  191.5040  175.8250  144.9270 C   0  0  1  0  0  3  0  0  0  0  0  0
  1 15  1  0  0  0  0
  2 18  2  0  0  0  0
  3  8  2  0  0  0  0
  3  4  1  0  0  0  0
  4 16  2  0  0  0  0
  5 18  1  0  0  0  0
  5 14  2  0  0  0  0
  6 13  2  0  0  0  0
  6  9  1  0  0  0  0
  7  1  2  0  0  0  0
  7 13  1  0  0  0  0
  8 10  1  0  0  0  0
  9 19  2  0  0  0  0
 10  9  1  0  0  0  0
 10 17  2  0  0  0  0
 11 24  1  0  0  0  0
 12 14  1  0  0  0  0
 13  5  1  0  0  0  0
 15 21  1  0  0  0  0
 15 12  2  0  0  0  0
 16 17  1  0  0  0  0
 17 11  1  0  0  0  0
 19 11  1  0  0  0  0
 19  2  1  0  0  0  0
 20 23  1  0  0  0  0
 20 21  1  0  0  0  0
 22 20  2  0  0  0  0
 25 26  1  0  0  0  0
 26 30  1  1  0  0  0
 26 29  1  0  0  0  0
 27 31  1  1  0  0  0
 27 28  1  0  0  0  0
 28 29  2  0  0  0  0
 32 24  1  6  0  0  0
 32 25  1  0  0  0  0
 32 27  1  0  0  0  0
M  END
>  <MODEL>
4

>  <REMARK>
 VINA RESULT:      -8.0      2.630      8.846
  Name = 
  3 active torsions:
  status: ('A' for Active; 'I' for Inactive)
    1  A    between atoms: N_10  and  C_24
    2  A    between atoms: N_16  and  C_27
    3  A    between atoms: C_27  and  C_32
                            x       y       z     vdW  Elec       q    Type
                         _______ _______ _______ _____ _____    ______ ____

>  <TORSDO>
F 3

$$$$
=
 OpenBabel11052421273D

 32 36  0  0  1  0  0  0  0  0999 V2000
  193.4030  172.9320  145.3890 C   0  0  0  0  0  3  0  0  0  0  0  0
  189.7430  176.9860  145.3330 C   0  0  0  0  0  3  0  0  0  0  0  0
  188.1590  174.8120  139.9770 C   0  0  0  0  0  3  0  0  0  0  0  0
  187.3560  175.9750  139.9700 C   0  0  0  0  0  3  0  0  0  0  0  0
  191.8200  175.6650  145.5050 C   0  0  0  0  0  0  0  0  0  0  0  0
  190.6000  174.3690  143.7690 C   0  0  0  0  0  3  0  0  0  0  0  0
  192.1290  173.1430  145.0730 C   0  0  0  0  0  3  0  0  0  0  0  0
  189.0190  174.5450  141.0570 C   0  0  0  0  0  3  0  0  0  0  0  0
  189.7630  175.4660  143.2840 C   0  0  0  0  0  0  0  0  0  0  0  0
  189.0520  175.4670  142.1010 C   0  0  0  0  0  0  0  0  0  0  0  0
  188.4500  177.2960  143.2330 N   0  0  0  0  0  0  0  0  0  0  0  0
  194.3080  175.2190  145.7100 C   0  0  0  0  0  3  0  0  0  0  0  0
  191.5060  174.4280  144.7430 C   0  0  0  0  0  0  0  0  0  0  0  0
  193.0550  175.9600  145.9140 C   0  0  0  0  0  3  0  0  0  0  0  0
  194.4900  173.9170  145.4570 C   0  0  0  0  0  0  0  0  0  0  0  0
  187.4020  176.8820  141.0430 C   0  0  0  0  0  3  0  0  0  0  0  0
  188.2690  176.5950  142.0980 C   0  0  0  0  0  0  0  0  0  0  0  0
  190.7980  176.5650  145.9580 N   0  0  0  0  0  0  0  0  0  0  0  0
  189.3640  176.6090  143.9660 C   0  0  0  0  0  0  0  0  0  0  0  0
  196.5380  173.0630  144.1510 C   0  0  0  0  0  0  0  0  0  0  0  0
  195.8210  173.3890  145.3500 N   0  0  0  0  0  2  0  0  0  0  0  0
  196.0000  173.1600  143.0160 O   0  0  0  0  0  0  0  0  0  0  0  0
  197.9410  172.5870  144.2530 C   0  0  0  0  0  1  0  0  0  0  0  0
  187.7330  178.5030  143.6310 C   0  0  0  0  0  2  0  0  0  0  0  0
  186.7120  178.3510  145.8090 O   0  0  0  0  0  0  0  0  0  0  0  0
  185.7200  177.6100  146.4850 C   0  0  2  0  0  3  0  0  0  0  0  0
  185.2410  178.9250  143.9840 C   0  0  1  0  0  3  0  0  0  0  0  0
  184.1100  178.6710  144.9460 C   0  0  0  0  0  3  0  0  0  0  0  0
  184.3330  178.0970  146.1380 C   0  0  0  0  0  3  0  0  0  0  0  0
  185.9400  177.7060  147.9800 C   0  0  0  0  0  1  0  0  0  0  0  0
  185.5130  180.2960  143.9630 O   0  0  0  0  0  1  0  0  0  0  0  0
  186.4880  178.1410  144.4350 C   0  0  1  0  0  3  0  0  0  0  0  0
  1 15  1  0  0  0  0
  2 18  2  0  0  0  0
  3  8  1  0  0  0  0
  4  3  2  0  0  0  0
  4 16  1  0  0  0  0
  5 14  2  0  0  0  0
  5 18  1  0  0  0  0
  6 13  2  0  0  0  0
  7  1  2  0  0  0  0
  8 10  2  0  0  0  0
  9  6  1  0  0  0  0
  9 19  2  0  0  0  0
 10  9  1  0  0  0  0
 11 24  1  0  0  0  0
 11 19  1  0  0  0  0
 12 14  1  0  0  0  0
 13  7  1  0  0  0  0
 13  5  1  0  0  0  0
 15 12  2  0  0  0  0
 16 17  2  0  0  0  0
 17 10  1  0  0  0  0
 17 11  1  0  0  0  0
 19  2  1  0  0  0  0
 20 23  1  0  0  0  0
 20 21  1  0  0  0  0
 21 15  1  0  0  0  0
 22 20  2  0  0  0  0
 25 26  1  0  0  0  0
 26 30  1  1  0  0  0
 27 31  1  1  0  0  0
 27 32  1  0  0  0  0
 27 28  1  0  0  0  0
 28 29  2  0  0  0  0
 29 26  1  0  0  0  0
 32 24  1  6  0  0  0
 32 25  1  0  0  0  0
M  END
>  <MODEL>
5

>  <REMARK>
 VINA RESULT:      -7.9      1.919      4.240
  Name = 
  3 active torsions:
  status: ('A' for Active; 'I' for Inactive)
    1  A    between atoms: N_10  and  C_24
    2  A    between atoms: N_16  and  C_27
    3  A    between atoms: C_27  and  C_32
                            x       y       z     vdW  Elec       q    Type
                         _______ _______ _______ _____ _____    ______ ____

>  <TORSDO>
F 3

$$$$
=
 OpenBabel11052421273D

 32 36  0  0  1  0  0  0  0  0999 V2000
  187.0770  176.6450  143.2290 C   0  0  0  0  0  3  0  0  0  0  0  0
  192.4480  175.7750  142.7530 C   0  0  0  0  0  3  0  0  0  0  0  0
  190.9380  170.0380  141.9030 C   0  0  0  0  0  3  0  0  0  0  0  0
  192.3400  169.8730  141.9520 C   0  0  0  0  0  3  0  0  0  0  0  0
  190.2170  176.4790  143.5400 C   0  0  0  0  0  0  0  0  0  0  0  0
  189.6410  174.3530  142.3860 C   0  0  0  0  0  3  0  0  0  0  0  0
  187.9290  175.9660  142.4690 C   0  0  0  0  0  3  0  0  0  0  0  0
  190.3600  171.3070  142.0860 C   0  0  0  0  0  3  0  0  0  0  0  0
  190.9550  173.7210  142.5160 C   0  0  0  0  0  0  0  0  0  0  0  0
  191.2180  172.3790  142.3250 C   0  0  0  0  0  0  0  0  0  0  0  0
  193.1850  173.4090  142.5680 N   0  0  0  0  0  0  0  0  0  0  0  0
  188.4750  177.4110  145.1290 C   0  0  0  0  0  3  0  0  0  0  0  0
  189.2930  175.5620  142.8230 C   0  0  0  0  0  0  0  0  0  0  0  0
  189.8100  177.2730  144.5310 C   0  0  0  0  0  3  0  0  0  0  0  0
  187.2780  177.1250  144.6030 C   0  0  0  0  0  0  0  0  0  0  0  0
  193.1820  170.9760  142.1840 C   0  0  0  0  0  3  0  0  0  0  0  0
  192.5810  172.2220  142.3690 C   0  0  0  0  0  0  0  0  0  0  0  0
  191.5820  176.6620  143.1350 N   0  0  0  0  0  0  0  0  0  0  0  0
  192.1940  174.3330  142.6570 C   0  0  0  0  0  0  0  0  0  0  0  0
  185.3180  178.6090  145.3690 C   0  0  0  0  0  0  0  0  0  0  0  0
  186.0840  177.3960  145.3530 N   0  0  0  0  0  2  0  0  0  0  0  0
  185.6910  179.6310  144.7320 O   0  0  0  0  0  0  0  0  0  0  0  0
  184.0660  178.6660  146.1660 C   0  0  0  0  0  1  0  0  0  0  0  0
  194.6230  173.6590  142.5870 C   0  0  0  0  0  2  0  0  0  0  0  0
  196.2330  172.3850  143.8490 O   0  0  0  0  0  0  0  0  0  0  0  0
  196.4030  171.8360  145.1370 C   0  0  2  0  0  3  0  0  0  0  0  0
  195.7170  174.5840  144.6990 C   0  0  1  0  0  3  0  0  0  0  0  0
  196.4510  174.1660  145.9460 C   0  0  0  0  0  3  0  0  0  0  0  0
  196.8170  172.8890  146.1380 C   0  0  0  0  0  3  0  0  0  0  0  0
  197.4420  170.7350  145.0920 C   0  0  0  0  0  1  0  0  0  0  0  0
  196.5950  175.3000  143.8800 O   0  0  0  0  0  1  0  0  0  0  0  0
  195.1990  173.3340  143.9610 C   0  0  1  0  0  3  0  0  0  0  0  0
  1 15  1  0  0  0  0
  2 18  2  0  0  0  0
  3  4  2  0  0  0  0
  3  8  1  0  0  0  0
  4 16  1  0  0  0  0
  5 14  2  0  0  0  0
  6  9  1  0  0  0  0
  6 13  2  0  0  0  0
  7 13  1  0  0  0  0
  7  1  2  0  0  0  0
  8 10  2  0  0  0  0
  9 19  2  0  0  0  0
 10 17  1  0  0  0  0
 10  9  1  0  0  0  0
 11 24  1  0  0  0  0
 11 19  1  0  0  0  0
 13  5  1  0  0  0  0
 14 12  1  0  0  0  0
 15 12  2  0  0  0  0
 15 21  1  0  0  0  0
 16 17  2  0  0  0  0
 17 11  1  0  0  0  0
 18  5  1  0  0  0  0
 19  2  1  0  0  0  0
 20 23  1  0  0  0  0
 21 20  1  0  0  0  0
 22 20  2  0  0  0  0
 25 32  1  0  0  0  0
 25 26  1  0  0  0  0
 26 30  1  6  0  0  0
 26 29  1  0  0  0  0
 27 31  1  6  0  0  0
 27 28  1  0  0  0  0
 28 29  2  0  0  0  0
 32 24  1  6  0  0  0
 32 27  1  0  0  0  0
M  END
>  <MODEL>
6

>  <REMARK>
 VINA RESULT:      -7.7      2.543      8.817
  Name = 
  3 active torsions:
  status: ('A' for Active; 'I' for Inactive)
    1  A    between atoms: N_10  and  C_24
    2  A    between atoms: N_16  and  C_27
    3  A    between atoms: C_27  and  C_32
                            x       y       z     vdW  Elec       q    Type
                         _______ _______ _______ _____ _____    ______ ____

>  <TORSDO>
F 3

$$$$
=
 OpenBabel11052421273D

 32 36  0  0  1  0  0  0  0  0999 V2000
  189.1730  177.5450  145.3180 C   0  0  0  0  0  3  0  0  0  0  0  0
  193.9160  174.9730  146.1680 C   0  0  0  0  0  3  0  0  0  0  0  0
  194.3150  174.7850  140.1920 C   0  0  0  0  0  3  0  0  0  0  0  0
  195.4420  173.9900  140.4950 C   0  0  0  0  0  3  0  0  0  0  0  0
  191.5470  175.6590  146.2130 C   0  0  0  0  0  0  0  0  0  0  0  0
  192.1550  176.2810  143.8840 C   0  0  0  0  0  3  0  0  0  0  0  0
  190.4200  177.5400  144.8560 C   0  0  0  0  0  3  0  0  0  0  0  0
  193.4990  175.2910  141.2200 C   0  0  0  0  0  3  0  0  0  0  0  0
  193.2580  175.3320  143.7300 C   0  0  0  0  0  0  0  0  0  0  0  0
  193.8400  174.9700  142.5320 C   0  0  0  0  0  0  0  0  0  0  0  0
  195.0760  174.0750  144.1620 N   0  0  0  0  0  0  0  0  0  0  0  0
  189.0690  175.5110  146.7330 C   0  0  0  0  0  3  0  0  0  0  0  0
  191.3910  176.4470  144.9620 C   0  0  0  0  0  0  0  0  0  0  0  0
  190.5040  175.2850  146.9560 C   0  0  0  0  0  3  0  0  0  0  0  0
  188.4640  176.4620  146.0110 C   0  0  0  0  0  0  0  0  0  0  0  0
  195.7680  173.6930  141.8300 C   0  0  0  0  0  3  0  0  0  0  0  0
  194.9380  174.2020  142.8290 C   0  0  0  0  0  0  0  0  0  0  0  0
  192.8320  175.3530  146.7710 N   0  0  0  0  0  0  0  0  0  0  0  0
  194.0500  174.7660  144.7220 C   0  0  0  0  0  0  0  0  0  0  0  0
  186.1790  177.3940  146.7460 C   0  0  0  0  0  0  0  0  0  0  0  0
  187.0300  176.5310  145.9780 N   0  0  0  0  0  2  0  0  0  0  0  0
  186.6470  178.1720  147.6200 O   0  0  0  0  0  0  0  0  0  0  0  0
  184.7120  177.3580  146.5150 C   0  0  0  0  0  1  0  0  0  0  0  0
  196.1680  173.4040  144.8620 C   0  0  0  0  0  2  0  0  0  0  0  0
  194.9400  171.3580  144.5320 O   0  0  0  0  0  0  0  0  0  0  0  0
  194.1890  170.4200  145.2720 C   0  0  2  0  0  3  0  0  0  0  0  0
  196.8340  171.2310  146.0220 C   0  0  1  0  0  3  0  0  0  0  0  0
  196.3050  169.8780  146.4200 C   0  0  0  0  0  3  0  0  0  0  0  0
  195.0860  169.4720  146.0340 C   0  0  0  0  0  3  0  0  0  0  0  0
  193.2880  169.6360  144.3410 C   0  0  0  0  0  1  0  0  0  0  0  0
  197.8170  171.0590  145.0430 O   0  0  0  0  0  1  0  0  0  0  0  0
  195.6820  172.0950  145.4740 C   0  0  1  0  0  3  0  0  0  0  0  0
  1 15  1  0  0  0  0
  2 18  2  0  0  0  0
  3  4  2  0  0  0  0
  3  8  1  0  0  0  0
  4 16  1  0  0  0  0
  5 18  1  0  0  0  0
  5 14  2  0  0  0  0
  6 13  2  0  0  0  0
  7 13  1  0  0  0  0
  7  1  2  0  0  0  0
  8 10  2  0  0  0  0
  9  6  1  0  0  0  0
  9 19  2  0  0  0  0
 10 17  1  0  0  0  0
 10  9  1  0  0  0  0
 11 19  1  0  0  0  0
 11 24  1  0  0  0  0
 12 14  1  0  0  0  0
 13  5  1  0  0  0  0
 15 12  2  0  0  0  0
 16 17  2  0  0  0  0
 17 11  1  0  0  0  0
 19  2  1  0  0  0  0
 20 22  2  0  0  0  0
 21 15  1  0  0  0  0
 21 20  1  0  0  0  0
 23 20  1  0  0  0  0
 25 26  1  0  0  0  0
 25 32  1  0  0  0  0
 26 30  1  6  0  0  0
 26 29  1  0  0  0  0
 27 31  1  6  0  0  0
 27 28  1  0  0  0  0
 29 28  2  0  0  0  0
 32 24  1  6  0  0  0
 32 27  1  0  0  0  0
M  END
>  <MODEL>
7

>  <REMARK>
 VINA RESULT:      -7.7      3.452      9.073
  Name = 
  3 active torsions:
  status: ('A' for Active; 'I' for Inactive)
    1  A    between atoms: N_10  and  C_24
    2  A    between atoms: N_16  and  C_27
    3  A    between atoms: C_27  and  C_32
                            x       y       z     vdW  Elec       q    Type
                         _______ _______ _______ _____ _____    ______ ____

>  <TORSDO>
F 3

$$$$
=
 OpenBabel11052421273D

 32 36  0  0  1  0  0  0  0  0999 V2000
  189.6000  177.3190  145.5390 C   0  0  0  0  0  3  0  0  0  0  0  0
  192.4120  172.7320  144.6000 C   0  0  0  0  0  3  0  0  0  0  0  0
  196.9750  176.3870  143.2890 C   0  0  0  0  0  3  0  0  0  0  0  0
  197.5800  175.1670  142.9150 C   0  0  0  0  0  3  0  0  0  0  0  0
  190.6980  174.5060  144.6050 C   0  0  0  0  0  0  0  0  0  0  0  0
  192.7610  175.8680  144.8700 C   0  0  0  0  0  3  0  0  0  0  0  0
  190.8000  176.7990  145.7800 C   0  0  0  0  0  3  0  0  0  0  0  0
  195.6490  176.4150  143.7540 C   0  0  0  0  0  3  0  0  0  0  0  0
  193.6820  174.9160  144.2500 C   0  0  0  0  0  0  0  0  0  0  0  0
  194.9620  175.2050  143.8200 C   0  0  0  0  0  0  0  0  0  0  0  0
  194.6960  172.9940  143.6580 N   0  0  0  0  0  0  0  0  0  0  0  0
  188.6050  175.7510  143.8960 C   0  0  0  0  0  3  0  0  0  0  0  0
  191.4500  175.7120  145.0420 C   0  0  0  0  0  0  0  0  0  0  0  0
  189.4560  174.5740  144.1230 C   0  0  0  0  0  3  0  0  0  0  0  0
  188.6580  176.9570  144.4720 C   0  0  0  0  0  0  0  0  0  0  0  0
  196.8650  173.9590  143.0030 C   0  0  0  0  0  3  0  0  0  0  0  0
  195.5480  174.0170  143.4610 C   0  0  0  0  0  0  0  0  0  0  0  0
  191.2080  173.1780  144.7860 N   0  0  0  0  0  0  0  0  0  0  0  0
  193.5500  173.5360  144.1420 C   0  0  0  0  0  0  0  0  0  0  0  0
  186.4900  178.2900  144.8680 C   0  0  0  0  0  0  0  0  0  0  0  0
  187.6790  177.9540  144.1380 N   0  0  0  0  0  2  0  0  0  0  0  0
  186.1490  177.6530  145.9000 O   0  0  0  0  0  0  0  0  0  0  0  0
  185.6360  179.4060  144.3860 C   0  0  0  0  0  1  0  0  0  0  0  0
  194.9860  171.5750  143.4730 C   0  0  0  0  0  2  0  0  0  0  0  0
  194.8710  169.8720  145.1740 O   0  0  0  0  0  0  0  0  0  0  0  0
  195.2270  169.6710  146.5240 C   0  0  2  0  0  3  0  0  0  0  0  0
  197.0850  170.6010  144.5490 C   0  0  1  0  0  3  0  0  0  0  0  0
  197.5670  169.8500  145.7630 C   0  0  0  0  0  3  0  0  0  0  0  0
  196.7010  169.3710  146.6680 C   0  0  0  0  0  3  0  0  0  0  0  0
  194.4130  168.5340  147.1050 C   0  0  0  0  0  1  0  0  0  0  0  0
  197.2300  169.7820  143.4270 O   0  0  0  0  0  1  0  0  0  0  0  0
  195.6060  170.9910  144.7380 C   0  0  1  0  0  3  0  0  0  0  0  0
  1  7  1  0  0  0  0
  2 18  1  0  0  0  0
  3  8  1  0  0  0  0
  4 16  1  0  0  0  0
  4  3  2  0  0  0  0
  5 18  2  0  0  0  0
  5 13  1  0  0  0  0
  6 13  1  0  0  0  0
  8 10  2  0  0  0  0
  9  6  2  0  0  0  0
 10  9  1  0  0  0  0
 11 19  1  0  0  0  0
 12 14  2  0  0  0  0
 12 15  1  0  0  0  0
 13  7  2  0  0  0  0
 14  5  1  0  0  0  0
 15  1  2  0  0  0  0
 16 17  2  0  0  0  0
 17 11  1  0  0  0  0
 17 10  1  0  0  0  0
 19  9  1  0  0  0  0
 19  2  2  0  0  0  0
 20 22  2  0  0  0  0
 21 15  1  0  0  0  0
 21 20  1  0  0  0  0
 23 20  1  0  0  0  0
 24 11  1  0  0  0  0
 25 26  1  0  0  0  0
 26 29  1  0  0  0  0
 26 30  1  6  0  0  0
 27 31  1  6  0  0  0
 27 32  1  0  0  0  0
 27 28  1  0  0  0  0
 28 29  2  0  0  0  0
 32 24  1  6  0  0  0
 32 25  1  0  0  0  0
M  END
>  <MODEL>
8

>  <REMARK>
 VINA RESULT:      -7.6      2.885      9.474
  Name = 
  3 active torsions:
  status: ('A' for Active; 'I' for Inactive)
    1  A    between atoms: N_10  and  C_24
    2  A    between atoms: N_16  and  C_27
    3  A    between atoms: C_27  and  C_32
                            x       y       z     vdW  Elec       q    Type
                         _______ _______ _______ _____ _____    ______ ____

>  <TORSDO>
F 3

$$$$
=
 OpenBabel11052421273D

 32 36  0  0  1  0  0  0  0  0999 V2000
  187.5830  177.3030  143.9910 C   0  0  0  0  0  3  0  0  0  0  0  0
  192.5320  175.5880  145.5370 C   0  0  0  0  0  3  0  0  0  0  0  0
  191.1580  170.5510  142.5950 C   0  0  0  0  0  3  0  0  0  0  0  0
  192.3780  170.1260  143.1670 C   0  0  0  0  0  3  0  0  0  0  0  0
  190.2400  176.5000  145.5020 C   0  0  0  0  0  0  0  0  0  0  0  0
  190.0870  174.8200  143.6760 C   0  0  0  0  0  3  0  0  0  0  0  0
  188.6340  176.6620  143.4920 C   0  0  0  0  0  3  0  0  0  0  0  0
  190.6500  171.8340  142.8680 C   0  0  0  0  0  3  0  0  0  0  0  0
  191.1590  173.9450  144.1520 C   0  0  0  0  0  0  0  0  0  0  0  0
  191.3850  172.6520  143.7230 C   0  0  0  0  0  0  0  0  0  0  0  0
  193.1070  173.2260  145.0240 N   0  0  0  0  0  0  0  0  0  0  0  0
  188.0430  177.3670  146.4270 C   0  0  0  0  0  3  0  0  0  0  0  0
  189.6670  175.9470  144.2460 C   0  0  0  0  0  0  0  0  0  0  0  0
  189.4930  177.1200  146.4160 C   0  0  0  0  0  3  0  0  0  0  0  0
  187.1870  177.4270  145.4010 C   0  0  0  0  0  0  0  0  0  0  0  0
  193.1040  170.9780  144.0180 C   0  0  0  0  0  3  0  0  0  0  0  0
  192.5730  172.2420  144.2760 C   0  0  0  0  0  0  0  0  0  0  0  0
  191.6510  176.5140  145.7590 N   0  0  0  0  0  0  0  0  0  0  0  0
  192.2470  174.2730  144.9520 C   0  0  0  0  0  0  0  0  0  0  0  0
  185.1020  178.9310  145.2520 C   0  0  0  0  0  0  0  0  0  0  0  0
  185.8060  177.7420  145.6380 N   0  0  0  0  0  2  0  0  0  0  0  0
  185.6930  179.8920  144.6900 O   0  0  0  0  0  0  0  0  0  0  0  0
  183.6480  179.0360  145.5360 C   0  0  0  0  0  1  0  0  0  0  0  0
  194.4020  173.1970  145.7000 C   0  0  0  0  0  2  0  0  0  0  0  0
  195.7390  174.9730  144.7700 O   0  0  0  0  0  0  0  0  0  0  0  0
  196.4370  175.2910  143.5860 C   0  0  2  0  0  3  0  0  0  0  0  0
  196.8310  172.8340  145.0100 C   0  0  1  0  0  3  0  0  0  0  0  0
  197.9300  173.4120  144.1560 C   0  0  0  0  0  3  0  0  0  0  0  0
  197.7710  174.5840  143.5240 C   0  0  0  0  0  3  0  0  0  0  0  0
  196.6450  176.7880  143.5010 C   0  0  0  0  0  1  0  0  0  0  0  0
  197.1890  172.9690  146.3540 O   0  0  0  0  0  1  0  0  0  0  0  0
  195.5140  173.5840  144.7310 C   0  0  1  0  0  3  0  0  0  0  0  0
  1 15  1  0  0  0  0
  2 18  2  0  0  0  0
  3  8  2  0  0  0  0
  3  4  1  0  0  0  0
  4 16  2  0  0  0  0
  5 18  1  0  0  0  0
  5 14  2  0  0  0  0
  6  9  1  0  0  0  0
  6 13  2  0  0  0  0
  7  1  2  0  0  0  0
  7 13  1  0  0  0  0
  8 10  1  0  0  0  0
  9 19  2  0  0  0  0
 10  9  1  0  0  0  0
 10 17  2  0  0  0  0
 11 24  1  0  0  0  0
 13  5  1  0  0  0  0
 14 12  1  0  0  0  0
 15 21  1  0  0  0  0
 15 12  2  0  0  0  0
 16 17  1  0  0  0  0
 17 11  1  0  0  0  0
 19 11  1  0  0  0  0
 19  2  1  0  0  0  0
 20 23  1  0  0  0  0
 20 21  1  0  0  0  0
 22 20  2  0  0  0  0
 26 30  1  1  0  0  0
 26 25  1  0  0  0  0
 27 31  1  1  0  0  0
 28 27  1  0  0  0  0
 29 26  1  0  0  0  0
 29 28  2  0  0  0  0
 32 25  1  0  0  0  0
 32 27  1  0  0  0  0
 32 24  1  1  0  0  0
M  END
>  <MODEL>
9

>  <REMARK>
 VINA RESULT:      -7.5      2.554      8.841
  Name = 
  3 active torsions:
  status: ('A' for Active; 'I' for Inactive)
    1  A    between atoms: N_10  and  C_24
    2  A    between atoms: N_16  and  C_27
    3  A    between atoms: C_27  and  C_32
                            x       y       z     vdW  Elec       q    Type
                         _______ _______ _______ _____ _____    ______ ____

>  <TORSDO>
F 3

$$$$
