=
 OpenBabel11052421353D

 32 36  0  0  1  0  0  0  0  0999 V2000
  190.7880  172.2430  139.7350 C   0  0  1  0  0  3  0  0  0  0  0  0
  188.5130  175.3270  143.1410 C   0  0  0  0  0  0  0  0  0  0  0  0
  191.5890  175.4340  146.8910 C   0  0  0  0  0  3  0  0  0  0  0  0
  190.7710  176.3700  147.5250 C   0  0  0  0  0  3  0  0  0  0  0  0
  188.9560  173.9080  141.2350 C   0  0  0  0  0  0  0  0  0  0  0  0
  190.4740  173.9530  143.0900 N   0  0  0  0  0  0  0  0  0  0  0  0
  191.0220  172.4230  141.2370 C   0  0  0  0  0  2  0  0  0  0  0  0
  191.2360  174.9280  145.6380 C   0  0  0  0  0  3  0  0  0  0  0  0
  189.6980  174.8630  143.7440 C   0  0  0  0  0  0  0  0  0  0  0  0
  190.0580  175.3550  145.0070 C   0  0  0  0  0  0  0  0  0  0  0  0
  188.0360  176.7220  145.0130 C   0  0  0  0  0  0  0  0  0  0  0  0
  189.2920  172.1860  139.4290 C   0  0  0  0  0  2  0  0  0  0  0  0
  190.1470  173.4780  141.8580 C   0  0  0  0  0  0  0  0  0  0  0  0
  188.5840  173.4750  139.8480 C   0  0  0  0  0  2  0  0  0  0  0  0
  189.5940  176.8020  146.9090 C   0  0  0  0  0  3  0  0  0  0  0  0
  189.2230  176.3010  145.6500 C   0  0  0  0  0  0  0  0  0  0  0  0
  188.1530  174.8490  141.8830 C   0  0  0  0  0  3  0  0  0  0  0  0
  187.7300  176.2340  143.7780 N   0  0  0  0  0  0  0  0  0  0  0  0
  186.0710  177.0610  146.4850 C   0  0  2  0  0  3  0  0  0  0  0  0
  187.1320  177.7480  145.6400 C   0  0  2  0  0  3  0  0  0  0  0  0
  185.7130  177.6230  145.1060 C   0  0  2  0  0  3  0  0  0  0  0  0
  185.7050  177.9550  147.6630 C   0  0  0  0  0  2  0  0  0  0  0  0
  186.9520  178.6360  148.1890 C   0  0  0  0  0  1  0  0  0  0  0  0
  183.6520  178.8350  144.9590 O   0  0  0  0  0  1  0  0  0  0  0  0
  185.0310  178.9910  145.1140 C   0  0  2  0  0  3  0  0  0  0  0  0
  185.5820  179.8790  144.0050 C   0  0  0  0  0  2  0  0  0  0  0  0
  185.7460  179.1510  142.8250 O   0  0  0  0  0  1  0  0  0  0  0  0
  192.6920  173.6440  139.1990 N   0  0  0  0  0  0  0  0  0  0  0  0
  191.4690  173.3100  138.9390 C   0  0  0  0  0  3  0  0  0  0  0  0
  193.3770  174.6610  138.4650 C   0  0  0  0  0  0  0  0  0  0  0  0
  192.9260  175.0010  137.0900 C   0  0  0  0  0  1  0  0  0  0  0  0
  194.3580  175.2750  138.9670 O   0  0  0  0  0  0  0  0  0  0  0  0
  1 29  1  6  0  0  0
  1  7  1  0  0  0  0
  2  9  1  0  0  0  0
  2 18  1  0  0  0  0
  3  4  1  0  0  0  0
  5 13  2  0  0  0  0
  5 17  1  0  0  0  0
  6  9  2  0  0  0  0
  7 13  1  0  0  0  0
  8  3  2  0  0  0  0
  9 10  1  0  0  0  0
 10  8  1  0  0  0  0
 10 16  2  0  0  0  0
 11 16  1  0  0  0  0
 12  1  1  0  0  0  0
 12 14  1  0  0  0  0
 13  6  1  0  0  0  0
 14  5  1  0  0  0  0
 15  4  2  0  0  0  0
 16 15  1  0  0  0  0
 17  2  2  0  0  0  0
 18 11  2  0  0  0  0
 19 22  1  1  0  0  0
 20 11  1  6  0  0  0
 20 19  1  0  0  0  0
 21 25  1  1  0  0  0
 21 20  1  0  0  0  0
 21 19  1  0  0  0  0
 22 23  1  0  0  0  0
 25 24  1  6  0  0  0
 26 25  1  0  0  0  0
 27 26  1  0  0  0  0
 29 28  2  0  0  0  0
 30 32  2  0  0  0  0
 30 28  1  0  0  0  0
 31 30  1  0  0  0  0
M  END
>  <MODEL>
1

>  <REMARK>
 VINA RESULT:      -7.3      0.000      0.000
  Name = 
  6 active torsions:
  status: ('A' for Active; 'I' for Inactive)
    1  A    between atoms: C_1  and  N_10
    2  A    between atoms: C_2  and  C_24
    3  A    between atoms: C_6  and  C_7
    4  A    between atoms: C_11  and  C_22
    5  A    between atoms: C_16  and  C_27
    6  A    between atoms: C_22  and  C_32
                            x       y       z     vdW  Elec       q    Type
                         _______ _______ _______ _____ _____    ______ ____

>  <TORSDO>
F 6

$$$$
=
 OpenBabel11052421353D

 32 36  0  0  1  0  0  0  0  0999 V2000
  193.4140  172.4490  141.5620 C   0  0  1  0  0  3  0  0  0  0  0  0
  189.6500  175.2340  143.6520 C   0  0  0  0  0  0  0  0  0  0  0  0
  191.5020  176.7650  147.8680 C   0  0  0  0  0  3  0  0  0  0  0  0
  190.3470  177.5150  148.0930 C   0  0  0  0  0  3  0  0  0  0  0  0
  190.9080  173.7310  142.2380 C   0  0  0  0  0  0  0  0  0  0  0  0
  191.8220  174.4800  144.3230 N   0  0  0  0  0  0  0  0  0  0  0  0
  193.1900  172.9090  143.0060 C   0  0  0  0  0  2  0  0  0  0  0  0
  191.6250  175.9990  146.7060 C   0  0  0  0  0  3  0  0  0  0  0  0
  190.7070  175.2190  144.5830 C   0  0  0  0  0  0  0  0  0  0  0  0
  190.5910  175.9760  145.7580 C   0  0  0  0  0  0  0  0  0  0  0  0
  188.3760  176.6990  145.0330 C   0  0  0  0  0  0  0  0  0  0  0  0
  192.1100  171.9260  140.9590 C   0  0  0  0  0  2  0  0  0  0  0  0
  191.9570  173.7540  143.1810 C   0  0  0  0  0  0  0  0  0  0  0  0
  191.0320  173.0090  140.9280 C   0  0  0  0  0  2  0  0  0  0  0  0
  189.3080  177.4990  147.1580 C   0  0  0  0  0  3  0  0  0  0  0  0
  189.4150  176.7310  145.9870 C   0  0  0  0  0  0  0  0  0  0  0  0
  189.7620  174.4910  142.4790 C   0  0  0  0  0  3  0  0  0  0  0  0
  188.5330  175.9670  143.8950 N   0  0  0  0  0  0  0  0  0  0  0  0
  185.9920  176.6180  145.7070 C   0  0  2  0  0  3  0  0  0  0  0  0
  187.1210  177.5090  145.2150 C   0  0  2  0  0  3  0  0  0  0  0  0
  186.0390  177.0630  144.2430 C   0  0  2  0  0  3  0  0  0  0  0  0
  185.0610  177.4280  146.6000 C   0  0  0  0  0  2  0  0  0  0  0  0
  185.8440  177.9990  147.7630 C   0  0  0  0  0  1  0  0  0  0  0  0
  184.1220  177.8260  143.0250 O   0  0  0  0  0  1  0  0  0  0  0  0
  185.1370  178.2450  143.8880 C   0  0  2  0  0  3  0  0  0  0  0  0
  185.9400  179.3670  143.2420 C   0  0  0  0  0  2  0  0  0  0  0  0
  186.6470  178.8940  142.1340 O   0  0  0  0  0  1  0  0  0  0  0  0
  194.8550  174.3690  141.2330 N   0  0  0  0  0  0  0  0  0  0  0  0
  194.0080  173.5340  140.7230 C   0  0  0  0  0  3  0  0  0  0  0  0
  195.4420  175.4220  140.4660 C   0  0  0  0  0  0  0  0  0  0  0  0
  195.9570  176.6320  141.1570 C   0  0  0  0  0  1  0  0  0  0  0  0
  195.5320  175.3380  139.2100 O   0  0  0  0  0  0  0  0  0  0  0  0
  1 29  1  6  0  0  0
  1  7  1  0  0  0  0
  2 18  2  0  0  0  0
  2  9  1  0  0  0  0
  3  4  1  0  0  0  0
  5 17  2  0  0  0  0
  5 13  1  0  0  0  0
  6  9  1  0  0  0  0
  7 13  1  0  0  0  0
  8  3  2  0  0  0  0
  9 10  2  0  0  0  0
 10 16  1  0  0  0  0
 10  8  1  0  0  0  0
 11 16  2  0  0  0  0
 12  1  1  0  0  0  0
 13  6  2  0  0  0  0
 14 12  1  0  0  0  0
 14  5  1  0  0  0  0
 15  4  2  0  0  0  0
 16 15  1  0  0  0  0
 17  2  1  0  0  0  0
 18 11  1  0  0  0  0
 19 22  1  1  0  0  0
 20 11  1  6  0  0  0
 20 19  1  0  0  0  0
 21 25  1  1  0  0  0
 21 20  1  0  0  0  0
 21 19  1  0  0  0  0
 22 23  1  0  0  0  0
 25 24  1  6  0  0  0
 26 25  1  0  0  0  0
 27 26  1  0  0  0  0
 29 28  2  0  0  0  0
 30 31  1  0  0  0  0
 30 28  1  0  0  0  0
 32 30  2  0  0  0  0
M  END
>  <MODEL>
2

>  <REMARK>
 VINA RESULT:      -7.0      1.678      2.085
  Name = 
  6 active torsions:
  status: ('A' for Active; 'I' for Inactive)
    1  A    between atoms: C_1  and  N_10
    2  A    between atoms: C_2  and  C_24
    3  A    between atoms: C_6  and  C_7
    4  A    between atoms: C_11  and  C_22
    5  A    between atoms: C_16  and  C_27
    6  A    between atoms: C_22  and  C_32
                            x       y       z     vdW  Elec       q    Type
                         _______ _______ _______ _____ _____    ______ ____

>  <TORSDO>
F 6

$$$$
=
 OpenBabel11052421353D

 32 36  0  0  1  0  0  0  0  0999 V2000
  193.8610  172.0730  143.8940 C   0  0  1  0  0  3  0  0  0  0  0  0
  189.8480  175.1270  144.8200 C   0  0  0  0  0  0  0  0  0  0  0  0
  191.1820  177.7000  148.7110 C   0  0  0  0  0  3  0  0  0  0  0  0
  189.9990  178.4350  148.6190 C   0  0  0  0  0  3  0  0  0  0  0  0
  191.2780  173.3790  143.9600 C   0  0  0  0  0  0  0  0  0  0  0  0
  191.9370  174.6440  145.8870 N   0  0  0  0  0  0  0  0  0  0  0  0
  193.4670  172.8580  145.1480 C   0  0  0  0  0  2  0  0  0  0  0  0
  191.4480  176.6830  147.7910 C   0  0  0  0  0  3  0  0  0  0  0  0
  190.7910  175.3790  145.8350 C   0  0  0  0  0  0  0  0  0  0  0  0
  190.5300  176.3910  146.7710 C   0  0  0  0  0  0  0  0  0  0  0  0
  188.4050  176.8290  145.6540 C   0  0  0  0  0  0  0  0  0  0  0  0
  192.6430  171.3690  143.2990 C   0  0  0  0  0  2  0  0  0  0  0  0
  192.2110  173.6700  144.9780 C   0  0  0  0  0  0  0  0  0  0  0  0
  191.5620  172.3690  142.8870 C   0  0  0  0  0  2  0  0  0  0  0  0
  189.0760  178.1540  147.6100 C   0  0  0  0  0  3  0  0  0  0  0  0
  189.3270  177.1320  146.6800 C   0  0  0  0  0  0  0  0  0  0  0  0
  190.1030  174.1290  143.8820 C   0  0  0  0  0  3  0  0  0  0  0  0
  188.7020  175.8510  144.7540 N   0  0  0  0  0  0  0  0  0  0  0  0
  185.9440  176.7680  145.9500 C   0  0  2  0  0  3  0  0  0  0  0  0
  187.1280  177.6080  145.4960 C   0  0  2  0  0  3  0  0  0  0  0  0
  186.2220  176.9640  144.4570 C   0  0  2  0  0  3  0  0  0  0  0  0
  184.8720  177.6790  146.5340 C   0  0  0  0  0  2  0  0  0  0  0  0
  185.4940  178.6010  147.5610 C   0  0  0  0  0  1  0  0  0  0  0  0
  184.5750  177.4470  142.7860 O   0  0  0  0  0  1  0  0  0  0  0  0
  185.3750  178.0340  143.7680 C   0  0  2  0  0  3  0  0  0  0  0  0
  186.2580  179.1090  143.1460 C   0  0  0  0  0  2  0  0  0  0  0  0
  186.9100  178.6170  142.0130 O   0  0  0  0  0  1  0  0  0  0  0  0
  195.2420  173.9630  143.2650 N   0  0  0  0  0  0  0  0  0  0  0  0
  194.5350  172.9470  142.8850 C   0  0  0  0  0  3  0  0  0  0  0  0
  195.8990  174.8240  142.3330 C   0  0  0  0  0  0  0  0  0  0  0  0
  196.8640  175.8400  142.8280 C   0  0  0  0  0  1  0  0  0  0  0  0
  195.6720  174.7340  141.0950 O   0  0  0  0  0  0  0  0  0  0  0  0
  1 29  1  6  0  0  0
  1  7  1  0  0  0  0
  2  9  1  0  0  0  0
  4  3  1  0  0  0  0
  5 13  1  0  0  0  0
  8  3  2  0  0  0  0
  9  6  1  0  0  0  0
  9 10  2  0  0  0  0
 10  8  1  0  0  0  0
 11 16  2  0  0  0  0
 12  1  1  0  0  0  0
 13  7  1  0  0  0  0
 13  6  2  0  0  0  0
 14 12  1  0  0  0  0
 14  5  1  0  0  0  0
 15  4  2  0  0  0  0
 16 10  1  0  0  0  0
 16 15  1  0  0  0  0
 17  5  2  0  0  0  0
 17  2  1  0  0  0  0
 18  2  2  0  0  0  0
 18 11  1  0  0  0  0
 19 22  1  6  0  0  0
 20 11  1  1  0  0  0
 20 19  1  0  0  0  0
 21 25  1  6  0  0  0
 21 20  1  0  0  0  0
 21 19  1  0  0  0  0
 22 23  1  0  0  0  0
 25 24  1  6  0  0  0
 26 25  1  0  0  0  0
 27 26  1  0  0  0  0
 29 28  2  0  0  0  0
 30 31  1  0  0  0  0
 30 28  1  0  0  0  0
 32 30  2  0  0  0  0
M  END
>  <MODEL>
3

>  <REMARK>
 VINA RESULT:      -7.0      2.592      3.213
  Name = 
  6 active torsions:
  status: ('A' for Active; 'I' for Inactive)
    1  A    between atoms: C_1  and  N_10
    2  A    between atoms: C_2  and  C_24
    3  A    between atoms: C_6  and  C_7
    4  A    between atoms: C_11  and  C_22
    5  A    between atoms: C_16  and  C_27
    6  A    between atoms: C_22  and  C_32
                            x       y       z     vdW  Elec       q    Type
                         _______ _______ _______ _____ _____    ______ ____

>  <TORSDO>
F 6

$$$$
=
 OpenBabel11052421353D

 32 36  0  0  1  0  0  0  0  0999 V2000
  186.2850  177.8820  147.4370 C   0  0  1  0  0  3  0  0  0  0  0  0
  190.8610  176.0590  146.0120 C   0  0  0  0  0  0  0  0  0  0  0  0
  189.8570  171.7580  144.0040 C   0  0  0  0  0  3  0  0  0  0  0  0
  191.2020  171.6130  143.6630 C   0  0  0  0  0  3  0  0  0  0  0  0
  189.1060  177.3760  147.0250 C   0  0  0  0  0  0  0  0  0  0  0  0
  188.6080  175.2480  146.0410 N   0  0  0  0  0  0  0  0  0  0  0  0
  186.7330  176.4610  147.0830 C   0  0  0  0  0  2  0  0  0  0  0  0
  189.4250  172.9010  144.6810 C   0  0  0  0  0  3  0  0  0  0  0  0
  189.9140  175.0660  145.6960 C   0  0  0  0  0  0  0  0  0  0  0  0
  190.3370  173.9090  145.0250 C   0  0  0  0  0  0  0  0  0  0  0  0
  192.6180  174.7770  145.0390 C   0  0  0  0  0  0  0  0  0  0  0  0
  187.3150  178.5560  148.3430 C   0  0  0  0  0  2  0  0  0  0  0  0
  188.1790  176.3710  146.6770 C   0  0  0  0  0  0  0  0  0  0  0  0
  188.6780  178.6670  147.6590 C   0  0  0  0  0  2  0  0  0  0  0  0
  192.1220  172.6090  144.0010 C   0  0  0  0  0  3  0  0  0  0  0  0
  191.7040  173.7620  144.6850 C   0  0  0  0  0  0  0  0  0  0  0  0
  190.4460  177.2150  146.6710 C   0  0  0  0  0  3  0  0  0  0  0  0
  192.1660  175.8940  145.6740 N   0  0  0  0  0  0  0  0  0  0  0  0
  194.9390  175.0250  145.8750 C   0  0  2  0  0  3  0  0  0  0  0  0
  194.0740  174.6820  144.6720 C   0  0  2  0  0  3  0  0  0  0  0  0
  194.7450  176.0450  144.7500 C   0  0  2  0  0  3  0  0  0  0  0  0
  196.2350  174.2270  145.8100 C   0  0  0  0  0  2  0  0  0  0  0  0
  195.9180  172.7480  145.7630 C   0  0  0  0  0  1  0  0  0  0  0  0
  196.5770  177.3270  143.8880 O   0  0  0  0  0  1  0  0  0  0  0  0
  195.8850  176.1230  143.7340 C   0  0  2  0  0  3  0  0  0  0  0  0
  195.3540  176.0070  142.3110 C   0  0  0  0  0  2  0  0  0  0  0  0
  196.1090  176.7910  141.4360 O   0  0  0  0  0  1  0  0  0  0  0  0
  185.3850  178.1820  145.2080 N   0  0  0  0  0  0  0  0  0  0  0  0
  186.0160  178.6970  146.2130 C   0  0  0  0  0  3  0  0  0  0  0  0
  185.1120  178.9260  144.0180 C   0  0  0  0  0  0  0  0  0  0  0  0
  184.3390  178.2910  142.9190 C   0  0  0  0  0  1  0  0  0  0  0  0
  185.5160  180.1130  143.8890 O   0  0  0  0  0  0  0  0  0  0  0  0
  1 29  1  6  0  0  0
  1 12  1  0  0  0  0
  2 17  1  0  0  0  0
  3  8  1  0  0  0  0
  4 15  1  0  0  0  0
  4  3  2  0  0  0  0
  5 14  1  0  0  0  0
  6 13  2  0  0  0  0
  7  1  1  0  0  0  0
  8 10  2  0  0  0  0
  9  2  2  0  0  0  0
  9  6  1  0  0  0  0
 10  9  1  0  0  0  0
 11 18  2  0  0  0  0
 13  5  1  0  0  0  0
 13  7  1  0  0  0  0
 14 12  1  0  0  0  0
 15 16  2  0  0  0  0
 16 10  1  0  0  0  0
 16 11  1  0  0  0  0
 17  5  2  0  0  0  0
 18  2  1  0  0  0  0
 19 22  1  6  0  0  0
 20 21  1  0  0  0  0
 20 11  1  1  0  0  0
 20 19  1  0  0  0  0
 21 25  1  6  0  0  0
 21 19  1  0  0  0  0
 23 22  1  0  0  0  0
 25 24  1  6  0  0  0
 26 25  1  0  0  0  0
 27 26  1  0  0  0  0
 28 29  2  0  0  0  0
 30 28  1  0  0  0  0
 31 30  1  0  0  0  0
 32 30  2  0  0  0  0
M  END
>  <MODEL>
4

>  <REMARK>
 VINA RESULT:      -6.9      3.054      8.462
  Name = 
  6 active torsions:
  status: ('A' for Active; 'I' for Inactive)
    1  A    between atoms: C_1  and  N_10
    2  A    between atoms: C_2  and  C_24
    3  A    between atoms: C_6  and  C_7
    4  A    between atoms: C_11  and  C_22
    5  A    between atoms: C_16  and  C_27
    6  A    between atoms: C_22  and  C_32
                            x       y       z     vdW  Elec       q    Type
                         _______ _______ _______ _____ _____    ______ ____

>  <TORSDO>
F 6

$$$$
=
 OpenBabel11052421353D

 32 36  0  0  1  0  0  0  0  0999 V2000
  195.7900  173.6250  144.8710 C   0  0  1  0  0  3  0  0  0  0  0  0
  191.0660  175.4590  144.0890 C   0  0  0  0  0  0  0  0  0  0  0  0
  189.7710  173.6180  139.7910 C   0  0  0  0  0  3  0  0  0  0  0  0
  188.5050  174.1870  139.9390 C   0  0  0  0  0  3  0  0  0  0  0  0
  193.2840  175.0710  144.9680 C   0  0  0  0  0  0  0  0  0  0  0  0
  192.6500  174.1670  142.8400 N   0  0  0  0  0  0  0  0  0  0  0  0
  194.9580  173.7380  143.5910 C   0  0  0  0  0  2  0  0  0  0  0  0
  190.7380  173.7920  140.7840 C   0  0  0  0  0  3  0  0  0  0  0  0
  191.4050  174.7120  142.9440 C   0  0  0  0  0  0  0  0  0  0  0  0
  190.4460  174.5390  141.9350 C   0  0  0  0  0  0  0  0  0  0  0  0
  188.8790  175.8770  143.2430 C   0  0  0  0  0  0  0  0  0  0  0  0
  195.6920  174.9120  145.6880 C   0  0  0  0  0  2  0  0  0  0  0  0
  193.5850  174.3120  143.8170 C   0  0  0  0  0  0  0  0  0  0  0  0
  194.2500  175.2010  146.1080 C   0  0  0  0  0  2  0  0  0  0  0  0
  188.2020  174.9350  141.0800 C   0  0  0  0  0  3  0  0  0  0  0  0
  189.1640  175.1220  142.0850 C   0  0  0  0  0  0  0  0  0  0  0  0
  192.0110  175.6280  145.0990 C   0  0  0  0  0  3  0  0  0  0  0  0
  189.8300  176.0070  144.2090 N   0  0  0  0  0  0  0  0  0  0  0  0
  187.5030  177.9160  142.9400 C   0  0  2  0  0  3  0  0  0  0  0  0
  187.5220  176.4890  143.4640 C   0  0  2  0  0  3  0  0  0  0  0  0
  187.6010  177.6490  144.4450 C   0  0  2  0  0  3  0  0  0  0  0  0
  186.1060  178.2490  142.4320 C   0  0  0  0  0  2  0  0  0  0  0  0
  186.0100  177.9180  140.9580 C   0  0  0  0  0  1  0  0  0  0  0  0
  186.1530  179.0600  145.7290 O   0  0  0  0  0  1  0  0  0  0  0  0
  186.2880  177.7680  145.2180 C   0  0  2  0  0  3  0  0  0  0  0  0
  186.2310  176.7510  146.3520 C   0  0  0  0  0  2  0  0  0  0  0  0
  187.5020  176.5400  146.8910 O   0  0  0  0  0  1  0  0  0  0  0  0
  196.0410  171.3150  145.5580 N   0  0  0  0  0  0  0  0  0  0  0  0
  195.3980  172.4310  145.6810 C   0  0  0  0  0  3  0  0  0  0  0  0
  195.6960  170.1500  146.3110 C   0  0  0  0  0  0  0  0  0  0  0  0
  196.7570  169.4080  147.0400 C   0  0  0  0  0  1  0  0  0  0  0  0
  194.5030  169.7430  146.3660 O   0  0  0  0  0  0  0  0  0  0  0  0
  1 29  1  1  0  0  0
  1 12  1  0  0  0  0
  2 18  1  0  0  0  0
  2 17  1  0  0  0  0
  3  4  2  0  0  0  0
  3  8  1  0  0  0  0
  4 15  1  0  0  0  0
  5 17  2  0  0  0  0
  5 14  1  0  0  0  0
  6  9  1  0  0  0  0
  6 13  2  0  0  0  0
  7 13  1  0  0  0  0
  7  1  1  0  0  0  0
  8 10  2  0  0  0  0
  9  2  2  0  0  0  0
 10 16  1  0  0  0  0
 10  9  1  0  0  0  0
 11 18  2  0  0  0  0
 12 14  1  0  0  0  0
 13  5  1  0  0  0  0
 15 16  2  0  0  0  0
 16 11  1  0  0  0  0
 19 22  1  1  0  0  0
 19 20  1  0  0  0  0
 19 21  1  0  0  0  0
 20 11  1  6  0  0  0
 20 21  1  0  0  0  0
 21 25  1  1  0  0  0
 23 22  1  0  0  0  0
 25 24  1  1  0  0  0
 25 26  1  0  0  0  0
 26 27  1  0  0  0  0
 28 29  2  0  0  0  0
 28 30  1  0  0  0  0
 30 32  2  0  0  0  0
 30 31  1  0  0  0  0
M  END
>  <MODEL>
5

>  <REMARK>
 VINA RESULT:      -6.8      3.644      5.990
  Name = 
  6 active torsions:
  status: ('A' for Active; 'I' for Inactive)
    1  A    between atoms: C_1  and  N_10
    2  A    between atoms: C_2  and  C_24
    3  A    between atoms: C_6  and  C_7
    4  A    between atoms: C_11  and  C_22
    5  A    between atoms: C_16  and  C_27
    6  A    between atoms: C_22  and  C_32
                            x       y       z     vdW  Elec       q    Type
                         _______ _______ _______ _____ _____    ______ ____

>  <TORSDO>
F 6

$$$$
=
 OpenBabel11052421353D

 32 36  0  0  1  0  0  0  0  0999 V2000
  192.3280  171.1210  141.4970 C   0  0  1  0  0  3  0  0  0  0  0  0
  189.2090  174.6350  143.5490 C   0  0  0  0  0  0  0  0  0  0  0  0
  191.5570  176.1380  147.5190 C   0  0  0  0  0  3  0  0  0  0  0  0
  190.5550  177.0830  147.7440 C   0  0  0  0  0  3  0  0  0  0  0  0
  190.1120  172.8460  142.1970 C   0  0  0  0  0  0  0  0  0  0  0  0
  191.2710  173.5810  144.1630 N   0  0  0  0  0  0  0  0  0  0  0  0
  192.2770  171.7150  142.9070 C   0  0  0  0  0  2  0  0  0  0  0  0
  191.4780  175.2810  146.4190 C   0  0  0  0  0  3  0  0  0  0  0  0
  190.3090  174.5120  144.4200 C   0  0  0  0  0  0  0  0  0  0  0  0
  190.3940  175.3610  145.5330 C   0  0  0  0  0  0  0  0  0  0  0  0
  188.2810  176.3870  144.8700 C   0  0  0  0  0  0  0  0  0  0  0  0
  190.9210  170.7790  141.0090 C   0  0  0  0  0  2  0  0  0  0  0  0
  191.2110  172.7620  143.0790 C   0  0  0  0  0  0  0  0  0  0  0  0
  190.0310  172.0210  140.9470 C   0  0  0  0  0  2  0  0  0  0  0  0
  189.4680  177.1730  146.8700 C   0  0  0  0  0  3  0  0  0  0  0  0
  189.3730  176.3150  145.7620 C   0  0  0  0  0  0  0  0  0  0  0  0
  189.1220  173.8010  142.4360 C   0  0  0  0  0  3  0  0  0  0  0  0
  188.2430  175.5580  143.7900 N   0  0  0  0  0  0  0  0  0  0  0  0
  185.9860  176.7640  145.7280 C   0  0  2  0  0  3  0  0  0  0  0  0
  187.1880  177.4040  145.0520 C   0  0  2  0  0  3  0  0  0  0  0  0
  185.9650  177.0430  144.2230 C   0  0  2  0  0  3  0  0  0  0  0  0
  185.2780  177.8020  146.5890 C   0  0  0  0  0  2  0  0  0  0  0  0
  186.1260  178.1180  147.8030 C   0  0  0  0  0  1  0  0  0  0  0  0
  184.0550  177.9780  143.1190 O   0  0  0  0  0  1  0  0  0  0  0  0
  185.2260  178.3140  143.8030 C   0  0  2  0  0  3  0  0  0  0  0  0
  186.1080  179.1910  142.9250 C   0  0  0  0  0  2  0  0  0  0  0  0
  186.5330  178.4900  141.7940 O   0  0  0  0  0  1  0  0  0  0  0  0
  193.6510  171.5460  139.5120 N   0  0  0  0  0  0  0  0  0  0  0  0
  193.0330  172.0290  140.5410 C   0  0  0  0  0  3  0  0  0  0  0  0
  194.3400  172.3790  138.5770 C   0  0  0  0  0  0  0  0  0  0  0  0
  195.5580  173.1120  139.0070 C   0  0  0  0  0  1  0  0  0  0  0  0
  193.9280  172.5010  137.3900 O   0  0  0  0  0  0  0  0  0  0  0  0
  1 29  1  6  0  0  0
  1  7  1  0  0  0  0
  2 18  2  0  0  0  0
  2  9  1  0  0  0  0
  3  4  1  0  0  0  0
  5 17  2  0  0  0  0
  5 13  1  0  0  0  0
  6  9  1  0  0  0  0
  7 13  1  0  0  0  0
  8  3  2  0  0  0  0
  9 10  2  0  0  0  0
 10 16  1  0  0  0  0
 10  8  1  0  0  0  0
 11 16  2  0  0  0  0
 12  1  1  0  0  0  0
 13  6  2  0  0  0  0
 14 12  1  0  0  0  0
 14  5  1  0  0  0  0
 15  4  2  0  0  0  0
 16 15  1  0  0  0  0
 17  2  1  0  0  0  0
 18 11  1  0  0  0  0
 19 22  1  1  0  0  0
 20 11  1  6  0  0  0
 20 19  1  0  0  0  0
 21 25  1  1  0  0  0
 21 20  1  0  0  0  0
 21 19  1  0  0  0  0
 22 23  1  0  0  0  0
 25 24  1  6  0  0  0
 26 25  1  0  0  0  0
 27 26  1  0  0  0  0
 28 29  2  0  0  0  0
 30 31  1  0  0  0  0
 30 28  1  0  0  0  0
 32 30  2  0  0  0  0
M  END
>  <MODEL>
6

>  <REMARK>
 VINA RESULT:      -6.7      1.544      1.758
  Name = 
  6 active torsions:
  status: ('A' for Active; 'I' for Inactive)
    1  A    between atoms: C_1  and  N_10
    2  A    between atoms: C_2  and  C_24
    3  A    between atoms: C_6  and  C_7
    4  A    between atoms: C_11  and  C_22
    5  A    between atoms: C_16  and  C_27
    6  A    between atoms: C_22  and  C_32
                            x       y       z     vdW  Elec       q    Type
                         _______ _______ _______ _____ _____    ______ ____

>  <TORSDO>
F 6

$$$$
=
 OpenBabel11052421353D

 32 36  0  0  1  0  0  0  0  0999 V2000
  192.3040  172.2880  140.1270 C   0  0  1  0  0  3  0  0  0  0  0  0
  188.3710  174.9790  142.0210 C   0  0  0  0  0  0  0  0  0  0  0  0
  189.5080  175.6180  146.6950 C   0  0  0  0  0  3  0  0  0  0  0  0
  188.3710  176.4110  146.8540 C   0  0  0  0  0  3  0  0  0  0  0  0
  189.7850  173.6390  140.5910 C   0  0  0  0  0  0  0  0  0  0  0  0
  190.3460  173.9470  142.9010 N   0  0  0  0  0  0  0  0  0  0  0  0
  191.8470  172.5150  141.5710 C   0  0  0  0  0  2  0  0  0  0  0  0
  189.7990  175.0530  145.4510 C   0  0  0  0  0  3  0  0  0  0  0  0
  189.2410  174.7210  143.0980 C   0  0  0  0  0  0  0  0  0  0  0  0
  188.9530  175.2750  144.3550 C   0  0  0  0  0  0  0  0  0  0  0  0
  186.9450  176.2890  143.4090 C   0  0  0  0  0  0  0  0  0  0  0  0
  191.1050  171.9830  139.2290 C   0  0  0  0  0  2  0  0  0  0  0  0
  190.6470  173.4160  141.6860 C   0  0  0  0  0  0  0  0  0  0  0  0
  190.1070  173.1410  139.2130 C   0  0  0  0  0  2  0  0  0  0  0  0
  187.5180  176.6390  145.7710 C   0  0  0  0  0  3  0  0  0  0  0  0
  187.7950  176.0740  144.5150 C   0  0  0  0  0  0  0  0  0  0  0  0
  188.6550  174.4390  140.7690 C   0  0  0  0  0  3  0  0  0  0  0  0
  187.2680  175.7490  142.2010 N   0  0  0  0  0  0  0  0  0  0  0  0
  185.4940  177.9090  142.2180 C   0  0  2  0  0  3  0  0  0  0  0  0
  185.7210  177.1570  143.5210 C   0  0  2  0  0  3  0  0  0  0  0  0
  186.0880  178.6300  143.4320 C   0  0  2  0  0  3  0  0  0  0  0  0
  184.0000  178.1180  142.0090 C   0  0  0  0  0  2  0  0  0  0  0  0
  183.7130  178.2810  140.5310 C   0  0  0  0  0  1  0  0  0  0  0  0
  185.4260  180.8190  144.1480 O   0  0  0  0  0  1  0  0  0  0  0  0
  185.0990  179.4640  144.2460 C   0  0  2  0  0  3  0  0  0  0  0  0
  185.1000  179.0340  145.7080 C   0  0  0  0  0  2  0  0  0  0  0  0
  183.9780  178.2540  145.9940 O   0  0  0  0  0  1  0  0  0  0  0  0
  194.0070  173.2700  138.7100 N   0  0  0  0  0  0  0  0  0  0  0  0
  193.0940  173.4480  139.6100 C   0  0  0  0  0  3  0  0  0  0  0  0
  194.7870  174.3500  138.1930 C   0  0  0  0  0  0  0  0  0  0  0  0
  194.1480  175.3530  137.3010 C   0  0  0  0  0  1  0  0  0  0  0  0
  196.0090  174.4660  138.4830 O   0  0  0  0  0  0  0  0  0  0  0  0
  1 29  1  6  0  0  0
  1  7  1  0  0  0  0
  2 18  2  0  0  0  0
  2  9  1  0  0  0  0
  3  4  1  0  0  0  0
  5 17  2  0  0  0  0
  5 13  1  0  0  0  0
  6  9  1  0  0  0  0
  7 13  1  0  0  0  0
  8  3  2  0  0  0  0
  9 10  2  0  0  0  0
 10 16  1  0  0  0  0
 10  8  1  0  0  0  0
 11 16  2  0  0  0  0
 12  1  1  0  0  0  0
 13  6  2  0  0  0  0
 14 12  1  0  0  0  0
 14  5  1  0  0  0  0
 15  4  2  0  0  0  0
 16 15  1  0  0  0  0
 17  2  1  0  0  0  0
 18 11  1  0  0  0  0
 19 22  1  1  0  0  0
 19 21  1  0  0  0  0
 19 20  1  0  0  0  0
 20 11  1  6  0  0  0
 21 20  1  0  0  0  0
 21 25  1  1  0  0  0
 23 22  1  0  0  0  0
 25 24  1  1  0  0  0
 25 26  1  0  0  0  0
 26 27  1  0  0  0  0
 28 29  2  0  0  0  0
 30 32  2  0  0  0  0
 30 28  1  0  0  0  0
 31 30  1  0  0  0  0
M  END
>  <MODEL>
7

>  <REMARK>
 VINA RESULT:      -6.6      1.577      2.612
  Name = 
  6 active torsions:
  status: ('A' for Active; 'I' for Inactive)
    1  A    between atoms: C_1  and  N_10
    2  A    between atoms: C_2  and  C_24
    3  A    between atoms: C_6  and  C_7
    4  A    between atoms: C_11  and  C_22
    5  A    between atoms: C_16  and  C_27
    6  A    between atoms: C_22  and  C_32
                            x       y       z     vdW  Elec       q    Type
                         _______ _______ _______ _____ _____    ______ ____

>  <TORSDO>
F 6

$$$$
=
 OpenBabel11052421353D

 32 36  0  0  1  0  0  0  0  0999 V2000
  180.7630  179.3370  141.9420 C   0  0  1  0  0  3  0  0  0  0  0  0
  185.4360  177.3660  142.6990 C   0  0  0  0  0  0  0  0  0  0  0  0
  186.0820  177.6420  147.4990 C   0  0  0  0  0  3  0  0  0  0  0  0
  187.3010  176.9760  147.3650 C   0  0  0  0  0  3  0  0  0  0  0  0
  183.4460  178.2820  141.6770 C   0  0  0  0  0  0  0  0  0  0  0  0
  183.7660  178.4270  144.0490 N   0  0  0  0  0  0  0  0  0  0  0  0
  181.7170  179.4470  143.1350 C   0  0  0  0  0  2  0  0  0  0  0  0
  185.3040  177.9150  146.3710 C   0  0  0  0  0  3  0  0  0  0  0  0
  184.9650  177.7850  143.9580 C   0  0  0  0  0  0  0  0  0  0  0  0
  185.7420  177.5260  145.0970 C   0  0  0  0  0  0  0  0  0  0  0  0
  187.4180  176.4710  143.6710 C   0  0  0  0  0  0  0  0  0  0  0  0
  181.5240  179.5260  140.6300 C   0  0  0  0  0  2  0  0  0  0  0  0
  182.9940  178.6720  142.9560 C   0  0  0  0  0  0  0  0  0  0  0  0
  182.6040  178.4590  140.4490 C   0  0  0  0  0  2  0  0  0  0  0  0
  187.7490  176.5840  146.1010 C   0  0  0  0  0  3  0  0  0  0  0  0
  186.9810  176.8550  144.9570 C   0  0  0  0  0  0  0  0  0  0  0  0
  184.6660  177.6130  141.5640 C   0  0  0  0  0  3  0  0  0  0  0  0
  186.6270  176.7240  142.5910 N   0  0  0  0  0  0  0  0  0  0  0  0
  189.7190  176.6150  142.7590 C   0  0  2  0  0  3  0  0  0  0  0  0
  188.7120  175.7280  143.4740 C   0  0  2  0  0  3  0  0  0  0  0  0
  188.9910  175.5040  141.9950 C   0  0  2  0  0  3  0  0  0  0  0  0
  191.1250  176.2640  143.2280 C   0  0  0  0  0  2  0  0  0  0  0  0
  191.6440  177.3580  144.1360 C   0  0  0  0  0  1  0  0  0  0  0  0
  189.9600  173.9590  140.4420 O   0  0  0  0  0  1  0  0  0  0  0  0
  189.7860  174.2120  141.8050 C   0  0  2  0  0  3  0  0  0  0  0  0
  189.0780  173.0370  142.4660 C   0  0  0  0  0  2  0  0  0  0  0  0
  187.9210  172.6960  141.7620 O   0  0  0  0  0  1  0  0  0  0  0  0
  178.8110  177.9810  141.4720 N   0  0  0  0  0  0  0  0  0  0  0  0
  180.0090  178.0460  141.9560 C   0  0  0  0  0  3  0  0  0  0  0  0
  178.0550  176.7680  141.4700 C   0  0  0  0  0  0  0  0  0  0  0  0
  177.6910  176.1290  142.7620 C   0  0  0  0  0  1  0  0  0  0  0  0
  177.6910  176.2320  140.3870 O   0  0  0  0  0  0  0  0  0  0  0  0
  1 29  1  6  0  0  0
  1  7  1  0  0  0  0
  2  9  1  0  0  0  0
  4  3  1  0  0  0  0
  5 13  1  0  0  0  0
  8  3  2  0  0  0  0
  9  6  1  0  0  0  0
  9 10  2  0  0  0  0
 10  8  1  0  0  0  0
 11 16  2  0  0  0  0
 12  1  1  0  0  0  0
 13  7  1  0  0  0  0
 13  6  2  0  0  0  0
 14 12  1  0  0  0  0
 14  5  1  0  0  0  0
 15  4  2  0  0  0  0
 16 10  1  0  0  0  0
 16 15  1  0  0  0  0
 17  5  2  0  0  0  0
 17  2  1  0  0  0  0
 18  2  2  0  0  0  0
 18 11  1  0  0  0  0
 19 22  1  1  0  0  0
 19 20  1  0  0  0  0
 20 11  1  6  0  0  0
 21 25  1  1  0  0  0
 21 19  1  0  0  0  0
 21 20  1  0  0  0  0
 22 23  1  0  0  0  0
 25 24  1  6  0  0  0
 25 26  1  0  0  0  0
 27 26  1  0  0  0  0
 28 29  2  0  0  0  0
 30 28  1  0  0  0  0
 30 31  1  0  0  0  0
 32 30  2  0  0  0  0
M  END
>  <MODEL>
8

>  <REMARK>
 VINA RESULT:      -6.4      4.253      8.735
  Name = 
  6 active torsions:
  status: ('A' for Active; 'I' for Inactive)
    1  A    between atoms: C_1  and  N_10
    2  A    between atoms: C_2  and  C_24
    3  A    between atoms: C_6  and  C_7
    4  A    between atoms: C_11  and  C_22
    5  A    between atoms: C_16  and  C_27
    6  A    between atoms: C_22  and  C_32
                            x       y       z     vdW  Elec       q    Type
                         _______ _______ _______ _____ _____    ______ ____

>  <TORSDO>
F 6

$$$$
=
 OpenBabel11052421353D

 32 36  0  0  1  0  0  0  0  0999 V2000
  187.3790  177.7090  142.2140 C   0  0  1  0  0  3  0  0  0  0  0  0
  191.0220  174.3070  143.4140 C   0  0  0  0  0  0  0  0  0  0  0  0
  194.1630  176.8300  146.1190 C   0  0  0  0  0  3  0  0  0  0  0  0
  194.8970  175.6640  146.3380 C   0  0  0  0  0  3  0  0  0  0  0  0
  189.1200  175.4040  142.4050 C   0  0  0  0  0  0  0  0  0  0  0  0
  190.6740  176.6550  143.7340 N   0  0  0  0  0  0  0  0  0  0  0  0
  188.8090  177.9090  142.7230 C   0  0  0  0  0  2  0  0  0  0  0  0
  193.0100  176.7940  145.3300 C   0  0  0  0  0  3  0  0  0  0  0  0
  191.4220  175.5400  143.9660 C   0  0  0  0  0  0  0  0  0  0  0  0
  192.5830  175.5900  144.7510 C   0  0  0  0  0  0  0  0  0  0  0  0
  192.8980  173.1990  144.3780 C   0  0  0  0  0  0  0  0  0  0  0  0
  187.3450  176.6440  141.1190 C   0  0  0  0  0  2  0  0  0  0  0  0
  189.5370  176.6190  142.9890 C   0  0  0  0  0  0  0  0  0  0  0  0
  187.8360  175.2910  141.6370 C   0  0  0  0  0  2  0  0  0  0  0  0
  194.4840  174.4580  145.7660 C   0  0  0  0  0  3  0  0  0  0  0  0
  193.3300  174.4060  144.9680 C   0  0  0  0  0  0  0  0  0  0  0  0
  189.8660  174.2480  142.6400 C   0  0  0  0  0  3  0  0  0  0  0  0
  191.7560  173.1860  143.6370 N   0  0  0  0  0  0  0  0  0  0  0  0
  195.0280  171.9900  143.9890 C   0  0  2  0  0  3  0  0  0  0  0  0
  193.6390  171.9090  144.6040 C   0  0  2  0  0  3  0  0  0  0  0  0
  193.9180  171.2030  143.2860 C   0  0  2  0  0  3  0  0  0  0  0  0
  195.9950  171.1500  144.8120 C   0  0  0  0  0  2  0  0  0  0  0  0
  197.1720  172.0020  145.2370 C   0  0  0  0  0  1  0  0  0  0  0  0
  194.0280  169.0370  142.2690 O   0  0  0  0  0  1  0  0  0  0  0  0
  193.9510  169.6900  143.5010 C   0  0  2  0  0  3  0  0  0  0  0  0
  192.7170  169.2220  144.2620 C   0  0  0  0  0  2  0  0  0  0  0  0
  193.0670  168.3020  145.2520 O   0  0  0  0  0  1  0  0  0  0  0  0
  186.1290  178.2720  144.2130 N   0  0  0  0  0  0  0  0  0  0  0  0
  186.4370  177.3790  143.3280 C   0  0  0  0  0  3  0  0  0  0  0  0
  185.2370  177.9950  145.2940 C   0  0  0  0  0  0  0  0  0  0  0  0
  185.4830  176.8160  146.1640 C   0  0  0  0  0  1  0  0  0  0  0  0
  184.2430  178.7390  145.5220 O   0  0  0  0  0  0  0  0  0  0  0  0
  1  7  1  0  0  0  0
  1 29  1  1  0  0  0
  2 18  2  0  0  0  0
  2  9  1  0  0  0  0
  3  4  1  0  0  0  0
  5 17  2  0  0  0  0
  5 13  1  0  0  0  0
  6  9  1  0  0  0  0
  7 13  1  0  0  0  0
  8  3  2  0  0  0  0
  9 10  2  0  0  0  0
 10 16  1  0  0  0  0
 10  8  1  0  0  0  0
 11 16  2  0  0  0  0
 12 14  1  0  0  0  0
 12  1  1  0  0  0  0
 13  6  2  0  0  0  0
 14  5  1  0  0  0  0
 15  4  2  0  0  0  0
 16 15  1  0  0  0  0
 17  2  1  0  0  0  0
 18 11  1  0  0  0  0
 19 20  1  0  0  0  0
 19 22  1  1  0  0  0
 20 11  1  6  0  0  0
 21 25  1  1  0  0  0
 21 19  1  0  0  0  0
 21 20  1  0  0  0  0
 22 23  1  0  0  0  0
 25 24  1  6  0  0  0
 25 26  1  0  0  0  0
 26 27  1  0  0  0  0
 28 30  1  0  0  0  0
 29 28  2  0  0  0  0
 30 32  2  0  0  0  0
 30 31  1  0  0  0  0
M  END
>  <MODEL>
9

>  <REMARK>
 VINA RESULT:      -6.4      3.638      8.338
  Name = 
  6 active torsions:
  status: ('A' for Active; 'I' for Inactive)
    1  A    between atoms: C_1  and  N_10
    2  A    between atoms: C_2  and  C_24
    3  A    between atoms: C_6  and  C_7
    4  A    between atoms: C_11  and  C_22
    5  A    between atoms: C_16  and  C_27
    6  A    between atoms: C_22  and  C_32
                            x       y       z     vdW  Elec       q    Type
                         _______ _______ _______ _____ _____    ______ ____

>  <TORSDO>
F 6

$$$$
