=
 OpenBabel11052421283D

 32 38  0  0  1  0  0  0  0  0999 V2000
  192.4480  174.8950  146.6060 C   0  0  0  0  0  2  0  0  0  0  0  0
  188.3130  176.9680  144.4940 C   0  0  0  0  0  0  0  0  0  0  0  0
  185.4960  178.5550  148.1630 C   0  0  0  0  0  3  0  0  0  0  0  0
  184.4900  178.8790  147.2500 C   0  0  0  0  0  3  0  0  0  0  0  0
  187.0640  177.1700  142.1470 C   0  0  0  0  0  0  0  0  0  0  0  0
  187.6940  176.5400  141.1360 C   0  0  0  0  0  0  0  0  0  0  0  0
  190.5920  176.1670  144.8570 C   0  0  0  0  0  0  0  0  0  0  0  0
  189.2610  176.9740  146.8510 C   0  0  0  0  0  3  0  0  0  0  0  0
  185.1640  177.8680  140.5990 C   0  0  0  0  0  0  0  0  0  0  0  0
  191.4380  175.8530  147.2230 C   0  0  0  0  0  2  0  0  0  0  0  0
  186.6960  177.9930  147.7160 C   0  0  0  0  0  3  0  0  0  0  0  0
  188.1240  177.1980  145.8810 C   0  0  0  0  0  0  0  0  0  0  0  0
  186.9020  177.7420  146.3500 C   0  0  0  0  0  0  0  0  0  0  0  0
  186.0830  177.8260  144.0760 C   0  0  0  0  0  0  0  0  0  0  0  0
  185.8280  177.3340  139.5700 C   0  0  0  0  0  3  0  0  0  0  0  0
  190.3750  176.2130  146.2840 N   0  0  0  0  0  0  0  0  0  0  0  0
  187.2110  176.7280  139.7110 C   0  0  0  0  0  3  0  0  0  0  0  0
  191.8400  175.5740  144.2770 C   0  0  0  0  0  2  0  0  0  0  0  0
  192.9680  175.4960  145.3080 C   0  0  2  0  0  3  0  0  0  0  0  0
  184.6780  178.6410  145.8870 C   0  0  0  0  0  3  0  0  0  0  0  0
  185.8730  178.0720  145.4320 C   0  0  0  0  0  0  0  0  0  0  0  0
  185.1820  178.1670  143.0250 N   0  0  0  0  0  0  0  0  0  0  0  0
  189.6170  176.5020  144.0190 C   0  0  0  0  0  3  0  0  0  0  0  0
  189.0440  175.4410  141.3400 Cl  0  0  0  0  0  0  0  0  0  0  0  0
  183.8120  178.4530  140.3870 C   0  0  0  0  0  1  0  0  0  0  0  0
  187.2480  177.2400  143.6120 C   0  0  0  0  0  0  0  0  0  0  0  0
  185.7700  177.8080  141.9300 C   0  0  0  0  0  0  0  0  0  0  0  0
  195.5360  172.8210  145.3960 C   0  0  0  0  0  2  0  0  0  0  0  0
  194.1800  174.7120  144.7950 C   0  0  0  0  0  3  0  0  0  0  0  0
  196.2590  174.0560  145.8890 C   0  0  0  0  0  2  0  0  0  0  0  0
  195.5090  175.2450  145.3170 C   0  0  0  0  0  2  0  0  0  0  0  0
  194.1030  173.2510  145.1910 C   0  0  0  0  0  2  0  0  0  0  0  0
  1 10  1  0  0  0  0
  2 12  1  0  0  0  0
  4  3  2  0  0  0  0
  5 26  1  0  0  0  0
  6 24  1  0  0  0  0
  6  5  2  0  0  0  0
  7 16  1  0  0  0  0
  9 27  2  0  0  0  0
 11  3  1  0  0  0  0
 12 13  1  0  0  0  0
 12  8  2  0  0  0  0
 13 11  2  0  0  0  0
 14 21  1  0  0  0  0
 15 17  2  0  0  0  0
 15  9  1  0  0  0  0
 16  8  1  0  0  0  0
 16 10  1  0  0  0  0
 17  6  1  0  0  0  0
 18  7  1  0  0  0  0
 18 19  1  0  0  0  0
 19 29  1  6  0  0  0
 19  1  1  0  0  0  0
 20  4  1  0  0  0  0
 21 20  2  0  0  0  0
 21 13  1  0  0  0  0
 22 14  2  0  0  0  0
 23  2  1  0  0  0  0
 23  7  2  0  0  0  0
 25  9  1  0  0  0  0
 26 14  1  0  0  0  0
 26  2  2  0  0  0  0
 27  5  1  0  0  0  0
 27 22  1  0  0  0  0
 28 30  1  0  0  0  0
 29 32  1  0  0  0  0
 29 31  1  0  0  0  0
 31 30  1  0  0  0  0
 32 28  1  0  0  0  0
M  END
>  <MODEL>
1

>  <REMARK>
 VINA RESULT:      -9.9      0.000      0.000
  Name = 
  1 active torsions:
  status: ('A' for Active; 'I' for Inactive)
    1  A    between atoms: C_10  and  C_24
                            x       y       z     vdW  Elec       q    Type
                         _______ _______ _______ _____ _____    ______ ____

>  <TORSDO>
F 1

$$$$
=
 OpenBabel11052421283D

 32 38  0  0  1  0  0  0  0  0999 V2000
  185.8900  176.9930  143.6040 C   0  0  0  0  0  2  0  0  0  0  0  0
  190.6420  175.2560  143.0970 C   0  0  0  0  0  0  0  0  0  0  0  0
  190.6900  172.4080  139.1230 C   0  0  0  0  0  3  0  0  0  0  0  0
  192.0080  172.0400  139.4020 C   0  0  0  0  0  3  0  0  0  0  0  0
  192.9530  175.1230  144.4210 C   0  0  0  0  0  0  0  0  0  0  0  0
  192.9200  175.7000  145.6380 C   0  0  0  0  0  0  0  0  0  0  0  0
  188.7180  176.6420  143.6810 C   0  0  0  0  0  0  0  0  0  0  0  0
  188.6030  175.2330  141.5820 C   0  0  0  0  0  3  0  0  0  0  0  0
  195.3740  174.4070  144.7670 C   0  0  0  0  0  0  0  0  0  0  0  0
  186.5610  176.3870  142.3790 C   0  0  0  0  0  2  0  0  0  0  0  0
  190.0130  173.2910  139.9680 C   0  0  0  0  0  3  0  0  0  0  0  0
  189.9780  174.7310  141.9600 C   0  0  0  0  0  0  0  0  0  0  0  0
  190.6440  173.8140  141.1090 C   0  0  0  0  0  0  0  0  0  0  0  0
  192.6060  173.9550  142.5150 C   0  0  0  0  0  0  0  0  0  0  0  0
  195.3840  175.0610  145.9310 C   0  0  0  0  0  3  0  0  0  0  0  0
  187.9460  175.9970  142.6440 N   0  0  0  0  0  0  0  0  0  0  0  0
  194.2040  175.8750  146.4260 C   0  0  0  0  0  3  0  0  0  0  0  0
  188.0820  177.5970  144.6450 C   0  0  0  0  0  2  0  0  0  0  0  0
  186.7500  178.1370  144.1210 C   0  0  2  0  0  3  0  0  0  0  0  0
  192.6540  172.5510  140.5290 C   0  0  0  0  0  3  0  0  0  0  0  0
  191.9810  173.4310  141.3850 C   0  0  0  0  0  0  0  0  0  0  0  0
  193.9620  173.7280  142.8910 N   0  0  0  0  0  0  0  0  0  0  0  0
  189.9760  176.2790  143.9050 C   0  0  0  0  0  3  0  0  0  0  0  0
  191.4590  176.2410  146.4410 Cl  0  0  0  0  0  0  0  0  0  0  0  0
  196.5720  173.6330  144.3400 C   0  0  0  0  0  1  0  0  0  0  0  0
  191.9460  174.8050  143.3870 C   0  0  0  0  0  0  0  0  0  0  0  0
  194.1500  174.4230  143.9650 C   0  0  0  0  0  0  0  0  0  0  0  0
  184.8630  178.6510  147.2730 C   0  0  0  0  0  2  0  0  0  0  0  0
  185.9920  178.9530  145.1730 C   0  0  0  0  0  3  0  0  0  0  0  0
  183.8020  178.6310  146.1950 C   0  0  0  0  0  2  0  0  0  0  0  0
  184.4940  179.0370  144.9080 C   0  0  0  0  0  2  0  0  0  0  0  0
  186.1630  178.3650  146.5590 C   0  0  0  0  0  2  0  0  0  0  0  0
  1 19  1  0  0  0  0
  2 26  2  0  0  0  0
  2 23  1  0  0  0  0
  3  4  2  0  0  0  0
  3 11  1  0  0  0  0
  4 20  1  0  0  0  0
  5  6  1  0  0  0  0
  6 17  2  0  0  0  0
  6 24  1  0  0  0  0
  7 23  2  0  0  0  0
  7 18  1  0  0  0  0
  8 12  2  0  0  0  0
  8 16  1  0  0  0  0
  9 15  2  0  0  0  0
 10 16  1  0  0  0  0
 10  1  1  0  0  0  0
 11 13  2  0  0  0  0
 12  2  1  0  0  0  0
 13 21  1  0  0  0  0
 13 12  1  0  0  0  0
 14 22  2  0  0  0  0
 14 26  1  0  0  0  0
 15 17  1  0  0  0  0
 16  7  1  0  0  0  0
 19 18  1  0  0  0  0
 19 29  1  1  0  0  0
 20 21  2  0  0  0  0
 21 14  1  0  0  0  0
 22 27  1  0  0  0  0
 25  9  1  0  0  0  0
 26  5  1  0  0  0  0
 27  5  2  0  0  0  0
 27  9  1  0  0  0  0
 29 32  1  0  0  0  0
 30 28  1  0  0  0  0
 31 29  1  0  0  0  0
 31 30  1  0  0  0  0
 32 28  1  0  0  0  0
M  END
>  <MODEL>
2

>  <REMARK>
 VINA RESULT:      -9.4      2.786      8.889
  Name = 
  1 active torsions:
  status: ('A' for Active; 'I' for Inactive)
    1  A    between atoms: C_10  and  C_24
                            x       y       z     vdW  Elec       q    Type
                         _______ _______ _______ _____ _____    ______ ____

>  <TORSDO>
F 1

$$$$
=
 OpenBabel11052421283D

 32 38  0  0  1  0  0  0  0  0999 V2000
  188.7830  177.6690  147.1400 C   0  0  0  0  0  2  0  0  0  0  0  0
  190.9930  175.2110  143.2760 C   0  0  0  0  0  0  0  0  0  0  0  0
  195.8230  175.7170  143.8560 C   0  0  0  0  0  3  0  0  0  0  0  0
  196.0360  175.0950  142.6240 C   0  0  0  0  0  3  0  0  0  0  0  0
  190.4060  174.0620  140.9430 C   0  0  0  0  0  0  0  0  0  0  0  0
  189.0970  174.1060  140.6260 C   0  0  0  0  0  0  0  0  0  0  0  0
  189.3980  175.8980  144.9930 C   0  0  0  0  0  0  0  0  0  0  0  0
  191.8690  176.2040  145.4440 C   0  0  0  0  0  3  0  0  0  0  0  0
  190.9530  172.8940  138.7450 C   0  0  0  0  0  0  0  0  0  0  0  0
  190.2220  177.1870  147.0120 C   0  0  0  0  0  2  0  0  0  0  0  0
  194.5210  175.9110  144.3300 C   0  0  0  0  0  3  0  0  0  0  0  0
  192.0930  175.6570  144.0530 C   0  0  0  0  0  0  0  0  0  0  0  0
  193.4160  175.4910  143.5720 C   0  0  0  0  0  0  0  0  0  0  0  0
  192.5430  174.4450  141.5750 C   0  0  0  0  0  0  0  0  0  0  0  0
  189.6490  172.8410  138.4670 C   0  0  0  0  0  3  0  0  0  0  0  0
  190.4700  176.5270  145.7290 N   0  0  0  0  0  0  0  0  0  0  0  0
  188.5830  173.3280  139.4300 C   0  0  0  0  0  3  0  0  0  0  0  0
  187.9680  176.0540  145.4130 C   0  0  0  0  0  2  0  0  0  0  0  0
  187.8450  176.5010  146.8710 C   0  0  2  0  0  3  0  0  0  0  0  0
  194.9490  174.6680  141.8580 C   0  0  0  0  0  3  0  0  0  0  0  0
  193.6430  174.8640  142.3210 C   0  0  0  0  0  0  0  0  0  0  0  0
  192.6040  173.7370  140.3380 N   0  0  0  0  0  0  0  0  0  0  0  0
  189.6420  175.2980  143.8330 C   0  0  0  0  0  3  0  0  0  0  0  0
  187.9000  175.0600  141.4800 Cl  0  0  0  0  0  0  0  0  0  0  0  0
  191.9450  172.3910  137.7550 C   0  0  0  0  0  1  0  0  0  0  0  0
  191.2450  174.6550  142.0050 C   0  0  0  0  0  0  0  0  0  0  0  0
  191.3760  173.5050  140.0060 C   0  0  0  0  0  0  0  0  0  0  0  0
  184.4430  177.8630  146.3050 C   0  0  0  0  0  2  0  0  0  0  0  0
  186.4080  176.8600  147.2580 C   0  0  0  0  0  3  0  0  0  0  0  0
  185.1610  178.9480  147.0770 C   0  0  0  0  0  2  0  0  0  0  0  0
  186.2710  178.2580  147.8470 C   0  0  0  0  0  2  0  0  0  0  0  0
  185.4790  176.7930  146.0620 C   0  0  0  0  0  2  0  0  0  0  0  0
  2 23  1  0  0  0  0
  2 12  1  0  0  0  0
  3 11  1  0  0  0  0
  4  3  2  0  0  0  0
  5 26  1  0  0  0  0
  6  5  1  0  0  0  0
  6 24  1  0  0  0  0
  7 18  1  0  0  0  0
  7 16  1  0  0  0  0
  8 16  1  0  0  0  0
  9 27  1  0  0  0  0
 10  1  1  0  0  0  0
 12  8  2  0  0  0  0
 13 12  1  0  0  0  0
 13 11  2  0  0  0  0
 14 26  1  0  0  0  0
 14 21  1  0  0  0  0
 15  9  2  0  0  0  0
 15 17  1  0  0  0  0
 16 10  1  0  0  0  0
 17  6  2  0  0  0  0
 18 19  1  0  0  0  0
 19  1  1  0  0  0  0
 19 29  1  6  0  0  0
 20 21  2  0  0  0  0
 20  4  1  0  0  0  0
 21 13  1  0  0  0  0
 22 14  2  0  0  0  0
 23  7  2  0  0  0  0
 25  9  1  0  0  0  0
 26  2  2  0  0  0  0
 27 22  1  0  0  0  0
 27  5  2  0  0  0  0
 28 30  1  0  0  0  0
 29 31  1  0  0  0  0
 30 31  1  0  0  0  0
 32 28  1  0  0  0  0
 32 29  1  0  0  0  0
M  END
>  <MODEL>
3

>  <REMARK>
 VINA RESULT:      -8.9      2.883      7.500
  Name = 
  1 active torsions:
  status: ('A' for Active; 'I' for Inactive)
    1  A    between atoms: C_10  and  C_24
                            x       y       z     vdW  Elec       q    Type
                         _______ _______ _______ _____ _____    ______ ____

>  <TORSDO>
F 1

$$$$
=
 OpenBabel11052421283D

 32 38  0  0  1  0  0  0  0  0999 V2000
  189.0650  177.6510  146.8330 C   0  0  0  0  0  2  0  0  0  0  0  0
  190.5260  173.9380  143.6810 C   0  0  0  0  0  0  0  0  0  0  0  0
  194.7480  172.1860  145.4200 C   0  0  0  0  0  3  0  0  0  0  0  0
  194.8760  171.3750  144.2900 C   0  0  0  0  0  3  0  0  0  0  0  0
  189.9430  172.8920  141.2990 C   0  0  0  0  0  0  0  0  0  0  0  0
  188.9200  173.5030  140.6690 C   0  0  0  0  0  0  0  0  0  0  0  0
  189.1590  175.5230  144.9400 C   0  0  0  0  0  0  0  0  0  0  0  0
  191.3110  174.6900  145.9770 C   0  0  0  0  0  3  0  0  0  0  0  0
  190.2850  171.3140  139.3270 C   0  0  0  0  0  0  0  0  0  0  0  0
  190.0750  176.5360  147.0720 C   0  0  0  0  0  2  0  0  0  0  0  0
  193.6430  173.0330  145.5550 C   0  0  0  0  0  3  0  0  0  0  0  0
  191.5170  173.9160  144.6950 C   0  0  0  0  0  0  0  0  0  0  0  0
  192.6550  173.0830  144.5580 C   0  0  0  0  0  0  0  0  0  0  0  0
  191.8130  172.3070  142.4280 C   0  0  0  0  0  0  0  0  0  0  0  0
  189.2100  171.8440  138.7370 C   0  0  0  0  0  3  0  0  0  0  0  0
  190.2250  175.6680  145.9030 N   0  0  0  0  0  0  0  0  0  0  0  0
  188.3480  172.9010  139.3990 C   0  0  0  0  0  3  0  0  0  0  0  0
  187.9370  176.3900  144.9920 C   0  0  0  0  0  2  0  0  0  0  0  0
  187.7540  177.0370  146.3660 C   0  0  2  0  0  3  0  0  0  0  0  0
  193.9030  171.4080  143.2900 C   0  0  0  0  0  3  0  0  0  0  0  0
  192.7970  172.2580  143.4140 C   0  0  0  0  0  0  0  0  0  0  0  0
  191.7710  171.4910  141.2590 N   0  0  0  0  0  0  0  0  0  0  0  0
  189.3100  174.7260  143.8880 C   0  0  0  0  0  3  0  0  0  0  0  0
  188.1990  175.0150  141.1830 Cl  0  0  0  0  0  0  0  0  0  0  0  0
  191.0810  170.2730  138.6210 C   0  0  0  0  0  1  0  0  0  0  0  0
  190.7270  173.1610  142.5220 C   0  0  0  0  0  0  0  0  0  0  0  0
  190.6850  171.8210  140.6410 C   0  0  0  0  0  0  0  0  0  0  0  0
  184.2340  178.2030  146.2790 C   0  0  0  0  0  2  0  0  0  0  0  0
  186.6320  178.0790  146.3800 C   0  0  0  0  0  3  0  0  0  0  0  0
  184.7470  178.4430  144.8760 C   0  0  0  0  0  2  0  0  0  0  0  0
  186.2530  178.5790  144.9910 C   0  0  0  0  0  2  0  0  0  0  0  0
  185.3690  177.5270  147.0090 C   0  0  0  0  0  2  0  0  0  0  0  0
  1 10  1  0  0  0  0
  2 23  1  0  0  0  0
  2 12  1  0  0  0  0
  3 11  1  0  0  0  0
  4  3  2  0  0  0  0
  5 26  1  0  0  0  0
  6 24  1  0  0  0  0
  6  5  1  0  0  0  0
  7 18  1  0  0  0  0
  7 16  1  0  0  0  0
  9 27  1  0  0  0  0
 12  8  2  0  0  0  0
 13 12  1  0  0  0  0
 13 11  2  0  0  0  0
 14 26  1  0  0  0  0
 14 21  1  0  0  0  0
 15  9  2  0  0  0  0
 15 17  1  0  0  0  0
 16  8  1  0  0  0  0
 16 10  1  0  0  0  0
 17  6  2  0  0  0  0
 18 19  1  0  0  0  0
 19 29  1  6  0  0  0
 19  1  1  0  0  0  0
 20 21  2  0  0  0  0
 20  4  1  0  0  0  0
 21 13  1  0  0  0  0
 22 14  2  0  0  0  0
 23  7  2  0  0  0  0
 25  9  1  0  0  0  0
 26  2  2  0  0  0  0
 27 22  1  0  0  0  0
 27  5  2  0  0  0  0
 28 32  1  0  0  0  0
 29 32  1  0  0  0  0
 30 31  1  0  0  0  0
 30 28  1  0  0  0  0
 31 29  1  0  0  0  0
M  END
>  <MODEL>
4

>  <REMARK>
 VINA RESULT:      -8.7      3.136      7.728
  Name = 
  1 active torsions:
  status: ('A' for Active; 'I' for Inactive)
    1  A    between atoms: C_10  and  C_24
                            x       y       z     vdW  Elec       q    Type
                         _______ _______ _______ _____ _____    ______ ____

>  <TORSDO>
F 1

$$$$
=
 OpenBabel11052421283D

 32 38  0  0  1  0  0  0  0  0999 V2000
  185.8720  177.0340  143.3500 C   0  0  0  0  0  2  0  0  0  0  0  0
  190.1950  174.5070  142.4650 C   0  0  0  0  0  0  0  0  0  0  0  0
  189.8160  172.5840  137.9850 C   0  0  0  0  0  3  0  0  0  0  0  0
  191.0230  171.9070  138.1740 C   0  0  0  0  0  3  0  0  0  0  0  0
  192.3810  173.6370  143.7190 C   0  0  0  0  0  0  0  0  0  0  0  0
  192.4190  173.9470  145.0300 C   0  0  0  0  0  0  0  0  0  0  0  0
  188.5670  176.1060  143.3360 C   0  0  0  0  0  0  0  0  0  0  0  0
  188.2500  175.2110  140.9910 C   0  0  0  0  0  3  0  0  0  0  0  0
  194.5950  172.3870  143.8950 C   0  0  0  0  0  0  0  0  0  0  0  0
  186.4520  176.5690  142.0220 C   0  0  0  0  0  2  0  0  0  0  0  0
  189.2990  173.3950  139.0000 C   0  0  0  0  0  3  0  0  0  0  0  0
  189.4810  174.3730  141.2470 C   0  0  0  0  0  0  0  0  0  0  0  0
  189.9800  173.5330  140.2210 C   0  0  0  0  0  0  0  0  0  0  0  0
  191.8770  172.9800  141.6140 C   0  0  0  0  0  0  0  0  0  0  0  0
  194.6930  172.7730  145.1690 C   0  0  0  0  0  3  0  0  0  0  0  0
  187.7200  175.8580  142.1920 N   0  0  0  0  0  0  0  0  0  0  0  0
  193.6830  173.6910  145.8300 C   0  0  0  0  0  3  0  0  0  0  0  0
  188.1010  176.9530  144.4820 C   0  0  0  0  0  2  0  0  0  0  0  0
  186.9240  177.8480  144.0890 C   0  0  2  0  0  3  0  0  0  0  0  0
  191.7160  172.0330  139.3790 C   0  0  0  0  0  3  0  0  0  0  0  0
  191.2020  172.8370  140.4030 C   0  0  0  0  0  0  0  0  0  0  0  0
  193.1460  172.4100  141.9260 N   0  0  0  0  0  0  0  0  0  0  0  0
  189.7180  175.4570  143.4720 C   0  0  0  0  0  3  0  0  0  0  0  0
  191.0680  174.5980  145.9360 Cl  0  0  0  0  0  0  0  0  0  0  0  0
  195.6280  171.4890  143.3090 C   0  0  0  0  0  1  0  0  0  0  0  0
  191.3700  173.7500  142.6470 C   0  0  0  0  0  0  0  0  0  0  0  0
  193.4290  172.8160  143.1210 C   0  0  0  0  0  0  0  0  0  0  0  0
  184.7740  178.1540  147.0960 C   0  0  0  0  0  2  0  0  0  0  0  0
  186.3070  178.5680  145.2920 C   0  0  0  0  0  3  0  0  0  0  0  0
  183.9880  178.8360  145.9970 C   0  0  0  0  0  2  0  0  0  0  0  0
  185.0030  179.2850  144.9630 C   0  0  0  0  0  2  0  0  0  0  0  0
  186.0080  177.6030  146.4220 C   0  0  0  0  0  2  0  0  0  0  0  0
  1 19  1  0  0  0  0
  2 26  2  0  0  0  0
  2 23  1  0  0  0  0
  3  4  2  0  0  0  0
  3 11  1  0  0  0  0
  4 20  1  0  0  0  0
  5  6  1  0  0  0  0
  6 17  2  0  0  0  0
  6 24  1  0  0  0  0
  7 23  2  0  0  0  0
  7 18  1  0  0  0  0
  8 12  2  0  0  0  0
  8 16  1  0  0  0  0
  9 15  2  0  0  0  0
 10 16  1  0  0  0  0
 10  1  1  0  0  0  0
 11 13  2  0  0  0  0
 12  2  1  0  0  0  0
 13 21  1  0  0  0  0
 13 12  1  0  0  0  0
 14 22  2  0  0  0  0
 14 26  1  0  0  0  0
 15 17  1  0  0  0  0
 16  7  1  0  0  0  0
 19 18  1  0  0  0  0
 19 29  1  1  0  0  0
 20 21  2  0  0  0  0
 21 14  1  0  0  0  0
 22 27  1  0  0  0  0
 25  9  1  0  0  0  0
 26  5  1  0  0  0  0
 27  5  2  0  0  0  0
 27  9  1  0  0  0  0
 29 32  1  0  0  0  0
 30 28  1  0  0  0  0
 31 29  1  0  0  0  0
 31 30  1  0  0  0  0
 32 28  1  0  0  0  0
M  END
>  <MODEL>
5

>  <REMARK>
 VINA RESULT:      -8.6      3.091      8.923
  Name = 
  1 active torsions:
  status: ('A' for Active; 'I' for Inactive)
    1  A    between atoms: C_10  and  C_24
                            x       y       z     vdW  Elec       q    Type
                         _______ _______ _______ _____ _____    ______ ____

>  <TORSDO>
F 1

$$$$
=
 OpenBabel11052421283D

 32 38  0  0  1  0  0  0  0  0999 V2000
  185.2030  179.5280  143.6980 C   0  0  0  0  0  2  0  0  0  0  0  0
  188.6540  175.7970  143.8600 C   0  0  0  0  0  0  0  0  0  0  0  0
  191.1700  176.3770  148.0130 C   0  0  0  0  0  3  0  0  0  0  0  0
  192.0350  175.3490  147.6320 C   0  0  0  0  0  3  0  0  0  0  0  0
  189.7270  173.8980  142.3260 C   0  0  0  0  0  0  0  0  0  0  0  0
  189.2200  173.8520  141.0780 C   0  0  0  0  0  0  0  0  0  0  0  0
  186.6410  177.0900  143.3670 C   0  0  0  0  0  0  0  0  0  0  0  0
  187.8270  177.4860  145.5670 C   0  0  0  0  0  3  0  0  0  0  0  0
  191.3490  172.0050  141.7950 C   0  0  0  0  0  0  0  0  0  0  0  0
  185.9870  179.0020  144.8930 C   0  0  0  0  0  2  0  0  0  0  0  0
  190.1170  176.7560  147.1740 C   0  0  0  0  0  3  0  0  0  0  0  0
  188.8410  176.4700  145.0940 C   0  0  0  0  0  0  0  0  0  0  0  0
  189.9200  176.1140  145.9410 C   0  0  0  0  0  0  0  0  0  0  0  0
  190.6050  174.4370  144.3390 C   0  0  0  0  0  0  0  0  0  0  0  0
  190.7860  171.8830  140.5900 C   0  0  0  0  0  3  0  0  0  0  0  0
  186.8990  177.9200  144.5210 N   0  0  0  0  0  0  0  0  0  0  0  0
  189.5890  172.7060  140.1550 C   0  0  0  0  0  3  0  0  0  0  0  0
  185.5430  177.4170  142.4020 C   0  0  0  0  0  2  0  0  0  0  0  0
  184.5060  178.3610  143.0130 C   0  0  2  0  0  3  0  0  0  0  0  0
  191.8540  174.6970  146.4110 C   0  0  0  0  0  3  0  0  0  0  0  0
  190.8070  175.0740  145.5620 C   0  0  0  0  0  0  0  0  0  0  0  0
  191.3590  173.3310  143.8490 N   0  0  0  0  0  0  0  0  0  0  0  0
  187.4770  176.1080  143.0470 C   0  0  0  0  0  3  0  0  0  0  0  0
  188.1730  175.0750  140.3870 Cl  0  0  0  0  0  0  0  0  0  0  0  0
  192.5180  171.1580  142.1590 C   0  0  0  0  0  1  0  0  0  0  0  0
  189.5910  174.8160  143.4760 C   0  0  0  0  0  0  0  0  0  0  0  0
  190.8270  173.0210  142.7120 C   0  0  0  0  0  0  0  0  0  0  0  0
  181.3330  178.2910  141.0950 C   0  0  0  0  0  2  0  0  0  0  0  0
  183.4900  178.8650  141.9840 C   0  0  0  0  0  3  0  0  0  0  0  0
  182.3660  177.7370  140.1380 C   0  0  0  0  0  2  0  0  0  0  0  0
  183.7050  178.2890  140.5900 C   0  0  0  0  0  2  0  0  0  0  0  0
  182.0710  178.5210  142.3910 C   0  0  0  0  0  2  0  0  0  0  0  0
  1 10  1  0  0  0  0
  2 12  1  0  0  0  0
  4  3  1  0  0  0  0
  5 27  1  0  0  0  0
  5 26  1  0  0  0  0
  6  5  2  0  0  0  0
  7 16  1  0  0  0  0
  9 25  1  0  0  0  0
  9 27  2  0  0  0  0
 11  3  2  0  0  0  0
 12  8  2  0  0  0  0
 12 13  1  0  0  0  0
 13 11  1  0  0  0  0
 14 21  1  0  0  0  0
 15  9  1  0  0  0  0
 16 10  1  0  0  0  0
 16  8  1  0  0  0  0
 17 15  2  0  0  0  0
 17  6  1  0  0  0  0
 18 19  1  0  0  0  0
 18  7  1  0  0  0  0
 19 29  1  6  0  0  0
 19  1  1  0  0  0  0
 20  4  2  0  0  0  0
 21 13  2  0  0  0  0
 21 20  1  0  0  0  0
 22 14  2  0  0  0  0
 23  7  2  0  0  0  0
 23  2  1  0  0  0  0
 24  6  1  0  0  0  0
 26  2  2  0  0  0  0
 26 14  1  0  0  0  0
 27 22  1  0  0  0  0
 28 32  1  0  0  0  0
 29 32  1  0  0  0  0
 30 31  1  0  0  0  0
 30 28  1  0  0  0  0
 31 29  1  0  0  0  0
M  END
>  <MODEL>
6

>  <REMARK>
 VINA RESULT:      -8.5      2.366      7.885
  Name = 
  1 active torsions:
  status: ('A' for Active; 'I' for Inactive)
    1  A    between atoms: C_10  and  C_24
                            x       y       z     vdW  Elec       q    Type
                         _______ _______ _______ _____ _____    ______ ____

>  <TORSDO>
F 1

$$$$
=
 OpenBabel11052421283D

 32 38  0  0  1  0  0  0  0  0999 V2000
  189.3190  173.4090  137.9830 C   0  0  0  0  0  2  0  0  0  0  0  0
  189.3340  175.3700  142.6750 C   0  0  0  0  0  0  0  0  0  0  0  0
  185.5260  178.4260  142.9420 C   0  0  0  0  0  3  0  0  0  0  0  0
  185.9420  178.8330  144.2110 C   0  0  0  0  0  3  0  0  0  0  0  0
  190.8680  175.5300  144.8500 C   0  0  0  0  0  0  0  0  0  0  0  0
  192.0480  174.8870  144.7360 C   0  0  0  0  0  0  0  0  0  0  0  0
  189.6710  173.8750  140.7730 C   0  0  0  0  0  0  0  0  0  0  0  0
  187.6430  175.3870  140.7800 C   0  0  0  0  0  3  0  0  0  0  0  0
  191.4690  176.3280  147.1940 C   0  0  0  0  0  0  0  0  0  0  0  0
  188.1910  174.1070  138.7310 C   0  0  0  0  0  2  0  0  0  0  0  0
  186.2620  177.4700  142.2350 C   0  0  0  0  0  3  0  0  0  0  0  0
  188.1680  175.9260  142.0900 C   0  0  0  0  0  0  0  0  0  0  0  0
  187.4280  176.9150  142.7860 C   0  0  0  0  0  0  0  0  0  0  0  0
  188.9990  176.7820  144.6190 C   0  0  0  0  0  0  0  0  0  0  0  0
  192.5950  175.6130  147.1320 C   0  0  0  0  0  3  0  0  0  0  0  0
  188.6010  174.5410  140.0670 N   0  0  0  0  0  0  0  0  0  0  0  0
  192.9400  174.7250  145.9520 C   0  0  0  0  0  3  0  0  0  0  0  0
  190.5250  172.8430  140.1000 C   0  0  0  0  0  2  0  0  0  0  0  0
  189.8560  172.2760  138.8470 C   0  0  2  0  0  3  0  0  0  0  0  0
  187.0970  178.2900  144.7780 C   0  0  0  0  0  3  0  0  0  0  0  0
  187.8440  177.3380  144.0730 C   0  0  0  0  0  0  0  0  0  0  0  0
  189.5070  177.0450  145.9250 N   0  0  0  0  0  0  0  0  0  0  0  0
  190.0260  174.2780  141.9880 C   0  0  0  0  0  3  0  0  0  0  0  0
  192.6860  174.2440  143.2360 Cl  0  0  0  0  0  0  0  0  0  0  0  0
  191.1910  177.1730  148.3880 C   0  0  0  0  0  1  0  0  0  0  0  0
  189.7640  175.8590  143.9250 C   0  0  0  0  0  0  0  0  0  0  0  0
  190.5590  176.3030  146.0480 C   0  0  0  0  0  0  0  0  0  0  0  0
  191.8460  171.2820  135.8790 C   0  0  0  0  0  2  0  0  0  0  0  0
  190.7920  171.3740  138.0370 C   0  0  0  0  0  3  0  0  0  0  0  0
  190.5920  170.4390  135.7930 C   0  0  0  0  0  2  0  0  0  0  0  0
  190.0570  170.3280  137.2090 C   0  0  0  0  0  2  0  0  0  0  0  0
  191.6430  172.1800  137.0760 C   0  0  0  0  0  2  0  0  0  0  0  0
  1 10  1  0  0  0  0
  1 19  1  0  0  0  0
  2 26  2  0  0  0  0
  3  4  1  0  0  0  0
  4 20  2  0  0  0  0
  5 27  1  0  0  0  0
  6  5  2  0  0  0  0
  6 17  1  0  0  0  0
  7 23  2  0  0  0  0
  8 12  2  0  0  0  0
  9 25  1  0  0  0  0
 10 16  1  0  0  0  0
 11 13  1  0  0  0  0
 11  3  2  0  0  0  0
 12  2  1  0  0  0  0
 12 13  1  0  0  0  0
 13 21  2  0  0  0  0
 14 22  2  0  0  0  0
 15  9  1  0  0  0  0
 16  7  1  0  0  0  0
 16  8  1  0  0  0  0
 17 15  2  0  0  0  0
 18  7  1  0  0  0  0
 19 29  1  6  0  0  0
 19 18  1  0  0  0  0
 21 14  1  0  0  0  0
 21 20  1  0  0  0  0
 22 27  1  0  0  0  0
 23  2  1  0  0  0  0
 24  6  1  0  0  0  0
 26 14  1  0  0  0  0
 26  5  1  0  0  0  0
 27  9  2  0  0  0  0
 28 32  1  0  0  0  0
 30 28  1  0  0  0  0
 30 31  1  0  0  0  0
 31 29  1  0  0  0  0
 32 29  1  0  0  0  0
M  END
>  <MODEL>
7

>  <REMARK>
 VINA RESULT:      -8.5      3.754      6.997
  Name = 
  1 active torsions:
  status: ('A' for Active; 'I' for Inactive)
    1  A    between atoms: C_10  and  C_24
                            x       y       z     vdW  Elec       q    Type
                         _______ _______ _______ _____ _____    ______ ____

>  <TORSDO>
F 1

$$$$
=
 OpenBabel11052421283D

 32 38  0  0  1  0  0  0  0  0999 V2000
  188.8770  177.5410  147.2220 C   0  0  0  0  0  2  0  0  0  0  0  0
  191.4510  174.4470  144.1140 C   0  0  0  0  0  0  0  0  0  0  0  0
  196.1180  174.5410  145.5720 C   0  0  0  0  0  3  0  0  0  0  0  0
  196.4780  173.7630  144.4700 C   0  0  0  0  0  3  0  0  0  0  0  0
  191.1690  173.1000  141.8300 C   0  0  0  0  0  0  0  0  0  0  0  0
  189.9550  173.2350  141.2620 C   0  0  0  0  0  0  0  0  0  0  0  0
  189.6610  175.4810  145.4140 C   0  0  0  0  0  0  0  0  0  0  0  0
  192.0260  175.5940  146.3060 C   0  0  0  0  0  3  0  0  0  0  0  0
  191.9680  171.6370  139.9020 C   0  0  0  0  0  0  0  0  0  0  0  0
  190.2470  176.9080  147.4230 C   0  0  0  0  0  2  0  0  0  0  0  0
  194.7840  174.9150  145.7630 C   0  0  0  0  0  3  0  0  0  0  0  0
  192.4340  174.8710  145.0440 C   0  0  0  0  0  0  0  0  0  0  0  0
  193.7940  174.5210  144.8480 C   0  0  0  0  0  0  0  0  0  0  0  0
  193.1850  173.3410  142.8270 C   0  0  0  0  0  0  0  0  0  0  0  0
  190.7400  171.6810  139.3810 C   0  0  0  0  0  3  0  0  0  0  0  0
  190.6460  176.0830  146.2820 N   0  0  0  0  0  0  0  0  0  0  0  0
  189.5810  172.3770  140.0680 C   0  0  0  0  0  3  0  0  0  0  0  0
  188.2070  175.8250  145.5310 C   0  0  0  0  0  2  0  0  0  0  0  0
  187.8730  176.4470  146.8880 C   0  0  2  0  0  3  0  0  0  0  0  0
  195.5080  173.3580  143.5510 C   0  0  0  0  0  3  0  0  0  0  0  0
  194.1710  173.7340  143.7300 C   0  0  0  0  0  0  0  0  0  0  0  0
  193.3870  172.4930  141.6990 N   0  0  0  0  0  0  0  0  0  0  0  0
  190.0410  174.7300  144.3860 C   0  0  0  0  0  3  0  0  0  0  0  0
  188.7440  174.3940  141.7720 Cl  0  0  0  0  0  0  0  0  0  0  0  0
  193.0580  170.9280  139.1770 C   0  0  0  0  0  1  0  0  0  0  0  0
  191.8640  173.7260  142.9740 C   0  0  0  0  0  0  0  0  0  0  0  0
  192.2220  172.3450  141.1580 C   0  0  0  0  0  0  0  0  0  0  0  0
  184.7810  177.9700  145.5180 C   0  0  0  0  0  2  0  0  0  0  0  0
  186.4420  176.9870  146.9510 C   0  0  0  0  0  3  0  0  0  0  0  0
  185.4830  179.1090  146.2250 C   0  0  0  0  0  2  0  0  0  0  0  0
  186.3700  178.4740  147.2790 C   0  0  0  0  0  2  0  0  0  0  0  0
  185.7160  176.7910  145.6350 C   0  0  0  0  0  2  0  0  0  0  0  0
  1 10  1  0  0  0  0
  2 23  1  0  0  0  0
  2 12  1  0  0  0  0
  3 11  1  0  0  0  0
  4  3  2  0  0  0  0
  5 26  1  0  0  0  0
  6 24  1  0  0  0  0
  6  5  1  0  0  0  0
  7 18  1  0  0  0  0
  7 16  1  0  0  0  0
  9 27  1  0  0  0  0
 12  8  2  0  0  0  0
 13 12  1  0  0  0  0
 13 11  2  0  0  0  0
 14 26  1  0  0  0  0
 14 21  1  0  0  0  0
 15  9  2  0  0  0  0
 15 17  1  0  0  0  0
 16  8  1  0  0  0  0
 16 10  1  0  0  0  0
 17  6  2  0  0  0  0
 18 19  1  0  0  0  0
 19 29  1  6  0  0  0
 19  1  1  0  0  0  0
 20 21  2  0  0  0  0
 20  4  1  0  0  0  0
 21 13  1  0  0  0  0
 22 14  2  0  0  0  0
 23  7  2  0  0  0  0
 25  9  1  0  0  0  0
 26  2  2  0  0  0  0
 27 22  1  0  0  0  0
 27  5  2  0  0  0  0
 28 32  1  0  0  0  0
 28 30  1  0  0  0  0
 29 31  1  0  0  0  0
 30 31  1  0  0  0  0
 32 29  1  0  0  0  0
M  END
>  <MODEL>
8

>  <REMARK>
 VINA RESULT:      -8.4      2.895      7.889
  Name = 
  1 active torsions:
  status: ('A' for Active; 'I' for Inactive)
    1  A    between atoms: C_10  and  C_24
                            x       y       z     vdW  Elec       q    Type
                         _______ _______ _______ _____ _____    ______ ____

>  <TORSDO>
F 1

$$$$
=
 OpenBabel11052421283D

 32 38  0  0  1  0  0  0  0  0999 V2000
  190.1750  172.5290  139.8120 C   0  0  0  0  0  2  0  0  0  0  0  0
  189.0550  175.6120  143.6970 C   0  0  0  0  0  0  0  0  0  0  0  0
  192.5150  174.9320  147.0860 C   0  0  0  0  0  3  0  0  0  0  0  0
  191.8180  175.7630  147.9640 C   0  0  0  0  0  3  0  0  0  0  0  0
  187.0950  177.1760  144.6040 C   0  0  0  0  0  0  0  0  0  0  0  0
  186.0100  177.2120  143.8060 C   0  0  0  0  0  0  0  0  0  0  0  0
  189.2200  174.6510  141.4580 C   0  0  0  0  0  0  0  0  0  0  0  0
  191.0990  174.2270  143.0990 C   0  0  0  0  0  3  0  0  0  0  0  0
  185.9680  178.7160  146.2940 C   0  0  0  0  0  0  0  0  0  0  0  0
  191.0740  173.0030  140.9460 C   0  0  0  0  0  2  0  0  0  0  0  0
  192.0070  174.6760  145.8080 C   0  0  0  0  0  3  0  0  0  0  0  0
  190.2780  175.0150  144.0950 C   0  0  0  0  0  0  0  0  0  0  0  0
  190.7900  175.2440  145.3960 C   0  0  0  0  0  0  0  0  0  0  0  0
  188.8850  176.6500  145.8830 C   0  0  0  0  0  0  0  0  0  0  0  0
  184.9290  178.8390  145.4640 C   0  0  0  0  0  3  0  0  0  0  0  0
  190.3670  173.8810  141.8800 N   0  0  0  0  0  0  0  0  0  0  0  0
  184.8970  178.2030  144.0880 C   0  0  0  0  0  3  0  0  0  0  0  0
  188.5950  174.4440  140.1120 C   0  0  0  0  0  2  0  0  0  0  0  0
  189.5460  173.7410  139.1410 C   0  0  2  0  0  3  0  0  0  0  0  0
  190.6080  176.3410  147.5720 C   0  0  0  0  0  3  0  0  0  0  0  0
  190.0890  176.0840  146.2980 C   0  0  0  0  0  0  0  0  0  0  0  0
  188.1000  177.5700  146.6390 N   0  0  0  0  0  0  0  0  0  0  0  0
  188.5950  175.4480  142.3170 C   0  0  0  0  0  3  0  0  0  0  0  0
  185.7420  176.1370  142.4470 Cl  0  0  0  0  0  0  0  0  0  0  0  0
  185.9350  179.3740  147.6290 C   0  0  0  0  0  1  0  0  0  0  0  0
  188.3440  176.3860  144.6370 C   0  0  0  0  0  0  0  0  0  0  0  0
  187.0970  177.8780  145.8840 C   0  0  0  0  0  0  0  0  0  0  0  0
  189.3340  172.1590  135.7940 C   0  0  0  0  0  2  0  0  0  0  0  0
  188.8610  173.3410  137.8320 C   0  0  0  0  0  3  0  0  0  0  0  0
  189.5290  173.6310  135.5040 C   0  0  0  0  0  2  0  0  0  0  0  0
  189.0210  174.3760  136.7240 C   0  0  0  0  0  2  0  0  0  0  0  0
  189.4080  172.0330  137.2960 C   0  0  0  0  0  2  0  0  0  0  0  0
  1 10  1  0  0  0  0
  2 12  1  0  0  0  0
  2 26  2  0  0  0  0
  3  4  1  0  0  0  0
  5 26  1  0  0  0  0
  5 27  1  0  0  0  0
  6 17  1  0  0  0  0
  6  5  2  0  0  0  0
  7 16  1  0  0  0  0
  7 23  2  0  0  0  0
  8 12  2  0  0  0  0
  9 25  1  0  0  0  0
 10 16  1  0  0  0  0
 11  3  2  0  0  0  0
 12 13  1  0  0  0  0
 13 11  1  0  0  0  0
 13 21  2  0  0  0  0
 14 21  1  0  0  0  0
 14 22  2  0  0  0  0
 15  9  1  0  0  0  0
 16  8  1  0  0  0  0
 17 15  2  0  0  0  0
 18  7  1  0  0  0  0
 19 29  1  6  0  0  0
 19  1  1  0  0  0  0
 19 18  1  0  0  0  0
 20  4  2  0  0  0  0
 21 20  1  0  0  0  0
 23  2  1  0  0  0  0
 24  6  1  0  0  0  0
 26 14  1  0  0  0  0
 27  9  2  0  0  0  0
 27 22  1  0  0  0  0
 28 32  1  0  0  0  0
 30 28  1  0  0  0  0
 30 31  1  0  0  0  0
 31 29  1  0  0  0  0
 32 29  1  0  0  0  0
M  END
>  <MODEL>
9

>  <REMARK>
 VINA RESULT:      -8.4      2.951      6.463
  Name = 
  1 active torsions:
  status: ('A' for Active; 'I' for Inactive)
    1  A    between atoms: C_10  and  C_24
                            x       y       z     vdW  Elec       q    Type
                         _______ _______ _______ _____ _____    ______ ____

>  <TORSDO>
F 1

$$$$
