=
 OpenBabel11052417313D

 25 28  0  0  0  0  0  0  0  0999 V2000
  186.2590  177.7780  143.8190 C   0  0  0  0  0  0  0  0  0  0  0  0
  185.6500  177.8240  142.5650 C   0  0  0  0  0  0  0  0  0  0  0  0
  188.3780  177.1820  142.8480 C   0  0  0  0  0  3  0  0  0  0  0  0
  185.8000  177.9940  145.0980 C   0  0  0  0  0  0  0  0  0  0  0  0
  185.5360  178.2830  147.8380 C   0  0  0  0  0  3  0  0  0  0  0  0
  187.7920  177.2240  141.6150 N   0  0  0  0  0  0  0  0  0  0  0  0
  186.8900  177.7970  145.9220 C   0  0  0  0  0  0  0  0  0  0  0  0
  186.7910  177.9340  147.3050 C   0  0  0  0  0  3  0  0  0  0  0  0
  185.8990  177.5640  140.1540 C   0  0  0  0  0  0  0  0  0  0  0  0
  186.7120  177.2650  138.9410 C   0  0  0  0  0  1  0  0  0  0  0  0
  184.2990  178.1370  142.3940 C   0  0  0  0  0  3  0  0  0  0  0  0
  184.4230  178.4850  146.9910 C   0  0  0  0  0  3  0  0  0  0  0  0
  187.5920  177.4650  143.9590 C   0  0  0  0  0  0  0  0  0  0  0  0
  187.9620  177.4790  145.2250 O   0  0  0  0  0  0  0  0  0  0  0  0
  184.5450  177.8800  139.9980 C   0  0  0  0  0  3  0  0  0  0  0  0
  184.5460  178.3400  145.5970 C   0  0  0  0  0  3  0  0  0  0  0  0
  183.7430  178.1670  141.1090 C   0  0  0  0  0  0  0  0  0  0  0  0
  186.4650  177.5320  141.4390 C   0  0  0  0  0  0  0  0  0  0  0  0
  182.3290  178.4910  140.9000 C   0  0  0  0  0  3  0  0  0  0  0  0
  181.5580  178.8220  141.8850 N   0  0  0  0  0  0  0  0  0  0  0  0
  180.1560  179.1350  141.6650 C   0  0  0  0  0  2  0  0  0  0  0  0
  179.3360  177.8630  141.4860 C   0  0  0  0  0  2  0  0  0  0  0  0
  178.4450  177.6240  142.6580 C   0  0  0  0  0  0  0  0  0  0  0  0
  177.8750  176.3390  142.8670 N   0  0  0  0  0  1  0  0  0  0  0  0
  178.1850  178.5630  143.4550 O   0  0  0  0  0  0  0  0  0  0  0  0
  1 13  2  0  0  0  0
  1  4  1  0  0  0  0
  2  1  1  0  0  0  0
  3 13  1  0  0  0  0
  4 16  2  0  0  0  0
  4  7  1  0  0  0  0
  6  3  2  0  0  0  0
  7  8  2  0  0  0  0
  8  5  1  0  0  0  0
  9 18  1  0  0  0  0
 10  9  1  0  0  0  0
 11  2  1  0  0  0  0
 12  5  2  0  0  0  0
 13 14  1  0  0  0  0
 14  7  1  0  0  0  0
 15  9  2  0  0  0  0
 15 17  1  0  0  0  0
 16 12  1  0  0  0  0
 17 11  2  0  0  0  0
 18  6  1  0  0  0  0
 18  2  2  0  0  0  0
 19 17  1  0  0  0  0
 19 20  2  0  0  0  0
 21 20  1  0  0  0  0
 22 21  1  0  0  0  0
 22 23  1  0  0  0  0
 23 24  1  0  0  0  0
 23 25  2  0  0  0  0
M  END
>  <MODEL>
1

>  <REMARK>
 VINA RESULT:      -7.7      0.000      0.000
  Name = 
  4 active torsions:
  status: ('A' for Active; 'I' for Inactive)
    1  A    between atoms: C_2  and  C_25
    2  A    between atoms: C_6  and  C_23
    3  A    between atoms: N_15  and  C_21
    4  A    between atoms: C_21  and  C_25
                            x       y       z     vdW  Elec       q    Type
                         _______ _______ _______ _____ _____    ______ ____

>  <TORSDO>
F 4

$$$$
=
 OpenBabel11052417313D

 25 28  0  0  0  0  0  0  0  0999 V2000
  185.8610  178.0370  143.6090 C   0  0  0  0  0  0  0  0  0  0  0  0
  186.7120  177.8860  144.7030 C   0  0  0  0  0  0  0  0  0  0  0  0
  184.0710  178.8130  145.0170 C   0  0  0  0  0  3  0  0  0  0  0  0
  186.0130  177.8170  142.2590 C   0  0  0  0  0  0  0  0  0  0  0  0
  185.6600  177.5970  139.5230 C   0  0  0  0  0  3  0  0  0  0  0  0
  184.8960  178.6690  146.0960 N   0  0  0  0  0  0  0  0  0  0  0  0
  184.8020  178.1550  141.6890 C   0  0  0  0  0  0  0  0  0  0  0  0
  184.5910  178.0550  140.3160 C   0  0  0  0  0  3  0  0  0  0  0  0
  187.0060  178.0840  147.1140 C   0  0  0  0  0  0  0  0  0  0  0  0
  186.5040  178.4220  148.4770 C   0  0  0  0  0  1  0  0  0  0  0  0
  188.0260  177.4270  144.5780 C   0  0  0  0  0  3  0  0  0  0  0  0
  186.8990  177.2530  140.1100 C   0  0  0  0  0  3  0  0  0  0  0  0
  184.5700  178.4900  143.7600 C   0  0  0  0  0  0  0  0  0  0  0  0
  183.9420  178.5580  142.6030 O   0  0  0  0  0  0  0  0  0  0  0  0
  188.3200  177.6240  146.9740 C   0  0  0  0  0  3  0  0  0  0  0  0
  187.0890  177.3610  141.5000 C   0  0  0  0  0  3  0  0  0  0  0  0
  188.8340  177.2960  145.7150 C   0  0  0  0  0  0  0  0  0  0  0  0
  186.1880  178.2200  145.9810 C   0  0  0  0  0  0  0  0  0  0  0  0
  190.2150  176.8160  145.6140 C   0  0  0  0  0  3  0  0  0  0  0  0
  191.0210  177.2600  144.7040 N   0  0  0  0  0  0  0  0  0  0  0  0
  192.3860  176.7700  144.6110 C   0  0  0  0  0  2  0  0  0  0  0  0
  192.7350  175.9000  145.8120 C   0  0  0  0  0  2  0  0  0  0  0  0
  194.0980  176.2150  146.3290 C   0  0  0  0  0  0  0  0  0  0  0  0
  195.1610  175.2880  146.1440 N   0  0  0  0  0  1  0  0  0  0  0  0
  194.3070  177.2940  146.9430 O   0  0  0  0  0  0  0  0  0  0  0  0
  1 13  1  0  0  0  0
  1  2  2  0  0  0  0
  2 18  1  0  0  0  0
  3  6  1  0  0  0  0
  4  1  1  0  0  0  0
  5 12  2  0  0  0  0
  5  8  1  0  0  0  0
  7  4  1  0  0  0  0
  7 14  1  0  0  0  0
  8  7  2  0  0  0  0
  9 10  1  0  0  0  0
 11  2  1  0  0  0  0
 11 17  2  0  0  0  0
 12 16  1  0  0  0  0
 13  3  2  0  0  0  0
 14 13  1  0  0  0  0
 15  9  2  0  0  0  0
 16  4  2  0  0  0  0
 17 15  1  0  0  0  0
 18  6  2  0  0  0  0
 18  9  1  0  0  0  0
 19 17  1  0  0  0  0
 20 19  2  0  0  0  0
 21 20  1  0  0  0  0
 21 22  1  0  0  0  0
 22 23  1  0  0  0  0
 23 25  2  0  0  0  0
 24 23  1  0  0  0  0
M  END
>  <MODEL>
2

>  <REMARK>
 VINA RESULT:      -7.4      3.555      8.992
  Name = 
  4 active torsions:
  status: ('A' for Active; 'I' for Inactive)
    1  A    between atoms: C_2  and  C_25
    2  A    between atoms: C_6  and  C_23
    3  A    between atoms: N_15  and  C_21
    4  A    between atoms: C_21  and  C_25
                            x       y       z     vdW  Elec       q    Type
                         _______ _______ _______ _____ _____    ______ ____

>  <TORSDO>
F 4

$$$$
=
 OpenBabel11052417313D

 25 28  0  0  0  0  0  0  0  0999 V2000
  186.2690  177.8610  143.9360 C   0  0  0  0  0  0  0  0  0  0  0  0
  185.6420  177.8880  142.6900 C   0  0  0  0  0  0  0  0  0  0  0  0
  188.4100  177.4240  142.9290 C   0  0  0  0  0  3  0  0  0  0  0  0
  185.8130  178.0250  145.2240 C   0  0  0  0  0  0  0  0  0  0  0  0
  185.5670  178.2480  147.9710 C   0  0  0  0  0  3  0  0  0  0  0  0
  187.8060  177.4480  141.7040 N   0  0  0  0  0  0  0  0  0  0  0  0
  186.9240  177.8860  146.0310 C   0  0  0  0  0  0  0  0  0  0  0  0
  186.8350  177.9920  147.4170 C   0  0  0  0  0  3  0  0  0  0  0  0
  185.8760  177.6860  140.2720 C   0  0  0  0  0  0  0  0  0  0  0  0
  186.6910  177.4630  139.0440 C   0  0  0  0  0  1  0  0  0  0  0  0
  184.2710  178.1150  142.5410 C   0  0  0  0  0  3  0  0  0  0  0  0
  184.4320  178.3900  147.1410 C   0  0  0  0  0  3  0  0  0  0  0  0
  187.6220  177.6350  144.0550 C   0  0  0  0  0  0  0  0  0  0  0  0
  188.0070  177.6520  145.3150 O   0  0  0  0  0  0  0  0  0  0  0  0
  184.5020  177.9150  140.1380 C   0  0  0  0  0  3  0  0  0  0  0  0
  184.5460  178.2790  145.7430 C   0  0  0  0  0  3  0  0  0  0  0  0
  183.6980  178.1300  141.2630 C   0  0  0  0  0  0  0  0  0  0  0  0
  186.4600  177.6700  141.5490 C   0  0  0  0  0  0  0  0  0  0  0  0
  182.2630  178.3630  141.0770 C   0  0  0  0  0  3  0  0  0  0  0  0
  181.5260  178.8370  142.0290 N   0  0  0  0  0  0  0  0  0  0  0  0
  180.1020  179.0580  141.8320 C   0  0  0  0  0  2  0  0  0  0  0  0
  179.5270  178.0510  140.8440 C   0  0  0  0  0  2  0  0  0  0  0  0
  178.6490  178.7190  139.8400 C   0  0  0  0  0  0  0  0  0  0  0  0
  178.6110  180.1380  139.7620 N   0  0  0  0  0  1  0  0  0  0  0  0
  177.9310  178.0290  139.0710 O   0  0  0  0  0  0  0  0  0  0  0  0
  1 13  2  0  0  0  0
  1  4  1  0  0  0  0
  2  1  1  0  0  0  0
  3 13  1  0  0  0  0
  4 16  2  0  0  0  0
  4  7  1  0  0  0  0
  6  3  2  0  0  0  0
  7  8  2  0  0  0  0
  8  5  1  0  0  0  0
  9 18  1  0  0  0  0
 10  9  1  0  0  0  0
 11  2  1  0  0  0  0
 12  5  2  0  0  0  0
 13 14  1  0  0  0  0
 14  7  1  0  0  0  0
 15  9  2  0  0  0  0
 15 17  1  0  0  0  0
 16 12  1  0  0  0  0
 17 11  2  0  0  0  0
 18  6  1  0  0  0  0
 18  2  2  0  0  0  0
 19 17  1  0  0  0  0
 19 20  2  0  0  0  0
 21 20  1  0  0  0  0
 22 21  1  0  0  0  0
 23 22  1  0  0  0  0
 24 23  1  0  0  0  0
 25 23  2  0  0  0  0
M  END
>  <MODEL>
3

>  <REMARK>
 VINA RESULT:      -7.4      1.351      1.477
  Name = 
  4 active torsions:
  status: ('A' for Active; 'I' for Inactive)
    1  A    between atoms: C_2  and  C_25
    2  A    between atoms: C_6  and  C_23
    3  A    between atoms: N_15  and  C_21
    4  A    between atoms: C_21  and  C_25
                            x       y       z     vdW  Elec       q    Type
                         _______ _______ _______ _____ _____    ______ ____

>  <TORSDO>
F 4

$$$$
=
 OpenBabel11052417313D

 25 28  0  0  0  0  0  0  0  0999 V2000
  187.9900  176.2560  144.2890 C   0  0  0  0  0  0  0  0  0  0  0  0
  186.9170  177.1070  144.5500 C   0  0  0  0  0  0  0  0  0  0  0  0
  188.8940  176.6030  146.4920 C   0  0  0  0  0  3  0  0  0  0  0  0
  188.3630  175.5180  143.1890 C   0  0  0  0  0  0  0  0  0  0  0  0
  189.6410  173.8490  141.3890 C   0  0  0  0  0  3  0  0  0  0  0  0
  187.8460  177.4390  146.7580 N   0  0  0  0  0  0  0  0  0  0  0  0
  189.5290  174.8750  143.5510 C   0  0  0  0  0  0  0  0  0  0  0  0
  190.1980  174.0290  142.6690 C   0  0  0  0  0  3  0  0  0  0  0  0
  185.8040  178.5740  146.1460 C   0  0  0  0  0  0  0  0  0  0  0  0
  185.7050  179.2300  147.4820 C   0  0  0  0  0  1  0  0  0  0  0  0
  185.9220  177.3760  143.6060 C   0  0  0  0  0  3  0  0  0  0  0  0
  188.4460  174.5090  141.0220 C   0  0  0  0  0  3  0  0  0  0  0  0
  188.9570  176.0080  145.2370 C   0  0  0  0  0  0  0  0  0  0  0  0
  189.8770  175.1780  144.7860 O   0  0  0  0  0  0  0  0  0  0  0  0
  184.8150  178.8340  145.1920 C   0  0  0  0  0  3  0  0  0  0  0  0
  187.7880  175.3590  141.9300 C   0  0  0  0  0  3  0  0  0  0  0  0
  184.8670  178.2410  143.9250 C   0  0  0  0  0  0  0  0  0  0  0  0
  186.8650  177.7090  145.8360 C   0  0  0  0  0  0  0  0  0  0  0  0
  183.8120  178.5430  142.9550 C   0  0  0  0  0  3  0  0  0  0  0  0
  183.7580  177.9480  141.8070 N   0  0  0  0  0  0  0  0  0  0  0  0
  182.7090  178.2620  140.8500 C   0  0  0  0  0  2  0  0  0  0  0  0
  181.4060  178.6010  141.5640 C   0  0  0  0  0  2  0  0  0  0  0  0
  180.3580  179.0380  140.5970 C   0  0  0  0  0  0  0  0  0  0  0  0
  180.0780  180.4220  140.4290 N   0  0  0  0  0  1  0  0  0  0  0  0
  179.7110  178.1830  139.9380 O   0  0  0  0  0  0  0  0  0  0  0  0
  1  2  2  0  0  0  0
  1 13  1  0  0  0  0
  2 18  1  0  0  0  0
  3  6  1  0  0  0  0
  4  7  1  0  0  0  0
  4  1  1  0  0  0  0
  5  8  1  0  0  0  0
  7 14  1  0  0  0  0
  8  7  2  0  0  0  0
  9 10  1  0  0  0  0
 11 17  2  0  0  0  0
 11  2  1  0  0  0  0
 12  5  2  0  0  0  0
 12 16  1  0  0  0  0
 13  3  2  0  0  0  0
 14 13  1  0  0  0  0
 15  9  2  0  0  0  0
 16  4  2  0  0  0  0
 17 15  1  0  0  0  0
 18  9  1  0  0  0  0
 18  6  2  0  0  0  0
 19 17  1  0  0  0  0
 20 19  2  0  0  0  0
 21 22  1  0  0  0  0
 21 20  1  0  0  0  0
 23 22  1  0  0  0  0
 24 23  1  0  0  0  0
 25 23  2  0  0  0  0
M  END
>  <MODEL>
4

>  <REMARK>
 VINA RESULT:      -7.4      2.358      4.834
  Name = 
  4 active torsions:
  status: ('A' for Active; 'I' for Inactive)
    1  A    between atoms: C_2  and  C_25
    2  A    between atoms: C_6  and  C_23
    3  A    between atoms: N_15  and  C_21
    4  A    between atoms: C_21  and  C_25
                            x       y       z     vdW  Elec       q    Type
                         _______ _______ _______ _____ _____    ______ ____

>  <TORSDO>
F 4

$$$$
=
 OpenBabel11052417313D

 25 28  0  0  0  0  0  0  0  0999 V2000
  186.7070  177.7850  144.0380 C   0  0  0  0  0  0  0  0  0  0  0  0
  188.0410  177.5890  144.3950 C   0  0  0  0  0  0  0  0  0  0  0  0
  186.0210  177.8230  146.3450 C   0  0  0  0  0  3  0  0  0  0  0  0
  186.0620  177.9050  142.8290 C   0  0  0  0  0  0  0  0  0  0  0  0
  184.2060  178.2160  140.8000 C   0  0  0  0  0  3  0  0  0  0  0  0
  187.3250  177.6320  146.7050 N   0  0  0  0  0  0  0  0  0  0  0  0
  184.7290  178.0850  143.1340 C   0  0  0  0  0  0  0  0  0  0  0  0
  183.7690  178.2440  142.1380 C   0  0  0  0  0  3  0  0  0  0  0  0
  189.6640  177.3150  146.1930 C   0  0  0  0  0  0  0  0  0  0  0  0
  190.0240  177.2280  147.6370 C   0  0  0  0  0  1  0  0  0  0  0  0
  189.0640  177.4690  143.4500 C   0  0  0  0  0  3  0  0  0  0  0  0
  185.5720  178.0320  140.4910 C   0  0  0  0  0  3  0  0  0  0  0  0
  185.7180  177.9000  144.9900 C   0  0  0  0  0  0  0  0  0  0  0  0
  184.5340  178.0800  144.4390 O   0  0  0  0  0  0  0  0  0  0  0  0
  190.6780  177.1970  145.2360 C   0  0  0  0  0  3  0  0  0  0  0  0
  186.5240  177.8740  141.5150 C   0  0  0  0  0  3  0  0  0  0  0  0
  190.3860  177.2730  143.8690 C   0  0  0  0  0  0  0  0  0  0  0  0
  188.3350  177.5120  145.7830 C   0  0  0  0  0  0  0  0  0  0  0  0
  191.4780  177.1410  142.9010 C   0  0  0  0  0  3  0  0  0  0  0  0
  192.4910  176.3680  143.1250 N   0  0  0  0  0  0  0  0  0  0  0  0
  193.5710  176.2520  142.1590 C   0  0  0  0  0  2  0  0  0  0  0  0
  194.7420  175.4720  142.7430 C   0  0  0  0  0  2  0  0  0  0  0  0
  195.6760  176.3700  143.4810 C   0  0  0  0  0  0  0  0  0  0  0  0
  196.8870  176.7950  142.8690 N   0  0  0  0  0  1  0  0  0  0  0  0
  195.4000  176.7430  144.6510 O   0  0  0  0  0  0  0  0  0  0  0  0
  1  2  2  0  0  0  0
  1 13  1  0  0  0  0
  2 18  1  0  0  0  0
  3  6  1  0  0  0  0
  4  7  1  0  0  0  0
  4  1  1  0  0  0  0
  5  8  1  0  0  0  0
  7 14  1  0  0  0  0
  8  7  2  0  0  0  0
  9 10  1  0  0  0  0
 11 17  2  0  0  0  0
 11  2  1  0  0  0  0
 12  5  2  0  0  0  0
 12 16  1  0  0  0  0
 13  3  2  0  0  0  0
 14 13  1  0  0  0  0
 15  9  2  0  0  0  0
 16  4  2  0  0  0  0
 17 15  1  0  0  0  0
 18  9  1  0  0  0  0
 18  6  2  0  0  0  0
 19 20  2  0  0  0  0
 19 17  1  0  0  0  0
 21 22  1  0  0  0  0
 21 20  1  0  0  0  0
 22 23  1  0  0  0  0
 23 25  2  0  0  0  0
 24 23  1  0  0  0  0
M  END
>  <MODEL>
5

>  <REMARK>
 VINA RESULT:      -7.2      3.912      9.283
  Name = 
  4 active torsions:
  status: ('A' for Active; 'I' for Inactive)
    1  A    between atoms: C_2  and  C_25
    2  A    between atoms: C_6  and  C_23
    3  A    between atoms: N_15  and  C_21
    4  A    between atoms: C_21  and  C_25
                            x       y       z     vdW  Elec       q    Type
                         _______ _______ _______ _____ _____    ______ ____

>  <TORSDO>
F 4

$$$$
=
 OpenBabel11052417313D

 25 28  0  0  0  0  0  0  0  0999 V2000
  186.7440  176.8560  144.3690 C   0  0  0  0  0  0  0  0  0  0  0  0
  187.8860  176.1300  144.0280 C   0  0  0  0  0  0  0  0  0  0  0  0
  185.9410  176.7910  142.1010 C   0  0  0  0  0  3  0  0  0  0  0  0
  186.2830  177.3890  145.5500 C   0  0  0  0  0  0  0  0  0  0  0  0
  184.8270  178.6670  147.5260 C   0  0  0  0  0  3  0  0  0  0  0  0
  187.0560  176.0810  141.7570 N   0  0  0  0  0  0  0  0  0  0  0  0
  185.0830  177.9970  145.2410 C   0  0  0  0  0  0  0  0  0  0  0  0
  184.3260  178.6490  146.2110 C   0  0  0  0  0  3  0  0  0  0  0  0
  189.1570  175.0100  142.2770 C   0  0  0  0  0  0  0  0  0  0  0  0
  189.3490  174.5780  140.8620 C   0  0  0  0  0  1  0  0  0  0  0  0
  188.8680  175.7890  144.9630 C   0  0  0  0  0  3  0  0  0  0  0  0
  186.0560  178.0430  147.8390 C   0  0  0  0  0  3  0  0  0  0  0  0
  185.7920  177.1790  143.4280 C   0  0  0  0  0  0  0  0  0  0  0  0
  184.7990  177.8640  143.9600 O   0  0  0  0  0  0  0  0  0  0  0  0
  190.1320  174.6750  143.2220 C   0  0  0  0  0  3  0  0  0  0  0  0
  186.8040  177.3900  146.8430 C   0  0  0  0  0  3  0  0  0  0  0  0
  189.9940  175.0590  144.5610 C   0  0  0  0  0  0  0  0  0  0  0  0
  188.0250  175.7410  142.6690 C   0  0  0  0  0  0  0  0  0  0  0  0
  191.0400  174.6890  145.5180 C   0  0  0  0  0  3  0  0  0  0  0  0
  192.1700  175.3190  145.5630 N   0  0  0  0  0  0  0  0  0  0  0  0
  193.2020  174.9370  146.5130 C   0  0  0  0  0  2  0  0  0  0  0  0
  194.3660  175.9200  146.4770 C   0  0  0  0  0  2  0  0  0  0  0  0
  195.3160  175.5910  145.3760 C   0  0  0  0  0  0  0  0  0  0  0  0
  195.3770  176.4150  144.2190 N   0  0  0  0  0  1  0  0  0  0  0  0
  196.0570  174.5770  145.4630 O   0  0  0  0  0  0  0  0  0  0  0  0
  1  4  1  0  0  0  0
  2  1  1  0  0  0  0
  2 11  1  0  0  0  0
  3 13  1  0  0  0  0
  4 16  1  0  0  0  0
  5 12  1  0  0  0  0
  6  3  2  0  0  0  0
  6 18  1  0  0  0  0
  7  4  2  0  0  0  0
  7  8  1  0  0  0  0
  8  5  2  0  0  0  0
  9 18  1  0  0  0  0
  9 15  2  0  0  0  0
 10  9  1  0  0  0  0
 13 14  1  0  0  0  0
 13  1  2  0  0  0  0
 14  7  1  0  0  0  0
 15 17  1  0  0  0  0
 16 12  2  0  0  0  0
 17 11  2  0  0  0  0
 17 19  1  0  0  0  0
 18  2  2  0  0  0  0
 19 20  2  0  0  0  0
 20 21  1  0  0  0  0
 22 21  1  0  0  0  0
 23 25  2  0  0  0  0
 23 22  1  0  0  0  0
 24 23  1  0  0  0  0
M  END
>  <MODEL>
6

>  <REMARK>
 VINA RESULT:      -7.1      4.067      8.744
  Name = 
  4 active torsions:
  status: ('A' for Active; 'I' for Inactive)
    1  A    between atoms: C_2  and  C_25
    2  A    between atoms: C_6  and  C_23
    3  A    between atoms: N_15  and  C_21
    4  A    between atoms: C_21  and  C_25
                            x       y       z     vdW  Elec       q    Type
                         _______ _______ _______ _____ _____    ______ ____

>  <TORSDO>
F 4

$$$$
=
 OpenBabel11052417313D

 25 28  0  0  0  0  0  0  0  0999 V2000
  187.6300  177.5510  144.3440 C   0  0  0  0  0  0  0  0  0  0  0  0
  188.9590  177.2380  144.6280 C   0  0  0  0  0  0  0  0  0  0  0  0
  187.0750  177.6380  146.6830 C   0  0  0  0  0  3  0  0  0  0  0  0
  186.9340  177.7340  143.1700 C   0  0  0  0  0  0  0  0  0  0  0  0
  185.0060  178.2170  141.2450 C   0  0  0  0  0  3  0  0  0  0  0  0
  188.3740  177.3300  146.9730 N   0  0  0  0  0  0  0  0  0  0  0  0
  185.6400  178.0280  143.5480 C   0  0  0  0  0  0  0  0  0  0  0  0
  184.6450  178.2760  142.6050 C   0  0  0  0  0  3  0  0  0  0  0  0
  190.6450  176.8130  146.3350 C   0  0  0  0  0  0  0  0  0  0  0  0
  191.0730  176.6870  147.7580 C   0  0  0  0  0  1  0  0  0  0  0  0
  189.9150  177.0330  143.6290 C   0  0  0  0  0  3  0  0  0  0  0  0
  186.3320  177.9150  140.8630 C   0  0  0  0  0  3  0  0  0  0  0  0
  186.7070  177.7480  145.3470 C   0  0  0  0  0  0  0  0  0  0  0  0
  185.5160  178.0330  144.8600 O   0  0  0  0  0  0  0  0  0  0  0  0
  191.5920  176.6110  145.3250 C   0  0  0  0  0  3  0  0  0  0  0  0
  187.3200  177.6680  141.8330 C   0  0  0  0  0  3  0  0  0  0  0  0
  191.2350  176.7200  143.9760 C   0  0  0  0  0  0  0  0  0  0  0  0
  189.3190  177.1280  145.9980 C   0  0  0  0  0  0  0  0  0  0  0  0
  192.2580  176.4980  142.9500 C   0  0  0  0  0  3  0  0  0  0  0  0
  192.9660  175.4150  142.9240 N   0  0  0  0  0  0  0  0  0  0  0  0
  193.9820  175.2110  141.9040 C   0  0  0  0  0  2  0  0  0  0  0  0
  195.3710  175.1440  142.5260 C   0  0  0  0  0  2  0  0  0  0  0  0
  196.1440  176.3910  142.2590 C   0  0  0  0  0  0  0  0  0  0  0  0
  197.1910  176.7800  143.1380 N   0  0  0  0  0  1  0  0  0  0  0  0
  195.8620  177.1070  141.2630 O   0  0  0  0  0  0  0  0  0  0  0  0
  1  2  2  0  0  0  0
  1 13  1  0  0  0  0
  2 18  1  0  0  0  0
  3  6  1  0  0  0  0
  4  7  1  0  0  0  0
  4  1  1  0  0  0  0
  5  8  1  0  0  0  0
  7 14  1  0  0  0  0
  8  7  2  0  0  0  0
  9 10  1  0  0  0  0
 11 17  2  0  0  0  0
 11  2  1  0  0  0  0
 12  5  2  0  0  0  0
 12 16  1  0  0  0  0
 13  3  2  0  0  0  0
 14 13  1  0  0  0  0
 15  9  2  0  0  0  0
 16  4  2  0  0  0  0
 17 15  1  0  0  0  0
 18  9  1  0  0  0  0
 18  6  2  0  0  0  0
 19 17  1  0  0  0  0
 20 19  2  0  0  0  0
 21 22  1  0  0  0  0
 21 20  1  0  0  0  0
 23 22  1  0  0  0  0
 23 24  1  0  0  0  0
 25 23  2  0  0  0  0
M  END
>  <MODEL>
7

>  <REMARK>
 VINA RESULT:      -6.9      4.389      9.626
  Name = 
  4 active torsions:
  status: ('A' for Active; 'I' for Inactive)
    1  A    between atoms: C_2  and  C_25
    2  A    between atoms: C_6  and  C_23
    3  A    between atoms: N_15  and  C_21
    4  A    between atoms: C_21  and  C_25
                            x       y       z     vdW  Elec       q    Type
                         _______ _______ _______ _____ _____    ______ ____

>  <TORSDO>
F 4

$$$$
=
 OpenBabel11052417313D

 25 28  0  0  0  0  0  0  0  0999 V2000
  185.6830  177.5150  143.8090 C   0  0  0  0  0  0  0  0  0  0  0  0
  186.4860  176.9610  142.8120 C   0  0  0  0  0  0  0  0  0  0  0  0
  184.2210  178.5130  142.1790 C   0  0  0  0  0  3  0  0  0  0  0  0
  185.7340  177.4860  145.1840 C   0  0  0  0  0  0  0  0  0  0  0  0
  185.2630  177.8180  147.8910 C   0  0  0  0  0  3  0  0  0  0  0  0
  185.0000  177.9750  141.1940 N   0  0  0  0  0  0  0  0  0  0  0  0
  184.6510  178.2290  145.6110 C   0  0  0  0  0  0  0  0  0  0  0  0
  184.3860  178.4160  146.9660 C   0  0  0  0  0  3  0  0  0  0  0  0
  186.8880  176.6790  140.4250 C   0  0  0  0  0  0  0  0  0  0  0  0
  186.5360  176.9160  138.9950 C   0  0  0  0  0  1  0  0  0  0  0  0
  187.6150  176.1890  143.0960 C   0  0  0  0  0  3  0  0  0  0  0  0
  186.3690  177.0580  147.4490 C   0  0  0  0  0  3  0  0  0  0  0  0
  184.5760  178.2730  143.5020 C   0  0  0  0  0  0  0  0  0  0  0  0
  183.9630  178.6980  144.5890 O   0  0  0  0  0  0  0  0  0  0  0  0
  188.0150  175.9070  140.7230 C   0  0  0  0  0  3  0  0  0  0  0  0
  186.6170  176.8830  146.0760 C   0  0  0  0  0  3  0  0  0  0  0  0
  188.3830  175.6590  142.0510 C   0  0  0  0  0  0  0  0  0  0  0  0
  186.1110  177.2150  141.4650 C   0  0  0  0  0  0  0  0  0  0  0  0
  189.5730  174.8470  142.3190 C   0  0  0  0  0  3  0  0  0  0  0  0
  190.4560  175.2090  143.1920 N   0  0  0  0  0  0  0  0  0  0  0  0
  191.6360  174.3980  143.4430 C   0  0  0  0  0  2  0  0  0  0  0  0
  192.0240  174.4430  144.9160 C   0  0  0  0  0  2  0  0  0  0  0  0
  192.3730  175.8290  145.3410 C   0  0  0  0  0  0  0  0  0  0  0  0
  191.6060  176.4780  146.3480 N   0  0  0  0  0  1  0  0  0  0  0  0
  193.3360  176.4320  144.8000 O   0  0  0  0  0  0  0  0  0  0  0  0
  1  4  1  0  0  0  0
  2 11  1  0  0  0  0
  2  1  1  0  0  0  0
  3 13  1  0  0  0  0
  4  7  2  0  0  0  0
  4 16  1  0  0  0  0
  6 18  1  0  0  0  0
  6  3  2  0  0  0  0
  7  8  1  0  0  0  0
  8  5  2  0  0  0  0
  9 15  2  0  0  0  0
  9 18  1  0  0  0  0
 10  9  1  0  0  0  0
 12  5  1  0  0  0  0
 13  1  2  0  0  0  0
 13 14  1  0  0  0  0
 14  7  1  0  0  0  0
 15 17  1  0  0  0  0
 16 12  2  0  0  0  0
 17 19  1  0  0  0  0
 17 11  2  0  0  0  0
 18  2  2  0  0  0  0
 19 20  2  0  0  0  0
 20 21  1  0  0  0  0
 21 22  1  0  0  0  0
 22 23  1  0  0  0  0
 23 24  1  0  0  0  0
 25 23  2  0  0  0  0
M  END
>  <MODEL>
8

>  <REMARK>
 VINA RESULT:      -6.8      3.028      7.182
  Name = 
  4 active torsions:
  status: ('A' for Active; 'I' for Inactive)
    1  A    between atoms: C_2  and  C_25
    2  A    between atoms: C_6  and  C_23
    3  A    between atoms: N_15  and  C_21
    4  A    between atoms: C_21  and  C_25
                            x       y       z     vdW  Elec       q    Type
                         _______ _______ _______ _____ _____    ______ ____

>  <TORSDO>
F 4

$$$$
=
 OpenBabel11052417313D

 25 28  0  0  0  0  0  0  0  0999 V2000
  186.7500  177.0250  144.1800 C   0  0  0  0  0  0  0  0  0  0  0  0
  188.0420  176.5710  144.4450 C   0  0  0  0  0  0  0  0  0  0  0  0
  186.1340  176.8450  146.4990 C   0  0  0  0  0  3  0  0  0  0  0  0
  186.1060  177.4150  143.0280 C   0  0  0  0  0  0  0  0  0  0  0  0
  184.2790  178.3010  141.1480 C   0  0  0  0  0  3  0  0  0  0  0  0
  187.3960  176.3990  146.7700 N   0  0  0  0  0  0  0  0  0  0  0  0
  184.8270  177.7600  143.4160 C   0  0  0  0  0  0  0  0  0  0  0  0
  183.8840  178.2090  142.4960 C   0  0  0  0  0  3  0  0  0  0  0  0
  189.6390  175.7910  146.1130 C   0  0  0  0  0  0  0  0  0  0  0  0
  190.0130  175.4440  147.5140 C   0  0  0  0  0  1  0  0  0  0  0  0
  189.0090  176.4240  143.4470 C   0  0  0  0  0  3  0  0  0  0  0  0
  185.5900  177.9480  140.7550 C   0  0  0  0  0  3  0  0  0  0  0  0
  185.8160  177.1600  145.1820 C   0  0  0  0  0  0  0  0  0  0  0  0
  184.6650  177.6020  144.7150 O   0  0  0  0  0  0  0  0  0  0  0  0
  190.5980  175.6490  145.1030 C   0  0  0  0  0  3  0  0  0  0  0  0
  186.5260  177.4970  141.7020 C   0  0  0  0  0  3  0  0  0  0  0  0
  190.2910  175.9630  143.7740 C   0  0  0  0  0  0  0  0  0  0  0  0
  188.3520  176.2530  145.7950 C   0  0  0  0  0  0  0  0  0  0  0  0
  191.3240  175.7970  142.7480 C   0  0  0  0  0  3  0  0  0  0  0  0
  192.5710  175.6570  143.0610 N   0  0  0  0  0  0  0  0  0  0  0  0
  193.5870  175.5000  142.0330 C   0  0  0  0  0  2  0  0  0  0  0  0
  194.9500  175.2210  142.6520 C   0  0  0  0  0  2  0  0  0  0  0  0
  195.9020  176.3390  142.3910 C   0  0  0  0  0  0  0  0  0  0  0  0
  196.7870  176.7740  143.4160 N   0  0  0  0  0  1  0  0  0  0  0  0
  195.9140  176.9090  141.2690 O   0  0  0  0  0  0  0  0  0  0  0  0
  1  2  2  0  0  0  0
  1 13  1  0  0  0  0
  2 18  1  0  0  0  0
  3  6  1  0  0  0  0
  4  7  1  0  0  0  0
  4  1  1  0  0  0  0
  5  8  1  0  0  0  0
  7 14  1  0  0  0  0
  8  7  2  0  0  0  0
  9 10  1  0  0  0  0
 11 17  2  0  0  0  0
 11  2  1  0  0  0  0
 12  5  2  0  0  0  0
 12 16  1  0  0  0  0
 13  3  2  0  0  0  0
 14 13  1  0  0  0  0
 15  9  2  0  0  0  0
 16  4  2  0  0  0  0
 17 15  1  0  0  0  0
 18  9  1  0  0  0  0
 18  6  2  0  0  0  0
 19 20  2  0  0  0  0
 19 17  1  0  0  0  0
 21 22  1  0  0  0  0
 21 20  1  0  0  0  0
 23 22  1  0  0  0  0
 23 24  1  0  0  0  0
 25 23  2  0  0  0  0
M  END
>  <MODEL>
9

>  <REMARK>
 VINA RESULT:      -6.8      4.175      9.374
  Name = 
  4 active torsions:
  status: ('A' for Active; 'I' for Inactive)
    1  A    between atoms: C_2  and  C_25
    2  A    between atoms: C_6  and  C_23
    3  A    between atoms: N_15  and  C_21
    4  A    between atoms: C_21  and  C_25
                            x       y       z     vdW  Elec       q    Type
                         _______ _______ _______ _____ _____    ______ ____

>  <TORSDO>
F 4

$$$$
