=
 OpenBabel11052417233D

 30 35  0  0  1  0  0  0  0  0999 V2000
  189.9610  175.8640  146.2890 C   0  0  2  0  0  3  0  0  0  0  0  0
  193.7960  176.2670  146.8580 C   0  0  0  0  0  2  0  0  0  0  0  0
  190.8300  173.6610  144.5440 C   0  0  0  0  0  2  0  0  0  0  0  0
  189.1560  176.4310  145.1080 C   0  0  2  0  0  0  0  0  0  0  0  0
  189.6450  177.3640  146.1750 C   0  0  1  0  0  3  0  0  0  0  0  0
  186.9230  178.1170  141.9480 C   0  0  0  0  0  2  0  0  0  0  0  0
  187.3820  177.4330  146.3320 C   0  0  1  0  0  3  0  0  0  0  0  0
  189.4870  175.4870  142.7930 N   0  0  0  0  0  0  0  0  0  0  0  0
  190.5910  174.7260  142.2250 C   0  0  0  0  0  2  0  0  0  0  0  0
  188.5760  177.6720  147.0400 O   0  0  0  0  0  0  0  0  0  0  0  0
  187.6500  176.4300  145.2270 C   0  0  1  0  0  3  0  0  0  0  0  0
  194.3780  176.1770  145.4580 C   0  0  0  0  0  2  0  0  0  0  0  0
  188.1570  174.8710  142.7930 C   0  0  0  0  0  2  0  0  0  0  0  0
  187.1810  176.7420  141.5340 N   0  0  0  0  0  2  0  0  0  0  0  0
  192.2940  176.3360  146.8300 C   0  0  0  0  0  3  0  0  0  0  0  0
  191.9330  174.6250  144.9900 C   0  0  1  0  0  3  0  0  0  0  0  0
  194.4630  174.7210  145.0040 C   0  0  0  0  0  2  0  0  0  0  0  0
  191.4470  175.6210  146.0540 C   0  0  0  0  0  0  0  0  0  0  0  0
  190.6780  177.3710  143.4960 O   0  0  0  0  0  0  0  0  0  0  0  0
  190.8580  173.4440  143.0280 C   0  0  0  0  0  2  0  0  0  0  0  0
  189.8120  176.4920  143.7590 C   0  0  0  0  0  0  0  0  0  0  0  0
  187.0290  175.9080  142.7220 C   0  0  2  0  0  3  0  0  0  0  0  0
  187.1960  178.2130  143.4300 C   0  0  0  0  0  2  0  0  0  0  0  0
  193.2340  173.8910  145.3740 C   0  0  2  0  0  3  0  0  0  0  0  0
  193.3380  172.6440  144.7520 O   0  0  0  0  0  1  0  0  0  0  0  0
  186.8850  176.8280  143.9410 C   0  0  2  0  0  3  0  0  0  0  0  0
  186.4110  176.9310  147.2000 O   0  0  0  0  0  0  0  0  0  0  0  0
  185.5600  178.0090  147.4430 C   0  0  0  0  0  2  0  0  0  0  0  0
  184.3660  177.9270  146.5150 C   0  0  0  0  0  2  0  0  0  0  0  0
  184.2800  179.1000  145.7670 O   0  0  0  0  0  1  0  0  0  0  0  0
  1 18  1  6  0  0  0
  3 16  1  0  0  0  0
  4 21  1  6  0  0  0
  4 11  1  0  0  0  0
  4  5  1  0  0  0  0
  4  1  1  0  0  0  0
  5  1  1  0  0  0  0
  5 10  1  1  0  0  0
  6 23  1  0  0  0  0
  7 10  1  0  0  0  0
  7 27  1  1  0  0  0
  8 13  1  0  0  0  0
  8 21  1  0  0  0  0
  9  8  1  0  0  0  0
  9 20  1  0  0  0  0
 11  7  1  0  0  0  0
 12  2  1  0  0  0  0
 14  6  1  0  0  0  0
 14 22  1  0  0  0  0
 15  2  1  0  0  0  0
 16 24  1  0  0  0  0
 16 18  1  0  0  0  0
 17 24  1  0  0  0  0
 17 12  1  0  0  0  0
 18 15  2  0  0  0  0
 19 21  2  0  0  0  0
 20  3  1  0  0  0  0
 22 13  1  0  0  0  0
 22 26  1  0  0  0  0
 23 26  1  0  0  0  0
 25 24  1  0  0  0  0
 26 11  1  0  0  0  0
 27 28  1  0  0  0  0
 29 28  1  0  0  0  0
 30 29  1  0  0  0  0
M  END
>  <MODEL>
1

>  <REMARK>
 VINA RESULT:      -8.3      0.000      0.000
  Name = 
  3 active torsions:
  status: ('A' for Active; 'I' for Inactive)
    1  A    between atoms: O_6  and  C_8
    2  A    between atoms: O_6  and  C_21
    3  A    between atoms: C_9  and  C_21
                            x       y       z     vdW  Elec       q    Type
                         _______ _______ _______ _____ _____    ______ ____

>  <TORSDO>
F 3

$$$$
=
 OpenBabel11052417233D

 30 35  0  0  1  0  0  0  0  0999 V2000
  187.4640  175.6950  143.0850 C   0  0  2  0  0  3  0  0  0  0  0  0
  184.9880  178.7060  142.9900 C   0  0  0  0  0  2  0  0  0  0  0  0
  187.3770  176.1980  145.9830 C   0  0  0  0  0  2  0  0  0  0  0  0
  188.9970  175.7850  143.1540 C   0  0  2  0  0  0  0  0  0  0  0  0
  188.3020  176.1230  141.8690 C   0  0  1  0  0  3  0  0  0  0  0  0
  193.2100  176.0340  143.1890 C   0  0  0  0  0  2  0  0  0  0  0  0
  189.5240  174.2690  141.4020 C   0  0  1  0  0  3  0  0  0  0  0  0
  190.1140  176.6270  145.2530 N   0  0  0  0  0  0  0  0  0  0  0  0
  189.5930  177.4320  146.3500 C   0  0  0  0  0  2  0  0  0  0  0  0
  188.4140  175.0300  140.9860 O   0  0  0  0  0  0  0  0  0  0  0  0
  189.7820  174.5260  142.8740 C   0  0  1  0  0  3  0  0  0  0  0  0
  185.6270  179.7240  143.9190 C   0  0  0  0  0  2  0  0  0  0  0  0
  190.6480  175.3000  145.5690 C   0  0  0  0  0  2  0  0  0  0  0  0
  192.8350  175.8360  144.5840 N   0  0  0  0  0  2  0  0  0  0  0  0
  185.9040  177.5400  142.7330 C   0  0  0  0  0  3  0  0  0  0  0  0
  186.7860  177.3030  145.1030 C   0  0  1  0  0  3  0  0  0  0  0  0
  185.3490  179.3690  145.3780 C   0  0  0  0  0  2  0  0  0  0  0  0
  186.6800  176.8850  143.6280 C   0  0  0  0  0  0  0  0  0  0  0  0
  189.6370  178.0830  143.4880 O   0  0  0  0  0  0  0  0  0  0  0  0
  188.3710  176.7670  146.9990 C   0  0  0  0  0  2  0  0  0  0  0  0
  189.6130  176.9060  143.9420 C   0  0  0  0  0  0  0  0  0  0  0  0
  191.7470  174.8620  144.5940 C   0  0  2  0  0  3  0  0  0  0  0  0
  192.0210  175.6700  142.3330 C   0  0  0  0  0  2  0  0  0  0  0  0
  185.4760  177.8760  145.6810 C   0  0  2  0  0  3  0  0  0  0  0  0
  185.3880  177.6950  147.0640 O   0  0  0  0  0  1  0  0  0  0  0  0
  191.3040  174.6210  143.1450 C   0  0  2  0  0  3  0  0  0  0  0  0
  189.2690  172.9120  141.1980 O   0  0  0  0  0  0  0  0  0  0  0  0
  188.2420  172.8810  140.2540 C   0  0  0  0  0  2  0  0  0  0  0  0
  188.7840  172.3690  138.9360 C   0  0  0  0  0  2  0  0  0  0  0  0
  188.3270  173.1810  137.9000 O   0  0  0  0  0  1  0  0  0  0  0  0
  1  4  1  0  0  0  0
  1 18  1  1  0  0  0
  2 12  1  0  0  0  0
  3 20  1  0  0  0  0
  4 21  1  1  0  0  0
  5 10  1  6  0  0  0
  5  1  1  0  0  0  0
  5  4  1  0  0  0  0
  6 14  1  0  0  0  0
  7 27  1  1  0  0  0
  7 11  1  0  0  0  0
  8 13  1  0  0  0  0
  8  9  1  0  0  0  0
  9 20  1  0  0  0  0
 10  7  1  0  0  0  0
 11 26  1  0  0  0  0
 11  4  1  0  0  0  0
 12 17  1  0  0  0  0
 14 22  1  0  0  0  0
 15  2  1  0  0  0  0
 15 18  2  0  0  0  0
 16 24  1  0  0  0  0
 16  3  1  0  0  0  0
 17 24  1  0  0  0  0
 18 16  1  0  0  0  0
 19 21  2  0  0  0  0
 21  8  1  0  0  0  0
 22 13  1  0  0  0  0
 23 26  1  0  0  0  0
 23  6  1  0  0  0  0
 24 25  1  0  0  0  0
 26 22  1  0  0  0  0
 28 27  1  0  0  0  0
 29 28  1  0  0  0  0
 30 29  1  0  0  0  0
M  END
>  <MODEL>
2

>  <REMARK>
 VINA RESULT:      -7.9      2.559      6.749
  Name = 
  3 active torsions:
  status: ('A' for Active; 'I' for Inactive)
    1  A    between atoms: O_6  and  C_8
    2  A    between atoms: O_6  and  C_21
    3  A    between atoms: C_9  and  C_21
                            x       y       z     vdW  Elec       q    Type
                         _______ _______ _______ _____ _____    ______ ____

>  <TORSDO>
F 3

$$$$
=
 OpenBabel11052417233D

 30 35  0  0  1  0  0  0  0  0999 V2000
  187.3700  175.5190  143.0370 C   0  0  2  0  0  3  0  0  0  0  0  0
  184.9370  178.5580  142.8220 C   0  0  0  0  0  2  0  0  0  0  0  0
  187.3920  176.2180  145.8950 C   0  0  0  0  0  2  0  0  0  0  0  0
  188.9060  175.5880  143.0480 C   0  0  2  0  0  0  0  0  0  0  0  0
  188.1710  175.8500  141.7670 C   0  0  1  0  0  3  0  0  0  0  0  0
  193.1210  175.7660  142.9230 C   0  0  0  0  0  2  0  0  0  0  0  0
  189.3490  173.9480  141.3860 C   0  0  1  0  0  3  0  0  0  0  0  0
  190.1070  176.5500  145.0460 N   0  0  0  0  0  0  0  0  0  0  0  0
  189.6380  177.4360  146.1030 C   0  0  0  0  0  2  0  0  0  0  0  0
  188.2370  174.6980  140.9580 O   0  0  0  0  0  0  0  0  0  0  0  0
  189.6620  174.2990  142.8270 C   0  0  1  0  0  3  0  0  0  0  0  0
  185.6220  179.6260  143.6570 C   0  0  0  0  0  2  0  0  0  0  0  0
  190.6320  175.2380  145.4330 C   0  0  0  0  0  2  0  0  0  0  0  0
  192.7910  175.6690  144.3400 N   0  0  0  0  0  2  0  0  0  0  0  0
  185.8260  177.3630  142.6130 C   0  0  0  0  0  3  0  0  0  0  0  0
  186.7860  177.2700  144.9620 C   0  0  1  0  0  3  0  0  0  0  0  0
  185.3910  179.3750  145.1450 C   0  0  0  0  0  2  0  0  0  0  0  0
  186.6230  176.7560  143.5240 C   0  0  0  0  0  0  0  0  0  0  0  0
  189.5910  177.8910  143.2030 O   0  0  0  0  0  0  0  0  0  0  0  0
  188.4290  176.8370  146.8370 C   0  0  0  0  0  2  0  0  0  0  0  0
  189.5650  176.7480  143.7360 C   0  0  0  0  0  0  0  0  0  0  0  0
  191.6910  174.7160  144.4530 C   0  0  2  0  0  3  0  0  0  0  0  0
  191.8980  175.3660  142.1350 C   0  0  0  0  0  2  0  0  0  0  0  0
  185.5060  177.9030  145.5450 C   0  0  2  0  0  3  0  0  0  0  0  0
  185.4630  177.8180  146.9380 O   0  0  0  0  0  1  0  0  0  0  0  0
  191.1930  174.3860  143.0400 C   0  0  2  0  0  3  0  0  0  0  0  0
  189.0670  172.5850  141.2830 O   0  0  0  0  0  0  0  0  0  0  0  0
  189.9820  172.1020  140.3480 C   0  0  0  0  0  2  0  0  0  0  0  0
  190.8770  171.0710  141.0050 C   0  0  0  0  0  2  0  0  0  0  0  0
  190.2830  170.6290  142.1860 O   0  0  0  0  0  1  0  0  0  0  0  0
  1  4  1  0  0  0  0
  1 18  1  1  0  0  0
  2 12  1  0  0  0  0
  3 20  1  0  0  0  0
  4 21  1  1  0  0  0
  5 10  1  6  0  0  0
  5  1  1  0  0  0  0
  5  4  1  0  0  0  0
  6 14  1  0  0  0  0
  7 27  1  1  0  0  0
  7 11  1  0  0  0  0
  8 13  1  0  0  0  0
  8  9  1  0  0  0  0
  9 20  1  0  0  0  0
 10  7  1  0  0  0  0
 11 26  1  0  0  0  0
 11  4  1  0  0  0  0
 12 17  1  0  0  0  0
 14 22  1  0  0  0  0
 15  2  1  0  0  0  0
 15 18  2  0  0  0  0
 16 24  1  0  0  0  0
 16  3  1  0  0  0  0
 17 24  1  0  0  0  0
 18 16  1  0  0  0  0
 19 21  2  0  0  0  0
 21  8  1  0  0  0  0
 22 13  1  0  0  0  0
 23  6  1  0  0  0  0
 23 26  1  0  0  0  0
 24 25  1  0  0  0  0
 26 22  1  0  0  0  0
 28 29  1  0  0  0  0
 28 27  1  0  0  0  0
 29 30  1  0  0  0  0
M  END
>  <MODEL>
3

>  <REMARK>
 VINA RESULT:      -7.9      2.271      6.854
  Name = 
  3 active torsions:
  status: ('A' for Active; 'I' for Inactive)
    1  A    between atoms: O_6  and  C_8
    2  A    between atoms: O_6  and  C_21
    3  A    between atoms: C_9  and  C_21
                            x       y       z     vdW  Elec       q    Type
                         _______ _______ _______ _____ _____    ______ ____

>  <TORSDO>
F 3

$$$$
=
 OpenBabel11052417233D

 30 35  0  0  1  0  0  0  0  0999 V2000
  188.2730  175.7490  143.4600 C   0  0  2  0  0  3  0  0  0  0  0  0
  185.7410  178.4970  142.3480 C   0  0  0  0  0  2  0  0  0  0  0  0
  187.1060  176.2760  146.1090 C   0  0  0  0  0  2  0  0  0  0  0  0
  189.6650  175.9920  144.0670 C   0  0  2  0  0  0  0  0  0  0  0  0
  189.4500  176.2440  142.6040 C   0  0  1  0  0  3  0  0  0  0  0  0
  193.5440  176.6590  145.5900 C   0  0  0  0  0  2  0  0  0  0  0  0
  190.9180  174.5150  142.6910 C   0  0  1  0  0  3  0  0  0  0  0  0
  189.8720  176.9660  146.3840 N   0  0  0  0  0  0  0  0  0  0  0  0
  188.9240  177.7290  147.1840 C   0  0  0  0  0  2  0  0  0  0  0  0
  189.9690  175.1560  141.8720 O   0  0  0  0  0  0  0  0  0  0  0  0
  190.6060  174.8140  144.1450 C   0  0  1  0  0  3  0  0  0  0  0  0
  185.9100  179.5860  143.3930 C   0  0  0  0  0  2  0  0  0  0  0  0
  190.3720  175.7030  146.9320 C   0  0  0  0  0  2  0  0  0  0  0  0
  192.7110  176.4410  146.7670 N   0  0  0  0  0  2  0  0  0  0  0  0
  186.7870  177.4260  142.4890 C   0  0  0  0  0  3  0  0  0  0  0  0
  186.7750  177.3060  145.0250 C   0  0  1  0  0  3  0  0  0  0  0  0
  185.1590  179.2230  144.6730 C   0  0  0  0  0  2  0  0  0  0  0  0
  187.2450  176.8620  143.6310 C   0  0  0  0  0  0  0  0  0  0  0  0
  189.9360  178.3460  144.4990 O   0  0  0  0  0  0  0  0  0  0  0  0
  187.6140  176.9530  147.3860 C   0  0  0  0  0  2  0  0  0  0  0  0
  189.8540  177.1780  144.9690 C   0  0  0  0  0  0  0  0  0  0  0  0
  191.7830  175.3640  146.4340 C   0  0  2  0  0  3  0  0  0  0  0  0
  192.7790  176.1680  144.3840 C   0  0  0  0  0  2  0  0  0  0  0  0
  185.3000  177.7530  145.0710 C   0  0  2  0  0  3  0  0  0  0  0  0
  184.7370  177.5810  146.3380 O   0  0  0  0  0  1  0  0  0  0  0  0
  191.9130  175.0620  144.9360 C   0  0  2  0  0  3  0  0  0  0  0  0
  190.8740  173.1370  142.4730 O   0  0  0  0  0  0  0  0  0  0  0  0
  189.7820  172.9450  141.6270 C   0  0  0  0  0  2  0  0  0  0  0  0
  188.6900  172.2060  142.3740 C   0  0  0  0  0  2  0  0  0  0  0  0
  187.4450  172.6360  141.9170 O   0  0  0  0  0  1  0  0  0  0  0  0
  1 18  1  1  0  0  0
  1  4  1  0  0  0  0
  2 15  1  0  0  0  0
  2 12  1  0  0  0  0
  3 20  1  0  0  0  0
  4 11  1  0  0  0  0
  4 21  1  1  0  0  0
  5 10  1  6  0  0  0
  5  1  1  0  0  0  0
  5  4  1  0  0  0  0
  6 14  1  0  0  0  0
  7 27  1  1  0  0  0
  7 11  1  0  0  0  0
  8 13  1  0  0  0  0
  8  9  1  0  0  0  0
  9 20  1  0  0  0  0
 10  7  1  0  0  0  0
 11 26  1  0  0  0  0
 12 17  1  0  0  0  0
 15 18  2  0  0  0  0
 16 24  1  0  0  0  0
 16  3  1  0  0  0  0
 17 24  1  0  0  0  0
 18 16  1  0  0  0  0
 19 21  2  0  0  0  0
 21  8  1  0  0  0  0
 22 14  1  0  0  0  0
 22 13  1  0  0  0  0
 23 26  1  0  0  0  0
 23  6  1  0  0  0  0
 24 25  1  0  0  0  0
 26 22  1  0  0  0  0
 28 29  1  0  0  0  0
 28 27  1  0  0  0  0
 30 29  1  0  0  0  0
M  END
>  <MODEL>
4

>  <REMARK>
 VINA RESULT:      -7.7      2.197      6.617
  Name = 
  3 active torsions:
  status: ('A' for Active; 'I' for Inactive)
    1  A    between atoms: O_6  and  C_8
    2  A    between atoms: O_6  and  C_21
    3  A    between atoms: C_9  and  C_21
                            x       y       z     vdW  Elec       q    Type
                         _______ _______ _______ _____ _____    ______ ____

>  <TORSDO>
F 3

$$$$
=
 OpenBabel11052417233D

 30 35  0  0  1  0  0  0  0  0999 V2000
  189.7910  177.5400  145.4070 C   0  0  2  0  0  3  0  0  0  0  0  0
  186.4820  178.1080  147.3890 C   0  0  0  0  0  2  0  0  0  0  0  0
  187.9950  177.7420  143.0850 C   0  0  0  0  0  2  0  0  0  0  0  0
  190.2950  176.1970  144.8520 C   0  0  2  0  0  0  0  0  0  0  0  0
  190.3590  176.4490  146.3290 C   0  0  1  0  0  3  0  0  0  0  0  0
  191.7530  172.4890  143.4620 C   0  0  0  0  0  2  0  0  0  0  0  0
  192.5240  176.2870  145.6700 C   0  0  1  0  0  3  0  0  0  0  0  0
  189.0860  175.0970  142.9310 N   0  0  0  0  0  0  0  0  0  0  0  0
  187.7280  175.2770  142.4340 C   0  0  0  0  0  2  0  0  0  0  0  0
  191.6810  176.7910  146.6790 O   0  0  0  0  0  0  0  0  0  0  0  0
  191.7310  176.1310  144.3880 C   0  0  1  0  0  3  0  0  0  0  0  0
  185.4950  177.1700  146.7150 C   0  0  0  0  0  2  0  0  0  0  0  0
  190.1940  175.3580  142.0100 C   0  0  0  0  0  2  0  0  0  0  0  0
  191.1030  173.0930  142.3060 N   0  0  0  0  0  2  0  0  0  0  0  0
  187.8850  177.8850  146.8920 C   0  0  0  0  0  3  0  0  0  0  0  0
  187.3050  177.5680  144.4410 C   0  0  1  0  0  3  0  0  0  0  0  0
  184.9770  177.7790  145.4140 C   0  0  0  0  0  2  0  0  0  0  0  0
  188.2870  177.6750  145.6170 C   0  0  0  0  0  0  0  0  0  0  0  0
  188.5810  174.5310  145.1420 O   0  0  0  0  0  0  0  0  0  0  0  0
  187.4620  176.7410  142.0550 C   0  0  0  0  0  2  0  0  0  0  0  0
  189.2850  175.2090  144.3450 C   0  0  0  0  0  0  0  0  0  0  0  0
  191.4350  174.5150  142.3300 C   0  0  2  0  0  3  0  0  0  0  0  0
  191.9720  173.5730  144.4900 C   0  0  0  0  0  2  0  0  0  0  0  0
  186.0620  178.4690  144.5850 C   0  0  2  0  0  3  0  0  0  0  0  0
  185.5180  178.8190  143.3470 O   0  0  0  0  0  1  0  0  0  0  0  0
  192.1320  174.8240  143.6620 C   0  0  2  0  0  3  0  0  0  0  0  0
  193.5890  177.1660  145.4630 O   0  0  0  0  0  0  0  0  0  0  0  0
  194.5570  176.7760  146.3880 C   0  0  0  0  0  2  0  0  0  0  0  0
  194.9410  175.3320  146.1380 C   0  0  0  0  0  2  0  0  0  0  0  0
  195.7870  175.2640  145.0320 O   0  0  0  0  0  1  0  0  0  0  0  0
  1 18  1  1  0  0  0
  1  5  1  0  0  0  0
  3 16  1  0  0  0  0
  4 21  1  6  0  0  0
  4  1  1  0  0  0  0
  4  5  1  0  0  0  0
  5 10  1  6  0  0  0
  6 23  1  0  0  0  0
  7 27  1  6  0  0  0
  7 10  1  0  0  0  0
  8 21  1  0  0  0  0
  9  8  1  0  0  0  0
 11  4  1  0  0  0  0
 11  7  1  0  0  0  0
 12  2  1  0  0  0  0
 13 22  1  0  0  0  0
 13  8  1  0  0  0  0
 14 22  1  0  0  0  0
 14  6  1  0  0  0  0
 15  2  1  0  0  0  0
 16 24  1  0  0  0  0
 16 18  1  0  0  0  0
 17 12  1  0  0  0  0
 18 15  2  0  0  0  0
 20  9  1  0  0  0  0
 20  3  1  0  0  0  0
 21 19  2  0  0  0  0
 22 26  1  0  0  0  0
 24 17  1  0  0  0  0
 25 24  1  0  0  0  0
 26 11  1  0  0  0  0
 26 23  1  0  0  0  0
 27 28  1  0  0  0  0
 29 28  1  0  0  0  0
 30 29  1  0  0  0  0
M  END
>  <MODEL>
5

>  <REMARK>
 VINA RESULT:      -7.5      1.787      6.358
  Name = 
  3 active torsions:
  status: ('A' for Active; 'I' for Inactive)
    1  A    between atoms: O_6  and  C_8
    2  A    between atoms: O_6  and  C_21
    3  A    between atoms: C_9  and  C_21
                            x       y       z     vdW  Elec       q    Type
                         _______ _______ _______ _____ _____    ______ ____

>  <TORSDO>
F 3

$$$$
=
 OpenBabel11052417233D

 30 35  0  0  1  0  0  0  0  0999 V2000
  190.6780  176.9750  144.9810 C   0  0  2  0  0  3  0  0  0  0  0  0
  187.5640  177.8690  147.1500 C   0  0  0  0  0  2  0  0  0  0  0  0
  188.7090  177.0440  142.7960 C   0  0  0  0  0  2  0  0  0  0  0  0
  191.0850  175.5660  144.5190 C   0  0  2  0  0  0  0  0  0  0  0  0
  191.2770  175.9480  145.9560 C   0  0  1  0  0  3  0  0  0  0  0  0
  192.2860  171.6840  143.3780 C   0  0  0  0  0  2  0  0  0  0  0  0
  193.3750  175.6300  145.1500 C   0  0  1  0  0  3  0  0  0  0  0  0
  189.6840  174.3510  142.8100 N   0  0  0  0  0  0  0  0  0  0  0  0
  188.2980  174.5440  142.4040 C   0  0  0  0  0  2  0  0  0  0  0  0
  192.6350  176.2610  146.1690 O   0  0  0  0  0  0  0  0  0  0  0  0
  192.4750  175.3940  143.9530 C   0  0  1  0  0  3  0  0  0  0  0  0
  186.4910  176.9180  146.6470 C   0  0  0  0  0  2  0  0  0  0  0  0
  190.7230  174.4760  141.7850 C   0  0  0  0  0  2  0  0  0  0  0  0
  191.5680  172.2100  142.2220 N   0  0  0  0  0  2  0  0  0  0  0  0
  188.9130  177.5390  146.5710 C   0  0  0  0  0  3  0  0  0  0  0  0
  188.1250  177.0260  144.2120 C   0  0  1  0  0  3  0  0  0  0  0  0
  185.8930  177.4290  145.3370 C   0  0  0  0  0  2  0  0  0  0  0  0
  189.2020  177.1960  145.2940 C   0  0  0  0  0  0  0  0  0  0  0  0
  189.3400  174.0110  145.0970 O   0  0  0  0  0  0  0  0  0  0  0  0
  188.0570  175.9780  141.9100 C   0  0  0  0  0  2  0  0  0  0  0  0
  190.0010  174.5810  144.1860 C   0  0  0  0  0  0  0  0  0  0  0  0
  191.9540  173.6110  142.0870 C   0  0  2  0  0  3  0  0  0  0  0  0
  192.6280  172.8470  144.2780 C   0  0  0  0  0  2  0  0  0  0  0  0
  186.9320  177.9910  144.3660 C   0  0  2  0  0  3  0  0  0  0  0  0
  186.3030  178.2500  143.1460 O   0  0  0  0  0  1  0  0  0  0  0  0
  192.7670  174.0090  143.3250 C   0  0  2  0  0  3  0  0  0  0  0  0
  194.4510  176.4380  144.7790 O   0  0  0  0  0  0  0  0  0  0  0  0
  195.5760  175.6290  144.9410 C   0  0  0  0  0  2  0  0  0  0  0  0
  196.4890  175.7900  143.7420 C   0  0  0  0  0  2  0  0  0  0  0  0
  196.7360  177.1440  143.5280 O   0  0  0  0  0  1  0  0  0  0  0  0
  1 18  1  1  0  0  0
  1  5  1  0  0  0  0
  3 16  1  0  0  0  0
  4 21  1  6  0  0  0
  4  1  1  0  0  0  0
  4  5  1  0  0  0  0
  5 10  1  6  0  0  0
  6 23  1  0  0  0  0
  7 27  1  6  0  0  0
  7 10  1  0  0  0  0
  8 21  1  0  0  0  0
  9  8  1  0  0  0  0
 11  4  1  0  0  0  0
 11  7  1  0  0  0  0
 12  2  1  0  0  0  0
 13 22  1  0  0  0  0
 13  8  1  0  0  0  0
 14  6  1  0  0  0  0
 15  2  1  0  0  0  0
 16 24  1  0  0  0  0
 16 18  1  0  0  0  0
 17 12  1  0  0  0  0
 18 15  2  0  0  0  0
 20  9  1  0  0  0  0
 20  3  1  0  0  0  0
 21 19  2  0  0  0  0
 22 14  1  0  0  0  0
 22 26  1  0  0  0  0
 24 17  1  0  0  0  0
 25 24  1  0  0  0  0
 26 11  1  0  0  0  0
 26 23  1  0  0  0  0
 27 28  1  0  0  0  0
 29 28  1  0  0  0  0
 30 29  1  0  0  0  0
M  END
>  <MODEL>
6

>  <REMARK>
 VINA RESULT:      -7.3      2.246      6.550
  Name = 
  3 active torsions:
  status: ('A' for Active; 'I' for Inactive)
    1  A    between atoms: O_6  and  C_8
    2  A    between atoms: O_6  and  C_21
    3  A    between atoms: C_9  and  C_21
                            x       y       z     vdW  Elec       q    Type
                         _______ _______ _______ _____ _____    ______ ____

>  <TORSDO>
F 3

$$$$
=
 OpenBabel11052417233D

 30 35  0  0  1  0  0  0  0  0999 V2000
  188.5480  175.2810  143.5320 C   0  0  2  0  0  3  0  0  0  0  0  0
  186.0980  177.8540  141.9260 C   0  0  0  0  0  2  0  0  0  0  0  0
  187.2810  176.1960  146.0250 C   0  0  0  0  0  2  0  0  0  0  0  0
  189.9170  175.6000  144.1550 C   0  0  2  0  0  0  0  0  0  0  0  0
  189.7650  175.6370  142.6630 C   0  0  1  0  0  3  0  0  0  0  0  0
  193.7390  176.4560  145.7260 C   0  0  0  0  0  2  0  0  0  0  0  0
  191.2060  173.9300  143.0630 C   0  0  1  0  0  3  0  0  0  0  0  0
  190.0430  176.9010  146.3120 N   0  0  0  0  0  0  0  0  0  0  0  0
  189.0730  177.7780  146.9520 C   0  0  0  0  0  2  0  0  0  0  0  0
  190.2990  174.4510  142.1200 O   0  0  0  0  0  0  0  0  0  0  0  0
  190.8390  174.4400  144.4420 C   0  0  1  0  0  3  0  0  0  0  0  0
  186.2390  179.0820  142.8080 C   0  0  0  0  0  2  0  0  0  0  0  0
  190.5040  175.7270  147.0580 C   0  0  0  0  0  2  0  0  0  0  0  0
  192.8560  176.4180  146.8860 N   0  0  0  0  0  2  0  0  0  0  0  0
  187.1250  176.8070  142.2650 C   0  0  0  0  0  3  0  0  0  0  0  0
  187.0080  177.0590  144.7890 C   0  0  1  0  0  3  0  0  0  0  0  0
  185.4320  178.9150  144.0950 C   0  0  0  0  0  2  0  0  0  0  0  0
  187.5280  176.4130  143.4960 C   0  0  0  0  0  0  0  0  0  0  0  0
  190.2000  177.9900  144.2500 O   0  0  0  0  0  0  0  0  0  0  0  0
  187.7450  177.0490  147.2090 C   0  0  0  0  0  2  0  0  0  0  0  0
  190.0850  176.9040  144.8810 C   0  0  0  0  0  0  0  0  0  0  0  0
  191.9300  175.3100  146.6750 C   0  0  2  0  0  3  0  0  0  0  0  0
  193.0180  175.8000  144.5740 C   0  0  0  0  0  2  0  0  0  0  0  0
  185.5380  177.5180  144.7080 C   0  0  2  0  0  3  0  0  0  0  0  0
  184.9220  177.5360  145.9610 O   0  0  0  0  0  1  0  0  0  0  0  0
  192.1160  174.7920  145.2440 C   0  0  2  0  0  3  0  0  0  0  0  0
  191.1530  172.5350  143.0460 O   0  0  0  0  0  0  0  0  0  0  0  0
  192.0550  172.1560  142.0510 C   0  0  0  0  0  2  0  0  0  0  0  0
  193.4340  172.6810  142.3950 C   0  0  0  0  0  2  0  0  0  0  0  0
  194.3860  172.0250  141.6180 O   0  0  0  0  0  1  0  0  0  0  0  0
  1 18  1  1  0  0  0
  1  4  1  0  0  0  0
  2 15  1  0  0  0  0
  2 12  1  0  0  0  0
  3 20  1  0  0  0  0
  4 11  1  0  0  0  0
  4 21  1  1  0  0  0
  5 10  1  6  0  0  0
  5  1  1  0  0  0  0
  5  4  1  0  0  0  0
  6 14  1  0  0  0  0
  7 27  1  1  0  0  0
  7 11  1  0  0  0  0
  8  9  1  0  0  0  0
  8 13  1  0  0  0  0
  9 20  1  0  0  0  0
 10  7  1  0  0  0  0
 11 26  1  0  0  0  0
 12 17  1  0  0  0  0
 15 18  2  0  0  0  0
 16  3  1  0  0  0  0
 17 24  1  0  0  0  0
 18 16  1  0  0  0  0
 19 21  2  0  0  0  0
 21  8  1  0  0  0  0
 22 14  1  0  0  0  0
 22 13  1  0  0  0  0
 23 26  1  0  0  0  0
 23  6  1  0  0  0  0
 24 16  1  0  0  0  0
 24 25  1  0  0  0  0
 26 22  1  0  0  0  0
 28 29  1  0  0  0  0
 28 27  1  0  0  0  0
 30 29  1  0  0  0  0
M  END
>  <MODEL>
7

>  <REMARK>
 VINA RESULT:      -7.1      1.958      7.050
  Name = 
  3 active torsions:
  status: ('A' for Active; 'I' for Inactive)
    1  A    between atoms: O_6  and  C_8
    2  A    between atoms: O_6  and  C_21
    3  A    between atoms: C_9  and  C_21
                            x       y       z     vdW  Elec       q    Type
                         _______ _______ _______ _____ _____    ______ ____

>  <TORSDO>
F 3

$$$$
=
 OpenBabel11052417233D

 30 35  0  0  1  0  0  0  0  0999 V2000
  190.8440  175.7230  143.4210 C   0  0  2  0  0  3  0  0  0  0  0  0
  192.9810  172.4650  143.3010 C   0  0  0  0  0  2  0  0  0  0  0  0
  192.5540  176.3130  145.7410 C   0  0  0  0  0  2  0  0  0  0  0  0
  189.6150  175.9680  144.3120 C   0  0  2  0  0  0  0  0  0  0  0  0
  189.4910  175.0520  143.1310 C   0  0  1  0  0  3  0  0  0  0  0  0
  186.1540  176.5830  146.6470 C   0  0  0  0  0  2  0  0  0  0  0  0
  188.1320  176.8060  142.6560 C   0  0  1  0  0  3  0  0  0  0  0  0
  189.8990  176.1930  146.8080 N   0  0  0  0  0  0  0  0  0  0  0  0
  190.9780  175.7620  147.6860 C   0  0  0  0  0  2  0  0  0  0  0  0
  188.8560  175.7430  142.0800 O   0  0  0  0  0  0  0  0  0  0  0  0
  188.7510  177.1640  143.9930 C   0  0  1  0  0  3  0  0  0  0  0  0
  193.0160  172.0050  144.7480 C   0  0  0  0  0  2  0  0  0  0  0  0
  189.5710  177.6210  146.7730 C   0  0  0  0  0  2  0  0  0  0  0  0
  187.2340  177.2020  147.4070 N   0  0  0  0  0  2  0  0  0  0  0  0
  192.0250  173.6090  143.1060 C   0  0  0  0  0  3  0  0  0  0  0  0
  192.6040  174.8690  145.2330 C   0  0  1  0  0  3  0  0  0  0  0  0
  194.0440  172.8090  145.5430 C   0  0  0  0  0  2  0  0  0  0  0  0
  191.8510  174.6860  143.9070 C   0  0  0  0  0  0  0  0  0  0  0  0
  189.3760  174.1280  145.8470 O   0  0  0  0  0  0  0  0  0  0  0  0
  192.3230  176.3650  147.2540 C   0  0  0  0  0  2  0  0  0  0  0  0
  189.5950  175.3590  145.6850 C   0  0  0  0  0  0  0  0  0  0  0  0
  188.0960  177.8770  146.4410 C   0  0  2  0  0  3  0  0  0  0  0  0
  186.6450  176.3660  145.2360 C   0  0  0  0  0  2  0  0  0  0  0  0
  194.0390  174.3030  145.2160 C   0  0  2  0  0  3  0  0  0  0  0  0
  194.8740  174.9580  146.1240 O   0  0  0  0  0  1  0  0  0  0  0  0
  187.6450  177.4770  145.0310 C   0  0  2  0  0  3  0  0  0  0  0  0
  188.1680  177.9140  141.8080 O   0  0  0  0  0  0  0  0  0  0  0  0
  186.8720  178.4300  141.8420 C   0  0  0  0  0  2  0  0  0  0  0  0
  186.0170  177.7110  140.8190 C   0  0  0  0  0  2  0  0  0  0  0  0
  186.7410  177.5530  139.6390 O   0  0  0  0  0  1  0  0  0  0  0  0
  1 18  1  1  0  0  0
  1  4  1  0  0  0  0
  2 12  1  0  0  0  0
  3 20  1  0  0  0  0
  4 21  1  1  0  0  0
  5 10  1  6  0  0  0
  5  1  1  0  0  0  0
  5  4  1  0  0  0  0
  6 14  1  0  0  0  0
  7 27  1  6  0  0  0
  7 11  1  0  0  0  0
  8  9  1  0  0  0  0
 10  7  1  0  0  0  0
 11  4  1  0  0  0  0
 11 26  1  0  0  0  0
 12 17  1  0  0  0  0
 13  8  1  0  0  0  0
 15  2  1  0  0  0  0
 15 18  2  0  0  0  0
 16  3  1  0  0  0  0
 18 16  1  0  0  0  0
 20  9  1  0  0  0  0
 21 19  2  0  0  0  0
 21  8  1  0  0  0  0
 22 13  1  0  0  0  0
 22 14  1  0  0  0  0
 23  6  1  0  0  0  0
 24 16  1  0  0  0  0
 24 17  1  0  0  0  0
 24 25  1  0  0  0  0
 26 23  1  0  0  0  0
 26 22  1  0  0  0  0
 27 28  1  0  0  0  0
 29 28  1  0  0  0  0
 30 29  1  0  0  0  0
M  END
>  <MODEL>
8

>  <REMARK>
 VINA RESULT:      -7.0      2.390      4.211
  Name = 
  3 active torsions:
  status: ('A' for Active; 'I' for Inactive)
    1  A    between atoms: O_6  and  C_8
    2  A    between atoms: O_6  and  C_21
    3  A    between atoms: C_9  and  C_21
                            x       y       z     vdW  Elec       q    Type
                         _______ _______ _______ _____ _____    ______ ____

>  <TORSDO>
F 3

$$$$
=
 OpenBabel11052417233D

 30 35  0  0  1  0  0  0  0  0999 V2000
  188.5850  177.0900  145.2640 C   0  0  2  0  0  3  0  0  0  0  0  0
  185.5730  178.1270  147.5100 C   0  0  0  0  0  2  0  0  0  0  0  0
  187.2130  178.7840  143.2880 C   0  0  0  0  0  2  0  0  0  0  0  0
  188.5930  175.9540  144.2270 C   0  0  2  0  0  0  0  0  0  0  0  0
  188.6140  175.6120  145.6870 C   0  0  1  0  0  3  0  0  0  0  0  0
  188.6620  172.7400  141.4930 C   0  0  0  0  0  2  0  0  0  0  0  0
  190.6080  174.8820  144.8860 C   0  0  1  0  0  3  0  0  0  0  0  0
  187.2340  176.1720  142.1140 N   0  0  0  0  0  0  0  0  0  0  0  0
  186.0950  177.0240  141.7990 C   0  0  0  0  0  2  0  0  0  0  0  0
  189.9310  175.2710  146.0580 O   0  0  0  0  0  0  0  0  0  0  0  0
  189.9330  175.5150  143.6860 C   0  0  1  0  0  3  0  0  0  0  0  0
  184.3690  177.9500  146.6010 C   0  0  0  0  0  2  0  0  0  0  0  0
  188.4370  176.3010  141.2870 C   0  0  0  0  0  2  0  0  0  0  0  0
  188.3930  173.9200  140.6780 N   0  0  0  0  0  2  0  0  0  0  0  0
  186.8260  177.5790  146.8840 C   0  0  0  0  0  3  0  0  0  0  0  0
  186.3910  178.4140  144.5260 C   0  0  1  0  0  3  0  0  0  0  0  0
  184.2380  179.1350  145.6460 C   0  0  0  0  0  2  0  0  0  0  0  0
  187.2310  177.7050  145.5990 C   0  0  0  0  0  0  0  0  0  0  0  0
  186.3590  175.0880  143.9900 O   0  0  0  0  0  0  0  0  0  0  0  0
  186.4360  178.5080  141.9980 C   0  0  0  0  0  2  0  0  0  0  0  0
  187.3340  175.6820  143.4550 C   0  0  0  0  0  0  0  0  0  0  0  0
  189.2340  174.9930  141.2010 C   0  0  2  0  0  3  0  0  0  0  0  0
  189.1810  173.2090  142.8310 C   0  0  0  0  0  2  0  0  0  0  0  0
  185.5720  179.6040  145.0640 C   0  0  2  0  0  3  0  0  0  0  0  0
  185.3130  180.5560  144.0740 O   0  0  0  0  0  1  0  0  0  0  0  0
  189.8740  174.5100  142.5090 C   0  0  2  0  0  3  0  0  0  0  0  0
  191.9400  175.2960  144.9520 O   0  0  0  0  0  0  0  0  0  0  0  0
  192.2000  175.4440  146.3140 C   0  0  0  0  0  2  0  0  0  0  0  0
  193.4390  176.2970  146.5000 C   0  0  0  0  0  2  0  0  0  0  0  0
  193.6680  177.0390  145.3430 O   0  0  0  0  0  1  0  0  0  0  0  0
  1 18  1  1  0  0  0
  1  5  1  0  0  0  0
  3 16  1  0  0  0  0
  4 21  1  6  0  0  0
  4  1  1  0  0  0  0
  4  5  1  0  0  0  0
  5 10  1  6  0  0  0
  6 23  1  0  0  0  0
  7 27  1  1  0  0  0
  7 10  1  0  0  0  0
  8 21  1  0  0  0  0
  9 20  1  0  0  0  0
  9  8  1  0  0  0  0
 11  4  1  0  0  0  0
 11  7  1  0  0  0  0
 12  2  1  0  0  0  0
 13  8  1  0  0  0  0
 14 22  1  0  0  0  0
 14  6  1  0  0  0  0
 15  2  1  0  0  0  0
 16 24  1  0  0  0  0
 16 18  1  0  0  0  0
 17 12  1  0  0  0  0
 18 15  2  0  0  0  0
 20  3  1  0  0  0  0
 21 19  2  0  0  0  0
 22 13  1  0  0  0  0
 22 26  1  0  0  0  0
 24 17  1  0  0  0  0
 25 24  1  0  0  0  0
 26 23  1  0  0  0  0
 26 11  1  0  0  0  0
 27 28  1  0  0  0  0
 28 29  1  0  0  0  0
 30 29  1  0  0  0  0
M  END
>  <MODEL>
9

>  <REMARK>
 VINA RESULT:      -6.9      1.797      6.279
  Name = 
  3 active torsions:
  status: ('A' for Active; 'I' for Inactive)
    1  A    between atoms: O_6  and  C_8
    2  A    between atoms: O_6  and  C_21
    3  A    between atoms: C_9  and  C_21
                            x       y       z     vdW  Elec       q    Type
                         _______ _______ _______ _____ _____    ______ ____

>  <TORSDO>
F 3

$$$$
