=
 OpenBabel11052419073D

 32 35  0  0  1  0  0  0  0  0999 V2000
  192.6140  175.0310  142.4000 O   0  0  0  0  0  0  0  0  0  0  0  0
  190.7770  173.7230  140.8300 O   0  0  0  0  0  0  0  0  0  0  0  0
  190.1050  175.7960  146.3420 C   0  0  1  0  0  3  0  0  0  0  0  0
  193.3830  175.3210  143.5540 C   0  0  0  0  0  2  0  0  0  0  0  0
  189.8900  174.6390  147.0960 O   0  0  0  0  0  1  0  0  0  0  0  0
  190.4850  173.9150  142.0400 C   0  0  0  0  0  0  0  0  0  0  0  0
  191.4600  176.4710  146.7140 C   0  0  2  0  0  3  0  0  0  0  0  0
  192.3780  175.6980  144.6040 C   0  0  2  0  0  3  0  0  0  0  0  0
  192.7000  175.8160  146.0780 C   0  0  0  0  0  2  0  0  0  0  0  0
  189.9860  175.4730  144.8290 C   0  0  0  0  0  2  0  0  0  0  0  0
  191.4380  173.3930  144.9550 C   0  0  0  0  0  1  0  0  0  0  0  0
  191.3830  174.6630  142.8770 N   0  0  0  0  0  0  0  0  0  0  0  0
  191.2530  174.7770  144.3200 C   0  0  2  0  0  0  0  0  0  0  0  0
  191.4810  178.0540  150.2250 C   0  0  0  0  0  1  0  0  0  0  0  0
  191.6300  176.7130  148.1860 C   0  0  0  0  0  3  0  0  0  0  0  0
  191.2910  177.8680  148.7610 C   0  0  0  0  0  3  0  0  0  0  0  0
  189.1900  173.3790  142.5660 C   0  0  0  0  0  2  0  0  0  0  0  0
  188.0120  173.9360  141.7800 C   0  0  0  0  0  2  0  0  0  0  0  0
  187.9290  175.4470  141.9140 C   0  0  0  0  0  2  0  0  0  0  0  0
  187.7090  176.0250  140.6600 O   0  0  0  0  0  0  0  0  0  0  0  0
  188.3400  178.1560  141.5080 C   0  0  0  0  0  1  0  0  0  0  0  0
  187.2240  177.3060  140.9350 C   0  0  2  0  0  3  0  0  0  0  0  0
  186.0910  177.2280  141.9450 C   0  0  0  0  0  2  0  0  0  0  0  0
  186.5710  178.1910  144.5980 C   0  0  2  0  0  3  0  0  0  0  0  0
  185.5610  178.6220  142.2650 C   0  0  2  0  0  3  0  0  0  0  0  0
  185.7190  179.1630  143.7160 C   0  0  1  0  0  0  0  0  0  0  0  0
  186.0640  176.7560  144.8100 C   0  0  0  0  0  1  0  0  0  0  0  0
  184.4000  178.5490  143.1940 C   0  0  0  0  0  2  0  0  0  0  0  0
  185.6830  179.2160  145.2670 C   0  0  1  0  0  3  0  0  0  0  0  0
  184.4140  178.6970  145.9620 C   0  0  0  0  0  2  0  0  0  0  0  0
  184.6800  178.5250  147.4430 C   0  0  0  0  0  2  0  0  0  0  0  0
  185.9230  179.3000  147.8260 C   0  0  0  0  0  1  0  0  0  0  0  0
  1 12  1  0  0  0  0
  1  4  1  0  0  0  0
  2  6  2  0  0  0  0
  3  7  1  0  0  0  0
  3  5  1  1  0  0  0
  6 17  1  0  0  0  0
  6 12  1  0  0  0  0
  7 15  1  1  0  0  0
  8  4  1  6  0  0  0
  8  9  1  0  0  0  0
  9  7  1  0  0  0  0
 10  3  1  0  0  0  0
 12 13  1  0  0  0  0
 13  8  1  0  0  0  0
 13 10  1  0  0  0  0
 13 11  1  1  0  0  0
 15 16  2  0  0  0  0
 16 14  1  0  0  0  0
 18 19  1  0  0  0  0
 18 17  1  0  0  0  0
 20 22  1  0  0  0  0
 20 19  1  0  0  0  0
 22 21  1  1  0  0  0
 22 23  1  0  0  0  0
 24 27  1  1  0  0  0
 24 29  1  0  0  0  0
 25 23  1  1  0  0  0
 25 28  1  0  0  0  0
 25 26  1  0  0  0  0
 26 28  1  1  0  0  0
 26 24  1  0  0  0  0
 26 29  1  0  0  0  0
 29 30  1  1  0  0  0
 30 31  1  0  0  0  0
 31 32  1  0  0  0  0
M  END
>  <MODEL>
1

>  <REMARK>
 VINA RESULT:      -7.3      0.000      0.000
  Name = 
  10 active torsions:
  status: ('A' for Active; 'I' for Inactive)
    1  A    between atoms: C_6  and  C_17
    2  A    between atoms: C_9  and  O_31
    3  A    between atoms: C_9  and  C_32
    4  A    between atoms: C_10  and  C_28
    5  A    between atoms: C_12  and  C_17
    6  A    between atoms: C_12  and  O_31
    7  A    between atoms: C_14  and  C_21
    8  A    between atoms: C_14  and  C_29
    9  A    between atoms: C_15  and  C_19
   10  A    between atoms: C_28  and  C_32
                            x       y       z     vdW  Elec       q    Type
                         _______ _______ _______ _____ _____    ______ ____

>  <TORSDO>
F 10

$$$$
=
 OpenBabel11052419073D

 32 35  0  0  1  0  0  0  0  0999 V2000
  188.1650  174.7030  139.0330 O   0  0  0  0  0  0  0  0  0  0  0  0
  186.9730  176.8630  140.2410 O   0  0  0  0  0  0  0  0  0  0  0  0
  190.8730  173.0390  142.5420 C   0  0  1  0  0  3  0  0  0  0  0  0
  188.5990  173.3640  138.8720 C   0  0  0  0  0  2  0  0  0  0  0  0
  190.1440  172.4060  143.5530 O   0  0  0  0  0  1  0  0  0  0  0  0
  187.6330  176.0740  140.9680 C   0  0  0  0  0  0  0  0  0  0  0  0
  191.2280  172.0470  141.3940 C   0  0  2  0  0  3  0  0  0  0  0  0
  189.5700  173.1350  139.9940 C   0  0  2  0  0  3  0  0  0  0  0  0
  190.0800  171.7710  140.4050 C   0  0  0  0  0  2  0  0  0  0  0  0
  190.1080  174.2940  142.0420 C   0  0  0  0  0  2  0  0  0  0  0  0
  187.8740  173.1010  141.8500 C   0  0  0  0  0  1  0  0  0  0  0  0
  188.3360  174.9750  140.3650 N   0  0  0  0  0  0  0  0  0  0  0  0
  188.9580  173.8950  141.1110 C   0  0  2  0  0  0  0  0  0  0  0  0
  191.9680  168.3910  142.3550 C   0  0  0  0  0  1  0  0  0  0  0  0
  191.8920  170.7860  141.8680 C   0  0  0  0  0  3  0  0  0  0  0  0
  191.2630  169.6100  141.8750 C   0  0  0  0  0  3  0  0  0  0  0  0
  187.6870  176.3220  142.4430 C   0  0  0  0  0  2  0  0  0  0  0  0
  186.3360  176.0520  143.0900 C   0  0  0  0  0  2  0  0  0  0  0  0
  185.6710  177.3460  143.5280 C   0  0  0  0  0  2  0  0  0  0  0  0
  186.3260  177.8640  144.6490 O   0  0  0  0  0  0  0  0  0  0  0  0
  184.9100  177.3820  146.4980 C   0  0  0  0  0  1  0  0  0  0  0  0
  186.0930  176.9330  145.6630 C   0  0  2  0  0  3  0  0  0  0  0  0
  187.3170  176.8190  146.5570 C   0  0  0  0  0  2  0  0  0  0  0  0
  189.3800  174.9500  145.8920 C   0  0  2  0  0  3  0  0  0  0  0  0
  188.5470  177.3900  145.8570 C   0  0  2  0  0  3  0  0  0  0  0  0
  189.7360  176.4350  145.5470 C   0  0  1  0  0  0  0  0  0  0  0  0
  189.0160  174.6000  147.3430 C   0  0  0  0  0  1  0  0  0  0  0  0
  189.7250  177.3850  146.7660 C   0  0  0  0  0  2  0  0  0  0  0  0
  190.8310  175.3530  145.7470 C   0  0  1  0  0  3  0  0  0  0  0  0
  191.6680  175.4270  147.0350 C   0  0  0  0  0  2  0  0  0  0  0  0
  193.0840  175.8450  146.6970 C   0  0  0  0  0  2  0  0  0  0  0  0
  193.4640  175.2920  145.3400 C   0  0  0  0  0  1  0  0  0  0  0  0
  1 12  1  0  0  0  0
  2  6  2  0  0  0  0
  3  5  1  1  0  0  0
  4  1  1  0  0  0  0
  6 17  1  0  0  0  0
  7 15  1  1  0  0  0
  7  3  1  0  0  0  0
  8  4  1  6  0  0  0
  8  9  1  0  0  0  0
  8 13  1  0  0  0  0
  9  7  1  0  0  0  0
 10  3  1  0  0  0  0
 12  6  1  0  0  0  0
 12 13  1  0  0  0  0
 13 11  1  1  0  0  0
 13 10  1  0  0  0  0
 15 16  2  0  0  0  0
 16 14  1  0  0  0  0
 17 18  1  0  0  0  0
 18 19  1  0  0  0  0
 19 20  1  0  0  0  0
 20 22  1  0  0  0  0
 22 21  1  1  0  0  0
 22 23  1  0  0  0  0
 24 27  1  1  0  0  0
 25 23  1  1  0  0  0
 25 28  1  0  0  0  0
 26 29  1  0  0  0  0
 26 25  1  0  0  0  0
 26 24  1  0  0  0  0
 26 28  1  1  0  0  0
 29 24  1  0  0  0  0
 29 30  1  1  0  0  0
 31 30  1  0  0  0  0
 32 31  1  0  0  0  0
M  END
>  <MODEL>
2

>  <REMARK>
 VINA RESULT:      -7.0      2.365      6.226
  Name = 
  10 active torsions:
  status: ('A' for Active; 'I' for Inactive)
    1  A    between atoms: C_6  and  C_17
    2  A    between atoms: C_9  and  O_31
    3  A    between atoms: C_9  and  C_32
    4  A    between atoms: C_10  and  C_28
    5  A    between atoms: C_12  and  C_17
    6  A    between atoms: C_12  and  O_31
    7  A    between atoms: C_14  and  C_21
    8  A    between atoms: C_14  and  C_29
    9  A    between atoms: C_15  and  C_19
   10  A    between atoms: C_28  and  C_32
                            x       y       z     vdW  Elec       q    Type
                         _______ _______ _______ _____ _____    ______ ____

>  <TORSDO>
F 10

$$$$
=
 OpenBabel11052419073D

 32 35  0  0  1  0  0  0  0  0999 V2000
  192.7600  176.8030  143.7870 O   0  0  0  0  0  0  0  0  0  0  0  0
  194.7780  174.9780  144.1710 O   0  0  0  0  0  0  0  0  0  0  0  0
  189.2340  174.8400  146.2620 C   0  0  1  0  0  3  0  0  0  0  0  0
  191.7060  177.6850  144.1320 C   0  0  0  0  0  2  0  0  0  0  0  0
  189.4110  174.9300  147.6460 O   0  0  0  0  0  1  0  0  0  0  0  0
  193.7300  174.8480  144.8570 C   0  0  0  0  0  0  0  0  0  0  0  0
  188.5310  176.1120  145.6980 C   0  0  2  0  0  3  0  0  0  0  0  0
  190.6490  176.8060  144.7360 C   0  0  2  0  0  3  0  0  0  0  0  0
  189.4570  177.3280  145.5100 C   0  0  0  0  0  2  0  0  0  0  0  0
  190.5910  174.5430  145.5720 C   0  0  0  0  0  2  0  0  0  0  0  0
  191.8690  176.3080  146.8780 C   0  0  0  0  0  1  0  0  0  0  0  0
  192.6200  175.7340  144.6330 N   0  0  0  0  0  0  0  0  0  0  0  0
  191.4490  175.8100  145.4890 C   0  0  2  0  0  0  0  0  0  0  0  0
  184.9120  177.1490  146.5140 C   0  0  0  0  0  1  0  0  0  0  0  0
  187.2580  176.4660  146.4110 C   0  0  0  0  0  3  0  0  0  0  0  0
  186.1480  176.8080  145.7570 C   0  0  0  0  0  3  0  0  0  0  0  0
  193.6610  173.7510  145.8720 C   0  0  0  0  0  2  0  0  0  0  0  0
  193.9630  172.4020  145.2370 C   0  0  0  0  0  2  0  0  0  0  0  0
  192.7690  171.8850  144.4530 C   0  0  0  0  0  2  0  0  0  0  0  0
  193.1900  170.9470  143.5060 O   0  0  0  0  0  0  0  0  0  0  0  0
  192.3200  169.2130  142.1290 C   0  0  0  0  0  1  0  0  0  0  0  0
  192.0110  170.4580  142.9360 C   0  0  2  0  0  3  0  0  0  0  0  0
  191.4030  171.5060  142.0190 C   0  0  0  0  0  2  0  0  0  0  0  0
  189.9480  173.6880  140.8720 C   0  0  2  0  0  3  0  0  0  0  0  0
  189.8860  171.3520  141.9600 C   0  0  2  0  0  3  0  0  0  0  0  0
  189.0370  172.5410  141.4240 C   0  0  1  0  0  0  0  0  0  0  0  0
  190.9380  174.3660  141.8310 C   0  0  0  0  0  1  0  0  0  0  0  0
  189.2210  172.2610  142.9330 C   0  0  0  0  0  2  0  0  0  0  0  0
  188.5090  173.9880  141.2300 C   0  0  1  0  0  3  0  0  0  0  0  0
  188.2620  174.8250  142.4950 C   0  0  0  0  0  2  0  0  0  0  0  0
  187.3930  176.0170  142.1550 C   0  0  0  0  0  2  0  0  0  0  0  0
  188.2690  177.2270  141.9080 C   0  0  0  0  0  1  0  0  0  0  0  0
  1  4  1  0  0  0  0
  1 12  1  0  0  0  0
  2  6  2  0  0  0  0
  3  5  1  1  0  0  0
  6 17  1  0  0  0  0
  7  3  1  0  0  0  0
  7 15  1  1  0  0  0
  8  4  1  1  0  0  0
  8 13  1  0  0  0  0
  8  9  1  0  0  0  0
  9  7  1  0  0  0  0
 10  3  1  0  0  0  0
 12  6  1  0  0  0  0
 12 13  1  0  0  0  0
 13 10  1  0  0  0  0
 13 11  1  1  0  0  0
 16 15  2  0  0  0  0
 16 14  1  0  0  0  0
 18 17  1  0  0  0  0
 19 18  1  0  0  0  0
 20 19  1  0  0  0  0
 22 21  1  6  0  0  0
 22 20  1  0  0  0  0
 23 22  1  0  0  0  0
 24 29  1  0  0  0  0
 24 26  1  0  0  0  0
 24 27  1  1  0  0  0
 25 23  1  1  0  0  0
 25 28  1  0  0  0  0
 26 25  1  0  0  0  0
 26 28  1  1  0  0  0
 29 26  1  0  0  0  0
 29 30  1  1  0  0  0
 31 30  1  0  0  0  0
 32 31  1  0  0  0  0
M  END
>  <MODEL>
3

>  <REMARK>
 VINA RESULT:      -7.0      2.299      5.882
  Name = 
  10 active torsions:
  status: ('A' for Active; 'I' for Inactive)
    1  A    between atoms: C_6  and  C_17
    2  A    between atoms: C_9  and  O_31
    3  A    between atoms: C_9  and  C_32
    4  A    between atoms: C_10  and  C_28
    5  A    between atoms: C_12  and  C_17
    6  A    between atoms: C_12  and  O_31
    7  A    between atoms: C_14  and  C_21
    8  A    between atoms: C_14  and  C_29
    9  A    between atoms: C_15  and  C_19
   10  A    between atoms: C_28  and  C_32
                            x       y       z     vdW  Elec       q    Type
                         _______ _______ _______ _____ _____    ______ ____

>  <TORSDO>
F 10

$$$$
=
 OpenBabel11052419073D

 32 35  0  0  1  0  0  0  0  0999 V2000
  192.9820  175.9220  143.6140 O   0  0  0  0  0  0  0  0  0  0  0  0
  193.7870  173.3520  143.0700 O   0  0  0  0  0  0  0  0  0  0  0  0
  188.9800  175.1620  146.0270 C   0  0  1  0  0  3  0  0  0  0  0  0
  192.5310  177.0190  144.3890 C   0  0  0  0  0  2  0  0  0  0  0  0
  189.1950  174.6740  147.3190 O   0  0  0  0  0  1  0  0  0  0  0  0
  192.8280  173.5100  143.8720 C   0  0  0  0  0  0  0  0  0  0  0  0
  189.0190  176.7200  145.9960 C   0  0  2  0  0  3  0  0  0  0  0  0
  191.1820  176.6030  144.8990 C   0  0  2  0  0  3  0  0  0  0  0  0
  190.4340  177.3270  145.9990 C   0  0  0  0  0  2  0  0  0  0  0  0
  189.9850  174.5120  145.0400 C   0  0  0  0  0  2  0  0  0  0  0  0
  192.0020  174.8820  146.5380 C   0  0  0  0  0  1  0  0  0  0  0  0
  192.3260  174.8320  144.1250 N   0  0  0  0  0  0  0  0  0  0  0  0
  191.3690  175.1580  145.1690 C   0  0  2  0  0  0  0  0  0  0  0  0
  185.9380  177.9190  147.9730 C   0  0  0  0  0  1  0  0  0  0  0  0
  188.1150  177.3680  147.0050 C   0  0  0  0  0  3  0  0  0  0  0  0
  186.7880  177.2570  146.9460 C   0  0  0  0  0  3  0  0  0  0  0  0
  192.2210  172.3060  144.5200 C   0  0  0  0  0  2  0  0  0  0  0  0
  191.2470  171.6130  143.5770 C   0  0  0  0  0  2  0  0  0  0  0  0
  191.0690  172.4070  142.2940 C   0  0  0  0  0  2  0  0  0  0  0  0
  189.7580  172.8830  142.2060 O   0  0  0  0  0  0  0  0  0  0  0  0
  191.2100  173.9930  140.6830 C   0  0  0  0  0  1  0  0  0  0  0  0
  189.7840  173.8170  141.1670 C   0  0  2  0  0  3  0  0  0  0  0  0
  189.2580  175.1560  141.6570 C   0  0  0  0  0  2  0  0  0  0  0  0
  187.9960  177.7160  141.4360 C   0  0  2  0  0  3  0  0  0  0  0  0
  187.7320  175.1610  141.6650 C   0  0  2  0  0  3  0  0  0  0  0  0
  186.9920  176.5300  141.6320 C   0  0  1  0  0  0  0  0  0  0  0  0
  189.0930  177.9330  142.4900 C   0  0  0  0  0  1  0  0  0  0  0  0
  187.2090  175.7310  142.9370 C   0  0  0  0  0  2  0  0  0  0  0  0
  186.6130  177.9940  141.9830 C   0  0  1  0  0  3  0  0  0  0  0  0
  186.5110  178.3600  143.4730 C   0  0  0  0  0  2  0  0  0  0  0  0
  185.6050  179.5610  143.6400 C   0  0  0  0  0  2  0  0  0  0  0  0
  184.5850  179.2790  144.7220 C   0  0  0  0  0  1  0  0  0  0  0  0
  1 12  1  0  0  0  0
  1  4  1  0  0  0  0
  2  6  2  0  0  0  0
  3  5  1  1  0  0  0
  6 12  1  0  0  0  0
  6 17  1  0  0  0  0
  7  9  1  0  0  0  0
  7  3  1  0  0  0  0
  7 15  1  1  0  0  0
  8  4  1  1  0  0  0
  8 13  1  0  0  0  0
  8  9  1  0  0  0  0
 10 13  1  0  0  0  0
 10  3  1  0  0  0  0
 12 13  1  0  0  0  0
 13 11  1  1  0  0  0
 16 15  2  0  0  0  0
 16 14  1  0  0  0  0
 18 17  1  0  0  0  0
 19 18  1  0  0  0  0
 20 19  1  0  0  0  0
 22 21  1  1  0  0  0
 22 23  1  0  0  0  0
 22 20  1  0  0  0  0
 24 26  1  0  0  0  0
 24 29  1  0  0  0  0
 24 27  1  1  0  0  0
 25 23  1  1  0  0  0
 25 28  1  0  0  0  0
 26 25  1  0  0  0  0
 26 29  1  0  0  0  0
 26 28  1  1  0  0  0
 29 30  1  1  0  0  0
 30 31  1  0  0  0  0
 31 32  1  0  0  0  0
M  END
>  <MODEL>
4

>  <REMARK>
 VINA RESULT:      -6.9      1.770      3.473
  Name = 
  10 active torsions:
  status: ('A' for Active; 'I' for Inactive)
    1  A    between atoms: C_6  and  C_17
    2  A    between atoms: C_9  and  O_31
    3  A    between atoms: C_9  and  C_32
    4  A    between atoms: C_10  and  C_28
    5  A    between atoms: C_12  and  C_17
    6  A    between atoms: C_12  and  O_31
    7  A    between atoms: C_14  and  C_21
    8  A    between atoms: C_14  and  C_29
    9  A    between atoms: C_15  and  C_19
   10  A    between atoms: C_28  and  C_32
                            x       y       z     vdW  Elec       q    Type
                         _______ _______ _______ _____ _____    ______ ____

>  <TORSDO>
F 10

$$$$
=
 OpenBabel11052419073D

 32 35  0  0  1  0  0  0  0  0999 V2000
  186.1330  179.1770  147.1240 O   0  0  0  0  0  0  0  0  0  0  0  0
  188.4440  178.1350  148.1810 O   0  0  0  0  0  0  0  0  0  0  0  0
  186.4070  177.7060  142.6320 C   0  0  1  0  0  3  0  0  0  0  0  0
  184.9080  179.1960  146.4100 C   0  0  0  0  0  2  0  0  0  0  0  0
  186.1720  176.3360  142.4810 O   0  0  0  0  0  1  0  0  0  0  0  0
  188.1120  177.7700  147.0230 C   0  0  0  0  0  0  0  0  0  0  0  0
  185.0760  178.5160  142.6000 C   0  0  2  0  0  3  0  0  0  0  0  0
  185.2820  178.8710  144.9930 C   0  0  2  0  0  3  0  0  0  0  0  0
  184.2820  178.4990  143.9190 C   0  0  0  0  0  2  0  0  0  0  0  0
  187.2420  177.9630  143.9150 C   0  0  0  0  0  2  0  0  0  0  0  0
  185.8260  176.4460  145.3800 C   0  0  0  0  0  1  0  0  0  0  0  0
  186.9520  178.3490  146.4020 N   0  0  0  0  0  0  0  0  0  0  0  0
  186.3600  177.8680  145.1650 C   0  0  2  0  0  0  0  0  0  0  0  0
  182.0750  177.9110  140.2620 C   0  0  0  0  0  1  0  0  0  0  0  0
  184.2140  178.2160  141.4080 C   0  0  0  0  0  3  0  0  0  0  0  0
  182.8820  178.2150  141.4750 C   0  0  0  0  0  3  0  0  0  0  0  0
  188.9550  176.7580  146.3130 C   0  0  0  0  0  2  0  0  0  0  0  0
  189.0720  175.4780  147.1270 C   0  0  0  0  0  2  0  0  0  0  0  0
  190.5240  175.1570  147.4390 C   0  0  0  0  0  2  0  0  0  0  0  0
  191.3500  176.1800  146.9650 O   0  0  0  0  0  0  0  0  0  0  0  0
  193.6610  176.5740  146.5610 C   0  0  0  0  0  1  0  0  0  0  0  0
  192.5500  175.5460  146.6310 C   0  0  2  0  0  3  0  0  0  0  0  0
  192.4190  174.8620  145.2810 C   0  0  0  0  0  2  0  0  0  0  0  0
  190.0030  174.4770  143.7950 C   0  0  2  0  0  3  0  0  0  0  0  0
  192.1250  175.8870  144.1880 C   0  0  2  0  0  3  0  0  0  0  0  0
  190.8700  175.6800  143.2930 C   0  0  1  0  0  0  0  0  0  0  0  0
  190.6390  173.0800  143.8360 C   0  0  0  0  0  1  0  0  0  0  0  0
  192.2920  175.2850  142.8370 C   0  0  0  0  0  2  0  0  0  0  0  0
  189.8250  174.9830  142.3800 C   0  0  1  0  0  3  0  0  0  0  0  0
  190.3600  174.0930  141.2460 C   0  0  0  0  0  2  0  0  0  0  0  0
  189.2730  173.8760  140.2150 C   0  0  0  0  0  2  0  0  0  0  0  0
  188.1820  173.0070  140.8060 C   0  0  0  0  0  1  0  0  0  0  0  0
  3  5  1  1  0  0  0
  3 10  1  0  0  0  0
  4  1  1  0  0  0  0
  6  2  2  0  0  0  0
  7 15  1  6  0  0  0
  7  3  1  0  0  0  0
  7  9  1  0  0  0  0
  8  9  1  6  0  0  0
  8 13  1  0  0  0  0
  8  4  1  0  0  0  0
 10 13  1  0  0  0  0
 12  6  1  0  0  0  0
 12  1  1  0  0  0  0
 13 11  1  1  0  0  0
 13 12  1  0  0  0  0
 14 16  1  0  0  0  0
 15 16  2  0  0  0  0
 17  6  1  0  0  0  0
 17 18  1  0  0  0  0
 18 19  1  0  0  0  0
 20 19  1  0  0  0  0
 22 21  1  6  0  0  0
 22 20  1  0  0  0  0
 23 22  1  0  0  0  0
 24 27  1  6  0  0  0
 25 23  1  1  0  0  0
 26 28  1  6  0  0  0
 26 24  1  0  0  0  0
 26 25  1  0  0  0  0
 28 25  1  0  0  0  0
 29 30  1  6  0  0  0
 29 26  1  0  0  0  0
 29 24  1  0  0  0  0
 31 32  1  0  0  0  0
 31 30  1  0  0  0  0
M  END
>  <MODEL>
5

>  <REMARK>
 VINA RESULT:      -6.6      2.387      7.884
  Name = 
  10 active torsions:
  status: ('A' for Active; 'I' for Inactive)
    1  A    between atoms: C_6  and  C_17
    2  A    between atoms: C_9  and  O_31
    3  A    between atoms: C_9  and  C_32
    4  A    between atoms: C_10  and  C_28
    5  A    between atoms: C_12  and  C_17
    6  A    between atoms: C_12  and  O_31
    7  A    between atoms: C_14  and  C_21
    8  A    between atoms: C_14  and  C_29
    9  A    between atoms: C_15  and  C_19
   10  A    between atoms: C_28  and  C_32
                            x       y       z     vdW  Elec       q    Type
                         _______ _______ _______ _____ _____    ______ ____

>  <TORSDO>
F 10

$$$$
=
 OpenBabel11052419073D

 32 35  0  0  1  0  0  0  0  0999 V2000
  191.2100  176.0430  146.9000 O   0  0  0  0  0  0  0  0  0  0  0  0
  189.8080  177.8910  145.4290 O   0  0  0  0  0  0  0  0  0  0  0  0
  193.6730  173.8230  143.5210 C   0  0  1  0  0  3  0  0  0  0  0  0
  192.3330  175.3100  147.3600 C   0  0  0  0  0  2  0  0  0  0  0  0
  194.7170  174.5920  142.9990 O   0  0  0  0  0  1  0  0  0  0  0  0
  190.7160  177.2420  144.8450 C   0  0  0  0  0  0  0  0  0  0  0  0
  194.1270  173.0360  144.7870 C   0  0  2  0  0  3  0  0  0  0  0  0
  192.8270  174.5650  146.1540 C   0  0  2  0  0  3  0  0  0  0  0  0
  194.1700  173.8700  146.0810 C   0  0  0  0  0  2  0  0  0  0  0  0
  192.4310  174.7180  143.7770 C   0  0  0  0  0  2  0  0  0  0  0  0
  193.7490  176.5580  144.9300 C   0  0  0  0  0  1  0  0  0  0  0  0
  191.4210  176.2120  145.5570 N   0  0  0  0  0  0  0  0  0  0  0  0
  192.6090  175.5400  145.0590 C   0  0  2  0  0  0  0  0  0  0  0  0
  197.8010  171.9050  144.5400 C   0  0  0  0  0  1  0  0  0  0  0  0
  195.3780  172.2300  144.5820 C   0  0  0  0  0  3  0  0  0  0  0  0
  196.5930  172.7490  144.7560 C   0  0  0  0  0  3  0  0  0  0  0  0
  191.0150  177.5460  143.4110 C   0  0  0  0  0  2  0  0  0  0  0  0
  189.8630  178.3010  142.7630 C   0  0  0  0  0  2  0  0  0  0  0  0
  188.9370  177.3540  142.0180 C   0  0  0  0  0  2  0  0  0  0  0  0
  187.9730  178.0840  141.3160 O   0  0  0  0  0  0  0  0  0  0  0  0
  186.3020  177.5610  139.7070 C   0  0  0  0  0  1  0  0  0  0  0  0
  186.9790  177.1550  141.0000 C   0  0  2  0  0  3  0  0  0  0  0  0
  185.9410  177.1060  142.1090 C   0  0  0  0  0  2  0  0  0  0  0  0
  186.5500  178.2000  144.6840 C   0  0  2  0  0  3  0  0  0  0  0  0
  185.3980  178.5020  142.3970 C   0  0  2  0  0  3  0  0  0  0  0  0
  185.6250  179.1130  143.8110 C   0  0  1  0  0  0  0  0  0  0  0  0
  186.0900  176.7660  144.9900 C   0  0  0  0  0  1  0  0  0  0  0  0
  184.2940  178.4470  143.3940 C   0  0  0  0  0  2  0  0  0  0  0  0
  185.6780  179.2360  145.3570 C   0  0  1  0  0  3  0  0  0  0  0  0
  184.4630  178.7230  146.1480 C   0  0  0  0  0  2  0  0  0  0  0  0
  184.8130  178.6400  147.6180 C   0  0  0  0  0  2  0  0  0  0  0  0
  186.1150  179.3700  147.8710 C   0  0  0  0  0  1  0  0  0  0  0  0
  1  4  1  0  0  0  0
  3  5  1  1  0  0  0
  3 10  1  0  0  0  0
  3  7  1  0  0  0  0
  6  2  2  0  0  0  0
  6 12  1  0  0  0  0
  7 15  1  6  0  0  0
  7  9  1  0  0  0  0
  8  9  1  1  0  0  0
  8  4  1  0  0  0  0
 10 13  1  0  0  0  0
 12  1  1  0  0  0  0
 13 11  1  6  0  0  0
 13 12  1  0  0  0  0
 13  8  1  0  0  0  0
 14 16  1  0  0  0  0
 15 16  2  0  0  0  0
 17  6  1  0  0  0  0
 18 17  1  0  0  0  0
 19 18  1  0  0  0  0
 20 19  1  0  0  0  0
 22 21  1  6  0  0  0
 22 20  1  0  0  0  0
 22 23  1  0  0  0  0
 24 27  1  1  0  0  0
 24 29  1  0  0  0  0
 25 23  1  1  0  0  0
 25 28  1  0  0  0  0
 25 26  1  0  0  0  0
 26 28  1  1  0  0  0
 26 24  1  0  0  0  0
 26 29  1  0  0  0  0
 29 30  1  1  0  0  0
 30 31  1  0  0  0  0
 31 32  1  0  0  0  0
M  END
>  <MODEL>
6

>  <REMARK>
 VINA RESULT:      -6.5      2.117      4.031
  Name = 
  10 active torsions:
  status: ('A' for Active; 'I' for Inactive)
    1  A    between atoms: C_6  and  C_17
    2  A    between atoms: C_9  and  O_31
    3  A    between atoms: C_9  and  C_32
    4  A    between atoms: C_10  and  C_28
    5  A    between atoms: C_12  and  C_17
    6  A    between atoms: C_12  and  O_31
    7  A    between atoms: C_14  and  C_21
    8  A    between atoms: C_14  and  C_29
    9  A    between atoms: C_15  and  C_19
   10  A    between atoms: C_28  and  C_32
                            x       y       z     vdW  Elec       q    Type
                         _______ _______ _______ _____ _____    ______ ____

>  <TORSDO>
F 10

$$$$
=
 OpenBabel11052419073D

 32 35  0  0  1  0  0  0  0  0999 V2000
  191.2720  175.7950  148.1180 O   0  0  0  0  0  0  0  0  0  0  0  0
  188.9070  174.5220  147.5420 O   0  0  0  0  0  0  0  0  0  0  0  0
  193.6940  175.1430  144.1020 C   0  0  1  0  0  3  0  0  0  0  0  0
  192.3700  176.6710  147.9300 C   0  0  0  0  0  2  0  0  0  0  0  0
  193.2270  175.9220  143.0400 O   0  0  0  0  0  1  0  0  0  0  0  0
  189.7260  174.6950  146.6000 C   0  0  0  0  0  0  0  0  0  0  0  0
  194.7390  175.9200  144.9580 C   0  0  2  0  0  3  0  0  0  0  0  0
  193.0710  176.1560  146.7070 C   0  0  2  0  0  3  0  0  0  0  0  0
  194.1330  176.9270  145.9530 C   0  0  0  0  0  2  0  0  0  0  0  0
  192.4980  174.6150  144.9390 C   0  0  0  0  0  2  0  0  0  0  0  0
  191.3220  176.8640  145.0440 C   0  0  0  0  0  1  0  0  0  0  0  0
  191.0060  175.2870  146.8730 N   0  0  0  0  0  0  0  0  0  0  0  0
  191.9440  175.7160  145.8500 C   0  0  2  0  0  0  0  0  0  0  0  0
  197.8620  176.3960  142.7550 C   0  0  0  0  0  1  0  0  0  0  0  0
  195.8600  176.5120  144.1530 C   0  0  0  0  0  3  0  0  0  0  0  0
  196.7720  175.7570  143.5410 C   0  0  0  0  0  3  0  0  0  0  0  0
  189.3480  174.2510  145.2220 C   0  0  0  0  0  2  0  0  0  0  0  0
  189.6900  172.7830  145.0100 C   0  0  0  0  0  2  0  0  0  0  0  0
  189.8680  172.4700  143.5340 C   0  0  0  0  0  2  0  0  0  0  0  0
  188.7690  172.9410  142.8100 O   0  0  0  0  0  0  0  0  0  0  0  0
  190.8310  173.5250  141.7790 C   0  0  0  0  0  1  0  0  0  0  0  0
  189.3210  173.6370  141.7320 C   0  0  2  0  0  3  0  0  0  0  0  0
  188.9290  175.1030  141.8030 C   0  0  0  0  0  2  0  0  0  0  0  0
  187.8600  177.7410  141.4960 C   0  0  2  0  0  3  0  0  0  0  0  0
  187.4200  175.2470  141.9800 C   0  0  2  0  0  3  0  0  0  0  0  0
  186.7950  176.6700  141.9090 C   0  0  1  0  0  0  0  0  0  0  0  0
  189.0880  177.9410  142.3980 C   0  0  0  0  0  1  0  0  0  0  0  0
  187.1000  175.9610  143.2470 C   0  0  0  0  0  2  0  0  0  0  0  0
  186.5790  178.1860  142.1670 C   0  0  1  0  0  3  0  0  0  0  0  0
  186.6840  178.6760  143.6210 C   0  0  0  0  0  2  0  0  0  0  0  0
  185.3580  179.2630  144.0560 C   0  0  0  0  0  2  0  0  0  0  0  0
  185.1860  179.0740  145.5480 C   0  0  0  0  0  1  0  0  0  0  0  0
  3  5  1  6  0  0  0
  3 10  1  0  0  0  0
  3  7  1  0  0  0  0
  4  1  1  0  0  0  0
  6 12  1  0  0  0  0
  6  2  2  0  0  0  0
  7 15  1  6  0  0  0
  7  9  1  0  0  0  0
  8  9  1  6  0  0  0
  8  4  1  0  0  0  0
 10 13  1  0  0  0  0
 12  1  1  0  0  0  0
 13 11  1  6  0  0  0
 13  8  1  0  0  0  0
 13 12  1  0  0  0  0
 14 16  1  0  0  0  0
 16 15  2  0  0  0  0
 17  6  1  0  0  0  0
 18 17  1  0  0  0  0
 19 18  1  0  0  0  0
 20 19  1  0  0  0  0
 22 21  1  1  0  0  0
 22 23  1  0  0  0  0
 22 20  1  0  0  0  0
 24 26  1  0  0  0  0
 24 29  1  0  0  0  0
 24 27  1  1  0  0  0
 25 23  1  1  0  0  0
 25 28  1  0  0  0  0
 26 25  1  0  0  0  0
 26 29  1  0  0  0  0
 26 28  1  1  0  0  0
 29 30  1  1  0  0  0
 30 31  1  0  0  0  0
 31 32  1  0  0  0  0
M  END
>  <MODEL>
7

>  <REMARK>
 VINA RESULT:      -6.5      1.831      4.515
  Name = 
  10 active torsions:
  status: ('A' for Active; 'I' for Inactive)
    1  A    between atoms: C_6  and  C_17
    2  A    between atoms: C_9  and  O_31
    3  A    between atoms: C_9  and  C_32
    4  A    between atoms: C_10  and  C_28
    5  A    between atoms: C_12  and  C_17
    6  A    between atoms: C_12  and  O_31
    7  A    between atoms: C_14  and  C_21
    8  A    between atoms: C_14  and  C_29
    9  A    between atoms: C_15  and  C_19
   10  A    between atoms: C_28  and  C_32
                            x       y       z     vdW  Elec       q    Type
                         _______ _______ _______ _____ _____    ______ ____

>  <TORSDO>
F 10

$$$$
=
 OpenBabel11052419073D

 32 35  0  0  1  0  0  0  0  0999 V2000
  189.8280  177.2000  147.0330 O   0  0  0  0  0  0  0  0  0  0  0  0
  192.4250  176.3490  146.7470 O   0  0  0  0  0  0  0  0  0  0  0  0
  188.5050  177.7140  142.5160 C   0  0  1  0  0  3  0  0  0  0  0  0
  188.4280  177.2360  146.8180 C   0  0  0  0  0  2  0  0  0  0  0  0
  188.3120  176.4990  141.8530 O   0  0  0  0  0  1  0  0  0  0  0  0
  191.7080  176.4070  145.7120 C   0  0  0  0  0  0  0  0  0  0  0  0
  187.2120  178.1650  143.2590 C   0  0  2  0  0  3  0  0  0  0  0  0
  188.2690  177.5830  145.3660 C   0  0  2  0  0  3  0  0  0  0  0  0
  186.9650  177.4600  144.6060 C   0  0  0  0  0  2  0  0  0  0  0  0
  189.7390  177.6180  143.4520 C   0  0  0  0  0  2  0  0  0  0  0  0
  189.0590  175.3810  144.4460 C   0  0  0  0  0  1  0  0  0  0  0  0
  190.3690  176.9210  145.8050 N   0  0  0  0  0  0  0  0  0  0  0  0
  189.3910  176.8510  144.7330 C   0  0  2  0  0  0  0  0  0  0  0  0
  183.5790  178.2890  141.9840 C   0  0  0  0  0  1  0  0  0  0  0  0
  185.9880  178.1810  142.3880 C   0  0  0  0  0  3  0  0  0  0  0  0
  184.7580  178.2770  142.8930 C   0  0  0  0  0  3  0  0  0  0  0  0
  192.2870  175.9640  144.4060 C   0  0  0  0  0  2  0  0  0  0  0  0
  193.7830  176.2370  144.3510 C   0  0  0  0  0  2  0  0  0  0  0  0
  194.3160  176.0890  142.9360 C   0  0  0  0  0  2  0  0  0  0  0  0
  195.3610  175.1600  142.9150 O   0  0  0  0  0  0  0  0  0  0  0  0
  197.1780  176.6780  143.1370 C   0  0  0  0  0  1  0  0  0  0  0  0
  196.2990  175.6540  143.8250 C   0  0  2  0  0  3  0  0  0  0  0  0
  197.1680  174.5200  144.3430 C   0  0  0  0  0  2  0  0  0  0  0  0
  197.5290  171.7610  145.0130 C   0  0  2  0  0  3  0  0  0  0  0  0
  196.7230  174.0990  145.7410 C   0  0  2  0  0  3  0  0  0  0  0  0
  196.8170  172.5950  146.1300 C   0  0  1  0  0  0  0  0  0  0  0  0
  196.9010  171.7230  143.6110 C   0  0  0  0  0  1  0  0  0  0  0  0
  195.4970  173.2580  145.6760 C   0  0  0  0  0  2  0  0  0  0  0  0
  196.6760  171.0520  146.0410 C   0  0  1  0  0  3  0  0  0  0  0  0
  195.3250  170.4930  145.5640 C   0  0  0  0  0  2  0  0  0  0  0  0
  195.1410  169.0870  146.0940 C   0  0  0  0  0  2  0  0  0  0  0  0
  195.9800  168.9030  147.3400 C   0  0  0  0  0  1  0  0  0  0  0  0
  3  5  1  1  0  0  0
  3  7  1  0  0  0  0
  3 10  1  0  0  0  0
  4  1  1  0  0  0  0
  6 12  1  0  0  0  0
  6  2  2  0  0  0  0
  7 15  1  6  0  0  0
  7  9  1  0  0  0  0
  8  9  1  6  0  0  0
  8  4  1  0  0  0  0
 10 13  1  0  0  0  0
 12  1  1  0  0  0  0
 13 11  1  6  0  0  0
 13  8  1  0  0  0  0
 13 12  1  0  0  0  0
 14 16  1  0  0  0  0
 15 16  2  0  0  0  0
 17  6  1  0  0  0  0
 18 17  1  0  0  0  0
 19 18  1  0  0  0  0
 20 19  1  0  0  0  0
 20 22  1  0  0  0  0
 22 21  1  6  0  0  0
 22 23  1  0  0  0  0
 24 27  1  6  0  0  0
 24 29  1  0  0  0  0
 24 26  1  0  0  0  0
 25 23  1  6  0  0  0
 25 26  1  0  0  0  0
 26 28  1  6  0  0  0
 28 25  1  0  0  0  0
 29 30  1  6  0  0  0
 29 26  1  0  0  0  0
 30 31  1  0  0  0  0
 31 32  1  0  0  0  0
M  END
>  <MODEL>
8

>  <REMARK>
 VINA RESULT:      -6.5      3.368      9.116
  Name = 
  10 active torsions:
  status: ('A' for Active; 'I' for Inactive)
    1  A    between atoms: C_6  and  C_17
    2  A    between atoms: C_9  and  O_31
    3  A    between atoms: C_9  and  C_32
    4  A    between atoms: C_10  and  C_28
    5  A    between atoms: C_12  and  C_17
    6  A    between atoms: C_12  and  O_31
    7  A    between atoms: C_14  and  C_21
    8  A    between atoms: C_14  and  C_29
    9  A    between atoms: C_15  and  C_19
   10  A    between atoms: C_28  and  C_32
                            x       y       z     vdW  Elec       q    Type
                         _______ _______ _______ _____ _____    ______ ____

>  <TORSDO>
F 10

$$$$
=
 OpenBabel11052419073D

 32 35  0  0  1  0  0  0  0  0999 V2000
  188.3500  177.5410  147.3880 O   0  0  0  0  0  0  0  0  0  0  0  0
  190.9260  176.8160  148.0110 O   0  0  0  0  0  0  0  0  0  0  0  0
  188.5910  177.9160  142.6750 C   0  0  1  0  0  3  0  0  0  0  0  0
  187.1020  177.5030  146.7190 C   0  0  0  0  0  2  0  0  0  0  0  0
  188.6820  176.6820  142.0250 O   0  0  0  0  0  1  0  0  0  0  0  0
  190.5950  176.8220  146.7950 C   0  0  0  0  0  0  0  0  0  0  0  0
  187.1060  178.3140  142.9300 C   0  0  2  0  0  3  0  0  0  0  0  0
  187.4220  177.8190  145.2870 C   0  0  2  0  0  3  0  0  0  0  0  0
  186.4540  177.6180  144.1400 C   0  0  0  0  0  2  0  0  0  0  0  0
  189.4440  177.8960  143.9710 C   0  0  0  0  0  2  0  0  0  0  0  0
  188.5660  175.6450  144.7530 C   0  0  0  0  0  1  0  0  0  0  0  0
  189.2810  177.2690  146.4210 N   0  0  0  0  0  0  0  0  0  0  0  0
  188.7210  177.1340  145.0870 C   0  0  2  0  0  0  0  0  0  0  0  0
  184.1100  178.2910  140.5110 C   0  0  0  0  0  1  0  0  0  0  0  0
  186.2450  178.2550  141.7020 C   0  0  0  0  0  3  0  0  0  0  0  0
  184.9160  178.3550  141.7600 C   0  0  0  0  0  3  0  0  0  0  0  0
  191.5940  176.3870  145.7700 C   0  0  0  0  0  2  0  0  0  0  0  0
  192.5350  175.3350  146.3400 C   0  0  0  0  0  2  0  0  0  0  0  0
  193.9860  175.6790  146.0440 C   0  0  0  0  0  2  0  0  0  0  0  0
  194.6680  174.5380  145.6120 O   0  0  0  0  0  0  0  0  0  0  0  0
  195.1890  176.4160  144.2500 C   0  0  0  0  0  1  0  0  0  0  0  0
  195.2640  174.9110  144.4050 C   0  0  2  0  0  3  0  0  0  0  0  0
  194.5380  174.2560  143.2420 C   0  0  0  0  0  2  0  0  0  0  0  0
  191.7810  173.4850  143.2870 C   0  0  2  0  0  3  0  0  0  0  0  0
  193.5510  175.2320  142.6080 C   0  0  2  0  0  3  0  0  0  0  0  0
  192.0500  174.8270  142.5280 C   0  0  1  0  0  0  0  0  0  0  0  0
  192.5130  172.2170  142.8200 C   0  0  0  0  0  1  0  0  0  0  0  0
  193.0160  174.6910  141.3290 C   0  0  0  0  0  2  0  0  0  0  0  0
  190.7790  173.9760  142.2650 C   0  0  1  0  0  3  0  0  0  0  0  0
  190.7050  173.2110  140.9340 C   0  0  0  0  0  2  0  0  0  0  0  0
  189.3050  172.6710  140.7360 C   0  0  0  0  0  2  0  0  0  0  0  0
  188.4190  173.1320  141.8740 C   0  0  0  0  0  1  0  0  0  0  0  0
  3  5  1  1  0  0  0
  3  7  1  0  0  0  0
  3 10  1  0  0  0  0
  4  1  1  0  0  0  0
  6  2  2  0  0  0  0
  7 15  1  6  0  0  0
  7  9  1  0  0  0  0
  8  9  1  6  0  0  0
  8  4  1  0  0  0  0
 10 13  1  0  0  0  0
 12  6  1  0  0  0  0
 12  1  1  0  0  0  0
 13 11  1  6  0  0  0
 13  8  1  0  0  0  0
 13 12  1  0  0  0  0
 14 16  1  0  0  0  0
 15 16  2  0  0  0  0
 17 18  1  0  0  0  0
 17  6  1  0  0  0  0
 19 18  1  0  0  0  0
 20 19  1  0  0  0  0
 22 21  1  6  0  0  0
 22 20  1  0  0  0  0
 23 22  1  0  0  0  0
 24 27  1  6  0  0  0
 25 23  1  1  0  0  0
 26 28  1  6  0  0  0
 26 25  1  0  0  0  0
 26 24  1  0  0  0  0
 28 25  1  0  0  0  0
 29 30  1  6  0  0  0
 29 26  1  0  0  0  0
 29 24  1  0  0  0  0
 31 30  1  0  0  0  0
 31 32  1  0  0  0  0
M  END
>  <MODEL>
9

>  <REMARK>
 VINA RESULT:      -6.5      2.142      7.563
  Name = 
  10 active torsions:
  status: ('A' for Active; 'I' for Inactive)
    1  A    between atoms: C_6  and  C_17
    2  A    between atoms: C_9  and  O_31
    3  A    between atoms: C_9  and  C_32
    4  A    between atoms: C_10  and  C_28
    5  A    between atoms: C_12  and  C_17
    6  A    between atoms: C_12  and  O_31
    7  A    between atoms: C_14  and  C_21
    8  A    between atoms: C_14  and  C_29
    9  A    between atoms: C_15  and  C_19
   10  A    between atoms: C_28  and  C_32
                            x       y       z     vdW  Elec       q    Type
                         _______ _______ _______ _____ _____    ______ ____

>  <TORSDO>
F 10

$$$$
