=
 OpenBabel11052418563D

 34 39  0  0  1  0  0  0  0  0999 V2000
  185.4030  177.5450  143.4110 C   0  0  0  0  0  0  0  0  0  0  0  0
  185.6770  178.4690  145.7170 C   0  0  2  0  0  3  0  0  0  0  0  0
  187.4330  177.0420  144.8000 C   0  0  2  0  0  3  0  0  0  0  0  0
  189.2480  176.0610  146.1990 C   0  0  1  0  0  3  0  0  0  0  0  0
  183.7530  179.0850  144.3130 C   0  0  0  0  0  3  0  0  0  0  0  0
  184.3330  178.9290  145.5850 O   0  0  0  0  0  0  0  0  0  0  0  0
  187.4890  177.5860  147.2310 C   0  0  0  0  0  2  0  0  0  0  0  0
  185.9310  177.2880  144.7920 C   0  0  2  0  0  3  0  0  0  0  0  0
  184.2620  178.4600  143.2430 C   0  0  0  0  0  3  0  0  0  0  0  0
  187.9650  176.2740  143.5630 C   0  0  1  0  0  3  0  0  0  0  0  0
  185.8550  176.8520  142.4090 N   0  0  0  0  0  0  0  0  0  0  0  0
  186.0210  178.0550  147.1510 C   0  0  0  0  0  2  0  0  0  0  0  0
  189.3900  174.8670  145.2680 C   0  0  0  0  0  2  0  0  0  0  0  0
  189.0310  175.1930  143.8110 C   0  0  2  0  0  3  0  0  0  0  0  0
  187.7920  176.4950  146.1820 C   0  0  1  0  0  3  0  0  0  0  0  0
  186.8670  175.8080  142.5990 C   0  0  0  0  0  2  0  0  0  0  0  0
  190.8650  174.2900  142.2850 C   0  0  0  0  0  0  0  0  0  0  0  0
  191.6870  174.5240  141.3580 O   0  0  0  0  0  0  0  0  0  0  0  0
  190.2230  175.3840  142.9770 N   0  0  0  0  0  0  0  0  0  0  0  0
  190.6040  172.8680  142.6510 C   0  0  0  0  0  1  0  0  0  0  0  0
  190.6140  176.7600  142.6600 C   0  0  0  0  0  3  0  0  0  0  0  0
  192.1240  176.9090  142.7590 C   0  0  0  0  0  2  0  0  0  0  0  0
  191.2470  177.4340  143.8700 C   0  0  0  0  0  2  0  0  0  0  0  0
  189.6370  175.6840  147.4890 O   0  0  0  0  0  0  0  0  0  0  0  0
  190.8600  176.3250  147.6990 C   0  0  0  0  0  2  0  0  0  0  0  0
  192.0000  175.3590  147.4360 C   0  0  0  0  0  2  0  0  0  0  0  0
  193.1310  176.0880  146.7370 C   0  0  0  0  0  2  0  0  0  0  0  0
  195.3900  176.6260  144.5640 C   0  0  0  0  0  1  0  0  0  0  0  0
  193.5620  175.3200  145.5810 N   0  0  0  0  0  0  0  0  0  0  0  0
  195.0280  175.4690  145.4850 C   0  0  1  0  0  3  0  0  0  0  0  0
  194.9620  173.6270  144.0940 C   0  0  0  0  0  2  0  0  0  0  0  0
  193.6850  173.0410  144.6920 C   0  0  0  0  0  2  0  0  0  0  0  0
  193.2150  173.9230  145.8460 C   0  0  0  0  0  2  0  0  0  0  0  0
  195.7080  174.2820  145.0940 O   0  0  0  0  0  0  0  0  0  0  0  0
  1  8  1  0  0  0  0
  2 12  1  1  0  0  0
  3 15  1  0  0  0  0
  4 24  1  0  0  0  0
  5  6  1  0  0  0  0
  6  2  1  0  0  0  0
  8  3  1  0  0  0  0
  8  2  1  0  0  0  0
  9  1  1  0  0  0  0
  9  5  2  0  0  0  0
 10 14  1  0  0  0  0
 10  3  1  0  0  0  0
 11 16  1  0  0  0  0
 11  1  2  0  0  0  0
 12  7  1  0  0  0  0
 13  4  1  0  0  0  0
 14 13  1  0  0  0  0
 15  4  1  0  0  0  0
 15  7  1  0  0  0  0
 16 10  1  0  0  0  0
 17 20  1  0  0  0  0
 17 19  1  0  0  0  0
 18 17  2  0  0  0  0
 19 14  1  0  0  0  0
 21 22  1  0  0  0  0
 21 19  1  0  0  0  0
 21 23  1  0  0  0  0
 22 23  1  0  0  0  0
 24 25  1  0  0  0  0
 26 25  1  0  0  0  0
 27 26  1  0  0  0  0
 28 30  1  0  0  0  0
 29 33  1  0  0  0  0
 29 27  1  0  0  0  0
 30 29  1  0  0  0  0
 31 32  1  0  0  0  0
 31 34  1  0  0  0  0
 32 33  1  0  0  0  0
 34 30  1  0  0  0  0
M  END
>  <MODEL>
1

>  <REMARK>
 VINA RESULT:      -7.7      0.000      0.000
  Name = 
  7 active torsions:
  status: ('A' for Active; 'I' for Inactive)
    1  A    between atoms: C_3  and  N_13
    2  A    between atoms: C_3  and  C_17
    3  A    between atoms: C_5  and  O_18
    4  A    between atoms: C_12  and  N_23
    5  A    between atoms: C_17  and  C_29
    6  A    between atoms: O_18  and  C_29
    7  A    between atoms: N_23  and  C_28
                            x       y       z     vdW  Elec       q    Type
                         _______ _______ _______ _____ _____    ______ ____

>  <TORSDO>
F 7

$$$$
=
 OpenBabel11052418563D

 34 39  0  0  1  0  0  0  0  0999 V2000
  188.4150  174.9660  141.0800 C   0  0  0  0  0  0  0  0  0  0  0  0
  189.5650  173.2460  142.4800 C   0  0  2  0  0  3  0  0  0  0  0  0
  188.4600  175.1210  143.5840 C   0  0  2  0  0  3  0  0  0  0  0  0
  188.8210  175.6810  145.9870 C   0  0  1  0  0  3  0  0  0  0  0  0
  189.4040  173.0070  140.0370 C   0  0  0  0  0  3  0  0  0  0  0  0
  190.0540  172.7150  141.2500 O   0  0  0  0  0  0  0  0  0  0  0  0
  189.9730  173.6700  144.9320 C   0  0  0  0  0  2  0  0  0  0  0  0
  189.2130  174.7180  142.3260 C   0  0  2  0  0  3  0  0  0  0  0  0
  188.5850  174.0610  139.9310 C   0  0  0  0  0  3  0  0  0  0  0  0
  187.5630  176.3760  143.4220 C   0  0  1  0  0  3  0  0  0  0  0  0
  187.7040  176.0490  140.9740 N   0  0  0  0  0  0  0  0  0  0  0  0
  190.5680  173.0960  143.6290 C   0  0  0  0  0  2  0  0  0  0  0  0
  188.5350  177.1550  145.7390 C   0  0  0  0  0  2  0  0  0  0  0  0
  187.5580  177.3910  144.5790 C   0  0  2  0  0  3  0  0  0  0  0  0
  189.4690  175.1160  144.7340 C   0  0  1  0  0  3  0  0  0  0  0  0
  187.6740  177.0480  142.0490 C   0  0  0  0  0  2  0  0  0  0  0  0
  185.3760  178.7050  144.4290 C   0  0  0  0  0  0  0  0  0  0  0  0
  184.1360  178.7340  144.6550 O   0  0  0  0  0  0  0  0  0  0  0  0
  186.2020  177.6930  145.0490 N   0  0  0  0  0  0  0  0  0  0  0  0
  185.9530  179.7480  143.5330 C   0  0  0  0  0  1  0  0  0  0  0  0
  185.6000  176.7730  146.0180 C   0  0  0  0  0  3  0  0  0  0  0  0
  184.5520  177.5000  146.8450 C   0  0  0  0  0  2  0  0  0  0  0  0
  185.9080  177.2130  147.4430 C   0  0  0  0  0  2  0  0  0  0  0  0
  189.6800  175.5610  147.0850 O   0  0  0  0  0  0  0  0  0  0  0  0
  190.4660  176.7150  147.0550 C   0  0  0  0  0  2  0  0  0  0  0  0
  191.9360  176.3380  147.0660 C   0  0  0  0  0  2  0  0  0  0  0  0
  192.5790  176.7710  145.7630 C   0  0  0  0  0  2  0  0  0  0  0  0
  193.1480  175.5860  142.8670 C   0  0  0  0  0  1  0  0  0  0  0  0
  193.4900  175.7370  145.3050 N   0  0  0  0  0  0  0  0  0  0  0  0
  194.0020  176.1640  143.9860 C   0  0  1  0  0  3  0  0  0  0  0  0
  195.6680  174.5970  144.3050 C   0  0  0  0  0  2  0  0  0  0  0  0
  195.6170  174.6410  145.8300 C   0  0  0  0  0  2  0  0  0  0  0  0
  194.5870  175.6760  146.2730 C   0  0  0  0  0  2  0  0  0  0  0  0
  195.3780  175.8690  143.7730 O   0  0  0  0  0  0  0  0  0  0  0  0
  1  8  1  0  0  0  0
  2 12  1  1  0  0  0
  3 15  1  0  0  0  0
  4 24  1  0  0  0  0
  5  6  1  0  0  0  0
  6  2  1  0  0  0  0
  8  2  1  0  0  0  0
  8  3  1  0  0  0  0
  9  5  2  0  0  0  0
  9  1  1  0  0  0  0
 10  3  1  0  0  0  0
 10 14  1  0  0  0  0
 11  1  2  0  0  0  0
 11 16  1  0  0  0  0
 12  7  1  0  0  0  0
 13  4  1  0  0  0  0
 14 19  1  0  0  0  0
 14 13  1  0  0  0  0
 15  7  1  0  0  0  0
 15  4  1  0  0  0  0
 16 10  1  0  0  0  0
 17 18  2  0  0  0  0
 17 19  1  0  0  0  0
 19 21  1  0  0  0  0
 20 17  1  0  0  0  0
 21 22  1  0  0  0  0
 21 23  1  0  0  0  0
 22 23  1  0  0  0  0
 25 26  1  0  0  0  0
 25 24  1  0  0  0  0
 27 26  1  0  0  0  0
 28 30  1  0  0  0  0
 29 27  1  0  0  0  0
 29 33  1  0  0  0  0
 30 29  1  0  0  0  0
 31 32  1  0  0  0  0
 32 33  1  0  0  0  0
 34 30  1  0  0  0  0
 34 31  1  0  0  0  0
M  END
>  <MODEL>
2

>  <REMARK>
 VINA RESULT:      -7.4      1.594      5.050
  Name = 
  7 active torsions:
  status: ('A' for Active; 'I' for Inactive)
    1  A    between atoms: C_3  and  N_13
    2  A    between atoms: C_3  and  C_17
    3  A    between atoms: C_5  and  O_18
    4  A    between atoms: C_12  and  N_23
    5  A    between atoms: C_17  and  C_29
    6  A    between atoms: O_18  and  C_29
    7  A    between atoms: N_23  and  C_28
                            x       y       z     vdW  Elec       q    Type
                         _______ _______ _______ _____ _____    ______ ____

>  <TORSDO>
F 7

$$$$
=
 OpenBabel11052418563D

 34 39  0  0  1  0  0  0  0  0999 V2000
  185.4660  178.4030  145.9500 C   0  0  0  0  0  0  0  0  0  0  0  0
  185.5540  178.3720  143.4530 C   0  0  2  0  0  3  0  0  0  0  0  0
  187.5120  177.6370  144.7130 C   0  0  2  0  0  3  0  0  0  0  0  0
  189.7530  177.3190  143.6680 C   0  0  1  0  0  3  0  0  0  0  0  0
  183.4960  178.9870  144.6520 C   0  0  0  0  0  3  0  0  0  0  0  0
  184.3000  179.0490  143.5000 O   0  0  0  0  0  0  0  0  0  0  0  0
  187.7520  178.0330  142.2650 C   0  0  0  0  0  2  0  0  0  0  0  0
  186.3320  178.5990  144.7410 C   0  0  2  0  0  3  0  0  0  0  0  0
  184.0190  178.6480  145.8380 C   0  0  0  0  0  3  0  0  0  0  0  0
  188.1100  177.3150  146.1070 C   0  0  1  0  0  3  0  0  0  0  0  0
  186.0140  178.1690  147.1050 N   0  0  0  0  0  0  0  0  0  0  0  0
  186.4210  178.8140  142.2690 C   0  0  0  0  0  2  0  0  0  0  0  0
  190.4640  177.6350  144.9760 C   0  0  0  0  0  2  0  0  0  0  0  0
  189.6440  177.2490  146.2150 C   0  0  2  0  0  3  0  0  0  0  0  0
  188.4700  178.1310  143.6280 C   0  0  1  0  0  3  0  0  0  0  0  0
  187.4720  178.1030  147.2560 C   0  0  0  0  0  2  0  0  0  0  0  0
  191.0830  175.9590  147.8810 C   0  0  0  0  0  0  0  0  0  0  0  0
  191.2350  174.9120  148.5660 O   0  0  0  0  0  0  0  0  0  0  0  0
  190.1060  175.9930  146.8160 N   0  0  0  0  0  0  0  0  0  0  0  0
  191.9510  177.1330  148.1870 C   0  0  0  0  0  1  0  0  0  0  0  0
  189.3720  174.7700  146.4780 C   0  0  0  0  0  3  0  0  0  0  0  0
  190.3360  173.7070  145.9750 C   0  0  0  0  0  2  0  0  0  0  0  0
  189.4830  174.4680  144.9890 C   0  0  0  0  0  2  0  0  0  0  0  0
  190.5890  177.6600  142.5990 O   0  0  0  0  0  0  0  0  0  0  0  0
  191.8340  177.1210  142.9300 C   0  0  0  0  0  2  0  0  0  0  0  0
  191.9300  175.6950  142.4210 C   0  0  0  0  0  2  0  0  0  0  0  0
  193.1350  175.0160  143.0400 C   0  0  0  0  0  2  0  0  0  0  0  0
  194.5660  176.5670  145.4200 C   0  0  0  0  0  1  0  0  0  0  0  0
  194.2570  175.9400  143.0550 N   0  0  0  0  0  0  0  0  0  0  0  0
  195.0280  175.6650  144.2850 C   0  0  1  0  0  3  0  0  0  0  0  0
  196.7440  176.8400  143.2800 C   0  0  0  0  0  2  0  0  0  0  0  0
  196.3020  176.5410  141.8480 C   0  0  0  0  0  2  0  0  0  0  0  0
  195.0710  175.6410  141.8750 C   0  0  0  0  0  2  0  0  0  0  0  0
  196.4390  175.7480  144.1170 O   0  0  0  0  0  0  0  0  0  0  0  0
  1 11  2  0  0  0  0
  2 12  1  6  0  0  0
  2  6  1  0  0  0  0
  2  8  1  0  0  0  0
  3  8  1  0  0  0  0
  3 10  1  0  0  0  0
  4 13  1  0  0  0  0
  5  9  2  0  0  0  0
  6  5  1  0  0  0  0
  7 12  1  0  0  0  0
  7 15  1  0  0  0  0
  8  1  1  0  0  0  0
  9  1  1  0  0  0  0
 10 14  1  0  0  0  0
 10 16  1  0  0  0  0
 11 16  1  0  0  0  0
 13 14  1  0  0  0  0
 14 19  1  0  0  0  0
 15  4  1  0  0  0  0
 15  3  1  0  0  0  0
 17 20  1  0  0  0  0
 17 18  2  0  0  0  0
 19 17  1  0  0  0  0
 21 19  1  0  0  0  0
 22 21  1  0  0  0  0
 23 22  1  0  0  0  0
 23 21  1  0  0  0  0
 24 25  1  0  0  0  0
 24  4  1  0  0  0  0
 26 25  1  0  0  0  0
 26 27  1  0  0  0  0
 27 29  1  0  0  0  0
 29 30  1  0  0  0  0
 30 28  1  0  0  0  0
 31 34  1  0  0  0  0
 32 33  1  0  0  0  0
 32 31  1  0  0  0  0
 33 29  1  0  0  0  0
 34 30  1  0  0  0  0
M  END
>  <MODEL>
3

>  <REMARK>
 VINA RESULT:      -7.4      1.996      4.026
  Name = 
  7 active torsions:
  status: ('A' for Active; 'I' for Inactive)
    1  A    between atoms: C_3  and  N_13
    2  A    between atoms: C_3  and  C_17
    3  A    between atoms: C_5  and  O_18
    4  A    between atoms: C_12  and  N_23
    5  A    between atoms: C_17  and  C_29
    6  A    between atoms: O_18  and  C_29
    7  A    between atoms: N_23  and  C_28
                            x       y       z     vdW  Elec       q    Type
                         _______ _______ _______ _____ _____    ______ ____

>  <TORSDO>
F 7

$$$$
=
 OpenBabel11052418563D

 34 39  0  0  1  0  0  0  0  0999 V2000
  195.1140  174.6100  142.5240 C   0  0  0  0  0  0  0  0  0  0  0  0
  195.3230  174.8490  145.0020 C   0  0  2  0  0  3  0  0  0  0  0  0
  193.0950  174.7600  144.0080 C   0  0  2  0  0  3  0  0  0  0  0  0
  191.0290  175.3760  145.2600 C   0  0  1  0  0  3  0  0  0  0  0  0
  197.3050  174.5590  143.5740 C   0  0  0  0  0  3  0  0  0  0  0  0
  196.7200  175.0170  144.7690 O   0  0  0  0  0  0  0  0  0  0  0  0
  193.3070  175.4440  146.3950 C   0  0  0  0  0  2  0  0  0  0  0  0
  194.5240  175.2200  143.7620 C   0  0  2  0  0  3  0  0  0  0  0  0
  196.5570  174.3230  142.4890 C   0  0  0  0  0  3  0  0  0  0  0  0
  192.2580  174.5470  142.7210 C   0  0  1  0  0  3  0  0  0  0  0  0
  194.3830  174.4830  141.4570 N   0  0  0  0  0  0  0  0  0  0  0  0
  194.8170  175.6840  146.1830 C   0  0  0  0  0  2  0  0  0  0  0  0
  190.3220  175.8040  143.9820 C   0  0  0  0  0  2  0  0  0  0  0  0
  190.7980  175.0320  142.7430 C   0  0  2  0  0  3  0  0  0  0  0  0
  192.5110  175.6670  145.0910 C   0  0  1  0  0  3  0  0  0  0  0  0
  192.9880  174.9370  141.4310 C   0  0  0  0  0  2  0  0  0  0  0  0
  188.7270  174.2360  141.4840 C   0  0  0  0  0  0  0  0  0  0  0  0
  188.1210  173.2760  140.9350 O   0  0  0  0  0  0  0  0  0  0  0  0
  189.8540  173.9790  142.3510 N   0  0  0  0  0  0  0  0  0  0  0  0
  188.2300  175.6190  141.2300 C   0  0  0  0  0  1  0  0  0  0  0  0
  190.2180  172.5940  142.6630 C   0  0  0  0  0  3  0  0  0  0  0  0
  188.9820  171.8130  143.0820 C   0  0  0  0  0  2  0  0  0  0  0  0
  189.9590  172.2860  144.1320 C   0  0  0  0  0  2  0  0  0  0  0  0
  190.5020  176.0970  146.3370 O   0  0  0  0  0  0  0  0  0  0  0  0
  189.5770  175.2340  146.9300 C   0  0  0  0  0  2  0  0  0  0  0  0
  188.1900  175.8470  146.8730 C   0  0  0  0  0  2  0  0  0  0  0  0
  188.3000  177.3560  146.9520 C   0  0  0  0  0  2  0  0  0  0  0  0
  187.2170  178.0230  144.0360 C   0  0  0  0  0  1  0  0  0  0  0  0
  187.0580  177.9580  146.4970 N   0  0  0  0  0  0  0  0  0  0  0  0
  186.6780  177.2710  145.2450 C   0  0  1  0  0  3  0  0  0  0  0  0
  184.5750  178.1640  145.5850 C   0  0  0  0  0  2  0  0  0  0  0  0
  184.7050  178.2640  147.1030 C   0  0  0  0  0  2  0  0  0  0  0  0
  186.0570  177.7030  147.5340 C   0  0  0  0  0  2  0  0  0  0  0  0
  185.2800  177.0390  145.1120 O   0  0  0  0  0  0  0  0  0  0  0  0
  1  8  1  0  0  0  0
  2 12  1  1  0  0  0
  3 15  1  0  0  0  0
  4 24  1  0  0  0  0
  5  6  1  0  0  0  0
  6  2  1  0  0  0  0
  8  3  1  0  0  0  0
  8  2  1  0  0  0  0
  9  1  1  0  0  0  0
  9  5  2  0  0  0  0
 10 14  1  0  0  0  0
 10  3  1  0  0  0  0
 11  1  2  0  0  0  0
 12  7  1  0  0  0  0
 13  4  1  0  0  0  0
 14 13  1  0  0  0  0
 15  4  1  0  0  0  0
 15  7  1  0  0  0  0
 16 11  1  0  0  0  0
 16 10  1  0  0  0  0
 17 19  1  0  0  0  0
 18 17  2  0  0  0  0
 19 21  1  0  0  0  0
 19 14  1  0  0  0  0
 20 17  1  0  0  0  0
 21 22  1  0  0  0  0
 21 23  1  0  0  0  0
 22 23  1  0  0  0  0
 24 25  1  0  0  0  0
 26 25  1  0  0  0  0
 26 27  1  0  0  0  0
 28 30  1  0  0  0  0
 29 27  1  0  0  0  0
 29 33  1  0  0  0  0
 30 29  1  0  0  0  0
 31 32  1  0  0  0  0
 32 33  1  0  0  0  0
 34 30  1  0  0  0  0
 34 31  1  0  0  0  0
M  END
>  <MODEL>
4

>  <REMARK>
 VINA RESULT:      -7.1      1.951      7.587
  Name = 
  7 active torsions:
  status: ('A' for Active; 'I' for Inactive)
    1  A    between atoms: C_3  and  N_13
    2  A    between atoms: C_3  and  C_17
    3  A    between atoms: C_5  and  O_18
    4  A    between atoms: C_12  and  N_23
    5  A    between atoms: C_17  and  C_29
    6  A    between atoms: O_18  and  C_29
    7  A    between atoms: N_23  and  C_28
                            x       y       z     vdW  Elec       q    Type
                         _______ _______ _______ _____ _____    ______ ____

>  <TORSDO>
F 7

$$$$
=
 OpenBabel11052418563D

 34 39  0  0  1  0  0  0  0  0999 V2000
  187.0770  177.8000  146.8080 C   0  0  0  0  0  0  0  0  0  0  0  0
  185.3450  177.5240  145.0280 C   0  0  2  0  0  3  0  0  0  0  0  0
  187.5710  176.5890  144.6650 C   0  0  2  0  0  3  0  0  0  0  0  0
  188.3600  175.8020  142.4340 C   0  0  1  0  0  3  0  0  0  0  0  0
  184.8080  178.5850  147.1820 C   0  0  0  0  0  3  0  0  0  0  0  0
  184.5420  178.4050  145.8120 O   0  0  0  0  0  0  0  0  0  0  0  0
  186.0000  176.7110  142.7330 C   0  0  0  0  0  2  0  0  0  0  0  0
  186.8210  177.7340  145.3310 C   0  0  2  0  0  3  0  0  0  0  0  0
  186.0050  178.2740  147.6970 C   0  0  0  0  0  3  0  0  0  0  0  0
  188.9700  176.3000  145.2670 C   0  0  1  0  0  3  0  0  0  0  0  0
  188.2750  177.5840  147.2640 N   0  0  0  0  0  0  0  0  0  0  0  0
  185.1200  177.7020  143.5230 C   0  0  0  0  0  2  0  0  0  0  0  0
  189.8090  176.1130  142.7820 C   0  0  0  0  0  2  0  0  0  0  0  0
  190.1090  175.9870  144.2820 C   0  0  2  0  0  3  0  0  0  0  0  0
  187.4820  176.8120  143.1540 C   0  0  1  0  0  3  0  0  0  0  0  0
  189.3920  177.2870  146.3620 C   0  0  0  0  0  2  0  0  0  0  0  0
  192.2300  174.6550  144.7670 C   0  0  0  0  0  0  0  0  0  0  0  0
  192.7500  173.6520  145.3260 O   0  0  0  0  0  0  0  0  0  0  0  0
  190.7960  174.7320  144.6050 N   0  0  0  0  0  0  0  0  0  0  0  0
  193.1350  175.7290  144.2650 C   0  0  0  0  0  1  0  0  0  0  0  0
  189.9680  173.5900  145.0040 C   0  0  0  0  0  3  0  0  0  0  0  0
  190.6230  172.2920  144.5600 C   0  0  0  0  0  2  0  0  0  0  0  0
  189.4530  172.8430  143.7810 C   0  0  0  0  0  2  0  0  0  0  0  0
  188.1910  175.8980  141.0490 O   0  0  0  0  0  0  0  0  0  0  0  0
  188.5630  174.6460  140.5530 C   0  0  0  0  0  2  0  0  0  0  0  0
  188.1900  174.5410  139.0860 C   0  0  0  0  0  2  0  0  0  0  0  0
  188.7700  173.2660  138.5070 C   0  0  0  0  0  2  0  0  0  0  0  0
  190.4930  171.3990  140.4210 C   0  0  0  0  0  1  0  0  0  0  0  0
  190.1970  173.2150  138.7780 N   0  0  0  0  0  0  0  0  0  0  0  0
  190.5540  171.7920  138.9520 C   0  0  1  0  0  3  0  0  0  0  0  0
  192.7380  172.4670  138.6280 C   0  0  0  0  0  2  0  0  0  0  0  0
  192.3870  173.6950  137.7920 C   0  0  0  0  0  2  0  0  0  0  0  0
  190.8740  173.7630  137.6020 C   0  0  0  0  0  2  0  0  0  0  0  0
  191.8100  171.4350  138.3870 O   0  0  0  0  0  0  0  0  0  0  0  0
  1 11  2  0  0  0  0
  1  9  1  0  0  0  0
  2 12  1  6  0  0  0
  2  8  1  0  0  0  0
  2  6  1  0  0  0  0
  3 10  1  0  0  0  0
  3  8  1  0  0  0  0
  4 13  1  0  0  0  0
  4 15  1  0  0  0  0
  5  9  2  0  0  0  0
  6  5  1  0  0  0  0
  7 15  1  0  0  0  0
  7 12  1  0  0  0  0
  8  1  1  0  0  0  0
 10 16  1  0  0  0  0
 13 14  1  0  0  0  0
 14 19  1  0  0  0  0
 14 10  1  0  0  0  0
 15  3  1  0  0  0  0
 16 11  1  0  0  0  0
 17 18  2  0  0  0  0
 19 17  1  0  0  0  0
 19 21  1  0  0  0  0
 20 17  1  0  0  0  0
 22 21  1  0  0  0  0
 23 22  1  0  0  0  0
 23 21  1  0  0  0  0
 24  4  1  0  0  0  0
 25 24  1  0  0  0  0
 26 25  1  0  0  0  0
 27 29  1  0  0  0  0
 27 26  1  0  0  0  0
 29 30  1  0  0  0  0
 30 28  1  0  0  0  0
 32 31  1  0  0  0  0
 33 32  1  0  0  0  0
 33 29  1  0  0  0  0
 34 31  1  0  0  0  0
 34 30  1  0  0  0  0
M  END
>  <MODEL>
5

>  <REMARK>
 VINA RESULT:      -6.9      2.743      5.447
  Name = 
  7 active torsions:
  status: ('A' for Active; 'I' for Inactive)
    1  A    between atoms: C_3  and  N_13
    2  A    between atoms: C_3  and  C_17
    3  A    between atoms: C_5  and  O_18
    4  A    between atoms: C_12  and  N_23
    5  A    between atoms: C_17  and  C_29
    6  A    between atoms: O_18  and  C_29
    7  A    between atoms: N_23  and  C_28
                            x       y       z     vdW  Elec       q    Type
                         _______ _______ _______ _____ _____    ______ ____

>  <TORSDO>
F 7

$$$$
=
 OpenBabel11052418563D

 34 39  0  0  1  0  0  0  0  0999 V2000
  191.7760  176.6460  146.7420 C   0  0  0  0  0  0  0  0  0  0  0  0
  192.7630  176.5510  144.4490 C   0  0  2  0  0  3  0  0  0  0  0  0
  190.3460  176.7900  144.6850 C   0  0  2  0  0  3  0  0  0  0  0  0
  188.7620  176.4580  142.7880 C   0  0  1  0  0  3  0  0  0  0  0  0
  194.1880  176.5540  146.4550 C   0  0  0  0  0  3  0  0  0  0  0  0
  193.9930  176.2340  145.1000 O   0  0  0  0  0  0  0  0  0  0  0  0
  191.2750  176.2450  142.4380 C   0  0  0  0  0  2  0  0  0  0  0  0
  191.5810  176.1780  145.3300 C   0  0  2  0  0  3  0  0  0  0  0  0
  193.1450  176.7900  147.2630 C   0  0  0  0  0  3  0  0  0  0  0  0
  189.1510  176.9980  145.6520 C   0  0  1  0  0  3  0  0  0  0  0  0
  190.7480  176.7730  147.5280 N   0  0  0  0  0  0  0  0  0  0  0  0
  192.6120  175.8470  143.0970 C   0  0  0  0  0  2  0  0  0  0  0  0
  187.6490  176.0180  143.7280 C   0  0  0  0  0  2  0  0  0  0  0  0
  187.7480  176.6580  145.1200 C   0  0  2  0  0  3  0  0  0  0  0  0
  190.0830  176.0150  143.3920 C   0  0  1  0  0  3  0  0  0  0  0  0
  189.3930  176.4550  147.0650 C   0  0  0  0  0  2  0  0  0  0  0  0
  186.0990  178.0040  146.5260 C   0  0  0  0  0  0  0  0  0  0  0  0
  185.5380  179.1130  146.7330 O   0  0  0  0  0  0  0  0  0  0  0  0
  186.8050  177.7690  145.2870 N   0  0  0  0  0  0  0  0  0  0  0  0
  185.9890  176.9520  147.5780 C   0  0  0  0  0  1  0  0  0  0  0  0
  186.7720  178.7930  144.2390 C   0  0  0  0  0  3  0  0  0  0  0  0
  185.4640  179.5660  144.3060 C   0  0  0  0  0  2  0  0  0  0  0  0
  185.6550  178.5110  143.2430 C   0  0  0  0  0  2  0  0  0  0  0  0
  188.5650  175.8640  141.5370 O   0  0  0  0  0  0  0  0  0  0  0  0
  187.9230  174.6530  141.8100 C   0  0  0  0  0  2  0  0  0  0  0  0
  188.5820  173.5320  141.0280 C   0  0  0  0  0  2  0  0  0  0  0  0
  188.9190  172.3910  141.9660 C   0  0  0  0  0  2  0  0  0  0  0  0
  189.6920  172.8770  145.0130 C   0  0  0  0  0  1  0  0  0  0  0  0
  190.1960  172.6530  142.6090 N   0  0  0  0  0  0  0  0  0  0  0  0
  190.1790  171.9500  143.9080 C   0  0  1  0  0  3  0  0  0  0  0  0
  192.4720  172.2190  143.9020 C   0  0  0  0  0  2  0  0  0  0  0  0
  192.6060  172.2780  142.3820 C   0  0  0  0  0  2  0  0  0  0  0  0
  191.2320  172.0860  141.7450 C   0  0  0  0  0  2  0  0  0  0  0  0
  191.4210  171.3530  144.2620 O   0  0  0  0  0  0  0  0  0  0  0  0
  1  9  1  0  0  0  0
  1 11  2  0  0  0  0
  2 12  1  6  0  0  0
  2  6  1  0  0  0  0
  2  8  1  0  0  0  0
  3  8  1  0  0  0  0
  3 10  1  0  0  0  0
  4 15  1  0  0  0  0
  4 13  1  0  0  0  0
  5  9  2  0  0  0  0
  6  5  1  0  0  0  0
  7 12  1  0  0  0  0
  7 15  1  0  0  0  0
  8  1  1  0  0  0  0
 10 16  1  0  0  0  0
 13 14  1  0  0  0  0
 14 19  1  0  0  0  0
 14 10  1  0  0  0  0
 15  3  1  0  0  0  0
 16 11  1  0  0  0  0
 17 18  2  0  0  0  0
 17 20  1  0  0  0  0
 19 17  1  0  0  0  0
 21 22  1  0  0  0  0
 21 19  1  0  0  0  0
 23 21  1  0  0  0  0
 23 22  1  0  0  0  0
 24 25  1  0  0  0  0
 24  4  1  0  0  0  0
 26 25  1  0  0  0  0
 26 27  1  0  0  0  0
 27 29  1  0  0  0  0
 29 30  1  0  0  0  0
 30 34  1  0  0  0  0
 30 28  1  0  0  0  0
 31 34  1  0  0  0  0
 32 31  1  0  0  0  0
 33 32  1  0  0  0  0
 33 29  1  0  0  0  0
M  END
>  <MODEL>
6

>  <REMARK>
 VINA RESULT:      -6.9      2.046      6.419
  Name = 
  7 active torsions:
  status: ('A' for Active; 'I' for Inactive)
    1  A    between atoms: C_3  and  N_13
    2  A    between atoms: C_3  and  C_17
    3  A    between atoms: C_5  and  O_18
    4  A    between atoms: C_12  and  N_23
    5  A    between atoms: C_17  and  C_29
    6  A    between atoms: O_18  and  C_29
    7  A    between atoms: N_23  and  C_28
                            x       y       z     vdW  Elec       q    Type
                         _______ _______ _______ _____ _____    ______ ____

>  <TORSDO>
F 7

$$$$
=
 OpenBabel11052418563D

 34 39  0  0  1  0  0  0  0  0999 V2000
  193.7300  175.6060  144.3670 C   0  0  0  0  0  0  0  0  0  0  0  0
  191.8520  176.0390  145.9570 C   0  0  2  0  0  3  0  0  0  0  0  0
  191.3720  174.9290  143.8360 C   0  0  2  0  0  3  0  0  0  0  0  0
  189.0580  174.6380  142.9540 C   0  0  1  0  0  3  0  0  0  0  0  0
  194.1780  176.5770  146.5500 C   0  0  0  0  0  3  0  0  0  0  0  0
  192.7980  176.7920  146.7140 O   0  0  0  0  0  0  0  0  0  0  0  0
  189.4620  175.7590  145.2050 C   0  0  0  0  0  2  0  0  0  0  0  0
  192.2770  175.9570  144.4990 C   0  0  2  0  0  3  0  0  0  0  0  0
  194.6550  175.9810  145.4490 C   0  0  0  0  0  3  0  0  0  0  0  0
  191.9500  174.3040  142.5400 C   0  0  1  0  0  3  0  0  0  0  0  0
  194.1760  175.1160  143.2490 N   0  0  0  0  0  0  0  0  0  0  0  0
  190.4380  176.6260  146.0260 C   0  0  0  0  0  2  0  0  0  0  0  0
  189.5520  174.6450  141.5150 C   0  0  0  0  0  2  0  0  0  0  0  0
  190.9790  174.0990  141.3640 C   0  0  2  0  0  3  0  0  0  0  0  0
  189.9730  175.5420  143.7640 C   0  0  1  0  0  3  0  0  0  0  0  0
  193.2880  174.9090  142.1000 C   0  0  0  0  0  2  0  0  0  0  0  0
  190.9510  172.4090  139.4530 C   0  0  0  0  0  0  0  0  0  0  0  0
  191.2600  171.2550  139.0510 O   0  0  0  0  0  0  0  0  0  0  0  0
  190.9940  172.7190  140.8640 N   0  0  0  0  0  0  0  0  0  0  0  0
  190.5220  173.4160  138.4410 C   0  0  0  0  0  1  0  0  0  0  0  0
  191.3000  171.6540  141.8240 C   0  0  0  0  0  3  0  0  0  0  0  0
  190.4740  170.4170  141.5090 C   0  0  0  0  0  2  0  0  0  0  0  0
  190.0730  171.3100  142.6580 C   0  0  0  0  0  2  0  0  0  0  0  0
  187.7410  175.1080  142.9880 O   0  0  0  0  0  0  0  0  0  0  0  0
  187.7140  176.1680  142.0780 C   0  0  0  0  0  2  0  0  0  0  0  0
  186.9450  177.3350  142.6690 C   0  0  0  0  0  2  0  0  0  0  0  0
  185.9260  176.8170  143.6650 C   0  0  0  0  0  2  0  0  0  0  0  0
  184.9630  179.7910  144.2560 C   0  0  0  0  0  1  0  0  0  0  0  0
  185.9720  177.6260  144.8710 N   0  0  0  0  0  0  0  0  0  0  0  0
  184.7330  178.4310  144.9000 C   0  0  1  0  0  3  0  0  0  0  0  0
  185.1980  178.7700  147.1370 C   0  0  0  0  0  2  0  0  0  0  0  0
  185.9910  177.4780  147.3160 C   0  0  0  0  0  2  0  0  0  0  0  0
  185.9940  176.6990  146.0040 C   0  0  0  0  0  2  0  0  0  0  0  0
  184.1660  178.5780  146.1970 O   0  0  0  0  0  0  0  0  0  0  0  0
  1  8  1  0  0  0  0
  1  9  1  0  0  0  0
  2 12  1  6  0  0  0
  2  6  1  0  0  0  0
  3  8  1  0  0  0  0
  4 24  1  0  0  0  0
  4 15  1  0  0  0  0
  5  6  1  0  0  0  0
  7 12  1  0  0  0  0
  8  2  1  0  0  0  0
  9  5  2  0  0  0  0
 10  3  1  0  0  0  0
 11  1  2  0  0  0  0
 13  4  1  0  0  0  0
 14 13  1  0  0  0  0
 14 10  1  0  0  0  0
 15  3  1  0  0  0  0
 15  7  1  0  0  0  0
 16 10  1  0  0  0  0
 16 11  1  0  0  0  0
 17 19  1  0  0  0  0
 18 17  2  0  0  0  0
 19 14  1  0  0  0  0
 19 21  1  0  0  0  0
 20 17  1  0  0  0  0
 21 23  1  0  0  0  0
 22 21  1  0  0  0  0
 22 23  1  0  0  0  0
 25 26  1  0  0  0  0
 25 24  1  0  0  0  0
 26 27  1  0  0  0  0
 27 29  1  0  0  0  0
 28 30  1  0  0  0  0
 29 30  1  0  0  0  0
 29 33  1  0  0  0  0
 30 34  1  0  0  0  0
 31 32  1  0  0  0  0
 33 32  1  0  0  0  0
 34 31  1  0  0  0  0
M  END
>  <MODEL>
7

>  <REMARK>
 VINA RESULT:      -6.8      2.105      7.268
  Name = 
  7 active torsions:
  status: ('A' for Active; 'I' for Inactive)
    1  A    between atoms: C_3  and  N_13
    2  A    between atoms: C_3  and  C_17
    3  A    between atoms: C_5  and  O_18
    4  A    between atoms: C_12  and  N_23
    5  A    between atoms: C_17  and  C_29
    6  A    between atoms: O_18  and  C_29
    7  A    between atoms: N_23  and  C_28
                            x       y       z     vdW  Elec       q    Type
                         _______ _______ _______ _____ _____    ______ ____

>  <TORSDO>
F 7

$$$$
=
 OpenBabel11052418563D

 34 39  0  0  1  0  0  0  0  0999 V2000
  191.0740  173.3980  140.0960 C   0  0  0  0  0  0  0  0  0  0  0  0
  188.9120  174.4980  140.6950 C   0  0  2  0  0  3  0  0  0  0  0  0
  190.6690  174.3500  142.3840 C   0  0  2  0  0  3  0  0  0  0  0  0
  190.2620  174.7950  144.8030 C   0  0  1  0  0  3  0  0  0  0  0  0
  189.3500  173.6990  138.4100 C   0  0  0  0  0  3  0  0  0  0  0  0
  188.4420  174.0390  139.4290 O   0  0  0  0  0  0  0  0  0  0  0  0
  188.3820  175.0290  143.1020 C   0  0  0  0  0  2  0  0  0  0  0  0
  190.0670  173.6360  141.1830 C   0  0  2  0  0  3  0  0  0  0  0  0
  190.6290  173.4180  138.6940 C   0  0  0  0  0  3  0  0  0  0  0  0
  192.1350  173.9540  142.6980 C   0  0  1  0  0  3  0  0  0  0  0  0
  192.2830  173.0340  140.4070 N   0  0  0  0  0  0  0  0  0  0  0  0
  187.8160  174.5060  141.7650 C   0  0  0  0  0  2  0  0  0  0  0  0
  191.3830  173.8520  145.2160 C   0  0  0  0  0  2  0  0  0  0  0  0
  192.5110  173.7650  144.1780 C   0  0  2  0  0  3  0  0  0  0  0  0
  189.6510  174.2560  143.5210 C   0  0  1  0  0  3  0  0  0  0  0  0
  192.6840  172.8360  141.8040 C   0  0  0  0  0  2  0  0  0  0  0  0
  194.8770  173.9660  145.1110 C   0  0  0  0  0  0  0  0  0  0  0  0
  195.9500  174.6260  145.1510 O   0  0  0  0  0  0  0  0  0  0  0  0
  193.6800  174.5630  144.5620 N   0  0  0  0  0  0  0  0  0  0  0  0
  194.8800  172.5810  145.6640 C   0  0  0  0  0  1  0  0  0  0  0  0
  193.7050  175.9700  144.1500 C   0  0  0  0  0  3  0  0  0  0  0  0
  194.4920  176.7930  145.1580 C   0  0  0  0  0  2  0  0  0  0  0  0
  192.9830  176.8430  145.1680 C   0  0  0  0  0  2  0  0  0  0  0  0
  189.3070  174.8450  145.8240 O   0  0  0  0  0  0  0  0  0  0  0  0
  189.6220  175.9930  146.5550 C   0  0  0  0  0  2  0  0  0  0  0  0
  188.7750  177.1570  146.0750 C   0  0  0  0  0  2  0  0  0  0  0  0
  187.3280  176.9240  146.4600 C   0  0  0  0  0  2  0  0  0  0  0  0
  184.4380  178.2360  146.6770 C   0  0  0  0  0  1  0  0  0  0  0  0
  186.4580  177.5150  145.4580 N   0  0  0  0  0  0  0  0  0  0  0  0
  185.7790  178.6620  146.0950 C   0  0  1  0  0  3  0  0  0  0  0  0
  185.2810  179.3530  143.9490 C   0  0  0  0  0  2  0  0  0  0  0  0
  186.4760  178.6640  143.2950 C   0  0  0  0  0  2  0  0  0  0  0  0
  187.3180  177.9810  144.3690 C   0  0  0  0  0  2  0  0  0  0  0  0
  185.6230  179.7910  145.2430 O   0  0  0  0  0  0  0  0  0  0  0  0
  1 11  2  0  0  0  0
  1  8  1  0  0  0  0
  2  8  1  0  0  0  0
  2 12  1  1  0  0  0
  3 10  1  0  0  0  0
  3 15  1  0  0  0  0
  4 13  1  0  0  0  0
  4 24  1  0  0  0  0
  5  9  2  0  0  0  0
  5  6  1  0  0  0  0
  6  2  1  0  0  0  0
  7 15  1  0  0  0  0
  8  3  1  0  0  0  0
  9  1  1  0  0  0  0
 10 14  1  0  0  0  0
 11 16  1  0  0  0  0
 12  7  1  0  0  0  0
 14 19  1  0  0  0  0
 14 13  1  0  0  0  0
 15  4  1  0  0  0  0
 16 10  1  0  0  0  0
 17 18  2  0  0  0  0
 17 20  1  0  0  0  0
 19 17  1  0  0  0  0
 21 19  1  0  0  0  0
 21 22  1  0  0  0  0
 21 23  1  0  0  0  0
 22 23  1  0  0  0  0
 24 25  1  0  0  0  0
 26 27  1  0  0  0  0
 26 25  1  0  0  0  0
 29 30  1  0  0  0  0
 29 27  1  0  0  0  0
 30 28  1  0  0  0  0
 31 34  1  0  0  0  0
 32 31  1  0  0  0  0
 32 33  1  0  0  0  0
 33 29  1  0  0  0  0
 34 30  1  0  0  0  0
M  END
>  <MODEL>
8

>  <REMARK>
 VINA RESULT:      -6.7      2.001      6.720
  Name = 
  7 active torsions:
  status: ('A' for Active; 'I' for Inactive)
    1  A    between atoms: C_3  and  N_13
    2  A    between atoms: C_3  and  C_17
    3  A    between atoms: C_5  and  O_18
    4  A    between atoms: C_12  and  N_23
    5  A    between atoms: C_17  and  C_29
    6  A    between atoms: O_18  and  C_29
    7  A    between atoms: N_23  and  C_28
                            x       y       z     vdW  Elec       q    Type
                         _______ _______ _______ _____ _____    ______ ____

>  <TORSDO>
F 7

$$$$
=
 OpenBabel11052418563D

 34 39  0  0  1  0  0  0  0  0999 V2000
  191.3600  170.9660  141.2560 C   0  0  0  0  0  0  0  0  0  0  0  0
  190.0620  172.1410  139.4740 C   0  0  2  0  0  3  0  0  0  0  0  0
  190.3550  173.2340  141.6370 C   0  0  2  0  0  3  0  0  0  0  0  0
  189.0340  175.2300  142.3340 C   0  0  1  0  0  3  0  0  0  0  0  0
  191.1630  169.9840  139.0420 C   0  0  0  0  0  3  0  0  0  0  0  0
  190.1620  170.9230  138.7370 O   0  0  0  0  0  0  0  0  0  0  0  0
  188.7020  174.1880  140.0350 C   0  0  0  0  0  2  0  0  0  0  0  0
  190.2040  171.8770  140.9650 C   0  0  2  0  0  3  0  0  0  0  0  0
  191.7810  169.9980  140.2300 C   0  0  0  0  0  3  0  0  0  0  0  0
  191.0330  173.1900  143.0300 C   0  0  1  0  0  3  0  0  0  0  0  0
  191.8750  170.9380  142.4490 N   0  0  0  0  0  0  0  0  0  0  0  0
  188.7390  172.8740  139.2270 C   0  0  0  0  0  2  0  0  0  0  0  0
  189.1520  174.8570  143.8050 C   0  0  0  0  0  2  0  0  0  0  0  0
  190.4410  174.0890  144.1300 C   0  0  2  0  0  3  0  0  0  0  0  0
  189.0040  173.9420  141.5290 C   0  0  1  0  0  3  0  0  0  0  0  0
  191.3390  171.7730  143.5300 C   0  0  0  0  0  2  0  0  0  0  0  0
  191.4880  175.1930  146.1780 C   0  0  0  0  0  0  0  0  0  0  0  0
  192.5220  175.6790  146.7100 O   0  0  0  0  0  0  0  0  0  0  0  0
  191.4540  174.9470  144.7540 N   0  0  0  0  0  0  0  0  0  0  0  0
  190.3120  174.9100  147.0510 C   0  0  0  0  0  1  0  0  0  0  0  0
  192.5910  175.3620  143.9280 C   0  0  0  0  0  3  0  0  0  0  0  0
  193.0230  176.7700  144.3060 C   0  0  0  0  0  2  0  0  0  0  0  0
  192.2160  176.5490  143.0500 C   0  0  0  0  0  2  0  0  0  0  0  0
  187.8570  175.9620  142.1420 O   0  0  0  0  0  0  0  0  0  0  0  0
  188.1810  177.2690  142.5140 C   0  0  0  0  0  2  0  0  0  0  0  0
  186.9860  177.9270  143.1790 C   0  0  0  0  0  2  0  0  0  0  0  0
  185.9870  176.8630  143.5910 C   0  0  0  0  0  2  0  0  0  0  0  0
  187.0750  176.4770  146.5550 C   0  0  0  0  0  1  0  0  0  0  0  0
  185.4170  177.2080  144.8820 N   0  0  0  0  0  0  0  0  0  0  0  0
  186.5320  177.6470  145.7460 C   0  0  1  0  0  3  0  0  0  0  0  0
  184.9080  178.5750  147.0980 C   0  0  0  0  0  2  0  0  0  0  0  0
  183.8860  178.7730  145.9800 C   0  0  0  0  0  2  0  0  0  0  0  0
  184.4910  178.3190  144.6550 C   0  0  0  0  0  2  0  0  0  0  0  0
  186.2130  178.7420  146.5950 O   0  0  0  0  0  0  0  0  0  0  0  0
  1 11  2  0  0  0  0
  2 12  1  1  0  0  0
  2  8  1  0  0  0  0
  3 10  1  0  0  0  0
  4 13  1  0  0  0  0
  5  9  2  0  0  0  0
  6  5  1  0  0  0  0
  6  2  1  0  0  0  0
  7 15  1  0  0  0  0
  8  1  1  0  0  0  0
  8  3  1  0  0  0  0
  9  1  1  0  0  0  0
 10 16  1  0  0  0  0
 10 14  1  0  0  0  0
 11 16  1  0  0  0  0
 12  7  1  0  0  0  0
 13 14  1  0  0  0  0
 14 19  1  0  0  0  0
 15  3  1  0  0  0  0
 15  4  1  0  0  0  0
 17 18  2  0  0  0  0
 17 20  1  0  0  0  0
 19 17  1  0  0  0  0
 21 22  1  0  0  0  0
 21 19  1  0  0  0  0
 23 21  1  0  0  0  0
 23 22  1  0  0  0  0
 24  4  1  0  0  0  0
 24 25  1  0  0  0  0
 25 26  1  0  0  0  0
 26 27  1  0  0  0  0
 27 29  1  0  0  0  0
 29 30  1  0  0  0  0
 30 28  1  0  0  0  0
 30 34  1  0  0  0  0
 32 31  1  0  0  0  0
 33 29  1  0  0  0  0
 33 32  1  0  0  0  0
 34 31  1  0  0  0  0
M  END
>  <MODEL>
9

>  <REMARK>
 VINA RESULT:      -6.7      2.481      7.720
  Name = 
  7 active torsions:
  status: ('A' for Active; 'I' for Inactive)
    1  A    between atoms: C_3  and  N_13
    2  A    between atoms: C_3  and  C_17
    3  A    between atoms: C_5  and  O_18
    4  A    between atoms: C_12  and  N_23
    5  A    between atoms: C_17  and  C_29
    6  A    between atoms: O_18  and  C_29
    7  A    between atoms: N_23  and  C_28
                            x       y       z     vdW  Elec       q    Type
                         _______ _______ _______ _____ _____    ______ ____

>  <TORSDO>
F 7

$$$$
