=
 OpenBabel11052417113D

 30 32  0  0  1  0  0  0  0  0999 V2000
  190.0300  175.7070  144.7020 C   0  0  1  0  0  3  0  0  0  0  0  0
  191.7040  173.9660  143.7550 C   0  0  2  0  0  3  0  0  0  0  0  0
  190.9830  176.5810  145.2820 O   0  0  0  0  0  0  0  0  0  0  0  0
  194.9360  176.2020  143.5480 C   0  0  0  0  0  2  0  0  0  0  0  0
  194.0140  176.0990  141.5280 C   0  0  0  0  0  2  0  0  0  0  0  0
  193.9180  175.3030  144.2820 C   0  0  2  0  0  3  0  0  0  0  0  0
  192.6500  175.1940  146.3480 C   0  0  0  0  0  2  0  0  0  0  0  0
  191.4150  176.0710  146.5230 C   0  0  0  0  0  2  0  0  0  0  0  0
  192.6220  175.1630  143.4060 C   0  0  1  0  0  3  0  0  0  0  0  0
  195.1690  175.7590  142.2410 O   0  0  0  0  0  0  0  0  0  0  0  0
  193.6700  175.9140  145.6040 N   0  0  0  0  0  0  0  0  0  0  0  0
  194.8810  175.7750  146.4020 C   0  0  0  0  0  1  0  0  0  0  0  0
  190.4420  174.2190  144.6040 C   0  0  2  0  0  3  0  0  0  0  0  0
  193.2780  173.8400  141.4740 O   0  0  0  0  0  1  0  0  0  0  0  0
  192.9060  175.1230  141.8890 C   0  0  2  0  0  3  0  0  0  0  0  0
  188.4010  176.2100  146.6600 C   0  0  1  0  0  3  0  0  0  0  0  0
  187.0470  176.7840  146.9760 C   0  0  0  0  0  3  0  0  0  0  0  0
  188.6130  174.7020  147.5850 Cl  0  0  0  0  0  0  0  0  0  0  0  0
  188.0360  177.1320  144.3420 C   0  0  0  0  0  3  0  0  0  0  0  0
  186.4370  178.9330  143.9370 C   0  0  0  0  0  1  0  0  0  0  0  0
  188.5800  175.9790  145.1430 C   0  0  1  0  0  3  0  0  0  0  0  0
  186.4160  177.5780  146.1080 C   0  0  0  0  0  3  0  0  0  0  0  0
  186.9990  177.8480  144.7830 C   0  0  0  0  0  0  0  0  0  0  0  0
  191.5050  171.3010  142.7510 O   0  0  0  0  0  0  0  0  0  0  0  0
  192.2860  171.5050  143.7180 C   0  0  0  0  0  0  0  0  0  0  0  0
  193.0120  170.4190  144.2790 N   0  0  0  0  0  1  0  0  0  0  0  0
  192.4560  172.8180  144.2500 N   0  0  0  0  0  2  0  0  0  0  0  0
  189.3880  173.4670  144.0720 O   0  0  0  0  0  0  0  0  0  0  0  0
  188.0730  172.8170  141.8900 S   0  0  0  0  0  1  0  0  0  0  0  0
  189.3050  173.8450  142.7310 C   0  0  0  0  0  2  0  0  0  0  0  0
  1 21  1  0  0  0  0
  1  3  1  1  0  0  0
  2 27  1  1  0  0  0
  2 13  1  0  0  0  0
  3  8  1  0  0  0  0
  5 15  1  0  0  0  0
  5 10  1  0  0  0  0
  6  4  1  6  0  0  0
  6 11  1  0  0  0  0
  7  8  1  0  0  0  0
  9  2  1  0  0  0  0
  9  6  1  0  0  0  0
 10  4  1  0  0  0  0
 11  7  1  0  0  0  0
 11 12  1  0  0  0  0
 13  1  1  0  0  0  0
 14 15  1  0  0  0  0
 15  9  1  0  0  0  0
 16 17  1  0  0  0  0
 16 18  1  0  0  0  0
 19 23  2  0  0  0  0
 19 21  1  0  0  0  0
 20 23  1  0  0  0  0
 21 16  1  0  0  0  0
 22 17  2  0  0  0  0
 23 22  1  0  0  0  0
 24 25  2  0  0  0  0
 25 27  1  0  0  0  0
 25 26  1  0  0  0  0
 28 13  1  0  0  0  0
 29 30  1  0  0  0  0
 30 28  1  0  0  0  0
M  END
>  <MODEL>
1

>  <REMARK>
 VINA RESULT:      -6.7      0.000      0.000
  Name = 
  4 active torsions:
  status: ('A' for Active; 'I' for Inactive)
    1  A    between atoms: C_1  and  C_22
    2  A    between atoms: C_4  and  N_25
    3  A    between atoms: O_10  and  C_23
    4  A    between atoms: O_10  and  C_26
                            x       y       z     vdW  Elec       q    Type
                         _______ _______ _______ _____ _____    ______ ____

>  <TORSDO>
F 4

$$$$
=
 OpenBabel11052417113D

 30 32  0  0  1  0  0  0  0  0999 V2000
  187.7390  176.6070  144.0730 C   0  0  1  0  0  3  0  0  0  0  0  0
  190.1220  175.6330  143.7560 C   0  0  2  0  0  3  0  0  0  0  0  0
  187.0590  175.7160  143.2050 O   0  0  0  0  0  0  0  0  0  0  0  0
  189.1950  172.0050  142.5430 C   0  0  0  0  0  2  0  0  0  0  0  0
  189.6810  171.9260  144.7100 C   0  0  0  0  0  2  0  0  0  0  0  0
  189.4360  173.5160  142.3360 C   0  0  2  0  0  3  0  0  0  0  0  0
  188.4490  175.4480  141.2470 C   0  0  0  0  0  2  0  0  0  0  0  0
  187.2290  176.1210  141.8670 C   0  0  0  0  0  2  0  0  0  0  0  0
  189.4560  174.2350  143.7320 C   0  0  1  0  0  3  0  0  0  0  0  0
  190.1010  171.4580  143.4590 O   0  0  0  0  0  0  0  0  0  0  0  0
  188.3720  174.0090  141.4370 N   0  0  0  0  0  0  0  0  0  0  0  0
  188.6000  173.4460  140.1130 C   0  0  0  0  0  1  0  0  0  0  0  0
  189.2230  176.8860  143.7370 C   0  0  2  0  0  3  0  0  0  0  0  0
  191.4840  173.4690  144.8330 O   0  0  0  0  0  1  0  0  0  0  0  0
  190.0890  173.3840  144.8540 C   0  0  2  0  0  3  0  0  0  0  0  0
  185.8180  178.2510  143.4830 C   0  0  1  0  0  3  0  0  0  0  0  0
  184.8400  179.2210  144.0890 C   0  0  0  0  0  3  0  0  0  0  0  0
  186.5320  178.9940  142.0290 Cl  0  0  0  0  0  0  0  0  0  0  0  0
  186.3110  177.5630  145.8570 C   0  0  0  0  0  3  0  0  0  0  0  0
  184.7160  177.9980  147.6540 C   0  0  0  0  0  1  0  0  0  0  0  0
  186.9020  177.8280  144.4990 C   0  0  1  0  0  3  0  0  0  0  0  0
  184.5460  179.1780  145.3900 C   0  0  0  0  0  3  0  0  0  0  0  0
  185.2330  178.2280  146.2810 C   0  0  0  0  0  0  0  0  0  0  0  0
  192.8120  176.3670  144.3700 O   0  0  0  0  0  0  0  0  0  0  0  0
  192.5270  176.1440  143.1640 C   0  0  0  0  0  0  0  0  0  0  0  0
  193.5300  176.2830  142.1650 N   0  0  0  0  0  1  0  0  0  0  0  0
  191.2090  175.7440  142.7890 N   0  0  0  0  0  2  0  0  0  0  0  0
  189.7460  177.8230  144.6340 O   0  0  0  0  0  0  0  0  0  0  0  0
  189.6100  177.8770  147.2600 S   0  0  0  0  0  1  0  0  0  0  0  0
  190.1790  177.0810  145.7340 C   0  0  0  0  0  2  0  0  0  0  0  0
  1  3  1  6  0  0  0
  1 21  1  0  0  0  0
  2 27  1  6  0  0  0
  4 10  1  0  0  0  0
  5 15  1  0  0  0  0
  6  4  1  1  0  0  0
  6  9  1  0  0  0  0
  7 11  1  0  0  0  0
  7  8  1  0  0  0  0
  8  3  1  0  0  0  0
  9  2  1  0  0  0  0
  9 15  1  0  0  0  0
 10  5  1  0  0  0  0
 11  6  1  0  0  0  0
 12 11  1  0  0  0  0
 13  2  1  0  0  0  0
 13  1  1  0  0  0  0
 13 28  1  0  0  0  0
 14 15  1  0  0  0  0
 16 17  1  0  0  0  0
 16 21  1  0  0  0  0
 17 22  2  0  0  0  0
 18 16  1  0  0  0  0
 19 23  2  0  0  0  0
 21 19  1  0  0  0  0
 22 23  1  0  0  0  0
 23 20  1  0  0  0  0
 25 24  2  0  0  0  0
 26 25  1  0  0  0  0
 27 25  1  0  0  0  0
 28 30  1  0  0  0  0
 30 29  1  0  0  0  0
M  END
>  <MODEL>
2

>  <REMARK>
 VINA RESULT:      -6.6      3.042      5.194
  Name = 
  4 active torsions:
  status: ('A' for Active; 'I' for Inactive)
    1  A    between atoms: C_1  and  C_22
    2  A    between atoms: C_4  and  N_25
    3  A    between atoms: O_10  and  C_23
    4  A    between atoms: O_10  and  C_26
                            x       y       z     vdW  Elec       q    Type
                         _______ _______ _______ _____ _____    ______ ____

>  <TORSDO>
F 4

$$$$
=
 OpenBabel11052417113D

 30 32  0  0  1  0  0  0  0  0999 V2000
  189.4430  175.5410  143.5090 C   0  0  1  0  0  3  0  0  0  0  0  0
  191.6600  174.5950  142.5520 C   0  0  2  0  0  3  0  0  0  0  0  0
  188.5720  174.5800  142.9360 O   0  0  0  0  0  0  0  0  0  0  0  0
  190.5580  170.8770  141.8810 C   0  0  0  0  0  2  0  0  0  0  0  0
  191.6680  170.9520  143.8060 C   0  0  0  0  0  2  0  0  0  0  0  0
  190.6680  172.3750  141.5260 C   0  0  2  0  0  3  0  0  0  0  0  0
  189.3280  174.2100  140.6720 C   0  0  0  0  0  2  0  0  0  0  0  0
  188.3220  174.8990  141.5870 C   0  0  0  0  0  2  0  0  0  0  0  0
  191.0730  173.1860  142.8080 C   0  0  1  0  0  3  0  0  0  0  0  0
  191.7150  170.4110  142.5160 O   0  0  0  0  0  0  0  0  0  0  0  0
  189.3660  172.7850  140.9580 N   0  0  0  0  0  0  0  0  0  0  0  0
  189.2140  172.1400  139.6620 C   0  0  0  0  0  1  0  0  0  0  0  0
  190.7480  175.8260  142.7300 C   0  0  2  0  0  3  0  0  0  0  0  0
  193.3640  172.5360  143.2960 O   0  0  0  0  0  1  0  0  0  0  0  0
  192.0420  172.4240  143.7380 C   0  0  2  0  0  3  0  0  0  0  0  0
  187.7180  177.4450  143.1340 C   0  0  1  0  0  3  0  0  0  0  0  0
  186.8270  178.4160  143.8590 C   0  0  0  0  0  3  0  0  0  0  0  0
  188.5460  178.3060  141.8130 Cl  0  0  0  0  0  0  0  0  0  0  0  0
  188.0680  176.3790  145.3910 C   0  0  0  0  0  3  0  0  0  0  0  0
  186.4740  176.7200  147.2090 C   0  0  0  0  0  1  0  0  0  0  0  0
  188.7230  176.7700  144.0940 C   0  0  1  0  0  3  0  0  0  0  0  0
  186.4920  178.2210  145.1370 C   0  0  0  0  0  3  0  0  0  0  0  0
  187.0520  177.0870  145.8910 C   0  0  0  0  0  0  0  0  0  0  0  0
  194.3620  175.4810  142.2840 O   0  0  0  0  0  0  0  0  0  0  0  0
  193.7500  175.1440  141.2360 C   0  0  0  0  0  0  0  0  0  0  0  0
  194.4050  175.2340  139.9770 N   0  0  0  0  0  1  0  0  0  0  0  0
  192.4070  174.6640  141.3000 N   0  0  0  0  0  2  0  0  0  0  0  0
  191.4780  176.8310  143.3740 O   0  0  0  0  0  0  0  0  0  0  0  0
  193.4440  177.0290  145.1090 S   0  0  0  0  0  1  0  0  0  0  0  0
  191.8800  176.2760  144.5900 C   0  0  0  0  0  2  0  0  0  0  0  0
  1  3  1  6  0  0  0
  1 21  1  0  0  0  0
  2 27  1  6  0  0  0
  2 13  1  0  0  0  0
  2  9  1  0  0  0  0
  4 10  1  0  0  0  0
  6  4  1  1  0  0  0
  6  9  1  0  0  0  0
  7 11  1  0  0  0  0
  7  8  1  0  0  0  0
  8  3  1  0  0  0  0
  9 15  1  0  0  0  0
 10  5  1  0  0  0  0
 11  6  1  0  0  0  0
 12 11  1  0  0  0  0
 13 28  1  0  0  0  0
 13  1  1  0  0  0  0
 14 15  1  0  0  0  0
 15  5  1  0  0  0  0
 16 17  1  0  0  0  0
 16 21  1  0  0  0  0
 17 22  2  0  0  0  0
 18 16  1  0  0  0  0
 19 23  2  0  0  0  0
 21 19  1  0  0  0  0
 22 23  1  0  0  0  0
 23 20  1  0  0  0  0
 25 27  1  0  0  0  0
 25 24  2  0  0  0  0
 26 25  1  0  0  0  0
 28 30  1  0  0  0  0
 30 29  1  0  0  0  0
M  END
>  <MODEL>
3

>  <REMARK>
 VINA RESULT:      -6.3      2.786      4.868
  Name = 
  4 active torsions:
  status: ('A' for Active; 'I' for Inactive)
    1  A    between atoms: C_1  and  C_22
    2  A    between atoms: C_4  and  N_25
    3  A    between atoms: O_10  and  C_23
    4  A    between atoms: O_10  and  C_26
                            x       y       z     vdW  Elec       q    Type
                         _______ _______ _______ _____ _____    ______ ____

>  <TORSDO>
F 4

$$$$
=
 OpenBabel11052417113D

 30 32  0  0  1  0  0  0  0  0999 V2000
  192.7160  174.7800  142.8000 C   0  0  1  0  0  3  0  0  0  0  0  0
  190.7700  175.4930  144.3590 C   0  0  2  0  0  3  0  0  0  0  0  0
  191.9250  174.3010  141.7260 O   0  0  0  0  0  0  0  0  0  0  0  0
  187.9140  175.9380  141.6880 C   0  0  0  0  0  2  0  0  0  0  0  0
  188.7520  177.9400  142.1700 C   0  0  0  0  0  2  0  0  0  0  0  0
  188.8020  175.1110  142.6410 C   0  0  2  0  0  3  0  0  0  0  0  0
  190.0970  173.0590  142.7020 C   0  0  0  0  0  2  0  0  0  0  0  0
  191.4560  173.0040  142.0130 C   0  0  0  0  0  2  0  0  0  0  0  0
  190.0370  175.9760  143.0840 C   0  0  1  0  0  3  0  0  0  0  0  0
  187.5790  177.1800  142.2410 O   0  0  0  0  0  0  0  0  0  0  0  0
  189.1790  173.8750  141.9250 N   0  0  0  0  0  0  0  0  0  0  0  0
  187.9840  173.0540  141.7790 C   0  0  0  0  0  1  0  0  0  0  0  0
  192.0790  174.6930  144.2070 C   0  0  2  0  0  3  0  0  0  0  0  0
  189.1310  177.7270  144.5070 O   0  0  0  0  0  1  0  0  0  0  0  0
  189.7070  177.4740  143.2580 C   0  0  2  0  0  3  0  0  0  0  0  0
  195.1820  175.5840  142.6620 C   0  0  1  0  0  3  0  0  0  0  0  0
  196.6010  175.1450  142.8980 C   0  0  0  0  0  3  0  0  0  0  0  0
  195.1010  176.4430  141.1030 Cl  0  0  0  0  0  0  0  0  0  0  0  0
  194.5310  173.4500  143.8360 C   0  0  0  0  0  3  0  0  0  0  0  0
  196.0920  172.3000  145.3210 C   0  0  0  0  0  1  0  0  0  0  0  0
  194.2030  174.3890  142.7070 C   0  0  1  0  0  3  0  0  0  0  0  0
  196.8770  174.0930  143.6730 C   0  0  0  0  0  3  0  0  0  0  0  0
  195.7890  173.2880  144.2540 C   0  0  0  0  0  0  0  0  0  0  0  0
  190.5080  176.1900  147.1160 O   0  0  0  0  0  0  0  0  0  0  0  0
  189.8060  175.2380  146.6830 C   0  0  0  0  0  0  0  0  0  0  0  0
  188.9380  174.5420  147.5710 N   0  0  0  0  0  1  0  0  0  0  0  0
  189.8650  174.8560  145.3100 N   0  0  0  0  0  2  0  0  0  0  0  0
  192.9890  175.1410  145.1710 O   0  0  0  0  0  0  0  0  0  0  0  0
  194.3670  177.2220  146.0000 S   0  0  0  0  0  1  0  0  0  0  0  0
  192.9600  176.5340  145.0880 C   0  0  0  0  0  2  0  0  0  0  0  0
  1  3  1  6  0  0  0
  1 13  1  0  0  0  0
  2 27  1  6  0  0  0
  3  8  1  0  0  0  0
  4 10  1  0  0  0  0
  5 10  1  0  0  0  0
  5 15  1  0  0  0  0
  6  4  1  6  0  0  0
  6  9  1  0  0  0  0
  8  7  1  0  0  0  0
  9 15  1  0  0  0  0
  9  2  1  0  0  0  0
 11  6  1  0  0  0  0
 11  7  1  0  0  0  0
 12 11  1  0  0  0  0
 13  2  1  0  0  0  0
 13 28  1  0  0  0  0
 15 14  1  0  0  0  0
 16 21  1  0  0  0  0
 16 17  1  0  0  0  0
 17 22  2  0  0  0  0
 18 16  1  0  0  0  0
 19 23  2  0  0  0  0
 21  1  1  0  0  0  0
 21 19  1  0  0  0  0
 22 23  1  0  0  0  0
 23 20  1  0  0  0  0
 25 24  2  0  0  0  0
 25 26  1  0  0  0  0
 27 25  1  0  0  0  0
 30 28  1  0  0  0  0
 30 29  1  0  0  0  0
M  END
>  <MODEL>
4

>  <REMARK>
 VINA RESULT:      -6.0      3.431      6.866
  Name = 
  4 active torsions:
  status: ('A' for Active; 'I' for Inactive)
    1  A    between atoms: C_1  and  C_22
    2  A    between atoms: C_4  and  N_25
    3  A    between atoms: O_10  and  C_23
    4  A    between atoms: O_10  and  C_26
                            x       y       z     vdW  Elec       q    Type
                         _______ _______ _______ _____ _____    ______ ____

>  <TORSDO>
F 4

$$$$
=
 OpenBabel11052417113D

 30 32  0  0  1  0  0  0  0  0999 V2000
  190.9390  176.9370  143.8490 C   0  0  1  0  0  3  0  0  0  0  0  0
  192.2410  174.9780  142.7570 C   0  0  2  0  0  3  0  0  0  0  0  0
  191.9600  177.3660  144.7330 O   0  0  0  0  0  0  0  0  0  0  0  0
  195.9280  176.1450  143.4890 C   0  0  0  0  0  2  0  0  0  0  0  0
  195.4130  176.6910  141.3970 C   0  0  0  0  0  2  0  0  0  0  0  0
  194.5870  175.4740  143.8590 C   0  0  2  0  0  3  0  0  0  0  0  0
  192.9660  175.3750  145.6620 C   0  0  0  0  0  2  0  0  0  0  0  0
  191.9970  176.5340  145.8700 C   0  0  0  0  0  2  0  0  0  0  0  0
  193.4910  175.8880  142.8130 C   0  0  1  0  0  3  0  0  0  0  0  0
  196.2790  175.8970  142.1570 O   0  0  0  0  0  0  0  0  0  0  0  0
  194.2620  175.8800  145.2420 N   0  0  0  0  0  0  0  0  0  0  0  0
  195.2180  175.2440  146.1380 C   0  0  0  0  0  1  0  0  0  0  0  0
  190.9530  175.4380  143.4690 C   0  0  2  0  0  3  0  0  0  0  0  0
  194.1310  174.8030  140.7330 O   0  0  0  0  0  1  0  0  0  0  0  0
  194.0380  176.0410  141.3770 C   0  0  2  0  0  3  0  0  0  0  0  0
  188.5350  177.4220  142.9940 C   0  0  1  0  0  3  0  0  0  0  0  0
  187.1370  177.7320  143.4570 C   0  0  0  0  0  3  0  0  0  0  0  0
  188.9410  178.5030  141.6380 Cl  0  0  0  0  0  0  0  0  0  0  0  0
  189.0240  176.9430  145.4210 C   0  0  0  0  0  3  0  0  0  0  0  0
  187.2290  176.4160  146.9890 C   0  0  0  0  0  1  0  0  0  0  0  0
  189.5560  177.5450  144.1470 C   0  0  1  0  0  3  0  0  0  0  0  0
  186.7540  177.4750  144.7090 C   0  0  0  0  0  3  0  0  0  0  0  0
  187.7170  176.9510  145.6920 C   0  0  0  0  0  0  0  0  0  0  0  0
  191.6900  172.7380  141.0740 O   0  0  0  0  0  0  0  0  0  0  0  0
  192.2240  172.5130  142.1910 C   0  0  0  0  0  0  0  0  0  0  0  0
  192.5110  171.1740  142.5790 N   0  0  0  0  0  1  0  0  0  0  0  0
  192.5540  173.5870  143.0700 N   0  0  0  0  0  2  0  0  0  0  0  0
  189.8600  175.1440  142.6460 O   0  0  0  0  0  0  0  0  0  0  0  0
  188.2280  173.1820  142.0120 S   0  0  0  0  0  1  0  0  0  0  0  0
  189.2270  174.0550  143.2470 C   0  0  0  0  0  2  0  0  0  0  0  0
  1 21  1  0  0  0  0
  1  3  1  1  0  0  0
  2  9  1  0  0  0  0
  2 27  1  1  0  0  0
  2 13  1  0  0  0  0
  3  8  1  0  0  0  0
  5 10  1  0  0  0  0
  6  4  1  6  0  0  0
  6 11  1  0  0  0  0
  7  8  1  0  0  0  0
  9  6  1  0  0  0  0
 10  4  1  0  0  0  0
 11  7  1  0  0  0  0
 11 12  1  0  0  0  0
 13  1  1  0  0  0  0
 14 15  1  0  0  0  0
 15  5  1  0  0  0  0
 15  9  1  0  0  0  0
 16 17  1  0  0  0  0
 16 21  1  0  0  0  0
 17 22  2  0  0  0  0
 18 16  1  0  0  0  0
 19 23  2  0  0  0  0
 21 19  1  0  0  0  0
 22 23  1  0  0  0  0
 23 20  1  0  0  0  0
 24 25  2  0  0  0  0
 25 26  1  0  0  0  0
 25 27  1  0  0  0  0
 28 30  1  0  0  0  0
 28 13  1  0  0  0  0
 29 30  1  0  0  0  0
M  END
>  <MODEL>
5

>  <REMARK>
 VINA RESULT:      -6.0      1.808      2.229
  Name = 
  4 active torsions:
  status: ('A' for Active; 'I' for Inactive)
    1  A    between atoms: C_1  and  C_22
    2  A    between atoms: C_4  and  N_25
    3  A    between atoms: O_10  and  C_23
    4  A    between atoms: O_10  and  C_26
                            x       y       z     vdW  Elec       q    Type
                         _______ _______ _______ _____ _____    ______ ____

>  <TORSDO>
F 4

$$$$
=
 OpenBabel11052417113D

 30 32  0  0  1  0  0  0  0  0999 V2000
  191.8820  175.4490  144.1300 C   0  0  1  0  0  3  0  0  0  0  0  0
  193.5510  173.6770  143.2330 C   0  0  2  0  0  3  0  0  0  0  0  0
  192.6970  176.5900  143.9200 O   0  0  0  0  0  0  0  0  0  0  0  0
  195.7820  175.9710  140.9420 C   0  0  0  0  0  2  0  0  0  0  0  0
  194.3010  174.9160  139.6630 C   0  0  0  0  0  2  0  0  0  0  0  0
  195.3570  175.3570  142.2930 C   0  0  2  0  0  3  0  0  0  0  0  0
  194.9360  175.9880  144.5990 C   0  0  0  0  0  2  0  0  0  0  0  0
  193.6410  176.7080  144.9590 C   0  0  0  0  0  2  0  0  0  0  0  0
  193.9330  174.7100  142.1450 C   0  0  1  0  0  3  0  0  0  0  0  0
  195.6750  175.0450  139.8970 O   0  0  0  0  0  0  0  0  0  0  0  0
  195.4090  176.4380  143.2990 N   0  0  0  0  0  0  0  0  0  0  0  0
  196.8060  176.7910  143.5130 C   0  0  0  0  0  1  0  0  0  0  0  0
  192.6280  174.1190  144.3880 C   0  0  2  0  0  3  0  0  0  0  0  0
  194.2390  172.7790  140.7000 O   0  0  0  0  0  1  0  0  0  0  0  0
  193.6910  174.0630  140.7640 C   0  0  2  0  0  3  0  0  0  0  0  0
  190.9570  176.4000  146.3620 C   0  0  1  0  0  3  0  0  0  0  0  0
  189.7060  176.9180  147.0180 C   0  0  0  0  0  3  0  0  0  0  0  0
  191.7780  175.2940  147.4910 Cl  0  0  0  0  0  0  0  0  0  0  0  0
  189.6380  176.4950  144.2160 C   0  0  0  0  0  3  0  0  0  0  0  0
  187.6630  177.9160  144.0090 C   0  0  0  0  0  1  0  0  0  0  0  0
  190.6490  175.7140  145.0130 C   0  0  1  0  0  3  0  0  0  0  0  0
  188.6660  177.3310  146.2890 C   0  0  0  0  0  3  0  0  0  0  0  0
  188.6910  177.2150  144.8220 C   0  0  0  0  0  0  0  0  0  0  0  0
  193.7820  170.8340  143.3460 O   0  0  0  0  0  0  0  0  0  0  0  0
  194.7450  171.5170  143.7830 C   0  0  0  0  0  0  0  0  0  0  0  0
  195.8850  170.8620  144.3260 N   0  0  0  0  0  1  0  0  0  0  0  0
  194.7090  172.9430  143.7300 N   0  0  0  0  0  2  0  0  0  0  0  0
  191.7060  173.0970  144.6380 O   0  0  0  0  0  0  0  0  0  0  0  0
  189.4120  172.2910  143.6370 S   0  0  0  0  0  1  0  0  0  0  0  0
  191.1330  172.8050  143.3990 C   0  0  0  0  0  2  0  0  0  0  0  0
  1  3  1  1  0  0  0
  1 13  1  0  0  0  0
  1 21  1  0  0  0  0
  2 27  1  1  0  0  0
  2 13  1  0  0  0  0
  3  8  1  0  0  0  0
  5 10  1  0  0  0  0
  5 15  1  0  0  0  0
  6  4  1  6  0  0  0
  6 11  1  0  0  0  0
  7  8  1  0  0  0  0
  9  6  1  0  0  0  0
  9  2  1  0  0  0  0
 10  4  1  0  0  0  0
 11 12  1  0  0  0  0
 11  7  1  0  0  0  0
 13 28  1  0  0  0  0
 14 15  1  0  0  0  0
 15  9  1  0  0  0  0
 16 17  1  0  0  0  0
 16 18  1  0  0  0  0
 19 23  2  0  0  0  0
 19 21  1  0  0  0  0
 20 23  1  0  0  0  0
 21 16  1  0  0  0  0
 22 17  2  0  0  0  0
 23 22  1  0  0  0  0
 24 25  2  0  0  0  0
 25 26  1  0  0  0  0
 27 25  1  0  0  0  0
 30 29  1  0  0  0  0
 30 28  1  0  0  0  0
M  END
>  <MODEL>
6

>  <REMARK>
 VINA RESULT:      -6.0      1.887      2.405
  Name = 
  4 active torsions:
  status: ('A' for Active; 'I' for Inactive)
    1  A    between atoms: C_1  and  C_22
    2  A    between atoms: C_4  and  N_25
    3  A    between atoms: O_10  and  C_23
    4  A    between atoms: O_10  and  C_26
                            x       y       z     vdW  Elec       q    Type
                         _______ _______ _______ _____ _____    ______ ____

>  <TORSDO>
F 4

$$$$
=
 OpenBabel11052417113D

 30 32  0  0  1  0  0  0  0  0999 V2000
  192.6410  176.0070  144.6000 C   0  0  1  0  0  3  0  0  0  0  0  0
  193.4790  174.1230  143.0270 C   0  0  2  0  0  3  0  0  0  0  0  0
  193.9020  176.3770  145.1320 O   0  0  0  0  0  0  0  0  0  0  0  0
  197.2300  175.2390  142.6000 C   0  0  0  0  0  2  0  0  0  0  0  0
  196.0800  175.9210  140.8240 C   0  0  0  0  0  2  0  0  0  0  0  0
  196.0660  174.5450  143.3410 C   0  0  2  0  0  3  0  0  0  0  0  0
  195.1100  174.3290  145.5610 C   0  0  0  0  0  2  0  0  0  0  0  0
  194.2850  175.4720  146.1420 C   0  0  0  0  0  2  0  0  0  0  0  0
  194.7000  175.0280  142.7320 C   0  0  1  0  0  3  0  0  0  0  0  0
  197.1280  175.0790  141.2140 O   0  0  0  0  0  0  0  0  0  0  0  0
  196.2130  174.8600  144.7770 N   0  0  0  0  0  0  0  0  0  0  0  0
  197.3920  174.1660  145.2750 C   0  0  0  0  0  1  0  0  0  0  0  0
  192.4990  174.5360  144.1440 C   0  0  2  0  0  3  0  0  0  0  0  0
  194.6120  174.0820  140.4940 O   0  0  0  0  0  1  0  0  0  0  0  0
  194.7590  175.2740  141.2090 C   0  0  2  0  0  3  0  0  0  0  0  0
  190.4100  177.3300  144.4830 C   0  0  1  0  0  3  0  0  0  0  0  0
  189.1280  177.5890  145.2270 C   0  0  0  0  0  3  0  0  0  0  0  0
  191.0450  178.8820  143.8820 Cl  0  0  0  0  0  0  0  0  0  0  0  0
  190.7950  175.5000  146.1730 C   0  0  0  0  0  3  0  0  0  0  0  0
  188.9410  174.5410  147.4400 C   0  0  0  0  0  1  0  0  0  0  0  0
  191.4420  176.5950  145.3670 C   0  0  1  0  0  3  0  0  0  0  0  0
  188.7060  176.7560  146.1810 C   0  0  0  0  0  3  0  0  0  0  0  0
  189.5290  175.6030  146.5830 C   0  0  0  0  0  0  0  0  0  0  0  0
  192.3110  171.9890  141.5330 O   0  0  0  0  0  0  0  0  0  0  0  0
  193.2000  171.6960  142.3750 C   0  0  0  0  0  0  0  0  0  0  0  0
  193.5700  170.3350  142.5650 N   0  0  0  0  0  1  0  0  0  0  0  0
  193.8470  172.7160  143.1350 N   0  0  0  0  0  2  0  0  0  0  0  0
  191.1930  174.2980  143.7020 O   0  0  0  0  0  0  0  0  0  0  0  0
  189.4890  174.5430  141.7140 S   0  0  0  0  0  1  0  0  0  0  0  0
  191.1410  174.8160  142.4070 C   0  0  0  0  0  2  0  0  0  0  0  0
  1  3  1  1  0  0  0
  1 21  1  0  0  0  0
  2 27  1  1  0  0  0
  2 13  1  0  0  0  0
  3  8  1  0  0  0  0
  5 15  1  0  0  0  0
  5 10  1  0  0  0  0
  6  4  1  6  0  0  0
  6 11  1  0  0  0  0
  7  8  1  0  0  0  0
  9  2  1  0  0  0  0
  9  6  1  0  0  0  0
 10  4  1  0  0  0  0
 11 12  1  0  0  0  0
 11  7  1  0  0  0  0
 13  1  1  0  0  0  0
 14 15  1  0  0  0  0
 15  9  1  0  0  0  0
 16 17  1  0  0  0  0
 16 21  1  0  0  0  0
 17 22  2  0  0  0  0
 18 16  1  0  0  0  0
 19 23  2  0  0  0  0
 21 19  1  0  0  0  0
 22 23  1  0  0  0  0
 23 20  1  0  0  0  0
 24 25  2  0  0  0  0
 25 26  1  0  0  0  0
 25 27  1  0  0  0  0
 28 13  1  0  0  0  0
 29 30  1  0  0  0  0
 30 28  1  0  0  0  0
M  END
>  <MODEL>
7

>  <REMARK>
 VINA RESULT:      -5.8      2.140      2.911
  Name = 
  4 active torsions:
  status: ('A' for Active; 'I' for Inactive)
    1  A    between atoms: C_1  and  C_22
    2  A    between atoms: C_4  and  N_25
    3  A    between atoms: O_10  and  C_23
    4  A    between atoms: O_10  and  C_26
                            x       y       z     vdW  Elec       q    Type
                         _______ _______ _______ _____ _____    ______ ____

>  <TORSDO>
F 4

$$$$
=
 OpenBabel11052417113D

 30 32  0  0  1  0  0  0  0  0999 V2000
  192.0920  173.9660  145.0320 C   0  0  1  0  0  3  0  0  0  0  0  0
  194.4250  174.6110  144.1010 C   0  0  2  0  0  3  0  0  0  0  0  0
  192.1710  172.5740  144.7770 O   0  0  0  0  0  0  0  0  0  0  0  0
  196.2380  171.1300  144.3930 C   0  0  0  0  0  2  0  0  0  0  0  0
  196.8210  172.3820  146.1350 C   0  0  0  0  0  2  0  0  0  0  0  0
  195.3200  172.1610  143.7010 C   0  0  2  0  0  3  0  0  0  0  0  0
  193.1670  172.3180  142.5910 C   0  0  0  0  0  2  0  0  0  0  0  0
  191.8880  172.3150  143.4210 C   0  0  0  0  0  2  0  0  0  0  0  0
  194.9450  173.2930  144.7230 C   0  0  1  0  0  3  0  0  0  0  0  0
  197.3390  171.7450  145.0010 O   0  0  0  0  0  0  0  0  0  0  0  0
  194.1470  171.4240  143.1850 N   0  0  0  0  0  0  0  0  0  0  0  0
  194.5920  170.5760  142.0870 C   0  0  0  0  0  1  0  0  0  0  0  0
  192.9070  174.8790  144.0860 C   0  0  2  0  0  3  0  0  0  0  0  0
  197.0040  174.5230  145.1200 O   0  0  0  0  0  1  0  0  0  0  0  0
  196.0880  173.6410  145.7010 C   0  0  2  0  0  3  0  0  0  0  0  0
  190.6420  175.7040  146.3050 C   0  0  1  0  0  3  0  0  0  0  0  0
  189.2680  176.3170  146.3510 C   0  0  0  0  0  3  0  0  0  0  0  0
  191.1500  175.3170  147.9680 Cl  0  0  0  0  0  0  0  0  0  0  0  0
  189.9020  174.6820  144.1230 C   0  0  0  0  0  3  0  0  0  0  0  0
  188.0470  175.6320  142.8490 C   0  0  0  0  0  1  0  0  0  0  0  0
  190.6780  174.4580  145.3930 C   0  0  1  0  0  3  0  0  0  0  0  0
  188.4460  176.2420  145.3020 C   0  0  0  0  0  3  0  0  0  0  0  0
  188.8360  175.4870  144.0990 C   0  0  0  0  0  0  0  0  0  0  0  0
  196.0380  176.8800  143.4660 O   0  0  0  0  0  0  0  0  0  0  0  0
  195.8010  176.0550  142.5450 C   0  0  0  0  0  0  0  0  0  0  0  0
  196.3160  176.2870  141.2400 N   0  0  0  0  0  1  0  0  0  0  0  0
  195.0260  174.8840  142.8000 N   0  0  0  0  0  2  0  0  0  0  0  0
  192.6880  176.2220  144.4140 O   0  0  0  0  0  0  0  0  0  0  0  0
  191.2620  178.2530  143.5440 S   0  0  0  0  0  1  0  0  0  0  0  0
  192.3550  176.8460  143.2110 C   0  0  0  0  0  2  0  0  0  0  0  0
  1  3  1  6  0  0  0
  1 21  1  0  0  0  0
  2 27  1  6  0  0  0
  2  9  1  0  0  0  0
  4 10  1  0  0  0  0
  6  4  1  1  0  0  0
  6  9  1  0  0  0  0
  7 11  1  0  0  0  0
  7  8  1  0  0  0  0
  8  3  1  0  0  0  0
  9 15  1  0  0  0  0
 10  5  1  0  0  0  0
 11  6  1  0  0  0  0
 12 11  1  0  0  0  0
 13  2  1  0  0  0  0
 13 28  1  0  0  0  0
 13  1  1  0  0  0  0
 14 15  1  0  0  0  0
 15  5  1  0  0  0  0
 16 17  1  0  0  0  0
 16 18  1  0  0  0  0
 19 21  1  0  0  0  0
 20 23  1  0  0  0  0
 21 16  1  0  0  0  0
 22 17  2  0  0  0  0
 23 19  2  0  0  0  0
 23 22  1  0  0  0  0
 25 27  1  0  0  0  0
 25 24  2  0  0  0  0
 26 25  1  0  0  0  0
 30 29  1  0  0  0  0
 30 28  1  0  0  0  0
M  END
>  <MODEL>
8

>  <REMARK>
 VINA RESULT:      -5.7      2.753      4.597
  Name = 
  4 active torsions:
  status: ('A' for Active; 'I' for Inactive)
    1  A    between atoms: C_1  and  C_22
    2  A    between atoms: C_4  and  N_25
    3  A    between atoms: O_10  and  C_23
    4  A    between atoms: O_10  and  C_26
                            x       y       z     vdW  Elec       q    Type
                         _______ _______ _______ _____ _____    ______ ____

>  <TORSDO>
F 4

$$$$
=
 OpenBabel11052417113D

 30 32  0  0  1  0  0  0  0  0999 V2000
  190.5130  174.4020  142.9580 C   0  0  1  0  0  3  0  0  0  0  0  0
  192.3410  173.8230  141.2100 C   0  0  2  0  0  3  0  0  0  0  0  0
  189.5120  173.5230  142.4740 O   0  0  0  0  0  0  0  0  0  0  0  0
  191.0960  170.2550  140.1100 C   0  0  0  0  0  2  0  0  0  0  0  0
  192.7350  170.0090  141.5920 C   0  0  0  0  0  2  0  0  0  0  0  0
  191.0900  171.7980  140.0690 C   0  0  2  0  0  3  0  0  0  0  0  0
  189.5510  173.6750  140.0630 C   0  0  0  0  0  2  0  0  0  0  0  0
  188.8650  174.0930  141.3590 C   0  0  0  0  0  2  0  0  0  0  0  0
  191.8610  172.3550  141.3190 C   0  0  1  0  0  3  0  0  0  0  0  0
  192.3920  169.7480  140.2610 O   0  0  0  0  0  0  0  0  0  0  0  0
  189.6770  172.2270  140.0120 N   0  0  0  0  0  0  0  0  0  0  0  0
  189.1420  171.8520  138.7110 C   0  0  0  0  0  1  0  0  0  0  0  0
  191.5220  174.9270  141.9100 C   0  0  2  0  0  3  0  0  0  0  0  0
  194.1940  171.7740  140.9590 O   0  0  0  0  0  1  0  0  0  0  0  0
  193.0680  171.4860  141.7350 C   0  0  2  0  0  3  0  0  0  0  0  0
  188.7160  176.1790  143.5510 C   0  0  1  0  0  3  0  0  0  0  0  0
  188.0950  176.9180  144.7050 C   0  0  0  0  0  3  0  0  0  0  0  0
  189.0330  177.3380  142.2360 Cl  0  0  0  0  0  0  0  0  0  0  0  0
  189.8270  174.7570  145.3110 C   0  0  0  0  0  3  0  0  0  0  0  0
  188.9240  174.6170  147.5760 C   0  0  0  0  0  1  0  0  0  0  0  0
  190.0000  175.4340  143.9780 C   0  0  1  0  0  3  0  0  0  0  0  0
  188.2110  176.4650  145.9560 C   0  0  0  0  0  3  0  0  0  0  0  0
  189.0190  175.2680  146.2430 C   0  0  0  0  0  0  0  0  0  0  0  0
  194.8030  174.9990  140.3700 O   0  0  0  0  0  0  0  0  0  0  0  0
  193.9180  174.8060  139.4950 C   0  0  0  0  0  0  0  0  0  0  0  0
  194.1620  175.1930  138.1480 N   0  0  0  0  0  1  0  0  0  0  0  0
  192.6750  174.1960  139.8400 N   0  0  0  0  0  2  0  0  0  0  0  0
  192.4090  175.8270  142.5110 O   0  0  0  0  0  0  0  0  0  0  0  0
  193.9300  176.0780  144.6410 S   0  0  0  0  0  1  0  0  0  0  0  0
  193.2300  175.0460  143.3270 C   0  0  0  0  0  2  0  0  0  0  0  0
  1  3  1  6  0  0  0
  1 21  1  0  0  0  0
  2 27  1  6  0  0  0
  2  9  1  0  0  0  0
  2 13  1  0  0  0  0
  4 10  1  0  0  0  0
  5 15  1  0  0  0  0
  6  4  1  1  0  0  0
  6  9  1  0  0  0  0
  7  8  1  0  0  0  0
  8  3  1  0  0  0  0
  9 15  1  0  0  0  0
 10  5  1  0  0  0  0
 11  7  1  0  0  0  0
 11  6  1  0  0  0  0
 12 11  1  0  0  0  0
 13 28  1  0  0  0  0
 13  1  1  0  0  0  0
 14 15  1  0  0  0  0
 16 21  1  0  0  0  0
 16 17  1  0  0  0  0
 17 22  2  0  0  0  0
 18 16  1  0  0  0  0
 19 23  2  0  0  0  0
 21 19  1  0  0  0  0
 22 23  1  0  0  0  0
 23 20  1  0  0  0  0
 25 27  1  0  0  0  0
 25 24  2  0  0  0  0
 26 25  1  0  0  0  0
 28 30  1  0  0  0  0
 30 29  1  0  0  0  0
M  END
>  <MODEL>
9

>  <REMARK>
 VINA RESULT:      -5.5      3.209      5.376
  Name = 
  4 active torsions:
  status: ('A' for Active; 'I' for Inactive)
    1  A    between atoms: C_1  and  C_22
    2  A    between atoms: C_4  and  N_25
    3  A    between atoms: O_10  and  C_23
    4  A    between atoms: O_10  and  C_26
                            x       y       z     vdW  Elec       q    Type
                         _______ _______ _______ _____ _____    ______ ____

>  <TORSDO>
F 4

$$$$
