=
 OpenBabel11052417073D

 30 32  0  0  1  0  0  0  0  0999 V2000
  189.7910  176.3820  145.4780 C   0  0  0  0  0  0  0  0  0  0  0  0
  191.8920  176.4890  146.9260 C   0  0  2  0  0  3  0  0  0  0  0  0
  189.5040  175.7110  144.1810 C   0  0  1  0  0  3  0  0  0  0  0  0
  188.8220  176.9520  146.1970 C   0  0  0  0  0  3  0  0  0  0  0  0
  186.2340  177.3180  143.6600 N   0  0  0  0  0  2  0  0  0  0  0  0
  187.3270  176.9350  144.2400 C   0  0  0  0  0  0  0  0  0  0  0  0
  187.3930  176.8340  145.7530 C   0  0  2  0  0  3  0  0  0  0  0  0
  188.4350  176.4200  143.4600 N   0  0  0  0  0  0  0  0  0  0  0  0
  192.5890  175.1290  146.9220 C   0  0  0  0  0  2  0  0  0  0  0  0
  191.0400  176.5920  148.0270 O   0  0  0  0  0  1  0  0  0  0  0  0
  194.0140  175.6340  143.3020 C   0  0  0  0  0  1  0  0  0  0  0  0
  193.3980  174.8630  145.6380 C   0  0  0  0  0  2  0  0  0  0  0  0
  191.1670  176.6770  145.6640 N   0  0  0  0  0  0  0  0  0  0  0  0
  190.8640  175.7260  143.4610 C   0  0  1  0  0  3  0  0  0  0  0  0
  193.2890  175.9760  144.5910 C   0  0  2  0  0  3  0  0  0  0  0  0
  191.8490  176.4900  144.3890 C   0  0  2  0  0  3  0  0  0  0  0  0
  187.6690  175.2340  141.4360 C   0  0  0  0  0  1  0  0  0  0  0  0
  188.4330  176.4270  141.9930 C   0  0  1  0  0  3  0  0  0  0  0  0
  187.8960  177.7470  141.4540 C   0  0  0  0  0  2  0  0  0  0  0  0
  186.9830  177.5190  140.2600 C   0  0  0  0  0  2  0  0  0  0  0  0
  185.7990  178.2410  140.4140 O   0  0  0  0  0  1  0  0  0  0  0  0
  186.5730  177.9130  146.4540 C   0  0  0  0  0  2  0  0  0  0  0  0
  184.1190  178.3630  146.4320 C   0  0  0  0  0  1  0  0  0  0  0  0
  185.2030  177.3900  146.8580 C   0  0  0  0  0  2  0  0  0  0  0  0
  191.3070  174.3360  142.9570 C   0  0  1  0  0  3  0  0  0  0  0  0
  191.0050  172.6990  144.6730 O   0  0  0  0  0  0  0  0  0  0  0  0
  190.5970  173.1610  143.5760 C   0  0  0  0  0  0  0  0  0  0  0  0
  189.5280  172.5080  142.8970 N   0  0  0  0  0  1  0  0  0  0  0  0
  191.2520  174.2790  141.4620 C   0  0  0  0  0  3  0  0  0  0  0  0
  192.2000  173.6580  140.7650 C   0  0  0  0  0  2  0  0  0  0  0  0
  1 13  1  0  0  0  0
  1  4  2  0  0  0  0
  2 10  1  1  0  0  0
  3  1  1  1  0  0  0
  5  6  2  0  0  0  0
  6  7  1  0  0  0  0
  7  4  1  0  0  0  0
  7 22  1  1  0  0  0
  8  3  1  0  0  0  0
  8  6  1  0  0  0  0
  9  2  1  0  0  0  0
 12  9  1  0  0  0  0
 13  2  1  0  0  0  0
 14 25  1  1  0  0  0
 14  3  1  0  0  0  0
 14 16  1  0  0  0  0
 15 11  1  6  0  0  0
 15 12  1  0  0  0  0
 16 15  1  0  0  0  0
 16 13  1  1  0  0  0
 18 17  1  6  0  0  0
 18  8  1  0  0  0  0
 19 18  1  0  0  0  0
 20 21  1  0  0  0  0
 20 19  1  0  0  0  0
 22 24  1  0  0  0  0
 23 24  1  0  0  0  0
 25 29  1  6  0  0  0
 25 27  1  0  0  0  0
 27 26  2  0  0  0  0
 28 27  1  0  0  0  0
 30 29  2  0  0  0  0
M  END
>  <MODEL>
1

>  <REMARK>
 VINA RESULT:      -6.5      0.000      0.000
  Name = 
  8 active torsions:
  status: ('A' for Active; 'I' for Inactive)
    1  A    between atoms: C_7  and  C_16
    2  A    between atoms: C_7  and  C_30
    3  A    between atoms: C_9  and  C_12
    4  A    between atoms: C_9  and  C_21
    5  A    between atoms: C_10  and  C_25
    6  A    between atoms: C_11  and  C_25
    7  A    between atoms: N_13  and  C_30
    8  A    between atoms: C_23  and  C_25
                            x       y       z     vdW  Elec       q    Type
                         _______ _______ _______ _____ _____    ______ ____

>  <TORSDO>
F 8

$$$$
=
 OpenBabel11052417073D

 30 32  0  0  1  0  0  0  0  0999 V2000
  187.9510  176.0070  142.0550 C   0  0  0  0  0  0  0  0  0  0  0  0
  188.3380  174.2100  140.2810 C   0  0  2  0  0  3  0  0  0  0  0  0
  188.5970  176.2690  143.3690 C   0  0  1  0  0  3  0  0  0  0  0  0
  187.0920  176.8730  141.5150 C   0  0  0  0  0  3  0  0  0  0  0  0
  186.1850  178.8310  144.4500 N   0  0  0  0  0  2  0  0  0  0  0  0
  186.8170  177.9940  143.6910 C   0  0  0  0  0  0  0  0  0  0  0  0
  186.8390  178.1920  142.1860 C   0  0  2  0  0  3  0  0  0  0  0  0
  187.6670  176.9710  144.2690 N   0  0  0  0  0  0  0  0  0  0  0  0
  189.8350  173.9340  140.1470 C   0  0  0  0  0  2  0  0  0  0  0  0
  187.9350  175.1560  139.3380 O   0  0  0  0  0  1  0  0  0  0  0  0
  189.9710  171.8860  143.4910 C   0  0  0  0  0  1  0  0  0  0  0  0
  190.3950  173.0450  141.2750 C   0  0  0  0  0  2  0  0  0  0  0  0
  188.0360  174.6500  141.6480 N   0  0  0  0  0  0  0  0  0  0  0  0
  189.0030  174.8670  143.8550 C   0  0  1  0  0  3  0  0  0  0  0  0
  189.3630  172.6730  142.3450 C   0  0  2  0  0  3  0  0  0  0  0  0
  188.4840  173.8610  142.7900 C   0  0  2  0  0  3  0  0  0  0  0  0
  188.6280  177.7920  146.3870 C   0  0  0  0  0  1  0  0  0  0  0  0
  187.7520  176.7450  145.7160 C   0  0  1  0  0  3  0  0  0  0  0  0
  186.3630  176.6820  146.3410 C   0  0  0  0  0  2  0  0  0  0  0  0
  186.3150  177.4620  147.6440 C   0  0  0  0  0  2  0  0  0  0  0  0
  185.2200  178.3270  147.6470 O   0  0  0  0  0  1  0  0  0  0  0  0
  185.5330  178.7700  141.6480 C   0  0  0  0  0  2  0  0  0  0  0  0
  183.5350  178.0850  140.3200 C   0  0  0  0  0  1  0  0  0  0  0  0
  185.0450  177.9950  140.4330 C   0  0  0  0  0  2  0  0  0  0  0  0
  190.4900  174.7630  144.2550 C   0  0  1  0  0  3  0  0  0  0  0  0
  191.7940  175.9220  142.6200 O   0  0  0  0  0  0  0  0  0  0  0  0
  191.3690  175.9000  143.8040 C   0  0  0  0  0  0  0  0  0  0  0  0
  191.7980  176.9050  144.7190 N   0  0  0  0  0  1  0  0  0  0  0  0
  190.6210  174.5260  145.7270 C   0  0  0  0  0  3  0  0  0  0  0  0
  189.6030  174.0450  146.4370 C   0  0  0  0  0  2  0  0  0  0  0  0
  2 10  1  6  0  0  0
  2 13  1  0  0  0  0
  3  1  1  6  0  0  0
  3 14  1  0  0  0  0
  3  8  1  0  0  0  0
  4  1  2  0  0  0  0
  4  7  1  0  0  0  0
  6  8  1  0  0  0  0
  6  5  2  0  0  0  0
  7 22  1  6  0  0  0
  7  6  1  0  0  0  0
  8 18  1  0  0  0  0
  9  2  1  0  0  0  0
  9 12  1  0  0  0  0
 12 15  1  0  0  0  0
 13  1  1  0  0  0  0
 14 25  1  6  0  0  0
 15 16  1  0  0  0  0
 15 11  1  1  0  0  0
 16 13  1  6  0  0  0
 16 14  1  0  0  0  0
 18 19  1  0  0  0  0
 18 17  1  1  0  0  0
 19 20  1  0  0  0  0
 20 21  1  0  0  0  0
 23 24  1  0  0  0  0
 24 22  1  0  0  0  0
 25 29  1  1  0  0  0
 26 27  2  0  0  0  0
 27 25  1  0  0  0  0
 27 28  1  0  0  0  0
 29 30  2  0  0  0  0
M  END
>  <MODEL>
2

>  <REMARK>
 VINA RESULT:      -6.2      2.201      5.205
  Name = 
  8 active torsions:
  status: ('A' for Active; 'I' for Inactive)
    1  A    between atoms: C_7  and  C_16
    2  A    between atoms: C_7  and  C_30
    3  A    between atoms: C_9  and  C_12
    4  A    between atoms: C_9  and  C_21
    5  A    between atoms: C_10  and  C_25
    6  A    between atoms: C_11  and  C_25
    7  A    between atoms: N_13  and  C_30
    8  A    between atoms: C_23  and  C_25
                            x       y       z     vdW  Elec       q    Type
                         _______ _______ _______ _____ _____    ______ ____

>  <TORSDO>
F 8

$$$$
=
 OpenBabel11052417073D

 30 32  0  0  1  0  0  0  0  0999 V2000
  188.7330  174.8050  142.1710 C   0  0  0  0  0  0  0  0  0  0  0  0
  188.8510  172.7000  140.7300 C   0  0  2  0  0  3  0  0  0  0  0  0
  189.6760  175.3930  143.1600 C   0  0  1  0  0  3  0  0  0  0  0  0
  187.6500  175.4670  141.7610 C   0  0  0  0  0  3  0  0  0  0  0  0
  187.3370  177.9420  144.4150 N   0  0  0  0  0  2  0  0  0  0  0  0
  187.8410  177.0100  143.6710 C   0  0  0  0  0  0  0  0  0  0  0  0
  187.4180  176.8780  142.2190 C   0  0  2  0  0  3  0  0  0  0  0  0
  188.9460  176.2030  144.1490 N   0  0  0  0  0  0  0  0  0  0  0  0
  190.2760  172.5120  140.2080 C   0  0  0  0  0  2  0  0  0  0  0  0
  188.0800  173.3860  139.7900 O   0  0  0  0  0  1  0  0  0  0  0  0
  191.6050  171.2550  143.6780 C   0  0  0  0  0  1  0  0  0  0  0  0
  191.2390  171.9340  141.2630 C   0  0  0  0  0  2  0  0  0  0  0  0
  188.8840  173.4020  142.0170 N   0  0  0  0  0  0  0  0  0  0  0  0
  190.3850  174.1640  143.7540 C   0  0  1  0  0  3  0  0  0  0  0  0
  190.6040  171.7280  142.6410 C   0  0  2  0  0  3  0  0  0  0  0  0
  189.7320  172.9150  143.0990 C   0  0  2  0  0  3  0  0  0  0  0  0
  189.9370  177.7140  145.8280 C   0  0  0  0  0  1  0  0  0  0  0  0
  189.4580  176.3030  145.5200 C   0  0  1  0  0  3  0  0  0  0  0  0
  188.4180  175.8240  146.5270 C   0  0  0  0  0  2  0  0  0  0  0  0
  188.9680  174.6960  147.3840 C   0  0  0  0  0  2  0  0  0  0  0  0
  190.2710  174.9890  147.7890 O   0  0  0  0  0  1  0  0  0  0  0  0
  185.9480  177.2270  141.9980 C   0  0  0  0  0  2  0  0  0  0  0  0
  184.3050  178.3670  140.5060 C   0  0  0  0  0  1  0  0  0  0  0  0
  185.7350  177.8780  140.6390 C   0  0  0  0  0  2  0  0  0  0  0  0
  191.9250  174.2600  143.7040 C   0  0  1  0  0  3  0  0  0  0  0  0
  192.6610  174.9460  141.5350 O   0  0  0  0  0  0  0  0  0  0  0  0
  192.4850  175.2700  142.7380 C   0  0  0  0  0  0  0  0  0  0  0  0
  192.9020  176.5580  143.1820 N   0  0  0  0  0  1  0  0  0  0  0  0
  192.4820  174.4560  145.0790 C   0  0  0  0  0  3  0  0  0  0  0  0
  193.5620  173.7910  145.4820 C   0  0  0  0  0  2  0  0  0  0  0  0
  2 10  1  6  0  0  0
  2 13  1  0  0  0  0
  3  1  1  6  0  0  0
  3 14  1  0  0  0  0
  3  8  1  0  0  0  0
  4  1  2  0  0  0  0
  4  7  1  0  0  0  0
  6  8  1  0  0  0  0
  6  5  2  0  0  0  0
  7 22  1  1  0  0  0
  7  6  1  0  0  0  0
  8 18  1  0  0  0  0
  9  2  1  0  0  0  0
  9 12  1  0  0  0  0
 12 15  1  0  0  0  0
 13  1  1  0  0  0  0
 14 25  1  6  0  0  0
 15 16  1  0  0  0  0
 15 11  1  1  0  0  0
 16 13  1  6  0  0  0
 16 14  1  0  0  0  0
 18 17  1  1  0  0  0
 18 19  1  0  0  0  0
 19 20  1  0  0  0  0
 20 21  1  0  0  0  0
 23 24  1  0  0  0  0
 24 22  1  0  0  0  0
 25 29  1  1  0  0  0
 26 27  2  0  0  0  0
 27 28  1  0  0  0  0
 27 25  1  0  0  0  0
 29 30  2  0  0  0  0
M  END
>  <MODEL>
3

>  <REMARK>
 VINA RESULT:      -5.9      2.229      5.193
  Name = 
  8 active torsions:
  status: ('A' for Active; 'I' for Inactive)
    1  A    between atoms: C_7  and  C_16
    2  A    between atoms: C_7  and  C_30
    3  A    between atoms: C_9  and  C_12
    4  A    between atoms: C_9  and  C_21
    5  A    between atoms: C_10  and  C_25
    6  A    between atoms: C_11  and  C_25
    7  A    between atoms: N_13  and  C_30
    8  A    between atoms: C_23  and  C_25
                            x       y       z     vdW  Elec       q    Type
                         _______ _______ _______ _____ _____    ______ ____

>  <TORSDO>
F 8

$$$$
=
 OpenBabel11052417073D

 30 32  0  0  1  0  0  0  0  0999 V2000
  192.8240  172.7630  144.1710 C   0  0  0  0  0  0  0  0  0  0  0  0
  191.1760  171.5320  142.6560 C   0  0  2  0  0  3  0  0  0  0  0  0
  192.7360  174.0560  144.9000 C   0  0  1  0  0  3  0  0  0  0  0  0
  193.8390  171.9200  144.3660 C   0  0  0  0  0  3  0  0  0  0  0  0
  196.2810  174.1570  145.8820 N   0  0  0  0  0  2  0  0  0  0  0  0
  195.1540  173.7120  145.4270 C   0  0  0  0  0  0  0  0  0  0  0  0
  194.8700  172.2210  145.4150 C   0  0  2  0  0  3  0  0  0  0  0  0
  194.0780  174.6270  145.1000 N   0  0  0  0  0  0  0  0  0  0  0  0
  189.7600  171.6780  143.2100 C   0  0  0  0  0  2  0  0  0  0  0  0
  191.7540  170.3460  143.1120 O   0  0  0  0  0  1  0  0  0  0  0  0
  189.4380  175.3930  141.9920 C   0  0  0  0  0  1  0  0  0  0  0  0
  189.1260  173.0500  142.9100 C   0  0  0  0  0  2  0  0  0  0  0  0
  191.9780  172.7020  143.0320 N   0  0  0  0  0  0  0  0  0  0  0  0
  191.8170  174.9090  144.0080 C   0  0  1  0  0  3  0  0  0  0  0  0
  190.0590  174.0210  142.1800 C   0  0  2  0  0  3  0  0  0  0  0  0
  191.4900  174.0480  142.7560 C   0  0  2  0  0  3  0  0  0  0  0  0
  194.3040  176.5950  146.5700 C   0  0  0  0  0  1  0  0  0  0  0  0
  194.2460  176.0840  145.1390 C   0  0  1  0  0  3  0  0  0  0  0  0
  195.4650  176.5140  144.3320 C   0  0  0  0  0  2  0  0  0  0  0  0
  195.2980  176.1680  142.8620 C   0  0  0  0  0  2  0  0  0  0  0  0
  196.2630  176.8260  142.0980 O   0  0  0  0  0  1  0  0  0  0  0  0
  196.1150  171.3850  145.1310 C   0  0  0  0  0  2  0  0  0  0  0  0
  195.9550  169.1750  146.2790 C   0  0  0  0  0  1  0  0  0  0  0  0
  196.5280  170.5780  146.3540 C   0  0  0  0  0  2  0  0  0  0  0  0
  190.6250  175.5270  144.7680 C   0  0  1  0  0  3  0  0  0  0  0  0
  189.5230  173.8880  146.1150 O   0  0  0  0  0  0  0  0  0  0  0  0
  190.2890  174.8860  146.0890 C   0  0  0  0  0  0  0  0  0  0  0  0
  190.7530  175.4430  147.3150 N   0  0  0  0  0  1  0  0  0  0  0  0
  190.8060  177.0060  144.9130 C   0  0  0  0  0  3  0  0  0  0  0  0
  189.7880  177.8420  144.7270 C   0  0  0  0  0  2  0  0  0  0  0  0
  1  4  2  0  0  0  0
  2 13  1  0  0  0  0
  2 10  1  1  0  0  0
  2  9  1  0  0  0  0
  3  1  1  6  0  0  0
  3  8  1  0  0  0  0
  4  7  1  0  0  0  0
  6  5  2  0  0  0  0
  7 22  1  6  0  0  0
  7  6  1  0  0  0  0
  8 18  1  0  0  0  0
  8  6  1  0  0  0  0
 12  9  1  0  0  0  0
 13  1  1  0  0  0  0
 14 25  1  1  0  0  0
 14  3  1  0  0  0  0
 15 11  1  1  0  0  0
 15 16  1  0  0  0  0
 15 12  1  0  0  0  0
 16 13  1  1  0  0  0
 16 14  1  0  0  0  0
 18 17  1  1  0  0  0
 19 18  1  0  0  0  0
 20 19  1  0  0  0  0
 21 20  1  0  0  0  0
 22 24  1  0  0  0  0
 23 24  1  0  0  0  0
 25 29  1  1  0  0  0
 25 27  1  0  0  0  0
 27 26  2  0  0  0  0
 27 28  1  0  0  0  0
 30 29  2  0  0  0  0
M  END
>  <MODEL>
4

>  <REMARK>
 VINA RESULT:      -5.7      3.189      7.440
  Name = 
  8 active torsions:
  status: ('A' for Active; 'I' for Inactive)
    1  A    between atoms: C_7  and  C_16
    2  A    between atoms: C_7  and  C_30
    3  A    between atoms: C_9  and  C_12
    4  A    between atoms: C_9  and  C_21
    5  A    between atoms: C_10  and  C_25
    6  A    between atoms: C_11  and  C_25
    7  A    between atoms: N_13  and  C_30
    8  A    between atoms: C_23  and  C_25
                            x       y       z     vdW  Elec       q    Type
                         _______ _______ _______ _____ _____    ______ ____

>  <TORSDO>
F 8

$$$$
=
 OpenBabel11052417073D

 30 32  0  0  1  0  0  0  0  0999 V2000
  192.5680  174.6470  143.2120 C   0  0  0  0  0  0  0  0  0  0  0  0
  194.1230  174.8130  145.2320 C   0  0  2  0  0  3  0  0  0  0  0  0
  191.1930  175.1570  142.9650 C   0  0  1  0  0  3  0  0  0  0  0  0
  193.2970  174.1050  142.2340 C   0  0  0  0  0  3  0  0  0  0  0  0
  190.6900  173.3250  139.8130 N   0  0  0  0  0  2  0  0  0  0  0  0
  191.2780  173.8280  140.8510 C   0  0  0  0  0  0  0  0  0  0  0  0
  192.7720  174.0960  140.8280 C   0  0  2  0  0  3  0  0  0  0  0  0
  190.5020  174.3170  141.9730 N   0  0  0  0  0  0  0  0  0  0  0  0
  194.0030  176.2010  145.8600 C   0  0  0  0  0  2  0  0  0  0  0  0
  195.1850  174.7830  144.3260 O   0  0  0  0  0  1  0  0  0  0  0  0
  190.5370  175.3870  147.5080 C   0  0  0  0  0  1  0  0  0  0  0  0
  192.7390  176.3710  146.7250 C   0  0  0  0  0  2  0  0  0  0  0  0
  192.8550  174.4500  144.5880 N   0  0  0  0  0  0  0  0  0  0  0  0
  190.5480  175.1400  144.3620 C   0  0  1  0  0  3  0  0  0  0  0  0
  191.8180  175.1480  146.7300 C   0  0  2  0  0  3  0  0  0  0  0  0
  191.6030  174.5360  145.3300 C   0  0  2  0  0  3  0  0  0  0  0  0
  188.3360  175.0010  141.0110 C   0  0  0  0  0  1  0  0  0  0  0  0
  189.0470  174.1510  142.0540 C   0  0  1  0  0  3  0  0  0  0  0  0
  188.6580  172.6810  141.9490 C   0  0  0  0  0  2  0  0  0  0  0  0
  189.2600  171.8750  143.0880 C   0  0  0  0  0  2  0  0  0  0  0  0
  190.1660  170.9380  142.5880 O   0  0  0  0  0  1  0  0  0  0  0  0
  193.5470  173.0550  140.0250 C   0  0  0  0  0  2  0  0  0  0  0  0
  195.9660  173.4900  139.5960 C   0  0  0  0  0  1  0  0  0  0  0  0
  194.9620  172.8860  140.5590 C   0  0  0  0  0  2  0  0  0  0  0  0
  189.9160  176.4890  144.7630 C   0  0  1  0  0  3  0  0  0  0  0  0
  191.2490  178.3760  144.1470 O   0  0  0  0  0  0  0  0  0  0  0  0
  190.2530  177.6580  143.8740 C   0  0  0  0  0  0  0  0  0  0  0  0
  189.4110  178.0160  142.7820 N   0  0  0  0  0  1  0  0  0  0  0  0
  188.4360  176.3450  144.9330 C   0  0  0  0  0  3  0  0  0  0  0  0
  187.7670  177.1080  145.7930 C   0  0  0  0  0  2  0  0  0  0  0  0
  1 13  1  0  0  0  0
  2 10  1  6  0  0  0
  2  9  1  0  0  0  0
  3  1  1  1  0  0  0
  3 14  1  0  0  0  0
  4  1  2  0  0  0  0
  5  6  2  0  0  0  0
  6  8  1  0  0  0  0
  7 22  1  6  0  0  0
  7  6  1  0  0  0  0
  7  4  1  0  0  0  0
  8 18  1  0  0  0  0
  8  3  1  0  0  0  0
  9 12  1  0  0  0  0
 12 15  1  0  0  0  0
 13  2  1  0  0  0  0
 14 25  1  1  0  0  0
 14 16  1  0  0  0  0
 15 11  1  6  0  0  0
 16 13  1  6  0  0  0
 16 15  1  0  0  0  0
 18 17  1  6  0  0  0
 19 18  1  0  0  0  0
 19 20  1  0  0  0  0
 21 20  1  0  0  0  0
 22 24  1  0  0  0  0
 23 24  1  0  0  0  0
 25 29  1  6  0  0  0
 27 26  2  0  0  0  0
 27 25  1  0  0  0  0
 28 27  1  0  0  0  0
 29 30  2  0  0  0  0
M  END
>  <MODEL>
5

>  <REMARK>
 VINA RESULT:      -5.6      2.364      6.157
  Name = 
  8 active torsions:
  status: ('A' for Active; 'I' for Inactive)
    1  A    between atoms: C_7  and  C_16
    2  A    between atoms: C_7  and  C_30
    3  A    between atoms: C_9  and  C_12
    4  A    between atoms: C_9  and  C_21
    5  A    between atoms: C_10  and  C_25
    6  A    between atoms: C_11  and  C_25
    7  A    between atoms: N_13  and  C_30
    8  A    between atoms: C_23  and  C_25
                            x       y       z     vdW  Elec       q    Type
                         _______ _______ _______ _____ _____    ______ ____

>  <TORSDO>
F 8

$$$$
=
 OpenBabel11052417073D

 30 32  0  0  1  0  0  0  0  0999 V2000
  189.5290  174.8400  143.4230 C   0  0  0  0  0  0  0  0  0  0  0  0
  188.5920  172.7340  142.3230 C   0  0  2  0  0  3  0  0  0  0  0  0
  190.9170  175.2600  143.7580 C   0  0  1  0  0  3  0  0  0  0  0  0
  188.5000  175.6810  143.5360 C   0  0  0  0  0  3  0  0  0  0  0  0
  189.9340  178.1970  145.7450 N   0  0  0  0  0  2  0  0  0  0  0  0
  189.8510  177.1830  144.9450 C   0  0  0  0  0  0  0  0  0  0  0  0
  188.7430  177.1140  143.9100 C   0  0  2  0  0  3  0  0  0  0  0  0
  190.9120  176.1960  144.8940 N   0  0  0  0  0  0  0  0  0  0  0  0
  189.5170  172.2900  141.1900 C   0  0  0  0  0  2  0  0  0  0  0  0
  187.5670  173.5380  141.8230 O   0  0  0  0  0  1  0  0  0  0  0  0
  192.2010  170.8480  143.6620 C   0  0  0  0  0  1  0  0  0  0  0  0
  190.7800  171.5590  141.6850 C   0  0  0  0  0  2  0  0  0  0  0  0
  189.3710  173.4310  143.3530 N   0  0  0  0  0  0  0  0  0  0  0  0
  191.6350  173.9290  144.0430 C   0  0  1  0  0  3  0  0  0  0  0  0
  190.8980  171.4830  143.2100 C   0  0  2  0  0  3  0  0  0  0  0  0
  190.5620  172.8110  143.9200 C   0  0  2  0  0  3  0  0  0  0  0  0
  193.1370  177.1650  145.3350 C   0  0  0  0  0  1  0  0  0  0  0  0
  192.0500  176.2160  145.8190 C   0  0  1  0  0  3  0  0  0  0  0  0
  191.5960  176.5470  147.2350 C   0  0  0  0  0  2  0  0  0  0  0  0
  191.1910  175.2900  147.9870 C   0  0  0  0  0  2  0  0  0  0  0  0
  189.8930  174.9170  147.6380 O   0  0  0  0  0  1  0  0  0  0  0  0
  187.4330  177.7190  144.4070 C   0  0  0  0  0  2  0  0  0  0  0  0
  185.3730  177.3470  145.7650 C   0  0  0  0  0  1  0  0  0  0  0  0
  186.7280  176.7840  145.3790 C   0  0  0  0  0  2  0  0  0  0  0  0
  192.9360  173.7480  143.2330 C   0  0  1  0  0  3  0  0  0  0  0  0
  192.5150  174.4050  140.9740 O   0  0  0  0  0  0  0  0  0  0  0  0
  193.1050  174.6690  142.0530 C   0  0  0  0  0  0  0  0  0  0  0  0
  193.9890  175.7840  142.1120 N   0  0  0  0  0  1  0  0  0  0  0  0
  194.1280  173.8010  144.1380 C   0  0  0  0  0  3  0  0  0  0  0  0
  194.0590  173.3480  145.3880 C   0  0  0  0  0  2  0  0  0  0  0  0
  1  4  2  0  0  0  0
  2 10  1  6  0  0  0
  2 13  1  0  0  0  0
  3  1  1  1  0  0  0
  3 14  1  0  0  0  0
  3  8  1  0  0  0  0
  4  7  1  0  0  0  0
  6  5  2  0  0  0  0
  7 22  1  1  0  0  0
  7  6  1  0  0  0  0
  8  6  1  0  0  0  0
  8 18  1  0  0  0  0
  9 12  1  0  0  0  0
  9  2  1  0  0  0  0
 12 15  1  0  0  0  0
 13  1  1  0  0  0  0
 14 25  1  6  0  0  0
 15 11  1  6  0  0  0
 15 16  1  0  0  0  0
 16 13  1  6  0  0  0
 16 14  1  0  0  0  0
 18 17  1  6  0  0  0
 18 19  1  0  0  0  0
 19 20  1  0  0  0  0
 21 20  1  0  0  0  0
 22 24  1  0  0  0  0
 24 23  1  0  0  0  0
 25 29  1  1  0  0  0
 26 27  2  0  0  0  0
 27 28  1  0  0  0  0
 27 25  1  0  0  0  0
 29 30  2  0  0  0  0
M  END
>  <MODEL>
6

>  <REMARK>
 VINA RESULT:      -5.5      2.180      4.983
  Name = 
  8 active torsions:
  status: ('A' for Active; 'I' for Inactive)
    1  A    between atoms: C_7  and  C_16
    2  A    between atoms: C_7  and  C_30
    3  A    between atoms: C_9  and  C_12
    4  A    between atoms: C_9  and  C_21
    5  A    between atoms: C_10  and  C_25
    6  A    between atoms: C_11  and  C_25
    7  A    between atoms: N_13  and  C_30
    8  A    between atoms: C_23  and  C_25
                            x       y       z     vdW  Elec       q    Type
                         _______ _______ _______ _____ _____    ______ ____

>  <TORSDO>
F 8

$$$$
=
 OpenBabel11052417073D

 30 32  0  0  1  0  0  0  0  0999 V2000
  191.3830  175.3240  145.1900 C   0  0  0  0  0  0  0  0  0  0  0  0
  190.9290  176.2700  147.5190 C   0  0  2  0  0  3  0  0  0  0  0  0
  190.6160  175.3920  143.9170 C   0  0  1  0  0  3  0  0  0  0  0  0
  192.6210  174.8280  145.2330 C   0  0  0  0  0  3  0  0  0  0  0  0
  192.6930  172.9450  142.1150 N   0  0  0  0  0  2  0  0  0  0  0  0
  192.2980  173.7690  143.0330 C   0  0  0  0  0  0  0  0  0  0  0  0
  193.3070  174.4200  143.9620 C   0  0  2  0  0  3  0  0  0  0  0  0
  190.9230  174.2290  143.0680 N   0  0  0  0  0  0  0  0  0  0  0  0
  190.3190  177.6660  147.3980 C   0  0  0  0  0  2  0  0  0  0  0  0
  192.3140  176.3600  147.6740 O   0  0  0  0  0  1  0  0  0  0  0  0
  186.8090  176.2680  146.3380 C   0  0  0  0  0  1  0  0  0  0  0  0
  188.8220  177.6460  147.0330 C   0  0  0  0  0  2  0  0  0  0  0  0
  190.5690  175.4680  146.3440 N   0  0  0  0  0  0  0  0  0  0  0  0
  189.1510  175.4590  144.3850 C   0  0  1  0  0  3  0  0  0  0  0  0
  188.2570  176.2430  146.7940 C   0  0  2  0  0  3  0  0  0  0  0  0
  189.1750  175.3490  145.9350 C   0  0  2  0  0  3  0  0  0  0  0  0
  190.1890  174.0500  140.7200 C   0  0  0  0  0  1  0  0  0  0  0  0
  189.8930  173.6970  142.1700 C   0  0  1  0  0  3  0  0  0  0  0  0
  189.7210  172.1960  142.3660 C   0  0  0  0  0  2  0  0  0  0  0  0
  188.9660  171.8950  143.6500 C   0  0  0  0  0  2  0  0  0  0  0  0
  189.8450  171.8800  144.7340 O   0  0  0  0  0  1  0  0  0  0  0  0
  194.4700  173.4960  144.3100 C   0  0  0  0  0  2  0  0  0  0  0  0
  194.0660  171.2020  145.2040 C   0  0  0  0  0  1  0  0  0  0  0  0
  194.1690  172.6740  145.5550 C   0  0  0  0  0  2  0  0  0  0  0  0
  188.3660  176.6390  143.7750 C   0  0  1  0  0  3  0  0  0  0  0  0
  190.0190  178.3590  143.9340 O   0  0  0  0  0  0  0  0  0  0  0  0
  189.2020  177.7500  143.1960 C   0  0  0  0  0  0  0  0  0  0  0  0
  189.0200  178.1820  141.8500 N   0  0  0  0  0  1  0  0  0  0  0  0
  187.3610  176.1430  142.7830 C   0  0  0  0  0  3  0  0  0  0  0  0
  186.1020  176.5740  142.8080 C   0  0  0  0  0  2  0  0  0  0  0  0
  1  4  2  0  0  0  0
  1 13  1  0  0  0  0
  2 10  1  6  0  0  0
  3 14  1  0  0  0  0
  3  1  1  1  0  0  0
  5  6  2  0  0  0  0
  6  8  1  0  0  0  0
  6  7  1  0  0  0  0
  7 22  1  1  0  0  0
  7  4  1  0  0  0  0
  8  3  1  0  0  0  0
  9  2  1  0  0  0  0
 12  9  1  0  0  0  0
 13  2  1  0  0  0  0
 14 25  1  1  0  0  0
 14 16  1  0  0  0  0
 15 11  1  6  0  0  0
 15 12  1  0  0  0  0
 16 13  1  1  0  0  0
 16 15  1  0  0  0  0
 18 17  1  6  0  0  0
 18 19  1  0  0  0  0
 18  8  1  0  0  0  0
 19 20  1  0  0  0  0
 20 21  1  0  0  0  0
 22 24  1  0  0  0  0
 23 24  1  0  0  0  0
 25 29  1  6  0  0  0
 27 25  1  0  0  0  0
 27 26  2  0  0  0  0
 28 27  1  0  0  0  0
 29 30  2  0  0  0  0
M  END
>  <MODEL>
7

>  <REMARK>
 VINA RESULT:      -5.5      2.022      5.851
  Name = 
  8 active torsions:
  status: ('A' for Active; 'I' for Inactive)
    1  A    between atoms: C_7  and  C_16
    2  A    between atoms: C_7  and  C_30
    3  A    between atoms: C_9  and  C_12
    4  A    between atoms: C_9  and  C_21
    5  A    between atoms: C_10  and  C_25
    6  A    between atoms: C_11  and  C_25
    7  A    between atoms: N_13  and  C_30
    8  A    between atoms: C_23  and  C_25
                            x       y       z     vdW  Elec       q    Type
                         _______ _______ _______ _____ _____    ______ ____

>  <TORSDO>
F 8

$$$$
=
 OpenBabel11052417073D

 30 32  0  0  1  0  0  0  0  0999 V2000
  193.6610  175.2920  142.9140 C   0  0  0  0  0  0  0  0  0  0  0  0
  195.2250  175.8800  144.8450 C   0  0  2  0  0  3  0  0  0  0  0  0
  192.1820  175.3650  142.7680 C   0  0  1  0  0  3  0  0  0  0  0  0
  194.4510  175.0190  141.8740 C   0  0  0  0  0  3  0  0  0  0  0  0
  192.0440  173.5350  139.5780 N   0  0  0  0  0  2  0  0  0  0  0  0
  192.5220  174.1710  140.6000 C   0  0  0  0  0  0  0  0  0  0  0  0
  193.8600  174.8810  140.5020 C   0  0  2  0  0  3  0  0  0  0  0  0
  191.7120  174.3760  141.7850 N   0  0  0  0  0  0  0  0  0  0  0  0
  194.7350  177.1520  145.5360 C   0  0  0  0  0  2  0  0  0  0  0  0
  196.1830  176.1940  143.8790 O   0  0  0  0  0  1  0  0  0  0  0  0
  191.7960  175.2880  147.3470 C   0  0  0  0  0  1  0  0  0  0  0  0
  193.5400  176.9120  146.4790 C   0  0  0  0  0  2  0  0  0  0  0  0
  194.0860  175.1630  144.2620 N   0  0  0  0  0  0  0  0  0  0  0  0
  191.6690  175.1230  144.1980 C   0  0  1  0  0  3  0  0  0  0  0  0
  193.0340  175.4660  146.4870 C   0  0  2  0  0  3  0  0  0  0  0  0
  192.9200  174.8480  145.0780 C   0  0  2  0  0  3  0  0  0  0  0  0
  189.3650  174.4370  141.0270 C   0  0  0  0  0  1  0  0  0  0  0  0
  190.3830  173.7740  141.9430 C   0  0  1  0  0  3  0  0  0  0  0  0
  190.4390  172.2660  141.7330 C   0  0  0  0  0  2  0  0  0  0  0  0
  189.6000  171.5380  142.7690 C   0  0  0  0  0  2  0  0  0  0  0  0
  189.7660  172.1270  144.0240 O   0  0  0  0  0  1  0  0  0  0  0  0
  194.8570  174.1420  139.6130 C   0  0  0  0  0  2  0  0  0  0  0  0
  197.2860  174.4850  139.1590 C   0  0  0  0  0  1  0  0  0  0  0  0
  196.2520  174.1560  140.2190 C   0  0  0  0  0  2  0  0  0  0  0  0
  190.6870  176.2070  144.6900 C   0  0  1  0  0  3  0  0  0  0  0  0
  191.4650  178.3730  144.0420 O   0  0  0  0  0  0  0  0  0  0  0  0
  190.6220  177.4580  143.8530 C   0  0  0  0  0  0  0  0  0  0  0  0
  189.5710  177.6590  142.9130 N   0  0  0  0  0  1  0  0  0  0  0  0
  189.3250  175.6230  144.9020 C   0  0  0  0  0  3  0  0  0  0  0  0
  188.5520  176.0320  145.9050 C   0  0  0  0  0  2  0  0  0  0  0  0
  1 13  1  0  0  0  0
  2 10  1  6  0  0  0
  2  9  1  0  0  0  0
  3  1  1  1  0  0  0
  3 14  1  0  0  0  0
  4  1  2  0  0  0  0
  5  6  2  0  0  0  0
  6  8  1  0  0  0  0
  7 22  1  6  0  0  0
  7  6  1  0  0  0  0
  7  4  1  0  0  0  0
  8 18  1  0  0  0  0
  8  3  1  0  0  0  0
  9 12  1  0  0  0  0
 12 15  1  0  0  0  0
 13  2  1  0  0  0  0
 14 25  1  1  0  0  0
 14 16  1  0  0  0  0
 15 11  1  6  0  0  0
 16 13  1  6  0  0  0
 16 15  1  0  0  0  0
 18 17  1  6  0  0  0
 19 18  1  0  0  0  0
 19 20  1  0  0  0  0
 20 21  1  0  0  0  0
 22 24  1  0  0  0  0
 23 24  1  0  0  0  0
 25 29  1  6  0  0  0
 27 26  2  0  0  0  0
 27 25  1  0  0  0  0
 28 27  1  0  0  0  0
 29 30  2  0  0  0  0
M  END
>  <MODEL>
8

>  <REMARK>
 VINA RESULT:      -5.3      2.658      6.506
  Name = 
  8 active torsions:
  status: ('A' for Active; 'I' for Inactive)
    1  A    between atoms: C_7  and  C_16
    2  A    between atoms: C_7  and  C_30
    3  A    between atoms: C_9  and  C_12
    4  A    between atoms: C_9  and  C_21
    5  A    between atoms: C_10  and  C_25
    6  A    between atoms: C_11  and  C_25
    7  A    between atoms: N_13  and  C_30
    8  A    between atoms: C_23  and  C_25
                            x       y       z     vdW  Elec       q    Type
                         _______ _______ _______ _____ _____    ______ ____

>  <TORSDO>
F 8

$$$$
=
 OpenBabel11052417073D

 30 32  0  0  1  0  0  0  0  0999 V2000
  190.2230  173.9770  143.2140 C   0  0  0  0  0  0  0  0  0  0  0  0
  188.5370  175.6680  142.3080 C   0  0  2  0  0  3  0  0  0  0  0  0
  191.2400  174.0620  144.2960 C   0  0  1  0  0  3  0  0  0  0  0  0
  189.9340  172.8180  142.6180 C   0  0  0  0  0  3  0  0  0  0  0  0
  192.8740  170.8600  143.5060 N   0  0  0  0  0  2  0  0  0  0  0  0
  192.0070  171.8220  143.4990 C   0  0  0  0  0  0  0  0  0  0  0  0
  190.5660  171.5480  143.1080 C   0  0  2  0  0  3  0  0  0  0  0  0
  192.3450  173.1240  144.0400 N   0  0  0  0  0  0  0  0  0  0  0  0
  187.9460  176.4750  143.4630 C   0  0  0  0  0  2  0  0  0  0  0  0
  187.7150  174.5800  142.0080 O   0  0  0  0  0  1  0  0  0  0  0  0
  191.1910  178.6390  143.8880 C   0  0  0  0  0  1  0  0  0  0  0  0
  188.8880  177.5800  143.9790 C   0  0  0  0  0  2  0  0  0  0  0  0
  189.8980  175.2380  142.6490 N   0  0  0  0  0  0  0  0  0  0  0  0
  191.6570  175.5430  144.2800 C   0  0  1  0  0  3  0  0  0  0  0  0
  190.2540  177.6080  143.2860 C   0  0  2  0  0  3  0  0  0  0  0  0
  190.8820  176.2100  143.1100 C   0  0  2  0  0  3  0  0  0  0  0  0
  194.0720  172.6740  145.7430 C   0  0  0  0  0  1  0  0  0  0  0  0
  193.6990  173.4590  144.4940 C   0  0  1  0  0  3  0  0  0  0  0  0
  194.7140  173.2620  143.3750 C   0  0  0  0  0  2  0  0  0  0  0  0
  194.5530  174.3220  142.2980 C   0  0  0  0  0  2  0  0  0  0  0  0
  195.4610  175.3610  142.5050 O   0  0  0  0  0  1  0  0  0  0  0  0
  190.4410  170.4890  142.0160 C   0  0  0  0  0  2  0  0  0  0  0  0
  191.0200  170.0570  139.6280 C   0  0  0  0  0  1  0  0  0  0  0  0
  190.5780  171.1050  140.6310 C   0  0  0  0  0  2  0  0  0  0  0  0
  191.5630  176.2220  145.6630 C   0  0  1  0  0  3  0  0  0  0  0  0
  191.2930  174.9160  147.6470 O   0  0  0  0  0  0  0  0  0  0  0  0
  190.7270  175.5020  146.6890 C   0  0  0  0  0  0  0  0  0  0  0  0
  189.3130  175.4000  146.5430 N   0  0  0  0  0  1  0  0  0  0  0  0
  192.9310  176.5240  146.1920 C   0  0  0  0  0  3  0  0  0  0  0  0
  193.9350  176.8160  145.3690 C   0  0  0  0  0  2  0  0  0  0  0  0
  2 10  1  1  0  0  0
  2 13  1  0  0  0  0
  2  9  1  0  0  0  0
  3  1  1  6  0  0  0
  4  7  1  0  0  0  0
  4  1  2  0  0  0  0
  6  5  2  0  0  0  0
  6  8  1  0  0  0  0
  7 22  1  6  0  0  0
  7  6  1  0  0  0  0
  8  3  1  0  0  0  0
  8 18  1  0  0  0  0
  9 12  1  0  0  0  0
 13  1  1  0  0  0  0
 14  3  1  0  0  0  0
 14 25  1  1  0  0  0
 15 11  1  1  0  0  0
 15 12  1  0  0  0  0
 16 13  1  1  0  0  0
 16 15  1  0  0  0  0
 16 14  1  0  0  0  0
 18 17  1  1  0  0  0
 19 18  1  0  0  0  0
 20 21  1  0  0  0  0
 20 19  1  0  0  0  0
 23 24  1  0  0  0  0
 24 22  1  0  0  0  0
 25 29  1  1  0  0  0
 25 27  1  0  0  0  0
 27 26  2  0  0  0  0
 28 27  1  0  0  0  0
 30 29  2  0  0  0  0
M  END
>  <MODEL>
9

>  <REMARK>
 VINA RESULT:      -5.3      2.558      6.570
  Name = 
  8 active torsions:
  status: ('A' for Active; 'I' for Inactive)
    1  A    between atoms: C_7  and  C_16
    2  A    between atoms: C_7  and  C_30
    3  A    between atoms: C_9  and  C_12
    4  A    between atoms: C_9  and  C_21
    5  A    between atoms: C_10  and  C_25
    6  A    between atoms: C_11  and  C_25
    7  A    between atoms: N_13  and  C_30
    8  A    between atoms: C_23  and  C_25
                            x       y       z     vdW  Elec       q    Type
                         _______ _______ _______ _____ _____    ______ ____

>  <TORSDO>
F 8

$$$$
