=
 OpenBabel11052418403D

 34 38  0  0  1  0  0  0  0  0999 V2000
  194.0410  175.6990  142.6530 C   0  0  1  0  0  3  0  0  0  0  0  0
  194.2610  175.9360  145.1150 C   0  0  0  0  0  0  0  0  0  0  0  0
  191.9780  175.7330  144.1220 C   0  0  0  0  0  0  0  0  0  0  0  0
  189.4340  174.5300  146.0200 C   0  0  0  0  0  2  0  0  0  0  0  0
  193.8890  174.6550  140.5220 O   0  0  0  0  0  1  0  0  0  0  0  0
  195.6460  175.9960  145.0120 O   0  0  0  0  0  1  0  0  0  0  0  0
  192.3570  175.8140  146.6300 C   0  0  0  0  0  3  0  0  0  0  0  0
  193.4840  175.8710  144.0180 C   0  0  0  0  0  0  0  0  0  0  0  0
  190.0300  175.8850  145.6730 C   0  0  2  0  0  3  0  0  0  0  0  0
  195.2880  176.4050  142.2270 C   0  0  0  0  0  1  0  0  0  0  0  0
  191.5130  174.5010  143.3560 C   0  0  0  0  0  0  0  0  0  0  0  0
  193.3960  174.8790  141.8030 C   0  0  0  0  0  0  0  0  0  0  0  0
  193.6720  175.8880  146.4610 C   0  0  0  0  0  3  0  0  0  0  0  0
  190.0370  173.3970  145.1810 C   0  0  0  0  0  2  0  0  0  0  0  0
  190.2630  173.7210  143.6910 C   0  0  1  0  0  3  0  0  0  0  0  0
  191.4750  175.7990  145.4980 N   0  0  0  0  0  0  0  0  0  0  0  0
  192.1610  174.1760  142.2270 C   0  0  0  0  0  3  0  0  0  0  0  0
  189.1300  173.5610  140.4050 N   0  0  0  0  0  0  0  0  0  0  0  0
  188.2020  174.6460  140.0660 C   0  0  0  0  0  2  0  0  0  0  0  0
  189.0350  174.0430  142.8260 C   0  0  2  0  0  3  0  0  0  0  0  0
  188.0460  175.6800  141.1940 C   0  0  0  0  0  2  0  0  0  0  0  0
  188.7770  173.0140  141.7140 C   0  0  0  0  0  2  0  0  0  0  0  0
  189.0790  175.4820  142.2990 C   0  0  0  0  0  2  0  0  0  0  0  0
  188.9110  172.5040  139.4360 C   0  0  0  0  0  1  0  0  0  0  0  0
  189.6180  176.9770  146.6510 C   0  0  0  0  0  2  0  0  0  0  0  0
  188.2220  177.0370  146.7080 O   0  0  0  0  0  0  0  0  0  0  0  0
  187.8160  177.5110  145.4580 C   0  0  0  0  0  2  0  0  0  0  0  0
  185.6460  177.2880  143.5580 C   0  0  0  0  0  1  0  0  0  0  0  0
  186.6340  178.3580  145.6010 N   0  0  0  0  0  0  0  0  0  0  0  0
  185.9580  178.5840  144.3090 C   0  0  2  0  0  3  0  0  0  0  0  0
  183.8160  178.6560  145.4220 O   0  0  0  0  0  0  0  0  0  0  0  0
  184.4590  178.5800  146.6720 C   0  0  0  0  0  2  0  0  0  0  0  0
  185.7240  177.7270  146.5560 C   0  0  0  0  0  2  0  0  0  0  0  0
  184.6660  179.3720  144.5550 C   0  0  0  0  0  2  0  0  0  0  0  0
  1 10  1  1  0  0  0
  1  8  1  0  0  0  0
  2 13  1  0  0  0  0
  3 16  1  0  0  0  0
  5 12  1  0  0  0  0
  6  2  1  0  0  0  0
  8  3  1  0  0  0  0
  8  2  2  0  0  0  0
  9  4  1  0  0  0  0
  9 25  1  1  0  0  0
 11 15  1  0  0  0  0
 11  3  2  0  0  0  0
 12 17  2  0  0  0  0
 12  1  1  0  0  0  0
 13  7  2  0  0  0  0
 14  4  1  0  0  0  0
 15 14  1  1  0  0  0
 16  9  1  0  0  0  0
 16  7  1  0  0  0  0
 17 11  1  0  0  0  0
 18 22  1  0  0  0  0
 19 18  1  0  0  0  0
 19 21  1  0  0  0  0
 20 22  1  6  0  0  0
 20 15  1  0  0  0  0
 21 23  1  0  0  0  0
 23 20  1  0  0  0  0
 24 18  1  0  0  0  0
 25 26  1  0  0  0  0
 27 29  1  0  0  0  0
 27 26  1  0  0  0  0
 29 33  1  0  0  0  0
 30 28  1  1  0  0  0
 30 34  1  0  0  0  0
 30 29  1  0  0  0  0
 31 32  1  0  0  0  0
 33 32  1  0  0  0  0
 34 31  1  0  0  0  0
M  END
>  <MODEL>
1

>  <REMARK>
 VINA RESULT:      -7.8      0.000      0.000
  Name = 
  5 active torsions:
  status: ('A' for Active; 'I' for Inactive)
    1  A    between atoms: C_3  and  N_13
    2  A    between atoms: C_3  and  O_17
    3  A    between atoms: C_12  and  C_28
    4  A    between atoms: O_17  and  C_29
    5  A    between atoms: C_18  and  C_29
                            x       y       z     vdW  Elec       q    Type
                         _______ _______ _______ _____ _____    ______ ____

>  <TORSDO>
F 5

$$$$
=
 OpenBabel11052418403D

 34 38  0  0  1  0  0  0  0  0999 V2000
  191.1970  173.2410  140.9840 C   0  0  1  0  0  3  0  0  0  0  0  0
  188.9190  174.2010  141.2160 C   0  0  0  0  0  0  0  0  0  0  0  0
  190.6160  174.6770  142.9880 C   0  0  0  0  0  0  0  0  0  0  0  0
  190.3090  177.4770  144.8820 C   0  0  0  0  0  2  0  0  0  0  0  0
  193.4820  173.0580  140.3540 O   0  0  0  0  0  1  0  0  0  0  0  0
  188.5190  173.6120  140.0230 O   0  0  0  0  0  1  0  0  0  0  0  0
  188.3060  175.7280  143.0140 C   0  0  0  0  0  3  0  0  0  0  0  0
  190.1460  173.9820  141.7240 C   0  0  0  0  0  0  0  0  0  0  0  0
  189.8790  176.0200  144.9560 C   0  0  2  0  0  3  0  0  0  0  0  0
  190.8690  172.0270  140.1740 C   0  0  0  0  0  1  0  0  0  0  0  0
  191.9090  175.4350  142.7150 C   0  0  0  0  0  0  0  0  0  0  0  0
  192.4620  173.6940  141.0530 C   0  0  0  0  0  0  0  0  0  0  0  0
  187.9810  175.1190  141.8790 C   0  0  0  0  0  3  0  0  0  0  0  0
  191.2690  177.7410  143.7150 C   0  0  0  0  0  2  0  0  0  0  0  0
  192.3450  176.6620  143.4810 C   0  0  1  0  0  3  0  0  0  0  0  0
  189.5780  175.4880  143.6320 N   0  0  0  0  0  0  0  0  0  0  0  0
  192.7870  174.9000  141.8530 C   0  0  0  0  0  3  0  0  0  0  0  0
  195.5730  175.4700  143.9870 N   0  0  0  0  0  0  0  0  0  0  0  0
  195.7410  174.8020  145.2830 C   0  0  0  0  0  2  0  0  0  0  0  0
  193.3730  176.4110  144.5950 C   0  0  2  0  0  3  0  0  0  0  0  0
  194.4230  174.6620  146.0630 C   0  0  0  0  0  2  0  0  0  0  0  0
  194.8210  176.7090  144.1750 C   0  0  0  0  0  2  0  0  0  0  0  0
  193.2110  175.0160  145.2070 C   0  0  0  0  0  2  0  0  0  0  0  0
  196.9000  175.8490  143.5370 C   0  0  0  0  0  1  0  0  0  0  0  0
  188.7530  175.7900  145.9540 C   0  0  0  0  0  2  0  0  0  0  0  0
  188.0830  176.9970  146.1750 O   0  0  0  0  0  0  0  0  0  0  0  0
  186.7440  176.6500  146.3780 C   0  0  0  0  0  2  0  0  0  0  0  0
  185.0570  178.8030  147.3210 C   0  0  0  0  0  1  0  0  0  0  0  0
  185.8910  177.3710  145.4360 N   0  0  0  0  0  0  0  0  0  0  0  0
  184.7060  177.9520  146.0990 C   0  0  2  0  0  3  0  0  0  0  0  0
  184.7460  179.8230  144.5710 O   0  0  0  0  0  0  0  0  0  0  0  0
  185.7870  179.2120  143.8460 C   0  0  0  0  0  2  0  0  0  0  0  0
  186.6860  178.4170  144.7940 C   0  0  0  0  0  2  0  0  0  0  0  0
  183.9280  178.7940  145.0790 C   0  0  0  0  0  2  0  0  0  0  0  0
  1 10  1  6  0  0  0
  1 12  1  0  0  0  0
  1  8  1  0  0  0  0
  2  8  2  0  0  0  0
  2 13  1  0  0  0  0
  3 16  1  0  0  0  0
  4  9  1  0  0  0  0
  5 12  1  0  0  0  0
  6  2  1  0  0  0  0
  7 16  1  0  0  0  0
  8  3  1  0  0  0  0
  9 25  1  1  0  0  0
 11  3  2  0  0  0  0
 11 15  1  0  0  0  0
 12 17  2  0  0  0  0
 13  7  2  0  0  0  0
 14  4  1  0  0  0  0
 15 14  1  1  0  0  0
 15 20  1  0  0  0  0
 16  9  1  0  0  0  0
 17 11  1  0  0  0  0
 18 22  1  0  0  0  0
 18 19  1  0  0  0  0
 19 21  1  0  0  0  0
 20 22  1  6  0  0  0
 20 23  1  0  0  0  0
 23 21  1  0  0  0  0
 24 18  1  0  0  0  0
 25 26  1  0  0  0  0
 26 27  1  0  0  0  0
 29 30  1  0  0  0  0
 29 27  1  0  0  0  0
 30 28  1  1  0  0  0
 31 34  1  0  0  0  0
 32 31  1  0  0  0  0
 32 33  1  0  0  0  0
 33 29  1  0  0  0  0
 34 30  1  0  0  0  0
M  END
>  <MODEL>
2

>  <REMARK>
 VINA RESULT:      -7.7      1.870      4.895
  Name = 
  5 active torsions:
  status: ('A' for Active; 'I' for Inactive)
    1  A    between atoms: C_3  and  N_13
    2  A    between atoms: C_3  and  O_17
    3  A    between atoms: C_12  and  C_28
    4  A    between atoms: O_17  and  C_29
    5  A    between atoms: C_18  and  C_29
                            x       y       z     vdW  Elec       q    Type
                         _______ _______ _______ _____ _____    ______ ____

>  <TORSDO>
F 5

$$$$
=
 OpenBabel11052418403D

 34 38  0  0  1  0  0  0  0  0999 V2000
  194.1970  175.4530  142.9280 C   0  0  1  0  0  3  0  0  0  0  0  0
  194.0090  176.2290  145.2790 C   0  0  0  0  0  0  0  0  0  0  0  0
  191.9260  175.6300  144.0350 C   0  0  0  0  0  0  0  0  0  0  0  0
  189.1740  174.6540  145.7650 C   0  0  0  0  0  2  0  0  0  0  0  0
  194.4400  173.9700  141.0860 O   0  0  0  0  0  1  0  0  0  0  0  0
  195.3870  176.3810  145.3670 O   0  0  0  0  0  1  0  0  0  0  0  0
  191.8950  176.2760  146.4890 C   0  0  0  0  0  3  0  0  0  0  0  0
  193.4210  175.8660  144.1230 C   0  0  0  0  0  0  0  0  0  0  0  0
  189.7510  175.9480  145.2130 C   0  0  2  0  0  3  0  0  0  0  0  0
  195.4610  176.1530  142.5390 C   0  0  0  0  0  1  0  0  0  0  0  0
  191.6510  174.2280  143.5060 C   0  0  0  0  0  0  0  0  0  0  0  0
  193.7370  174.4200  142.1980 C   0  0  0  0  0  0  0  0  0  0  0  0
  193.2150  176.4210  146.5010 C   0  0  0  0  0  3  0  0  0  0  0  0
  189.9570  173.4210  145.2970 C   0  0  0  0  0  2  0  0  0  0  0  0
  190.4030  173.4370  143.8220 C   0  0  1  0  0  3  0  0  0  0  0  0
  191.2080  175.9460  145.2730 N   0  0  0  0  0  0  0  0  0  0  0  0
  192.4860  173.7240  142.5840 C   0  0  0  0  0  3  0  0  0  0  0  0
  189.8910  172.6980  140.4610 N   0  0  0  0  0  0  0  0  0  0  0  0
  188.9100  173.5830  139.8230 C   0  0  0  0  0  2  0  0  0  0  0  0
  189.3150  173.4640  142.7370 C   0  0  2  0  0  3  0  0  0  0  0  0
  188.4330  174.7180  140.7450 C   0  0  0  0  0  2  0  0  0  0  0  0
  189.3840  172.2750  141.7660 C   0  0  0  0  0  2  0  0  0  0  0  0
  189.2740  174.8140  142.0140 C   0  0  0  0  0  2  0  0  0  0  0  0
  189.9760  171.5060  139.6380 C   0  0  0  0  0  1  0  0  0  0  0  0
  189.1350  177.1850  145.8510 C   0  0  0  0  0  2  0  0  0  0  0  0
  188.5100  177.9480  144.8600 O   0  0  0  0  0  0  0  0  0  0  0  0
  187.1440  177.8930  145.1510 C   0  0  0  0  0  2  0  0  0  0  0  0
  185.1890  179.7830  144.1630 C   0  0  0  0  0  1  0  0  0  0  0  0
  186.3840  177.5880  143.9410 N   0  0  0  0  0  0  0  0  0  0  0  0
  185.0780  178.2760  143.9210 C   0  0  2  0  0  3  0  0  0  0  0  0
  185.2020  178.4800  141.5170 O   0  0  0  0  0  0  0  0  0  0  0  0
  186.3770  177.7040  141.5090 C   0  0  0  0  0  2  0  0  0  0  0  0
  187.1860  177.9700  142.7800 C   0  0  0  0  0  2  0  0  0  0  0  0
  184.3960  178.0090  142.5740 C   0  0  0  0  0  2  0  0  0  0  0  0
  1 10  1  1  0  0  0
  1  8  1  0  0  0  0
  2  6  1  0  0  0  0
  2 13  1  0  0  0  0
  3  8  1  0  0  0  0
  3 16  1  0  0  0  0
  5 12  1  0  0  0  0
  7 13  2  0  0  0  0
  8  2  2  0  0  0  0
  9 16  1  0  0  0  0
  9  4  1  0  0  0  0
  9 25  1  1  0  0  0
 11 15  1  0  0  0  0
 11  3  2  0  0  0  0
 12 17  2  0  0  0  0
 12  1  1  0  0  0  0
 14  4  1  0  0  0  0
 15 14  1  1  0  0  0
 16  7  1  0  0  0  0
 17 11  1  0  0  0  0
 18 22  1  0  0  0  0
 19 18  1  0  0  0  0
 19 21  1  0  0  0  0
 20 22  1  6  0  0  0
 20 15  1  0  0  0  0
 21 23  1  0  0  0  0
 23 20  1  0  0  0  0
 24 18  1  0  0  0  0
 26 27  1  0  0  0  0
 26 25  1  0  0  0  0
 29 27  1  0  0  0  0
 30 29  1  0  0  0  0
 30 28  1  6  0  0  0
 31 34  1  0  0  0  0
 32 31  1  0  0  0  0
 32 33  1  0  0  0  0
 33 29  1  0  0  0  0
 34 30  1  0  0  0  0
M  END
>  <MODEL>
3

>  <REMARK>
 VINA RESULT:      -7.7      1.245      1.722
  Name = 
  5 active torsions:
  status: ('A' for Active; 'I' for Inactive)
    1  A    between atoms: C_3  and  N_13
    2  A    between atoms: C_3  and  O_17
    3  A    between atoms: C_12  and  C_28
    4  A    between atoms: O_17  and  C_29
    5  A    between atoms: C_18  and  C_29
                            x       y       z     vdW  Elec       q    Type
                         _______ _______ _______ _____ _____    ______ ____

>  <TORSDO>
F 5

$$$$
=
 OpenBabel11052418403D

 34 38  0  0  1  0  0  0  0  0999 V2000
  191.2490  175.8840  146.3060 C   0  0  0  0  0  0  0  0  0  0  0  0
  192.2180  175.0720  144.1690 C   0  0  0  0  0  0  0  0  0  0  0  0
  189.7590  175.4920  144.2960 C   0  0  1  0  0  3  0  0  0  0  0  0
  188.0390  176.1980  141.4570 C   0  0  0  0  0  2  0  0  0  0  0  0
  190.5080  177.4000  147.9800 O   0  0  0  0  0  1  0  0  0  0  0  0
  193.4910  175.0450  144.7250 O   0  0  0  0  0  1  0  0  0  0  0  0
  190.9040  174.8220  142.1330 C   0  0  0  0  0  3  0  0  0  0  0  0
  191.1410  175.3910  144.9110 C   0  0  0  0  0  0  0  0  0  0  0  0
  188.3960  174.9670  142.2750 C   0  0  2  0  0  3  0  0  0  0  0  0
  192.2440  175.3050  147.2610 C   0  0  0  0  0  1  0  0  0  0  0  0
  189.1660  176.8680  144.5720 C   0  0  0  0  0  0  0  0  0  0  0  0
  190.4290  176.8780  146.6940 C   0  0  0  0  0  0  0  0  0  0  0  0
  192.0900  174.7970  142.7310 C   0  0  0  0  0  3  0  0  0  0  0  0
  188.4250  177.5010  142.1680 C   0  0  0  0  0  2  0  0  0  0  0  0
  188.1450  177.5400  143.6830 C   0  0  1  0  0  3  0  0  0  0  0  0
  189.7130  175.1000  142.8840 N   0  0  0  0  0  0  0  0  0  0  0  0
  189.4450  177.4550  145.7460 C   0  0  0  0  0  3  0  0  0  0  0  0
  184.9190  178.5080  142.8120 N   0  0  0  0  0  0  0  0  0  0  0  0
  184.0540  178.7310  143.9760 C   0  0  0  0  0  2  0  0  0  0  0  0
  186.6870  177.4250  144.1530 C   0  0  2  0  0  3  0  0  0  0  0  0
  184.8030  178.6190  145.3140 C   0  0  0  0  0  2  0  0  0  0  0  0
  185.6790  177.2740  143.0030 C   0  0  0  0  0  2  0  0  0  0  0  0
  186.3150  178.5560  145.1190 C   0  0  0  0  0  2  0  0  0  0  0  0
  184.0430  178.2900  141.6750 C   0  0  0  0  0  1  0  0  0  0  0  0
  188.2360  173.6730  141.4890 C   0  0  0  0  0  2  0  0  0  0  0  0
  188.1910  173.9690  140.1230 O   0  0  0  0  0  0  0  0  0  0  0  0
  188.5260  172.7790  139.4710 C   0  0  0  0  0  2  0  0  0  0  0  0
  189.6990  170.4740  138.1750 C   0  0  0  0  0  1  0  0  0  0  0  0
  189.9530  172.5080  139.6220 N   0  0  0  0  0  0  0  0  0  0  0  0
  190.2620  171.0730  139.4650 C   0  0  2  0  0  3  0  0  0  0  0  0
  192.3980  171.6210  138.4800 O   0  0  0  0  0  0  0  0  0  0  0  0
  192.1760  172.9850  138.7510 C   0  0  0  0  0  2  0  0  0  0  0  0
  190.6850  173.3030  138.6360 C   0  0  0  0  0  2  0  0  0  0  0  0
  191.7830  170.8830  139.5120 C   0  0  0  0  0  2  0  0  0  0  0  0
  1 12  2  0  0  0  0
  1 10  1  0  0  0  0
  2  6  1  0  0  0  0
  2  8  2  0  0  0  0
  3 11  1  6  0  0  0
  3  8  1  0  0  0  0
  4 14  1  0  0  0  0
  4  9  1  0  0  0  0
  7 13  2  0  0  0  0
  7 16  1  0  0  0  0
  8  1  1  0  0  0  0
  9 25  1  6  0  0  0
  9 16  1  0  0  0  0
 11 17  2  0  0  0  0
 12  5  1  0  0  0  0
 13  2  1  0  0  0  0
 15 14  1  6  0  0  0
 15 20  1  0  0  0  0
 15 11  1  0  0  0  0
 16  3  1  0  0  0  0
 17 12  1  0  0  0  0
 18 22  1  0  0  0  0
 18 19  1  0  0  0  0
 19 21  1  0  0  0  0
 20 22  1  6  0  0  0
 20 23  1  0  0  0  0
 23 21  1  0  0  0  0
 24 18  1  0  0  0  0
 26 25  1  0  0  0  0
 27 29  1  0  0  0  0
 27 26  1  0  0  0  0
 30 28  1  6  0  0  0
 30 34  1  0  0  0  0
 30 29  1  0  0  0  0
 31 32  1  0  0  0  0
 31 34  1  0  0  0  0
 33 32  1  0  0  0  0
 33 29  1  0  0  0  0
M  END
>  <MODEL>
4

>  <REMARK>
 VINA RESULT:      -7.5      2.242      6.955
  Name = 
  5 active torsions:
  status: ('A' for Active; 'I' for Inactive)
    1  A    between atoms: C_3  and  N_13
    2  A    between atoms: C_3  and  O_17
    3  A    between atoms: C_12  and  C_28
    4  A    between atoms: O_17  and  C_29
    5  A    between atoms: C_18  and  C_29
                            x       y       z     vdW  Elec       q    Type
                         _______ _______ _______ _____ _____    ______ ____

>  <TORSDO>
F 5

$$$$
=
 OpenBabel11052418403D

 34 38  0  0  1  0  0  0  0  0999 V2000
  191.7610  175.9710  146.2150 C   0  0  0  0  0  0  0  0  0  0  0  0
  192.4010  175.5960  143.8450 C   0  0  0  0  0  0  0  0  0  0  0  0
  189.9760  175.6850  144.4410 C   0  0  1  0  0  3  0  0  0  0  0  0
  187.7080  176.5670  142.0750 C   0  0  0  0  0  2  0  0  0  0  0  0
  191.1910  177.1320  148.2100 O   0  0  0  0  0  1  0  0  0  0  0  0
  193.7500  175.6500  144.1730 O   0  0  0  0  0  1  0  0  0  0  0  0
  190.7690  175.4760  142.0400 C   0  0  0  0  0  3  0  0  0  0  0  0
  191.4500  175.6710  144.7960 C   0  0  0  0  0  0  0  0  0  0  0  0
  188.3260  175.2870  142.6140 C   0  0  2  0  0  3  0  0  0  0  0  0
  192.9650  175.3910  146.8880 C   0  0  0  0  0  1  0  0  0  0  0  0
  189.3120  176.9250  145.0290 C   0  0  0  0  0  0  0  0  0  0  0  0
  190.9320  176.7910  146.8870 C   0  0  0  0  0  0  0  0  0  0  0  0
  192.0410  175.5140  142.4230 C   0  0  0  0  0  3  0  0  0  0  0  0
  188.0880  177.7940  142.9130 C   0  0  0  0  0  2  0  0  0  0  0  0
  188.0850  177.5830  144.4400 C   0  0  1  0  0  3  0  0  0  0  0  0
  189.7140  175.4940  143.0120 N   0  0  0  0  0  0  0  0  0  0  0  0
  189.7410  177.3690  146.2200 C   0  0  0  0  0  3  0  0  0  0  0  0
  184.8300  178.7440  144.8400 N   0  0  0  0  0  0  0  0  0  0  0  0
  184.2500  178.3860  146.1390 C   0  0  0  0  0  2  0  0  0  0  0  0
  186.7560  177.2220  145.1190 C   0  0  2  0  0  3  0  0  0  0  0  0
  185.2550  177.6990  147.0790 C   0  0  0  0  0  2  0  0  0  0  0  0
  185.5180  177.5810  144.2800 C   0  0  0  0  0  2  0  0  0  0  0  0
  186.6820  177.7770  146.5450 C   0  0  0  0  0  2  0  0  0  0  0  0
  183.7200  179.0410  143.9530 C   0  0  0  0  0  1  0  0  0  0  0  0
  188.1540  174.1080  141.6670 C   0  0  0  0  0  2  0  0  0  0  0  0
  188.4510  172.9240  142.3500 O   0  0  0  0  0  0  0  0  0  0  0  0
  189.2230  172.1650  141.4670 C   0  0  0  0  0  2  0  0  0  0  0  0
  191.7380  171.3120  140.3200 C   0  0  0  0  0  1  0  0  0  0  0  0
  190.0900  171.2550  142.2120 N   0  0  0  0  0  0  0  0  0  0  0  0
  190.9520  170.4580  141.3160 C   0  0  2  0  0  3  0  0  0  0  0  0
  192.7100  170.4650  142.9730 O   0  0  0  0  0  0  0  0  0  0  0  0
  191.8500  171.1040  143.8870 C   0  0  0  0  0  2  0  0  0  0  0  0
  190.9000  172.0420  143.1400 C   0  0  0  0  0  2  0  0  0  0  0  0
  191.9160  169.6230  142.1680 C   0  0  0  0  0  2  0  0  0  0  0  0
  1 12  2  0  0  0  0
  1 10  1  0  0  0  0
  2  6  1  0  0  0  0
  2  8  2  0  0  0  0
  3  8  1  6  0  0  0
  3 11  1  0  0  0  0
  4  9  1  0  0  0  0
  4 14  1  0  0  0  0
  7 13  2  0  0  0  0
  7 16  1  0  0  0  0
  8  1  1  0  0  0  0
  9 25  1  6  0  0  0
  9 16  1  0  0  0  0
 11 17  2  0  0  0  0
 12  5  1  0  0  0  0
 13  2  1  0  0  0  0
 15 14  1  6  0  0  0
 15 11  1  0  0  0  0
 15 20  1  0  0  0  0
 16  3  1  0  0  0  0
 17 12  1  0  0  0  0
 18 19  1  0  0  0  0
 19 21  1  0  0  0  0
 20 22  1  6  0  0  0
 20 23  1  0  0  0  0
 22 18  1  0  0  0  0
 23 21  1  0  0  0  0
 24 18  1  0  0  0  0
 25 26  1  0  0  0  0
 27 29  1  0  0  0  0
 27 26  1  0  0  0  0
 29 33  1  0  0  0  0
 30 28  1  6  0  0  0
 30 34  1  0  0  0  0
 30 29  1  0  0  0  0
 31 32  1  0  0  0  0
 33 32  1  0  0  0  0
 34 31  1  0  0  0  0
M  END
>  <MODEL>
5

>  <REMARK>
 VINA RESULT:      -7.5      2.333      6.815
  Name = 
  5 active torsions:
  status: ('A' for Active; 'I' for Inactive)
    1  A    between atoms: C_3  and  N_13
    2  A    between atoms: C_3  and  O_17
    3  A    between atoms: C_12  and  C_28
    4  A    between atoms: O_17  and  C_29
    5  A    between atoms: C_18  and  C_29
                            x       y       z     vdW  Elec       q    Type
                         _______ _______ _______ _____ _____    ______ ____

>  <TORSDO>
F 5

$$$$
=
 OpenBabel11052418403D

 34 38  0  0  1  0  0  0  0  0999 V2000
  190.3380  173.9670  141.5220 C   0  0  1  0  0  3  0  0  0  0  0  0
  192.0410  172.9160  142.9920 C   0  0  0  0  0  0  0  0  0  0  0  0
  190.8990  175.0000  143.7650 C   0  0  0  0  0  0  0  0  0  0  0  0
  190.6730  175.6400  147.0910 C   0  0  0  0  0  2  0  0  0  0  0  0
  188.2160  174.4450  140.5620 O   0  0  0  0  0  1  0  0  0  0  0  0
  192.2600  171.9070  142.0610 O   0  0  0  0  0  1  0  0  0  0  0  0
  192.5350  173.7320  145.2340 C   0  0  0  0  0  3  0  0  0  0  0  0
  191.1990  173.9330  142.7290 C   0  0  0  0  0  0  0  0  0  0  0  0
  191.6220  175.9650  145.9490 C   0  0  2  0  0  3  0  0  0  0  0  0
  190.8430  173.5050  140.1920 C   0  0  0  0  0  1  0  0  0  0  0  0
  189.3980  175.0800  144.0110 C   0  0  0  0  0  0  0  0  0  0  0  0
  189.0770  174.4200  141.6530 C   0  0  0  0  0  0  0  0  0  0  0  0
  192.7130  172.8100  144.2940 C   0  0  0  0  0  3  0  0  0  0  0  0
  189.3850  174.9660  146.6030 C   0  0  0  0  0  2  0  0  0  0  0  0
  188.7790  175.5460  145.3090 C   0  0  1  0  0  3  0  0  0  0  0  0
  191.6940  174.8680  144.9910 N   0  0  0  0  0  0  0  0  0  0  0  0
  188.5740  174.8750  142.9720 C   0  0  0  0  0  3  0  0  0  0  0  0
  186.3200  177.5940  146.6730 N   0  0  0  0  0  0  0  0  0  0  0  0
  185.9390  178.6990  145.7860 C   0  0  0  0  0  2  0  0  0  0  0  0
  188.3030  177.0060  145.3230 C   0  0  2  0  0  3  0  0  0  0  0  0
  186.6120  178.6240  144.4050 C   0  0  0  0  0  2  0  0  0  0  0  0
  187.7770  177.4690  146.6910 C   0  0  0  0  0  2  0  0  0  0  0  0
  187.3170  177.2890  144.1850 C   0  0  0  0  0  2  0  0  0  0  0  0
  185.9150  177.9740  148.0130 C   0  0  0  0  0  1  0  0  0  0  0  0
  192.9930  176.4150  146.4340 C   0  0  0  0  0  2  0  0  0  0  0  0
  193.6770  177.0220  145.3760 O   0  0  0  0  0  0  0  0  0  0  0  0
  194.9420  176.4270  145.3580 C   0  0  0  0  0  2  0  0  0  0  0  0
  196.5330  174.2240  144.3640 C   0  0  0  0  0  1  0  0  0  0  0  0
  195.5060  176.4860  144.0120 N   0  0  0  0  0  0  0  0  0  0  0  0
  196.7260  175.6650  143.8880 C   0  0  2  0  0  3  0  0  0  0  0  0
  196.1760  175.1610  141.5910 O   0  0  0  0  0  0  0  0  0  0  0  0
  195.0860  176.0500  141.6530 C   0  0  0  0  0  2  0  0  0  0  0  0
  194.4870  176.0420  143.0610 C   0  0  0  0  0  2  0  0  0  0  0  0
  197.1880  175.6770  142.4250 C   0  0  0  0  0  2  0  0  0  0  0  0
  1 10  1  1  0  0  0
  1 12  1  0  0  0  0
  1  8  1  0  0  0  0
  2 13  1  0  0  0  0
  3 11  2  0  0  0  0
  3 16  1  0  0  0  0
  5 12  1  0  0  0  0
  6  2  1  0  0  0  0
  8  2  2  0  0  0  0
  8  3  1  0  0  0  0
  9 25  1  1  0  0  0
  9  4  1  0  0  0  0
 11 15  1  0  0  0  0
 12 17  2  0  0  0  0
 13  7  2  0  0  0  0
 14  4  1  0  0  0  0
 15 20  1  0  0  0  0
 15 14  1  1  0  0  0
 16  7  1  0  0  0  0
 16  9  1  0  0  0  0
 17 11  1  0  0  0  0
 18 22  1  0  0  0  0
 18 24  1  0  0  0  0
 19 18  1  0  0  0  0
 20 23  1  6  0  0  0
 20 22  1  0  0  0  0
 21 19  1  0  0  0  0
 23 21  1  0  0  0  0
 26 25  1  0  0  0  0
 27 26  1  0  0  0  0
 29 27  1  0  0  0  0
 30 29  1  0  0  0  0
 30 28  1  6  0  0  0
 31 32  1  0  0  0  0
 31 34  1  0  0  0  0
 32 33  1  0  0  0  0
 33 29  1  0  0  0  0
 34 30  1  0  0  0  0
M  END
>  <MODEL>
6

>  <REMARK>
 VINA RESULT:      -7.4      2.359      6.811
  Name = 
  5 active torsions:
  status: ('A' for Active; 'I' for Inactive)
    1  A    between atoms: C_3  and  N_13
    2  A    between atoms: C_3  and  O_17
    3  A    between atoms: C_12  and  C_28
    4  A    between atoms: O_17  and  C_29
    5  A    between atoms: C_18  and  C_29
                            x       y       z     vdW  Elec       q    Type
                         _______ _______ _______ _____ _____    ______ ____

>  <TORSDO>
F 5

$$$$
=
 OpenBabel11052418403D

 34 38  0  0  1  0  0  0  0  0999 V2000
  190.7540  172.0580  142.2660 C   0  0  1  0  0  3  0  0  0  0  0  0
  189.3310  172.8820  140.4060 C   0  0  0  0  0  0  0  0  0  0  0  0
  189.4210  174.1950  142.5300 C   0  0  0  0  0  0  0  0  0  0  0  0
  188.7410  177.5190  142.4640 C   0  0  0  0  0  2  0  0  0  0  0  0
  192.6760  171.7540  143.6320 O   0  0  0  0  0  1  0  0  0  0  0  0
  189.6970  171.8010  139.6120 O   0  0  0  0  0  1  0  0  0  0  0  0
  188.1420  175.0060  140.4930 C   0  0  0  0  0  3  0  0  0  0  0  0
  189.7560  172.9850  141.6790 C   0  0  0  0  0  0  0  0  0  0  0  0
  187.9790  176.2230  142.6900 C   0  0  2  0  0  3  0  0  0  0  0  0
  190.7290  170.5930  141.9640 C   0  0  0  0  0  1  0  0  0  0  0  0
  190.7010  174.8300  143.0580 C   0  0  0  0  0  0  0  0  0  0  0  0
  191.6970  172.5710  143.0790 C   0  0  0  0  0  0  0  0  0  0  0  0
  188.5130  173.9380  139.7950 C   0  0  0  0  0  3  0  0  0  0  0  0
  190.2570  177.2980  142.3900 C   0  0  0  0  0  2  0  0  0  0  0  0
  190.8330  176.2940  143.4090 C   0  0  1  0  0  3  0  0  0  0  0  0
  188.5170  175.1430  141.8720 N   0  0  0  0  0  0  0  0  0  0  0  0
  191.7240  174.0240  143.3770 C   0  0  0  0  0  3  0  0  0  0  0  0
  192.5380  175.9760  146.4250 N   0  0  0  0  0  0  0  0  0  0  0  0
  191.6410  175.8180  147.5760 C   0  0  0  0  0  2  0  0  0  0  0  0
  190.7040  176.6260  144.9040 C   0  0  2  0  0  3  0  0  0  0  0  0
  190.1620  175.6930  147.1740 C   0  0  0  0  0  2  0  0  0  0  0  0
  192.0310  177.0400  145.5590 C   0  0  0  0  0  2  0  0  0  0  0  0
  189.9920  175.5060  145.6700 C   0  0  0  0  0  2  0  0  0  0  0  0
  193.8130  176.4320  146.9470 C   0  0  0  0  0  1  0  0  0  0  0  0
  186.4750  176.3910  142.5310 C   0  0  0  0  0  2  0  0  0  0  0  0
  186.1280  177.7150  142.8210 O   0  0  0  0  0  0  0  0  0  0  0  0
  185.2370  177.6410  143.8960 C   0  0  0  0  0  2  0  0  0  0  0  0
  183.7250  178.6670  146.1390 C   0  0  0  0  0  1  0  0  0  0  0  0
  185.9220  177.9790  145.1410 N   0  0  0  0  0  0  0  0  0  0  0  0
  185.1970  179.0130  145.9060 C   0  0  2  0  0  3  0  0  0  0  0  0
  185.9350  178.0200  147.9810 O   0  0  0  0  0  0  0  0  0  0  0  0
  186.7420  177.1150  147.2640 C   0  0  0  0  0  2  0  0  0  0  0  0
  186.0730  176.7610  145.9350 C   0  0  0  0  0  2  0  0  0  0  0  0
  185.9050  179.2250  147.2500 C   0  0  0  0  0  2  0  0  0  0  0  0
  1 10  1  6  0  0  0
  1 12  1  0  0  0  0
  2  8  2  0  0  0  0
  3 11  2  0  0  0  0
  4  9  1  0  0  0  0
  6  2  1  0  0  0  0
  7 16  1  0  0  0  0
  8  1  1  0  0  0  0
  8  3  1  0  0  0  0
  9 25  1  6  0  0  0
 11 17  1  0  0  0  0
 11 15  1  0  0  0  0
 12 17  2  0  0  0  0
 12  5  1  0  0  0  0
 13  2  1  0  0  0  0
 13  7  2  0  0  0  0
 14  4  1  0  0  0  0
 15 14  1  6  0  0  0
 15 20  1  0  0  0  0
 16  3  1  0  0  0  0
 16  9  1  0  0  0  0
 18 24  1  0  0  0  0
 18 19  1  0  0  0  0
 20 22  1  1  0  0  0
 20 23  1  0  0  0  0
 21 19  1  0  0  0  0
 22 18  1  0  0  0  0
 23 21  1  0  0  0  0
 25 26  1  0  0  0  0
 26 27  1  0  0  0  0
 27 29  1  0  0  0  0
 29 30  1  0  0  0  0
 29 33  1  0  0  0  0
 30 28  1  1  0  0  0
 30 34  1  0  0  0  0
 32 31  1  0  0  0  0
 33 32  1  0  0  0  0
 34 31  1  0  0  0  0
M  END
>  <MODEL>
7

>  <REMARK>
 VINA RESULT:      -7.3      2.111      5.245
  Name = 
  5 active torsions:
  status: ('A' for Active; 'I' for Inactive)
    1  A    between atoms: C_3  and  N_13
    2  A    between atoms: C_3  and  O_17
    3  A    between atoms: C_12  and  C_28
    4  A    between atoms: O_17  and  C_29
    5  A    between atoms: C_18  and  C_29
                            x       y       z     vdW  Elec       q    Type
                         _______ _______ _______ _____ _____    ______ ____

>  <TORSDO>
F 5

$$$$
=
 OpenBabel11052418403D

 34 38  0  0  1  0  0  0  0  0999 V2000
  187.1130  177.7200  145.3350 C   0  0  0  0  0  0  0  0  0  0  0  0
  186.7380  176.4120  143.2580 C   0  0  0  0  0  0  0  0  0  0  0  0
  188.9290  176.1990  144.4400 C   0  0  1  0  0  3  0  0  0  0  0  0
  190.7700  173.3750  144.0430 C   0  0  0  0  0  2  0  0  0  0  0  0
  187.1380  178.2630  147.6500 O   0  0  0  0  0  1  0  0  0  0  0  0
  185.4590  176.9390  143.1260 O   0  0  0  0  0  1  0  0  0  0  0  0
  188.3510  174.7980  142.4050 C   0  0  0  0  0  3  0  0  0  0  0  0
  187.5590  176.8190  144.2450 C   0  0  0  0  0  0  0  0  0  0  0  0
  190.6640  174.7450  143.3930 C   0  0  2  0  0  3  0  0  0  0  0  0
  186.1970  178.8720  145.0680 C   0  0  0  0  0  1  0  0  0  0  0  0
  189.0570  175.6550  145.8570 C   0  0  0  0  0  0  0  0  0  0  0  0
  187.5490  177.4700  146.5840 C   0  0  0  0  0  0  0  0  0  0  0  0
  187.1480  175.3550  142.3230 C   0  0  0  0  0  3  0  0  0  0  0  0
  189.9280  173.2710  145.3210 C   0  0  0  0  0  2  0  0  0  0  0  0
  189.9620  174.5070  146.2410 C   0  0  1  0  0  3  0  0  0  0  0  0
  189.2900  175.2310  143.3990 N   0  0  0  0  0  0  0  0  0  0  0  0
  188.4540  176.3260  146.8500 C   0  0  0  0  0  3  0  0  0  0  0  0
  191.4870  177.1050  147.9810 N   0  0  0  0  0  0  0  0  0  0  0  0
  192.9150  177.2410  147.6710 C   0  0  0  0  0  2  0  0  0  0  0  0
  191.3070  174.9100  146.8640 C   0  0  2  0  0  3  0  0  0  0  0  0
  193.3810  176.2950  146.5510 C   0  0  0  0  0  2  0  0  0  0  0  0
  191.1680  175.6920  148.1800 C   0  0  0  0  0  2  0  0  0  0  0  0
  192.2080  175.6200  145.8480 C   0  0  0  0  0  2  0  0  0  0  0  0
  191.2700  177.7670  149.2540 C   0  0  0  0  0  1  0  0  0  0  0  0
  191.2990  174.7900  142.0100 C   0  0  0  0  0  2  0  0  0  0  0  0
  192.2440  175.8210  141.9730 O   0  0  0  0  0  0  0  0  0  0  0  0
  193.4650  175.1990  141.7000 C   0  0  0  0  0  2  0  0  0  0  0  0
  195.3780  173.2990  142.7500 C   0  0  0  0  0  1  0  0  0  0  0  0
  194.4780  175.6390  142.6570 N   0  0  0  0  0  0  0  0  0  0  0  0
  194.9290  174.5360  143.5290 C   0  0  2  0  0  3  0  0  0  0  0  0
  197.1450  175.4920  143.6210 O   0  0  0  0  0  0  0  0  0  0  0  0
  196.6930  176.6180  142.9070 C   0  0  0  0  0  2  0  0  0  0  0  0
  195.6050  176.2040  141.9150 C   0  0  0  0  0  2  0  0  0  0  0  0
  196.0730  175.0410  144.4170 C   0  0  0  0  0  2  0  0  0  0  0  0
  1 12  2  0  0  0  0
  2  8  2  0  0  0  0
  3  8  1  6  0  0  0
  3 11  1  0  0  0  0
  4 14  1  0  0  0  0
  6  2  1  0  0  0  0
  7 16  1  0  0  0  0
  8  1  1  0  0  0  0
  9 25  1  6  0  0  0
  9 16  1  0  0  0  0
  9  4  1  0  0  0  0
 10  1  1  0  0  0  0
 11 15  1  0  0  0  0
 11 17  2  0  0  0  0
 12 17  1  0  0  0  0
 12  5  1  0  0  0  0
 13  7  2  0  0  0  0
 13  2  1  0  0  0  0
 15 14  1  6  0  0  0
 15 20  1  0  0  0  0
 16  3  1  0  0  0  0
 18 22  1  0  0  0  0
 18 24  1  0  0  0  0
 19 18  1  0  0  0  0
 20 23  1  6  0  0  0
 20 22  1  0  0  0  0
 21 19  1  0  0  0  0
 23 21  1  0  0  0  0
 26 25  1  0  0  0  0
 27 26  1  0  0  0  0
 27 29  1  0  0  0  0
 29 30  1  0  0  0  0
 30 28  1  6  0  0  0
 30 34  1  0  0  0  0
 31 34  1  0  0  0  0
 32 31  1  0  0  0  0
 33 29  1  0  0  0  0
 33 32  1  0  0  0  0
M  END
>  <MODEL>
8

>  <REMARK>
 VINA RESULT:      -7.1      1.943      8.057
  Name = 
  5 active torsions:
  status: ('A' for Active; 'I' for Inactive)
    1  A    between atoms: C_3  and  N_13
    2  A    between atoms: C_3  and  O_17
    3  A    between atoms: C_12  and  C_28
    4  A    between atoms: O_17  and  C_29
    5  A    between atoms: C_18  and  C_29
                            x       y       z     vdW  Elec       q    Type
                         _______ _______ _______ _____ _____    ______ ____

>  <TORSDO>
F 5

$$$$
=
 OpenBabel11052418403D

 34 38  0  0  1  0  0  0  0  0999 V2000
  190.3000  172.4550  141.6750 C   0  0  1  0  0  3  0  0  0  0  0  0
  191.9870  171.9100  143.4140 C   0  0  0  0  0  0  0  0  0  0  0  0
  191.0600  174.2280  143.3150 C   0  0  0  0  0  0  0  0  0  0  0  0
  191.0600  176.1440  146.1170 C   0  0  0  0  0  2  0  0  0  0  0  0
  188.1760  172.7160  140.6370 O   0  0  0  0  0  1  0  0  0  0  0  0
  192.0740  170.6000  142.9570 O   0  0  0  0  0  1  0  0  0  0  0  0
  192.6610  173.4910  145.1400 C   0  0  0  0  0  3  0  0  0  0  0  0
  191.2170  172.8170  142.7830 C   0  0  0  0  0  0  0  0  0  0  0  0
  191.9720  175.9010  144.9250 C   0  0  2  0  0  3  0  0  0  0  0  0
  190.6960  171.4610  140.6290 C   0  0  0  0  0  1  0  0  0  0  0  0
  189.5840  174.5410  143.5320 C   0  0  0  0  0  0  0  0  0  0  0  0
  189.0890  173.0400  141.6350 C   0  0  0  0  0  0  0  0  0  0  0  0
  192.7150  172.2610  144.6400 C   0  0  0  0  0  3  0  0  0  0  0  0
  189.6980  175.4580  145.9570 C   0  0  0  0  0  2  0  0  0  0  0  0
  189.0750  175.5370  144.5490 C   0  0  1  0  0  3  0  0  0  0  0  0
  191.9040  174.5140  144.4790 N   0  0  0  0  0  0  0  0  0  0  0  0
  188.6940  174.0230  142.6730 C   0  0  0  0  0  3  0  0  0  0  0  0
  186.5340  177.2330  142.8840 N   0  0  0  0  0  0  0  0  0  0  0  0
  187.0360  178.2910  141.9990 C   0  0  0  0  0  2  0  0  0  0  0  0
  188.7200  176.9230  143.9900 C   0  0  2  0  0  3  0  0  0  0  0  0
  188.5710  178.3200  141.9050 C   0  0  0  0  0  2  0  0  0  0  0  0
  187.2400  177.2970  144.1630 C   0  0  0  0  0  2  0  0  0  0  0  0
  189.2060  177.0900  142.5460 C   0  0  0  0  0  2  0  0  0  0  0  0
  185.1430  177.5410  143.1560 C   0  0  0  0  0  1  0  0  0  0  0  0
  193.3980  176.3730  145.1700 C   0  0  0  0  0  2  0  0  0  0  0  0
  194.1220  176.2820  143.9770 O   0  0  0  0  0  0  0  0  0  0  0  0
  195.4660  176.3860  144.3460 C   0  0  0  0  0  2  0  0  0  0  0  0
  196.2840  173.9980  145.7610 C   0  0  0  0  0  1  0  0  0  0  0  0
  196.2560  175.3670  143.6580 N   0  0  0  0  0  0  0  0  0  0  0  0
  197.0850  174.5850  144.5960 C   0  0  2  0  0  3  0  0  0  0  0  0
  196.8320  172.6220  143.2100 O   0  0  0  0  0  0  0  0  0  0  0  0
  196.1590  173.3900  142.2410 C   0  0  0  0  0  2  0  0  0  0  0  0
  195.3450  174.4920  142.9210 C   0  0  0  0  0  2  0  0  0  0  0  0
  197.7850  173.4610  143.8220 C   0  0  0  0  0  2  0  0  0  0  0  0
  1 10  1  1  0  0  0
  1  8  1  0  0  0  0
  2 13  1  0  0  0  0
  3 11  2  0  0  0  0
  3 16  1  0  0  0  0
  5 12  1  0  0  0  0
  6  2  1  0  0  0  0
  8  3  1  0  0  0  0
  8  2  2  0  0  0  0
  9 25  1  1  0  0  0
  9  4  1  0  0  0  0
 11 15  1  0  0  0  0
 12  1  1  0  0  0  0
 12 17  2  0  0  0  0
 13  7  2  0  0  0  0
 14  4  1  0  0  0  0
 15 14  1  1  0  0  0
 16  9  1  0  0  0  0
 16  7  1  0  0  0  0
 17 11  1  0  0  0  0
 18 24  1  0  0  0  0
 18 22  1  0  0  0  0
 19 18  1  0  0  0  0
 20 23  1  6  0  0  0
 20 22  1  0  0  0  0
 20 15  1  0  0  0  0
 21 19  1  0  0  0  0
 21 23  1  0  0  0  0
 26 27  1  0  0  0  0
 26 25  1  0  0  0  0
 29 27  1  0  0  0  0
 29 30  1  0  0  0  0
 30 28  1  1  0  0  0
 31 34  1  0  0  0  0
 32 33  1  0  0  0  0
 32 31  1  0  0  0  0
 33 29  1  0  0  0  0
 34 30  1  0  0  0  0
M  END
>  <MODEL>
9

>  <REMARK>
 VINA RESULT:      -7.0      2.759      6.953
  Name = 
  5 active torsions:
  status: ('A' for Active; 'I' for Inactive)
    1  A    between atoms: C_3  and  N_13
    2  A    between atoms: C_3  and  O_17
    3  A    between atoms: C_12  and  C_28
    4  A    between atoms: O_17  and  C_29
    5  A    between atoms: C_18  and  C_29
                            x       y       z     vdW  Elec       q    Type
                         _______ _______ _______ _____ _____    ______ ____

>  <TORSDO>
F 5

$$$$
