=
 OpenBabel11052421213D

 43 47  0  0  1  0  0  0  0  0999 V2000
  190.5340  175.4410  146.4040 N   0  0  0  0  0  0  0  0  0  0  0  0
  189.5400  176.3880  146.8370 C   0  0  0  0  0  0  0  0  0  0  0  0
  189.8930  177.4550  147.4070 O   0  0  0  0  0  0  0  0  0  0  0  0
  190.7640  173.7590  141.3340 C   0  0  0  0  0  0  0  0  0  0  0  0
  189.7360  173.3760  143.4660 C   0  0  0  0  0  0  0  0  0  0  0  0
  191.5790  174.8200  141.9830 C   0  0  0  0  0  3  0  0  0  0  0  0
  190.9930  173.4300  139.9030 C   0  0  0  0  0  1  0  0  0  0  0  0
  190.0730  174.7470  143.9430 C   0  0  2  0  0  3  0  0  0  0  0  0
  189.9140  173.0180  142.0560 C   0  0  0  0  0  3  0  0  0  0  0  0
  191.3020  175.2440  143.2280 C   0  0  0  0  0  3  0  0  0  0  0  0
  190.2670  174.4550  145.3900 C   0  0  0  0  0  0  0  0  0  0  0  0
  189.9490  173.1860  145.6320 C   0  0  0  0  0  3  0  0  0  0  0  0
  189.6610  172.5050  144.4150 N   0  0  0  0  0  0  0  0  0  0  0  0
  188.0780  176.0830  146.7230 C   0  0  0  0  0  2  0  0  0  0  0  0
  185.1200  178.1400  145.4120 C   0  0  0  0  0  0  0  0  0  0  0  0
  185.7530  178.7900  144.1970 C   0  0  2  0  0  3  0  0  0  0  0  0
  184.8020  178.7710  143.0130 C   0  0  0  0  0  1  0  0  0  0  0  0
  187.7820  177.4120  144.6590 C   0  0  0  0  0  3  0  0  0  0  0  0
  185.8240  177.0260  146.1320 C   0  0  0  0  0  2  0  0  0  0  0  0
  187.3380  177.2470  146.0840 C   0  0  1  0  0  3  0  0  0  0  0  0
  184.0210  178.6590  145.9550 C   0  0  0  0  0  2  0  0  0  0  0  0
  187.0470  178.1250  143.7940 C   0  0  0  0  0  3  0  0  0  0  0  0
  191.8340  175.4300  147.0650 C   0  0  0  0  0  2  0  0  0  0  0  0
  192.9210  174.9900  146.0780 C   0  0  0  0  0  2  0  0  0  0  0  0
  194.2340  175.5850  146.3490 N   0  0  0  0  0  0  0  0  0  0  0  0
  194.0750  176.9880  146.7050 C   0  0  0  0  0  1  0  0  0  0  0  0
  195.0560  175.5110  145.1470 C   0  0  0  0  0  2  0  0  0  0  0  0
  195.8710  173.3560  144.0700 N   0  0  0  0  0  2  0  0  0  0  0  0
  195.9130  174.2830  145.1560 C   0  0  0  0  0  0  0  0  0  0  0  0
  196.6510  174.0380  146.1460 O   0  0  0  0  0  0  0  0  0  0  0  0
  194.9060  173.4600  142.9850 C   0  0  1  0  0  3  0  0  0  0  0  0
  193.7000  171.6010  141.8680 C   0  0  0  0  0  3  0  0  0  0  0  0
  195.6520  173.5480  141.6450 C   0  0  0  0  0  2  0  0  0  0  0  0
  194.7580  173.3230  140.5820 O   0  0  0  0  0  0  0  0  0  0  0  0
  193.9610  172.2730  143.0000 C   0  0  0  0  0  0  0  0  0  0  0  0
  194.4560  171.9470  140.6110 C   0  0  0  0  0  2  0  0  0  0  0  0
  193.1980  171.9320  144.2430 C   0  0  0  0  0  2  0  0  0  0  0  0
  193.6530  170.6370  144.8260 C   0  0  0  0  0  0  0  0  0  0  0  0
  194.4460  168.2290  145.9530 C   0  0  0  0  0  3  0  0  0  0  0  0
  193.4370  168.2760  144.9900 C   0  0  0  0  0  3  0  0  0  0  0  0
  195.0630  169.4170  146.3500 C   0  0  0  0  0  3  0  0  0  0  0  0
  193.0640  169.4690  144.4510 N   0  0  0  0  0  0  0  0  0  0  0  0
  194.6670  170.6300  145.7870 C   0  0  0  0  0  3  0  0  0  0  0  0
  1  2  1  0  0  0  0
  1 23  1  0  0  0  0
  2  3  2  0  0  0  0
  4  6  1  0  0  0  0
  4  9  2  0  0  0  0
  5  8  1  0  0  0  0
  5 13  2  0  0  0  0
  6 10  2  0  0  0  0
  7  4  1  0  0  0  0
  8 10  1  6  0  0  0
  8 11  1  0  0  0  0
  9  5  1  0  0  0  0
 11 12  2  0  0  0  0
 11  1  1  0  0  0  0
 13 12  1  0  0  0  0
 14  2  1  0  0  0  0
 15 21  2  0  0  0  0
 15 19  1  0  0  0  0
 16 17  1  6  0  0  0
 16 15  1  0  0  0  0
 18 20  1  0  0  0  0
 20 19  1  0  0  0  0
 20 14  1  6  0  0  0
 22 16  1  0  0  0  0
 22 18  2  0  0  0  0
 24 25  1  0  0  0  0
 24 23  1  0  0  0  0
 25 26  1  0  0  0  0
 27 29  1  0  0  0  0
 27 25  1  0  0  0  0
 28 29  1  0  0  0  0
 29 30  2  0  0  0  0
 31 35  1  0  0  0  0
 31 28  1  1  0  0  0
 32 35  2  0  0  0  0
 33 31  1  0  0  0  0
 34 36  1  0  0  0  0
 34 33  1  0  0  0  0
 35 37  1  0  0  0  0
 36 32  1  0  0  0  0
 37 38  1  0  0  0  0
 38 43  1  0  0  0  0
 39 41  1  0  0  0  0
 40 39  2  0  0  0  0
 42 38  2  0  0  0  0
 42 40  1  0  0  0  0
 43 41  2  0  0  0  0
M  END
>  <MODEL>
1

>  <REMARK>
 VINA RESULT:      -7.5      0.000      0.000
  Name = 
  11 active torsions:
  status: ('A' for Active; 'I' for Inactive)
    1  A    between atoms: C_1  and  C_34
    2  A    between atoms: C_1  and  C_35
    3  A    between atoms: N_2  and  C_6
    4  A    between atoms: N_2  and  C_13
    5  A    between atoms: N_3  and  C_4
    6  A    between atoms: C_6  and  C_12
    7  A    between atoms: N_8  and  C_27
    8  A    between atoms: N_8  and  C_30
    9  A    between atoms: C_11  and  C_14
   10  A    between atoms: C_13  and  C_27
   11  A    between atoms: C_14  and  C_41
                            x       y       z     vdW  Elec       q    Type
                         _______ _______ _______ _____ _____    ______ ____

>  <TORSDO>
F 11

$$$$
=
 OpenBabel11052421213D

 43 47  0  0  1  0  0  0  0  0999 V2000
  189.6750  175.4020  145.0540 N   0  0  0  0  0  0  0  0  0  0  0  0
  189.7580  175.8350  146.4240 C   0  0  0  0  0  0  0  0  0  0  0  0
  190.3510  175.1190  147.2760 O   0  0  0  0  0  0  0  0  0  0  0  0
  186.4950  177.4000  141.2480 C   0  0  0  0  0  0  0  0  0  0  0  0
  188.7570  177.2980  142.0380 C   0  0  0  0  0  0  0  0  0  0  0  0
  186.1030  176.6100  142.4460 C   0  0  0  0  0  3  0  0  0  0  0  0
  185.4470  177.8780  140.3090 C   0  0  0  0  0  1  0  0  0  0  0  0
  188.4840  176.0760  142.8450 C   0  0  2  0  0  3  0  0  0  0  0  0
  187.7650  177.7860  141.0750 C   0  0  0  0  0  3  0  0  0  0  0  0
  187.0290  176.0390  143.2340 C   0  0  0  0  0  3  0  0  0  0  0  0
  189.4260  176.3180  143.9720 C   0  0  0  0  0  0  0  0  0  0  0  0
  190.1530  177.4030  143.7160 C   0  0  0  0  0  3  0  0  0  0  0  0
  189.6970  178.0370  142.5250 N   0  0  0  0  0  0  0  0  0  0  0  0
  189.0550  177.0730  146.8900 C   0  0  0  0  0  2  0  0  0  0  0  0
  185.9740  178.7560  145.3500 C   0  0  0  0  0  0  0  0  0  0  0  0
  184.8800  177.8200  145.8260 C   0  0  2  0  0  3  0  0  0  0  0  0
  183.6650  178.5980  146.2990 C   0  0  0  0  0  1  0  0  0  0  0  0
  186.6370  176.6190  147.1320 C   0  0  0  0  0  3  0  0  0  0  0  0
  187.3620  178.6540  145.9120 C   0  0  0  0  0  2  0  0  0  0  0  0
  187.6910  177.1930  146.2300 C   0  0  1  0  0  3  0  0  0  0  0  0
  185.7620  179.5620  144.3110 C   0  0  0  0  0  2  0  0  0  0  0  0
  185.3430  176.9110  146.9400 C   0  0  0  0  0  3  0  0  0  0  0  0
  189.7750  173.9780  144.7560 C   0  0  0  0  0  2  0  0  0  0  0  0
  191.1940  173.6390  144.2820 C   0  0  0  0  0  2  0  0  0  0  0  0
  191.2290  172.9390  142.9940 N   0  0  0  0  0  0  0  0  0  0  0  0
  189.8810  172.5420  142.6110 C   0  0  0  0  0  1  0  0  0  0  0  0
  192.0390  171.7330  143.1210 C   0  0  0  0  0  2  0  0  0  0  0  0
  194.5780  171.8020  142.9850 N   0  0  0  0  0  2  0  0  0  0  0  0
  193.3080  171.8530  142.3340 C   0  0  0  0  0  0  0  0  0  0  0  0
  193.2620  172.0410  141.0900 O   0  0  0  0  0  0  0  0  0  0  0  0
  194.7170  171.7860  144.4360 C   0  0  1  0  0  3  0  0  0  0  0  0
  196.8280  171.8260  145.7390 C   0  0  0  0  0  3  0  0  0  0  0  0
  194.6390  170.3380  144.9390 C   0  0  0  0  0  2  0  0  0  0  0  0
  195.0890  170.2670  146.2710 O   0  0  0  0  0  0  0  0  0  0  0  0
  196.0260  172.4320  144.8490 C   0  0  0  0  0  0  0  0  0  0  0  0
  196.4860  170.4390  146.2190 C   0  0  0  0  0  2  0  0  0  0  0  0
  196.3640  173.8150  144.3850 C   0  0  0  0  0  2  0  0  0  0  0  0
  195.3080  174.7950  144.7710 C   0  0  0  0  0  0  0  0  0  0  0  0
  193.3850  176.6680  145.4710 C   0  0  0  0  0  3  0  0  0  0  0  0
  193.5880  176.3080  144.1380 C   0  0  0  0  0  3  0  0  0  0  0  0
  194.1660  176.0720  146.4640 C   0  0  0  0  0  3  0  0  0  0  0  0
  194.5380  175.3870  143.8180 N   0  0  0  0  0  0  0  0  0  0  0  0
  195.1340  175.1300  146.1150 C   0  0  0  0  0  3  0  0  0  0  0  0
  1  2  1  0  0  0  0
  2 14  1  0  0  0  0
  2  3  2  0  0  0  0
  4  6  1  0  0  0  0
  5 13  2  0  0  0  0
  5  8  1  0  0  0  0
  6 10  2  0  0  0  0
  7  4  1  0  0  0  0
  8 10  1  1  0  0  0
  8 11  1  0  0  0  0
  9  4  2  0  0  0  0
  9  5  1  0  0  0  0
 11  1  1  0  0  0  0
 12 11  2  0  0  0  0
 13 12  1  0  0  0  0
 15 16  1  0  0  0  0
 15 19  1  0  0  0  0
 16 17  1  1  0  0  0
 16 22  1  0  0  0  0
 19 20  1  0  0  0  0
 20 14  1  1  0  0  0
 20 18  1  0  0  0  0
 21 15  2  0  0  0  0
 22 18  2  0  0  0  0
 23  1  1  0  0  0  0
 24 23  1  0  0  0  0
 25 27  1  0  0  0  0
 25 24  1  0  0  0  0
 26 25  1  0  0  0  0
 29 28  1  0  0  0  0
 29 27  1  0  0  0  0
 30 29  2  0  0  0  0
 31 28  1  6  0  0  0
 31 35  1  0  0  0  0
 31 33  1  0  0  0  0
 32 36  1  0  0  0  0
 33 34  1  0  0  0  0
 35 32  2  0  0  0  0
 36 34  1  0  0  0  0
 37 38  1  0  0  0  0
 37 35  1  0  0  0  0
 38 43  1  0  0  0  0
 39 41  1  0  0  0  0
 40 39  2  0  0  0  0
 42 40  1  0  0  0  0
 42 38  2  0  0  0  0
 43 41  2  0  0  0  0
M  END
>  <MODEL>
2

>  <REMARK>
 VINA RESULT:      -7.5      1.948      4.627
  Name = 
  11 active torsions:
  status: ('A' for Active; 'I' for Inactive)
    1  A    between atoms: C_1  and  C_34
    2  A    between atoms: C_1  and  C_35
    3  A    between atoms: N_2  and  C_6
    4  A    between atoms: N_2  and  C_13
    5  A    between atoms: N_3  and  C_4
    6  A    between atoms: C_6  and  C_12
    7  A    between atoms: N_8  and  C_27
    8  A    between atoms: N_8  and  C_30
    9  A    between atoms: C_11  and  C_14
   10  A    between atoms: C_13  and  C_27
   11  A    between atoms: C_14  and  C_41
                            x       y       z     vdW  Elec       q    Type
                         _______ _______ _______ _____ _____    ______ ____

>  <TORSDO>
F 11

$$$$
=
 OpenBabel11052421213D

 43 47  0  0  1  0  0  0  0  0999 V2000
  192.9060  176.0640  144.3300 N   0  0  0  0  0  0  0  0  0  0  0  0
  194.1500  176.0220  145.0520 C   0  0  0  0  0  0  0  0  0  0  0  0
  195.0800  176.8180  144.7510 O   0  0  0  0  0  0  0  0  0  0  0  0
  187.9360  176.7050  146.1960 C   0  0  0  0  0  0  0  0  0  0  0  0
  189.7770  175.1750  146.0470 C   0  0  0  0  0  0  0  0  0  0  0  0
  188.7260  177.6450  145.3560 C   0  0  0  0  0  3  0  0  0  0  0  0
  186.5540  177.0680  146.6020 C   0  0  0  0  0  1  0  0  0  0  0  0
  190.7430  176.2700  145.7550 C   0  0  2  0  0  3  0  0  0  0  0  0
  188.4130  175.4870  146.4830 C   0  0  0  0  0  3  0  0  0  0  0  0
  190.0240  177.4170  145.0930 C   0  0  0  0  0  3  0  0  0  0  0  0
  191.6840  175.5300  144.8700 C   0  0  0  0  0  0  0  0  0  0  0  0
  191.3370  174.2460  144.8310 C   0  0  0  0  0  3  0  0  0  0  0  0
  190.1150  174.0400  145.5330 N   0  0  0  0  0  0  0  0  0  0  0  0
  194.4090  174.9730  146.0890 C   0  0  0  0  0  2  0  0  0  0  0  0
  195.0500  171.2700  145.3300 C   0  0  0  0  0  0  0  0  0  0  0  0
  196.5590  171.2760  145.1790 C   0  0  2  0  0  3  0  0  0  0  0  0
  197.1790  170.0740  145.8690 C   0  0  0  0  0  1  0  0  0  0  0  0
  196.5030  173.6760  145.8610 C   0  0  0  0  0  3  0  0  0  0  0  0
  194.3360  172.4680  145.8850 C   0  0  0  0  0  2  0  0  0  0  0  0
  195.0580  173.7500  145.4600 C   0  0  1  0  0  3  0  0  0  0  0  0
  194.3280  170.2760  144.8160 C   0  0  0  0  0  2  0  0  0  0  0  0
  197.1900  172.5330  145.7280 C   0  0  0  0  0  3  0  0  0  0  0  0
  192.8950  176.6010  142.9730 C   0  0  0  0  0  2  0  0  0  0  0  0
  192.6230  175.4770  141.9670 C   0  0  0  0  0  2  0  0  0  0  0  0
  193.6610  174.4400  141.9520 N   0  0  0  0  0  0  0  0  0  0  0  0
  194.9470  175.0350  141.6180 C   0  0  0  0  0  1  0  0  0  0  0  0
  193.3400  173.4480  140.9330 C   0  0  0  0  0  2  0  0  0  0  0  0
  190.9720  172.5180  140.9750 N   0  0  0  0  0  2  0  0  0  0  0  0
  192.3230  172.4700  141.4370 C   0  0  0  0  0  0  0  0  0  0  0  0
  192.6450  171.6200  142.3070 O   0  0  0  0  0  0  0  0  0  0  0  0
  190.4710  173.5890  140.1230 C   0  0  1  0  0  3  0  0  0  0  0  0
  188.1030  174.2440  139.7780 C   0  0  0  0  0  3  0  0  0  0  0  0
  190.3580  173.0800  138.6790 C   0  0  0  0  0  2  0  0  0  0  0  0
  189.5840  173.9730  137.9150 O   0  0  0  0  0  0  0  0  0  0  0  0
  189.1290  174.0830  140.6290 C   0  0  0  0  0  0  0  0  0  0  0  0
  188.2530  173.8020  138.3450 C   0  0  0  0  0  2  0  0  0  0  0  0
  188.9780  174.5360  142.0480 C   0  0  0  0  0  2  0  0  0  0  0  0
  188.1360  175.7630  142.1440 C   0  0  0  0  0  0  0  0  0  0  0  0
  186.6040  178.0650  142.3770 C   0  0  0  0  0  3  0  0  0  0  0  0
  187.8800  178.1030  141.8120 C   0  0  0  0  0  3  0  0  0  0  0  0
  186.0960  176.8450  142.8290 C   0  0  0  0  0  3  0  0  0  0  0  0
  188.6140  176.9610  141.7090 N   0  0  0  0  0  0  0  0  0  0  0  0
  186.8640  175.6860  142.7140 C   0  0  0  0  0  3  0  0  0  0  0  0
  1 11  1  0  0  0  0
  1  2  1  0  0  0  0
  2 14  1  0  0  0  0
  3  2  2  0  0  0  0
  4  9  2  0  0  0  0
  4  7  1  0  0  0  0
  5  9  1  0  0  0  0
  6  4  1  0  0  0  0
  8 10  1  6  0  0  0
  8  5  1  0  0  0  0
 10  6  2  0  0  0  0
 11  8  1  0  0  0  0
 12 11  2  0  0  0  0
 12 13  1  0  0  0  0
 13  5  2  0  0  0  0
 15 19  1  0  0  0  0
 16 15  1  0  0  0  0
 16 22  1  0  0  0  0
 16 17  1  1  0  0  0
 20 18  1  0  0  0  0
 20 19  1  0  0  0  0
 20 14  1  1  0  0  0
 21 15  2  0  0  0  0
 22 18  2  0  0  0  0
 23  1  1  0  0  0  0
 24 23  1  0  0  0  0
 25 24  1  0  0  0  0
 26 25  1  0  0  0  0
 27 29  1  0  0  0  0
 27 25  1  0  0  0  0
 28 29  1  0  0  0  0
 29 30  2  0  0  0  0
 31 35  1  0  0  0  0
 31 28  1  1  0  0  0
 32 35  2  0  0  0  0
 33 31  1  0  0  0  0
 34 36  1  0  0  0  0
 34 33  1  0  0  0  0
 35 37  1  0  0  0  0
 36 32  1  0  0  0  0
 37 38  1  0  0  0  0
 38 43  1  0  0  0  0
 39 41  1  0  0  0  0
 40 39  2  0  0  0  0
 42 40  1  0  0  0  0
 42 38  2  0  0  0  0
 43 41  2  0  0  0  0
M  END
>  <MODEL>
3

>  <REMARK>
 VINA RESULT:      -7.4      2.297      7.799
  Name = 
  11 active torsions:
  status: ('A' for Active; 'I' for Inactive)
    1  A    between atoms: C_1  and  C_34
    2  A    between atoms: C_1  and  C_35
    3  A    between atoms: N_2  and  C_6
    4  A    between atoms: N_2  and  C_13
    5  A    between atoms: N_3  and  C_4
    6  A    between atoms: C_6  and  C_12
    7  A    between atoms: N_8  and  C_27
    8  A    between atoms: N_8  and  C_30
    9  A    between atoms: C_11  and  C_14
   10  A    between atoms: C_13  and  C_27
   11  A    between atoms: C_14  and  C_41
                            x       y       z     vdW  Elec       q    Type
                         _______ _______ _______ _____ _____    ______ ____

>  <TORSDO>
F 11

$$$$
=
 OpenBabel11052421213D

 43 47  0  0  1  0  0  0  0  0999 V2000
  191.1600  175.4760  145.9870 N   0  0  0  0  0  0  0  0  0  0  0  0
  189.9660  175.8330  146.7060 C   0  0  0  0  0  0  0  0  0  0  0  0
  190.0480  176.2550  147.8920 O   0  0  0  0  0  0  0  0  0  0  0  0
  190.0400  173.0360  141.3630 C   0  0  0  0  0  0  0  0  0  0  0  0
  191.3610  174.7570  142.3850 C   0  0  0  0  0  0  0  0  0  0  0  0
  189.4030  172.8190  142.6890 C   0  0  0  0  0  3  0  0  0  0  0  0
  189.5700  172.2580  140.1870 C   0  0  0  0  0  1  0  0  0  0  0  0
  191.1890  174.1670  143.7420 C   0  0  2  0  0  3  0  0  0  0  0  0
  190.9430  174.0100  141.1950 C   0  0  0  0  0  3  0  0  0  0  0  0
  189.8970  173.3940  143.7990 C   0  0  0  0  0  3  0  0  0  0  0  0
  191.2040  175.4180  144.5490 C   0  0  0  0  0  0  0  0  0  0  0  0
  191.4760  176.4520  143.7580 C   0  0  0  0  0  3  0  0  0  0  0  0
  191.5280  176.0360  142.3970 N   0  0  0  0  0  0  0  0  0  0  0  0
  188.6090  175.6110  146.1150 C   0  0  0  0  0  2  0  0  0  0  0  0
  185.6700  178.0630  146.3340 C   0  0  0  0  0  0  0  0  0  0  0  0
  185.9400  178.9280  145.1180 C   0  0  2  0  0  3  0  0  0  0  0  0
  184.6560  179.2210  144.3620 C   0  0  0  0  0  1  0  0  0  0  0  0
  187.8160  177.3740  144.5720 C   0  0  0  0  0  3  0  0  0  0  0  0
  186.4260  176.7820  146.5400 C   0  0  0  0  0  2  0  0  0  0  0  0
  187.8520  176.9250  146.0050 C   0  0  1  0  0  3  0  0  0  0  0  0
  184.8890  178.5100  147.3150 C   0  0  0  0  0  2  0  0  0  0  0  0
  186.9320  178.2980  144.1700 C   0  0  0  0  0  3  0  0  0  0  0  0
  192.3490  175.0890  146.7390 C   0  0  0  0  0  2  0  0  0  0  0  0
  193.2780  176.2960  146.9090 C   0  0  0  0  0  2  0  0  0  0  0  0
  194.6030  176.1050  146.3090 N   0  0  0  0  0  0  0  0  0  0  0  0
  194.9090  177.2220  145.4260 C   0  0  0  0  0  1  0  0  0  0  0  0
  194.6020  174.8840  145.5130 C   0  0  0  0  0  2  0  0  0  0  0  0
  196.2680  174.4740  143.6350 N   0  0  0  0  0  2  0  0  0  0  0  0
  195.9810  174.5540  145.0330 C   0  0  0  0  0  0  0  0  0  0  0  0
  196.8940  174.3040  145.8620 O   0  0  0  0  0  0  0  0  0  0  0  0
  195.2310  174.5530  142.6150 C   0  0  1  0  0  3  0  0  0  0  0  0
  195.4220  173.8940  140.2310 C   0  0  0  0  0  3  0  0  0  0  0  0
  195.1920  175.9750  142.0370 C   0  0  0  0  0  2  0  0  0  0  0  0
  194.4400  175.9900  140.8490 O   0  0  0  0  0  0  0  0  0  0  0  0
  195.4850  173.5320  141.5220 C   0  0  0  0  0  0  0  0  0  0  0  0
  195.2330  175.3470  139.8780 C   0  0  0  0  0  2  0  0  0  0  0  0
  195.6600  172.0850  141.8660 C   0  0  0  0  0  2  0  0  0  0  0  0
  194.4620  171.5420  142.5700 C   0  0  0  0  0  0  0  0  0  0  0  0
  192.2670  170.4720  143.8870 C   0  0  0  0  0  3  0  0  0  0  0  0
  193.3810  170.9250  144.5950 C   0  0  0  0  0  3  0  0  0  0  0  0
  192.2630  170.5640  142.4930 C   0  0  0  0  0  3  0  0  0  0  0  0
  194.4470  171.4460  143.9280 N   0  0  0  0  0  0  0  0  0  0  0  0
  193.3660  171.1000  141.8280 C   0  0  0  0  0  3  0  0  0  0  0  0
  1  2  1  0  0  0  0
  1 23  1  0  0  0  0
  2  3  2  0  0  0  0
  4  6  1  0  0  0  0
  5 13  2  0  0  0  0
  5  8  1  0  0  0  0
  6 10  2  0  0  0  0
  7  4  1  0  0  0  0
  8 10  1  6  0  0  0
  8 11  1  0  0  0  0
  9  4  2  0  0  0  0
  9  5  1  0  0  0  0
 11  1  1  0  0  0  0
 12 11  2  0  0  0  0
 13 12  1  0  0  0  0
 14  2  1  0  0  0  0
 15 19  1  0  0  0  0
 15 21  2  0  0  0  0
 16 17  1  6  0  0  0
 16 15  1  0  0  0  0
 18 20  1  0  0  0  0
 20 14  1  6  0  0  0
 20 19  1  0  0  0  0
 22 18  2  0  0  0  0
 22 16  1  0  0  0  0
 23 24  1  0  0  0  0
 25 24  1  0  0  0  0
 26 25  1  0  0  0  0
 27 25  1  0  0  0  0
 28 29  1  0  0  0  0
 29 27  1  0  0  0  0
 29 30  2  0  0  0  0
 31 28  1  1  0  0  0
 32 35  2  0  0  0  0
 33 31  1  0  0  0  0
 34 33  1  0  0  0  0
 35 37  1  0  0  0  0
 35 31  1  0  0  0  0
 36 32  1  0  0  0  0
 36 34  1  0  0  0  0
 37 38  1  0  0  0  0
 38 42  1  0  0  0  0
 39 40  1  0  0  0  0
 41 39  2  0  0  0  0
 42 40  2  0  0  0  0
 43 41  1  0  0  0  0
 43 38  2  0  0  0  0
M  END
>  <MODEL>
4

>  <REMARK>
 VINA RESULT:      -7.3      1.458      2.265
  Name = 
  11 active torsions:
  status: ('A' for Active; 'I' for Inactive)
    1  A    between atoms: C_1  and  C_34
    2  A    between atoms: C_1  and  C_35
    3  A    between atoms: N_2  and  C_6
    4  A    between atoms: N_2  and  C_13
    5  A    between atoms: N_3  and  C_4
    6  A    between atoms: C_6  and  C_12
    7  A    between atoms: N_8  and  C_27
    8  A    between atoms: N_8  and  C_30
    9  A    between atoms: C_11  and  C_14
   10  A    between atoms: C_13  and  C_27
   11  A    between atoms: C_14  and  C_41
                            x       y       z     vdW  Elec       q    Type
                         _______ _______ _______ _____ _____    ______ ____

>  <TORSDO>
F 11

$$$$
=
 OpenBabel11052421213D

 43 47  0  0  1  0  0  0  0  0999 V2000
  190.0730  176.4540  143.6830 N   0  0  0  0  0  0  0  0  0  0  0  0
  191.4490  176.8650  143.7820 C   0  0  0  0  0  0  0  0  0  0  0  0
  192.0360  177.3480  142.7760 O   0  0  0  0  0  0  0  0  0  0  0  0
  185.8460  177.9580  146.5910 C   0  0  0  0  0  0  0  0  0  0  0  0
  187.8810  176.6890  146.6270 C   0  0  0  0  0  0  0  0  0  0  0  0
  186.1090  178.2280  145.1530 C   0  0  0  0  0  3  0  0  0  0  0  0
  184.5930  178.4560  147.2140 C   0  0  0  0  0  1  0  0  0  0  0  0
  188.4260  177.4170  145.4470 C   0  0  2  0  0  3  0  0  0  0  0  0
  186.6660  177.1660  147.2940 C   0  0  0  0  0  3  0  0  0  0  0  0
  187.2920  177.9210  144.5940 C   0  0  0  0  0  3  0  0  0  0  0  0
  189.2250  176.3180  144.8380 C   0  0  0  0  0  0  0  0  0  0  0  0
  189.2040  175.2580  145.6410 C   0  0  0  0  0  3  0  0  0  0  0  0
  188.3230  175.4820  146.7370 N   0  0  0  0  0  0  0  0  0  0  0  0
  192.2400  176.6290  145.0320 C   0  0  0  0  0  2  0  0  0  0  0  0
  194.3240  173.4580  145.5810 C   0  0  0  0  0  0  0  0  0  0  0  0
  195.6970  173.9550  145.1740 C   0  0  2  0  0  3  0  0  0  0  0  0
  196.7630  173.4590  146.1340 C   0  0  0  0  0  1  0  0  0  0  0  0
  194.6770  176.2200  144.9270 C   0  0  0  0  0  3  0  0  0  0  0  0
  193.1910  174.4240  145.7760 C   0  0  0  0  0  2  0  0  0  0  0  0
  193.3220  175.5880  144.7910 C   0  0  1  0  0  3  0  0  0  0  0  0
  194.0620  172.1530  145.6040 C   0  0  0  0  0  2  0  0  0  0  0  0
  195.7680  175.4620  145.1030 C   0  0  0  0  0  3  0  0  0  0  0  0
  189.5370  176.0910  142.3750 C   0  0  0  0  0  2  0  0  0  0  0  0
  190.0850  174.7260  141.9440 C   0  0  0  0  0  2  0  0  0  0  0  0
  189.1330  173.9360  141.1560 N   0  0  0  0  0  0  0  0  0  0  0  0
  187.9600  173.6290  141.9620 C   0  0  0  0  0  1  0  0  0  0  0  0
  189.7560  172.6780  140.7640 C   0  0  0  0  0  2  0  0  0  0  0  0
  192.1730  172.5060  139.9890 N   0  0  0  0  0  2  0  0  0  0  0  0
  190.8240  172.9040  139.7380 C   0  0  0  0  0  0  0  0  0  0  0  0
  190.5470  173.4870  138.6570 O   0  0  0  0  0  0  0  0  0  0  0  0
  192.6180  172.0080  141.2840 C   0  0  1  0  0  3  0  0  0  0  0  0
  194.9470  171.9060  142.1310 C   0  0  0  0  0  3  0  0  0  0  0  0
  192.7590  170.4800  141.2220 C   0  0  0  0  0  2  0  0  0  0  0  0
  193.4850  170.0190  142.3350 O   0  0  0  0  0  0  0  0  0  0  0  0
  193.9310  172.6570  141.6790 C   0  0  0  0  0  0  0  0  0  0  0  0
  194.8220  170.4040  142.1150 C   0  0  0  0  0  2  0  0  0  0  0  0
  194.0550  174.1490  141.7090 C   0  0  0  0  0  2  0  0  0  0  0  0
  195.1930  174.6190  140.8680 C   0  0  0  0  0  0  0  0  0  0  0  0
  197.3340  175.4300  139.3000 C   0  0  0  0  0  3  0  0  0  0  0  0
  196.2220  174.8050  138.7330 C   0  0  0  0  0  3  0  0  0  0  0  0
  197.3630  175.6490  140.6790 C   0  0  0  0  0  3  0  0  0  0  0  0
  195.1840  174.4150  139.5220 N   0  0  0  0  0  0  0  0  0  0  0  0
  196.2880  175.2420  141.4710 C   0  0  0  0  0  3  0  0  0  0  0  0
  1  2  1  0  0  0  0
  1 11  1  0  0  0  0
  2 14  1  0  0  0  0
  3  2  2  0  0  0  0
  4  7  1  0  0  0  0
  4  9  2  0  0  0  0
  5 13  2  0  0  0  0
  5  9  1  0  0  0  0
  6  4  1  0  0  0  0
  8 10  1  6  0  0  0
  8  5  1  0  0  0  0
 10  6  2  0  0  0  0
 11  8  1  0  0  0  0
 11 12  2  0  0  0  0
 12 13  1  0  0  0  0
 15 21  2  0  0  0  0
 15 19  1  0  0  0  0
 16 15  1  0  0  0  0
 16 17  1  1  0  0  0
 18 22  2  0  0  0  0
 20 18  1  0  0  0  0
 20 14  1  1  0  0  0
 20 19  1  0  0  0  0
 22 16  1  0  0  0  0
 23  1  1  0  0  0  0
 24 23  1  0  0  0  0
 25 24  1  0  0  0  0
 25 26  1  0  0  0  0
 27 25  1  0  0  0  0
 29 28  1  0  0  0  0
 29 27  1  0  0  0  0
 30 29  2  0  0  0  0
 31 28  1  6  0  0  0
 31 35  1  0  0  0  0
 33 31  1  0  0  0  0
 33 34  1  0  0  0  0
 35 37  1  0  0  0  0
 35 32  2  0  0  0  0
 36 32  1  0  0  0  0
 36 34  1  0  0  0  0
 38 43  1  0  0  0  0
 38 37  1  0  0  0  0
 39 41  1  0  0  0  0
 40 39  2  0  0  0  0
 40 42  1  0  0  0  0
 41 43  2  0  0  0  0
 42 38  2  0  0  0  0
M  END
>  <MODEL>
5

>  <REMARK>
 VINA RESULT:      -7.2      2.581      7.025
  Name = 
  11 active torsions:
  status: ('A' for Active; 'I' for Inactive)
    1  A    between atoms: C_1  and  C_34
    2  A    between atoms: C_1  and  C_35
    3  A    between atoms: N_2  and  C_6
    4  A    between atoms: N_2  and  C_13
    5  A    between atoms: N_3  and  C_4
    6  A    between atoms: C_6  and  C_12
    7  A    between atoms: N_8  and  C_27
    8  A    between atoms: N_8  and  C_30
    9  A    between atoms: C_11  and  C_14
   10  A    between atoms: C_13  and  C_27
   11  A    between atoms: C_14  and  C_41
                            x       y       z     vdW  Elec       q    Type
                         _______ _______ _______ _____ _____    ______ ____

>  <TORSDO>
F 11

$$$$
=
 OpenBabel11052421213D

 43 47  0  0  1  0  0  0  0  0999 V2000
  193.3360  174.8630  142.7430 N   0  0  0  0  0  0  0  0  0  0  0  0
  194.6810  174.3590  142.8370 C   0  0  0  0  0  0  0  0  0  0  0  0
  195.3390  174.1210  141.7880 O   0  0  0  0  0  0  0  0  0  0  0  0
  189.6310  175.1470  146.5870 C   0  0  0  0  0  0  0  0  0  0  0  0
  191.2080  176.4210  145.3070 C   0  0  0  0  0  0  0  0  0  0  0  0
  190.1370  173.9330  145.8940 C   0  0  0  0  0  3  0  0  0  0  0  0
  188.5980  175.0090  147.6470 C   0  0  0  0  0  1  0  0  0  0  0  0
  191.2790  175.3790  144.2450 C   0  0  2  0  0  3  0  0  0  0  0  0
  190.1830  176.3430  146.3530 C   0  0  0  0  0  3  0  0  0  0  0  0
  190.9590  174.0310  144.8350 C   0  0  0  0  0  3  0  0  0  0  0  0
  192.6970  175.5590  143.8290 C   0  0  0  0  0  0  0  0  0  0  0  0
  193.2170  176.6020  144.4700 C   0  0  0  0  0  3  0  0  0  0  0  0
  192.2930  177.1100  145.4270 N   0  0  0  0  0  0  0  0  0  0  0  0
  195.2840  174.0030  144.1610 C   0  0  0  0  0  2  0  0  0  0  0  0
  194.0420  170.4600  144.9380 C   0  0  0  0  0  0  0  0  0  0  0  0
  195.2780  169.8700  145.5890 C   0  0  2  0  0  3  0  0  0  0  0  0
  194.9100  169.0460  146.8100 C   0  0  0  0  0  1  0  0  0  0  0  0
  196.3070  172.1380  145.4230 C   0  0  0  0  0  3  0  0  0  0  0  0
  193.9500  171.9360  144.6770 C   0  0  0  0  0  2  0  0  0  0  0  0
  195.3340  172.4930  144.3360 C   0  0  1  0  0  3  0  0  0  0  0  0
  193.1020  169.6610  144.4370 C   0  0  0  0  0  2  0  0  0  0  0  0
  196.2770  170.9270  145.9960 C   0  0  0  0  0  3  0  0  0  0  0  0
  192.5660  174.5990  141.5330 C   0  0  0  0  0  2  0  0  0  0  0  0
  192.1860  173.1150  141.4660 C   0  0  0  0  0  2  0  0  0  0  0  0
  190.8160  172.8820  140.9960 N   0  0  0  0  0  0  0  0  0  0  0  0
  190.8320  172.5490  139.5790 C   0  0  0  0  0  1  0  0  0  0  0  0
  190.0320  174.0990  141.1690 C   0  0  0  0  0  2  0  0  0  0  0  0
  187.7340  174.7940  142.0110 N   0  0  0  0  0  2  0  0  0  0  0  0
  188.7860  173.8280  141.9540 C   0  0  0  0  0  0  0  0  0  0  0  0
  188.6730  172.7580  142.6080 O   0  0  0  0  0  0  0  0  0  0  0  0
  187.8660  176.1320  141.4510 C   0  0  1  0  0  3  0  0  0  0  0  0
  186.4760  178.1190  141.9750 C   0  0  0  0  0  3  0  0  0  0  0  0
  187.1340  176.1940  140.1020 C   0  0  0  0  0  2  0  0  0  0  0  0
  186.9710  177.5340  139.7050 O   0  0  0  0  0  0  0  0  0  0  0  0
  187.3130  177.1660  142.4140 C   0  0  0  0  0  0  0  0  0  0  0  0
  185.9820  178.0740  140.5520 C   0  0  0  0  0  2  0  0  0  0  0  0
  187.8110  177.2240  143.8250 C   0  0  0  0  0  2  0  0  0  0  0  0
  186.7140  177.5650  144.7770 C   0  0  0  0  0  0  0  0  0  0  0  0
  184.7220  178.2160  146.5950 C   0  0  0  0  0  3  0  0  0  0  0  0
  185.3960  179.2070  145.8800 C   0  0  0  0  0  3  0  0  0  0  0  0
  185.0590  176.8770  146.3860 C   0  0  0  0  0  3  0  0  0  0  0  0
  186.3710  178.8640  144.9930 N   0  0  0  0  0  0  0  0  0  0  0  0
  186.0620  176.5460  145.4730 C   0  0  0  0  0  3  0  0  0  0  0  0
  1  2  1  0  0  0  0
  1 11  1  0  0  0  0
  2 14  1  0  0  0  0
  3  2  2  0  0  0  0
  4  7  1  0  0  0  0
  5 13  2  0  0  0  0
  5  9  1  0  0  0  0
  6  4  1  0  0  0  0
  8 10  1  1  0  0  0
  8  5  1  0  0  0  0
  9  4  2  0  0  0  0
 10  6  2  0  0  0  0
 11  8  1  0  0  0  0
 11 12  2  0  0  0  0
 12 13  1  0  0  0  0
 15 16  1  0  0  0  0
 16 22  1  0  0  0  0
 16 17  1  1  0  0  0
 18 22  2  0  0  0  0
 19 15  1  0  0  0  0
 20 14  1  1  0  0  0
 20 19  1  0  0  0  0
 20 18  1  0  0  0  0
 21 15  2  0  0  0  0
 23  1  1  0  0  0  0
 24 23  1  0  0  0  0
 25 27  1  0  0  0  0
 25 24  1  0  0  0  0
 26 25  1  0  0  0  0
 27 29  1  0  0  0  0
 29 28  1  0  0  0  0
 29 30  2  0  0  0  0
 31 28  1  1  0  0  0
 31 35  1  0  0  0  0
 32 35  2  0  0  0  0
 33 31  1  0  0  0  0
 34 33  1  0  0  0  0
 34 36  1  0  0  0  0
 35 37  1  0  0  0  0
 36 32  1  0  0  0  0
 37 38  1  0  0  0  0
 38 42  2  0  0  0  0
 38 43  1  0  0  0  0
 40 39  2  0  0  0  0
 41 39  1  0  0  0  0
 42 40  1  0  0  0  0
 43 41  2  0  0  0  0
M  END
>  <MODEL>
6

>  <REMARK>
 VINA RESULT:      -7.2      2.545      8.908
  Name = 
  11 active torsions:
  status: ('A' for Active; 'I' for Inactive)
    1  A    between atoms: C_1  and  C_34
    2  A    between atoms: C_1  and  C_35
    3  A    between atoms: N_2  and  C_6
    4  A    between atoms: N_2  and  C_13
    5  A    between atoms: N_3  and  C_4
    6  A    between atoms: C_6  and  C_12
    7  A    between atoms: N_8  and  C_27
    8  A    between atoms: N_8  and  C_30
    9  A    between atoms: C_11  and  C_14
   10  A    between atoms: C_13  and  C_27
   11  A    between atoms: C_14  and  C_41
                            x       y       z     vdW  Elec       q    Type
                         _______ _______ _______ _____ _____    ______ ____

>  <TORSDO>
F 11

$$$$
=
 OpenBabel11052421213D

 43 47  0  0  1  0  0  0  0  0999 V2000
  188.8060  175.0970  143.2680 N   0  0  0  0  0  0  0  0  0  0  0  0
  188.0520  176.2780  142.9390 C   0  0  0  0  0  0  0  0  0  0  0  0
  187.0310  176.1880  142.2040 O   0  0  0  0  0  0  0  0  0  0  0  0
  193.3090  176.4750  145.8000 C   0  0  0  0  0  0  0  0  0  0  0  0
  191.4700  174.9350  145.7980 C   0  0  0  0  0  0  0  0  0  0  0  0
  192.6580  177.1620  144.6530 C   0  0  0  0  0  3  0  0  0  0  0  0
  194.5610  177.0320  146.3740 C   0  0  0  0  0  1  0  0  0  0  0  0
  191.1560  175.2180  144.3700 C   0  0  2  0  0  3  0  0  0  0  0  0
  192.7120  175.4360  146.3960 C   0  0  0  0  0  3  0  0  0  0  0  0
  191.6100  176.6110  144.0170 C   0  0  0  0  0  3  0  0  0  0  0  0
  189.6790  175.0350  144.4100 C   0  0  0  0  0  0  0  0  0  0  0  0
  189.3200  174.5990  145.6140 C   0  0  0  0  0  3  0  0  0  0  0  0
  190.4410  174.5820  146.4920 N   0  0  0  0  0  0  0  0  0  0  0  0
  188.5170  177.6370  143.3610 C   0  0  0  0  0  2  0  0  0  0  0  0
  185.9760  177.6730  146.2320 C   0  0  0  0  0  0  0  0  0  0  0  0
  185.1790  178.9150  145.8810 C   0  0  2  0  0  3  0  0  0  0  0  0
  183.6920  178.6800  146.0730 C   0  0  0  0  0  1  0  0  0  0  0  0
  186.5340  179.0520  143.7880 C   0  0  0  0  0  3  0  0  0  0  0  0
  186.9490  177.0900  145.2490 C   0  0  0  0  0  2  0  0  0  0  0  0
  187.5980  178.2080  144.4290 C   0  0  1  0  0  3  0  0  0  0  0  0
  185.9490  177.1870  147.4710 C   0  0  0  0  0  2  0  0  0  0  0  0
  185.4220  179.3740  144.4630 C   0  0  0  0  0  3  0  0  0  0  0  0
  188.7410  173.9460  142.3740 C   0  0  0  0  0  2  0  0  0  0  0  0
  189.7820  174.0890  141.2580 C   0  0  0  0  0  2  0  0  0  0  0  0
  189.7670  172.9810  140.2970 N   0  0  0  0  0  0  0  0  0  0  0  0
  188.3940  172.6740  139.9200 C   0  0  0  0  0  1  0  0  0  0  0  0
  190.3440  171.7950  140.9170 C   0  0  0  0  0  2  0  0  0  0  0  0
  192.8500  171.7640  141.3530 N   0  0  0  0  0  2  0  0  0  0  0  0
  191.7530  171.5790  140.4570 C   0  0  0  0  0  0  0  0  0  0  0  0
  191.9840  171.2710  139.2590 O   0  0  0  0  0  0  0  0  0  0  0  0
  192.6850  172.3100  142.6940 C   0  0  1  0  0  3  0  0  0  0  0  0
  194.4460  173.2990  144.1360 C   0  0  0  0  0  3  0  0  0  0  0  0
  192.7340  171.1670  143.7190 C   0  0  0  0  0  2  0  0  0  0  0  0
  192.9030  171.6900  145.0140 O   0  0  0  0  0  0  0  0  0  0  0  0
  193.7610  173.3410  142.9820 C   0  0  0  0  0  0  0  0  0  0  0  0
  194.2350  172.1440  145.0810 C   0  0  0  0  0  2  0  0  0  0  0  0
  193.9650  174.4970  142.0530 C   0  0  0  0  0  2  0  0  0  0  0  0
  195.3470  175.0470  142.1610 C   0  0  0  0  0  0  0  0  0  0  0  0
  197.9340  176.0190  142.4030 C   0  0  0  0  0  3  0  0  0  0  0  0
  197.6460  174.9400  141.5660 C   0  0  0  0  0  3  0  0  0  0  0  0
  196.8990  176.6150  143.1270 C   0  0  0  0  0  3  0  0  0  0  0  0
  196.3690  174.4800  141.4630 N   0  0  0  0  0  0  0  0  0  0  0  0
  195.5970  176.1280  143.0080 C   0  0  0  0  0  3  0  0  0  0  0  0
  1 11  1  0  0  0  0
  2  1  1  0  0  0  0
  2 14  1  0  0  0  0
  3  2  2  0  0  0  0
  4  7  1  0  0  0  0
  4  9  2  0  0  0  0
  5  9  1  0  0  0  0
  5 13  2  0  0  0  0
  6  4  1  0  0  0  0
  8 10  1  1  0  0  0
  8 11  1  0  0  0  0
  8  5  1  0  0  0  0
 10  6  2  0  0  0  0
 11 12  2  0  0  0  0
 12 13  1  0  0  0  0
 15 21  2  0  0  0  0
 16 17  1  6  0  0  0
 16 15  1  0  0  0  0
 18 20  1  0  0  0  0
 18 22  2  0  0  0  0
 19 15  1  0  0  0  0
 20 14  1  6  0  0  0
 20 19  1  0  0  0  0
 22 16  1  0  0  0  0
 23  1  1  0  0  0  0
 24 23  1  0  0  0  0
 25 27  1  0  0  0  0
 25 24  1  0  0  0  0
 26 25  1  0  0  0  0
 29 27  1  0  0  0  0
 29 28  1  0  0  0  0
 30 29  2  0  0  0  0
 31 28  1  6  0  0  0
 31 35  1  0  0  0  0
 31 33  1  0  0  0  0
 32 36  1  0  0  0  0
 33 34  1  0  0  0  0
 34 36  1  0  0  0  0
 35 32  2  0  0  0  0
 37 38  1  0  0  0  0
 37 35  1  0  0  0  0
 38 43  1  0  0  0  0
 39 41  1  0  0  0  0
 40 39  2  0  0  0  0
 42 40  1  0  0  0  0
 42 38  2  0  0  0  0
 43 41  2  0  0  0  0
M  END
>  <MODEL>
7

>  <REMARK>
 VINA RESULT:      -7.1      2.272      5.174
  Name = 
  11 active torsions:
  status: ('A' for Active; 'I' for Inactive)
    1  A    between atoms: C_1  and  C_34
    2  A    between atoms: C_1  and  C_35
    3  A    between atoms: N_2  and  C_6
    4  A    between atoms: N_2  and  C_13
    5  A    between atoms: N_3  and  C_4
    6  A    between atoms: C_6  and  C_12
    7  A    between atoms: N_8  and  C_27
    8  A    between atoms: N_8  and  C_30
    9  A    between atoms: C_11  and  C_14
   10  A    between atoms: C_13  and  C_27
   11  A    between atoms: C_14  and  C_41
                            x       y       z     vdW  Elec       q    Type
                         _______ _______ _______ _____ _____    ______ ____

>  <TORSDO>
F 11

$$$$
=
 OpenBabel11052421213D

 43 47  0  0  1  0  0  0  0  0999 V2000
  190.0150  175.7300  142.5780 N   0  0  0  0  0  0  0  0  0  0  0  0
  189.4970  177.0730  142.5570 C   0  0  0  0  0  0  0  0  0  0  0  0
  190.2660  178.0470  142.7820 O   0  0  0  0  0  0  0  0  0  0  0  0
  189.8690  171.8770  138.8730 C   0  0  0  0  0  0  0  0  0  0  0  0
  188.5390  173.1520  140.4080 C   0  0  0  0  0  0  0  0  0  0  0  0
  191.0630  172.5800  139.4150 C   0  0  0  0  0  3  0  0  0  0  0  0
  190.0450  170.8160  137.8480 C   0  0  0  0  0  1  0  0  0  0  0  0
  189.5710  174.2210  140.5090 C   0  0  2  0  0  3  0  0  0  0  0  0
  188.6550  172.1050  139.3890 C   0  0  0  0  0  3  0  0  0  0  0  0
  190.9330  173.6390  140.2320 C   0  0  0  0  0  3  0  0  0  0  0  0
  189.3460  174.6380  141.9210 C   0  0  0  0  0  0  0  0  0  0  0  0
  188.2920  173.9920  142.4100 C   0  0  0  0  0  3  0  0  0  0  0  0
  187.8190  173.0290  141.4730 N   0  0  0  0  0  0  0  0  0  0  0  0
  188.0330  177.3370  142.3830 C   0  0  0  0  0  2  0  0  0  0  0  0
  186.1990  177.4220  145.7490 C   0  0  0  0  0  0  0  0  0  0  0  0
  185.4940  178.7600  145.6460 C   0  0  2  0  0  3  0  0  0  0  0  0
  184.0670  178.6640  146.1560 C   0  0  0  0  0  1  0  0  0  0  0  0
  186.3670  178.9110  143.3120 C   0  0  0  0  0  3  0  0  0  0  0  0
  186.8620  176.8160  144.5460 C   0  0  0  0  0  2  0  0  0  0  0  0
  187.4410  177.9190  143.6570 C   0  0  1  0  0  3  0  0  0  0  0  0
  186.3880  176.8520  146.9380 C   0  0  0  0  0  2  0  0  0  0  0  0
  185.4730  179.2950  144.2340 C   0  0  0  0  0  3  0  0  0  0  0  0
  191.2200  175.4490  143.3500 C   0  0  0  0  0  2  0  0  0  0  0  0
  190.8450  175.0710  144.7880 C   0  0  0  0  0  2  0  0  0  0  0  0
  191.3550  176.0100  145.7930 N   0  0  0  0  0  0  0  0  0  0  0  0
  190.2960  176.9260  146.1930 C   0  0  0  0  0  1  0  0  0  0  0  0
  192.4400  176.7940  145.2160 C   0  0  0  0  0  2  0  0  0  0  0  0
  194.8770  176.1610  145.5790 N   0  0  0  0  0  2  0  0  0  0  0  0
  193.6650  176.7310  146.0760 C   0  0  0  0  0  0  0  0  0  0  0  0
  193.6220  177.1470  147.2630 O   0  0  0  0  0  0  0  0  0  0  0  0
  194.9560  175.4800  144.2930 C   0  0  1  0  0  3  0  0  0  0  0  0
  196.2690  173.4460  143.7520 C   0  0  0  0  0  3  0  0  0  0  0  0
  196.0020  176.1780  143.4120 C   0  0  0  0  0  2  0  0  0  0  0  0
  196.3260  175.3610  142.3130 O   0  0  0  0  0  0  0  0  0  0  0  0
  195.3030  174.0160  144.4890 C   0  0  0  0  0  0  0  0  0  0  0  0
  197.0990  174.3020  142.8290 C   0  0  0  0  0  2  0  0  0  0  0  0
  194.4740  173.1600  145.3950 C   0  0  0  0  0  2  0  0  0  0  0  0
  193.7890  172.0700  144.6400 C   0  0  0  0  0  0  0  0  0  0  0  0
  192.4580  170.0550  143.2740 C   0  0  0  0  0  3  0  0  0  0  0  0
  192.2730  171.3970  142.9380 C   0  0  0  0  0  3  0  0  0  0  0  0
  193.3290  169.7280  144.3150 C   0  0  0  0  0  3  0  0  0  0  0  0
  192.9360  172.3690  143.6230 N   0  0  0  0  0  0  0  0  0  0  0  0
  194.0000  170.7390  145.0050 C   0  0  0  0  0  3  0  0  0  0  0  0
  1 23  1  0  0  0  0
  2  1  1  0  0  0  0
  2  3  2  0  0  0  0
  4  9  2  0  0  0  0
  4  6  1  0  0  0  0
  5  8  1  0  0  0  0
  5 13  2  0  0  0  0
  6 10  2  0  0  0  0
  7  4  1  0  0  0  0
  8 10  1  1  0  0  0
  8 11  1  0  0  0  0
  9  5  1  0  0  0  0
 11 12  2  0  0  0  0
 11  1  1  0  0  0  0
 13 12  1  0  0  0  0
 14  2  1  0  0  0  0
 15 21  2  0  0  0  0
 16 15  1  0  0  0  0
 16 17  1  6  0  0  0
 18 20  1  0  0  0  0
 18 22  2  0  0  0  0
 19 15  1  0  0  0  0
 20 14  1  6  0  0  0
 20 19  1  0  0  0  0
 22 16  1  0  0  0  0
 23 24  1  0  0  0  0
 24 25  1  0  0  0  0
 25 26  1  0  0  0  0
 27 25  1  0  0  0  0
 27 29  1  0  0  0  0
 28 29  1  0  0  0  0
 29 30  2  0  0  0  0
 31 35  1  0  0  0  0
 31 28  1  1  0  0  0
 32 35  2  0  0  0  0
 33 31  1  0  0  0  0
 34 36  1  0  0  0  0
 34 33  1  0  0  0  0
 35 37  1  0  0  0  0
 36 32  1  0  0  0  0
 38 43  1  0  0  0  0
 38 37  1  0  0  0  0
 39 41  1  0  0  0  0
 40 39  2  0  0  0  0
 40 42  1  0  0  0  0
 41 43  2  0  0  0  0
 42 38  2  0  0  0  0
M  END
>  <MODEL>
8

>  <REMARK>
 VINA RESULT:      -7.1      1.989      3.237
  Name = 
  11 active torsions:
  status: ('A' for Active; 'I' for Inactive)
    1  A    between atoms: C_1  and  C_34
    2  A    between atoms: C_1  and  C_35
    3  A    between atoms: N_2  and  C_6
    4  A    between atoms: N_2  and  C_13
    5  A    between atoms: N_3  and  C_4
    6  A    between atoms: C_6  and  C_12
    7  A    between atoms: N_8  and  C_27
    8  A    between atoms: N_8  and  C_30
    9  A    between atoms: C_11  and  C_14
   10  A    between atoms: C_13  and  C_27
   11  A    between atoms: C_14  and  C_41
                            x       y       z     vdW  Elec       q    Type
                         _______ _______ _______ _____ _____    ______ ____

>  <TORSDO>
F 11

$$$$
=
 OpenBabel11052421213D

 43 47  0  0  1  0  0  0  0  0999 V2000
  195.4940  175.3880  143.4680 N   0  0  0  0  0  0  0  0  0  0  0  0
  195.3230  175.4850  142.0420 C   0  0  0  0  0  0  0  0  0  0  0  0
  195.1250  176.6100  141.5080 O   0  0  0  0  0  0  0  0  0  0  0  0
  195.3040  170.6850  146.0060 C   0  0  0  0  0  0  0  0  0  0  0  0
  196.7200  172.5380  145.4450 C   0  0  0  0  0  0  0  0  0  0  0  0
  194.2380  171.3300  145.1940 C   0  0  0  0  0  3  0  0  0  0  0  0
  195.0540  169.3570  146.6230 C   0  0  0  0  0  1  0  0  0  0  0  0
  195.5540  173.4230  145.1680 C   0  0  2  0  0  3  0  0  0  0  0  0
  196.5230  171.2330  146.0830 C   0  0  0  0  0  3  0  0  0  0  0  0
  194.3730  172.5890  144.7440 C   0  0  0  0  0  3  0  0  0  0  0  0
  196.1440  174.2640  144.0900 C   0  0  0  0  0  0  0  0  0  0  0  0
  197.4280  173.9540  143.9400 C   0  0  0  0  0  3  0  0  0  0  0  0
  197.7710  172.8410  144.7600 N   0  0  0  0  0  0  0  0  0  0  0  0
  195.2640  174.2600  141.1830 C   0  0  0  0  0  2  0  0  0  0  0  0
  192.7990  171.3250  141.2800 C   0  0  0  0  0  0  0  0  0  0  0  0
  191.5250  172.0200  140.8420 C   0  0  2  0  0  3  0  0  0  0  0  0
  190.7500  171.1640  139.8550 C   0  0  0  0  0  1  0  0  0  0  0  0
  192.9050  174.0660  140.4670 C   0  0  0  0  0  3  0  0  0  0  0  0
  194.1250  172.0190  141.1580 C   0  0  0  0  0  2  0  0  0  0  0  0
  193.9520  173.5210  141.3950 C   0  0  1  0  0  3  0  0  0  0  0  0
  192.7410  170.1660  141.9330 C   0  0  0  0  0  2  0  0  0  0  0  0
  191.7880  173.3690  140.2160 C   0  0  0  0  0  3  0  0  0  0  0  0
  194.9270  176.4270  144.3200 C   0  0  0  0  0  2  0  0  0  0  0  0
  193.3980  176.3130  144.3390 C   0  0  0  0  0  2  0  0  0  0  0  0
  192.8260  176.3400  145.6900 N   0  0  0  0  0  0  0  0  0  0  0  0
  193.8840  176.5450  146.6690 C   0  0  0  0  0  1  0  0  0  0  0  0
  192.1890  175.0590  145.9700 C   0  0  0  0  0  2  0  0  0  0  0  0
  189.6720  175.4200  145.8800 N   0  0  0  0  0  2  0  0  0  0  0  0
  190.8660  175.2530  146.6460 C   0  0  0  0  0  0  0  0  0  0  0  0
  190.8040  175.3130  147.9020 O   0  0  0  0  0  0  0  0  0  0  0  0
  189.6830  175.5620  144.4300 C   0  0  1  0  0  3  0  0  0  0  0  0
  187.7410  176.0200  142.9550 C   0  0  0  0  0  3  0  0  0  0  0  0
  189.6250  174.1710  143.7810 C   0  0  0  0  0  2  0  0  0  0  0  0
  189.3100  174.2910  142.4150 O   0  0  0  0  0  0  0  0  0  0  0  0
  188.5180  176.4200  143.9740 C   0  0  0  0  0  0  0  0  0  0  0  0
  187.9480  174.6510  142.3600 C   0  0  0  0  0  2  0  0  0  0  0  0
  188.3150  177.7860  144.5530 C   0  0  0  0  0  2  0  0  0  0  0  0
  186.9510  177.9350  145.1360 C   0  0  0  0  0  0  0  0  0  0  0  0
  184.4340  178.2670  146.2570 C   0  0  0  0  0  3  0  0  0  0  0  0
  184.8550  179.0560  145.1850 C   0  0  0  0  0  3  0  0  0  0  0  0
  185.2980  177.2960  146.7680 C   0  0  0  0  0  3  0  0  0  0  0  0
  186.0950  178.8760  144.6520 N   0  0  0  0  0  0  0  0  0  0  0  0
  186.5640  177.1270  146.2070 C   0  0  0  0  0  3  0  0  0  0  0  0
  1 11  1  0  0  0  0
  1 23  1  0  0  0  0
  2  1  1  0  0  0  0
  3  2  2  0  0  0  0
  4  9  2  0  0  0  0
  4  7  1  0  0  0  0
  5  9  1  0  0  0  0
  6  4  1  0  0  0  0
  8 10  1  6  0  0  0
  8  5  1  0  0  0  0
 10  6  2  0  0  0  0
 11  8  1  0  0  0  0
 12 11  2  0  0  0  0
 12 13  1  0  0  0  0
 13  5  2  0  0  0  0
 14  2  1  0  0  0  0
 15 21  2  0  0  0  0
 16 17  1  6  0  0  0
 16 15  1  0  0  0  0
 18 20  1  0  0  0  0
 19 15  1  0  0  0  0
 19 20  1  0  0  0  0
 20 14  1  6  0  0  0
 22 18  2  0  0  0  0
 22 16  1  0  0  0  0
 23 24  1  0  0  0  0
 24 25  1  0  0  0  0
 25 27  1  0  0  0  0
 25 26  1  0  0  0  0
 27 29  1  0  0  0  0
 28 29  1  0  0  0  0
 29 30  2  0  0  0  0
 31 28  1  1  0  0  0
 32 35  2  0  0  0  0
 33 31  1  0  0  0  0
 34 33  1  0  0  0  0
 35 31  1  0  0  0  0
 35 37  1  0  0  0  0
 36 34  1  0  0  0  0
 36 32  1  0  0  0  0
 37 38  1  0  0  0  0
 38 43  1  0  0  0  0
 39 41  1  0  0  0  0
 40 39  2  0  0  0  0
 42 38  2  0  0  0  0
 42 40  1  0  0  0  0
 43 41  2  0  0  0  0
M  END
>  <MODEL>
9

>  <REMARK>
 VINA RESULT:      -7.0      1.981      8.192
  Name = 
  11 active torsions:
  status: ('A' for Active; 'I' for Inactive)
    1  A    between atoms: C_1  and  C_34
    2  A    between atoms: C_1  and  C_35
    3  A    between atoms: N_2  and  C_6
    4  A    between atoms: N_2  and  C_13
    5  A    between atoms: N_3  and  C_4
    6  A    between atoms: C_6  and  C_12
    7  A    between atoms: N_8  and  C_27
    8  A    between atoms: N_8  and  C_30
    9  A    between atoms: C_11  and  C_14
   10  A    between atoms: C_13  and  C_27
   11  A    between atoms: C_14  and  C_41
                            x       y       z     vdW  Elec       q    Type
                         _______ _______ _______ _____ _____    ______ ____

>  <TORSDO>
F 11

$$$$
