=
 OpenBabel11052419573D

 37 40  0  0  1  0  0  0  0  0999 V2000
  190.1170  177.4510  145.8810 C   0  0  2  0  0  3  0  0  0  0  0  0
  186.2220  177.7090  145.9200 C   0  0  0  0  0  0  0  0  0  0  0  0
  186.7170  175.6910  142.8020 C   0  0  0  0  0  2  0  0  0  0  0  0
  190.3390  176.0020  145.8630 N   0  0  0  0  0  0  0  0  0  0  0  0
  192.9720  175.9660  142.3880 C   0  0  0  0  0  2  0  0  0  0  0  0
  186.5460  178.7570  143.7780 C   0  0  0  0  0  2  0  0  0  0  0  0
  195.2400  176.4140  143.2680 C   0  0  0  0  0  1  0  0  0  0  0  0
  194.0320  175.7870  146.6790 C   0  0  0  0  0  1  0  0  0  0  0  0
  185.8640  176.4160  143.8550 C   0  0  0  0  0  2  0  0  0  0  0  0
  190.9430  174.6690  142.3130 C   0  0  0  0  0  0  0  0  0  0  0  0
  186.4890  178.5930  142.2490 C   0  0  0  0  0  2  0  0  0  0  0  0
  191.6840  175.4940  145.8150 C   0  0  0  0  0  0  0  0  0  0  0  0
  188.0090  177.3150  147.0690 O   0  0  0  0  0  0  0  0  0  0  0  0
  185.1910  176.8020  146.5770 C   0  0  0  0  0  2  0  0  0  0  0  0
  188.8700  175.6290  141.5020 C   0  0  0  0  0  2  0  0  0  0  0  0
  187.6610  177.8010  141.6620 C   0  0  0  0  0  2  0  0  0  0  0  0
  187.1740  178.2900  146.7680 O   0  0  0  0  0  0  0  0  0  0  0  0
  192.8560  176.4250  145.9530 C   0  0  2  0  0  3  0  0  0  0  0  0
  193.8300  176.0130  143.6420 C   0  0  1  0  0  3  0  0  0  0  0  0
  187.9680  176.4790  142.3770 C   0  0  1  0  0  3  0  0  0  0  0  0
  189.2770  177.9060  147.0740 C   0  0  0  0  0  2  0  0  0  0  0  0
  186.6280  177.4840  144.5170 N   0  0  2  0  0  0  0  0  0  0  0  0
  192.2510  174.6570  142.2820 C   0  0  0  0  0  0  0  0  0  0  0  0
  184.8060  178.2130  146.1380 C   0  0  0  0  0  2  0  0  0  0  0  0
  193.2640  177.0390  144.6150 C   0  0  0  0  0  2  0  0  0  0  0  0
  191.8860  174.2660  145.5980 O   0  0  0  0  0  0  0  0  0  0  0  0
  189.5520  177.8750  144.6780 O   0  0  0  0  0  1  0  0  0  0  0  0
  189.6390  174.6640  142.3370 C   0  0  0  0  0  3  0  0  0  0  0  0
  194.0070  173.3580  141.0530 C   0  0  0  0  0  3  0  0  0  0  0  0
  192.9760  173.3940  142.0030 C   0  0  0  0  0  0  0  0  0  0  0  0
  192.6430  172.2490  142.6650 N   0  0  0  0  0  0  0  0  0  0  0  0
  192.9170  169.9600  143.1220 F   0  0  0  0  0  0  0  0  0  0  0  0
  194.3170  171.0060  141.5020 C   0  0  0  0  0  3  0  0  0  0  0  0
  193.2830  171.0700  142.4380 C   0  0  0  0  0  0  0  0  0  0  0  0
  194.6780  172.1600  140.8060 C   0  0  0  0  0  3  0  0  0  0  0  0
  188.9500  174.2730  146.8880 C   0  0  0  0  0  1  0  0  0  0  0  0
  189.2130  175.0990  145.6410 C   0  0  0  0  0  2  0  0  0  0  0  0
  1 27  1  6  0  0  0
  1 21  1  0  0  0  0
  2 24  1  0  0  0  0
  2 14  1  0  0  0  0
  2 17  1  0  0  0  0
  3  9  1  0  0  0  0
  4  1  1  0  0  0  0
  5 19  1  0  0  0  0
  9 22  1  0  0  0  0
 10 28  2  0  0  0  0
 11  6  1  0  0  0  0
 12  4  1  0  0  0  0
 12 18  1  0  0  0  0
 13 21  1  0  0  0  0
 15 28  1  0  0  0  0
 16 11  1  0  0  0  0
 16 20  1  0  0  0  0
 17 13  1  0  0  0  0
 18  8  1  6  0  0  0
 19  7  1  6  0  0  0
 19 25  1  0  0  0  0
 20 15  1  6  0  0  0
 20  3  1  0  0  0  0
 22  6  1  6  0  0  0
 22  2  1  0  0  0  0
 23 10  2  0  0  0  0
 23  5  1  0  0  0  0
 24 14  1  0  0  0  0
 25 18  1  0  0  0  0
 26 12  2  0  0  0  0
 29 30  1  0  0  0  0
 30 23  1  0  0  0  0
 30 31  2  0  0  0  0
 33 34  2  0  0  0  0
 34 31  1  0  0  0  0
 34 32  1  0  0  0  0
 35 29  2  0  0  0  0
 35 33  1  0  0  0  0
 37  4  1  0  0  0  0
 37 36  1  0  0  0  0
M  END
>  <MODEL>
1

>  <REMARK>
 VINA RESULT:      -8.7      0.000      0.000
  Name = 
  2 active torsions:
  status: ('A' for Active; 'I' for Inactive)
    1  A    between atoms: N_5  and  C_23
    2  A    between atoms: C_6  and  C_31
                            x       y       z     vdW  Elec       q    Type
                         _______ _______ _______ _____ _____    ______ ____

>  <TORSDO>
F 2

$$$$
=
 OpenBabel11052419573D

 37 40  0  0  1  0  0  0  0  0999 V2000
  191.0620  176.9040  143.9870 C   0  0  2  0  0  3  0  0  0  0  0  0
  187.3000  176.4690  143.0420 C   0  0  0  0  0  0  0  0  0  0  0  0
  188.5270  172.9710  142.4880 C   0  0  0  0  0  2  0  0  0  0  0  0
  191.2400  175.9140  145.0520 N   0  0  0  0  0  0  0  0  0  0  0  0
  194.6810  173.9090  143.2770 C   0  0  0  0  0  2  0  0  0  0  0  0
  188.1990  175.7690  140.9220 C   0  0  0  0  0  2  0  0  0  0  0  0
  196.6560  175.2090  144.0060 C   0  0  0  0  0  1  0  0  0  0  0  0
  194.5860  176.9380  146.4990 C   0  0  0  0  0  1  0  0  0  0  0  0
  187.4510  174.0700  142.5060 C   0  0  0  0  0  2  0  0  0  0  0  0
  192.7030  172.6140  143.7420 C   0  0  0  0  0  0  0  0  0  0  0  0
  188.5360  174.5830  140.0020 C   0  0  0  0  0  2  0  0  0  0  0  0
  192.5350  175.7460  145.6540 C   0  0  0  0  0  0  0  0  0  0  0  0
  188.7160  177.2860  144.4550 O   0  0  0  0  0  0  0  0  0  0  0  0
  186.1080  176.1200  143.9220 C   0  0  0  0  0  2  0  0  0  0  0  0
  190.9400  172.3810  142.0950 C   0  0  0  0  0  2  0  0  0  0  0  0
  189.7950  173.8140  140.4090 C   0  0  0  0  0  2  0  0  0  0  0  0
  188.0160  177.6220  143.3890 O   0  0  0  0  0  0  0  0  0  0  0  0
  193.6580  176.6880  145.3190 C   0  0  2  0  0  3  0  0  0  0  0  0
  195.1850  174.9550  144.2580 C   0  0  1  0  0  3  0  0  0  0  0  0
  189.8680  173.4350  141.8940 C   0  0  1  0  0  3  0  0  0  0  0  0
  189.9560  177.9120  144.2940 C   0  0  0  0  0  2  0  0  0  0  0  0
  188.0490  175.4040  142.3430 N   0  0  2  0  0  0  0  0  0  0  0  0
  193.9730  172.8000  143.9940 C   0  0  0  0  0  0  0  0  0  0  0  0
  185.8920  176.7390  142.5430 C   0  0  0  0  0  2  0  0  0  0  0  0
  194.4170  176.2550  144.0650 C   0  0  0  0  0  2  0  0  0  0  0  0
  192.7510  174.7690  146.4250 O   0  0  0  0  0  0  0  0  0  0  0  0
  190.8420  176.2720  142.7620 O   0  0  0  0  0  1  0  0  0  0  0  0
  191.4380  172.4120  143.4990 C   0  0  0  0  0  3  0  0  0  0  0  0
  196.0490  172.0730  145.1970 C   0  0  0  0  0  3  0  0  0  0  0  0
  194.7080  171.8420  144.8540 C   0  0  0  0  0  0  0  0  0  0  0  0
  194.0900  170.7180  145.3180 N   0  0  0  0  0  0  0  0  0  0  0  0
  194.0710  168.7140  146.5460 F   0  0  0  0  0  0  0  0  0  0  0  0
  196.0610  170.0220  146.4700 C   0  0  0  0  0  3  0  0  0  0  0  0
  194.7280  169.8150  146.1090 C   0  0  0  0  0  0  0  0  0  0  0  0
  196.7230  171.1600  146.0080 C   0  0  0  0  0  3  0  0  0  0  0  0
  189.6750  175.0970  146.7430 C   0  0  0  0  0  1  0  0  0  0  0  0
  190.1830  174.9410  145.3200 C   0  0  0  0  0  2  0  0  0  0  0  0
  1 27  1  6  0  0  0
  1 21  1  0  0  0  0
  1  4  1  0  0  0  0
  2 17  1  0  0  0  0
  2 14  1  0  0  0  0
  3  9  1  0  0  0  0
  4 37  1  0  0  0  0
  4 12  1  0  0  0  0
  5 23  1  0  0  0  0
  5 19  1  0  0  0  0
 10 23  2  0  0  0  0
 11 16  1  0  0  0  0
 11  6  1  0  0  0  0
 12 26  2  0  0  0  0
 15 28  1  0  0  0  0
 17 13  1  0  0  0  0
 18 12  1  0  0  0  0
 18  8  1  1  0  0  0
 19  7  1  6  0  0  0
 20 16  1  6  0  0  0
 20 15  1  0  0  0  0
 20  3  1  0  0  0  0
 21 13  1  0  0  0  0
 22  6  1  6  0  0  0
 22  9  1  0  0  0  0
 22  2  1  0  0  0  0
 23 30  1  0  0  0  0
 24  2  1  0  0  0  0
 24 14  1  0  0  0  0
 25 19  1  0  0  0  0
 25 18  1  0  0  0  0
 28 10  2  0  0  0  0
 29 35  1  0  0  0  0
 30 29  2  0  0  0  0
 30 31  1  0  0  0  0
 31 34  2  0  0  0  0
 34 33  1  0  0  0  0
 34 32  1  0  0  0  0
 35 33  2  0  0  0  0
 37 36  1  0  0  0  0
M  END
>  <MODEL>
2

>  <REMARK>
 VINA RESULT:      -7.9      2.387      3.285
  Name = 
  2 active torsions:
  status: ('A' for Active; 'I' for Inactive)
    1  A    between atoms: N_5  and  C_23
    2  A    between atoms: C_6  and  C_31
                            x       y       z     vdW  Elec       q    Type
                         _______ _______ _______ _____ _____    ______ ____

>  <TORSDO>
F 2

$$$$
=
 OpenBabel11052419573D

 37 40  0  0  1  0  0  0  0  0999 V2000
  191.7390  174.2170  142.0050 C   0  0  2  0  0  3  0  0  0  0  0  0
  195.0370  172.4710  143.1520 C   0  0  0  0  0  0  0  0  0  0  0  0
  194.3330  174.5910  146.1610 C   0  0  0  0  0  2  0  0  0  0  0  0
  190.7990  173.8530  143.0690 N   0  0  0  0  0  0  0  0  0  0  0  0
  189.4870  177.9150  143.9600 C   0  0  0  0  0  2  0  0  0  0  0  0
  195.8490  174.7300  143.3200 C   0  0  0  0  0  2  0  0  0  0  0  0
  187.6610  178.3890  142.3600 C   0  0  0  0  0  1  0  0  0  0  0  0
  187.4800  174.8180  141.5210 C   0  0  0  0  0  1  0  0  0  0  0  0
  195.1520  173.5720  145.3520 C   0  0  0  0  0  2  0  0  0  0  0  0
  190.4740  176.6060  145.7270 C   0  0  0  0  0  0  0  0  0  0  0  0
  196.1820  175.9060  144.2550 C   0  0  0  0  0  2  0  0  0  0  0  0
  189.4490  174.3450  143.0190 C   0  0  0  0  0  0  0  0  0  0  0  0
  193.0920  172.2220  142.2410 O   0  0  0  0  0  0  0  0  0  0  0  0
  195.2370  171.1530  143.8850 C   0  0  0  0  0  2  0  0  0  0  0  0
  192.8650  176.6340  146.1210 C   0  0  0  0  0  2  0  0  0  0  0  0
  194.9550  176.6660  144.7640 C   0  0  0  0  0  2  0  0  0  0  0  0
  194.3600  172.4070  141.9260 O   0  0  0  0  0  0  0  0  0  0  0  0
  188.9510  175.0840  141.8070 C   0  0  2  0  0  3  0  0  0  0  0  0
  188.5070  177.2960  142.9770 C   0  0  1  0  0  3  0  0  0  0  0  0
  193.8330  175.7810  145.3240 C   0  0  1  0  0  3  0  0  0  0  0  0
  192.3700  173.0000  141.3300 C   0  0  0  0  0  2  0  0  0  0  0  0
  194.9300  173.7370  143.9070 N   0  0  2  0  0  0  0  0  0  0  0  0
  189.4110  177.2330  145.2920 C   0  0  0  0  0  0  0  0  0  0  0  0
  196.4010  171.8050  143.1430 C   0  0  0  0  0  2  0  0  0  0  0  0
  189.2700  176.5760  141.8730 C   0  0  0  0  0  2  0  0  0  0  0  0
  188.6900  174.2090  144.0200 O   0  0  0  0  0  0  0  0  0  0  0  0
  192.7160  175.0870  142.4910 O   0  0  0  0  0  1  0  0  0  0  0  0
  191.5270  175.9820  146.1760 C   0  0  0  0  0  3  0  0  0  0  0  0
  187.0650  176.6210  145.9310 C   0  0  0  0  0  3  0  0  0  0  0  0
  188.2240  177.3760  146.1680 C   0  0  0  0  0  0  0  0  0  0  0  0
  188.2420  178.2510  147.2150 N   0  0  0  0  0  0  0  0  0  0  0  0
  187.2410  179.2940  149.0680 F   0  0  0  0  0  0  0  0  0  0  0  0
  186.0100  177.6710  147.8320 C   0  0  0  0  0  3  0  0  0  0  0  0
  187.1740  178.4130  148.0410 C   0  0  0  0  0  0  0  0  0  0  0  0
  185.9590  176.7710  146.7680 C   0  0  0  0  0  3  0  0  0  0  0  0
  190.6420  171.8560  144.4670 C   0  0  0  0  0  1  0  0  0  0  0  0
  191.2950  173.2140  144.2860 C   0  0  0  0  0  2  0  0  0  0  0  0
  1 27  1  1  0  0  0
  1  4  1  0  0  0  0
  2 14  1  0  0  0  0
  2 22  1  0  0  0  0
  4 37  1  0  0  0  0
  5 23  1  0  0  0  0
  6 11  1  0  0  0  0
  9  3  1  0  0  0  0
 10 28  2  0  0  0  0
 11 16  1  0  0  0  0
 12  4  1  0  0  0  0
 12 26  2  0  0  0  0
 15 28  1  0  0  0  0
 17 13  1  0  0  0  0
 17  2  1  0  0  0  0
 18  8  1  1  0  0  0
 18 25  1  0  0  0  0
 18 12  1  0  0  0  0
 19  7  1  6  0  0  0
 19  5  1  0  0  0  0
 20 16  1  1  0  0  0
 20 15  1  0  0  0  0
 20  3  1  0  0  0  0
 21  1  1  0  0  0  0
 21 13  1  0  0  0  0
 22  6  1  6  0  0  0
 22  9  1  0  0  0  0
 23 10  2  0  0  0  0
 23 30  1  0  0  0  0
 24  2  1  0  0  0  0
 24 14  1  0  0  0  0
 25 19  1  0  0  0  0
 29 30  2  0  0  0  0
 29 35  1  0  0  0  0
 30 31  1  0  0  0  0
 31 34  2  0  0  0  0
 33 34  1  0  0  0  0
 34 32  1  0  0  0  0
 35 33  2  0  0  0  0
 37 36  1  0  0  0  0
M  END
>  <MODEL>
3

>  <REMARK>
 VINA RESULT:      -7.5      2.984      8.195
  Name = 
  2 active torsions:
  status: ('A' for Active; 'I' for Inactive)
    1  A    between atoms: N_5  and  C_23
    2  A    between atoms: C_6  and  C_31
                            x       y       z     vdW  Elec       q    Type
                         _______ _______ _______ _____ _____    ______ ____

>  <TORSDO>
F 2

$$$$
=
 OpenBabel11052419573D

 37 40  0  0  1  0  0  0  0  0999 V2000
  192.6460  173.3620  141.8740 C   0  0  2  0  0  3  0  0  0  0  0  0
  196.1790  172.3830  143.2160 C   0  0  0  0  0  0  0  0  0  0  0  0
  195.1950  174.9510  145.7620 C   0  0  0  0  0  2  0  0  0  0  0  0
  191.7810  173.0920  143.0260 N   0  0  0  0  0  0  0  0  0  0  0  0
  189.8850  177.0170  143.1330 C   0  0  0  0  0  2  0  0  0  0  0  0
  196.6450  174.7210  142.8930 C   0  0  0  0  0  2  0  0  0  0  0  0
  187.9940  176.8850  141.5430 C   0  0  0  0  0  1  0  0  0  0  0  0
  188.3410  173.2300  141.4490 C   0  0  0  0  0  1  0  0  0  0  0  0
  196.1490  173.9170  145.1430 C   0  0  0  0  0  2  0  0  0  0  0  0
  191.0750  176.2560  145.0860 C   0  0  0  0  0  0  0  0  0  0  0  0
  196.8080  176.0990  143.5580 C   0  0  0  0  0  2  0  0  0  0  0  0
  190.3720  173.3630  142.9320 C   0  0  0  0  0  0  0  0  0  0  0  0
  194.2850  171.6740  142.4530 O   0  0  0  0  0  0  0  0  0  0  0  0
  196.5810  171.2860  144.1920 C   0  0  0  0  0  2  0  0  0  0  0  0
  193.4380  176.7090  145.3700 C   0  0  0  0  0  2  0  0  0  0  0  0
  195.4860  176.7630  143.9520 C   0  0  0  0  0  2  0  0  0  0  0  0
  195.5070  171.9720  142.0570 O   0  0  0  0  0  0  0  0  0  0  0  0
  189.7580  173.7580  141.6180 C   0  0  2  0  0  3  0  0  0  0  0  0
  189.0000  176.0750  142.3340 C   0  0  1  0  0  3  0  0  0  0  0  0
  194.5150  175.8590  144.7230 C   0  0  1  0  0  3  0  0  0  0  0  0
  193.4450  172.1360  141.4340 C   0  0  0  0  0  2  0  0  0  0  0  0
  195.8910  173.7480  143.7040 N   0  0  2  0  0  0  0  0  0  0  0  0
  189.9250  176.6190  144.5760 C   0  0  0  0  0  0  0  0  0  0  0  0
  197.6270  171.9340  143.2870 C   0  0  0  0  0  2  0  0  0  0  0  0
  189.8510  175.2620  141.3680 C   0  0  0  0  0  2  0  0  0  0  0  0
  189.6530  173.3270  143.9700 O   0  0  0  0  0  0  0  0  0  0  0  0
  193.4870  174.4450  142.1350 O   0  0  0  0  0  1  0  0  0  0  0  0
  192.2130  175.8960  145.6090 C   0  0  0  0  0  3  0  0  0  0  0  0
  188.5110  175.8670  146.5040 C   0  0  0  0  0  3  0  0  0  0  0  0
  188.7380  176.7670  145.4530 C   0  0  0  0  0  0  0  0  0  0  0  0
  187.8480  177.7790  145.2420 N   0  0  0  0  0  0  0  0  0  0  0  0
  185.8940  178.9700  145.7740 F   0  0  0  0  0  0  0  0  0  0  0  0
  186.4990  177.0710  147.0790 C   0  0  0  0  0  3  0  0  0  0  0  0
  186.7480  177.9490  146.0220 C   0  0  0  0  0  0  0  0  0  0  0  0
  187.3890  176.0230  147.3180 C   0  0  0  0  0  3  0  0  0  0  0  0
  192.2810  171.3080  144.6200 C   0  0  0  0  0  1  0  0  0  0  0  0
  192.3790  172.7950  144.3260 C   0  0  0  0  0  2  0  0  0  0  0  0
  1 27  1  1  0  0  0
  1  4  1  0  0  0  0
  2 24  1  0  0  0  0
  2 22  1  0  0  0  0
  2 14  1  0  0  0  0
  4 37  1  0  0  0  0
  5 23  1  0  0  0  0
  6 11  1  0  0  0  0
  9  3  1  0  0  0  0
 10 28  2  0  0  0  0
 11 16  1  0  0  0  0
 12  4  1  0  0  0  0
 12 26  2  0  0  0  0
 15 28  1  0  0  0  0
 17 13  1  0  0  0  0
 17  2  1  0  0  0  0
 18  8  1  1  0  0  0
 18 12  1  0  0  0  0
 19  7  1  6  0  0  0
 19  5  1  0  0  0  0
 20 16  1  1  0  0  0
 20 15  1  0  0  0  0
 20  3  1  0  0  0  0
 21  1  1  0  0  0  0
 21 13  1  0  0  0  0
 22  6  1  6  0  0  0
 22  9  1  0  0  0  0
 23 10  2  0  0  0  0
 23 30  1  0  0  0  0
 24 14  1  0  0  0  0
 25 18  1  0  0  0  0
 25 19  1  0  0  0  0
 29 35  1  0  0  0  0
 30 29  2  0  0  0  0
 31 30  1  0  0  0  0
 31 34  2  0  0  0  0
 32 34  1  0  0  0  0
 33 35  2  0  0  0  0
 34 33  1  0  0  0  0
 37 36  1  0  0  0  0
M  END
>  <MODEL>
4

>  <REMARK>
 VINA RESULT:      -7.5      3.019      8.331
  Name = 
  2 active torsions:
  status: ('A' for Active; 'I' for Inactive)
    1  A    between atoms: N_5  and  C_23
    2  A    between atoms: C_6  and  C_31
                            x       y       z     vdW  Elec       q    Type
                         _______ _______ _______ _____ _____    ______ ____

>  <TORSDO>
F 2

$$$$
=
 OpenBabel11052419573D

 37 40  0  0  1  0  0  0  0  0999 V2000
  187.8300  175.3610  142.7670 C   0  0  2  0  0  3  0  0  0  0  0  0
  185.5620  178.2030  144.1880 C   0  0  0  0  0  0  0  0  0  0  0  0
  188.3120  178.2190  146.7340 C   0  0  0  0  0  2  0  0  0  0  0  0
  189.1160  176.0400  142.5880 N   0  0  0  0  0  0  0  0  0  0  0  0
  191.4970  173.1590  144.8330 C   0  0  0  0  0  2  0  0  0  0  0  0
  185.4850  176.7910  146.1350 C   0  0  0  0  0  2  0  0  0  0  0  0
  192.0850  171.3800  143.2170 C   0  0  0  0  0  1  0  0  0  0  0  0
  191.0060  173.5460  140.4540 C   0  0  0  0  0  1  0  0  0  0  0  0
  186.9870  178.7140  146.1310 C   0  0  0  0  0  2  0  0  0  0  0  0
  191.4920  175.4600  145.5480 C   0  0  0  0  0  0  0  0  0  0  0  0
  186.0130  176.5410  147.5580 C   0  0  0  0  0  2  0  0  0  0  0  0
  190.2460  175.2970  142.0960 C   0  0  0  0  0  0  0  0  0  0  0  0
  186.5000  177.3590  142.4330 O   0  0  0  0  0  0  0  0  0  0  0  0
  185.5660  179.6950  143.8880 C   0  0  0  0  0  2  0  0  0  0  0  0
  189.8550  176.2750  147.1390 C   0  0  0  0  0  2  0  0  0  0  0  0
  187.4280  175.9610  147.6080 C   0  0  0  0  0  2  0  0  0  0  0  0
  185.3600  177.3470  143.0970 O   0  0  0  0  0  0  0  0  0  0  0  0
  190.0760  173.8850  141.6100 C   0  0  2  0  0  3  0  0  0  0  0  0
  191.5610  172.7930  143.3590 C   0  0  1  0  0  3  0  0  0  0  0  0
  188.4540  176.6880  146.7280 C   0  0  1  0  0  3  0  0  0  0  0  0
  186.6910  176.0400  142.0070 C   0  0  0  0  0  2  0  0  0  0  0  0
  186.3470  177.6670  145.3190 N   0  0  2  0  0  0  0  0  0  0  0  0
  192.1980  174.4560  145.0940 C   0  0  0  0  0  0  0  0  0  0  0  0
  184.3520  179.0460  144.5480 C   0  0  0  0  0  2  0  0  0  0  0  0
  190.1690  172.8700  142.7470 C   0  0  0  0  0  2  0  0  0  0  0  0
  191.3990  175.8110  142.1260 O   0  0  0  0  0  0  0  0  0  0  0  0
  187.5260  175.2370  144.1230 O   0  0  0  0  0  1  0  0  0  0  0  0
  190.8030  176.4670  146.0060 C   0  0  0  0  0  3  0  0  0  0  0  0
  194.5050  173.5200  145.3880 C   0  0  0  0  0  3  0  0  0  0  0  0
  193.6720  174.5750  144.9850 C   0  0  0  0  0  0  0  0  0  0  0  0
  194.2370  175.7160  144.4960 N   0  0  0  0  0  0  0  0  0  0  0  0
  196.0970  177.0170  143.8880 F   0  0  0  0  0  0  0  0  0  0  0  0
  196.4370  174.8290  144.7690 C   0  0  0  0  0  3  0  0  0  0  0  0
  195.5840  175.8640  144.3810 C   0  0  0  0  0  0  0  0  0  0  0  0
  195.8900  173.6510  145.2770 C   0  0  0  0  0  3  0  0  0  0  0  0
  189.3160  178.4090  142.0210 C   0  0  0  0  0  1  0  0  0  0  0  0
  189.3110  177.3800  143.1380 C   0  0  0  0  0  2  0  0  0  0  0  0
  1 27  1  1  0  0  0
  2 24  1  0  0  0  0
  2 22  1  0  0  0  0
  4  1  1  0  0  0  0
  4 37  1  0  0  0  0
  5 23  1  0  0  0  0
  6 11  1  0  0  0  0
  9  3  1  0  0  0  0
 10 28  2  0  0  0  0
 11 16  1  0  0  0  0
 12 26  2  0  0  0  0
 12  4  1  0  0  0  0
 13 17  1  0  0  0  0
 14  2  1  0  0  0  0
 14 24  1  0  0  0  0
 17  2  1  0  0  0  0
 18  8  1  6  0  0  0
 18 12  1  0  0  0  0
 18 25  1  0  0  0  0
 19  7  1  1  0  0  0
 19  5  1  0  0  0  0
 20  3  1  1  0  0  0
 20 15  1  0  0  0  0
 20 16  1  0  0  0  0
 21 13  1  0  0  0  0
 21  1  1  0  0  0  0
 22  9  1  1  0  0  0
 22  6  1  0  0  0  0
 23 10  2  0  0  0  0
 25 19  1  0  0  0  0
 28 15  1  0  0  0  0
 30 23  1  0  0  0  0
 30 29  2  0  0  0  0
 31 30  1  0  0  0  0
 32 34  1  0  0  0  0
 33 35  2  0  0  0  0
 34 31  2  0  0  0  0
 34 33  1  0  0  0  0
 35 29  1  0  0  0  0
 36 37  1  0  0  0  0
M  END
>  <MODEL>
5

>  <REMARK>
 VINA RESULT:      -7.4      2.602      4.684
  Name = 
  2 active torsions:
  status: ('A' for Active; 'I' for Inactive)
    1  A    between atoms: N_5  and  C_23
    2  A    between atoms: C_6  and  C_31
                            x       y       z     vdW  Elec       q    Type
                         _______ _______ _______ _____ _____    ______ ____

>  <TORSDO>
F 2

$$$$
=
 OpenBabel11052419573D

 37 40  0  0  1  0  0  0  0  0999 V2000
  194.2750  173.3910  143.7050 C   0  0  2  0  0  3  0  0  0  0  0  0
  194.9430  171.4700  140.3730 C   0  0  0  0  0  0  0  0  0  0  0  0
  191.2180  171.8410  140.1850 C   0  0  0  0  0  2  0  0  0  0  0  0
  193.5880  174.6010  143.2430 N   0  0  0  0  0  0  0  0  0  0  0  0
  190.1390  174.2330  145.8840 C   0  0  0  0  0  2  0  0  0  0  0  0
  193.4630  169.8370  141.3400 C   0  0  0  0  0  2  0  0  0  0  0  0
  190.8150  175.2970  148.0130 C   0  0  0  0  0  1  0  0  0  0  0  0
  193.7240  176.7840  146.3350 C   0  0  0  0  0  1  0  0  0  0  0  0
  192.5870  171.3760  139.6600 C   0  0  0  0  0  2  0  0  0  0  0  0
  189.7690  174.2950  143.5030 C   0  0  0  0  0  0  0  0  0  0  0  0
  192.0420  169.2480  141.3590 C   0  0  0  0  0  2  0  0  0  0  0  0
  193.1420  175.5710  144.2050 C   0  0  0  0  0  0  0  0  0  0  0  0
  195.5490  173.0920  141.6660 O   0  0  0  0  0  0  0  0  0  0  0  0
  195.2620  172.0080  138.9850 C   0  0  0  0  0  2  0  0  0  0  0  0
  189.7510  172.2620  142.1840 C   0  0  0  0  0  2  0  0  0  0  0  0
  191.0150  170.1170  142.0900 C   0  0  0  0  0  2  0  0  0  0  0  0
  195.8250  171.8300  141.4000 O   0  0  0  0  0  0  0  0  0  0  0  0
  193.5200  175.4380  145.6540 C   0  0  2  0  0  3  0  0  0  0  0  0
  191.1570  175.1460  146.5460 C   0  0  1  0  0  3  0  0  0  0  0  0
  191.0230  171.5980  141.6910 C   0  0  1  0  0  3  0  0  0  0  0  0
  195.6460  173.2040  143.0570 C   0  0  0  0  0  2  0  0  0  0  0  0
  193.5450  171.1910  140.7620 N   0  0  2  0  0  0  0  0  0  0  0  0
  189.5620  174.8730  144.6580 C   0  0  0  0  0  0  0  0  0  0  0  0
  195.5470  170.5480  139.3300 C   0  0  0  0  0  2  0  0  0  0  0  0
  192.5500  174.5410  146.4210 C   0  0  0  0  0  2  0  0  0  0  0  0
  192.3790  176.5120  143.8450 O   0  0  0  0  0  0  0  0  0  0  0  0
  193.4700  172.2670  143.5130 O   0  0  0  0  0  1  0  0  0  0  0  0
  189.9630  173.7280  142.3460 C   0  0  0  0  0  3  0  0  0  0  0  0
  188.0190  176.3610  145.9570 C   0  0  0  0  0  3  0  0  0  0  0  0
  188.6600  176.0460  144.7500 C   0  0  0  0  0  0  0  0  0  0  0  0
  188.4380  176.8320  143.6570 N   0  0  0  0  0  0  0  0  0  0  0  0
  187.4310  178.6660  142.5870 F   0  0  0  0  0  0  0  0  0  0  0  0
  186.9710  178.2560  144.8880 C   0  0  0  0  0  3  0  0  0  0  0  0
  187.6180  177.9160  143.6990 C   0  0  0  0  0  0  0  0  0  0  0  0
  187.1740  177.4700  146.0230 C   0  0  0  0  0  3  0  0  0  0  0  0
  193.9440  175.7530  141.1180 C   0  0  0  0  0  1  0  0  0  0  0  0
  193.1420  174.6950  141.8550 C   0  0  0  0  0  2  0  0  0  0  0  0
  1 27  1  6  0  0  0
  2 22  1  0  0  0  0
  2 17  1  0  0  0  0
  4  1  1  0  0  0  0
  4 12  1  0  0  0  0
  5 19  1  0  0  0  0
  6 11  1  0  0  0  0
  9  3  1  0  0  0  0
 10 23  2  0  0  0  0
 11 16  1  0  0  0  0
 12 18  1  0  0  0  0
 13 21  1  0  0  0  0
 14 24  1  0  0  0  0
 14  2  1  0  0  0  0
 15 28  1  0  0  0  0
 17 13  1  0  0  0  0
 18  8  1  1  0  0  0
 18 25  1  0  0  0  0
 19  7  1  1  0  0  0
 20  3  1  6  0  0  0
 20 16  1  0  0  0  0
 20 15  1  0  0  0  0
 21  1  1  0  0  0  0
 22  9  1  6  0  0  0
 22  6  1  0  0  0  0
 23 30  1  0  0  0  0
 23  5  1  0  0  0  0
 24  2  1  0  0  0  0
 25 19  1  0  0  0  0
 26 12  2  0  0  0  0
 28 10  2  0  0  0  0
 29 35  1  0  0  0  0
 30 29  2  0  0  0  0
 31 34  2  0  0  0  0
 31 30  1  0  0  0  0
 32 34  1  0  0  0  0
 33 35  2  0  0  0  0
 34 33  1  0  0  0  0
 36 37  1  0  0  0  0
 37  4  1  0  0  0  0
M  END
>  <MODEL>
6

>  <REMARK>
 VINA RESULT:      -7.3      2.868      7.982
  Name = 
  2 active torsions:
  status: ('A' for Active; 'I' for Inactive)
    1  A    between atoms: N_5  and  C_23
    2  A    between atoms: C_6  and  C_31
                            x       y       z     vdW  Elec       q    Type
                         _______ _______ _______ _____ _____    ______ ____

>  <TORSDO>
F 2

$$$$
=
 OpenBabel11052419573D

 37 40  0  0  1  0  0  0  0  0999 V2000
  191.5230  174.9390  145.3170 C   0  0  2  0  0  3  0  0  0  0  0  0
  193.6560  173.3040  142.4850 C   0  0  0  0  0  0  0  0  0  0  0  0
  190.4040  173.7630  140.6800 C   0  0  0  0  0  2  0  0  0  0  0  0
  191.0900  176.1980  144.7030 N   0  0  0  0  0  0  0  0  0  0  0  0
  186.8320  175.6690  145.4730 C   0  0  0  0  0  2  0  0  0  0  0  0
  191.9350  171.6220  142.5400 C   0  0  0  0  0  2  0  0  0  0  0  0
  186.4580  176.5290  147.7620 C   0  0  0  0  0  1  0  0  0  0  0  0
  189.7770  178.1000  147.7040 C   0  0  0  0  0  1  0  0  0  0  0  0
  191.8720  173.3190  140.7870 C   0  0  0  0  0  2  0  0  0  0  0  0
  187.5680  175.9460  143.1950 C   0  0  0  0  0  0  0  0  0  0  0  0
  190.6700  171.0620  141.8690 C   0  0  0  0  0  2  0  0  0  0  0  0
  190.2380  177.0890  145.4430 C   0  0  0  0  0  0  0  0  0  0  0  0
  193.5820  174.7950  144.0490 O   0  0  0  0  0  0  0  0  0  0  0  0
  194.5510  173.9550  141.4410 C   0  0  0  0  0  2  0  0  0  0  0  0
  188.1870  174.0370  141.8360 C   0  0  0  0  0  2  0  0  0  0  0  0
  189.4060  171.8840  142.1330 C   0  0  0  0  0  2  0  0  0  0  0  0
  193.9760  173.5560  143.8270 O   0  0  0  0  0  0  0  0  0  0  0  0
  189.9290  176.8220  146.8900 C   0  0  2  0  0  3  0  0  0  0  0  0
  187.4250  176.5000  146.5980 C   0  0  1  0  0  3  0  0  0  0  0  0
  189.5590  173.3940  141.9110 C   0  0  1  0  0  3  0  0  0  0  0  0
  193.0430  174.7830  145.3390 C   0  0  0  0  0  2  0  0  0  0  0  0
  192.2380  173.0200  142.1810 N   0  0  2  0  0  0  0  0  0  0  0  0
  186.8520  176.4250  144.1800 C   0  0  0  0  0  0  0  0  0  0  0  0
  194.6840  172.4650  141.7490 C   0  0  0  0  0  2  0  0  0  0  0  0
  188.7380  175.8810  147.0590 C   0  0  0  0  0  2  0  0  0  0  0  0
  189.6990  178.0730  144.8620 O   0  0  0  0  0  0  0  0  0  0  0  0
  190.9140  173.8530  144.6870 O   0  0  0  0  0  1  0  0  0  0  0  0
  188.2720  175.4780  142.2030 C   0  0  0  0  0  3  0  0  0  0  0  0
  186.3260  178.8570  144.4840 C   0  0  0  0  0  3  0  0  0  0  0  0
  185.9800  177.6030  143.9590 C   0  0  0  0  0  0  0  0  0  0  0  0
  184.8230  177.4800  143.2450 N   0  0  0  0  0  0  0  0  0  0  0  0
  182.8590  178.3620  142.3040 F   0  0  0  0  0  0  0  0  0  0  0  0
  184.3180  179.7960  143.5260 C   0  0  0  0  0  3  0  0  0  0  0  0
  183.9960  178.5350  143.0200 C   0  0  0  0  0  0  0  0  0  0  0  0
  185.4920  179.9540  144.2640 C   0  0  0  0  0  3  0  0  0  0  0  0
  192.1540  177.6680  143.0670 C   0  0  0  0  0  1  0  0  0  0  0  0
  191.3120  176.4220  143.2760 C   0  0  0  0  0  2  0  0  0  0  0  0
  1 27  1  6  0  0  0
  1 21  1  0  0  0  0
  2 17  1  0  0  0  0
  3  9  1  0  0  0  0
  4  1  1  0  0  0  0
  4 12  1  0  0  0  0
  5 19  1  0  0  0  0
 10 23  2  0  0  0  0
 11 16  1  0  0  0  0
 11  6  1  0  0  0  0
 12 18  1  0  0  0  0
 13 21  1  0  0  0  0
 14 24  1  0  0  0  0
 14  2  1  0  0  0  0
 15 20  1  0  0  0  0
 15 28  1  0  0  0  0
 17 13  1  0  0  0  0
 18 25  1  0  0  0  0
 18  8  1  1  0  0  0
 19 25  1  0  0  0  0
 19  7  1  1  0  0  0
 20  3  1  6  0  0  0
 20 16  1  0  0  0  0
 22  9  1  6  0  0  0
 22  2  1  0  0  0  0
 22  6  1  0  0  0  0
 23  5  1  0  0  0  0
 24  2  1  0  0  0  0
 26 12  2  0  0  0  0
 28 10  2  0  0  0  0
 30 23  1  0  0  0  0
 30 29  2  0  0  0  0
 31 30  1  0  0  0  0
 32 34  1  0  0  0  0
 33 35  2  0  0  0  0
 34 31  2  0  0  0  0
 34 33  1  0  0  0  0
 35 29  1  0  0  0  0
 36 37  1  0  0  0  0
 37  4  1  0  0  0  0
M  END
>  <MODEL>
7

>  <REMARK>
 VINA RESULT:      -7.2      2.751      7.669
  Name = 
  2 active torsions:
  status: ('A' for Active; 'I' for Inactive)
    1  A    between atoms: N_5  and  C_23
    2  A    between atoms: C_6  and  C_31
                            x       y       z     vdW  Elec       q    Type
                         _______ _______ _______ _____ _____    ______ ____

>  <TORSDO>
F 2

$$$$
=
 OpenBabel11052419573D

 37 40  0  0  1  0  0  0  0  0999 V2000
  191.8020  175.8740  143.0500 C   0  0  2  0  0  3  0  0  0  0  0  0
  187.9990  176.2490  142.2530 C   0  0  0  0  0  0  0  0  0  0  0  0
  188.2850  172.5140  142.3610 C   0  0  0  0  0  2  0  0  0  0  0  0
  191.7930  175.0820  144.2830 N   0  0  0  0  0  0  0  0  0  0  0  0
  194.5160  171.9790  142.8790 C   0  0  0  0  0  2  0  0  0  0  0  0
  188.5670  174.9710  140.2940 C   0  0  0  0  0  2  0  0  0  0  0  0
  196.7910  172.8420  143.3220 C   0  0  0  0  0  1  0  0  0  0  0  0
  195.3700  175.4640  145.4650 C   0  0  0  0  0  1  0  0  0  0  0  0
  187.5190  173.8340  142.1820 C   0  0  0  0  0  2  0  0  0  0  0  0
  192.3100  171.3370  143.6070 C   0  0  0  0  0  0  0  0  0  0  0  0
  188.5430  173.5920  139.6130 C   0  0  0  0  0  2  0  0  0  0  0  0
  193.0400  174.7020  144.8890 C   0  0  0  0  0  0  0  0  0  0  0  0
  189.6570  176.9200  143.4670 O   0  0  0  0  0  0  0  0  0  0  0  0
  186.8140  176.3810  143.1980 C   0  0  0  0  0  2  0  0  0  0  0  0
  190.4490  171.2670  142.0570 C   0  0  0  0  0  2  0  0  0  0  0  0
  189.5950  172.6140  140.1430 C   0  0  0  0  0  2  0  0  0  0  0  0
  188.9990  177.2250  142.3650 O   0  0  0  0  0  0  0  0  0  0  0  0
  194.3390  175.2490  144.3670 C   0  0  2  0  0  3  0  0  0  0  0  0
  195.3220  173.0210  143.6360 C   0  0  1  0  0  3  0  0  0  0  0  0
  189.6610  172.5050  141.6720 C   0  0  1  0  0  3  0  0  0  0  0  0
  191.0020  177.1700  143.1730 C   0  0  0  0  0  2  0  0  0  0  0  0
  188.4180  174.9200  141.7600 N   0  0  2  0  0  0  0  0  0  0  0  0
  193.6000  171.2360  143.8030 C   0  0  0  0  0  0  0  0  0  0  0  0
  186.6750  176.7740  141.7290 C   0  0  0  0  0  2  0  0  0  0  0  0
  194.8900  174.4180  143.2090 C   0  0  0  0  0  2  0  0  0  0  0  0
  193.0530  173.8580  145.8290 O   0  0  0  0  0  0  0  0  0  0  0  0
  191.3590  175.1090  141.9710 O   0  0  0  0  0  1  0  0  0  0  0  0
  191.0230  171.4240  143.4220 C   0  0  0  0  0  3  0  0  0  0  0  0
  193.5060  169.0530  145.0310 C   0  0  0  0  0  3  0  0  0  0  0  0
  194.1250  170.2940  144.8200 C   0  0  0  0  0  0  0  0  0  0  0  0
  195.2150  170.6270  145.5700 N   0  0  0  0  0  0  0  0  0  0  0  0
  196.8120  170.1690  147.2320 F   0  0  0  0  0  0  0  0  0  0  0  0
  195.1350  168.5490  146.7410 C   0  0  0  0  0  3  0  0  0  0  0  0
  195.7270  169.7930  146.5140 C   0  0  0  0  0  0  0  0  0  0  0  0
  194.0170  168.1800  145.9930 C   0  0  0  0  0  3  0  0  0  0  0  0
  190.1840  175.0050  146.1200 C   0  0  0  0  0  1  0  0  0  0  0  0
  190.5460  174.4760  144.7440 C   0  0  0  0  0  2  0  0  0  0  0  0
  1 27  1  6  0  0  0
  1 21  1  0  0  0  0
  1  4  1  0  0  0  0
  2 17  1  0  0  0  0
  2 14  1  0  0  0  0
  4 37  1  0  0  0  0
  4 12  1  0  0  0  0
  5 19  1  0  0  0  0
  5 23  1  0  0  0  0
  9  3  1  0  0  0  0
 10 23  2  0  0  0  0
 11 16  1  0  0  0  0
 11  6  1  0  0  0  0
 12 26  2  0  0  0  0
 15 28  1  0  0  0  0
 17 13  1  0  0  0  0
 18 12  1  0  0  0  0
 18  8  1  1  0  0  0
 19  7  1  6  0  0  0
 20 16  1  6  0  0  0
 20 15  1  0  0  0  0
 20  3  1  0  0  0  0
 21 13  1  0  0  0  0
 22  6  1  6  0  0  0
 22  9  1  0  0  0  0
 22  2  1  0  0  0  0
 23 30  1  0  0  0  0
 24  2  1  0  0  0  0
 24 14  1  0  0  0  0
 25 19  1  0  0  0  0
 25 18  1  0  0  0  0
 28 10  2  0  0  0  0
 29 35  1  0  0  0  0
 30 29  2  0  0  0  0
 30 31  1  0  0  0  0
 31 34  2  0  0  0  0
 34 33  1  0  0  0  0
 34 32  1  0  0  0  0
 35 33  2  0  0  0  0
 37 36  1  0  0  0  0
M  END
>  <MODEL>
8

>  <REMARK>
 VINA RESULT:      -7.2      2.805      4.229
  Name = 
  2 active torsions:
  status: ('A' for Active; 'I' for Inactive)
    1  A    between atoms: N_5  and  C_23
    2  A    between atoms: C_6  and  C_31
                            x       y       z     vdW  Elec       q    Type
                         _______ _______ _______ _____ _____    ______ ____

>  <TORSDO>
F 2

$$$$
=
 OpenBabel11052419573D

 37 40  0  0  1  0  0  0  0  0999 V2000
  191.3310  175.7630  144.3290 C   0  0  2  0  0  3  0  0  0  0  0  0
  187.9870  177.0900  145.8440 C   0  0  0  0  0  0  0  0  0  0  0  0
  186.7070  175.5280  142.6870 C   0  0  0  0  0  2  0  0  0  0  0  0
  191.0620  174.3310  144.1670 N   0  0  0  0  0  0  0  0  0  0  0  0
  192.1750  174.1060  139.9580 C   0  0  0  0  0  2  0  0  0  0  0  0
  187.8670  178.3280  143.7840 C   0  0  0  0  0  2  0  0  0  0  0  0
  194.6240  173.7590  139.9360 C   0  0  0  0  0  1  0  0  0  0  0  0
  194.5350  172.9670  143.5210 C   0  0  0  0  0  1  0  0  0  0  0  0
  186.5470  176.2880  144.0140 C   0  0  0  0  0  2  0  0  0  0  0  0
  189.9450  173.4560  140.5990 C   0  0  0  0  0  0  0  0  0  0  0  0
  187.2370  178.4280  142.3840 C   0  0  0  0  0  2  0  0  0  0  0  0
  192.0710  173.4820  143.5950 C   0  0  0  0  0  0  0  0  0  0  0  0
  189.8380  176.0370  146.2170 O   0  0  0  0  0  0  0  0  0  0  0  0
  187.0160  176.4150  146.8020 C   0  0  0  0  0  2  0  0  0  0  0  0
  188.1390  175.0710  140.6710 C   0  0  0  0  0  2  0  0  0  0  0  0
  187.8170  177.4420  141.3660 C   0  0  0  0  0  2  0  0  0  0  0  0
  189.3060  177.2410  146.2950 O   0  0  0  0  0  0  0  0  0  0  0  0
  193.4500  174.0150  143.3200 C   0  0  2  0  0  3  0  0  0  0  0  0
  193.3800  173.7150  140.7970 C   0  0  1  0  0  3  0  0  0  0  0  0
  187.9150  175.9910  141.8560 C   0  0  1  0  0  3  0  0  0  0  0  0
  191.1470  176.2410  145.7690 C   0  0  0  0  0  2  0  0  0  0  0  0
  187.7900  176.9830  144.3840 N   0  0  2  0  0  0  0  0  0  0  0  0
  191.0850  173.0850  140.0770 C   0  0  0  0  0  0  0  0  0  0  0  0
  186.9730  177.9280  146.6000 C   0  0  0  0  0  2  0  0  0  0  0  0
  193.5420  174.6920  141.9540 C   0  0  0  0  0  2  0  0  0  0  0  0
  191.7850  172.2960  143.2660 O   0  0  0  0  0  0  0  0  0  0  0  0
  190.5520  176.5110  143.4460 O   0  0  0  0  0  1  0  0  0  0  0  0
  188.8010  173.8120  141.1130 C   0  0  0  0  0  3  0  0  0  0  0  0
  191.8150  171.5540  138.2310 C   0  0  0  0  0  3  0  0  0  0  0  0
  191.2280  171.7290  139.4930 C   0  0  0  0  0  0  0  0  0  0  0  0
  190.7840  170.6350  140.1750 N   0  0  0  0  0  0  0  0  0  0  0  0
  190.4410  168.3200  140.3910 F   0  0  0  0  0  0  0  0  0  0  0  0
  191.4800  169.1700  138.4230 C   0  0  0  0  0  3  0  0  0  0  0  0
  190.8960  169.3750  139.6750 C   0  0  0  0  0  0  0  0  0  0  0  0
  191.9410  170.2700  137.6990 C   0  0  0  0  0  3  0  0  0  0  0  0
  189.6910  172.7170  145.3870 C   0  0  0  0  0  1  0  0  0  0  0  0
  189.7030  173.8250  144.3490 C   0  0  0  0  0  2  0  0  0  0  0  0
  1 27  1  6  0  0  0
  1 21  1  0  0  0  0
  2 17  1  0  0  0  0
  2 24  1  0  0  0  0
  2 14  1  0  0  0  0
  3  9  1  0  0  0  0
  4  1  1  0  0  0  0
  4 37  1  0  0  0  0
  5 23  1  0  0  0  0
  5 19  1  0  0  0  0
  9 22  1  0  0  0  0
 10 28  2  0  0  0  0
 11  6  1  0  0  0  0
 12  4  1  0  0  0  0
 13 17  1  0  0  0  0
 15 28  1  0  0  0  0
 16 20  1  0  0  0  0
 16 11  1  0  0  0  0
 18  8  1  6  0  0  0
 18 12  1  0  0  0  0
 19  7  1  6  0  0  0
 19 25  1  0  0  0  0
 20 15  1  6  0  0  0
 20  3  1  0  0  0  0
 21 13  1  0  0  0  0
 22  6  1  1  0  0  0
 22  2  1  0  0  0  0
 23 10  2  0  0  0  0
 24 14  1  0  0  0  0
 25 18  1  0  0  0  0
 26 12  2  0  0  0  0
 29 30  1  0  0  0  0
 30 23  1  0  0  0  0
 30 31  2  0  0  0  0
 33 34  2  0  0  0  0
 34 31  1  0  0  0  0
 34 32  1  0  0  0  0
 35 29  2  0  0  0  0
 35 33  1  0  0  0  0
 37 36  1  0  0  0  0
M  END
>  <MODEL>
9

>  <REMARK>
 VINA RESULT:      -7.1      2.341      2.851
  Name = 
  2 active torsions:
  status: ('A' for Active; 'I' for Inactive)
    1  A    between atoms: N_5  and  C_23
    2  A    between atoms: C_6  and  C_31
                            x       y       z     vdW  Elec       q    Type
                         _______ _______ _______ _____ _____    ______ ____

>  <TORSDO>
F 2

$$$$
