=
 OpenBabel11052418243D

 27 31  0  0  0  0  0  0  0  0999 V2000
  186.6260  176.7900  143.8340 N   0  0  0  0  0  2  0  0  0  0  0  0
  189.0760  176.4670  143.4210 C   0  0  0  0  0  0  0  0  0  0  0  0
  188.5510  175.8400  145.8080 C   0  0  0  0  0  2  0  0  0  0  0  0
  193.0350  176.5850  144.7390 N   0  0  0  0  0  0  0  0  0  0  0  0
  193.8250  176.6770  147.1090 C   0  0  0  0  0  1  0  0  0  0  0  0
  190.1890  176.4020  142.4130 C   0  0  0  0  0  3  0  0  0  0  0  0
  191.4350  176.5590  146.3460 N   0  0  0  0  0  0  0  0  0  0  0  0
  186.6910  178.5180  147.7880 C   0  0  0  0  0  3  0  0  0  0  0  0
  190.8130  176.5810  147.6600 C   0  0  0  0  0  1  0  0  0  0  0  0
  185.4050  178.6920  147.4940 C   0  0  0  0  0  2  0  0  0  0  0  0
  190.8480  176.5130  145.1380 C   0  0  0  0  0  0  0  0  0  0  0  0
  187.7800  176.5640  142.9890 C   0  0  0  0  0  0  0  0  0  0  0  0
  192.7600  176.6090  146.0690 C   0  0  0  0  0  0  0  0  0  0  0  0
  191.8100  176.5290  144.1810 C   0  0  0  0  0  0  0  0  0  0  0  0
  186.4290  176.9850  145.1060 C   0  0  0  0  0  0  0  0  0  0  0  0
  189.4500  176.3980  144.8220 N   0  0  0  0  0  0  0  0  0  0  0  0
  187.6090  177.5160  147.2330 C   0  0  0  0  0  3  0  0  0  0  0  0
  191.4820  176.4350  142.7630 C   0  0  0  0  0  3  0  0  0  0  0  0
  184.5970  177.9390  146.5290 C   0  0  0  0  0  3  0  0  0  0  0  0
  185.0350  177.2130  145.5040 C   0  0  0  0  0  3  0  0  0  0  0  0
  187.4980  176.8250  146.0980 C   0  0  0  0  0  0  0  0  0  0  0  0
  187.6830  174.9110  138.4680 N   0  0  0  0  0  2  0  0  0  0  0  0
  187.4390  176.5150  141.5440 C   0  0  0  0  0  0  0  0  0  0  0  0
  187.8280  175.4890  140.7200 N   0  0  0  0  0  0  0  0  0  0  0  0
  187.4410  175.7130  139.4500 C   0  0  0  0  0  0  0  0  0  0  0  0
  186.6570  177.1660  139.3460 S   0  0  0  0  0  0  0  0  0  0  0  0
  186.7820  177.5590  140.9560 N   0  0  0  0  0  2  0  0  0  0  0  0
  1 15  1  0  0  0  0
  2 16  1  0  0  0  0
  3 21  1  0  0  0  0
  4 13  2  0  0  0  0
  6 18  2  0  0  0  0
  6  2  1  0  0  0  0
  7  9  1  0  0  0  0
 10  8  1  0  0  0  0
 11  7  1  0  0  0  0
 12  2  2  0  0  0  0
 12  1  1  0  0  0  0
 13  7  1  0  0  0  0
 13  5  1  0  0  0  0
 14  4  1  0  0  0  0
 14 11  2  0  0  0  0
 15 20  1  0  0  0  0
 15 21  2  0  0  0  0
 16 11  1  0  0  0  0
 16  3  1  0  0  0  0
 17  8  2  0  0  0  0
 18 14  1  0  0  0  0
 19 10  1  0  0  0  0
 20 19  2  0  0  0  0
 21 17  1  0  0  0  0
 22 25  2  0  0  0  0
 23 12  1  0  0  0  0
 24 23  2  0  0  0  0
 25 24  1  0  0  0  0
 26 25  1  0  0  0  0
 26 27  1  0  0  0  0
 27 23  1  0  0  0  0
M  END
>  <MODEL>
1

>  <REMARK>
 VINA RESULT:      -7.7      0.000      0.000
  Name = 
  1 active torsions:
  status: ('A' for Active; 'I' for Inactive)
    1  A    between atoms: C_9  and  C_15
                            x       y       z     vdW  Elec       q    Type
                         _______ _______ _______ _____ _____    ______ ____

>  <TORSDO>
F 1

$$$$
=
 OpenBabel11052418243D

 27 31  0  0  0  0  0  0  0  0999 V2000
  187.8030  177.6140  144.7000 N   0  0  0  0  0  2  0  0  0  0  0  0
  188.9970  175.9510  143.2560 C   0  0  0  0  0  0  0  0  0  0  0  0
  187.8490  177.6490  141.7850 C   0  0  0  0  0  2  0  0  0  0  0  0
  189.2390  173.6750  139.7650 N   0  0  0  0  0  0  0  0  0  0  0  0
  187.9500  174.0260  137.6530 C   0  0  0  0  0  1  0  0  0  0  0  0
  189.9800  174.8160  143.1840 C   0  0  0  0  0  3  0  0  0  0  0  0
  187.8180  175.4410  139.7240 N   0  0  0  0  0  0  0  0  0  0  0  0
  184.1310  178.1190  142.4910 C   0  0  0  0  0  3  0  0  0  0  0  0
  186.8200  176.3860  139.2470 C   0  0  0  0  0  1  0  0  0  0  0  0
  183.8130  178.7850  143.5980 C   0  0  0  0  0  2  0  0  0  0  0  0
  188.4210  175.3890  140.9230 C   0  0  0  0  0  0  0  0  0  0  0  0
  188.8170  176.6140  144.4410 C   0  0  0  0  0  0  0  0  0  0  0  0
  188.3300  174.3850  139.0480 C   0  0  0  0  0  0  0  0  0  0  0  0
  189.2710  174.3310  140.9410 C   0  0  0  0  0  0  0  0  0  0  0  0
  186.8260  178.1440  144.0230 C   0  0  0  0  0  0  0  0  0  0  0  0
  188.2990  176.2970  142.0310 N   0  0  0  0  0  0  0  0  0  0  0  0
  185.4720  177.8640  141.9520 C   0  0  0  0  0  3  0  0  0  0  0  0
  190.1120  174.0430  142.0980 C   0  0  0  0  0  3  0  0  0  0  0  0
  184.7270  179.4080  144.5620 C   0  0  0  0  0  3  0  0  0  0  0  0
  186.0150  179.1300  144.7470 C   0  0  0  0  0  3  0  0  0  0  0  0
  186.6430  177.9010  142.5880 C   0  0  0  0  0  0  0  0  0  0  0  0
  192.6330  176.6180  147.3770 N   0  0  0  0  0  2  0  0  0  0  0  0
  189.6380  176.2980  145.6390 C   0  0  0  0  0  0  0  0  0  0  0  0
  190.9020  176.7990  145.8290 N   0  0  0  0  0  0  0  0  0  0  0  0
  191.4500  176.3170  146.9610 C   0  0  0  0  0  0  0  0  0  0  0  0
  190.4000  175.2690  147.6950 S   0  0  0  0  0  0  0  0  0  0  0  0
  189.1830  175.4090  146.5700 N   0  0  0  0  0  2  0  0  0  0  0  0
  2 12  2  0  0  0  0
  3 16  1  0  0  0  0
  3 21  1  0  0  0  0
  4 14  1  0  0  0  0
  5 13  1  0  0  0  0
  6  2  1  0  0  0  0
  7 11  1  0  0  0  0
  8 10  1  0  0  0  0
  9  7  1  0  0  0  0
 10 19  1  0  0  0  0
 11 14  2  0  0  0  0
 11 16  1  0  0  0  0
 12  1  1  0  0  0  0
 12 23  1  0  0  0  0
 13  7  1  0  0  0  0
 13  4  2  0  0  0  0
 14 18  1  0  0  0  0
 15  1  1  0  0  0  0
 15 20  1  0  0  0  0
 16  2  1  0  0  0  0
 17  8  2  0  0  0  0
 17 21  1  0  0  0  0
 18  6  2  0  0  0  0
 19 20  2  0  0  0  0
 21 15  2  0  0  0  0
 23 24  2  0  0  0  0
 23 27  1  0  0  0  0
 24 25  1  0  0  0  0
 25 22  2  0  0  0  0
 25 26  1  0  0  0  0
 27 26  1  0  0  0  0
M  END
>  <MODEL>
2

>  <REMARK>
 VINA RESULT:      -7.7      2.610      5.999
  Name = 
  1 active torsions:
  status: ('A' for Active; 'I' for Inactive)
    1  A    between atoms: C_9  and  C_15
                            x       y       z     vdW  Elec       q    Type
                         _______ _______ _______ _____ _____    ______ ____

>  <TORSDO>
F 1

$$$$
=
 OpenBabel11052418243D

 27 31  0  0  0  0  0  0  0  0999 V2000
  190.3860  176.2090  145.8750 N   0  0  0  0  0  2  0  0  0  0  0  0
  189.1110  175.4590  143.8520 C   0  0  0  0  0  0  0  0  0  0  0  0
  191.2230  174.0930  144.0520 C   0  0  0  0  0  2  0  0  0  0  0  0
  189.0220  174.0220  139.9340 N   0  0  0  0  0  0  0  0  0  0  0  0
  190.9070  172.9570  138.6840 C   0  0  0  0  0  1  0  0  0  0  0  0
  187.8260  175.5170  143.0760 C   0  0  0  0  0  3  0  0  0  0  0  0
  190.9750  173.7710  141.0590 N   0  0  0  0  0  0  0  0  0  0  0  0
  194.4260  176.1410  144.3590 C   0  0  0  0  0  3  0  0  0  0  0  0
  192.3610  173.4270  141.3390 C   0  0  0  0  0  1  0  0  0  0  0  0
  194.6410  176.7420  145.5270 C   0  0  0  0  0  2  0  0  0  0  0  0
  190.0760  174.3620  141.8630 C   0  0  0  0  0  0  0  0  0  0  0  0
  189.1820  176.0500  145.0860 C   0  0  0  0  0  0  0  0  0  0  0  0
  190.3070  173.5840  139.8950 C   0  0  0  0  0  0  0  0  0  0  0  0
  188.9100  174.5090  141.1850 C   0  0  0  0  0  0  0  0  0  0  0  0
  191.6470  175.9250  145.7150 C   0  0  0  0  0  0  0  0  0  0  0  0
  190.2180  174.7450  143.2410 N   0  0  0  0  0  0  0  0  0  0  0  0
  193.3200  175.2440  144.0030 C   0  0  0  0  0  3  0  0  0  0  0  0
  187.7220  175.0750  141.8160 C   0  0  0  0  0  3  0  0  0  0  0  0
  193.8130  176.6700  146.7370 C   0  0  0  0  0  3  0  0  0  0  0  0
  192.5300  176.3260  146.8160 C   0  0  0  0  0  3  0  0  0  0  0  0
  192.1320  175.1150  144.5930 C   0  0  0  0  0  0  0  0  0  0  0  0
  185.6630  179.2540  145.8160 N   0  0  0  0  0  2  0  0  0  0  0  0
  187.9890  176.6700  145.7190 C   0  0  0  0  0  0  0  0  0  0  0  0
  187.4080  177.8200  145.2450 N   0  0  0  0  0  0  0  0  0  0  0  0
  186.3810  178.2020  146.0270 C   0  0  0  0  0  0  0  0  0  0  0  0
  186.2150  177.1520  147.2950 S   0  0  0  0  0  0  0  0  0  0  0  0
  187.4710  176.1490  146.8700 N   0  0  0  0  0  2  0  0  0  0  0  0
  2 12  2  0  0  0  0
  3 21  1  0  0  0  0
  4 14  1  0  0  0  0
  5 13  1  0  0  0  0
  6  2  1  0  0  0  0
  7  9  1  0  0  0  0
  7 11  1  0  0  0  0
  8 10  1  0  0  0  0
 10 19  1  0  0  0  0
 11 16  1  0  0  0  0
 12 23  1  0  0  0  0
 12  1  1  0  0  0  0
 13  4  2  0  0  0  0
 13  7  1  0  0  0  0
 14 18  1  0  0  0  0
 14 11  2  0  0  0  0
 15  1  1  0  0  0  0
 15 20  1  0  0  0  0
 16  2  1  0  0  0  0
 16  3  1  0  0  0  0
 17  8  2  0  0  0  0
 17 21  1  0  0  0  0
 18  6  2  0  0  0  0
 19 20  2  0  0  0  0
 21 15  2  0  0  0  0
 22 25  2  0  0  0  0
 23 27  1  0  0  0  0
 24 23  2  0  0  0  0
 24 25  1  0  0  0  0
 25 26  1  0  0  0  0
 27 26  1  0  0  0  0
M  END
>  <MODEL>
3

>  <REMARK>
 VINA RESULT:      -7.6      2.710      6.320
  Name = 
  1 active torsions:
  status: ('A' for Active; 'I' for Inactive)
    1  A    between atoms: C_9  and  C_15
                            x       y       z     vdW  Elec       q    Type
                         _______ _______ _______ _____ _____    ______ ____

>  <TORSDO>
F 1

$$$$
=
 OpenBabel11052418243D

 27 31  0  0  0  0  0  0  0  0999 V2000
  186.6810  176.0990  142.7520 N   0  0  0  0  0  2  0  0  0  0  0  0
  188.8540  175.4880  143.8400 C   0  0  0  0  0  0  0  0  0  0  0  0
  187.2630  176.3510  145.5980 C   0  0  0  0  0  2  0  0  0  0  0  0
  191.7880  176.1570  146.7330 N   0  0  0  0  0  0  0  0  0  0  0  0
  191.5660  177.5410  148.8030 C   0  0  0  0  0  1  0  0  0  0  0  0
  190.1900  174.8140  143.7030 C   0  0  0  0  0  3  0  0  0  0  0  0
  189.7680  177.1180  147.1020 N   0  0  0  0  0  0  0  0  0  0  0  0
  185.7320  179.7590  144.8310 C   0  0  0  0  0  3  0  0  0  0  0  0
  188.7210  177.9100  147.7290 C   0  0  0  0  0  1  0  0  0  0  0  0
  184.7940  179.7940  143.8880 C   0  0  0  0  0  3  0  0  0  0  0  0
  189.7220  176.4220  145.9540 C   0  0  0  0  0  0  0  0  0  0  0  0
  187.9360  175.3810  142.8290 C   0  0  0  0  0  0  0  0  0  0  0  0
  191.0350  176.9420  147.5460 C   0  0  0  0  0  0  0  0  0  0  0  0
  190.9330  175.8480  145.7390 C   0  0  0  0  0  0  0  0  0  0  0  0
  186.0730  176.9890  143.4820 C   0  0  0  0  0  0  0  0  0  0  0  0
  188.6030  176.2100  145.0750 N   0  0  0  0  0  0  0  0  0  0  0  0
  186.4240  178.5800  145.3640 C   0  0  0  0  0  2  0  0  0  0  0  0
  191.1780  174.9810  144.5910 C   0  0  0  0  0  3  0  0  0  0  0  0
  184.2360  178.6630  143.1380 C   0  0  0  0  0  3  0  0  0  0  0  0
  184.7860  177.4650  142.9590 C   0  0  0  0  0  3  0  0  0  0  0  0
  186.5530  177.3730  144.8130 C   0  0  0  0  0  0  0  0  0  0  0  0
  188.5610  174.2720  138.1850 N   0  0  0  0  0  2  0  0  0  0  0  0
  188.1950  174.5370  141.6340 C   0  0  0  0  0  0  0  0  0  0  0  0
  188.2740  175.0490  140.3620 N   0  0  0  0  0  0  0  0  0  0  0  0
  188.4580  174.0710  139.4560 C   0  0  0  0  0  0  0  0  0  0  0  0
  188.4950  172.5990  140.2120 S   0  0  0  0  0  0  0  0  0  0  0  0
  188.2800  173.1790  141.7550 N   0  0  0  0  0  2  0  0  0  0  0  0
  1 12  1  0  0  0  0
  1 15  1  0  0  0  0
  2 16  1  0  0  0  0
  4 13  2  0  0  0  0
  6  2  1  0  0  0  0
  6 18  2  0  0  0  0
  7 13  1  0  0  0  0
  7  9  1  0  0  0  0
  8 17  1  0  0  0  0
 10  8  2  0  0  0  0
 11  7  1  0  0  0  0
 12  2  2  0  0  0  0
 13  5  1  0  0  0  0
 14 11  2  0  0  0  0
 14  4  1  0  0  0  0
 15 21  2  0  0  0  0
 16  3  1  0  0  0  0
 16 11  1  0  0  0  0
 18 14  1  0  0  0  0
 19 10  1  0  0  0  0
 20 19  2  0  0  0  0
 20 15  1  0  0  0  0
 21 17  1  0  0  0  0
 21  3  1  0  0  0  0
 22 25  2  0  0  0  0
 23 27  1  0  0  0  0
 23 12  1  0  0  0  0
 24 23  2  0  0  0  0
 25 26  1  0  0  0  0
 25 24  1  0  0  0  0
 26 27  1  0  0  0  0
M  END
>  <MODEL>
4

>  <REMARK>
 VINA RESULT:      -7.6      1.949      2.473
  Name = 
  1 active torsions:
  status: ('A' for Active; 'I' for Inactive)
    1  A    between atoms: C_9  and  C_15
                            x       y       z     vdW  Elec       q    Type
                         _______ _______ _______ _____ _____    ______ ____

>  <TORSDO>
F 1

$$$$
=
 OpenBabel11052418243D

 27 31  0  0  0  0  0  0  0  0999 V2000
  189.0780  176.4630  145.8550 N   0  0  0  0  0  2  0  0  0  0  0  0
  188.4060  175.6640  143.5770 C   0  0  0  0  0  0  0  0  0  0  0  0
  190.1100  174.0730  144.5420 C   0  0  0  0  0  2  0  0  0  0  0  0
  189.3360  173.8320  139.9430 N   0  0  0  0  0  0  0  0  0  0  0  0
  191.3310  172.4090  139.4480 C   0  0  0  0  0  1  0  0  0  0  0  0
  187.4560  175.7990  142.4210 C   0  0  0  0  0  3  0  0  0  0  0  0
  190.7720  173.4610  141.6590 N   0  0  0  0  0  0  0  0  0  0  0  0
  193.3280  175.7230  145.7540 C   0  0  0  0  0  3  0  0  0  0  0  0
  191.9280  172.9790  142.3980 C   0  0  0  0  0  1  0  0  0  0  0  0
  193.2540  176.4160  146.8880 C   0  0  0  0  0  2  0  0  0  0  0  0
  189.7670  174.2450  142.0860 C   0  0  0  0  0  0  0  0  0  0  0  0
  188.1750  176.3710  144.7270 C   0  0  0  0  0  0  0  0  0  0  0  0
  190.4840  173.2350  140.3550 C   0  0  0  0  0  0  0  0  0  0  0  0
  188.9110  174.4630  141.0560 C   0  0  0  0  0  0  0  0  0  0  0  0
  190.2650  176.0070  146.1350 C   0  0  0  0  0  0  0  0  0  0  0  0
  189.5250  174.7540  143.4080 N   0  0  0  0  0  0  0  0  0  0  0  0
  192.2670  174.9390  145.1110 C   0  0  0  0  0  3  0  0  0  0  0  0
  187.6880  175.2390  141.2260 C   0  0  0  0  0  3  0  0  0  0  0  0
  192.0870  176.5800  147.7610 C   0  0  0  0  0  3  0  0  0  0  0  0
  190.8070  176.4110  147.4380 C   0  0  0  0  0  3  0  0  0  0  0  0
  190.9480  175.0250  145.2860 C   0  0  0  0  0  0  0  0  0  0  0  0
  185.2470  180.1660  144.2630 N   0  0  0  0  0  2  0  0  0  0  0  0
  186.9540  177.2020  144.8940 C   0  0  0  0  0  0  0  0  0  0  0  0
  186.8060  178.4360  144.3100 N   0  0  0  0  0  0  0  0  0  0  0  0
  185.6370  179.0020  144.6630 C   0  0  0  0  0  0  0  0  0  0  0  0
  184.8160  178.0070  145.6990 S   0  0  0  0  0  0  0  0  0  0  0  0
  185.9490  176.7910  145.7230 N   0  0  0  0  0  2  0  0  0  0  0  0
  1 15  1  0  0  0  0
  2 12  2  0  0  0  0
  3 21  1  0  0  0  0
  4 13  2  0  0  0  0
  4 14  1  0  0  0  0
  5 13  1  0  0  0  0
  6  2  1  0  0  0  0
  7 11  1  0  0  0  0
  7  9  1  0  0  0  0
  8 10  1  0  0  0  0
 10 19  1  0  0  0  0
 11 16  1  0  0  0  0
 12 23  1  0  0  0  0
 12  1  1  0  0  0  0
 13  7  1  0  0  0  0
 14 18  1  0  0  0  0
 14 11  2  0  0  0  0
 15 20  1  0  0  0  0
 16  2  1  0  0  0  0
 16  3  1  0  0  0  0
 17 21  1  0  0  0  0
 17  8  2  0  0  0  0
 18  6  2  0  0  0  0
 20 19  2  0  0  0  0
 21 15  2  0  0  0  0
 22 25  2  0  0  0  0
 23 27  1  0  0  0  0
 24 25  1  0  0  0  0
 24 23  2  0  0  0  0
 25 26  1  0  0  0  0
 26 27  1  0  0  0  0
M  END
>  <MODEL>
5

>  <REMARK>
 VINA RESULT:      -7.6      2.595      5.572
  Name = 
  1 active torsions:
  status: ('A' for Active; 'I' for Inactive)
    1  A    between atoms: C_9  and  C_15
                            x       y       z     vdW  Elec       q    Type
                         _______ _______ _______ _____ _____    ______ ____

>  <TORSDO>
F 1

$$$$
=
 OpenBabel11052418243D

 27 31  0  0  0  0  0  0  0  0999 V2000
  190.6780  174.7960  142.7550 N   0  0  0  0  0  2  0  0  0  0  0  0
  188.3660  175.6750  143.1580 C   0  0  0  0  0  0  0  0  0  0  0  0
  190.0150  177.0460  144.4880 C   0  0  0  0  0  2  0  0  0  0  0  0
  185.5130  177.3860  145.6800 N   0  0  0  0  0  0  0  0  0  0  0  0
  185.9370  178.5580  147.8470 C   0  0  0  0  0  1  0  0  0  0  0  0
  186.9200  175.6580  142.7510 C   0  0  0  0  0  3  0  0  0  0  0  0
  187.6790  177.5780  146.3260 N   0  0  0  0  0  0  0  0  0  0  0  0
  192.3360  175.0160  146.7330 C   0  0  0  0  0  3  0  0  0  0  0  0
  188.8440  177.9160  147.1270 C   0  0  0  0  0  1  0  0  0  0  0  0
  193.3070  174.3360  146.1290 C   0  0  0  0  0  2  0  0  0  0  0  0
  187.6240  176.9220  145.1550 C   0  0  0  0  0  0  0  0  0  0  0  0
  189.2880  174.9990  142.4030 C   0  0  0  0  0  0  0  0  0  0  0  0
  186.3820  177.8400  146.6200 C   0  0  0  0  0  0  0  0  0  0  0  0
  186.3270  176.8100  144.7730 C   0  0  0  0  0  0  0  0  0  0  0  0
  191.4350  175.1050  143.7680 C   0  0  0  0  0  0  0  0  0  0  0  0
  188.7090  176.4430  144.3420 N   0  0  0  0  0  0  0  0  0  0  0  0
  191.3610  175.9240  146.1170 C   0  0  0  0  0  3  0  0  0  0  0  0
  185.9500  176.1880  143.5090 C   0  0  0  0  0  3  0  0  0  0  0  0
  193.6270  174.3130  144.6970 C   0  0  0  0  0  3  0  0  0  0  0  0
  192.8240  174.6360  143.6860 C   0  0  0  0  0  3  0  0  0  0  0  0
  190.9850  175.9980  144.8400 C   0  0  0  0  0  0  0  0  0  0  0  0
  187.8160  174.5440  137.8420 N   0  0  0  0  0  2  0  0  0  0  0  0
  188.9060  174.3220  141.1370 C   0  0  0  0  0  0  0  0  0  0  0  0
  188.5540  175.0090  140.0010 N   0  0  0  0  0  0  0  0  0  0  0  0
  188.1990  174.1650  139.0150 C   0  0  0  0  0  0  0  0  0  0  0  0
  188.2920  172.6010  139.5470 S   0  0  0  0  0  0  0  0  0  0  0  0
  188.8090  172.9600  141.0860 N   0  0  0  0  0  2  0  0  0  0  0  0
  1 15  1  0  0  0  0
  2 16  1  0  0  0  0
  3 21  1  0  0  0  0
  4 13  2  0  0  0  0
  6  2  1  0  0  0  0
  6 18  2  0  0  0  0
  7 13  1  0  0  0  0
  7  9  1  0  0  0  0
 10  8  1  0  0  0  0
 11  7  1  0  0  0  0
 12  1  1  0  0  0  0
 12  2  2  0  0  0  0
 13  5  1  0  0  0  0
 14 11  2  0  0  0  0
 14  4  1  0  0  0  0
 15 21  2  0  0  0  0
 16  3  1  0  0  0  0
 16 11  1  0  0  0  0
 17  8  2  0  0  0  0
 18 14  1  0  0  0  0
 19 10  1  0  0  0  0
 20 15  1  0  0  0  0
 20 19  2  0  0  0  0
 21 17  1  0  0  0  0
 22 25  2  0  0  0  0
 23 12  1  0  0  0  0
 24 23  2  0  0  0  0
 25 26  1  0  0  0  0
 25 24  1  0  0  0  0
 26 27  1  0  0  0  0
 27 23  1  0  0  0  0
M  END
>  <MODEL>
6

>  <REMARK>
 VINA RESULT:      -7.4      1.972      5.187
  Name = 
  1 active torsions:
  status: ('A' for Active; 'I' for Inactive)
    1  A    between atoms: C_9  and  C_15
                            x       y       z     vdW  Elec       q    Type
                         _______ _______ _______ _____ _____    ______ ____

>  <TORSDO>
F 1

$$$$
=
 OpenBabel11052418243D

 27 31  0  0  0  0  0  0  0  0999 V2000
  188.3020  175.7640  142.5710 N   0  0  0  0  0  2  0  0  0  0  0  0
  189.7030  176.4630  144.5270 C   0  0  0  0  0  0  0  0  0  0  0  0
  191.2160  175.8640  142.5980 C   0  0  0  0  0  2  0  0  0  0  0  0
  193.1640  176.1060  146.8350 N   0  0  0  0  0  0  0  0  0  0  0  0
  195.3040  175.0020  146.1680 C   0  0  0  0  0  1  0  0  0  0  0  0
  189.7440  177.0860  145.8940 C   0  0  0  0  0  3  0  0  0  0  0  0
  193.2530  175.2430  144.7400 N   0  0  0  0  0  0  0  0  0  0  0  0
  190.5880  172.4190  141.0870 C   0  0  0  0  0  3  0  0  0  0  0  0
  193.7590  174.5590  143.5610 C   0  0  0  0  0  1  0  0  0  0  0  0
  189.4940  172.2840  140.3410 C   0  0  0  0  0  3  0  0  0  0  0  0
  192.0410  175.7880  144.9420 C   0  0  0  0  0  0  0  0  0  0  0  0
  188.5300  176.4590  143.8210 C   0  0  0  0  0  0  0  0  0  0  0  0
  193.9060  175.4470  145.9090 C   0  0  0  0  0  0  0  0  0  0  0  0
  191.9940  176.3040  146.1960 C   0  0  0  0  0  0  0  0  0  0  0  0
  189.0040  174.9870  141.7980 C   0  0  0  0  0  0  0  0  0  0  0  0
  190.9460  175.9090  144.0180 N   0  0  0  0  0  0  0  0  0  0  0  0
  191.0970  173.6420  141.7190 C   0  0  0  0  0  2  0  0  0  0  0  0
  190.8180  177.0120  146.6900 C   0  0  0  0  0  3  0  0  0  0  0  0
  188.5200  173.3220  139.9850 C   0  0  0  0  0  3  0  0  0  0  0  0
  188.3060  174.4760  140.6120 C   0  0  0  0  0  3  0  0  0  0  0  0
  190.4390  174.7660  142.0030 C   0  0  0  0  0  0  0  0  0  0  0  0
  185.2570  179.9430  144.3980 N   0  0  0  0  0  2  0  0  0  0  0  0
  187.3130  177.1390  144.3360 C   0  0  0  0  0  0  0  0  0  0  0  0
  186.9290  178.3910  143.9260 N   0  0  0  0  0  0  0  0  0  0  0  0
  185.8280  178.8010  144.5840 C   0  0  0  0  0  0  0  0  0  0  0  0
  185.3570  177.6460  145.6710 S   0  0  0  0  0  0  0  0  0  0  0  0
  186.5660  176.5590  145.3220 N   0  0  0  0  0  2  0  0  0  0  0  0
  1 12  1  0  0  0  0
  2  6  1  0  0  0  0
  3 16  1  0  0  0  0
  6 18  2  0  0  0  0
  7 11  1  0  0  0  0
  7 13  1  0  0  0  0
  8 17  1  0  0  0  0
  9  7  1  0  0  0  0
 10  8  2  0  0  0  0
 11 14  2  0  0  0  0
 12 23  1  0  0  0  0
 12  2  2  0  0  0  0
 13  5  1  0  0  0  0
 13  4  2  0  0  0  0
 14 18  1  0  0  0  0
 14  4  1  0  0  0  0
 15 21  2  0  0  0  0
 15  1  1  0  0  0  0
 16  2  1  0  0  0  0
 16 11  1  0  0  0  0
 17 21  1  0  0  0  0
 19 10  1  0  0  0  0
 19 20  2  0  0  0  0
 20 15  1  0  0  0  0
 21  3  1  0  0  0  0
 22 25  2  0  0  0  0
 23 27  1  0  0  0  0
 24 23  2  0  0  0  0
 24 25  1  0  0  0  0
 25 26  1  0  0  0  0
 27 26  1  0  0  0  0
M  END
>  <MODEL>
7

>  <REMARK>
 VINA RESULT:      -7.4      2.447      5.255
  Name = 
  1 active torsions:
  status: ('A' for Active; 'I' for Inactive)
    1  A    between atoms: C_9  and  C_15
                            x       y       z     vdW  Elec       q    Type
                         _______ _______ _______ _____ _____    ______ ____

>  <TORSDO>
F 1

$$$$
=
 OpenBabel11052418243D

 27 31  0  0  0  0  0  0  0  0999 V2000
  187.4240  175.4640  142.4770 N   0  0  0  0  0  2  0  0  0  0  0  0
  189.8810  175.0050  142.6570 C   0  0  0  0  0  0  0  0  0  0  0  0
  188.9440  175.4060  144.9650 C   0  0  0  0  0  2  0  0  0  0  0  0
  193.5810  175.6590  144.4760 N   0  0  0  0  0  0  0  0  0  0  0  0
  193.9910  176.7110  146.7070 C   0  0  0  0  0  1  0  0  0  0  0  0
  191.1320  174.5380  141.9680 C   0  0  0  0  0  3  0  0  0  0  0  0
  191.7490  176.2870  145.6560 N   0  0  0  0  0  0  0  0  0  0  0  0
  186.9820  178.6540  145.3490 C   0  0  0  0  0  3  0  0  0  0  0  0
  190.9300  176.8420  146.7230 C   0  0  0  0  0  1  0  0  0  0  0  0
  185.7730  178.6910  144.7940 C   0  0  0  0  0  3  0  0  0  0  0  0
  191.3590  175.7520  144.4880 C   0  0  0  0  0  0  0  0  0  0  0  0
  188.6790  174.9150  142.0060 C   0  0  0  0  0  0  0  0  0  0  0  0
  193.1010  176.2220  145.6160 C   0  0  0  0  0  0  0  0  0  0  0  0
  192.4580  175.3770  143.7860 C   0  0  0  0  0  0  0  0  0  0  0  0
  187.0430  176.1600  143.5090 C   0  0  0  0  0  0  0  0  0  0  0  0
  190.0240  175.5140  144.0090 N   0  0  0  0  0  0  0  0  0  0  0  0
  187.9060  177.5150  145.4110 C   0  0  0  0  0  2  0  0  0  0  0  0
  192.3530  174.7130  142.4920 C   0  0  0  0  0  3  0  0  0  0  0  0
  185.0780  177.6080  144.0890 C   0  0  0  0  0  3  0  0  0  0  0  0
  185.6220  176.5280  143.5350 C   0  0  0  0  0  3  0  0  0  0  0  0
  187.9280  176.4210  144.6490 C   0  0  0  0  0  0  0  0  0  0  0  0
  187.9220  174.5830  137.2630 N   0  0  0  0  0  2  0  0  0  0  0  0
  188.5680  174.2810  140.6670 C   0  0  0  0  0  0  0  0  0  0  0  0
  188.2880  174.9920  139.5270 N   0  0  0  0  0  0  0  0  0  0  0  0
  188.1860  174.1780  138.4600 C   0  0  0  0  0  0  0  0  0  0  0  0
  188.4110  172.6060  138.9250 S   0  0  0  0  0  0  0  0  0  0  0  0
  188.6590  172.9240  140.5380 N   0  0  0  0  0  2  0  0  0  0  0  0
  1 15  1  0  0  0  0
  2 16  1  0  0  0  0
  4 13  2  0  0  0  0
  6 18  2  0  0  0  0
  6  2  1  0  0  0  0
  7  9  1  0  0  0  0
  8 17  1  0  0  0  0
 10  8  2  0  0  0  0
 11  7  1  0  0  0  0
 12  1  1  0  0  0  0
 12  2  2  0  0  0  0
 13  7  1  0  0  0  0
 13  5  1  0  0  0  0
 14  4  1  0  0  0  0
 14 11  2  0  0  0  0
 15 20  1  0  0  0  0
 15 21  2  0  0  0  0
 16 11  1  0  0  0  0
 16  3  1  0  0  0  0
 18 14  1  0  0  0  0
 19 10  1  0  0  0  0
 20 19  2  0  0  0  0
 21  3  1  0  0  0  0
 21 17  1  0  0  0  0
 22 25  2  0  0  0  0
 23 12  1  0  0  0  0
 24 23  2  0  0  0  0
 25 26  1  0  0  0  0
 25 24  1  0  0  0  0
 26 27  1  0  0  0  0
 27 23  1  0  0  0  0
M  END
>  <MODEL>
8

>  <REMARK>
 VINA RESULT:      -7.4      1.842      2.173
  Name = 
  1 active torsions:
  status: ('A' for Active; 'I' for Inactive)
    1  A    between atoms: C_9  and  C_15
                            x       y       z     vdW  Elec       q    Type
                         _______ _______ _______ _____ _____    ______ ____

>  <TORSDO>
F 1

$$$$
=
 OpenBabel11052418243D

 27 31  0  0  0  0  0  0  0  0999 V2000
  187.5720  175.2780  142.1880 N   0  0  0  0  0  2  0  0  0  0  0  0
  190.0200  174.8080  142.4450 C   0  0  0  0  0  0  0  0  0  0  0  0
  189.0320  175.3130  144.7120 C   0  0  0  0  0  2  0  0  0  0  0  0
  193.6810  175.5100  144.3230 N   0  0  0  0  0  0  0  0  0  0  0  0
  194.0480  176.6520  146.5160 C   0  0  0  0  0  1  0  0  0  0  0  0
  191.2830  174.3020  141.8070 C   0  0  0  0  0  3  0  0  0  0  0  0
  191.8280  176.2010  145.4320 N   0  0  0  0  0  0  0  0  0  0  0  0
  187.0900  178.5900  144.9110 C   0  0  0  0  0  3  0  0  0  0  0  0
  190.9890  176.8070  146.4540 C   0  0  0  0  0  1  0  0  0  0  0  0
  185.8950  178.6120  144.3260 C   0  0  0  0  0  3  0  0  0  0  0  0
  191.4600  175.6200  144.2770 C   0  0  0  0  0  0  0  0  0  0  0  0
  188.8320  174.6990  141.7710 C   0  0  0  0  0  0  0  0  0  0  0  0
  193.1800  176.1240  145.4260 C   0  0  0  0  0  0  0  0  0  0  0  0
  192.5730  175.2080  143.6190 C   0  0  0  0  0  0  0  0  0  0  0  0
  187.1720  176.0200  143.1800 C   0  0  0  0  0  0  0  0  0  0  0  0
  190.1350  175.3730  143.7780 N   0  0  0  0  0  0  0  0  0  0  0  0
  188.0020  177.4470  145.0430 C   0  0  0  0  0  2  0  0  0  0  0  0
  192.4920  174.4900  142.3510 C   0  0  0  0  0  3  0  0  0  0  0  0
  185.2070  177.5050  143.6520 C   0  0  0  0  0  3  0  0  0  0  0  0
  185.7550  176.3990  143.1560 C   0  0  0  0  0  3  0  0  0  0  0  0
  188.0320  176.3220  144.3290 C   0  0  0  0  0  0  0  0  0  0  0  0
  189.3440  171.1820  138.5230 N   0  0  0  0  0  2  0  0  0  0  0  0
  188.7470  174.0100  140.4570 C   0  0  0  0  0  0  0  0  0  0  0  0
  189.1560  172.7130  140.2680 N   0  0  0  0  0  0  0  0  0  0  0  0
  189.0270  172.3470  138.9790 C   0  0  0  0  0  0  0  0  0  0  0  0
  188.4430  173.6130  138.0880 S   0  0  0  0  0  0  0  0  0  0  0  0
  188.3270  174.6890  139.3490 N   0  0  0  0  0  2  0  0  0  0  0  0
  1 15  1  0  0  0  0
  2 16  1  0  0  0  0
  4 13  2  0  0  0  0
  6 18  2  0  0  0  0
  6  2  1  0  0  0  0
  7  9  1  0  0  0  0
  8 17  1  0  0  0  0
 10  8  2  0  0  0  0
 11  7  1  0  0  0  0
 12  1  1  0  0  0  0
 12  2  2  0  0  0  0
 13  7  1  0  0  0  0
 13  5  1  0  0  0  0
 14 11  2  0  0  0  0
 14  4  1  0  0  0  0
 15 21  2  0  0  0  0
 16 11  1  0  0  0  0
 16  3  1  0  0  0  0
 18 14  1  0  0  0  0
 19 10  1  0  0  0  0
 20 15  1  0  0  0  0
 20 19  2  0  0  0  0
 21  3  1  0  0  0  0
 21 17  1  0  0  0  0
 22 25  2  0  0  0  0
 23 12  1  0  0  0  0
 24 23  2  0  0  0  0
 25 24  1  0  0  0  0
 26 25  1  0  0  0  0
 26 27  1  0  0  0  0
 27 23  1  0  0  0  0
M  END
>  <MODEL>
9

>  <REMARK>
 VINA RESULT:      -7.3      2.085      2.511
  Name = 
  1 active torsions:
  status: ('A' for Active; 'I' for Inactive)
    1  A    between atoms: C_9  and  C_15
                            x       y       z     vdW  Elec       q    Type
                         _______ _______ _______ _____ _____    ______ ____

>  <TORSDO>
F 1

$$$$
