=
 OpenBabel11052419043D

 32 38  0  0  1  0  0  0  0  0999 V2000
  189.3060  175.2970  142.7290 C   0  0  2  0  0  0  0  0  0  0  0  0
  187.6200  177.1040  143.2380 C   0  0  0  0  0  0  0  0  0  0  0  0
  190.1810  174.5520  141.7440 C   0  0  0  0  0  2  0  0  0  0  0  0
  188.6270  176.5780  142.2310 C   0  0  2  0  0  3  0  0  0  0  0  0
  186.6350  178.0030  142.8050 C   0  0  0  0  0  0  0  0  0  0  0  0
  185.9900  177.8130  147.8410 C   0  0  0  0  0  2  0  0  0  0  0  0
  187.7320  176.8170  144.6020 C   0  0  0  0  0  0  0  0  0  0  0  0
  185.0600  179.1560  145.9850 C   0  0  0  0  0  2  0  0  0  0  0  0
  186.0240  178.4860  145.0560 C   0  0  0  0  0  0  0  0  0  0  0  0
  188.0110  176.2520  140.8600 C   0  0  2  0  0  3  0  0  0  0  0  0
  185.8530  178.6510  143.7120 N   0  0  0  0  0  0  0  0  0  0  0  0
  186.6610  176.9240  140.5670 C   0  0  0  0  0  2  0  0  0  0  0  0
  187.8540  174.7410  140.8190 C   0  0  0  0  0  2  0  0  0  0  0  0
  188.7150  175.8200  145.0650 C   0  0  0  0  0  3  0  0  0  0  0  0
  189.4760  175.0730  144.2400 C   0  0  0  0  0  0  0  0  0  0  0  0
  186.9490  177.5260  145.5320 C   0  0  0  0  0  0  0  0  0  0  0  0
  186.4810  178.2450  141.3300 C   0  0  1  0  0  3  0  0  0  0  0  0
  188.7260  174.1440  141.9240 C   0  0  2  0  0  3  0  0  0  0  0  0
  185.5830  179.2120  147.4120 C   0  0  0  0  0  2  0  0  0  0  0  0
  187.2030  177.3930  147.0190 C   0  0  0  0  0  2  0  0  0  0  0  0
  193.1940  176.8050  146.1090 C   0  0  0  0  0  1  0  0  0  0  0  0
  191.2870  176.7220  148.2650 O   0  0  0  0  0  1  0  0  0  0  0  0
  192.8550  173.4560  145.3540 C   0  0  0  0  0  1  0  0  0  0  0  0
  190.0370  174.8950  147.3910 C   0  0  0  0  0  2  0  0  0  0  0  0
  190.5480  174.2580  144.9760 C   0  0  2  0  0  3  0  0  0  0  0  0
  192.2590  175.6240  146.3550 C   0  0  2  0  0  3  0  0  0  0  0  0
  190.0360  173.7790  146.3400 C   0  0  0  0  0  2  0  0  0  0  0  0
  192.0290  174.7090  145.1090 C   0  0  0  0  0  0  0  0  0  0  0  0
  192.5520  175.2750  143.7940 C   0  0  0  0  0  1  0  0  0  0  0  0
  190.9650  176.0710  147.0700 C   0  0  2  0  0  3  0  0  0  0  0  0
  185.2870  178.9260  140.9880 O   0  0  0  0  0  0  0  0  0  0  0  0
  184.3500  178.0260  140.4500 C   0  0  0  0  0  1  0  0  0  0  0  0
  1  3  1  6  0  0  0
  1 15  1  0  0  0  0
  2  7  1  0  0  0  0
  3 18  1  0  0  0  0
  4  1  1  0  0  0  0
  4  2  1  1  0  0  0
  5  2  2  0  0  0  0
  5 11  1  0  0  0  0
  7 14  1  0  0  0  0
  7 16  2  0  0  0  0
  8 19  1  0  0  0  0
  9 16  1  0  0  0  0
  9  8  1  0  0  0  0
 10 12  1  1  0  0  0
 10  4  1  0  0  0  0
 11  9  2  0  0  0  0
 12 17  1  0  0  0  0
 13 10  1  0  0  0  0
 15 14  2  0  0  0  0
 16 20  1  0  0  0  0
 17 31  1  1  0  0  0
 17  5  1  0  0  0  0
 18 13  1  6  0  0  0
 18  1  1  0  0  0  0
 19  6  1  0  0  0  0
 20  6  1  0  0  0  0
 25 15  1  1  0  0  0
 25 28  1  0  0  0  0
 25 27  1  0  0  0  0
 26 21  1  6  0  0  0
 26 30  1  0  0  0  0
 27 24  1  0  0  0  0
 28 23  1  0  0  0  0
 28 26  1  0  0  0  0
 29 28  1  0  0  0  0
 30 24  1  0  0  0  0
 30 22  1  1  0  0  0
 32 31  1  0  0  0  0
M  END
>  <MODEL>
1

>  <REMARK>
 VINA RESULT:      -9.0      0.000      0.000
  Name = 
  2 active torsions:
  status: ('A' for Active; 'I' for Inactive)
    1  A    between atoms: O_13  and  C_29
    2  A    between atoms: C_16  and  C_27
                            x       y       z     vdW  Elec       q    Type
                         _______ _______ _______ _____ _____    ______ ____

>  <TORSDO>
F 2

$$$$
=
 OpenBabel11052419043D

 32 38  0  0  1  0  0  0  0  0999 V2000
  190.6100  175.2490  146.0060 C   0  0  2  0  0  0  0  0  0  0  0  0
  189.0090  175.2790  144.0560 C   0  0  0  0  0  0  0  0  0  0  0  0
  190.9110  175.5080  147.4680 C   0  0  0  0  0  2  0  0  0  0  0  0
  189.1450  175.3480  145.5660 C   0  0  2  0  0  3  0  0  0  0  0  0
  187.8320  175.7480  143.4590 C   0  0  0  0  0  0  0  0  0  0  0  0
  190.4330  173.7130  139.5980 C   0  0  0  0  0  2  0  0  0  0  0  0
  189.9710  174.6420  143.2640 C   0  0  0  0  0  0  0  0  0  0  0  0
  188.1670  174.6540  139.9070 C   0  0  0  0  0  2  0  0  0  0  0  0
  188.4540  174.7840  141.3710 C   0  0  0  0  0  0  0  0  0  0  0  0
  188.5830  176.6440  146.1740 C   0  0  2  0  0  3  0  0  0  0  0  0
  187.5910  175.5120  142.1390 N   0  0  0  0  0  0  0  0  0  0  0  0
  187.5880  177.4100  145.2900 C   0  0  0  0  0  2  0  0  0  0  0  0
  189.7870  177.5220  146.4750 C   0  0  0  0  0  2  0  0  0  0  0  0
  191.2460  174.2080  143.8640 C   0  0  0  0  0  3  0  0  0  0  0  0
  191.6060  174.4660  145.1370 C   0  0  0  0  0  0  0  0  0  0  0  0
  189.6920  174.3650  141.9130 C   0  0  0  0  0  0  0  0  0  0  0  0
  186.8420  176.4920  144.3090 C   0  0  1  0  0  3  0  0  0  0  0  0
  191.0340  176.6390  146.4560 C   0  0  2  0  0  3  0  0  0  0  0  0
  188.9620  173.5270  139.2660 C   0  0  0  0  0  2  0  0  0  0  0  0
  190.6180  173.4900  141.0940 C   0  0  0  0  0  2  0  0  0  0  0  0
  194.3880  172.2940  142.3330 C   0  0  0  0  0  1  0  0  0  0  0  0
  195.5130  174.9360  142.5450 O   0  0  0  0  0  1  0  0  0  0  0  0
  194.3650  171.7640  145.7420 C   0  0  0  0  0  1  0  0  0  0  0  0
  194.6520  175.3740  144.7200 C   0  0  0  0  0  2  0  0  0  0  0  0
  192.8890  173.7390  145.5630 C   0  0  2  0  0  3  0  0  0  0  0  0
  194.4920  173.0570  143.6510 C   0  0  2  0  0  3  0  0  0  0  0  0
  193.9880  174.7370  145.9460 C   0  0  0  0  0  2  0  0  0  0  0  0
  193.5150  172.5610  144.7650 C   0  0  0  0  0  0  0  0  0  0  0  0
  192.4430  171.5870  144.2900 C   0  0  0  0  0  1  0  0  0  0  0  0
  194.4810  174.5840  143.4190 C   0  0  2  0  0  3  0  0  0  0  0  0
  185.8470  177.1700  143.5620 O   0  0  0  0  0  0  0  0  0  0  0  0
  185.1330  178.0530  144.3900 C   0  0  0  0  0  1  0  0  0  0  0  0
  1 18  1  0  0  0  0
  1  3  1  1  0  0  0
  4  2  1  6  0  0  0
  4  1  1  0  0  0  0
  4 10  1  0  0  0  0
  5  2  1  0  0  0  0
  5 17  1  0  0  0  0
  6 20  1  0  0  0  0
  7 14  1  0  0  0  0
  7  2  2  0  0  0  0
  8  9  1  0  0  0  0
  9 16  2  0  0  0  0
  9 11  1  0  0  0  0
 10 12  1  6  0  0  0
 10 13  1  0  0  0  0
 11  5  2  0  0  0  0
 14 15  2  0  0  0  0
 15  1  1  0  0  0  0
 16  7  1  0  0  0  0
 17 31  1  6  0  0  0
 17 12  1  0  0  0  0
 18 13  1  1  0  0  0
 18  3  1  0  0  0  0
 19  6  1  0  0  0  0
 19  8  1  0  0  0  0
 20 16  1  0  0  0  0
 24 27  1  0  0  0  0
 25 15  1  6  0  0  0
 25 27  1  0  0  0  0
 26 21  1  6  0  0  0
 26 28  1  0  0  0  0
 28 25  1  0  0  0  0
 28 23  1  0  0  0  0
 29 28  1  0  0  0  0
 30 22  1  6  0  0  0
 30 26  1  0  0  0  0
 30 24  1  0  0  0  0
 31 32  1  0  0  0  0
M  END
>  <MODEL>
2

>  <REMARK>
 VINA RESULT:      -8.4      2.331      5.312
  Name = 
  2 active torsions:
  status: ('A' for Active; 'I' for Inactive)
    1  A    between atoms: O_13  and  C_29
    2  A    between atoms: C_16  and  C_27
                            x       y       z     vdW  Elec       q    Type
                         _______ _______ _______ _____ _____    ______ ____

>  <TORSDO>
F 2

$$$$
=
 OpenBabel11052419043D

 32 38  0  0  1  0  0  0  0  0999 V2000
  189.1230  175.4010  145.9580 C   0  0  2  0  0  0  0  0  0  0  0  0
  187.3640  176.6920  144.6890 C   0  0  0  0  0  0  0  0  0  0  0  0
  189.7130  174.9150  147.2650 C   0  0  0  0  0  2  0  0  0  0  0  0
  187.7420  176.0640  146.0190 C   0  0  2  0  0  3  0  0  0  0  0  0
  186.3570  177.6660  144.6610 C   0  0  0  0  0  0  0  0  0  0  0  0
  187.4400  176.8850  139.7590 C   0  0  0  0  0  2  0  0  0  0  0  0
  187.9020  176.2280  143.4840 C   0  0  0  0  0  0  0  0  0  0  0  0
  185.7370  178.1640  141.0160 C   0  0  0  0  0  2  0  0  0  0  0  0
  186.2690  177.5690  142.2830 C   0  0  0  0  0  0  0  0  0  0  0  0
  187.7820  177.0690  147.1830 C   0  0  2  0  0  3  0  0  0  0  0  0
  185.8520  178.0950  143.4710 N   0  0  0  0  0  0  0  0  0  0  0  0
  187.0060  178.3750  146.9530 C   0  0  0  0  0  2  0  0  0  0  0  0
  189.2500  177.3780  147.4210 C   0  0  0  0  0  2  0  0  0  0  0  0
  189.0120  175.2580  143.4990 C   0  0  0  0  0  3  0  0  0  0  0  0
  189.6280  174.8360  144.6220 C   0  0  0  0  0  0  0  0  0  0  0  0
  187.3410  176.6460  142.2630 C   0  0  0  0  0  0  0  0  0  0  0  0
  185.8410  178.2040  145.9660 C   0  0  1  0  0  3  0  0  0  0  0  0
  190.0800  176.2930  146.7330 C   0  0  2  0  0  3  0  0  0  0  0  0
  185.9690  177.2570  139.8160 C   0  0  0  0  0  2  0  0  0  0  0  0
  187.7570  175.9990  140.9580 C   0  0  0  0  0  2  0  0  0  0  0  0
  190.9320  173.3860  140.5570 C   0  0  0  0  0  1  0  0  0  0  0  0
  192.9540  175.2910  141.3140 O   0  0  0  0  0  1  0  0  0  0  0  0
  191.2850  171.5030  143.4270 C   0  0  0  0  0  1  0  0  0  0  0  0
  192.6820  174.9890  143.6590 C   0  0  0  0  0  2  0  0  0  0  0  0
  190.6130  173.6850  144.3760 C   0  0  2  0  0  3  0  0  0  0  0  0
  191.5210  173.4670  141.9640 C   0  0  2  0  0  3  0  0  0  0  0  0
  192.0450  174.0990  144.7330 C   0  0  0  0  0  2  0  0  0  0  0  0
  190.6300  172.8300  143.0770 C   0  0  0  0  0  0  0  0  0  0  0  0
  189.2160  172.4690  142.6390 C   0  0  0  0  0  1  0  0  0  0  0  0
  192.0230  174.8930  142.2790 C   0  0  2  0  0  3  0  0  0  0  0  0
  185.0550  179.3740  145.8260 O   0  0  0  0  0  0  0  0  0  0  0  0
  183.6910  179.0410  145.7640 C   0  0  0  0  0  1  0  0  0  0  0  0
  1  4  1  0  0  0  0
  1 18  1  0  0  0  0
  1  3  1  1  0  0  0
  4  2  1  6  0  0  0
  4 10  1  0  0  0  0
  5  2  1  0  0  0  0
  5 17  1  0  0  0  0
  6 19  1  0  0  0  0
  6 20  1  0  0  0  0
  7 14  1  0  0  0  0
  7  2  2  0  0  0  0
  8  9  1  0  0  0  0
  9 11  1  0  0  0  0
 10 12  1  6  0  0  0
 10 13  1  0  0  0  0
 11  5  2  0  0  0  0
 14 15  2  0  0  0  0
 15  1  1  0  0  0  0
 16  9  2  0  0  0  0
 16  7  1  0  0  0  0
 17 31  1  6  0  0  0
 17 12  1  0  0  0  0
 18  3  1  1  0  0  0
 18 13  1  0  0  0  0
 19  8  1  0  0  0  0
 20 16  1  0  0  0  0
 24 27  1  0  0  0  0
 25 15  1  6  0  0  0
 25 27  1  0  0  0  0
 26 21  1  6  0  0  0
 26 30  1  0  0  0  0
 26 28  1  0  0  0  0
 28 23  1  0  0  0  0
 28 25  1  0  0  0  0
 29 28  1  0  0  0  0
 30 22  1  6  0  0  0
 30 24  1  0  0  0  0
 32 31  1  0  0  0  0
M  END
>  <MODEL>
3

>  <REMARK>
 VINA RESULT:      -8.1      1.991      4.819
  Name = 
  2 active torsions:
  status: ('A' for Active; 'I' for Inactive)
    1  A    between atoms: O_13  and  C_29
    2  A    between atoms: C_16  and  C_27
                            x       y       z     vdW  Elec       q    Type
                         _______ _______ _______ _____ _____    ______ ____

>  <TORSDO>
F 2

$$$$
=
 OpenBabel11052419043D

 32 38  0  0  1  0  0  0  0  0999 V2000
  189.4950  175.6600  146.0170 C   0  0  2  0  0  0  0  0  0  0  0  0
  187.5420  176.8130  144.9110 C   0  0  0  0  0  0  0  0  0  0  0  0
  190.2020  175.1690  147.2630 C   0  0  0  0  0  2  0  0  0  0  0  0
  188.0540  176.1580  146.1810 C   0  0  2  0  0  3  0  0  0  0  0  0
  186.4330  177.6670  144.9890 C   0  0  0  0  0  0  0  0  0  0  0  0
  187.3430  177.2970  140.0050 C   0  0  0  0  0  2  0  0  0  0  0  0
  188.0650  176.4840  143.6560 C   0  0  0  0  0  0  0  0  0  0  0  0
  185.5760  178.3000  141.4130 C   0  0  0  0  0  2  0  0  0  0  0  0
  186.2340  177.6980  142.6150 C   0  0  0  0  0  0  0  0  0  0  0  0
  188.0420  177.0920  147.4020 C   0  0  2  0  0  3  0  0  0  0  0  0
  185.8230  178.1040  143.8520 N   0  0  0  0  0  0  0  0  0  0  0  0
  187.1160  178.3130  147.2900 C   0  0  0  0  0  2  0  0  0  0  0  0
  189.4780  177.5510  147.5940 C   0  0  0  0  0  2  0  0  0  0  0  0
  189.2740  175.6460  143.5610 C   0  0  0  0  0  3  0  0  0  0  0  0
  189.9900  175.2330  144.6260 C   0  0  0  0  0  0  0  0  0  0  0  0
  187.3990  176.9040  142.4900 C   0  0  0  0  0  0  0  0  0  0  0  0
  185.9280  178.0680  146.3460 C   0  0  1  0  0  3  0  0  0  0  0  0
  190.3860  176.6090  146.8030 C   0  0  2  0  0  3  0  0  0  0  0  0
  185.8440  177.4960  140.1500 C   0  0  0  0  0  2  0  0  0  0  0  0
  187.8160  176.3850  141.1300 C   0  0  0  0  0  2  0  0  0  0  0  0
  189.4190  171.7090  141.8730 C   0  0  0  0  0  1  0  0  0  0  0  0
  190.4340  173.7910  140.1620 O   0  0  0  0  0  1  0  0  0  0  0  0
  192.0320  171.9400  144.1140 C   0  0  0  0  0  1  0  0  0  0  0  0
  191.6170  174.9380  141.8790 C   0  0  0  0  0  2  0  0  0  0  0  0
  191.0820  174.2170  144.2650 C   0  0  2  0  0  3  0  0  0  0  0  0
  190.5540  172.6470  142.2780 C   0  0  2  0  0  3  0  0  0  0  0  0
  192.1210  174.8360  143.3230 C   0  0  0  0  0  2  0  0  0  0  0  0
  190.7840  172.7580  143.8190 C   0  0  0  0  0  0  0  0  0  0  0  0
  189.6910  172.1320  144.6780 C   0  0  0  0  0  1  0  0  0  0  0  0
  190.4510  174.0020  141.5440 C   0  0  2  0  0  3  0  0  0  0  0  0
  185.0120  179.1470  146.3160 O   0  0  0  0  0  0  0  0  0  0  0  0
  183.6920  178.6660  146.2870 C   0  0  0  0  0  1  0  0  0  0  0  0
  1  4  1  0  0  0  0
  1 18  1  0  0  0  0
  1  3  1  1  0  0  0
  2  5  1  0  0  0  0
  4  2  1  6  0  0  0
  4 10  1  0  0  0  0
  5 17  1  0  0  0  0
  6 19  1  0  0  0  0
  6 20  1  0  0  0  0
  7  2  2  0  0  0  0
  8  9  1  0  0  0  0
  9 11  1  0  0  0  0
 10 12  1  6  0  0  0
 10 13  1  0  0  0  0
 11  5  2  0  0  0  0
 14  7  1  0  0  0  0
 14 15  2  0  0  0  0
 15  1  1  0  0  0  0
 16  9  2  0  0  0  0
 16  7  1  0  0  0  0
 17 31  1  6  0  0  0
 17 12  1  0  0  0  0
 18  3  1  1  0  0  0
 18 13  1  0  0  0  0
 19  8  1  0  0  0  0
 20 16  1  0  0  0  0
 24 27  1  0  0  0  0
 25 15  1  6  0  0  0
 26 21  1  1  0  0  0
 26 28  1  0  0  0  0
 27 25  1  0  0  0  0
 28 23  1  0  0  0  0
 28 25  1  0  0  0  0
 28 29  1  0  0  0  0
 30 22  1  6  0  0  0
 30 24  1  0  0  0  0
 30 26  1  0  0  0  0
 32 31  1  0  0  0  0
M  END
>  <MODEL>
4

>  <REMARK>
 VINA RESULT:      -8.1      2.030      5.025
  Name = 
  2 active torsions:
  status: ('A' for Active; 'I' for Inactive)
    1  A    between atoms: O_13  and  C_29
    2  A    between atoms: C_16  and  C_27
                            x       y       z     vdW  Elec       q    Type
                         _______ _______ _______ _____ _____    ______ ____

>  <TORSDO>
F 2

$$$$
=
 OpenBabel11052419043D

 32 38  0  0  1  0  0  0  0  0999 V2000
  189.5490  176.0880  144.9590 C   0  0  2  0  0  0  0  0  0  0  0  0
  187.1570  176.7650  144.5210 C   0  0  0  0  0  0  0  0  0  0  0  0
  190.6250  175.5860  145.8980 C   0  0  0  0  0  2  0  0  0  0  0  0
  188.1020  176.0420  145.4640 C   0  0  2  0  0  3  0  0  0  0  0  0
  185.9040  177.1730  144.9980 C   0  0  0  0  0  0  0  0  0  0  0  0
  185.7330  178.2510  140.0360 C   0  0  0  0  0  2  0  0  0  0  0  0
  187.4540  176.9150  143.1620 C   0  0  0  0  0  0  0  0  0  0  0  0
  184.1230  178.2830  141.9130 C   0  0  0  0  0  2  0  0  0  0  0  0
  185.1750  177.6720  142.7860 C   0  0  0  0  0  0  0  0  0  0  0  0
  188.1100  176.6220  146.8890 C   0  0  2  0  0  3  0  0  0  0  0  0
  184.9580  177.6330  144.1330 N   0  0  0  0  0  0  0  0  0  0  0  0
  186.8840  177.4690  147.2630 C   0  0  0  0  0  2  0  0  0  0  0  0
  189.3700  177.4660  146.9920 C   0  0  0  0  0  2  0  0  0  0  0  0
  188.7930  176.5580  142.6590 C   0  0  0  0  0  3  0  0  0  0  0  0
  189.8160  176.1700  143.4470 C   0  0  0  0  0  0  0  0  0  0  0  0
  186.4540  177.3480  142.2730 C   0  0  0  0  0  0  0  0  0  0  0  0
  185.6280  177.0710  146.4720 C   0  0  1  0  0  3  0  0  0  0  0  0
  190.2990  177.0720  145.8430 C   0  0  2  0  0  3  0  0  0  0  0  0
  184.3100  177.9160  140.4490 C   0  0  0  0  0  2  0  0  0  0  0  0
  186.6800  177.3120  140.7750 C   0  0  0  0  0  2  0  0  0  0  0  0
  193.5030  174.3430  145.2860 C   0  0  0  0  0  1  0  0  0  0  0  0
  191.8390  172.0840  144.6380 O   0  0  0  0  0  1  0  0  0  0  0  0
  193.4370  175.6220  142.0830 C   0  0  0  0  0  1  0  0  0  0  0  0
  190.7030  173.1500  142.8390 C   0  0  0  0  0  2  0  0  0  0  0  0
  191.0340  175.6710  142.6580 C   0  0  2  0  0  3  0  0  0  0  0  0
  192.7240  174.2250  143.9790 C   0  0  2  0  0  3  0  0  0  0  0  0
  190.7120  174.3710  141.9120 C   0  0  0  0  0  2  0  0  0  0  0  0
  192.4670  175.5850  143.2530 C   0  0  0  0  0  0  0  0  0  0  0  0
  192.7960  176.8240  144.0780 C   0  0  0  0  0  1  0  0  0  0  0  0
  191.4680  173.3420  144.1520 C   0  0  2  0  0  3  0  0  0  0  0  0
  184.4690  177.7730  146.8820 O   0  0  0  0  0  0  0  0  0  0  0  0
  184.8170  179.0370  147.3900 C   0  0  0  0  0  1  0  0  0  0  0  0
  1  4  1  0  0  0  0
  1 18  1  0  0  0  0
  1  3  1  1  0  0  0
  2  5  1  0  0  0  0
  4  2  1  6  0  0  0
  4 10  1  0  0  0  0
  5 17  1  0  0  0  0
  6 19  1  0  0  0  0
  6 20  1  0  0  0  0
  7  2  2  0  0  0  0
  8  9  1  0  0  0  0
  9 11  1  0  0  0  0
 10 13  1  6  0  0  0
 10 12  1  0  0  0  0
 11  5  2  0  0  0  0
 14  7  1  0  0  0  0
 14 15  2  0  0  0  0
 15  1  1  0  0  0  0
 16  9  2  0  0  0  0
 16  7  1  0  0  0  0
 17 31  1  1  0  0  0
 17 12  1  0  0  0  0
 18  3  1  1  0  0  0
 18 13  1  0  0  0  0
 19  8  1  0  0  0  0
 20 16  1  0  0  0  0
 23 28  1  0  0  0  0
 24 30  1  0  0  0  0
 25 28  1  0  0  0  0
 25 15  1  1  0  0  0
 26 30  1  0  0  0  0
 26 21  1  1  0  0  0
 27 25  1  0  0  0  0
 27 24  1  0  0  0  0
 28 26  1  0  0  0  0
 28 29  1  0  0  0  0
 30 22  1  6  0  0  0
 31 32  1  0  0  0  0
M  END
>  <MODEL>
5

>  <REMARK>
 VINA RESULT:      -8.1      1.969      4.524
  Name = 
  2 active torsions:
  status: ('A' for Active; 'I' for Inactive)
    1  A    between atoms: O_13  and  C_29
    2  A    between atoms: C_16  and  C_27
                            x       y       z     vdW  Elec       q    Type
                         _______ _______ _______ _____ _____    ______ ____

>  <TORSDO>
F 2

$$$$
=
 OpenBabel11052419043D

 32 38  0  0  1  0  0  0  0  0999 V2000
  190.7560  175.5730  145.1450 C   0  0  2  0  0  0  0  0  0  0  0  0
  189.2310  175.1820  143.1720 C   0  0  0  0  0  0  0  0  0  0  0  0
  191.0030  176.1390  146.5270 C   0  0  0  0  0  2  0  0  0  0  0  0
  189.3100  175.5740  144.6370 C   0  0  2  0  0  3  0  0  0  0  0  0
  188.0810  175.5110  142.4430 C   0  0  0  0  0  0  0  0  0  0  0  0
  190.8130  172.7000  139.2110 C   0  0  0  0  0  2  0  0  0  0  0  0
  190.2180  174.3920  142.5730 C   0  0  0  0  0  0  0  0  0  0  0  0
  188.5430  173.6820  139.2240 C   0  0  0  0  0  2  0  0  0  0  0  0
  188.7750  174.1240  140.6360 C   0  0  0  0  0  0  0  0  0  0  0  0
  188.7340  176.9690  144.9310 C   0  0  2  0  0  3  0  0  0  0  0  0
  187.8890  174.9980  141.1960 N   0  0  0  0  0  0  0  0  0  0  0  0
  187.7790  177.5270  143.8650 C   0  0  0  0  0  2  0  0  0  0  0  0
  189.9310  177.8930  145.0830 C   0  0  0  0  0  2  0  0  0  0  0  0
  191.4660  174.0980  143.3010 C   0  0  0  0  0  3  0  0  0  0  0  0
  191.7790  174.6230  144.5030 C   0  0  0  0  0  0  0  0  0  0  0  0
  189.9880  173.8320  141.3030 C   0  0  0  0  0  0  0  0  0  0  0  0
  187.0640  176.4190  143.0750 C   0  0  1  0  0  3  0  0  0  0  0  0
  191.1730  177.0270  145.3020 C   0  0  2  0  0  3  0  0  0  0  0  0
  189.3550  172.4460  138.8700 C   0  0  0  0  0  2  0  0  0  0  0  0
  190.9390  172.8030  140.7260 C   0  0  0  0  0  2  0  0  0  0  0  0
  194.7080  171.9900  142.3080 C   0  0  0  0  0  1  0  0  0  0  0  0
  195.8150  174.6380  142.0690 O   0  0  0  0  0  1  0  0  0  0  0  0
  194.5090  172.1190  145.7500 C   0  0  0  0  0  1  0  0  0  0  0  0
  194.8410  175.4720  144.0740 C   0  0  0  0  0  2  0  0  0  0  0  0
  193.0390  174.0060  145.1240 C   0  0  2  0  0  3  0  0  0  0  0  0
  194.7410  172.9910  143.4610 C   0  0  2  0  0  3  0  0  0  0  0  0
  194.1150  175.0720  145.3640 C   0  0  0  0  0  2  0  0  0  0  0  0
  193.7080  172.7050  144.5980 C   0  0  0  0  0  0  0  0  0  0  0  0
  192.6650  171.6460  144.2640 C   0  0  0  0  0  1  0  0  0  0  0  0
  194.7390  174.4460  142.9410 C   0  0  2  0  0  3  0  0  0  0  0  0
  186.1040  176.9200  142.1630 O   0  0  0  0  0  0  0  0  0  0  0  0
  186.2790  178.3020  141.9790 C   0  0  0  0  0  1  0  0  0  0  0  0
  1 18  1  0  0  0  0
  1  3  1  1  0  0  0
  4  2  1  6  0  0  0
  4 10  1  0  0  0  0
  4  1  1  0  0  0  0
  5 17  1  0  0  0  0
  5  2  2  0  0  0  0
  6 20  1  0  0  0  0
  7  2  1  0  0  0  0
  7 14  1  0  0  0  0
  8  9  1  0  0  0  0
  9 11  2  0  0  0  0
  9 16  1  0  0  0  0
 10 12  1  6  0  0  0
 10 13  1  0  0  0  0
 11  5  1  0  0  0  0
 14 15  2  0  0  0  0
 15  1  1  0  0  0  0
 16  7  2  0  0  0  0
 17 31  1  6  0  0  0
 17 12  1  0  0  0  0
 18 13  1  1  0  0  0
 18  3  1  0  0  0  0
 19  6  1  0  0  0  0
 19  8  1  0  0  0  0
 20 16  1  0  0  0  0
 24 27  1  0  0  0  0
 25 15  1  6  0  0  0
 25 27  1  0  0  0  0
 26 21  1  6  0  0  0
 26 28  1  0  0  0  0
 28 25  1  0  0  0  0
 28 23  1  0  0  0  0
 29 28  1  0  0  0  0
 30 22  1  6  0  0  0
 30 26  1  0  0  0  0
 30 24  1  0  0  0  0
 32 31  1  0  0  0  0
M  END
>  <MODEL>
6

>  <REMARK>
 VINA RESULT:      -8.0      2.513      5.512
  Name = 
  2 active torsions:
  status: ('A' for Active; 'I' for Inactive)
    1  A    between atoms: O_13  and  C_29
    2  A    between atoms: C_16  and  C_27
                            x       y       z     vdW  Elec       q    Type
                         _______ _______ _______ _____ _____    ______ ____

>  <TORSDO>
F 2

$$$$
=
 OpenBabel11052419043D

 32 38  0  0  1  0  0  0  0  0999 V2000
  189.8290  173.9150  142.0620 C   0  0  2  0  0  0  0  0  0  0  0  0
  188.2340  175.8110  141.5830 C   0  0  0  0  0  0  0  0  0  0  0  0
  190.7750  172.8350  141.5790 C   0  0  0  0  0  2  0  0  0  0  0  0
  189.3300  174.9230  141.0210 C   0  0  2  0  0  3  0  0  0  0  0  0
  187.3940  176.4960  140.6950 C   0  0  0  0  0  0  0  0  0  0  0  0
  186.0280  178.2450  145.2650 C   0  0  0  0  0  2  0  0  0  0  0  0
  188.1290  176.0620  142.9560 C   0  0  0  0  0  0  0  0  0  0  0  0
  185.4780  178.8000  142.9190 C   0  0  0  0  0  2  0  0  0  0  0  0
  186.5090  177.8090  142.4750 C   0  0  0  0  0  0  0  0  0  0  0  0
  188.8910  174.1130  139.7890 C   0  0  2  0  0  3  0  0  0  0  0  0
  186.5440  177.4550  141.1570 N   0  0  0  0  0  0  0  0  0  0  0  0
  187.6540  174.6470  139.0540 C   0  0  0  0  0  2  0  0  0  0  0  0
  188.6240  172.7030  140.2890 C   0  0  0  0  0  2  0  0  0  0  0  0
  188.9550  175.2970  143.9070 C   0  0  0  0  0  3  0  0  0  0  0  0
  189.7650  174.2790  143.5530 C   0  0  0  0  0  0  0  0  0  0  0  0
  187.2800  177.0850  143.4150 C   0  0  0  0  0  0  0  0  0  0  0  0
  187.4700  176.1630  139.2320 C   0  0  1  0  0  3  0  0  0  0  0  0
  189.2810  172.5540  141.6620 C   0  0  2  0  0  3  0  0  0  0  0  0
  185.7970  179.3830  144.2860 C   0  0  0  0  0  2  0  0  0  0  0  0
  187.3080  177.5220  144.8650 C   0  0  0  0  0  2  0  0  0  0  0  0
  192.7780  176.8130  145.7490 C   0  0  0  0  0  1  0  0  0  0  0  0
  190.3890  177.0070  147.3440 O   0  0  0  0  0  1  0  0  0  0  0  0
  192.8280  173.3640  145.8030 C   0  0  0  0  0  1  0  0  0  0  0  0
  189.5070  174.8960  146.6890 C   0  0  0  0  0  2  0  0  0  0  0  0
  190.6550  173.7850  144.7020 C   0  0  2  0  0  3  0  0  0  0  0  0
  191.8770  175.6190  146.0560 C   0  0  2  0  0  3  0  0  0  0  0  0
  189.8370  173.5760  145.9820 C   0  0  0  0  0  2  0  0  0  0  0  0
  192.0260  174.4230  145.0620 C   0  0  0  0  0  0  0  0  0  0  0  0
  192.8370  174.7270  143.8090 C   0  0  0  0  0  1  0  0  0  0  0  0
  190.4210  176.0670  146.3100 C   0  0  2  0  0  3  0  0  0  0  0  0
  186.3940  176.6840  138.4730 O   0  0  0  0  0  0  0  0  0  0  0  0
  186.3850  176.1190  137.1860 C   0  0  0  0  0  1  0  0  0  0  0  0
  1  3  1  6  0  0  0
  1 15  1  0  0  0  0
  2  7  1  0  0  0  0
  3 18  1  0  0  0  0
  4  2  1  1  0  0  0
  4  1  1  0  0  0  0
  5 11  1  0  0  0  0
  5  2  2  0  0  0  0
  7 16  2  0  0  0  0
  7 14  1  0  0  0  0
  8 19  1  0  0  0  0
  9  8  1  0  0  0  0
  9 16  1  0  0  0  0
 10 12  1  1  0  0  0
 10 13  1  0  0  0  0
 10  4  1  0  0  0  0
 11  9  2  0  0  0  0
 12 17  1  0  0  0  0
 15 14  2  0  0  0  0
 16 20  1  0  0  0  0
 17 31  1  6  0  0  0
 17  5  1  0  0  0  0
 18 13  1  6  0  0  0
 18  1  1  0  0  0  0
 19  6  1  0  0  0  0
 20  6  1  0  0  0  0
 25 15  1  6  0  0  0
 25 28  1  0  0  0  0
 25 27  1  0  0  0  0
 26 21  1  6  0  0  0
 26 30  1  0  0  0  0
 27 24  1  0  0  0  0
 28 23  1  0  0  0  0
 28 26  1  0  0  0  0
 29 28  1  0  0  0  0
 30 24  1  0  0  0  0
 30 22  1  1  0  0  0
 32 31  1  0  0  0  0
M  END
>  <MODEL>
7

>  <REMARK>
 VINA RESULT:      -7.8      1.460      2.161
  Name = 
  2 active torsions:
  status: ('A' for Active; 'I' for Inactive)
    1  A    between atoms: O_13  and  C_29
    2  A    between atoms: C_16  and  C_27
                            x       y       z     vdW  Elec       q    Type
                         _______ _______ _______ _____ _____    ______ ____

>  <TORSDO>
F 2

$$$$
=
 OpenBabel11052419043D

 32 38  0  0  1  0  0  0  0  0999 V2000
  192.1780  174.2180  145.0250 C   0  0  2  0  0  0  0  0  0  0  0  0
  190.5240  175.7990  146.0890 C   0  0  0  0  0  0  0  0  0  0  0  0
  193.4780  173.4440  145.0720 C   0  0  0  0  0  2  0  0  0  0  0  0
  191.7160  174.8880  146.3230 C   0  0  2  0  0  3  0  0  0  0  0  0
  190.2250  176.7820  147.0410 C   0  0  0  0  0  0  0  0  0  0  0  0
  186.3660  177.0550  143.7480 C   0  0  0  0  0  2  0  0  0  0  0  0
  189.6470  175.5940  145.0180 C   0  0  0  0  0  0  0  0  0  0  0  0
  186.9040  178.0760  145.9360 C   0  0  0  0  0  2  0  0  0  0  0  0
  188.1210  177.2070  146.0070 C   0  0  0  0  0  0  0  0  0  0  0  0
  192.9380  175.6160  146.9080 C   0  0  2  0  0  3  0  0  0  0  0  0
  189.0530  177.4730  146.9690 N   0  0  0  0  0  0  0  0  0  0  0  0
  192.6420  176.9600  147.5890 C   0  0  0  0  0  2  0  0  0  0  0  0
  193.8960  175.8260  145.7480 C   0  0  0  0  0  2  0  0  0  0  0  0
  189.9850  174.6140  143.9700 C   0  0  0  0  0  3  0  0  0  0  0  0
  191.1520  173.9430  143.9130 C   0  0  0  0  0  0  0  0  0  0  0  0
  188.4200  176.2810  144.9790 C   0  0  0  0  0  0  0  0  0  0  0  0
  191.2120  177.0380  148.1450 C   0  0  1  0  0  3  0  0  0  0  0  0
  193.4750  174.8950  144.6110 C   0  0  2  0  0  3  0  0  0  0  0  0
  185.7990  177.4460  145.1020 C   0  0  0  0  0  2  0  0  0  0  0  0
  187.3630  175.9220  143.9550 C   0  0  0  0  0  2  0  0  0  0  0  0
  187.5470  172.5590  141.5870 C   0  0  0  0  0  1  0  0  0  0  0  0
  188.7440  174.5730  139.9130 O   0  0  0  0  0  1  0  0  0  0  0  0
  190.4440  170.7030  141.8440 C   0  0  0  0  0  1  0  0  0  0  0  0
  190.9570  174.2600  140.7290 C   0  0  0  0  0  2  0  0  0  0  0  0
  191.1700  172.8460  142.8400 C   0  0  2  0  0  3  0  0  0  0  0  0
  189.0530  172.6750  141.3620 C   0  0  2  0  0  3  0  0  0  0  0  0
  191.8570  173.3390  141.5600 C   0  0  0  0  0  2  0  0  0  0  0  0
  189.9270  171.9920  142.4630 C   0  0  0  0  0  0  0  0  0  0  0  0
  189.1640  171.5540  143.7070 C   0  0  0  0  0  1  0  0  0  0  0  0
  189.4600  174.1270  141.0270 C   0  0  2  0  0  3  0  0  0  0  0  0
  190.9610  178.2310  148.8670 O   0  0  0  0  0  0  0  0  0  0  0  0
  191.5020  178.1410  150.1610 C   0  0  0  0  0  1  0  0  0  0  0  0
  1  3  1  1  0  0  0
  1  4  1  0  0  0  0
  2  5  1  0  0  0  0
  4  2  1  6  0  0  0
  4 10  1  0  0  0  0
  5 17  1  0  0  0  0
  6 20  1  0  0  0  0
  6 19  1  0  0  0  0
  7  2  2  0  0  0  0
  8  9  1  0  0  0  0
  9 11  1  0  0  0  0
 10 13  1  6  0  0  0
 10 12  1  0  0  0  0
 11  5  2  0  0  0  0
 12 17  1  0  0  0  0
 14  7  1  0  0  0  0
 15 14  2  0  0  0  0
 15  1  1  0  0  0  0
 16  7  1  0  0  0  0
 16  9  2  0  0  0  0
 17 31  1  6  0  0  0
 18  1  1  0  0  0  0
 18  3  1  1  0  0  0
 18 13  1  0  0  0  0
 19  8  1  0  0  0  0
 20 16  1  0  0  0  0
 23 28  1  0  0  0  0
 24 30  1  0  0  0  0
 24 27  1  0  0  0  0
 25 15  1  1  0  0  0
 26 21  1  1  0  0  0
 26 28  1  0  0  0  0
 27 25  1  0  0  0  0
 28 25  1  0  0  0  0
 28 29  1  0  0  0  0
 30 22  1  6  0  0  0
 30 26  1  0  0  0  0
 31 32  1  0  0  0  0
M  END
>  <MODEL>
8

>  <REMARK>
 VINA RESULT:      -7.7      2.143      5.975
  Name = 
  2 active torsions:
  status: ('A' for Active; 'I' for Inactive)
    1  A    between atoms: O_13  and  C_29
    2  A    between atoms: C_16  and  C_27
                            x       y       z     vdW  Elec       q    Type
                         _______ _______ _______ _____ _____    ______ ____

>  <TORSDO>
F 2

$$$$
=
 OpenBabel11052419043D

 32 38  0  0  1  0  0  0  0  0999 V2000
  187.5890  176.4910  142.9960 C   0  0  2  0  0  0  0  0  0  0  0  0
  188.2090  175.1610  140.9430 C   0  0  0  0  0  0  0  0  0  0  0  0
  186.6720  177.4610  143.7100 C   0  0  0  0  0  2  0  0  0  0  0  0
  187.1150  175.9460  141.6440 C   0  0  2  0  0  3  0  0  0  0  0  0
  188.1070  174.9400  139.5630 C   0  0  0  0  0  0  0  0  0  0  0  0
  192.1770  172.2280  140.9370 C   0  0  0  0  0  2  0  0  0  0  0  0
  189.2400  174.5450  141.6600 C   0  0  0  0  0  0  0  0  0  0  0  0
  190.8440  172.5000  138.8720 C   0  0  0  0  0  2  0  0  0  0  0  0
  189.8880  173.3600  139.6390 C   0  0  0  0  0  0  0  0  0  0  0  0
  186.6070  177.1500  140.8320 C   0  0  2  0  0  3  0  0  0  0  0  0
  188.9530  174.0710  138.9440 N   0  0  0  0  0  0  0  0  0  0  0  0
  186.9040  177.1020  139.3260 C   0  0  0  0  0  2  0  0  0  0  0  0
  187.2620  178.3760  141.4470 C   0  0  0  0  0  2  0  0  0  0  0  0
  189.4040  174.8240  143.0990 C   0  0  0  0  0  3  0  0  0  0  0  0
  188.6680  175.7260  143.7800 C   0  0  0  0  0  0  0  0  0  0  0  0
  190.0790  173.6150  141.0180 C   0  0  0  0  0  0  0  0  0  0  0  0
  187.0380  175.6650  138.7960 C   0  0  1  0  0  3  0  0  0  0  0  0
  187.7940  177.9880  142.8270 C   0  0  2  0  0  3  0  0  0  0  0  0
  191.5510  171.4920  139.7660 C   0  0  0  0  0  2  0  0  0  0  0  0
  191.0570  172.7760  141.8130 C   0  0  0  0  0  2  0  0  0  0  0  0
  192.3870  174.1190  145.7570 C   0  0  0  0  0  1  0  0  0  0  0  0
  192.8790  176.9450  145.5060 O   0  0  0  0  0  1  0  0  0  0  0  0
  189.4000  174.5410  147.4310 C   0  0  0  0  0  1  0  0  0  0  0  0
  190.5860  177.5800  145.5570 C   0  0  0  0  0  2  0  0  0  0  0  0
  188.9050  175.6820  145.2950 C   0  0  2  0  0  3  0  0  0  0  0  0
  191.3300  175.1830  146.0470 C   0  0  2  0  0  3  0  0  0  0  0  0
  189.1660  177.0860  145.8530 C   0  0  0  0  0  2  0  0  0  0  0  0
  189.8570  174.6650  145.9860 C   0  0  0  0  0  0  0  0  0  0  0  0
  189.6910  173.2690  145.3990 C   0  0  0  0  0  1  0  0  0  0  0  0
  191.5930  176.4700  145.2350 C   0  0  2  0  0  3  0  0  0  0  0  0
  187.2060  175.6060  137.3910 O   0  0  0  0  0  0  0  0  0  0  0  0
  186.0380  176.0410  136.7410 C   0  0  0  0  0  1  0  0  0  0  0  0
  1  3  1  1  0  0  0
  1 15  1  0  0  0  0
  2  7  1  0  0  0  0
  4  2  1  6  0  0  0
  4  1  1  0  0  0  0
  5  2  2  0  0  0  0
  6 20  1  0  0  0  0
  7 14  1  0  0  0  0
  8  9  1  0  0  0  0
  8 19  1  0  0  0  0
  9 16  1  0  0  0  0
 10 12  1  6  0  0  0
 10 13  1  0  0  0  0
 10  4  1  0  0  0  0
 11  5  1  0  0  0  0
 11  9  2  0  0  0  0
 14 15  2  0  0  0  0
 16  7  2  0  0  0  0
 16 20  1  0  0  0  0
 17 31  1  6  0  0  0
 17 12  1  0  0  0  0
 17  5  1  0  0  0  0
 18 13  1  6  0  0  0
 18  1  1  0  0  0  0
 18  3  1  0  0  0  0
 19  6  1  0  0  0  0
 24 27  1  0  0  0  0
 25 15  1  6  0  0  0
 25 27  1  0  0  0  0
 25 28  1  0  0  0  0
 26 21  1  6  0  0  0
 28 26  1  0  0  0  0
 28 23  1  0  0  0  0
 29 28  1  0  0  0  0
 30 22  1  1  0  0  0
 30 24  1  0  0  0  0
 30 26  1  0  0  0  0
 32 31  1  0  0  0  0
M  END
>  <MODEL>
9

>  <REMARK>
 VINA RESULT:      -7.7      2.412      5.312
  Name = 
  2 active torsions:
  status: ('A' for Active; 'I' for Inactive)
    1  A    between atoms: O_13  and  C_29
    2  A    between atoms: C_16  and  C_27
                            x       y       z     vdW  Elec       q    Type
                         _______ _______ _______ _____ _____    ______ ____

>  <TORSDO>
F 2

$$$$
