=
 OpenBabel11052417113D

 30 33  0  0  1  0  0  0  0  0999 V2000
  188.8000  177.3420  143.1450 C   0  0  1  0  0  0  0  0  0  0  0  0
  190.0860  175.1590  142.9260 C   0  0  0  0  0  0  0  0  0  0  0  0
  189.4750  178.0260  144.3410 C   0  0  2  0  0  3  0  0  0  0  0  0
  191.6190  175.3020  145.9830 C   0  0  0  0  0  3  0  0  0  0  0  0
  192.6310  172.5130  142.3610 C   0  0  0  0  0  1  0  0  0  0  0  0
  191.0210  176.0930  144.9850 C   0  0  0  0  0  0  0  0  0  0  0  0
  189.8620  177.3290  146.7240 C   0  0  0  0  0  3  0  0  0  0  0  0
  190.0890  177.0870  145.3620 C   0  0  0  0  0  0  0  0  0  0  0  0
  191.2900  175.8400  143.5160 C   0  0  1  0  0  3  0  0  0  0  0  0
  191.8560  173.7350  142.7270 C   0  0  0  0  0  0  0  0  0  0  0  0
  191.3490  175.5280  147.3320 C   0  0  0  0  0  3  0  0  0  0  0  0
  188.9950  178.1440  141.8690 C   0  0  0  0  0  1  0  0  0  0  0  0
  190.4760  176.5490  147.7030 C   0  0  0  0  0  3  0  0  0  0  0  0
  188.6980  175.7940  143.0240 C   0  0  2  0  0  3  0  0  0  0  0  0
  190.4230  173.9180  142.5410 C   0  0  0  0  0  0  0  0  0  0  0  0
  193.8160  175.0500  143.5440 C   0  0  0  0  0  1  0  0  0  0  0  0
  187.9320  178.0470  144.1910 C   0  0  2  0  0  3  0  0  0  0  0  0
  192.3680  174.8320  143.2580 C   0  0  0  0  0  0  0  0  0  0  0  0
  187.0450  174.2030  142.2670 F   0  0  0  0  0  0  0  0  0  0  0  0
  188.3260  175.1840  140.7120 F   0  0  0  0  0  0  0  0  0  0  0  0
  186.7470  176.3930  141.7460 O   0  0  0  0  0  1  0  0  0  0  0  0
  187.6870  175.3800  141.9250 C   0  0  0  0  0  0  0  0  0  0  0  0
  189.1350  171.9110  143.1930 C   0  0  0  0  0  1  0  0  0  0  0  0
  189.5140  172.8390  142.0540 C   0  0  0  0  0  2  0  0  0  0  0  0
  186.1250  176.4880  144.6300 O   0  0  0  0  0  1  0  0  0  0  0  0
  187.1860  177.1730  145.2240 C   0  0  2  0  0  3  0  0  0  0  0  0
  186.6430  178.0100  146.3890 C   0  0  1  0  0  3  0  0  0  0  0  0
  185.6680  179.0760  145.9200 C   0  0  0  0  0  1  0  0  0  0  0  0
  186.0150  177.1580  147.4510 C   0  0  0  0  0  3  0  0  0  0  0  0
  186.6210  176.2070  147.9200 O   0  0  0  0  0  0  0  0  0  0  0  0
  1 12  1  6  0  0  0
  1 17  1  0  0  0  0
  1  3  1  0  0  0  0
  2 14  1  0  0  0  0
  3  8  1  1  0  0  0
  4 11  1  0  0  0  0
  5 10  1  0  0  0  0
  6  8  1  0  0  0  0
  6  4  2  0  0  0  0
  7 13  1  0  0  0  0
  8  7  2  0  0  0  0
  9  2  1  1  0  0  0
  9  6  1  0  0  0  0
 10 18  2  0  0  0  0
 11 13  2  0  0  0  0
 14 22  1  6  0  0  0
 14  1  1  0  0  0  0
 15 10  1  0  0  0  0
 15  2  2  0  0  0  0
 17  3  1  0  0  0  0
 17 26  1  1  0  0  0
 18  9  1  0  0  0  0
 18 16  1  0  0  0  0
 20 22  1  0  0  0  0
 21 22  1  0  0  0  0
 22 19  1  0  0  0  0
 24 15  1  0  0  0  0
 24 23  1  0  0  0  0
 26 25  1  6  0  0  0
 26 27  1  0  0  0  0
 27 28  1  6  0  0  0
 27 29  1  0  0  0  0
 29 30  2  0  0  0  0
M  END
>  <MODEL>
1

>  <REMARK>
 VINA RESULT:      -7.2      0.000      0.000
  Name = 
  5 active torsions:
  status: ('A' for Active; 'I' for Inactive)
    1  A    between atoms: C_2  and  C_14
    2  A    between atoms: C_2  and  C_22
    3  A    between atoms: C_11  and  C_25
    4  A    between atoms: C_22  and  C_29
    5  A    between atoms: C_23  and  C_26
                            x       y       z     vdW  Elec       q    Type
                         _______ _______ _______ _____ _____    ______ ____

>  <TORSDO>
F 5

$$$$
=
 OpenBabel11052417113D

 30 33  0  0  1  0  0  0  0  0999 V2000
  190.1490  174.5930  144.9210 C   0  0  1  0  0  0  0  0  0  0  0  0
  188.5530  176.5610  144.7030 C   0  0  0  0  0  0  0  0  0  0  0  0
  190.5020  174.5950  146.4140 C   0  0  2  0  0  3  0  0  0  0  0  0
  189.2510  177.9690  147.7430 C   0  0  0  0  0  3  0  0  0  0  0  0
  185.6800  178.9110  144.8650 C   0  0  0  0  0  1  0  0  0  0  0  0
  189.2810  176.7560  147.0300 C   0  0  0  0  0  0  0  0  0  0  0  0
  191.4900  176.3270  147.9430 C   0  0  0  0  0  3  0  0  0  0  0  0
  190.4410  175.9500  147.0920 C   0  0  0  0  0  0  0  0  0  0  0  0
  188.1340  176.3460  146.1310 C   0  0  1  0  0  3  0  0  0  0  0  0
  186.7630  177.9130  145.1130 C   0  0  0  0  0  0  0  0  0  0  0  0
  190.3220  178.3490  148.5510 C   0  0  0  0  0  3  0  0  0  0  0  0
  189.4050  173.3260  144.5320 C   0  0  0  0  0  1  0  0  0  0  0  0
  191.4380  177.5230  148.6580 C   0  0  0  0  0  3  0  0  0  0  0  0
  189.8150  175.9020  144.1460 C   0  0  2  0  0  3  0  0  0  0  0  0
  187.7890  177.5210  144.1580 C   0  0  0  0  0  0  0  0  0  0  0  0
  186.0400  177.3150  147.4290 C   0  0  0  0  0  1  0  0  0  0  0  0
  191.6000  174.3520  145.3460 C   0  0  2  0  0  3  0  0  0  0  0  0
  186.9300  177.2320  146.2330 C   0  0  0  0  0  0  0  0  0  0  0  0
  190.1310  176.8450  141.9450 F   0  0  0  0  0  0  0  0  0  0  0  0
  188.6090  175.2150  142.1640 F   0  0  0  0  0  0  0  0  0  0  0  0
  190.7860  174.6980  142.2990 O   0  0  0  0  0  1  0  0  0  0  0  0
  189.8370  175.6700  142.6140 C   0  0  0  0  0  0  0  0  0  0  0  0
  186.8140  177.7830  141.9010 C   0  0  0  0  0  1  0  0  0  0  0  0
  187.9570  178.1670  142.8220 C   0  0  0  0  0  2  0  0  0  0  0  0
  192.9240  175.7360  143.8570 O   0  0  0  0  0  1  0  0  0  0  0  0
  192.6030  175.5170  145.1970 C   0  0  2  0  0  3  0  0  0  0  0  0
  193.8970  175.2550  145.9780 C   0  0  1  0  0  3  0  0  0  0  0  0
  194.5700  173.9620  145.5500 C   0  0  0  0  0  1  0  0  0  0  0  0
  194.8590  176.4010  145.8790 C   0  0  0  0  0  3  0  0  0  0  0  0
  194.5570  177.5010  146.3150 O   0  0  0  0  0  0  0  0  0  0  0  0
  1 12  1  6  0  0  0
  1 17  1  0  0  0  0
  1  3  1  0  0  0  0
  3  8  1  6  0  0  0
  4 11  1  0  0  0  0
  5 10  1  0  0  0  0
  6  8  1  0  0  0  0
  6  4  2  0  0  0  0
  7 13  1  0  0  0  0
  8  7  2  0  0  0  0
  9  2  1  6  0  0  0
  9 18  1  0  0  0  0
  9  6  1  0  0  0  0
 10 18  2  0  0  0  0
 11 13  2  0  0  0  0
 14 22  1  6  0  0  0
 14  2  1  0  0  0  0
 14  1  1  0  0  0  0
 15  2  2  0  0  0  0
 15 10  1  0  0  0  0
 17 26  1  6  0  0  0
 17  3  1  0  0  0  0
 18 16  1  0  0  0  0
 19 22  1  0  0  0  0
 20 22  1  0  0  0  0
 21 22  1  0  0  0  0
 23 24  1  0  0  0  0
 24 15  1  0  0  0  0
 26 25  1  6  0  0  0
 26 27  1  0  0  0  0
 27 28  1  6  0  0  0
 29 27  1  0  0  0  0
 29 30  2  0  0  0  0
M  END
>  <MODEL>
2

>  <REMARK>
 VINA RESULT:      -7.1      2.572      5.669
  Name = 
  5 active torsions:
  status: ('A' for Active; 'I' for Inactive)
    1  A    between atoms: C_2  and  C_14
    2  A    between atoms: C_2  and  C_22
    3  A    between atoms: C_11  and  C_25
    4  A    between atoms: C_22  and  C_29
    5  A    between atoms: C_23  and  C_26
                            x       y       z     vdW  Elec       q    Type
                         _______ _______ _______ _____ _____    ______ ____

>  <TORSDO>
F 5

$$$$
=
 OpenBabel11052417113D

 30 33  0  0  1  0  0  0  0  0999 V2000
  191.0880  176.6460  144.0960 C   0  0  1  0  0  0  0  0  0  0  0  0
  188.6130  176.7380  144.6720 C   0  0  0  0  0  0  0  0  0  0  0  0
  191.0970  176.0190  142.6960 C   0  0  2  0  0  3  0  0  0  0  0  0
  187.5560  174.6340  142.1880 C   0  0  0  0  0  3  0  0  0  0  0  0
  184.9790  177.4830  144.8640 C   0  0  0  0  0  1  0  0  0  0  0  0
  188.5940  175.5090  142.5570 C   0  0  0  0  0  0  0  0  0  0  0  0
  190.1980  173.8610  141.7750 C   0  0  0  0  0  3  0  0  0  0  0  0
  189.9360  175.0910  142.3950 C   0  0  0  0  0  0  0  0  0  0  0  0
  188.3020  176.8460  143.2050 C   0  0  1  0  0  3  0  0  0  0  0  0
  186.3880  177.1960  144.4660 C   0  0  0  0  0  0  0  0  0  0  0  0
  187.8350  173.3950  141.6120 C   0  0  0  0  0  3  0  0  0  0  0  0
  191.6270  178.0660  144.0670 C   0  0  0  0  0  1  0  0  0  0  0  0
  189.1580  173.0130  141.3970 C   0  0  0  0  0  3  0  0  0  0  0  0
  189.9970  176.3010  145.1520 C   0  0  2  0  0  3  0  0  0  0  0  0
  187.4780  176.8740  145.3760 C   0  0  0  0  0  0  0  0  0  0  0  0
  186.0450  177.5540  142.0170 C   0  0  0  0  0  1  0  0  0  0  0  0
  192.1360  175.5810  143.7600 C   0  0  2  0  0  3  0  0  0  0  0  0
  186.8480  177.2090  143.2270 C   0  0  0  0  0  0  0  0  0  0  0  0
  189.8690  178.0350  146.8290 F   0  0  0  0  0  0  0  0  0  0  0  0
  191.7850  176.8830  146.6750 F   0  0  0  0  0  0  0  0  0  0  0  0
  189.9710  175.8740  147.5230 O   0  0  0  0  0  1  0  0  0  0  0  0
  190.4080  176.7890  146.5650 C   0  0  0  0  0  0  0  0  0  0  0  0
  186.8410  177.9720  147.4990 C   0  0  0  0  0  1  0  0  0  0  0  0
  187.2890  176.6780  146.8440 C   0  0  0  0  0  2  0  0  0  0  0  0
  192.1960  174.0850  145.6690 O   0  0  0  0  0  1  0  0  0  0  0  0
  191.9170  174.1520  144.3040 C   0  0  2  0  0  3  0  0  0  0  0  0
  192.7910  173.1260  143.5700 C   0  0  1  0  0  3  0  0  0  0  0  0
  194.0590  173.7510  143.0140 C   0  0  0  0  0  1  0  0  0  0  0  0
  193.1250  171.9470  144.4350 C   0  0  0  0  0  3  0  0  0  0  0  0
  192.5360  170.8880  144.2910 O   0  0  0  0  0  0  0  0  0  0  0  0
  1 12  1  1  0  0  0
  1 14  1  0  0  0  0
  2 14  1  0  0  0  0
  2 15  2  0  0  0  0
  3  8  1  1  0  0  0
  3 17  1  0  0  0  0
  3  1  1  0  0  0  0
  4  6  1  0  0  0  0
  7  8  1  0  0  0  0
  8  6  2  0  0  0  0
  9  6  1  6  0  0  0
  9 18  1  0  0  0  0
  9  2  1  0  0  0  0
 10  5  1  0  0  0  0
 10 15  1  0  0  0  0
 11  4  2  0  0  0  0
 13 11  1  0  0  0  0
 13  7  2  0  0  0  0
 14 22  1  1  0  0  0
 15 24  1  0  0  0  0
 16 18  1  0  0  0  0
 17  1  1  0  0  0  0
 17 26  1  1  0  0  0
 18 10  2  0  0  0  0
 22 20  1  0  0  0  0
 22 19  1  0  0  0  0
 22 21  1  0  0  0  0
 24 23  1  0  0  0  0
 26 25  1  1  0  0  0
 27 28  1  1  0  0  0
 27 26  1  0  0  0  0
 27 29  1  0  0  0  0
 30 29  2  0  0  0  0
M  END
>  <MODEL>
3

>  <REMARK>
 VINA RESULT:      -6.8      2.956      6.391
  Name = 
  5 active torsions:
  status: ('A' for Active; 'I' for Inactive)
    1  A    between atoms: C_2  and  C_14
    2  A    between atoms: C_2  and  C_22
    3  A    between atoms: C_11  and  C_25
    4  A    between atoms: C_22  and  C_29
    5  A    between atoms: C_23  and  C_26
                            x       y       z     vdW  Elec       q    Type
                         _______ _______ _______ _____ _____    ______ ____

>  <TORSDO>
F 5

$$$$
=
 OpenBabel11052417113D

 30 33  0  0  1  0  0  0  0  0999 V2000
  190.1680  174.6020  145.2030 C   0  0  1  0  0  0  0  0  0  0  0  0
  192.6160  173.9150  145.2360 C   0  0  0  0  0  0  0  0  0  0  0  0
  189.5820  173.7500  144.0700 C   0  0  2  0  0  3  0  0  0  0  0  0
  192.6160  172.3260  142.2040 C   0  0  0  0  0  3  0  0  0  0  0  0
  195.8590  172.1340  145.5760 C   0  0  0  0  0  1  0  0  0  0  0  0
  191.7840  172.7270  143.2650 C   0  0  0  0  0  0  0  0  0  0  0  0
  190.1560  173.4980  141.6370 C   0  0  0  0  0  3  0  0  0  0  0  0
  190.5590  173.3700  142.9730 C   0  0  0  0  0  0  0  0  0  0  0  0
  192.2170  172.5650  144.7070 C   0  0  1  0  0  3  0  0  0  0  0  0
  194.4540  172.5670  145.3150 C   0  0  0  0  0  0  0  0  0  0  0  0
  192.2190  172.5000  140.8790 C   0  0  0  0  0  3  0  0  0  0  0  0
  189.5500  174.2400  146.5420 C   0  0  0  0  0  1  0  0  0  0  0  0
  190.9830  173.0780  140.5960 C   0  0  0  0  0  3  0  0  0  0  0  0
  191.6450  175.0950  145.1910 C   0  0  2  0  0  3  0  0  0  0  0  0
  193.9300  173.9100  145.5140 C   0  0  0  0  0  0  0  0  0  0  0  0
  193.6160  170.3200  144.6150 C   0  0  0  0  0  1  0  0  0  0  0  0
  189.1830  175.2400  144.2200 C   0  0  2  0  0  3  0  0  0  0  0  0
  193.4830  171.7830  144.8800 C   0  0  0  0  0  0  0  0  0  0  0  0
  192.3460  175.6590  147.4330 F   0  0  0  0  0  0  0  0  0  0  0  0
  190.7020  176.8810  146.5230 F   0  0  0  0  0  0  0  0  0  0  0  0
  192.7960  177.1320  145.7620 O   0  0  0  0  0  1  0  0  0  0  0  0
  191.8780  176.2020  146.2490 C   0  0  0  0  0  0  0  0  0  0  0  0
  195.5590  175.5870  144.7100 C   0  0  0  0  0  1  0  0  0  0  0  0
  194.7800  175.0730  145.9060 C   0  0  0  0  0  2  0  0  0  0  0  0
  190.2530  177.3440  143.6560 O   0  0  0  0  0  1  0  0  0  0  0  0
  189.7520  176.1590  143.1150 C   0  0  2  0  0  3  0  0  0  0  0  0
  188.6900  176.5060  142.0630 C   0  0  1  0  0  3  0  0  0  0  0  0
  187.3630  175.8220  142.3450 C   0  0  0  0  0  1  0  0  0  0  0  0
  188.4960  177.9870  141.9250 C   0  0  0  0  0  3  0  0  0  0  0  0
  187.4100  178.4920  142.1620 O   0  0  0  0  0  0  0  0  0  0  0  0
  1 12  1  1  0  0  0
  2 15  2  0  0  0  0
  3  8  1  6  0  0  0
  3 17  1  0  0  0  0
  3  1  1  0  0  0  0
  4  6  1  0  0  0  0
  7  8  1  0  0  0  0
  8  6  2  0  0  0  0
  9  6  1  6  0  0  0
  9 18  1  0  0  0  0
  9  2  1  0  0  0  0
 10 15  1  0  0  0  0
 10  5  1  0  0  0  0
 11  4  2  0  0  0  0
 13 11  1  0  0  0  0
 13  7  2  0  0  0  0
 14  1  1  0  0  0  0
 14  2  1  0  0  0  0
 14 22  1  1  0  0  0
 15 24  1  0  0  0  0
 16 18  1  0  0  0  0
 17 26  1  6  0  0  0
 17  1  1  0  0  0  0
 18 10  2  0  0  0  0
 21 22  1  0  0  0  0
 22 20  1  0  0  0  0
 22 19  1  0  0  0  0
 23 24  1  0  0  0  0
 26 25  1  1  0  0  0
 27 28  1  1  0  0  0
 27 26  1  0  0  0  0
 29 27  1  0  0  0  0
 29 30  2  0  0  0  0
M  END
>  <MODEL>
4

>  <REMARK>
 VINA RESULT:      -6.5      2.941      5.413
  Name = 
  5 active torsions:
  status: ('A' for Active; 'I' for Inactive)
    1  A    between atoms: C_2  and  C_14
    2  A    between atoms: C_2  and  C_22
    3  A    between atoms: C_11  and  C_25
    4  A    between atoms: C_22  and  C_29
    5  A    between atoms: C_23  and  C_26
                            x       y       z     vdW  Elec       q    Type
                         _______ _______ _______ _____ _____    ______ ____

>  <TORSDO>
F 5

$$$$
=
 OpenBabel11052417113D

 30 33  0  0  1  0  0  0  0  0999 V2000
  190.4970  174.7280  145.5080 C   0  0  1  0  0  0  0  0  0  0  0  0
  192.9920  174.3810  145.1630 C   0  0  0  0  0  0  0  0  0  0  0  0
  189.8880  173.4160  144.9980 C   0  0  2  0  0  3  0  0  0  0  0  0
  192.7260  171.6530  143.1140 C   0  0  0  0  0  3  0  0  0  0  0  0
  196.5330  173.2680  145.3090 C   0  0  0  0  0  1  0  0  0  0  0  0
  192.0530  172.3820  144.1110 C   0  0  0  0  0  0  0  0  0  0  0  0
  190.0160  172.2030  142.8010 C   0  0  0  0  0  3  0  0  0  0  0  0
  190.6890  172.7050  143.9240 C   0  0  0  0  0  0  0  0  0  0  0  0
  192.7830  172.9010  145.3320 C   0  0  1  0  0  3  0  0  0  0  0  0
  195.0460  173.3970  145.2780 C   0  0  0  0  0  0  0  0  0  0  0  0
  192.0510  171.1970  141.9820 C   0  0  0  0  0  3  0  0  0  0  0  0
  190.2390  174.9150  146.9930 C   0  0  0  0  0  1  0  0  0  0  0  0
  190.6920  171.4650  141.8310 C   0  0  0  0  0  3  0  0  0  0  0  0
  191.8100  175.3190  144.9160 C   0  0  2  0  0  3  0  0  0  0  0  0
  194.3070  174.6330  145.0650 C   0  0  0  0  0  0  0  0  0  0  0  0
  194.5660  170.9940  145.7630 C   0  0  0  0  0  1  0  0  0  0  0  0
  189.2290  174.7750  144.6500 C   0  0  2  0  0  3  0  0  0  0  0  0
  194.1910  172.4060  145.4580 C   0  0  0  0  0  0  0  0  0  0  0  0
  192.8730  176.8680  146.4340 F   0  0  0  0  0  0  0  0  0  0  0  0
  190.8090  177.3690  145.7200 F   0  0  0  0  0  0  0  0  0  0  0  0
  192.5270  177.5310  144.2890 O   0  0  0  0  0  1  0  0  0  0  0  0
  192.0130  176.7910  145.3540 C   0  0  0  0  0  0  0  0  0  0  0  0
  195.3480  175.9700  143.2640 C   0  0  0  0  0  1  0  0  0  0  0  0
  194.9610  175.9330  144.7310 C   0  0  0  0  0  2  0  0  0  0  0  0
  189.6760  176.5400  143.0460 O   0  0  0  0  0  1  0  0  0  0  0  0
  189.3710  175.1830  143.1670 C   0  0  2  0  0  3  0  0  0  0  0  0
  188.0910  174.8930  142.3730 C   0  0  1  0  0  3  0  0  0  0  0  0
  186.9230  175.7430  142.8440 C   0  0  0  0  0  1  0  0  0  0  0  0
  188.2930  175.0540  140.8960 C   0  0  0  0  0  3  0  0  0  0  0  0
  188.6370  174.1040  140.2120 O   0  0  0  0  0  0  0  0  0  0  0  0
  1 12  1  1  0  0  0
  2  9  1  0  0  0  0
  3  8  1  6  0  0  0
  3  1  1  0  0  0  0
  4  6  1  0  0  0  0
  7  8  1  0  0  0  0
  8  6  2  0  0  0  0
  9  6  1  6  0  0  0
  9 18  1  0  0  0  0
 10  5  1  0  0  0  0
 10 18  2  0  0  0  0
 11  4  2  0  0  0  0
 13 11  1  0  0  0  0
 13  7  2  0  0  0  0
 14  2  1  0  0  0  0
 14 22  1  1  0  0  0
 14  1  1  0  0  0  0
 15  2  2  0  0  0  0
 15 10  1  0  0  0  0
 17 26  1  6  0  0  0
 17  3  1  0  0  0  0
 17  1  1  0  0  0  0
 18 16  1  0  0  0  0
 21 22  1  0  0  0  0
 22 20  1  0  0  0  0
 22 19  1  0  0  0  0
 23 24  1  0  0  0  0
 24 15  1  0  0  0  0
 26 25  1  1  0  0  0
 27 28  1  1  0  0  0
 27 26  1  0  0  0  0
 29 27  1  0  0  0  0
 30 29  2  0  0  0  0
M  END
>  <MODEL>
5

>  <REMARK>
 VINA RESULT:      -6.4      3.013      5.499
  Name = 
  5 active torsions:
  status: ('A' for Active; 'I' for Inactive)
    1  A    between atoms: C_2  and  C_14
    2  A    between atoms: C_2  and  C_22
    3  A    between atoms: C_11  and  C_25
    4  A    between atoms: C_22  and  C_29
    5  A    between atoms: C_23  and  C_26
                            x       y       z     vdW  Elec       q    Type
                         _______ _______ _______ _____ _____    ______ ____

>  <TORSDO>
F 5

$$$$
=
 OpenBabel11052417113D

 30 33  0  0  1  0  0  0  0  0999 V2000
  188.7580  177.2180  143.2230 C   0  0  1  0  0  0  0  0  0  0  0  0
  189.9140  175.0030  143.6970 C   0  0  0  0  0  0  0  0  0  0  0  0
  188.5570  177.8130  144.6220 C   0  0  2  0  0  3  0  0  0  0  0  0
  189.2510  174.9280  147.0540 C   0  0  0  0  0  3  0  0  0  0  0  0
  192.2780  172.2960  144.6380 C   0  0  0  0  0  1  0  0  0  0  0  0
  189.3890  175.7920  145.9520 C   0  0  0  0  0  0  0  0  0  0  0  0
  187.4030  176.9780  146.6930 C   0  0  0  0  0  3  0  0  0  0  0  0
  188.4180  176.7990  145.7420 C   0  0  0  0  0  0  0  0  0  0  0  0
  190.5020  175.6060  144.9420 C   0  0  1  0  0  3  0  0  0  0  0  0
  191.4380  173.5260  144.5310 C   0  0  0  0  0  0  0  0  0  0  0  0
  188.2100  175.0930  147.9660 C   0  0  0  0  0  3  0  0  0  0  0  0
  189.6920  178.0780  142.3880 C   0  0  0  0  0  1  0  0  0  0  0  0
  187.2900  176.1250  147.7900 C   0  0  0  0  0  3  0  0  0  0  0  0
  188.7560  175.6830  142.9660 C   0  0  2  0  0  3  0  0  0  0  0  0
  190.4200  173.7720  143.5200 C   0  0  0  0  0  0  0  0  0  0  0  0
  192.4820  174.7230  146.4600 C   0  0  0  0  0  1  0  0  0  0  0  0
  187.4290  177.9000  143.5620 C   0  0  2  0  0  3  0  0  0  0  0  0
  191.5140  174.5740  145.3330 C   0  0  0  0  0  0  0  0  0  0  0  0
  189.8770  175.1300  140.8980 F   0  0  0  0  0  0  0  0  0  0  0  0
  188.0490  176.4210  140.7720 F   0  0  0  0  0  0  0  0  0  0  0  0
  187.8160  174.2490  141.2740 O   0  0  0  0  0  1  0  0  0  0  0  0
  188.6320  175.3650  141.4540 C   0  0  0  0  0  0  0  0  0  0  0  0
  188.9890  171.7980  143.1100 C   0  0  0  0  0  1  0  0  0  0  0  0
  190.0030  172.7540  142.5100 C   0  0  0  0  0  2  0  0  0  0  0  0
  185.9990  176.0790  142.8370 O   0  0  0  0  0  1  0  0  0  0  0  0
  186.2100  177.0010  143.8630 C   0  0  2  0  0  3  0  0  0  0  0  0
  184.9300  177.8260  144.0560 C   0  0  1  0  0  3  0  0  0  0  0  0
  185.2210  179.2040  144.6250 C   0  0  0  0  0  1  0  0  0  0  0  0
  184.1360  177.9400  142.7900 C   0  0  0  0  0  3  0  0  0  0  0  0
  184.5170  178.6660  141.8850 O   0  0  0  0  0  0  0  0  0  0  0  0
  1 12  1  6  0  0  0
  1 17  1  0  0  0  0
  1  3  1  0  0  0  0
  3  8  1  1  0  0  0
  4 11  1  0  0  0  0
  6  4  2  0  0  0  0
  7 13  1  0  0  0  0
  8  6  1  0  0  0  0
  8  7  2  0  0  0  0
  9  2  1  6  0  0  0
  9 18  1  0  0  0  0
  9  6  1  0  0  0  0
 10  5  1  0  0  0  0
 10 18  2  0  0  0  0
 13 11  2  0  0  0  0
 14 22  1  6  0  0  0
 14  1  1  0  0  0  0
 14  2  1  0  0  0  0
 15  2  2  0  0  0  0
 15 10  1  0  0  0  0
 17 26  1  1  0  0  0
 17  3  1  0  0  0  0
 18 16  1  0  0  0  0
 19 22  1  0  0  0  0
 20 22  1  0  0  0  0
 21 22  1  0  0  0  0
 24 23  1  0  0  0  0
 24 15  1  0  0  0  0
 26 25  1  6  0  0  0
 26 27  1  0  0  0  0
 27 28  1  6  0  0  0
 29 27  1  0  0  0  0
 30 29  2  0  0  0  0
M  END
>  <MODEL>
6

>  <REMARK>
 VINA RESULT:      -6.3      1.761      2.456
  Name = 
  5 active torsions:
  status: ('A' for Active; 'I' for Inactive)
    1  A    between atoms: C_2  and  C_14
    2  A    between atoms: C_2  and  C_22
    3  A    between atoms: C_11  and  C_25
    4  A    between atoms: C_22  and  C_29
    5  A    between atoms: C_23  and  C_26
                            x       y       z     vdW  Elec       q    Type
                         _______ _______ _______ _____ _____    ______ ____

>  <TORSDO>
F 5

$$$$
=
 OpenBabel11052417113D

 30 33  0  0  1  0  0  0  0  0999 V2000
  190.1220  173.0820  143.3090 C   0  0  1  0  0  0  0  0  0  0  0  0
  188.7420  175.2020  143.5650 C   0  0  0  0  0  0  0  0  0  0  0  0
  191.3550  173.3620  144.1780 C   0  0  2  0  0  3  0  0  0  0  0  0
  191.2220  177.1200  144.9380 C   0  0  0  0  0  3  0  0  0  0  0  0
  186.6280  178.0070  144.7770 C   0  0  0  0  0  1  0  0  0  0  0  0
  190.7970  175.7910  144.7530 C   0  0  0  0  0  0  0  0  0  0  0  0
  193.0780  175.1910  144.1750 C   0  0  0  0  0  3  0  0  0  0  0  0
  191.7320  174.8250  144.3140 C   0  0  0  0  0  0  0  0  0  0  0  0
  189.3450  175.4000  144.9280 C   0  0  1  0  0  3  0  0  0  0  0  0
  187.6250  176.9140  144.5780 C   0  0  0  0  0  0  0  0  0  0  0  0
  192.5580  177.4760  144.7530 C   0  0  0  0  0  3  0  0  0  0  0  0
  189.3160  171.9160  143.8550 C   0  0  0  0  0  1  0  0  0  0  0  0
  193.4880  176.5080  144.3800 C   0  0  0  0  0  3  0  0  0  0  0  0
  189.3540  174.2170  142.5700 C   0  0  2  0  0  3  0  0  0  0  0  0
  187.7970  176.1350  143.3600 C   0  0  0  0  0  0  0  0  0  0  0  0
  188.5720  177.0020  146.8880 C   0  0  0  0  0  1  0  0  0  0  0  0
  191.5080  172.6870  142.7910 C   0  0  2  0  0  3  0  0  0  0  0  0
  188.4820  176.4890  145.4890 C   0  0  0  0  0  0  0  0  0  0  0  0
  187.1010  173.5450  142.0130 F   0  0  0  0  0  0  0  0  0  0  0  0
  188.7840  172.3750  141.1070 F   0  0  0  0  0  0  0  0  0  0  0  0
  188.3870  174.4570  140.3770 O   0  0  0  0  0  1  0  0  0  0  0  0
  188.3850  173.6400  141.5060 C   0  0  0  0  0  0  0  0  0  0  0  0
  187.6740  177.5970  141.3700 C   0  0  0  0  0  1  0  0  0  0  0  0
  187.0570  176.4160  142.0940 C   0  0  0  0  0  2  0  0  0  0  0  0
  191.5920  173.3770  140.4660 O   0  0  0  0  0  1  0  0  0  0  0  0
  192.1660  173.5860  141.7210 C   0  0  2  0  0  3  0  0  0  0  0  0
  193.6770  173.3360  141.6210 C   0  0  1  0  0  3  0  0  0  0  0  0
  193.9970  171.8720  141.3700 C   0  0  0  0  0  1  0  0  0  0  0  0
  194.3240  174.1990  140.5790 C   0  0  0  0  0  3  0  0  0  0  0  0
  194.5460  175.3780  140.8030 O   0  0  0  0  0  0  0  0  0  0  0  0
  1 12  1  1  0  0  0
  1  3  1  0  0  0  0
  3  8  1  6  0  0  0
  6  9  1  0  0  0  0
  6  4  1  0  0  0  0
  7  8  1  0  0  0  0
  7 13  2  0  0  0  0
  8  6  2  0  0  0  0
  9  2  1  6  0  0  0
  9 18  1  0  0  0  0
 10  5  1  0  0  0  0
 10 18  2  0  0  0  0
 11  4  2  0  0  0  0
 13 11  1  0  0  0  0
 14 22  1  1  0  0  0
 14  1  1  0  0  0  0
 14  2  1  0  0  0  0
 15  2  2  0  0  0  0
 15 10  1  0  0  0  0
 17 26  1  6  0  0  0
 17  1  1  0  0  0  0
 17  3  1  0  0  0  0
 18 16  1  0  0  0  0
 20 22  1  0  0  0  0
 21 22  1  0  0  0  0
 22 19  1  0  0  0  0
 23 24  1  0  0  0  0
 24 15  1  0  0  0  0
 26 25  1  6  0  0  0
 27 28  1  6  0  0  0
 27 26  1  0  0  0  0
 29 30  2  0  0  0  0
 29 27  1  0  0  0  0
M  END
>  <MODEL>
7

>  <REMARK>
 VINA RESULT:      -6.1      2.337      5.918
  Name = 
  5 active torsions:
  status: ('A' for Active; 'I' for Inactive)
    1  A    between atoms: C_2  and  C_14
    2  A    between atoms: C_2  and  C_22
    3  A    between atoms: C_11  and  C_25
    4  A    between atoms: C_22  and  C_29
    5  A    between atoms: C_23  and  C_26
                            x       y       z     vdW  Elec       q    Type
                         _______ _______ _______ _____ _____    ______ ____

>  <TORSDO>
F 5

$$$$
=
 OpenBabel11052417113D

 30 33  0  0  1  0  0  0  0  0999 V2000
  192.3010  172.5030  143.6760 C   0  0  1  0  0  0  0  0  0  0  0  0
  190.5220  174.2800  144.0520 C   0  0  0  0  0  0  0  0  0  0  0  0
  193.2240  172.6720  144.8890 C   0  0  2  0  0  3  0  0  0  0  0  0
  192.2080  176.0150  146.4730 C   0  0  0  0  0  3  0  0  0  0  0  0
  187.6910  176.3470  145.2840 C   0  0  0  0  0  1  0  0  0  0  0  0
  192.0980  174.7520  145.8630 C   0  0  0  0  0  0  0  0  0  0  0  0
  194.5220  174.6210  145.8020 C   0  0  0  0  0  3  0  0  0  0  0  0
  193.2750  174.0710  145.4750 C   0  0  0  0  0  0  0  0  0  0  0  0
  190.7460  174.1540  145.5330 C   0  0  1  0  0  3  0  0  0  0  0  0
  188.8970  175.4850  145.1060 C   0  0  0  0  0  0  0  0  0  0  0  0
  193.4570  176.5670  146.7530 C   0  0  0  0  0  3  0  0  0  0  0  0
  191.6290  171.1410  143.6800 C   0  0  0  0  0  1  0  0  0  0  0  0
  194.6150  175.8650  146.4250 C   0  0  0  0  0  3  0  0  0  0  0  0
  191.5230  173.6990  143.0530 C   0  0  2  0  0  3  0  0  0  0  0  0
  189.4900  175.1100  143.8300 C   0  0  0  0  0  0  0  0  0  0  0  0
  189.2520  175.0280  147.5360 C   0  0  0  0  0  1  0  0  0  0  0  0
  193.8180  172.4420  143.4760 C   0  0  2  0  0  3  0  0  0  0  0  0
  189.5860  174.9260  146.0850 C   0  0  0  0  0  0  0  0  0  0  0  0
  189.6210  172.9730  141.7530 F   0  0  0  0  0  0  0  0  0  0  0  0
  191.6490  172.2760  141.1010 F   0  0  0  0  0  0  0  0  0  0  0  0
  191.0850  174.4240  140.7980 O   0  0  0  0  0  1  0  0  0  0  0  0
  190.9530  173.3350  141.6590 C   0  0  0  0  0  0  0  0  0  0  0  0
  189.4660  177.0880  142.3460 C   0  0  0  0  0  1  0  0  0  0  0  0
  189.0220  175.6470  142.5180 C   0  0  0  0  0  2  0  0  0  0  0  0
  194.2620  173.7970  141.5120 O   0  0  0  0  0  1  0  0  0  0  0  0
  194.5220  173.6810  142.8780 C   0  0  2  0  0  3  0  0  0  0  0  0
  196.0410  173.6280  143.0890 C   0  0  1  0  0  3  0  0  0  0  0  0
  196.6590  172.3870  142.4660 C   0  0  0  0  0  1  0  0  0  0  0  0
  196.7250  174.8620  142.5830 C   0  0  0  0  0  3  0  0  0  0  0  0
  196.6340  175.9140  143.1960 O   0  0  0  0  0  0  0  0  0  0  0  0
  1 12  1  6  0  0  0
  1  3  1  0  0  0  0
  3  8  1  6  0  0  0
  4 11  1  0  0  0  0
  6  4  2  0  0  0  0
  7 13  1  0  0  0  0
  8  7  2  0  0  0  0
  8  6  1  0  0  0  0
  9  2  1  6  0  0  0
  9  6  1  0  0  0  0
  9 18  1  0  0  0  0
 10  5  1  0  0  0  0
 10 18  2  0  0  0  0
 13 11  2  0  0  0  0
 14 22  1  6  0  0  0
 14  1  1  0  0  0  0
 14  2  1  0  0  0  0
 15  2  2  0  0  0  0
 15 10  1  0  0  0  0
 17 26  1  6  0  0  0
 17  1  1  0  0  0  0
 17  3  1  0  0  0  0
 18 16  1  0  0  0  0
 20 22  1  0  0  0  0
 21 22  1  0  0  0  0
 22 19  1  0  0  0  0
 23 24  1  0  0  0  0
 24 15  1  0  0  0  0
 26 25  1  6  0  0  0
 26 27  1  0  0  0  0
 27 28  1  6  0  0  0
 29 27  1  0  0  0  0
 29 30  2  0  0  0  0
M  END
>  <MODEL>
8

>  <REMARK>
 VINA RESULT:      -6.1      3.239      6.446
  Name = 
  5 active torsions:
  status: ('A' for Active; 'I' for Inactive)
    1  A    between atoms: C_2  and  C_14
    2  A    between atoms: C_2  and  C_22
    3  A    between atoms: C_11  and  C_25
    4  A    between atoms: C_22  and  C_29
    5  A    between atoms: C_23  and  C_26
                            x       y       z     vdW  Elec       q    Type
                         _______ _______ _______ _____ _____    ______ ____

>  <TORSDO>
F 5

$$$$
=
 OpenBabel11052417113D

 30 33  0  0  1  0  0  0  0  0999 V2000
  189.6460  177.2680  144.1360 C   0  0  1  0  0  0  0  0  0  0  0  0
  187.3300  177.5670  145.1410 C   0  0  0  0  0  0  0  0  0  0  0  0
  189.4650  177.7490  142.6920 C   0  0  2  0  0  3  0  0  0  0  0  0
  185.6710  177.9890  142.1770 C   0  0  0  0  0  3  0  0  0  0  0  0
  184.1330  178.8730  146.5090 C   0  0  0  0  0  1  0  0  0  0  0  0
  186.9340  178.1040  142.7870 C   0  0  0  0  0  0  0  0  0  0  0  0
  187.9230  177.0570  140.8320 C   0  0  0  0  0  3  0  0  0  0  0  0
  188.0680  177.5810  142.1240 C   0  0  0  0  0  0  0  0  0  0  0  0
  187.0850  178.6930  144.1740 C   0  0  1  0  0  3  0  0  0  0  0  0
  185.3760  178.5820  145.7370 C   0  0  0  0  0  0  0  0  0  0  0  0
  185.5390  177.4240  140.9080 C   0  0  0  0  0  3  0  0  0  0  0  0
  190.6180  178.1560  144.8960 C   0  0  0  0  0  1  0  0  0  0  0  0
  186.6680  176.9670  140.2320 C   0  0  0  0  0  3  0  0  0  0  0  0
  188.4930  176.5960  144.9380 C   0  0  2  0  0  3  0  0  0  0  0  0
  186.2940  177.4810  145.9900 C   0  0  0  0  0  0  0  0  0  0  0  0
  185.1910  180.5420  144.1980 C   0  0  0  0  0  1  0  0  0  0  0  0
  190.2950  176.4760  142.9980 C   0  0  2  0  0  3  0  0  0  0  0  0
  185.8280  179.2970  144.7210 C   0  0  0  0  0  0  0  0  0  0  0  0
  188.1910  174.8670  146.5980 F   0  0  0  0  0  0  0  0  0  0  0  0
  189.1050  176.8000  147.2700 F   0  0  0  0  0  0  0  0  0  0  0  0
  190.3100  175.4130  145.9870 O   0  0  0  0  0  1  0  0  0  0  0  0
  189.0260  175.9030  146.2180 C   0  0  0  0  0  0  0  0  0  0  0  0
  186.0360  177.0090  148.4040 C   0  0  0  0  0  1  0  0  0  0  0  0
  186.0380  176.4170  147.0070 C   0  0  0  0  0  2  0  0  0  0  0  0
  189.7270  174.1800  143.5390 O   0  0  0  0  0  1  0  0  0  0  0  0
  189.6190  175.1600  142.5520 C   0  0  2  0  0  3  0  0  0  0  0  0
  190.2300  174.6200  141.2520 C   0  0  1  0  0  3  0  0  0  0  0  0
  191.6660  174.1640  141.4430 C   0  0  0  0  0  1  0  0  0  0  0  0
  189.4060  173.5180  140.6560 C   0  0  0  0  0  3  0  0  0  0  0  0
  188.1940  173.5070  140.7960 O   0  0  0  0  0  0  0  0  0  0  0  0
  1 12  1  1  0  0  0
  1 14  1  0  0  0  0
  2 15  2  0  0  0  0
  3  8  1  6  0  0  0
  3 17  1  0  0  0  0
  3  1  1  0  0  0  0
  4  6  1  0  0  0  0
  7  8  1  0  0  0  0
  8  6  2  0  0  0  0
  9  6  1  6  0  0  0
  9 18  1  0  0  0  0
  9  2  1  0  0  0  0
 10 15  1  0  0  0  0
 10  5  1  0  0  0  0
 11  4  2  0  0  0  0
 13  7  2  0  0  0  0
 13 11  1  0  0  0  0
 14  2  1  0  0  0  0
 14 22  1  1  0  0  0
 15 24  1  0  0  0  0
 16 18  1  0  0  0  0
 17 26  1  6  0  0  0
 17  1  1  0  0  0  0
 18 10  2  0  0  0  0
 21 22  1  0  0  0  0
 22 19  1  0  0  0  0
 22 20  1  0  0  0  0
 24 23  1  0  0  0  0
 26 25  1  1  0  0  0
 27 28  1  1  0  0  0
 27 26  1  0  0  0  0
 29 30  2  0  0  0  0
 29 27  1  0  0  0  0
M  END
>  <MODEL>
9

>  <REMARK>
 VINA RESULT:      -6.1      2.439      6.597
  Name = 
  5 active torsions:
  status: ('A' for Active; 'I' for Inactive)
    1  A    between atoms: C_2  and  C_14
    2  A    between atoms: C_2  and  C_22
    3  A    between atoms: C_11  and  C_25
    4  A    between atoms: C_22  and  C_29
    5  A    between atoms: C_23  and  C_26
                            x       y       z     vdW  Elec       q    Type
                         _______ _______ _______ _____ _____    ______ ____

>  <TORSDO>
F 5

$$$$
