=
 OpenBabel11052418243D

 27 31  0  0  1  0  0  0  0  0999 V2000
  190.9550  176.2560  142.6800 N   0  0  0  0  0  2  0  0  0  0  0  0
  188.5320  176.1760  143.3090 C   0  0  0  0  0  0  0  0  0  0  0  0
  189.9300  176.8930  145.3260 N   0  0  0  0  0  0  0  0  0  0  0  0
  185.0810  177.3530  145.4210 C   0  0  0  0  0  3  0  0  0  0  0  0
  184.0660  178.2320  147.3880 F   0  0  0  0  0  0  0  0  0  0  0  0
  187.2560  176.0840  142.7400 C   0  0  0  0  0  3  0  0  0  0  0  0
  187.5850  177.5880  146.6420 C   0  0  0  0  0  3  0  0  0  0  0  0
  193.5320  176.5180  145.7740 C   0  0  0  0  0  0  0  0  0  0  0  0
  186.4320  177.9750  147.3300 C   0  0  0  0  0  3  0  0  0  0  0  0
  194.4670  176.8790  146.6390 C   0  0  0  0  0  1  0  0  0  0  0  0
  187.5040  177.0770  145.3350 C   0  0  0  0  0  0  0  0  0  0  0  0
  189.6410  175.6850  142.4110 C   0  0  2  0  0  3  0  0  0  0  0  0
  185.1820  177.8560  146.7210 C   0  0  0  0  0  0  0  0  0  0  0  0
  186.2310  176.9640  144.7280 C   0  0  0  0  0  0  0  0  0  0  0  0
  191.4820  175.6550  143.8880 C   0  0  1  0  0  3  0  0  0  0  0  0
  188.6730  176.6840  144.6390 C   0  0  0  0  0  0  0  0  0  0  0  0
  192.1740  176.8950  145.9880 N   0  0  0  0  0  0  0  0  0  0  0  0
  186.1170  176.4710  143.4360 C   0  0  0  0  0  3  0  0  0  0  0  0
  193.8910  175.7640  144.5750 C   0  0  0  0  0  3  0  0  0  0  0  0
  192.9540  175.3800  143.7080 C   0  0  0  0  0  3  0  0  0  0  0  0
  191.1460  176.5190  145.0680 C   0  0  0  0  0  0  0  0  0  0  0  0
  189.7710  171.4640  141.6970 C   0  0  0  0  0  3  0  0  0  0  0  0
  189.6600  174.1960  142.1810 C   0  0  0  0  0  0  0  0  0  0  0  0
  189.2730  173.2930  143.1800 C   0  0  0  0  0  3  0  0  0  0  0  0
  189.3260  171.9200  142.9390 C   0  0  0  0  0  3  0  0  0  0  0  0
  190.1500  172.3530  140.7390 N   0  0  0  0  0  0  0  0  0  0  0  0
  190.1060  173.6950  140.9550 C   0  0  0  0  0  3  0  0  0  0  0  0
  1 15  1  0  0  0  0
  2 16  1  0  0  0  0
  4 13  2  0  0  0  0
  6  2  2  0  0  0  0
  6 18  1  0  0  0  0
  7  9  2  0  0  0  0
  8 17  2  0  0  0  0
  8 10  1  0  0  0  0
 11  7  1  0  0  0  0
 12 23  1  1  0  0  0
 12  1  1  0  0  0  0
 12  2  1  0  0  0  0
 13  9  1  0  0  0  0
 13  5  1  0  0  0  0
 14 11  1  0  0  0  0
 14  4  1  0  0  0  0
 15 20  1  6  0  0  0
 15 21  1  0  0  0  0
 16  3  1  0  0  0  0
 16 11  2  0  0  0  0
 18 14  2  0  0  0  0
 19  8  1  0  0  0  0
 20 19  2  0  0  0  0
 21  3  2  0  0  0  0
 21 17  1  0  0  0  0
 22 25  1  0  0  0  0
 23 24  1  0  0  0  0
 25 24  2  0  0  0  0
 26 27  1  0  0  0  0
 26 22  2  0  0  0  0
 27 23  2  0  0  0  0
M  END
>  <MODEL>
1

>  <REMARK>
 VINA RESULT:      -8.4      0.000      0.000
  Name = 
  1 active torsions:
  status: ('A' for Active; 'I' for Inactive)
    1  A    between atoms: C_9  and  C_15
                            x       y       z     vdW  Elec       q    Type
                         _______ _______ _______ _____ _____    ______ ____

>  <TORSDO>
F 1

$$$$
=
 OpenBabel11052418243D

 27 31  0  0  1  0  0  0  0  0999 V2000
  191.0170  176.6670  143.8610 N   0  0  0  0  0  2  0  0  0  0  0  0
  188.6900  176.7210  142.9390 C   0  0  0  0  0  0  0  0  0  0  0  0
  188.6740  177.4720  145.3820 N   0  0  0  0  0  0  0  0  0  0  0  0
  184.7400  178.1450  142.5900 C   0  0  0  0  0  3  0  0  0  0  0  0
  182.8180  179.1600  143.5650 F   0  0  0  0  0  0  0  0  0  0  0  0
  187.9900  176.6580  141.7270 C   0  0  0  0  0  3  0  0  0  0  0  0
  186.0540  178.3300  145.0500 C   0  0  0  0  0  3  0  0  0  0  0  0
  191.2890  176.9640  147.8760 C   0  0  0  0  0  0  0  0  0  0  0  0
  184.7430  178.7980  144.9190 C   0  0  0  0  0  3  0  0  0  0  0  0
  191.5560  177.3250  149.1210 C   0  0  0  0  0  1  0  0  0  0  0  0
  186.7250  177.7610  143.9550 C   0  0  0  0  0  0  0  0  0  0  0  0
  190.0810  176.1410  142.8760 C   0  0  2  0  0  3  0  0  0  0  0  0
  184.0870  178.7050  143.6910 C   0  0  0  0  0  0  0  0  0  0  0  0
  186.0500  177.6740  142.7140 C   0  0  0  0  0  0  0  0  0  0  0  0
  190.6930  176.1020  145.1550 C   0  0  1  0  0  3  0  0  0  0  0  0
  188.0530  177.2850  144.0880 C   0  0  0  0  0  0  0  0  0  0  0  0
  190.0920  177.4090  147.2420 N   0  0  0  0  0  0  0  0  0  0  0  0
  186.6880  177.1260  141.6120 C   0  0  0  0  0  3  0  0  0  0  0  0
  192.2370  176.1390  147.1300 C   0  0  0  0  0  3  0  0  0  0  0  0
  191.9690  175.7560  145.8830 C   0  0  0  0  0  3  0  0  0  0  0  0
  189.7820  177.0350  145.8970 C   0  0  0  0  0  0  0  0  0  0  0  0
  190.3410  171.8890  142.4280 C   0  0  0  0  0  3  0  0  0  0  0  0
  190.1390  174.6430  142.7200 C   0  0  0  0  0  0  0  0  0  0  0  0
  189.1980  173.8040  143.3330 C   0  0  0  0  0  3  0  0  0  0  0  0
  189.2960  172.4210  143.1860 C   0  0  0  0  0  3  0  0  0  0  0  0
  191.2510  172.7160  141.8460 N   0  0  0  0  0  0  0  0  0  0  0  0
  191.1720  174.0670  141.9770 C   0  0  0  0  0  3  0  0  0  0  0  0
  1 15  1  0  0  0  0
  2 16  1  0  0  0  0
  3 21  2  0  0  0  0
  4 14  1  0  0  0  0
  4 13  2  0  0  0  0
  5 13  1  0  0  0  0
  6  2  2  0  0  0  0
  8 10  1  0  0  0  0
  9  7  2  0  0  0  0
 11 16  2  0  0  0  0
 11  7  1  0  0  0  0
 12 23  1  1  0  0  0
 12  2  1  0  0  0  0
 12  1  1  0  0  0  0
 13  9  1  0  0  0  0
 14 11  1  0  0  0  0
 15 20  1  1  0  0  0
 15 21  1  0  0  0  0
 16  3  1  0  0  0  0
 17  8  2  0  0  0  0
 18  6  1  0  0  0  0
 18 14  2  0  0  0  0
 19  8  1  0  0  0  0
 20 19  2  0  0  0  0
 21 17  1  0  0  0  0
 22 25  1  0  0  0  0
 23 24  1  0  0  0  0
 25 24  2  0  0  0  0
 26 27  1  0  0  0  0
 26 22  2  0  0  0  0
 27 23  2  0  0  0  0
M  END
>  <MODEL>
2

>  <REMARK>
 VINA RESULT:      -8.2      1.819      2.188
  Name = 
  1 active torsions:
  status: ('A' for Active; 'I' for Inactive)
    1  A    between atoms: C_9  and  C_15
                            x       y       z     vdW  Elec       q    Type
                         _______ _______ _______ _____ _____    ______ ____

>  <TORSDO>
F 1

$$$$
=
 OpenBabel11052418243D

 27 31  0  0  1  0  0  0  0  0999 V2000
  189.8820  173.6270  143.5850 N   0  0  0  0  0  2  0  0  0  0  0  0
  188.8300  175.3860  145.0240 C   0  0  0  0  0  0  0  0  0  0  0  0
  187.8230  175.4680  142.6760 N   0  0  0  0  0  0  0  0  0  0  0  0
  185.7230  177.9170  146.3260 C   0  0  0  0  0  3  0  0  0  0  0  0
  183.7690  179.1950  145.8550 F   0  0  0  0  0  0  0  0  0  0  0  0
  188.7180  175.7830  146.3620 C   0  0  0  0  0  3  0  0  0  0  0  0
  185.8510  177.1720  143.6340 C   0  0  0  0  0  3  0  0  0  0  0  0
  189.1790  173.9880  139.6280 C   0  0  0  0  0  0  0  0  0  0  0  0
  184.8270  178.0110  144.0810 C   0  0  0  0  0  3  0  0  0  0  0  0
  188.8190  173.8090  138.3670 C   0  0  0  0  0  2  0  0  0  0  0  0
  186.8270  176.6950  144.5250 C   0  0  0  0  0  0  0  0  0  0  0  0
  190.0190  174.5000  144.7440 C   0  0  2  0  0  3  0  0  0  0  0  0
  184.7630  178.3840  145.4250 C   0  0  0  0  0  0  0  0  0  0  0  0
  186.7510  177.0780  145.8850 C   0  0  0  0  0  0  0  0  0  0  0  0
  190.0220  174.4260  142.3850 C   0  0  1  0  0  3  0  0  0  0  0  0
  187.8670  175.8470  144.0730 C   0  0  0  0  0  0  0  0  0  0  0  0
  188.3020  174.6500  140.5360 N   0  0  0  0  0  2  0  0  0  0  0  0
  187.6940  176.6180  146.7920 C   0  0  0  0  0  3  0  0  0  0  0  0
  190.4600  173.4740  140.1070 C   0  0  0  0  0  3  0  0  0  0  0  0
  190.8390  173.6650  141.3700 C   0  0  0  0  0  3  0  0  0  0  0  0
  188.6670  174.8530  141.9040 C   0  0  0  0  0  0  0  0  0  0  0  0
  193.8680  176.3650  144.9820 C   0  0  0  0  0  3  0  0  0  0  0  0
  191.3580  175.1860  144.8350 C   0  0  0  0  0  0  0  0  0  0  0  0
  191.5220  176.5280  144.4650 C   0  0  0  0  0  3  0  0  0  0  0  0
  192.7820  177.1240  144.5410 C   0  0  0  0  0  3  0  0  0  0  0  0
  193.6930  175.0620  145.3300 N   0  0  0  0  0  0  0  0  0  0  0  0
  192.4740  174.4630  145.2640 C   0  0  0  0  0  3  0  0  0  0  0  0
  1 12  1  0  0  0  0
  2  6  1  0  0  0  0
  3 16  1  0  0  0  0
  6 18  2  0  0  0  0
  7  9  2  0  0  0  0
  7 11  1  0  0  0  0
  8 19  1  0  0  0  0
  8 17  1  0  0  0  0
  9 13  1  0  0  0  0
 10  8  2  0  0  0  0
 11 14  2  0  0  0  0
 12 23  1  6  0  0  0
 12  2  1  0  0  0  0
 13  5  1  0  0  0  0
 13  4  2  0  0  0  0
 14  4  1  0  0  0  0
 14 18  1  0  0  0  0
 15 20  1  6  0  0  0
 15  1  1  0  0  0  0
 16 11  1  0  0  0  0
 16  2  2  0  0  0  0
 17 21  1  0  0  0  0
 19 20  2  0  0  0  0
 21 15  1  0  0  0  0
 21  3  2  0  0  0  0
 22 26  1  0  0  0  0
 23 27  1  0  0  0  0
 24 25  1  0  0  0  0
 24 23  2  0  0  0  0
 25 22  2  0  0  0  0
 27 26  2  0  0  0  0
M  END
>  <MODEL>
3

>  <REMARK>
 VINA RESULT:      -8.2      1.717      4.648
  Name = 
  1 active torsions:
  status: ('A' for Active; 'I' for Inactive)
    1  A    between atoms: C_9  and  C_15
                            x       y       z     vdW  Elec       q    Type
                         _______ _______ _______ _____ _____    ______ ____

>  <TORSDO>
F 1

$$$$
=
 OpenBabel11052418243D

 27 31  0  0  1  0  0  0  0  0999 V2000
  187.5670  178.6380  142.8770 N   0  0  0  0  0  2  0  0  0  0  0  0
  188.8180  177.1530  144.4570 C   0  0  0  0  0  0  0  0  0  0  0  0
  188.6620  176.0420  142.1600 N   0  0  0  0  0  0  0  0  0  0  0  0
  191.6870  174.2620  145.5380 C   0  0  0  0  0  3  0  0  0  0  0  0
  192.9810  172.3360  144.9980 F   0  0  0  0  0  0  0  0  0  0  0  0
  189.4360  177.1640  145.7140 C   0  0  0  0  0  3  0  0  0  0  0  0
  190.5240  174.1590  142.9980 C   0  0  0  0  0  3  0  0  0  0  0  0
  186.3880  176.8920  139.4360 C   0  0  0  0  0  0  0  0  0  0  0  0
  191.4770  173.2080  143.3710 C   0  0  0  0  0  3  0  0  0  0  0  0
  186.1830  176.5540  138.1730 C   0  0  0  0  0  2  0  0  0  0  0  0
  190.1370  175.1750  143.8890 C   0  0  0  0  0  0  0  0  0  0  0  0
  187.8020  178.2510  144.2620 C   0  0  2  0  0  3  0  0  0  0  0  0
  192.0570  173.2590  144.6390 C   0  0  0  0  0  0  0  0  0  0  0  0
  190.7340  175.2170  145.1710 C   0  0  0  0  0  0  0  0  0  0  0  0
  186.7770  177.6060  142.2360 C   0  0  1  0  0  3  0  0  0  0  0  0
  189.1700  176.1380  143.5120 C   0  0  0  0  0  0  0  0  0  0  0  0
  187.4440  176.2860  140.1770 N   0  0  0  0  0  2  0  0  0  0  0  0
  190.3810  176.2110  146.0720 C   0  0  0  0  0  3  0  0  0  0  0  0
  185.5580  177.9160  140.0670 C   0  0  0  0  0  3  0  0  0  0  0  0
  185.7450  178.2500  141.3440 C   0  0  0  0  0  3  0  0  0  0  0  0
  187.6870  176.6360  141.5430 C   0  0  0  0  0  0  0  0  0  0  0  0
  184.1760  177.8880  146.5130 C   0  0  0  0  0  3  0  0  0  0  0  0
  186.5420  178.1010  145.0760 C   0  0  0  0  0  0  0  0  0  0  0  0
  186.2310  176.9050  145.7360 C   0  0  0  0  0  3  0  0  0  0  0  0
  185.0440  176.7960  146.4610 C   0  0  0  0  0  3  0  0  0  0  0  0
  184.4880  179.0410  145.8610 N   0  0  0  0  0  0  0  0  0  0  0  0
  185.6410  179.1660  145.1490 C   0  0  0  0  0  3  0  0  0  0  0  0
  1 12  1  0  0  0  0
  2  6  1  0  0  0  0
  3 16  1  0  0  0  0
  6 18  2  0  0  0  0
  7  9  2  0  0  0  0
  7 11  1  0  0  0  0
  8 19  1  0  0  0  0
  8 17  1  0  0  0  0
  9 13  1  0  0  0  0
 10  8  2  0  0  0  0
 11 14  2  0  0  0  0
 12  2  1  0  0  0  0
 12 23  1  6  0  0  0
 13  5  1  0  0  0  0
 13  4  2  0  0  0  0
 14  4  1  0  0  0  0
 14 18  1  0  0  0  0
 15 20  1  6  0  0  0
 15  1  1  0  0  0  0
 16 11  1  0  0  0  0
 16  2  2  0  0  0  0
 17 21  1  0  0  0  0
 19 20  2  0  0  0  0
 21  3  2  0  0  0  0
 21 15  1  0  0  0  0
 23 27  2  0  0  0  0
 23 24  1  0  0  0  0
 24 25  2  0  0  0  0
 25 22  1  0  0  0  0
 26 22  2  0  0  0  0
 27 26  1  0  0  0  0
M  END
>  <MODEL>
4

>  <REMARK>
 VINA RESULT:      -7.7      3.278      7.074
  Name = 
  1 active torsions:
  status: ('A' for Active; 'I' for Inactive)
    1  A    between atoms: C_9  and  C_15
                            x       y       z     vdW  Elec       q    Type
                         _______ _______ _______ _____ _____    ______ ____

>  <TORSDO>
F 1

$$$$
=
 OpenBabel11052418243D

 27 31  0  0  1  0  0  0  0  0999 V2000
  189.1240  177.6540  143.3900 N   0  0  0  0  0  2  0  0  0  0  0  0
  190.1430  175.5370  142.5240 C   0  0  0  0  0  0  0  0  0  0  0  0
  187.7400  175.7530  141.6800 N   0  0  0  0  0  0  0  0  0  0  0  0
  190.7210  172.4180  139.7510 C   0  0  0  0  0  3  0  0  0  0  0  0
  189.8740  170.9980  138.0360 F   0  0  0  0  0  0  0  0  0  0  0  0
  191.3790  174.8910  142.3920 C   0  0  0  0  0  3  0  0  0  0  0  0
  188.2200  173.6530  139.9270 C   0  0  0  0  0  3  0  0  0  0  0  0
  185.1190  177.9330  142.9820 C   0  0  0  0  0  0  0  0  0  0  0  0
  188.4270  172.6180  139.0120 C   0  0  0  0  0  3  0  0  0  0  0  0
  183.8820  178.2890  142.6750 C   0  0  0  0  0  1  0  0  0  0  0  0
  189.2590  174.0860  140.7680 C   0  0  0  0  0  0  0  0  0  0  0  0
  190.1220  176.6100  143.5850 C   0  0  2  0  0  3  0  0  0  0  0  0
  189.6750  172.0010  138.9240 C   0  0  0  0  0  0  0  0  0  0  0  0
  190.5210  173.4530  140.6680 C   0  0  0  0  0  0  0  0  0  0  0  0
  187.8200  177.1140  143.7160 C   0  0  1  0  0  3  0  0  0  0  0  0
  189.0490  175.1340  141.6970 C   0  0  0  0  0  0  0  0  0  0  0  0
  185.8220  177.0040  142.1600 N   0  0  0  0  0  0  0  0  0  0  0  0
  191.5700  173.8620  141.4790 C   0  0  0  0  0  3  0  0  0  0  0  0
  185.7860  178.5170  144.1440 C   0  0  0  0  0  3  0  0  0  0  0  0
  187.0250  178.1510  144.4710 C   0  0  0  0  0  3  0  0  0  0  0  0
  187.1600  176.6050  142.4690 C   0  0  0  0  0  0  0  0  0  0  0  0
  190.3740  175.2640  147.6430 C   0  0  0  0  0  3  0  0  0  0  0  0
  190.2050  176.1040  145.0020 C   0  0  0  0  0  0  0  0  0  0  0  0
  189.4650  174.9940  145.4300 C   0  0  0  0  0  3  0  0  0  0  0  0
  189.5500  174.5680  146.7560 C   0  0  0  0  0  3  0  0  0  0  0  0
  191.0810  176.3440  147.2140 N   0  0  0  0  0  0  0  0  0  0  0  0
  191.0110  176.7750  145.9250 C   0  0  0  0  0  3  0  0  0  0  0  0
  1 12  1  0  0  0  0
  1 15  1  0  0  0  0
  2 12  1  0  0  0  0
  3 16  1  0  0  0  0
  3 21  2  0  0  0  0
  4 14  1  0  0  0  0
  5 13  1  0  0  0  0
  6  2  1  0  0  0  0
  7 11  1  0  0  0  0
  8 19  1  0  0  0  0
  9  7  2  0  0  0  0
 10  8  1  0  0  0  0
 11 16  1  0  0  0  0
 12 23  1  1  0  0  0
 13  9  1  0  0  0  0
 13  4  2  0  0  0  0
 14 11  2  0  0  0  0
 14 18  1  0  0  0  0
 15 20  1  6  0  0  0
 16  2  2  0  0  0  0
 17 21  1  0  0  0  0
 17  8  2  0  0  0  0
 18  6  2  0  0  0  0
 19 20  2  0  0  0  0
 21 15  1  0  0  0  0
 23 24  2  0  0  0  0
 23 27  1  0  0  0  0
 24 25  1  0  0  0  0
 25 22  2  0  0  0  0
 26 22  1  0  0  0  0
 27 26  2  0  0  0  0
M  END
>  <MODEL>
5

>  <REMARK>
 VINA RESULT:      -7.6      3.337      7.011
  Name = 
  1 active torsions:
  status: ('A' for Active; 'I' for Inactive)
    1  A    between atoms: C_9  and  C_15
                            x       y       z     vdW  Elec       q    Type
                         _______ _______ _______ _____ _____    ______ ____

>  <TORSDO>
F 1

$$$$
=
 OpenBabel11052418243D

 27 31  0  0  1  0  0  0  0  0999 V2000
  190.8020  172.9600  143.8300 N   0  0  0  0  0  2  0  0  0  0  0  0
  189.7850  174.6690  145.3500 C   0  0  0  0  0  0  0  0  0  0  0  0
  188.8740  174.9630  142.9800 N   0  0  0  0  0  0  0  0  0  0  0  0
  186.7590  177.2650  146.7150 C   0  0  0  0  0  3  0  0  0  0  0  0
  184.8900  178.6720  146.2670 F   0  0  0  0  0  0  0  0  0  0  0  0
  189.6400  174.9790  146.7090 C   0  0  0  0  0  3  0  0  0  0  0  0
  186.9540  176.6990  143.9850 C   0  0  0  0  0  3  0  0  0  0  0  0
  190.2730  173.6250  139.8860 C   0  0  0  0  0  0  0  0  0  0  0  0
  185.9560  177.5580  144.4520 C   0  0  0  0  0  3  0  0  0  0  0  0
  189.9530  173.5520  138.6030 C   0  0  0  0  0  2  0  0  0  0  0  0
  187.8700  176.1120  144.8740 C   0  0  0  0  0  0  0  0  0  0  0  0
  190.9380  173.7430  145.0510 C   0  0  2  0  0  3  0  0  0  0  0  0
  185.8590  177.8410  145.8160 C   0  0  0  0  0  0  0  0  0  0  0  0
  187.7600  176.4050  146.2540 C   0  0  0  0  0  0  0  0  0  0  0  0
  191.0290  173.8300  142.6940 C   0  0  1  0  0  3  0  0  0  0  0  0
  188.8830  175.2430  144.4000 C   0  0  0  0  0  0  0  0  0  0  0  0
  189.3950  174.2690  140.8060 N   0  0  0  0  0  2  0  0  0  0  0  0
  188.6430  175.8350  147.1590 C   0  0  0  0  0  3  0  0  0  0  0  0
  191.5070  173.0130  140.3720 C   0  0  0  0  0  3  0  0  0  0  0  0
  191.8460  173.0970  141.6590 C   0  0  0  0  0  3  0  0  0  0  0  0
  189.7160  174.3590  142.1970 C   0  0  0  0  0  0  0  0  0  0  0  0
  194.8620  175.3890  145.5400 C   0  0  0  0  0  3  0  0  0  0  0  0
  192.3050  174.3500  145.2370 C   0  0  0  0  0  0  0  0  0  0  0  0
  192.5100  175.7350  145.1630 C   0  0  0  0  0  3  0  0  0  0  0  0
  193.7930  176.2600  145.3170 C   0  0  0  0  0  3  0  0  0  0  0  0
  194.6480  174.0470  145.6020 N   0  0  0  0  0  0  0  0  0  0  0  0
  193.4040  173.5160  145.4540 C   0  0  0  0  0  3  0  0  0  0  0  0
  1 12  1  0  0  0  0
  2  6  1  0  0  0  0
  3 16  1  0  0  0  0
  6 18  2  0  0  0  0
  7  9  2  0  0  0  0
  7 11  1  0  0  0  0
  8 19  1  0  0  0  0
  8 17  1  0  0  0  0
  9 13  1  0  0  0  0
 10  8  2  0  0  0  0
 11 14  2  0  0  0  0
 12 23  1  6  0  0  0
 12  2  1  0  0  0  0
 13  5  1  0  0  0  0
 13  4  2  0  0  0  0
 14  4  1  0  0  0  0
 14 18  1  0  0  0  0
 15 20  1  6  0  0  0
 15  1  1  0  0  0  0
 16 11  1  0  0  0  0
 16  2  2  0  0  0  0
 17 21  1  0  0  0  0
 19 20  2  0  0  0  0
 21 15  1  0  0  0  0
 21  3  2  0  0  0  0
 22 26  1  0  0  0  0
 23 27  1  0  0  0  0
 24 23  2  0  0  0  0
 24 25  1  0  0  0  0
 25 22  2  0  0  0  0
 27 26  2  0  0  0  0
M  END
>  <MODEL>
6

>  <REMARK>
 VINA RESULT:      -7.5      1.901      4.664
  Name = 
  1 active torsions:
  status: ('A' for Active; 'I' for Inactive)
    1  A    between atoms: C_9  and  C_15
                            x       y       z     vdW  Elec       q    Type
                         _______ _______ _______ _____ _____    ______ ____

>  <TORSDO>
F 1

$$$$
=
 OpenBabel11052418243D

 27 31  0  0  1  0  0  0  0  0999 V2000
  190.4320  176.6120  142.7780 N   0  0  0  0  0  2  0  0  0  0  0  0
  192.1050  176.1100  144.5720 C   0  0  0  0  0  0  0  0  0  0  0  0
  192.1500  174.2660  142.8020 N   0  0  0  0  0  0  0  0  0  0  0  0
  195.6900  174.5410  146.1370 C   0  0  0  0  0  3  0  0  0  0  0  0
  197.4260  172.9120  146.0820 F   0  0  0  0  0  0  0  0  0  0  0  0
  192.7530  176.7030  145.6630 C   0  0  0  0  0  3  0  0  0  0  0  0
  194.4830  173.2900  143.9470 C   0  0  0  0  0  3  0  0  0  0  0  0
  189.6110  173.5520  140.2800 C   0  0  0  0  0  0  0  0  0  0  0  0
  195.6720  172.7810  144.4770 C   0  0  0  0  0  3  0  0  0  0  0  0
  189.4480  172.7570  139.2340 C   0  0  0  0  0  2  0  0  0  0  0  0
  193.8790  174.4290  144.5050 C   0  0  0  0  0  0  0  0  0  0  0  0
  190.8250  176.7980  144.1690 C   0  0  2  0  0  3  0  0  0  0  0  0
  196.2740  173.4060  145.5710 C   0  0  0  0  0  0  0  0  0  0  0  0
  194.5000  175.0550  145.6120 C   0  0  0  0  0  0  0  0  0  0  0  0
  189.9200  175.2660  142.6180 C   0  0  1  0  0  3  0  0  0  0  0  0
  192.6730  174.9440  143.9690 C   0  0  0  0  0  0  0  0  0  0  0  0
  190.8230  173.5090  141.0290 N   0  0  0  0  0  2  0  0  0  0  0  0
  193.9340  176.1860  146.1800 C   0  0  0  0  0  3  0  0  0  0  0  0
  188.5660  174.5040  140.6500 C   0  0  0  0  0  3  0  0  0  0  0  0
  188.7140  175.2950  141.7120 C   0  0  0  0  0  3  0  0  0  0  0  0
  191.0240  174.3590  142.1620 C   0  0  0  0  0  0  0  0  0  0  0  0
  187.5350  176.4100  146.8850 C   0  0  0  0  0  3  0  0  0  0  0  0
  189.6880  176.6470  145.1480 C   0  0  0  0  0  0  0  0  0  0  0  0
  189.6450  175.5900  146.0670 C   0  0  0  0  0  3  0  0  0  0  0  0
  188.5660  175.4700  146.9420 C   0  0  0  0  0  3  0  0  0  0  0  0
  187.5880  177.4270  145.9830 N   0  0  0  0  0  0  0  0  0  0  0  0
  188.6320  177.5610  145.1210 C   0  0  0  0  0  3  0  0  0  0  0  0
  1 12  1  0  0  0  0
  2  6  1  0  0  0  0
  3 16  1  0  0  0  0
  6 18  2  0  0  0  0
  7  9  2  0  0  0  0
  7 11  1  0  0  0  0
  8 19  1  0  0  0  0
  8 17  1  0  0  0  0
  9 13  1  0  0  0  0
 10  8  2  0  0  0  0
 11 14  2  0  0  0  0
 12  2  1  0  0  0  0
 12 23  1  1  0  0  0
 13  5  1  0  0  0  0
 13  4  2  0  0  0  0
 14  4  1  0  0  0  0
 14 18  1  0  0  0  0
 15 20  1  6  0  0  0
 15  1  1  0  0  0  0
 16 11  1  0  0  0  0
 16  2  2  0  0  0  0
 17 21  1  0  0  0  0
 19 20  2  0  0  0  0
 21 15  1  0  0  0  0
 21  3  2  0  0  0  0
 22 25  1  0  0  0  0
 23 24  1  0  0  0  0
 24 25  2  0  0  0  0
 26 22  2  0  0  0  0
 27 23  2  0  0  0  0
 27 26  1  0  0  0  0
M  END
>  <MODEL>
7

>  <REMARK>
 VINA RESULT:      -7.3      3.373      7.295
  Name = 
  1 active torsions:
  status: ('A' for Active; 'I' for Inactive)
    1  A    between atoms: C_9  and  C_15
                            x       y       z     vdW  Elec       q    Type
                         _______ _______ _______ _____ _____    ______ ____

>  <TORSDO>
F 1

$$$$
=
 OpenBabel11052418243D

 27 31  0  0  1  0  0  0  0  0999 V2000
  190.0470  173.5100  144.9080 N   0  0  0  0  0  2  0  0  0  0  0  0
  189.0500  175.7380  144.3490 C   0  0  0  0  0  0  0  0  0  0  0  0
  189.0860  174.2550  142.2680 N   0  0  0  0  0  0  0  0  0  0  0  0
  186.5060  178.3870  142.2840 C   0  0  0  0  0  3  0  0  0  0  0  0
  185.3150  178.9870  140.3100 F   0  0  0  0  0  0  0  0  0  0  0  0
  188.5460  176.8950  144.9560 C   0  0  0  0  0  3  0  0  0  0  0  0
  187.4480  176.0960  140.9880 C   0  0  0  0  0  3  0  0  0  0  0  0
  191.0460  171.2230  141.7380 C   0  0  0  0  0  0  0  0  0  0  0  0
  186.6040  176.9840  140.3160 C   0  0  0  0  0  3  0  0  0  0  0  0
  191.1630  170.2630  140.8340 C   0  0  0  0  0  2  0  0  0  0  0  0
  187.8350  176.3410  142.3160 C   0  0  0  0  0  0  0  0  0  0  0  0
  189.9620  174.9270  145.2370 C   0  0  2  0  0  3  0  0  0  0  0  0
  186.1340  178.1280  140.9630 C   0  0  0  0  0  0  0  0  0  0  0  0
  187.3510  177.5030  142.9620 C   0  0  0  0  0  0  0  0  0  0  0  0
  190.8510  173.3590  143.7130 C   0  0  1  0  0  3  0  0  0  0  0  0
  188.6930  175.4420  142.9960 C   0  0  0  0  0  0  0  0  0  0  0  0
  190.1060  172.2770  141.5450 N   0  0  0  0  0  2  0  0  0  0  0  0
  187.7080  177.7700  144.2750 C   0  0  0  0  0  3  0  0  0  0  0  0
  191.8500  171.1870  142.9580 C   0  0  0  0  0  3  0  0  0  0  0  0
  191.7510  172.1580  143.8650 C   0  0  0  0  0  3  0  0  0  0  0  0
  189.9580  173.3240  142.5080 C   0  0  0  0  0  0  0  0  0  0  0  0
  193.7760  176.6640  146.1210 C   0  0  0  0  0  3  0  0  0  0  0  0
  191.2960  175.5650  145.5280 C   0  0  0  0  0  0  0  0  0  0  0  0
  191.9390  176.3860  144.5910 C   0  0  0  0  0  3  0  0  0  0  0  0
  193.1840  176.9410  144.8870 C   0  0  0  0  0  3  0  0  0  0  0  0
  193.1430  175.8600  147.0170 N   0  0  0  0  0  0  0  0  0  0  0  0
  191.9290  175.3100  146.7470 C   0  0  0  0  0  3  0  0  0  0  0  0
  1 12  1  0  0  0  0
  2  6  1  0  0  0  0
  2 12  1  0  0  0  0
  3 21  2  0  0  0  0
  3 16  1  0  0  0  0
  4 14  1  0  0  0  0
  5 13  1  0  0  0  0
  7 11  1  0  0  0  0
  8 19  1  0  0  0  0
  9 13  1  0  0  0  0
  9  7  2  0  0  0  0
 10  8  2  0  0  0  0
 11 14  2  0  0  0  0
 11 16  1  0  0  0  0
 12 23  1  6  0  0  0
 13  4  2  0  0  0  0
 14 18  1  0  0  0  0
 15 20  1  1  0  0  0
 15  1  1  0  0  0  0
 16  2  2  0  0  0  0
 17  8  1  0  0  0  0
 17 21  1  0  0  0  0
 18  6  2  0  0  0  0
 19 20  2  0  0  0  0
 21 15  1  0  0  0  0
 22 26  1  0  0  0  0
 23 27  1  0  0  0  0
 24 25  1  0  0  0  0
 24 23  2  0  0  0  0
 25 22  2  0  0  0  0
 27 26  2  0  0  0  0
M  END
>  <MODEL>
8

>  <REMARK>
 VINA RESULT:      -7.0      2.272      5.249
  Name = 
  1 active torsions:
  status: ('A' for Active; 'I' for Inactive)
    1  A    between atoms: C_9  and  C_15
                            x       y       z     vdW  Elec       q    Type
                         _______ _______ _______ _____ _____    ______ ____

>  <TORSDO>
F 1

$$$$
=
 OpenBabel11052418243D

 27 31  0  0  1  0  0  0  0  0999 V2000
  186.0920  179.2180  143.6430 N   0  0  0  0  0  2  0  0  0  0  0  0
  187.9320  177.5200  143.7070 C   0  0  0  0  0  0  0  0  0  0  0  0
  186.2900  176.9530  141.8310 N   0  0  0  0  0  0  0  0  0  0  0  0
  190.6050  174.7050  142.0680 C   0  0  0  0  0  3  0  0  0  0  0  0
  191.1200  173.0660  140.4190 F   0  0  0  0  0  0  0  0  0  0  0  0
  189.1960  177.2960  144.2660 C   0  0  0  0  0  3  0  0  0  0  0  0
  188.1090  175.0890  140.8690 C   0  0  0  0  0  3  0  0  0  0  0  0
  182.8910  178.2110  141.4030 C   0  0  0  0  0  0  0  0  0  0  0  0
  189.0060  174.1590  140.3370 C   0  0  0  0  0  3  0  0  0  0  0  0
  181.9180  178.1540  140.5080 C   0  0  0  0  0  2  0  0  0  0  0  0
  188.4450  175.8390  142.0090 C   0  0  0  0  0  0  0  0  0  0  0  0
  187.1070  178.5460  144.4450 C   0  0  2  0  0  3  0  0  0  0  0  0
  190.2520  173.9670  140.9360 C   0  0  0  0  0  0  0  0  0  0  0  0
  189.7120  175.6370  142.6060 C   0  0  0  0  0  0  0  0  0  0  0  0
  184.9960  178.2990  143.4190 C   0  0  1  0  0  3  0  0  0  0  0  0
  187.5350  176.7800  142.5490 C   0  0  0  0  0  0  0  0  0  0  0  0
  184.1260  177.5410  141.1620 N   0  0  0  0  0  2  0  0  0  0  0  0
  190.0770  176.3670  143.7270 C   0  0  0  0  0  3  0  0  0  0  0  0
  182.7210  178.9920  142.6260 C   0  0  0  0  0  3  0  0  0  0  0  0
  183.6880  179.0410  143.5410 C   0  0  0  0  0  3  0  0  0  0  0  0
  185.1940  177.5890  142.1120 C   0  0  0  0  0  0  0  0  0  0  0  0
  185.6530  177.3780  148.3000 C   0  0  0  0  0  3  0  0  0  0  0  0
  186.6210  178.1130  145.8040 C   0  0  0  0  0  0  0  0  0  0  0  0
  186.7980  176.8010  146.2630 C   0  0  0  0  0  3  0  0  0  0  0  0
  186.3150  176.4290  147.5180 C   0  0  0  0  0  3  0  0  0  0  0  0
  185.4830  178.6460  147.8370 N   0  0  0  0  0  0  0  0  0  0  0  0
  185.9470  179.0270  146.6170 C   0  0  0  0  0  3  0  0  0  0  0  0
  1 12  1  0  0  0  0
  2  6  1  0  0  0  0
  2 12  1  0  0  0  0
  3 21  2  0  0  0  0
  3 16  1  0  0  0  0
  4 14  1  0  0  0  0
  5 13  1  0  0  0  0
  7 11  1  0  0  0  0
  8 19  1  0  0  0  0
  9  7  2  0  0  0  0
  9 13  1  0  0  0  0
 10  8  2  0  0  0  0
 11 16  1  0  0  0  0
 11 14  2  0  0  0  0
 12 23  1  1  0  0  0
 13  4  2  0  0  0  0
 14 18  1  0  0  0  0
 15 20  1  6  0  0  0
 15  1  1  0  0  0  0
 16  2  2  0  0  0  0
 17  8  1  0  0  0  0
 17 21  1  0  0  0  0
 18  6  2  0  0  0  0
 19 20  2  0  0  0  0
 21 15  1  0  0  0  0
 23 24  2  0  0  0  0
 23 27  1  0  0  0  0
 24 25  1  0  0  0  0
 25 22  2  0  0  0  0
 26 22  1  0  0  0  0
 27 26  2  0  0  0  0
M  END
>  <MODEL>
9

>  <REMARK>
 VINA RESULT:      -6.8      3.706      7.825
  Name = 
  1 active torsions:
  status: ('A' for Active; 'I' for Inactive)
    1  A    between atoms: C_9  and  C_15
                            x       y       z     vdW  Elec       q    Type
                         _______ _______ _______ _____ _____    ______ ____

>  <TORSDO>
F 1

$$$$
