=
 OpenBabel11052420583D

 43 47  0  0  1  0  0  0  0  0999 V2000
  185.0520  178.2050  146.9680 C   0  0  0  0  0  0  0  0  0  0  0  0
  188.1220  176.4020  143.3570 C   0  0  0  0  0  0  0  0  0  0  0  0
  190.7240  177.2240  144.0240 C   0  0  0  0  0  0  0  0  0  0  0  0
  185.9450  177.1260  144.9890 C   0  0  0  0  0  0  0  0  0  0  0  0
  186.3400  178.5930  147.3430 C   0  0  0  0  0  3  0  0  0  0  0  0
  183.9920  178.5460  147.7400 F   0  0  0  0  0  0  0  0  0  0  0  0
  187.2550  177.5110  145.3640 C   0  0  0  0  0  0  0  0  0  0  0  0
  184.8550  177.4740  145.7920 C   0  0  0  0  0  3  0  0  0  0  0  0
  187.4350  178.2490  146.5470 C   0  0  0  0  0  3  0  0  0  0  0  0
  189.6530  177.5500  144.8610 C   0  0  0  0  0  3  0  0  0  0  0  0
  188.3470  177.1570  144.5390 C   0  0  0  0  0  0  0  0  0  0  0  0
  186.8130  176.0500  143.0040 C   0  0  0  0  0  3  0  0  0  0  0  0
  189.2130  176.0480  142.5310 C   0  0  0  0  0  0  0  0  0  0  0  0
  190.5000  176.4780  142.8660 C   0  0  0  0  0  3  0  0  0  0  0  0
  185.7360  176.4050  143.8130 C   0  0  0  0  0  3  0  0  0  0  0  0
  192.1130  177.6470  144.3660 C   0  0  2  0  0  3  0  0  0  0  0  0
  192.3410  178.9260  143.8910 F   0  0  0  0  0  0  0  0  0  0  0  0
  193.1260  176.6670  143.7850 C   0  0  0  0  0  2  0  0  0  0  0  0
  195.0240  175.2820  144.8130 N   0  0  0  0  0  2  0  0  0  0  0  0
  194.3280  176.5320  144.6670 C   0  0  0  0  0  0  0  0  0  0  0  0
  194.7260  177.5320  145.3150 O   0  0  0  0  0  0  0  0  0  0  0  0
  194.6910  174.0710  144.1690 N   0  0  0  0  0  0  0  0  0  0  0  0
  195.9150  173.3270  143.8960 C   0  0  0  0  0  2  0  0  0  0  0  0
  197.1760  171.3590  145.3320 S   0  0  0  0  0  1  0  0  0  0  0  0
  196.6990  173.1060  145.1780 C   0  0  0  0  0  2  0  0  0  0  0  0
  193.8450  173.2790  145.0530 C   0  0  0  0  0  2  0  0  0  0  0  0
  192.4080  173.4540  144.6790 C   0  0  0  0  0  0  0  0  0  0  0  0
  192.0430  173.1320  143.5150 O   0  0  0  0  0  0  0  0  0  0  0  0
  191.4300  174.0060  145.6380 C   0  0  0  0  0  0  0  0  0  0  0  0
  190.9440  175.3580  147.6020 C   0  0  0  0  0  3  0  0  0  0  0  0
  189.1380  174.2720  146.4080 C   0  0  0  0  0  3  0  0  0  0  0  0
  189.5810  175.0830  147.4550 C   0  0  0  0  0  3  0  0  0  0  0  0
  190.0590  173.7380  145.5020 C   0  0  0  0  0  3  0  0  0  0  0  0
  191.8650  174.8210  146.6960 C   0  0  0  0  0  3  0  0  0  0  0  0
  189.0500  175.2940  141.3620 O   0  0  0  0  0  0  0  0  0  0  0  0
  191.0060  172.3980  140.0770 C   0  0  0  0  0  3  0  0  0  0  0  0
  190.4740  171.3590  140.8580 C   0  0  0  0  0  0  0  0  0  0  0  0
  189.0110  172.9570  141.9530 C   0  0  0  0  0  3  0  0  0  0  0  0
  190.5430  173.7070  140.2360 C   0  0  0  0  0  3  0  0  0  0  0  0
  189.5460  173.9950  141.1830 C   0  0  0  0  0  0  0  0  0  0  0  0
  189.4730  171.6480  141.7920 C   0  0  0  0  0  3  0  0  0  0  0  0
  190.9170  170.0410  140.7250 O   0  0  0  0  0  0  0  0  0  0  0  0
  190.9290  169.1200  141.8070 C   0  0  0  0  0  1  0  0  0  0  0  0
  1  5  1  0  0  0  0
  1  6  1  0  0  0  0
  2 11  1  0  0  0  0
  3 16  1  0  0  0  0
  3 10  1  0  0  0  0
  4  7  2  0  0  0  0
  4  8  1  0  0  0  0
  7  9  1  0  0  0  0
  8  1  2  0  0  0  0
  9  5  2  0  0  0  0
 11 10  2  0  0  0  0
 11  7  1  0  0  0  0
 12  2  1  0  0  0  0
 12 15  2  0  0  0  0
 13 14  1  0  0  0  0
 13  2  2  0  0  0  0
 14  3  2  0  0  0  0
 15  4  1  0  0  0  0
 16 17  1  6  0  0  0
 18 16  1  0  0  0  0
 18 20  1  0  0  0  0
 20 19  1  0  0  0  0
 20 21  2  0  0  0  0
 22 19  1  0  0  0  0
 22 26  1  0  0  0  0
 23 22  1  0  0  0  0
 23 25  1  0  0  0  0
 25 24  1  0  0  0  0
 27 26  1  0  0  0  0
 27 29  1  0  0  0  0
 28 27  2  0  0  0  0
 29 34  1  0  0  0  0
 31 32  2  0  0  0  0
 32 30  1  0  0  0  0
 33 29  2  0  0  0  0
 33 31  1  0  0  0  0
 34 30  2  0  0  0  0
 35 13  1  0  0  0  0
 36 39  2  0  0  0  0
 36 37  1  0  0  0  0
 37 41  2  0  0  0  0
 39 40  1  0  0  0  0
 40 35  1  0  0  0  0
 40 38  2  0  0  0  0
 41 38  1  0  0  0  0
 42 37  1  0  0  0  0
 42 43  1  0  0  0  0
M  END
>  <MODEL>
1

>  <REMARK>
 VINA RESULT:      -7.2      0.000      0.000
  Name = 
  12 active torsions:
  status: ('A' for Active; 'I' for Inactive)
    1  A    between atoms: O_1  and  C_34
    2  A    between atoms: O_1  and  C_35
    3  A    between atoms: C_2  and  C_6
    4  A    between atoms: C_2  and  C_13
    5  A    between atoms: N_3  and  N_4
    6  A    between atoms: N_4  and  C_15
    7  A    between atoms: N_4  and  C_22
    8  A    between atoms: C_6  and  C_12
    9  A    between atoms: C_11  and  C_14
   10  A    between atoms: C_14  and  C_22
   11  A    between atoms: C_15  and  C_42
   12  A    between atoms: C_19  and  O_25
                            x       y       z     vdW  Elec       q    Type
                         _______ _______ _______ _____ _____    ______ ____

>  <TORSDO>
F 12

$$$$
=
 OpenBabel11052420583D

 43 47  0  0  1  0  0  0  0  0999 V2000
  186.1150  177.4620  144.4660 C   0  0  0  0  0  0  0  0  0  0  0  0
  190.8030  176.3100  142.9170 C   0  0  0  0  0  0  0  0  0  0  0  0
  190.5520  174.1860  141.0950 C   0  0  0  0  0  0  0  0  0  0  0  0
  188.5180  177.3890  144.1570 C   0  0  0  0  0  0  0  0  0  0  0  0
  185.9590  176.4340  143.5350 C   0  0  0  0  0  3  0  0  0  0  0  0
  185.0270  177.9930  145.0750 F   0  0  0  0  0  0  0  0  0  0  0  0
  188.3700  176.3490  143.2090 C   0  0  0  0  0  0  0  0  0  0  0  0
  187.3920  177.9380  144.7780 C   0  0  0  0  0  3  0  0  0  0  0  0
  187.0790  175.8790  142.9100 C   0  0  0  0  0  3  0  0  0  0  0  0
  189.4110  174.7460  141.6750 C   0  0  0  0  0  3  0  0  0  0  0  0
  189.5180  175.7990  142.5930 C   0  0  0  0  0  0  0  0  0  0  0  0
  190.9190  177.3280  143.8710 C   0  0  0  0  0  3  0  0  0  0  0  0
  191.9520  175.7610  142.3020 C   0  0  0  0  0  0  0  0  0  0  0  0
  191.8140  174.6940  141.4110 C   0  0  0  0  0  3  0  0  0  0  0  0
  189.7880  177.8650  144.4830 C   0  0  0  0  0  3  0  0  0  0  0  0
  190.4380  173.0610  140.1210 C   0  0  2  0  0  3  0  0  0  0  0  0
  189.2250  173.1400  139.4600 F   0  0  0  0  0  0  0  0  0  0  0  0
  190.5780  171.7230  140.8370 C   0  0  0  0  0  2  0  0  0  0  0  0
  192.6230  170.8590  142.1190 N   0  0  0  0  0  2  0  0  0  0  0  0
  192.0050  171.2750  140.8900 C   0  0  0  0  0  0  0  0  0  0  0  0
  192.6890  171.2850  139.8350 O   0  0  0  0  0  0  0  0  0  0  0  0
  191.9970  170.8070  143.3830 N   0  0  0  0  0  0  0  0  0  0  0  0
  192.6530  169.7910  144.1970 C   0  0  0  0  0  2  0  0  0  0  0  0
  194.6770  169.4860  146.0230 S   0  0  0  0  0  1  0  0  0  0  0  0
  194.1080  170.1570  144.4330 C   0  0  0  0  0  2  0  0  0  0  0  0
  192.1410  172.1020  144.0380 C   0  0  0  0  0  2  0  0  0  0  0  0
  190.8060  172.5960  144.4960 C   0  0  0  0  0  0  0  0  0  0  0  0
  189.7680  172.0750  144.0030 O   0  0  0  0  0  0  0  0  0  0  0  0
  190.6930  173.6800  145.4910 C   0  0  0  0  0  0  0  0  0  0  0  0
  189.3140  175.0980  146.9090 C   0  0  0  0  0  3  0  0  0  0  0  0
  191.7230  175.3370  146.9440 C   0  0  0  0  0  3  0  0  0  0  0  0
  190.4620  175.7250  147.4010 C   0  0  0  0  0  3  0  0  0  0  0  0
  191.8380  174.3180  145.9940 C   0  0  0  0  0  3  0  0  0  0  0  0
  189.4290  174.0790  145.9570 C   0  0  0  0  0  3  0  0  0  0  0  0
  193.2420  176.2350  142.5740 O   0  0  0  0  0  0  0  0  0  0  0  0
  195.3060  175.7000  145.6270 C   0  0  0  0  0  3  0  0  0  0  0  0
  195.8970  174.4620  145.3260 C   0  0  0  0  0  0  0  0  0  0  0  0
  194.7120  174.4310  143.2080 C   0  0  0  0  0  3  0  0  0  0  0  0
  194.4220  176.2960  144.7230 C   0  0  0  0  0  3  0  0  0  0  0  0
  194.1140  175.6600  143.5090 C   0  0  0  0  0  0  0  0  0  0  0  0
  195.5960  173.8360  144.1120 C   0  0  0  0  0  3  0  0  0  0  0  0
  196.7810  173.8380  146.2100 O   0  0  0  0  0  0  0  0  0  0  0  0
  197.0130  172.4360  146.2040 C   0  0  0  0  0  1  0  0  0  0  0  0
  1  8  1  0  0  0  0
  1  6  1  0  0  0  0
  2 12  1  0  0  0  0
  3 14  2  0  0  0  0
  3 10  1  0  0  0  0
  4 15  1  0  0  0  0
  4  8  2  0  0  0  0
  5  1  2  0  0  0  0
  7  4  1  0  0  0  0
  9  7  2  0  0  0  0
  9  5  1  0  0  0  0
 10 11  2  0  0  0  0
 11  2  1  0  0  0  0
 11  7  1  0  0  0  0
 12 15  2  0  0  0  0
 13 35  1  0  0  0  0
 13  2  2  0  0  0  0
 14 13  1  0  0  0  0
 16 17  1  1  0  0  0
 16 18  1  0  0  0  0
 16  3  1  0  0  0  0
 18 20  1  0  0  0  0
 19 22  1  0  0  0  0
 20 19  1  0  0  0  0
 21 20  2  0  0  0  0
 22 26  1  0  0  0  0
 22 23  1  0  0  0  0
 23 25  1  0  0  0  0
 25 24  1  0  0  0  0
 26 27  1  0  0  0  0
 27 29  1  0  0  0  0
 28 27  2  0  0  0  0
 29 34  2  0  0  0  0
 29 33  1  0  0  0  0
 30 32  2  0  0  0  0
 31 32  1  0  0  0  0
 33 31  2  0  0  0  0
 34 30  1  0  0  0  0
 35 40  1  0  0  0  0
 37 36  1  0  0  0  0
 37 42  1  0  0  0  0
 38 40  2  0  0  0  0
 38 41  1  0  0  0  0
 39 36  2  0  0  0  0
 40 39  1  0  0  0  0
 41 37  2  0  0  0  0
 43 42  1  0  0  0  0
M  END
>  <MODEL>
2

>  <REMARK>
 VINA RESULT:      -7.1      2.259      4.882
  Name = 
  12 active torsions:
  status: ('A' for Active; 'I' for Inactive)
    1  A    between atoms: O_1  and  C_34
    2  A    between atoms: O_1  and  C_35
    3  A    between atoms: C_2  and  C_6
    4  A    between atoms: C_2  and  C_13
    5  A    between atoms: N_3  and  N_4
    6  A    between atoms: N_4  and  C_15
    7  A    between atoms: N_4  and  C_22
    8  A    between atoms: C_6  and  C_12
    9  A    between atoms: C_11  and  C_14
   10  A    between atoms: C_14  and  C_22
   11  A    between atoms: C_15  and  C_42
   12  A    between atoms: C_19  and  O_25
                            x       y       z     vdW  Elec       q    Type
                         _______ _______ _______ _____ _____    ______ ____

>  <TORSDO>
F 12

$$$$
=
 OpenBabel11052420583D

 43 47  0  0  1  0  0  0  0  0999 V2000
  186.0240  178.3860  147.2300 C   0  0  0  0  0  0  0  0  0  0  0  0
  190.4980  176.0580  146.7130 C   0  0  0  0  0  0  0  0  0  0  0  0
  190.0280  173.7270  145.2180 C   0  0  0  0  0  0  0  0  0  0  0  0
  188.3680  177.7800  147.3590 C   0  0  0  0  0  0  0  0  0  0  0  0
  185.7690  177.2550  146.4520 C   0  0  0  0  0  3  0  0  0  0  0  0
  185.0100  179.2250  147.5530 F   0  0  0  0  0  0  0  0  0  0  0  0
  188.1200  176.6330  146.5680 C   0  0  0  0  0  0  0  0  0  0  0  0
  187.3200  178.6480  147.6840 C   0  0  0  0  0  3  0  0  0  0  0  0
  186.8100  176.3830  146.1230 C   0  0  0  0  0  3  0  0  0  0  0  0
  188.9740  174.6000  145.4990 C   0  0  0  0  0  3  0  0  0  0  0  0
  189.1880  175.7630  146.2510 C   0  0  0  0  0  0  0  0  0  0  0  0
  190.7090  177.1920  147.5080 C   0  0  0  0  0  3  0  0  0  0  0  0
  191.5670  175.1880  146.3990 C   0  0  0  0  0  0  0  0  0  0  0  0
  191.3160  174.0230  145.6680 C   0  0  0  0  0  3  0  0  0  0  0  0
  189.6550  178.0460  147.8250 C   0  0  0  0  0  3  0  0  0  0  0  0
  189.7980  172.4870  144.4200 C   0  0  2  0  0  3  0  0  0  0  0  0
  189.4070  171.4600  145.2590 F   0  0  0  0  0  0  0  0  0  0  0  0
  191.0590  172.1080  143.6520 C   0  0  0  0  0  2  0  0  0  0  0  0
  190.6770  172.0470  141.1170 N   0  0  0  0  0  2  0  0  0  0  0  0
  190.7330  171.3760  142.3880 C   0  0  0  0  0  0  0  0  0  0  0  0
  190.4780  170.1470  142.4410 O   0  0  0  0  0  0  0  0  0  0  0  0
  190.9210  173.4190  140.8960 N   0  0  0  0  0  0  0  0  0  0  0  0
  191.9540  173.5600  139.8760 C   0  0  0  0  0  2  0  0  0  0  0  0
  193.7220  174.0770  141.9090 S   0  0  0  0  0  1  0  0  0  0  0  0
  193.3010  173.1200  140.4220 C   0  0  0  0  0  2  0  0  0  0  0  0
  189.6960  174.0490  140.4160 C   0  0  0  0  0  2  0  0  0  0  0  0
  188.9060  174.5770  141.5690 C   0  0  0  0  0  0  0  0  0  0  0  0
  187.8770  173.9460  141.9370 O   0  0  0  0  0  0  0  0  0  0  0  0
  189.3020  175.8190  142.2630 C   0  0  0  0  0  0  0  0  0  0  0  0
  188.6990  177.9500  143.2690 C   0  0  0  0  0  3  0  0  0  0  0  0
  191.0100  177.2290  143.2670 C   0  0  0  0  0  3  0  0  0  0  0  0
  190.0370  178.1740  143.6010 C   0  0  0  0  0  3  0  0  0  0  0  0
  190.6430  176.0560  142.6020 C   0  0  0  0  0  3  0  0  0  0  0  0
  188.3330  176.7760  142.6020 C   0  0  0  0  0  3  0  0  0  0  0  0
  192.8810  175.4380  146.8160 O   0  0  0  0  0  0  0  0  0  0  0  0
  196.0320  174.6360  145.0020 C   0  0  0  0  0  3  0  0  0  0  0  0
  196.1810  175.7910  144.2180 C   0  0  0  0  0  0  0  0  0  0  0  0
  194.1370  176.6830  145.1780 C   0  0  0  0  0  3  0  0  0  0  0  0
  194.9400  174.5060  145.8660 C   0  0  0  0  0  3  0  0  0  0  0  0
  193.9810  175.5290  145.9530 C   0  0  0  0  0  0  0  0  0  0  0  0
  195.2290  176.8120  144.3150 C   0  0  0  0  0  3  0  0  0  0  0  0
  197.2580  175.9500  143.3430 O   0  0  0  0  0  0  0  0  0  0  0  0
  197.1390  175.7810  141.9370 C   0  0  0  0  0  1  0  0  0  0  0  0
  1  6  1  0  0  0  0
  1  8  1  0  0  0  0
  2 12  1  0  0  0  0
  3 10  2  0  0  0  0
  3 14  1  0  0  0  0
  4  8  2  0  0  0  0
  4 15  1  0  0  0  0
  5  1  2  0  0  0  0
  7  4  1  0  0  0  0
  9  5  1  0  0  0  0
  9  7  2  0  0  0  0
 10 11  1  0  0  0  0
 11  7  1  0  0  0  0
 11  2  2  0  0  0  0
 12 15  2  0  0  0  0
 13  2  1  0  0  0  0
 13 35  1  0  0  0  0
 14 13  2  0  0  0  0
 16  3  1  0  0  0  0
 16 17  1  1  0  0  0
 18 16  1  0  0  0  0
 19 20  1  0  0  0  0
 20 21  2  0  0  0  0
 20 18  1  0  0  0  0
 22 19  1  0  0  0  0
 23 25  1  0  0  0  0
 23 22  1  0  0  0  0
 25 24  1  0  0  0  0
 26 22  1  0  0  0  0
 26 27  1  0  0  0  0
 27 28  2  0  0  0  0
 27 29  1  0  0  0  0
 29 33  2  0  0  0  0
 29 34  1  0  0  0  0
 30 32  1  0  0  0  0
 31 32  2  0  0  0  0
 33 31  1  0  0  0  0
 34 30  2  0  0  0  0
 36 39  1  0  0  0  0
 37 41  1  0  0  0  0
 37 36  2  0  0  0  0
 38 40  1  0  0  0  0
 39 40  2  0  0  0  0
 40 35  1  0  0  0  0
 41 38  2  0  0  0  0
 42 37  1  0  0  0  0
 43 42  1  0  0  0  0
M  END
>  <MODEL>
3

>  <REMARK>
 VINA RESULT:      -7.0      2.450      5.645
  Name = 
  12 active torsions:
  status: ('A' for Active; 'I' for Inactive)
    1  A    between atoms: O_1  and  C_34
    2  A    between atoms: O_1  and  C_35
    3  A    between atoms: C_2  and  C_6
    4  A    between atoms: C_2  and  C_13
    5  A    between atoms: N_3  and  N_4
    6  A    between atoms: N_4  and  C_15
    7  A    between atoms: N_4  and  C_22
    8  A    between atoms: C_6  and  C_12
    9  A    between atoms: C_11  and  C_14
   10  A    between atoms: C_14  and  C_22
   11  A    between atoms: C_15  and  C_42
   12  A    between atoms: C_19  and  O_25
                            x       y       z     vdW  Elec       q    Type
                         _______ _______ _______ _____ _____    ______ ____

>  <TORSDO>
F 12

$$$$
=
 OpenBabel11052420583D

 43 47  0  0  1  0  0  0  0  0999 V2000
  185.9000  178.3290  147.1680 C   0  0  0  0  0  0  0  0  0  0  0  0
  190.4200  176.0800  146.7000 C   0  0  0  0  0  0  0  0  0  0  0  0
  190.0090  173.7470  145.1910 C   0  0  0  0  0  0  0  0  0  0  0  0
  188.2520  177.7630  147.3250 C   0  0  0  0  0  0  0  0  0  0  0  0
  185.6750  177.1970  146.3830 C   0  0  0  0  0  3  0  0  0  0  0  0
  184.8690  179.1500  147.4810 F   0  0  0  0  0  0  0  0  0  0  0  0
  188.0350  176.6150  146.5260 C   0  0  0  0  0  0  0  0  0  0  0  0
  187.1860  178.6120  147.6390 C   0  0  0  0  0  3  0  0  0  0  0  0
  186.7350  176.3440  146.0650 C   0  0  0  0  0  3  0  0  0  0  0  0
  188.9360  174.6000  145.4620 C   0  0  0  0  0  3  0  0  0  0  0  0
  189.1210  175.7640  146.2210 C   0  0  0  0  0  0  0  0  0  0  0  0
  190.6010  177.2140  147.5010 C   0  0  0  0  0  3  0  0  0  0  0  0
  191.5080  175.2290  146.3960 C   0  0  0  0  0  0  0  0  0  0  0  0
  191.2850  174.0630  145.6590 C   0  0  0  0  0  3  0  0  0  0  0  0
  189.5290  178.0500  147.8080 C   0  0  0  0  0  3  0  0  0  0  0  0
  189.8100  172.5060  144.3860 C   0  0  2  0  0  3  0  0  0  0  0  0
  189.4850  171.4540  145.2240 F   0  0  0  0  0  0  0  0  0  0  0  0
  191.0650  172.1870  143.5820 C   0  0  0  0  0  2  0  0  0  0  0  0
  190.6740  172.0750  141.0500 N   0  0  0  0  0  2  0  0  0  0  0  0
  190.7390  171.4290  142.3330 C   0  0  0  0  0  0  0  0  0  0  0  0
  190.4920  170.1990  142.4110 O   0  0  0  0  0  0  0  0  0  0  0  0
  190.9070  173.4450  140.8020 N   0  0  0  0  0  0  0  0  0  0  0  0
  191.9220  173.5730  139.7630 C   0  0  0  0  0  2  0  0  0  0  0  0
  193.7860  174.1340  141.6960 S   0  0  0  0  0  1  0  0  0  0  0  0
  193.2730  173.1140  140.2820 C   0  0  0  0  0  2  0  0  0  0  0  0
  189.6710  174.0600  140.3320 C   0  0  0  0  0  2  0  0  0  0  0  0
  188.8750  174.5600  141.4950 C   0  0  0  0  0  0  0  0  0  0  0  0
  187.8520  173.9130  141.8490 O   0  0  0  0  0  0  0  0  0  0  0  0
  189.2580  175.7940  142.2100 C   0  0  0  0  0  0  0  0  0  0  0  0
  190.9760  177.1970  143.2100 C   0  0  0  0  0  3  0  0  0  0  0  0
  188.6660  177.9240  143.2240 C   0  0  0  0  0  3  0  0  0  0  0  0
  190.0070  178.1450  143.5490 C   0  0  0  0  0  3  0  0  0  0  0  0
  188.2950  176.7540  142.5560 C   0  0  0  0  0  3  0  0  0  0  0  0
  190.6030  176.0250  142.5430 C   0  0  0  0  0  3  0  0  0  0  0  0
  192.8110  175.5000  146.8310 O   0  0  0  0  0  0  0  0  0  0  0  0
  195.2490  176.6340  144.2550 C   0  0  0  0  0  3  0  0  0  0  0  0
  196.1850  175.5890  144.3070 C   0  0  0  0  0  0  0  0  0  0  0  0
  194.8600  174.5110  146.0310 C   0  0  0  0  0  3  0  0  0  0  0  0
  194.1270  176.6160  145.0890 C   0  0  0  0  0  3  0  0  0  0  0  0
  193.9300  175.5560  145.9890 C   0  0  0  0  0  0  0  0  0  0  0  0
  195.9810  174.5290  145.1970 C   0  0  0  0  0  3  0  0  0  0  0  0
  197.3180  175.5780  143.4890 O   0  0  0  0  0  0  0  0  0  0  0  0
  197.2570  175.7930  142.0860 C   0  0  0  0  0  1  0  0  0  0  0  0
  1  6  1  0  0  0  0
  1  8  1  0  0  0  0
  2 12  1  0  0  0  0
  3 10  2  0  0  0  0
  3 14  1  0  0  0  0
  4  8  2  0  0  0  0
  4 15  1  0  0  0  0
  5  1  2  0  0  0  0
  7  4  1  0  0  0  0
  9  5  1  0  0  0  0
  9  7  2  0  0  0  0
 10 11  1  0  0  0  0
 11  7  1  0  0  0  0
 11  2  2  0  0  0  0
 12 15  2  0  0  0  0
 13  2  1  0  0  0  0
 13 35  1  0  0  0  0
 14 13  2  0  0  0  0
 16  3  1  0  0  0  0
 16 17  1  1  0  0  0
 18 16  1  0  0  0  0
 19 20  1  0  0  0  0
 20 21  2  0  0  0  0
 20 18  1  0  0  0  0
 22 19  1  0  0  0  0
 23 25  1  0  0  0  0
 23 22  1  0  0  0  0
 25 24  1  0  0  0  0
 26 22  1  0  0  0  0
 26 27  1  0  0  0  0
 27 28  2  0  0  0  0
 27 29  1  0  0  0  0
 29 34  2  0  0  0  0
 29 33  1  0  0  0  0
 30 32  2  0  0  0  0
 31 32  1  0  0  0  0
 33 31  2  0  0  0  0
 34 30  1  0  0  0  0
 36 37  2  0  0  0  0
 36 39  1  0  0  0  0
 37 41  1  0  0  0  0
 39 40  2  0  0  0  0
 40 38  1  0  0  0  0
 40 35  1  0  0  0  0
 41 38  2  0  0  0  0
 42 37  1  0  0  0  0
 43 42  1  0  0  0  0
M  END
>  <MODEL>
4

>  <REMARK>
 VINA RESULT:      -7.0      2.459      5.596
  Name = 
  12 active torsions:
  status: ('A' for Active; 'I' for Inactive)
    1  A    between atoms: O_1  and  C_34
    2  A    between atoms: O_1  and  C_35
    3  A    between atoms: C_2  and  C_6
    4  A    between atoms: C_2  and  C_13
    5  A    between atoms: N_3  and  N_4
    6  A    between atoms: N_4  and  C_15
    7  A    between atoms: N_4  and  C_22
    8  A    between atoms: C_6  and  C_12
    9  A    between atoms: C_11  and  C_14
   10  A    between atoms: C_14  and  C_22
   11  A    between atoms: C_15  and  C_42
   12  A    between atoms: C_19  and  O_25
                            x       y       z     vdW  Elec       q    Type
                         _______ _______ _______ _____ _____    ______ ____

>  <TORSDO>
F 12

$$$$
=
 OpenBabel11052420583D

 43 47  0  0  1  0  0  0  0  0999 V2000
  196.6050  173.4640  145.6730 C   0  0  0  0  0  0  0  0  0  0  0  0
  191.9100  175.3770  145.6030 C   0  0  0  0  0  0  0  0  0  0  0  0
  190.2080  173.3100  144.7500 C   0  0  0  0  0  0  0  0  0  0  0  0
  194.6800  174.9310  145.8210 C   0  0  0  0  0  0  0  0  0  0  0  0
  195.7770  172.4090  145.2850 C   0  0  0  0  0  3  0  0  0  0  0  0
  197.9410  173.2700  145.7820 F   0  0  0  0  0  0  0  0  0  0  0  0
  193.8320  173.8660  145.4330 C   0  0  0  0  0  0  0  0  0  0  0  0
  196.0580  174.7230  145.9390 C   0  0  0  0  0  3  0  0  0  0  0  0
  194.3990  172.6080  145.1650 C   0  0  0  0  0  3  0  0  0  0  0  0
  191.5770  173.0700  144.8970 C   0  0  0  0  0  3  0  0  0  0  0  0
  192.4420  174.0920  145.3130 C   0  0  0  0  0  0  0  0  0  0  0  0
  192.7750  176.4140  145.9690 C   0  0  0  0  0  3  0  0  0  0  0  0
  190.5190  175.6040  145.4820 C   0  0  0  0  0  0  0  0  0  0  0  0
  189.6870  174.5720  145.0400 C   0  0  0  0  0  3  0  0  0  0  0  0
  194.1470  176.1930  146.0810 C   0  0  0  0  0  3  0  0  0  0  0  0
  189.2890  172.2220  144.3040 C   0  0  2  0  0  3  0  0  0  0  0  0
  189.3550  171.1630  145.1910 F   0  0  0  0  0  0  0  0  0  0  0  0
  189.6480  171.7680  142.8930 C   0  0  0  0  0  2  0  0  0  0  0  0
  189.4930  173.0650  140.6860 N   0  0  0  0  0  2  0  0  0  0  0  0
  188.8680  172.5180  141.8600 C   0  0  0  0  0  0  0  0  0  0  0  0
  187.6350  172.6950  142.0330 O   0  0  0  0  0  0  0  0  0  0  0  0
  190.8620  172.9660  140.3580 N   0  0  0  0  0  0  0  0  0  0  0  0
  191.0260  173.1990  138.9280 C   0  0  0  0  0  2  0  0  0  0  0  0
  191.1020  170.4590  138.8120 S   0  0  0  0  0  1  0  0  0  0  0  0
  190.4790  172.0260  138.1340 C   0  0  0  0  0  2  0  0  0  0  0  0
  191.6020  173.9890  141.0900 C   0  0  0  0  0  2  0  0  0  0  0  0
  192.8980  173.4290  141.5830 C   0  0  0  0  0  0  0  0  0  0  0  0
  192.9980  172.1800  141.7330 O   0  0  0  0  0  0  0  0  0  0  0  0
  194.0370  174.3100  141.9050 C   0  0  0  0  0  0  0  0  0  0  0  0
  196.4330  174.6340  142.1820 C   0  0  0  0  0  3  0  0  0  0  0  0
  194.9190  176.4940  142.5130 C   0  0  0  0  0  3  0  0  0  0  0  0
  196.2170  175.9790  142.4930 C   0  0  0  0  0  3  0  0  0  0  0  0
  193.8340  175.6630  142.2190 C   0  0  0  0  0  3  0  0  0  0  0  0
  195.3470  173.8030  141.8890 C   0  0  0  0  0  3  0  0  0  0  0  0
  189.9390  176.8470  145.7680 O   0  0  0  0  0  0  0  0  0  0  0  0
  186.3210  177.2430  146.5520 C   0  0  0  0  0  3  0  0  0  0  0  0
  185.8330  177.6850  145.3120 C   0  0  0  0  0  0  0  0  0  0  0  0
  188.0810  177.5590  144.4040 C   0  0  0  0  0  3  0  0  0  0  0  0
  187.6800  176.9640  146.7160 C   0  0  0  0  0  3  0  0  0  0  0  0
  188.5710  177.1280  145.6420 C   0  0  0  0  0  0  0  0  0  0  0  0
  186.7220  177.8370  144.2410 C   0  0  0  0  0  3  0  0  0  0  0  0
  184.4810  177.9760  145.1160 O   0  0  0  0  0  0  0  0  0  0  0  0
  183.8170  179.0380  145.7860 C   0  0  0  0  0  1  0  0  0  0  0  0
  1  6  1  0  0  0  0
  1  8  1  0  0  0  0
  2 12  1  0  0  0  0
  3 10  2  0  0  0  0
  3 14  1  0  0  0  0
  4  8  2  0  0  0  0
  4 15  1  0  0  0  0
  5  1  2  0  0  0  0
  7  4  1  0  0  0  0
  9  5  1  0  0  0  0
  9  7  2  0  0  0  0
 10 11  1  0  0  0  0
 11  7  1  0  0  0  0
 11  2  2  0  0  0  0
 12 15  2  0  0  0  0
 13  2  1  0  0  0  0
 13 35  1  0  0  0  0
 14 13  2  0  0  0  0
 16  3  1  0  0  0  0
 16 17  1  1  0  0  0
 18 16  1  0  0  0  0
 19 20  1  0  0  0  0
 20 21  2  0  0  0  0
 20 18  1  0  0  0  0
 22 19  1  0  0  0  0
 22 26  1  0  0  0  0
 23 22  1  0  0  0  0
 25 24  1  0  0  0  0
 25 23  1  0  0  0  0
 26 27  1  0  0  0  0
 27 28  2  0  0  0  0
 27 29  1  0  0  0  0
 29 33  1  0  0  0  0
 30 32  2  0  0  0  0
 32 31  1  0  0  0  0
 33 31  2  0  0  0  0
 34 29  2  0  0  0  0
 34 30  1  0  0  0  0
 36 39  1  0  0  0  0
 37 36  2  0  0  0  0
 38 40  1  0  0  0  0
 40 35  1  0  0  0  0
 40 39  2  0  0  0  0
 41 38  2  0  0  0  0
 41 37  1  0  0  0  0
 42 37  1  0  0  0  0
 42 43  1  0  0  0  0
M  END
>  <MODEL>
5

>  <REMARK>
 VINA RESULT:      -6.6      3.270      7.831
  Name = 
  12 active torsions:
  status: ('A' for Active; 'I' for Inactive)
    1  A    between atoms: O_1  and  C_34
    2  A    between atoms: O_1  and  C_35
    3  A    between atoms: C_2  and  C_6
    4  A    between atoms: C_2  and  C_13
    5  A    between atoms: N_3  and  N_4
    6  A    between atoms: N_4  and  C_15
    7  A    between atoms: N_4  and  C_22
    8  A    between atoms: C_6  and  C_12
    9  A    between atoms: C_11  and  C_14
   10  A    between atoms: C_14  and  C_22
   11  A    between atoms: C_15  and  C_42
   12  A    between atoms: C_19  and  O_25
                            x       y       z     vdW  Elec       q    Type
                         _______ _______ _______ _____ _____    ______ ____

>  <TORSDO>
F 12

$$$$
=
 OpenBabel11052420583D

 43 47  0  0  1  0  0  0  0  0999 V2000
  185.2670  178.1790  147.2460 C   0  0  0  0  0  0  0  0  0  0  0  0
  189.9790  176.3720  146.7580 C   0  0  0  0  0  0  0  0  0  0  0  0
  189.7750  173.9570  145.3370 C   0  0  0  0  0  0  0  0  0  0  0  0
  187.6670  177.8540  147.3720 C   0  0  0  0  0  0  0  0  0  0  0  0
  185.1420  177.0030  146.5050 C   0  0  0  0  0  3  0  0  0  0  0  0
  184.1650  178.9050  147.5530 F   0  0  0  0  0  0  0  0  0  0  0  0
  187.5500  176.6620  146.6170 C   0  0  0  0  0  0  0  0  0  0  0  0
  186.5270  178.6040  147.6800 C   0  0  0  0  0  3  0  0  0  0  0  0
  186.2750  176.2480  146.1930 C   0  0  0  0  0  3  0  0  0  0  0  0
  188.6280  174.7100  145.6020 C   0  0  0  0  0  3  0  0  0  0  0  0
  188.7100  175.9120  146.3170 C   0  0  0  0  0  0  0  0  0  0  0  0
  190.0610  177.5460  147.5160 C   0  0  0  0  0  3  0  0  0  0  0  0
  191.1400  175.6220  146.4590 C   0  0  0  0  0  0  0  0  0  0  0  0
  191.0220  174.4140  145.7670 C   0  0  0  0  0  3  0  0  0  0  0  0
  188.9170  178.2820  147.8180 C   0  0  0  0  0  3  0  0  0  0  0  0
  189.6860  172.6750  144.5790 C   0  0  2  0  0  3  0  0  0  0  0  0
  190.6050  171.7720  145.0820 F   0  0  0  0  0  0  0  0  0  0  0  0
  189.9250  172.9180  143.0940 C   0  0  0  0  0  2  0  0  0  0  0  0
  188.3490  174.7070  142.1480 N   0  0  0  0  0  2  0  0  0  0  0  0
  188.6660  173.3260  142.3940 C   0  0  0  0  0  0  0  0  0  0  0  0
  187.8510  172.4390  142.0340 O   0  0  0  0  0  0  0  0  0  0  0  0
  189.1480  175.8140  142.5050 N   0  0  0  0  0  0  0  0  0  0  0  0
  190.4680  175.6590  141.9060 C   0  0  0  0  0  2  0  0  0  0  0  0
  193.1820  176.0120  142.0880 S   0  0  0  0  0  1  0  0  0  0  0  0
  191.5290  176.2900  142.7900 C   0  0  0  0  0  2  0  0  0  0  0  0
  188.5330  177.0310  141.9850 C   0  0  0  0  0  2  0  0  0  0  0  0
  188.0910  177.9030  143.1150 C   0  0  0  0  0  0  0  0  0  0  0  0
  188.9510  178.2900  143.9530 O   0  0  0  0  0  0  0  0  0  0  0  0
  186.6760  178.2970  143.2680 C   0  0  0  0  0  0  0  0  0  0  0  0
  184.3190  177.8900  142.8200 C   0  0  0  0  0  3  0  0  0  0  0  0
  184.9790  179.7920  144.1650 C   0  0  0  0  0  3  0  0  0  0  0  0
  183.9800  179.0200  143.5680 C   0  0  0  0  0  3  0  0  0  0  0  0
  186.3210  179.4300  144.0170 C   0  0  0  0  0  3  0  0  0  0  0  0
  185.6630  177.5300  142.6700 C   0  0  0  0  0  3  0  0  0  0  0  0
  192.4190  176.0360  146.8570 O   0  0  0  0  0  0  0  0  0  0  0  0
  195.2680  174.3810  145.1230 C   0  0  0  0  0  3  0  0  0  0  0  0
  195.9460  175.4990  144.6140 C   0  0  0  0  0  0  0  0  0  0  0  0
  194.2680  176.9460  145.6060 C   0  0  0  0  0  3  0  0  0  0  0  0
  194.0960  174.5460  145.8670 C   0  0  0  0  0  3  0  0  0  0  0  0
  193.5840  175.8320  146.1060 C   0  0  0  0  0  0  0  0  0  0  0  0
  195.4400  176.7800  144.8630 C   0  0  0  0  0  3  0  0  0  0  0  0
  197.1180  175.3680  143.8640 O   0  0  0  0  0  0  0  0  0  0  0  0
  197.4540  176.2490  142.8010 C   0  0  0  0  0  1  0  0  0  0  0  0
  1  6  1  0  0  0  0
  1  8  1  0  0  0  0
  2 12  1  0  0  0  0
  3 10  2  0  0  0  0
  3 14  1  0  0  0  0
  4  8  2  0  0  0  0
  4 15  1  0  0  0  0
  5  1  2  0  0  0  0
  7  4  1  0  0  0  0
  9  5  1  0  0  0  0
  9  7  2  0  0  0  0
 10 11  1  0  0  0  0
 11  7  1  0  0  0  0
 11  2  2  0  0  0  0
 12 15  2  0  0  0  0
 13  2  1  0  0  0  0
 13 35  1  0  0  0  0
 14 13  2  0  0  0  0
 16 17  1  1  0  0  0
 16  3  1  0  0  0  0
 18 16  1  0  0  0  0
 19 20  1  0  0  0  0
 19 22  1  0  0  0  0
 20 18  1  0  0  0  0
 21 20  2  0  0  0  0
 23 22  1  0  0  0  0
 23 25  1  0  0  0  0
 24 25  1  0  0  0  0
 26 22  1  0  0  0  0
 26 27  1  0  0  0  0
 27 29  1  0  0  0  0
 27 28  2  0  0  0  0
 29 33  1  0  0  0  0
 30 32  2  0  0  0  0
 32 31  1  0  0  0  0
 33 31  2  0  0  0  0
 34 30  1  0  0  0  0
 34 29  2  0  0  0  0
 36 39  1  0  0  0  0
 37 41  1  0  0  0  0
 37 36  2  0  0  0  0
 38 40  1  0  0  0  0
 39 40  2  0  0  0  0
 40 35  1  0  0  0  0
 41 38  2  0  0  0  0
 42 37  1  0  0  0  0
 43 42  1  0  0  0  0
M  END
>  <MODEL>
6

>  <REMARK>
 VINA RESULT:      -6.4      2.827      6.179
  Name = 
  12 active torsions:
  status: ('A' for Active; 'I' for Inactive)
    1  A    between atoms: O_1  and  C_34
    2  A    between atoms: O_1  and  C_35
    3  A    between atoms: C_2  and  C_6
    4  A    between atoms: C_2  and  C_13
    5  A    between atoms: N_3  and  N_4
    6  A    between atoms: N_4  and  C_15
    7  A    between atoms: N_4  and  C_22
    8  A    between atoms: C_6  and  C_12
    9  A    between atoms: C_11  and  C_14
   10  A    between atoms: C_14  and  C_22
   11  A    between atoms: C_15  and  C_42
   12  A    between atoms: C_19  and  O_25
                            x       y       z     vdW  Elec       q    Type
                         _______ _______ _______ _____ _____    ______ ____

>  <TORSDO>
F 12

$$$$
=
 OpenBabel11052420583D

 43 47  0  0  1  0  0  0  0  0999 V2000
  184.4640  178.6460  145.9550 C   0  0  0  0  0  0  0  0  0  0  0  0
  188.8190  176.1370  145.2880 C   0  0  0  0  0  0  0  0  0  0  0  0
  188.8200  175.2120  142.6350 C   0  0  0  0  0  0  0  0  0  0  0  0
  186.6260  177.5980  146.2780 C   0  0  0  0  0  0  0  0  0  0  0  0
  184.4560  178.2320  144.6220 C   0  0  0  0  0  3  0  0  0  0  0  0
  183.4160  179.3480  146.4510 F   0  0  0  0  0  0  0  0  0  0  0  0
  186.6290  177.1770  144.9260 C   0  0  0  0  0  0  0  0  0  0  0  0
  185.5460  178.3290  146.7820 C   0  0  0  0  0  3  0  0  0  0  0  0
  185.5310  177.5010  144.1100 C   0  0  0  0  0  3  0  0  0  0  0  0
  187.7470  175.9730  143.1080 C   0  0  0  0  0  3  0  0  0  0  0  0
  187.7260  176.4350  144.4310 C   0  0  0  0  0  0  0  0  0  0  0  0
  188.7800  176.5530  146.6240 C   0  0  0  0  0  3  0  0  0  0  0  0
  189.9160  175.3940  144.7940 C   0  0  0  0  0  0  0  0  0  0  0  0
  189.8950  174.9260  143.4780 C   0  0  0  0  0  3  0  0  0  0  0  0
  187.6960  177.2790  147.1140 C   0  0  0  0  0  3  0  0  0  0  0  0
  188.8390  174.7170  141.2270 C   0  0  2  0  0  3  0  0  0  0  0  0
  187.9680  175.4670  140.4580 F   0  0  0  0  0  0  0  0  0  0  0  0
  188.4680  173.2390  141.1780 C   0  0  0  0  0  2  0  0  0  0  0  0
  189.7690  171.8120  139.4910 N   0  0  0  0  0  2  0  0  0  0  0  0
  188.6590  172.6700  139.8080 C   0  0  0  0  0  0  0  0  0  0  0  0
  187.8410  172.9690  138.9010 O   0  0  0  0  0  0  0  0  0  0  0  0
  190.7760  171.3990  140.3900 N   0  0  0  0  0  0  0  0  0  0  0  0
  190.9500  169.9560  140.2780 C   0  0  0  0  0  2  0  0  0  0  0  0
  192.4190  168.6280  142.1760 S   0  0  0  0  0  1  0  0  0  0  0  0
  190.8170  169.2980  141.6400 C   0  0  0  0  0  2  0  0  0  0  0  0
  192.0290  172.0540  140.0330 C   0  0  0  0  0  2  0  0  0  0  0  0
  192.4170  173.0310  141.0960 C   0  0  0  0  0  0  0  0  0  0  0  0
  192.2260  174.2600  140.8860 O   0  0  0  0  0  0  0  0  0  0  0  0
  193.0260  172.5790  142.3630 C   0  0  0  0  0  0  0  0  0  0  0  0
  195.0070  172.1550  143.7100 C   0  0  0  0  0  3  0  0  0  0  0  0
  192.8080  171.7490  144.6390 C   0  0  0  0  0  3  0  0  0  0  0  0
  194.1980  171.7460  144.7740 C   0  0  0  0  0  3  0  0  0  0  0  0
  192.2250  172.1660  143.4390 C   0  0  0  0  0  3  0  0  0  0  0  0
  194.4230  172.5700  142.5090 C   0  0  0  0  0  3  0  0  0  0  0  0
  191.0260  175.0840  145.5900 O   0  0  0  0  0  0  0  0  0  0  0  0
  194.0300  176.0760  143.6270 C   0  0  0  0  0  3  0  0  0  0  0  0
  195.0480  175.7980  144.5530 C   0  0  0  0  0  0  0  0  0  0  0  0
  193.3730  175.0520  146.1440 C   0  0  0  0  0  3  0  0  0  0  0  0
  192.6920  175.8450  143.9600 C   0  0  0  0  0  3  0  0  0  0  0  0
  192.3560  175.3380  145.2260 C   0  0  0  0  0  0  0  0  0  0  0  0
  194.7100  175.2830  145.8090 C   0  0  0  0  0  3  0  0  0  0  0  0
  196.3950  176.0200  144.2520 O   0  0  0  0  0  0  0  0  0  0  0  0
  196.8170  176.7910  143.1360 C   0  0  0  0  0  1  0  0  0  0  0  0
  1  6  1  0  0  0  0
  1  8  1  0  0  0  0
  2 12  1  0  0  0  0
  3 10  2  0  0  0  0
  3 14  1  0  0  0  0
  4  8  2  0  0  0  0
  4 15  1  0  0  0  0
  5  1  2  0  0  0  0
  7  4  1  0  0  0  0
  9  5  1  0  0  0  0
  9  7  2  0  0  0  0
 10 11  1  0  0  0  0
 11  7  1  0  0  0  0
 11  2  2  0  0  0  0
 12 15  2  0  0  0  0
 13  2  1  0  0  0  0
 13 35  1  0  0  0  0
 14 13  2  0  0  0  0
 16 17  1  6  0  0  0
 16  3  1  0  0  0  0
 18 16  1  0  0  0  0
 19 20  1  0  0  0  0
 19 22  1  0  0  0  0
 20 18  1  0  0  0  0
 21 20  2  0  0  0  0
 23 22  1  0  0  0  0
 23 25  1  0  0  0  0
 25 24  1  0  0  0  0
 26 22  1  0  0  0  0
 26 27  1  0  0  0  0
 27 29  1  0  0  0  0
 28 27  2  0  0  0  0
 29 34  2  0  0  0  0
 29 33  1  0  0  0  0
 30 32  2  0  0  0  0
 31 32  1  0  0  0  0
 33 31  2  0  0  0  0
 34 30  1  0  0  0  0
 36 39  2  0  0  0  0
 36 37  1  0  0  0  0
 37 41  2  0  0  0  0
 39 40  1  0  0  0  0
 40 35  1  0  0  0  0
 40 38  2  0  0  0  0
 41 38  1  0  0  0  0
 42 37  1  0  0  0  0
 43 42  1  0  0  0  0
M  END
>  <MODEL>
7

>  <REMARK>
 VINA RESULT:      -6.3      2.633      5.472
  Name = 
  12 active torsions:
  status: ('A' for Active; 'I' for Inactive)
    1  A    between atoms: O_1  and  C_34
    2  A    between atoms: O_1  and  C_35
    3  A    between atoms: C_2  and  C_6
    4  A    between atoms: C_2  and  C_13
    5  A    between atoms: N_3  and  N_4
    6  A    between atoms: N_4  and  C_15
    7  A    between atoms: N_4  and  C_22
    8  A    between atoms: C_6  and  C_12
    9  A    between atoms: C_11  and  C_14
   10  A    between atoms: C_14  and  C_22
   11  A    between atoms: C_15  and  C_42
   12  A    between atoms: C_19  and  O_25
                            x       y       z     vdW  Elec       q    Type
                         _______ _______ _______ _____ _____    ______ ____

>  <TORSDO>
F 12

$$$$
=
 OpenBabel11052420583D

 43 47  0  0  1  0  0  0  0  0999 V2000
  185.3420  178.0200  146.8930 C   0  0  0  0  0  0  0  0  0  0  0  0
  188.3700  175.8900  143.4290 C   0  0  0  0  0  0  0  0  0  0  0  0
  190.9290  175.7350  144.5790 C   0  0  0  0  0  0  0  0  0  0  0  0
  186.2340  177.0180  144.8740 C   0  0  0  0  0  0  0  0  0  0  0  0
  186.5940  177.9190  147.5020 C   0  0  0  0  0  3  0  0  0  0  0  0
  184.3020  178.5620  147.5720 F   0  0  0  0  0  0  0  0  0  0  0  0
  187.5060  176.9070  145.4840 C   0  0  0  0  0  0  0  0  0  0  0  0
  185.1620  177.5720  145.5810 C   0  0  0  0  0  3  0  0  0  0  0  0
  187.6700  177.3670  146.8030 C   0  0  0  0  0  3  0  0  0  0  0  0
  189.8630  176.2570  145.3170 C   0  0  0  0  0  3  0  0  0  0  0  0
  188.5820  176.3510  144.7560 C   0  0  0  0  0  0  0  0  0  0  0  0
  187.1050  176.0270  142.8460 C   0  0  0  0  0  3  0  0  0  0  0  0
  189.4460  175.3330  142.6990 C   0  0  0  0  0  0  0  0  0  0  0  0
  190.7170  175.2780  143.2770 C   0  0  0  0  0  3  0  0  0  0  0  0
  186.0460  176.5820  143.5620 C   0  0  0  0  0  3  0  0  0  0  0  0
  192.2940  175.6400  145.1760 C   0  0  2  0  0  3  0  0  0  0  0  0
  192.2030  175.6860  146.5560 F   0  0  0  0  0  0  0  0  0  0  0  0
  193.1810  176.7650  144.6560 C   0  0  0  0  0  2  0  0  0  0  0  0
  195.6850  176.5020  145.1390 N   0  0  0  0  0  2  0  0  0  0  0  0
  194.3810  176.9660  145.5270 C   0  0  0  0  0  0  0  0  0  0  0  0
  194.2410  177.5350  146.6390 O   0  0  0  0  0  0  0  0  0  0  0  0
  196.0010  175.8350  143.9370 N   0  0  0  0  0  0  0  0  0  0  0  0
  196.6500  176.7730  143.0290 C   0  0  0  0  0  2  0  0  0  0  0  0
  197.0410  175.6770  140.5450 S   0  0  0  0  0  1  0  0  0  0  0  0
  196.0210  176.6980  141.6490 C   0  0  0  0  0  2  0  0  0  0  0  0
  196.9240  174.7430  144.2260 C   0  0  0  0  0  2  0  0  0  0  0  0
  196.4700  173.4940  143.5410 C   0  0  0  0  0  0  0  0  0  0  0  0
  197.2990  172.8560  142.8360 O   0  0  0  0  0  0  0  0  0  0  0  0
  195.0790  173.0160  143.6670 C   0  0  0  0  0  0  0  0  0  0  0  0
  192.9360  172.4880  142.6440 C   0  0  0  0  0  3  0  0  0  0  0  0
  193.2530  172.1470  145.0200 C   0  0  0  0  0  3  0  0  0  0  0  0
  192.4390  172.0860  143.8870 C   0  0  0  0  0  3  0  0  0  0  0  0
  194.5680  172.6090  144.9100 C   0  0  0  0  0  3  0  0  0  0  0  0
  194.2510  172.9510  142.5350 C   0  0  0  0  0  3  0  0  0  0  0  0
  189.2910  174.8510  141.3930 O   0  0  0  0  0  0  0  0  0  0  0  0
  189.8950  171.1870  141.1170 C   0  0  0  0  0  3  0  0  0  0  0  0
  190.7680  171.1510  140.0190 C   0  0  0  0  0  0  0  0  0  0  0  0
  190.6400  173.5690  139.8590 C   0  0  0  0  0  3  0  0  0  0  0  0
  189.3970  172.4090  141.5810 C   0  0  0  0  0  3  0  0  0  0  0  0
  189.7620  173.6080  140.9480 C   0  0  0  0  0  0  0  0  0  0  0  0
  191.1380  172.3480  139.3970 C   0  0  0  0  0  3  0  0  0  0  0  0
  191.2800  169.9460  139.5290 O   0  0  0  0  0  0  0  0  0  0  0  0
  190.4550  168.9160  139.0020 C   0  0  0  0  0  1  0  0  0  0  0  0
  1  5  1  0  0  0  0
  1  6  1  0  0  0  0
  2 11  1  0  0  0  0
  3 16  1  0  0  0  0
  3 10  1  0  0  0  0
  4  7  2  0  0  0  0
  4  8  1  0  0  0  0
  7  9  1  0  0  0  0
  8  1  2  0  0  0  0
  9  5  2  0  0  0  0
 11 10  2  0  0  0  0
 11  7  1  0  0  0  0
 12  2  1  0  0  0  0
 12 15  2  0  0  0  0
 13 14  1  0  0  0  0
 13  2  2  0  0  0  0
 14  3  2  0  0  0  0
 15  4  1  0  0  0  0
 16 17  1  1  0  0  0
 18 16  1  0  0  0  0
 18 20  1  0  0  0  0
 19 20  1  0  0  0  0
 20 21  2  0  0  0  0
 22 26  1  0  0  0  0
 22 19  1  0  0  0  0
 23 22  1  0  0  0  0
 24 25  1  0  0  0  0
 25 23  1  0  0  0  0
 27 29  1  0  0  0  0
 27 26  1  0  0  0  0
 28 27  2  0  0  0  0
 29 33  1  0  0  0  0
 30 32  2  0  0  0  0
 32 31  1  0  0  0  0
 33 31  2  0  0  0  0
 34 30  1  0  0  0  0
 34 29  2  0  0  0  0
 35 13  1  0  0  0  0
 36 39  1  0  0  0  0
 37 36  2  0  0  0  0
 38 40  1  0  0  0  0
 40 35  1  0  0  0  0
 40 39  2  0  0  0  0
 41 38  2  0  0  0  0
 41 37  1  0  0  0  0
 42 37  1  0  0  0  0
 43 42  1  0  0  0  0
M  END
>  <MODEL>
8

>  <REMARK>
 VINA RESULT:      -6.3      1.937      2.953
  Name = 
  12 active torsions:
  status: ('A' for Active; 'I' for Inactive)
    1  A    between atoms: O_1  and  C_34
    2  A    between atoms: O_1  and  C_35
    3  A    between atoms: C_2  and  C_6
    4  A    between atoms: C_2  and  C_13
    5  A    between atoms: N_3  and  N_4
    6  A    between atoms: N_4  and  C_15
    7  A    between atoms: N_4  and  C_22
    8  A    between atoms: C_6  and  C_12
    9  A    between atoms: C_11  and  C_14
   10  A    between atoms: C_14  and  C_22
   11  A    between atoms: C_15  and  C_42
   12  A    between atoms: C_19  and  O_25
                            x       y       z     vdW  Elec       q    Type
                         _______ _______ _______ _____ _____    ______ ____

>  <TORSDO>
F 12

$$$$
=
 OpenBabel11052420583D

 43 47  0  0  1  0  0  0  0  0999 V2000
  185.3170  178.2380  147.1390 C   0  0  0  0  0  0  0  0  0  0  0  0
  187.4530  176.5370  142.8670 C   0  0  0  0  0  0  0  0  0  0  0  0
  190.2330  176.7310  143.2220 C   0  0  0  0  0  0  0  0  0  0  0  0
  185.7030  177.3660  144.9110 C   0  0  0  0  0  0  0  0  0  0  0  0
  186.6940  178.3080  147.3560 C   0  0  0  0  0  3  0  0  0  0  0  0
  184.4590  178.6350  148.1100 F   0  0  0  0  0  0  0  0  0  0  0  0
  187.1020  177.4290  145.1230 C   0  0  0  0  0  0  0  0  0  0  0  0
  184.8220  177.7700  145.9190 C   0  0  0  0  0  3  0  0  0  0  0  0
  187.5820  177.9070  146.3550 C   0  0  0  0  0  3  0  0  0  0  0  0
  189.3700  177.1040  144.2560 C   0  0  0  0  0  3  0  0  0  0  0  0
  187.9810  177.0230  144.0930 C   0  0  0  0  0  0  0  0  0  0  0  0
  186.0660  176.5010  142.6810 C   0  0  0  0  0  3  0  0  0  0  0  0
  188.3310  176.1310  141.8360 C   0  0  0  0  0  0  0  0  0  0  0  0
  189.7120  176.2490  142.0200 C   0  0  0  0  0  3  0  0  0  0  0  0
  185.1990  176.9080  143.6930 C   0  0  0  0  0  3  0  0  0  0  0  0
  191.7130  176.8220  143.3940 C   0  0  2  0  0  3  0  0  0  0  0  0
  192.1330  178.1140  143.1370 F   0  0  0  0  0  0  0  0  0  0  0  0
  192.4170  175.8310  142.4740 C   0  0  0  0  0  2  0  0  0  0  0  0
  194.5230  174.7240  143.4310 N   0  0  0  0  0  2  0  0  0  0  0  0
  193.8920  175.8050  142.7220 C   0  0  0  0  0  0  0  0  0  0  0  0
  194.5980  176.7650  142.3210 O   0  0  0  0  0  0  0  0  0  0  0  0
  193.8690  173.5890  143.9560 N   0  0  0  0  0  0  0  0  0  0  0  0
  194.4500  172.3900  143.3630 C   0  0  0  0  0  2  0  0  0  0  0  0
  192.2440  170.8160  142.9360 S   0  0  0  0  0  1  0  0  0  0  0  0
  193.5600  171.8650  142.2500 C   0  0  0  0  0  2  0  0  0  0  0  0
  194.0740  173.5470  145.4000 C   0  0  0  0  0  2  0  0  0  0  0  0
  193.3740  174.6970  146.0490 C   0  0  0  0  0  0  0  0  0  0  0  0
  194.0540  175.7040  146.3900 O   0  0  0  0  0  0  0  0  0  0  0  0
  191.9200  174.6610  146.3060 C   0  0  0  0  0  0  0  0  0  0  0  0
  189.6980  173.8740  145.7060 C   0  0  0  0  0  3  0  0  0  0  0  0
  189.9900  175.3030  147.6390 C   0  0  0  0  0  3  0  0  0  0  0  0
  189.1580  174.5640  146.7950 C   0  0  0  0  0  3  0  0  0  0  0  0
  191.3650  175.3500  147.3960 C   0  0  0  0  0  3  0  0  0  0  0  0
  191.0740  173.9230  145.4620 C   0  0  0  0  0  3  0  0  0  0  0  0
  187.8660  175.6320  140.6130 O   0  0  0  0  0  0  0  0  0  0  0  0
  189.2670  172.2100  140.1770 C   0  0  0  0  0  3  0  0  0  0  0  0
  189.2040  172.0800  138.7810 C   0  0  0  0  0  0  0  0  0  0  0  0
  188.2550  174.3090  138.6340 C   0  0  0  0  0  3  0  0  0  0  0  0
  188.8240  173.3820  140.7960 C   0  0  0  0  0  3  0  0  0  0  0  0
  188.3080  174.4380  140.0270 C   0  0  0  0  0  0  0  0  0  0  0  0
  188.6980  173.1370  138.0160 C   0  0  0  0  0  3  0  0  0  0  0  0
  189.6350  170.9200  138.1320 O   0  0  0  0  0  0  0  0  0  0  0  0
  189.9510  170.8850  136.7470 C   0  0  0  0  0  1  0  0  0  0  0  0
  1  5  1  0  0  0  0
  1  6  1  0  0  0  0
  2 11  1  0  0  0  0
  3 16  1  0  0  0  0
  3 10  1  0  0  0  0
  4  7  2  0  0  0  0
  4  8  1  0  0  0  0
  7  9  1  0  0  0  0
  8  1  2  0  0  0  0
  9  5  2  0  0  0  0
 11 10  2  0  0  0  0
 11  7  1  0  0  0  0
 12  2  1  0  0  0  0
 12 15  2  0  0  0  0
 13 14  1  0  0  0  0
 13  2  2  0  0  0  0
 14  3  2  0  0  0  0
 15  4  1  0  0  0  0
 16 17  1  6  0  0  0
 18 20  1  0  0  0  0
 18 16  1  0  0  0  0
 19 22  1  0  0  0  0
 20 19  1  0  0  0  0
 21 20  2  0  0  0  0
 22 26  1  0  0  0  0
 23 22  1  0  0  0  0
 25 24  1  0  0  0  0
 25 23  1  0  0  0  0
 26 27  1  0  0  0  0
 27 29  1  0  0  0  0
 27 28  2  0  0  0  0
 29 33  1  0  0  0  0
 30 32  2  0  0  0  0
 32 31  1  0  0  0  0
 33 31  2  0  0  0  0
 34 30  1  0  0  0  0
 34 29  2  0  0  0  0
 35 13  1  0  0  0  0
 36 39  1  0  0  0  0
 37 36  2  0  0  0  0
 38 40  1  0  0  0  0
 40 35  1  0  0  0  0
 40 39  2  0  0  0  0
 41 38  2  0  0  0  0
 41 37  1  0  0  0  0
 42 37  1  0  0  0  0
 43 42  1  0  0  0  0
M  END
>  <MODEL>
9

>  <REMARK>
 VINA RESULT:      -6.3      1.758      2.260
  Name = 
  12 active torsions:
  status: ('A' for Active; 'I' for Inactive)
    1  A    between atoms: O_1  and  C_34
    2  A    between atoms: O_1  and  C_35
    3  A    between atoms: C_2  and  C_6
    4  A    between atoms: C_2  and  C_13
    5  A    between atoms: N_3  and  N_4
    6  A    between atoms: N_4  and  C_15
    7  A    between atoms: N_4  and  C_22
    8  A    between atoms: C_6  and  C_12
    9  A    between atoms: C_11  and  C_14
   10  A    between atoms: C_14  and  C_22
   11  A    between atoms: C_15  and  C_42
   12  A    between atoms: C_19  and  O_25
                            x       y       z     vdW  Elec       q    Type
                         _______ _______ _______ _____ _____    ______ ____

>  <TORSDO>
F 12

$$$$
