=
 OpenBabel11052418193D

 27 31  0  0  1  0  0  0  0  0999 V2000
  188.4180  177.1050  142.8920 C   0  0  0  0  0  2  0  0  0  0  0  0
  189.2240  176.6320  145.2240 C   0  0  0  0  0  0  0  0  0  0  0  0
  190.7710  175.6540  143.5320 O   0  0  0  0  0  0  0  0  0  0  0  0
  192.6550  176.8000  147.7540 C   0  0  0  0  0  2  0  0  0  0  0  0
  194.6130  177.3400  146.4910 O   0  0  0  0  0  1  0  0  0  0  0  0
  189.0650  177.1000  146.5490 C   0  0  0  0  0  3  0  0  0  0  0  0
  192.9940  175.9070  145.4640 C   0  0  1  0  0  3  0  0  0  0  0  0
  189.6150  173.2500  140.8750 C   0  0  0  0  0  2  0  0  0  0  0  0
  193.1090  174.4050  145.2760 C   0  0  0  0  0  1  0  0  0  0  0  0
  189.0800  174.1480  139.7630 C   0  0  0  0  0  2  0  0  0  0  0  0
  191.5790  176.2880  145.7090 C   0  0  0  0  0  0  0  0  0  0  0  0
  188.0330  176.6060  144.2840 C   0  0  1  0  0  3  0  0  0  0  0  0
  193.7150  176.3080  146.7600 C   0  0  2  0  0  3  0  0  0  0  0  0
  191.4000  176.7740  146.9770 C   0  0  0  0  0  0  0  0  0  0  0  0
  188.8850  175.9630  141.9950 C   0  0  2  0  0  3  0  0  0  0  0  0
  190.5120  176.1840  144.8060 C   0  0  0  0  0  0  0  0  0  0  0  0
  190.5530  174.0600  141.7610 C   0  0  0  0  0  2  0  0  0  0  0  0
  190.1480  177.1750  147.4290 C   0  0  0  0  0  3  0  0  0  0  0  0
  187.7930  174.7770  140.0870 N   0  0  0  0  0  2  0  0  0  0  0  0
  187.6590  175.2080  141.4830 C   0  0  0  0  0  2  0  0  0  0  0  0
  189.8090  174.9760  142.7310 C   0  0  1  0  0  3  0  0  0  0  0  0
  184.5570  178.7320  145.6730 C   0  0  0  0  0  3  0  0  0  0  0  0
  186.8180  177.3370  144.7860 C   0  0  0  0  0  0  0  0  0  0  0  0
  186.5640  178.6320  144.3230 C   0  0  0  0  0  3  0  0  0  0  0  0
  185.4370  179.3290  144.7660 C   0  0  0  0  0  3  0  0  0  0  0  0
  184.8030  177.4360  146.1380 C   0  0  0  0  0  3  0  0  0  0  0  0
  185.9300  176.7390  145.6950 C   0  0  0  0  0  3  0  0  0  0  0  0
  1 12  1  0  0  0  0
  2  6  1  0  0  0  0
  3 16  1  0  0  0  0
  6 18  2  0  0  0  0
  7  9  1  1  0  0  0
  7 11  1  0  0  0  0
  7 13  1  0  0  0  0
  8 17  1  0  0  0  0
 10 19  1  0  0  0  0
 10  8  1  0  0  0  0
 11 14  2  0  0  0  0
 12 23  1  1  0  0  0
 12  2  1  0  0  0  0
 13  5  1  6  0  0  0
 13  4  1  0  0  0  0
 14 18  1  0  0  0  0
 14  4  1  0  0  0  0
 15 20  1  1  0  0  0
 15 21  1  0  0  0  0
 15  1  1  0  0  0  0
 16  2  2  0  0  0  0
 16 11  1  0  0  0  0
 19 20  1  0  0  0  0
 21 17  1  6  0  0  0
 21  3  1  0  0  0  0
 22 26  1  0  0  0  0
 23 27  1  0  0  0  0
 24 25  1  0  0  0  0
 24 23  2  0  0  0  0
 25 22  2  0  0  0  0
 27 26  2  0  0  0  0
M  END
>  <MODEL>
1

>  <REMARK>
 VINA RESULT:      -8.3      0.000      0.000
  Name = 
  1 active torsions:
  status: ('A' for Active; 'I' for Inactive)
    1  A    between atoms: C_9  and  C_15
                            x       y       z     vdW  Elec       q    Type
                         _______ _______ _______ _____ _____    ______ ____

>  <TORSDO>
F 1

$$$$
=
 OpenBabel11052418193D

 27 31  0  0  1  0  0  0  0  0999 V2000
  188.3940  175.9890  146.1620 C   0  0  0  0  0  2  0  0  0  0  0  0
  188.1740  176.2340  143.6710 C   0  0  0  0  0  0  0  0  0  0  0  0
  190.3490  175.1770  144.2720 O   0  0  0  0  0  0  0  0  0  0  0  0
  188.5660  174.1300  139.9810 C   0  0  0  0  0  2  0  0  0  0  0  0
  189.5560  171.9810  140.3330 O   0  0  0  0  0  1  0  0  0  0  0  0
  187.1860  176.4230  142.6770 C   0  0  0  0  0  3  0  0  0  0  0  0
  190.3690  173.8040  141.6540 C   0  0  1  0  0  3  0  0  0  0  0  0
  192.8110  176.7910  146.6190 C   0  0  0  0  0  2  0  0  0  0  0  0
  191.6830  174.5400  141.4640 C   0  0  0  0  0  1  0  0  0  0  0  0
  192.3170  176.3990  148.0090 C   0  0  0  0  0  2  0  0  0  0  0  0
  189.3210  174.7380  142.1410 C   0  0  0  0  0  0  0  0  0  0  0  0
  188.0370  176.9310  145.0130 C   0  0  1  0  0  3  0  0  0  0  0  0
  189.8490  173.3430  140.2850 C   0  0  2  0  0  3  0  0  0  0  0  0
  188.3330  174.9170  141.2080 C   0  0  0  0  0  0  0  0  0  0  0  0
  189.8770  176.0630  146.5100 C   0  0  2  0  0  3  0  0  0  0  0  0
  189.2880  175.3930  143.3790 C   0  0  0  0  0  0  0  0  0  0  0  0
  192.2360  175.8210  145.5960 C   0  0  0  0  0  2  0  0  0  0  0  0
  187.2590  175.7660  141.4460 C   0  0  0  0  0  3  0  0  0  0  0  0
  191.0990  177.1100  148.4210 N   0  0  0  0  0  2  0  0  0  0  0  0
  190.1230  177.3190  147.3450 C   0  0  0  0  0  2  0  0  0  0  0  0
  190.7740  176.1100  145.2600 C   0  0  1  0  0  3  0  0  0  0  0  0
  184.2030  178.7390  145.7620 C   0  0  0  0  0  3  0  0  0  0  0  0
  186.6990  177.5720  145.2570 C   0  0  0  0  0  0  0  0  0  0  0  0
  185.8010  176.9590  146.1370 C   0  0  0  0  0  3  0  0  0  0  0  0
  184.5550  177.5400  146.3890 C   0  0  0  0  0  3  0  0  0  0  0  0
  185.0970  179.3580  144.8830 C   0  0  0  0  0  3  0  0  0  0  0  0
  186.3420  178.7780  144.6310 C   0  0  0  0  0  3  0  0  0  0  0  0
  2 12  1  0  0  0  0
  3 21  1  0  0  0  0
  4 13  1  0  0  0  0
  4 14  1  0  0  0  0
  6  2  2  0  0  0  0
  7  9  1  6  0  0  0
  7 11  1  0  0  0  0
  8 10  1  0  0  0  0
 10 19  1  0  0  0  0
 11 16  2  0  0  0  0
 12 23  1  1  0  0  0
 12  1  1  0  0  0  0
 13  5  1  1  0  0  0
 13  7  1  0  0  0  0
 14 18  2  0  0  0  0
 14 11  1  0  0  0  0
 15  1  1  6  0  0  0
 15 20  1  0  0  0  0
 16  2  1  0  0  0  0
 16  3  1  0  0  0  0
 17  8  1  0  0  0  0
 18  6  1  0  0  0  0
 20 19  1  0  0  0  0
 21 17  1  1  0  0  0
 21 15  1  0  0  0  0
 22 25  1  0  0  0  0
 23 24  1  0  0  0  0
 24 25  2  0  0  0  0
 26 22  2  0  0  0  0
 27 26  1  0  0  0  0
 27 23  2  0  0  0  0
M  END
>  <MODEL>
2

>  <REMARK>
 VINA RESULT:      -8.3      2.215      5.384
  Name = 
  1 active torsions:
  status: ('A' for Active; 'I' for Inactive)
    1  A    between atoms: C_9  and  C_15
                            x       y       z     vdW  Elec       q    Type
                         _______ _______ _______ _____ _____    ______ ____

>  <TORSDO>
F 1

$$$$
=
 OpenBabel11052418193D

 27 31  0  0  1  0  0  0  0  0999 V2000
  189.1310  173.8870  143.6710 C   0  0  0  0  0  2  0  0  0  0  0  0
  188.5500  176.3290  143.7620 C   0  0  0  0  0  0  0  0  0  0  0  0
  187.7350  175.2990  141.6440 O   0  0  0  0  0  0  0  0  0  0  0  0
  185.3540  179.1050  143.2350 C   0  0  0  0  0  2  0  0  0  0  0  0
  183.4320  178.0170  142.3140 O   0  0  0  0  0  1  0  0  0  0  0  0
  188.4090  177.3830  144.6950 C   0  0  0  0  0  3  0  0  0  0  0  0
  185.5820  177.3210  141.5260 C   0  0  1  0  0  3  0  0  0  0  0  0
  190.0140  173.4760  139.2650 C   0  0  0  0  0  2  0  0  0  0  0  0
  186.2090  177.6690  140.1870 C   0  0  0  0  0  1  0  0  0  0  0  0
  190.1010  172.0630  139.8370 C   0  0  0  0  0  2  0  0  0  0  0  0
  186.6300  177.2240  142.5750 C   0  0  0  0  0  0  0  0  0  0  0  0
  189.6480  175.2980  143.9490 C   0  0  1  0  0  3  0  0  0  0  0  0
  184.7020  178.4920  141.9880 C   0  0  2  0  0  3  0  0  0  0  0  0
  186.5000  178.2160  143.5110 C   0  0  0  0  0  0  0  0  0  0  0  0
  189.3070  173.5020  142.2060 C   0  0  2  0  0  3  0  0  0  0  0  0
  187.6540  176.2700  142.6550 C   0  0  0  0  0  0  0  0  0  0  0  0
  188.7660  174.1570  139.8110 C   0  0  0  0  0  2  0  0  0  0  0  0
  187.3850  178.3270  144.5760 C   0  0  0  0  0  3  0  0  0  0  0  0
  190.9140  171.9730  141.0560 N   0  0  0  0  0  2  0  0  0  0  0  0
  190.7650  173.1090  141.9730 C   0  0  0  0  0  2  0  0  0  0  0  0
  188.9380  174.6480  141.2470 C   0  0  1  0  0  3  0  0  0  0  0  0
  191.5960  175.4050  147.7860 C   0  0  0  0  0  3  0  0  0  0  0  0
  190.3410  175.3490  145.2820 C   0  0  0  0  0  0  0  0  0  0  0  0
  189.6480  174.9370  146.4260 C   0  0  0  0  0  3  0  0  0  0  0  0
  190.2730  174.9660  147.6760 C   0  0  0  0  0  3  0  0  0  0  0  0
  192.2950  175.8160  146.6470 C   0  0  0  0  0  3  0  0  0  0  0  0
  191.6710  175.7880  145.3970 C   0  0  0  0  0  3  0  0  0  0  0  0
  1 12  1  0  0  0  0
  2 12  1  0  0  0  0
  2  6  1  0  0  0  0
  3 16  1  0  0  0  0
  4 14  1  0  0  0  0
  7  9  1  6  0  0  0
  7 13  1  0  0  0  0
  7 11  1  0  0  0  0
  8 17  1  0  0  0  0
  8 10  1  0  0  0  0
 10 19  1  0  0  0  0
 11 16  1  0  0  0  0
 11 14  2  0  0  0  0
 12 23  1  1  0  0  0
 13  5  1  1  0  0  0
 13  4  1  0  0  0  0
 14 18  1  0  0  0  0
 15 20  1  1  0  0  0
 15  1  1  0  0  0  0
 16  2  2  0  0  0  0
 18  6  2  0  0  0  0
 19 20  1  0  0  0  0
 21 17  1  6  0  0  0
 21  3  1  0  0  0  0
 21 15  1  0  0  0  0
 23 27  2  0  0  0  0
 23 24  1  0  0  0  0
 24 25  2  0  0  0  0
 25 22  1  0  0  0  0
 26 22  2  0  0  0  0
 27 26  1  0  0  0  0
M  END
>  <MODEL>
3

>  <REMARK>
 VINA RESULT:      -8.1      2.495      5.889
  Name = 
  1 active torsions:
  status: ('A' for Active; 'I' for Inactive)
    1  A    between atoms: C_9  and  C_15
                            x       y       z     vdW  Elec       q    Type
                         _______ _______ _______ _____ _____    ______ ____

>  <TORSDO>
F 1

$$$$
=
 OpenBabel11052418193D

 27 31  0  0  1  0  0  0  0  0999 V2000
  190.7650  173.8320  143.5210 C   0  0  0  0  0  2  0  0  0  0  0  0
  190.0140  176.0490  144.4340 C   0  0  0  0  0  0  0  0  0  0  0  0
  188.2710  175.0600  142.9540 O   0  0  0  0  0  0  0  0  0  0  0  0
  186.7630  178.0280  146.3600 C   0  0  0  0  0  2  0  0  0  0  0  0
  184.8380  176.6100  146.4420 O   0  0  0  0  0  1  0  0  0  0  0  0
  190.2990  176.9460  145.4900 C   0  0  0  0  0  3  0  0  0  0  0  0
  186.1970  176.5180  144.4740 C   0  0  1  0  0  3  0  0  0  0  0  0
  188.9630  174.0590  139.3910 C   0  0  0  0  0  2  0  0  0  0  0  0
  185.8710  177.1290  143.1220 C   0  0  0  0  0  1  0  0  0  0  0  0
  189.5610  172.6590  139.5040 C   0  0  0  0  0  2  0  0  0  0  0  0
  187.6610  176.5720  144.7240 C   0  0  0  0  0  0  0  0  0  0  0  0
  191.1450  175.2930  143.7610 C   0  0  1  0  0  3  0  0  0  0  0  0
  185.5990  177.3990  145.5810 C   0  0  2  0  0  3  0  0  0  0  0  0
  187.9640  177.4130  145.7620 C   0  0  0  0  0  0  0  0  0  0  0  0
  190.1060  173.6400  142.1590 C   0  0  2  0  0  3  0  0  0  0  0  0
  188.6600  175.8840  144.0210 C   0  0  0  0  0  0  0  0  0  0  0  0
  188.1870  174.3720  140.6630 C   0  0  0  0  0  2  0  0  0  0  0  0
  189.2790  177.6290  146.1580 C   0  0  0  0  0  3  0  0  0  0  0  0
  190.9360  172.6490  140.0210 N   0  0  0  0  0  2  0  0  0  0  0  0
  191.1920  173.6270  141.0850 C   0  0  0  0  0  2  0  0  0  0  0  0
  189.0930  174.7510  141.8330 C   0  0  1  0  0  3  0  0  0  0  0  0
  194.9350  175.4880  145.7950 C   0  0  0  0  0  3  0  0  0  0  0  0
  192.4700  175.3810  144.4670 C   0  0  0  0  0  0  0  0  0  0  0  0
  192.7870  174.4270  145.4410 C   0  0  0  0  0  3  0  0  0  0  0  0
  194.0160  174.4810  146.1050 C   0  0  0  0  0  3  0  0  0  0  0  0
  194.6260  176.4420  144.8210 C   0  0  0  0  0  3  0  0  0  0  0  0
  193.3970  176.3890  144.1570 C   0  0  0  0  0  3  0  0  0  0  0  0
  1 12  1  0  0  0  0
  2  6  1  0  0  0  0
  3 16  1  0  0  0  0
  6 18  2  0  0  0  0
  7  9  1  6  0  0  0
  7 11  1  0  0  0  0
  7 13  1  0  0  0  0
  8 10  1  0  0  0  0
  8 17  1  0  0  0  0
 10 19  1  0  0  0  0
 11 14  2  0  0  0  0
 12  2  1  0  0  0  0
 12 23  1  1  0  0  0
 13  4  1  0  0  0  0
 13  5  1  1  0  0  0
 14 18  1  0  0  0  0
 14  4  1  0  0  0  0
 15 20  1  6  0  0  0
 15  1  1  0  0  0  0
 16  2  2  0  0  0  0
 16 11  1  0  0  0  0
 19 20  1  0  0  0  0
 21 17  1  6  0  0  0
 21 15  1  0  0  0  0
 21  3  1  0  0  0  0
 22 25  1  0  0  0  0
 23 24  1  0  0  0  0
 24 25  2  0  0  0  0
 26 22  2  0  0  0  0
 27 23  2  0  0  0  0
 27 26  1  0  0  0  0
M  END
>  <MODEL>
4

>  <REMARK>
 VINA RESULT:      -7.8      2.184      5.805
  Name = 
  1 active torsions:
  status: ('A' for Active; 'I' for Inactive)
    1  A    between atoms: C_9  and  C_15
                            x       y       z     vdW  Elec       q    Type
                         _______ _______ _______ _____ _____    ______ ____

>  <TORSDO>
F 1

$$$$
=
 OpenBabel11052418193D

 27 31  0  0  1  0  0  0  0  0999 V2000
  190.6710  175.9840  143.6450 C   0  0  0  0  0  2  0  0  0  0  0  0
  188.1620  175.8530  143.6360 C   0  0  0  0  0  0  0  0  0  0  0  0
  188.9680  177.3520  145.4560 O   0  0  0  0  0  0  0  0  0  0  0  0
  184.6150  178.2210  143.7290 C   0  0  0  0  0  2  0  0  0  0  0  0
  185.1410  180.5160  144.1530 O   0  0  0  0  0  1  0  0  0  0  0  0
  187.0910  175.5010  142.7810 C   0  0  0  0  0  3  0  0  0  0  0  0
  186.4270  178.8550  145.3000 C   0  0  1  0  0  3  0  0  0  0  0  0
  191.4060  176.2160  148.0910 C   0  0  0  0  0  2  0  0  0  0  0  0
  186.2970  178.4630  146.7610 C   0  0  0  0  0  1  0  0  0  0  0  0
  192.7740  176.3920  147.4360 C   0  0  0  0  0  2  0  0  0  0  0  0
  186.7910  177.6720  144.4790 C   0  0  0  0  0  0  0  0  0  0  0  0
  189.4550  175.0590  143.5910 C   0  0  1  0  0  3  0  0  0  0  0  0
  185.0480  179.2670  144.7660 C   0  0  2  0  0  3  0  0  0  0  0  0
  185.7830  177.3250  143.6190 C   0  0  0  0  0  0  0  0  0  0  0  0
  191.1210  176.2390  145.0800 C   0  0  2  0  0  3  0  0  0  0  0  0
  187.9920  176.9490  144.5310 C   0  0  0  0  0  0  0  0  0  0  0  0
  190.3920  177.0870  147.3610 C   0  0  0  0  0  2  0  0  0  0  0  0
  185.9010  176.2340  142.7670 C   0  0  0  0  0  3  0  0  0  0  0  0
  193.0620  175.3890  146.4030 N   0  0  0  0  0  2  0  0  0  0  0  0
  191.9100  175.0260  145.5690 C   0  0  0  0  0  2  0  0  0  0  0  0
  189.9380  176.4840  146.0330 C   0  0  1  0  0  3  0  0  0  0  0  0
  189.7600  172.2910  140.3080 C   0  0  0  0  0  3  0  0  0  0  0  0
  189.5710  174.1070  142.4340 C   0  0  0  0  0  0  0  0  0  0  0  0
  189.5330  172.7300  142.6790 C   0  0  0  0  0  3  0  0  0  0  0  0
  189.6280  171.8230  141.6190 C   0  0  0  0  0  3  0  0  0  0  0  0
  189.7960  173.6660  140.0560 C   0  0  0  0  0  3  0  0  0  0  0  0
  189.7010  174.5730  141.1150 C   0  0  0  0  0  3  0  0  0  0  0  0
  2 16  1  0  0  0  0
  3 21  1  0  0  0  0
  4 13  1  0  0  0  0
  6  2  2  0  0  0  0
  7  9  1  1  0  0  0
 10  8  1  0  0  0  0
 11 16  2  0  0  0  0
 11  7  1  0  0  0  0
 12 23  1  6  0  0  0
 12  2  1  0  0  0  0
 12  1  1  0  0  0  0
 13  5  1  6  0  0  0
 13  7  1  0  0  0  0
 14  4  1  0  0  0  0
 14 11  1  0  0  0  0
 15  1  1  6  0  0  0
 15 20  1  0  0  0  0
 15 21  1  0  0  0  0
 16  3  1  0  0  0  0
 17  8  1  0  0  0  0
 18  6  1  0  0  0  0
 18 14  2  0  0  0  0
 19 10  1  0  0  0  0
 20 19  1  0  0  0  0
 21 17  1  1  0  0  0
 22 25  1  0  0  0  0
 23 24  1  0  0  0  0
 25 24  2  0  0  0  0
 26 22  2  0  0  0  0
 26 27  1  0  0  0  0
 27 23  2  0  0  0  0
M  END
>  <MODEL>
5

>  <REMARK>
 VINA RESULT:      -7.6      2.518      6.767
  Name = 
  1 active torsions:
  status: ('A' for Active; 'I' for Inactive)
    1  A    between atoms: C_9  and  C_15
                            x       y       z     vdW  Elec       q    Type
                         _______ _______ _______ _____ _____    ______ ____

>  <TORSDO>
F 1

$$$$
=
 OpenBabel11052418193D

 27 31  0  0  1  0  0  0  0  0999 V2000
  190.3560  175.2160  145.5020 C   0  0  0  0  0  2  0  0  0  0  0  0
  189.4700  175.4520  143.1630 C   0  0  0  0  0  0  0  0  0  0  0  0
  191.7620  174.4750  143.1510 O   0  0  0  0  0  0  0  0  0  0  0  0
  188.9360  173.3630  139.4820 C   0  0  0  0  0  2  0  0  0  0  0  0
  190.0590  171.2520  139.5370 O   0  0  0  0  0  1  0  0  0  0  0  0
  188.2460  175.6040  142.4710 C   0  0  0  0  0  3  0  0  0  0  0  0
  191.1310  173.1030  140.6100 C   0  0  1  0  0  3  0  0  0  0  0  0
  194.7040  176.1790  144.7710 C   0  0  0  0  0  2  0  0  0  0  0  0
  192.3200  173.8870  140.0830 C   0  0  0  0  0  1  0  0  0  0  0  0
  194.6130  175.7690  146.2390 C   0  0  0  0  0  2  0  0  0  0  0  0
  190.2180  173.9990  141.3680 C   0  0  0  0  0  0  0  0  0  0  0  0
  189.6730  176.1440  144.4990 C   0  0  1  0  0  3  0  0  0  0  0  0
  190.2800  172.6240  139.4250 C   0  0  2  0  0  3  0  0  0  0  0  0
  189.0120  174.1410  140.7350 C   0  0  0  0  0  0  0  0  0  0  0  0
  191.8750  175.3440  145.4420 C   0  0  2  0  0  3  0  0  0  0  0  0
  190.4940  174.6530  142.5760 C   0  0  0  0  0  0  0  0  0  0  0  0
  193.9110  175.1880  143.9290 C   0  0  0  0  0  2  0  0  0  0  0  0
  188.0110  174.9500  141.2580 C   0  0  0  0  0  3  0  0  0  0  0  0
  193.5260  176.4360  146.9670 N   0  0  0  0  0  2  0  0  0  0  0  0
  192.2910  176.6080  146.1930 C   0  0  0  0  0  2  0  0  0  0  0  0
  192.4030  175.4240  143.9990 C   0  0  1  0  0  3  0  0  0  0  0  0
  186.1210  177.8180  146.2640 C   0  0  0  0  0  3  0  0  0  0  0  0
  188.4270  176.7360  145.0980 C   0  0  0  0  0  0  0  0  0  0  0  0
  187.9140  176.1900  146.2800 C   0  0  0  0  0  3  0  0  0  0  0  0
  186.7630  176.7290  146.8610 C   0  0  0  0  0  3  0  0  0  0  0  0
  186.6290  178.3700  145.0850 C   0  0  0  0  0  3  0  0  0  0  0  0
  187.7800  177.8320  144.5020 C   0  0  0  0  0  3  0  0  0  0  0  0
  2 12  1  0  0  0  0
  3 21  1  0  0  0  0
  4 14  1  0  0  0  0
  6  2  2  0  0  0  0
  7  9  1  6  0  0  0
  7 11  1  0  0  0  0
  8 10  1  0  0  0  0
 10 19  1  0  0  0  0
 11 16  2  0  0  0  0
 12 23  1  1  0  0  0
 12  1  1  0  0  0  0
 13  4  1  0  0  0  0
 13  5  1  1  0  0  0
 13  7  1  0  0  0  0
 14 18  2  0  0  0  0
 14 11  1  0  0  0  0
 15  1  1  6  0  0  0
 15 20  1  0  0  0  0
 16  3  1  0  0  0  0
 16  2  1  0  0  0  0
 17  8  1  0  0  0  0
 18  6  1  0  0  0  0
 20 19  1  0  0  0  0
 21 17  1  1  0  0  0
 21 15  1  0  0  0  0
 22 25  1  0  0  0  0
 23 24  1  0  0  0  0
 24 25  2  0  0  0  0
 26 22  2  0  0  0  0
 27 26  1  0  0  0  0
 27 23  2  0  0  0  0
M  END
>  <MODEL>
6

>  <REMARK>
 VINA RESULT:      -7.4      2.433      5.652
  Name = 
  1 active torsions:
  status: ('A' for Active; 'I' for Inactive)
    1  A    between atoms: C_9  and  C_15
                            x       y       z     vdW  Elec       q    Type
                         _______ _______ _______ _____ _____    ______ ____

>  <TORSDO>
F 1

$$$$
=
 OpenBabel11052418193D

 27 31  0  0  1  0  0  0  0  0999 V2000
  188.3680  175.8400  145.3340 C   0  0  0  0  0  2  0  0  0  0  0  0
  188.8870  175.3470  142.9250 C   0  0  0  0  0  0  0  0  0  0  0  0
  190.6130  174.3610  144.4270 O   0  0  0  0  0  0  0  0  0  0  0  0
  189.9440  172.2170  140.2270 C   0  0  0  0  0  2  0  0  0  0  0  0
  190.4410  170.2040  141.4200 O   0  0  0  0  0  1  0  0  0  0  0  0
  188.2550  175.3030  141.6610 C   0  0  0  0  0  3  0  0  0  0  0  0
  191.1380  172.2720  142.4010 C   0  0  1  0  0  3  0  0  0  0  0  0
  192.5550  176.4160  146.9140 C   0  0  0  0  0  2  0  0  0  0  0  0
  192.5530  172.8210  142.4430 C   0  0  0  0  0  1  0  0  0  0  0  0
  191.6400  176.4930  148.1330 C   0  0  0  0  0  2  0  0  0  0  0  0
  190.1580  173.3830  142.2750 C   0  0  0  0  0  0  0  0  0  0  0  0
  188.4980  176.4200  143.9260 C   0  0  1  0  0  3  0  0  0  0  0  0
  190.9490  171.4640  141.1090 C   0  0  2  0  0  3  0  0  0  0  0  0
  189.5090  173.3480  141.0700 C   0  0  0  0  0  0  0  0  0  0  0  0
  189.6890  175.9050  146.0930 C   0  0  2  0  0  3  0  0  0  0  0  0
  189.8890  174.3790  143.2250 C   0  0  0  0  0  0  0  0  0  0  0  0
  192.1390  175.2300  146.0540 C   0  0  0  0  0  2  0  0  0  0  0  0
  188.5600  174.3050  140.7300 C   0  0  0  0  0  3  0  0  0  0  0  0
  190.4860  177.3820  147.9440 N   0  0  0  0  0  2  0  0  0  0  0  0
  189.8910  177.3310  146.6030 C   0  0  0  0  0  2  0  0  0  0  0  0
  190.8920  175.5120  145.2170 C   0  0  1  0  0  3  0  0  0  0  0  0
  184.9420  178.6380  142.9420 C   0  0  0  0  0  3  0  0  0  0  0  0
  187.2650  177.2010  143.5650 C   0  0  0  0  0  0  0  0  0  0  0  0
  186.0350  176.8250  144.1180 C   0  0  0  0  0  3  0  0  0  0  0  0
  184.8760  177.5410  143.8060 C   0  0  0  0  0  3  0  0  0  0  0  0
  186.1670  179.0210  142.3890 C   0  0  0  0  0  3  0  0  0  0  0  0
  187.3270  178.3060  142.7000 C   0  0  0  0  0  3  0  0  0  0  0  0
  2 16  1  0  0  0  0
  2 12  1  0  0  0  0
  3 21  1  0  0  0  0
  4 14  1  0  0  0  0
  4 13  1  0  0  0  0
  6  2  2  0  0  0  0
  7  9  1  6  0  0  0
  8 10  1  0  0  0  0
 11  7  1  0  0  0  0
 11 16  2  0  0  0  0
 12 23  1  6  0  0  0
 12  1  1  0  0  0  0
 13  5  1  1  0  0  0
 13  7  1  0  0  0  0
 14 11  1  0  0  0  0
 15  1  1  6  0  0  0
 15 20  1  0  0  0  0
 16  3  1  0  0  0  0
 17  8  1  0  0  0  0
 18 14  2  0  0  0  0
 18  6  1  0  0  0  0
 19 10  1  0  0  0  0
 20 19  1  0  0  0  0
 21 17  1  1  0  0  0
 21 15  1  0  0  0  0
 22 25  1  0  0  0  0
 23 24  1  0  0  0  0
 25 24  2  0  0  0  0
 26 27  1  0  0  0  0
 26 22  2  0  0  0  0
 27 23  2  0  0  0  0
M  END
>  <MODEL>
7

>  <REMARK>
 VINA RESULT:      -7.3      2.431      5.456
  Name = 
  1 active torsions:
  status: ('A' for Active; 'I' for Inactive)
    1  A    between atoms: C_9  and  C_15
                            x       y       z     vdW  Elec       q    Type
                         _______ _______ _______ _____ _____    ______ ____

>  <TORSDO>
F 1

$$$$
=
 OpenBabel11052418193D

 27 31  0  0  1  0  0  0  0  0999 V2000
  191.4810  175.6670  143.1520 C   0  0  0  0  0  2  0  0  0  0  0  0
  188.9890  175.3540  143.2060 C   0  0  0  0  0  0  0  0  0  0  0  0
  189.7260  176.9290  144.9900 O   0  0  0  0  0  0  0  0  0  0  0  0
  185.2820  177.4590  143.3610 C   0  0  0  0  0  2  0  0  0  0  0  0
  185.6490  179.7910  143.7500 O   0  0  0  0  0  1  0  0  0  0  0  0
  187.9280  174.9150  142.3810 C   0  0  0  0  0  3  0  0  0  0  0  0
  187.0790  178.2420  144.8820 C   0  0  1  0  0  3  0  0  0  0  0  0
  192.3020  176.0050  147.5770 C   0  0  0  0  0  2  0  0  0  0  0  0
  187.0130  177.8570  146.3490 C   0  0  0  0  0  1  0  0  0  0  0  0
  193.6380  176.2710  146.8880 C   0  0  0  0  0  2  0  0  0  0  0  0
  187.5100  177.0780  144.0640 C   0  0  0  0  0  0  0  0  0  0  0  0
  190.3360  174.6570  143.1380 C   0  0  1  0  0  3  0  0  0  0  0  0
  185.6610  178.5450  144.3770 C   0  0  2  0  0  3  0  0  0  0  0  0
  186.5100  176.6490  143.2320 C   0  0  0  0  0  0  0  0  0  0  0  0
  191.9450  175.9710  144.5730 C   0  0  2  0  0  3  0  0  0  0  0  0
  188.7610  176.4450  144.0940 C   0  0  0  0  0  0  0  0  0  0  0  0
  191.2100  176.7910  146.8640 C   0  0  0  0  0  2  0  0  0  0  0  0
  186.6870  175.5590  142.3880 C   0  0  0  0  0  3  0  0  0  0  0  0
  193.9740  175.2800  145.8570 N   0  0  0  0  0  2  0  0  0  0  0  0
  192.8320  174.8240  145.0560 C   0  0  0  0  0  2  0  0  0  0  0  0
  190.7700  176.1400  145.5530 C   0  0  1  0  0  3  0  0  0  0  0  0
  190.7530  171.8850  139.8700 C   0  0  0  0  0  3  0  0  0  0  0  0
  190.4940  173.7020  141.9870 C   0  0  0  0  0  0  0  0  0  0  0  0
  190.2690  172.3370  142.1990 C   0  0  0  0  0  3  0  0  0  0  0  0
  190.3990  171.4300  141.1440 C   0  0  0  0  0  3  0  0  0  0  0  0
  190.9770  173.2470  139.6500 C   0  0  0  0  0  3  0  0  0  0  0  0
  190.8470  174.1550  140.7050 C   0  0  0  0  0  3  0  0  0  0  0  0
  2 16  1  0  0  0  0
  3 21  1  0  0  0  0
  4 13  1  0  0  0  0
  6 18  1  0  0  0  0
  6  2  2  0  0  0  0
  7  9  1  1  0  0  0
 10  8  1  0  0  0  0
 11 16  2  0  0  0  0
 11  7  1  0  0  0  0
 12 23  1  6  0  0  0
 12  1  1  0  0  0  0
 12  2  1  0  0  0  0
 13  5  1  6  0  0  0
 13  7  1  0  0  0  0
 14  4  1  0  0  0  0
 14 11  1  0  0  0  0
 15  1  1  6  0  0  0
 15 20  1  0  0  0  0
 15 21  1  0  0  0  0
 16  3  1  0  0  0  0
 17  8  1  0  0  0  0
 18 14  2  0  0  0  0
 19 10  1  0  0  0  0
 20 19  1  0  0  0  0
 21 17  1  1  0  0  0
 22 25  1  0  0  0  0
 23 24  1  0  0  0  0
 25 24  2  0  0  0  0
 26 22  2  0  0  0  0
 26 27  1  0  0  0  0
 27 23  2  0  0  0  0
M  END
>  <MODEL>
8

>  <REMARK>
 VINA RESULT:      -7.1      2.431      6.843
  Name = 
  1 active torsions:
  status: ('A' for Active; 'I' for Inactive)
    1  A    between atoms: C_9  and  C_15
                            x       y       z     vdW  Elec       q    Type
                         _______ _______ _______ _____ _____    ______ ____

>  <TORSDO>
F 1

$$$$
=
 OpenBabel11052418193D

 27 31  0  0  1  0  0  0  0  0999 V2000
  190.2960  177.1070  143.3780 C   0  0  0  0  0  2  0  0  0  0  0  0
  191.0050  174.7720  142.7810 C   0  0  0  0  0  0  0  0  0  0  0  0
  188.8670  175.3690  141.6500 O   0  0  0  0  0  0  0  0  0  0  0  0
  191.5990  172.1140  139.4980 C   0  0  0  0  0  2  0  0  0  0  0  0
  190.7710  173.0770  137.4700 O   0  0  0  0  0  1  0  0  0  0  0  0
  192.1560  173.9500  142.7760 C   0  0  0  0  0  3  0  0  0  0  0  0
  189.5270  173.4790  139.4740 C   0  0  1  0  0  3  0  0  0  0  0  0
  185.8240  176.5260  143.5420 C   0  0  0  0  0  2  0  0  0  0  0  0
  188.2160  172.8240  139.8700 C   0  0  0  0  0  1  0  0  0  0  0  0
  186.0530  178.0220  143.7420 C   0  0  0  0  0  2  0  0  0  0  0  0
  190.3550  173.7450  140.6790 C   0  0  0  0  0  0  0  0  0  0  0  0
  190.7910  175.7630  143.9110 C   0  0  1  0  0  3  0  0  0  0  0  0
  190.3640  172.4800  138.6620 C   0  0  2  0  0  3  0  0  0  0  0  0
  191.4930  172.9820  140.6870 C   0  0  0  0  0  0  0  0  0  0  0  0
  188.7720  177.1620  143.3200 C   0  0  2  0  0  3  0  0  0  0  0  0
  190.0650  174.6400  141.7180 C   0  0  0  0  0  0  0  0  0  0  0  0
  186.6910  176.0410  142.3880 C   0  0  0  0  0  2  0  0  0  0  0  0
  192.4060  173.0560  141.7320 C   0  0  0  0  0  3  0  0  0  0  0  0
  187.0830  178.3280  144.7440 N   0  0  0  0  0  2  0  0  0  0  0  0
  188.2370  177.4220  144.7270 C   0  0  0  0  0  2  0  0  0  0  0  0
  188.1560  175.8590  142.7830 C   0  0  1  0  0  3  0  0  0  0  0  0
  194.1820  176.2790  146.5110 C   0  0  0  0  0  3  0  0  0  0  0  0
  191.9790  175.9610  144.8100 C   0  0  0  0  0  0  0  0  0  0  0  0
  192.0230  175.2920  146.0380 C   0  0  0  0  0  3  0  0  0  0  0  0
  193.1210  175.4510  146.8880 C   0  0  0  0  0  3  0  0  0  0  0  0
  194.1470  176.9490  145.2840 C   0  0  0  0  0  3  0  0  0  0  0  0
  193.0490  176.7910  144.4350 C   0  0  0  0  0  3  0  0  0  0  0  0
  1 12  1  0  0  0  0
  2 12  1  0  0  0  0
  3 16  1  0  0  0  0
  3 21  1  0  0  0  0
  4 14  1  0  0  0  0
  6  2  1  0  0  0  0
  7  9  1  1  0  0  0
  7 11  1  0  0  0  0
  8 10  1  0  0  0  0
 10 19  1  0  0  0  0
 11 14  2  0  0  0  0
 11 16  1  0  0  0  0
 12 23  1  6  0  0  0
 13  5  1  6  0  0  0
 13  7  1  0  0  0  0
 13  4  1  0  0  0  0
 14 18  1  0  0  0  0
 15  1  1  1  0  0  0
 15 20  1  0  0  0  0
 16  2  2  0  0  0  0
 17  8  1  0  0  0  0
 18  6  2  0  0  0  0
 20 19  1  0  0  0  0
 21 17  1  6  0  0  0
 21 15  1  0  0  0  0
 22 25  1  0  0  0  0
 23 24  1  0  0  0  0
 24 25  2  0  0  0  0
 26 22  2  0  0  0  0
 27 23  2  0  0  0  0
 27 26  1  0  0  0  0
M  END
>  <MODEL>
9

>  <REMARK>
 VINA RESULT:      -7.1      2.457      6.571
  Name = 
  1 active torsions:
  status: ('A' for Active; 'I' for Inactive)
    1  A    between atoms: C_9  and  C_15
                            x       y       z     vdW  Elec       q    Type
                         _______ _______ _______ _____ _____    ______ ____

>  <TORSDO>
F 1

$$$$
