=
 OpenBabel11052418203D

 27 31  0  0  1  0  0  0  0  0999 V2000
  187.3320  178.2020  144.4800 C   0  0  0  0  0  2  0  0  0  0  0  0
  189.1610  177.1720  145.9110 C   0  0  0  0  0  0  0  0  0  0  0  0
  189.4120  176.6820  143.3870 C   0  0  0  0  0  2  0  0  0  0  0  0
  192.9450  175.5060  146.3460 N   0  0  0  0  0  2  0  0  0  0  0  0
  194.5970  175.8560  144.7820 C   0  0  0  0  0  1  0  0  0  0  0  0
  189.7040  177.0830  147.1700 N   0  0  0  0  0  0  0  0  0  0  0  0
  192.2140  175.5770  144.1550 C   0  0  2  0  0  3  0  0  0  0  0  0
  187.7380  176.3040  140.8510 C   0  0  0  0  0  2  0  0  0  0  0  0
  192.5950  176.5330  143.0200 C   0  0  0  0  0  1  0  0  0  0  0  0
  186.4370  177.0850  140.9760 C   0  0  0  0  0  2  0  0  0  0  0  0
  191.1990  176.1910  145.0630 C   0  0  0  0  0  0  0  0  0  0  0  0
  187.8310  177.7220  145.7680 N   0  0  0  0  0  0  0  0  0  0  0  0
  193.3450  175.1500  145.0420 N   0  0  0  0  0  0  0  0  0  0  0  0
  191.6780  176.1170  146.3230 C   0  0  0  0  0  0  0  0  0  0  0  0
  186.8860  177.0360  143.5960 C   0  0  1  0  0  3  0  0  0  0  0  0
  189.9170  176.6890  144.7990 C   0  0  0  0  0  0  0  0  0  0  0  0
  187.8600  175.2980  141.9830 C   0  0  0  0  0  2  0  0  0  0  0  0
  190.9400  176.5620  147.4070 C   0  0  0  0  0  3  0  0  0  0  0  0
  185.2230  178.3350  142.5390 O   0  0  0  0  0  0  0  0  0  0  0  0
  186.1460  177.5530  142.3770 C   0  0  0  0  0  0  0  0  0  0  0  0
  188.0310  176.0360  143.3050 C   0  0  1  0  0  3  0  0  0  0  0  0
  184.1170  177.9770  146.6390 C   0  0  0  0  0  2  0  0  0  0  0  0
  187.0410  177.9670  146.9800 C   0  0  0  0  0  3  0  0  0  0  0  0
  186.1790  176.7620  147.3830 C   0  0  0  0  0  2  0  0  0  0  0  0
  184.8980  176.6710  146.5560 C   0  0  0  0  0  2  0  0  0  0  0  0
  184.9620  179.1210  146.0920 C   0  0  0  0  0  2  0  0  0  0  0  0
  186.2420  179.2760  146.9120 C   0  0  0  0  0  2  0  0  0  0  0  0
  1 12  1  0  0  0  0
  2  6  1  0  0  0  0
  3 16  1  0  0  0  0
  5 13  1  0  0  0  0
  6 18  2  0  0  0  0
  7  9  1  6  0  0  0
  7 13  1  0  0  0  0
  7 11  1  0  0  0  0
  8 10  1  0  0  0  0
  8 17  1  0  0  0  0
 10 20  1  0  0  0  0
 11 14  2  0  0  0  0
 12  2  1  0  0  0  0
 12 23  1  0  0  0  0
 13  4  1  0  0  0  0
 14  4  1  0  0  0  0
 14 18  1  0  0  0  0
 15  1  1  6  0  0  0
 16 11  1  0  0  0  0
 16  2  2  0  0  0  0
 20 19  2  0  0  0  0
 20 15  1  0  0  0  0
 21 17  1  6  0  0  0
 21  3  1  0  0  0  0
 21 15  1  0  0  0  0
 23 24  1  0  0  0  0
 25 22  1  0  0  0  0
 25 24  1  0  0  0  0
 26 22  1  0  0  0  0
 26 27  1  0  0  0  0
 27 23  1  0  0  0  0
M  END
>  <MODEL>
1

>  <REMARK>
 VINA RESULT:      -8.5      0.000      0.000
  Name = 
  1 active torsions:
  status: ('A' for Active; 'I' for Inactive)
    1  A    between atoms: C_9  and  N_15
                            x       y       z     vdW  Elec       q    Type
                         _______ _______ _______ _____ _____    ______ ____

>  <TORSDO>
F 1

$$$$
=
 OpenBabel11052418203D

 27 31  0  0  1  0  0  0  0  0999 V2000
  191.0690  175.5700  143.8340 C   0  0  0  0  0  2  0  0  0  0  0  0
  188.7750  175.8770  142.7870 C   0  0  0  0  0  0  0  0  0  0  0  0
  188.8390  176.3740  145.3210 C   0  0  0  0  0  2  0  0  0  0  0  0
  184.9230  177.4410  142.8410 N   0  0  0  0  0  2  0  0  0  0  0  0
  184.3820  179.2520  144.1520 C   0  0  0  0  0  1  0  0  0  0  0  0
  188.0540  175.8990  141.6180 N   0  0  0  0  0  0  0  0  0  0  0  0
  185.9730  177.5030  144.8980 C   0  0  2  0  0  3  0  0  0  0  0  0
  190.3080  175.5510  147.8780 C   0  0  0  0  0  2  0  0  0  0  0  0
  186.6270  178.6760  145.6340 C   0  0  0  0  0  1  0  0  0  0  0  0
  191.7130  175.0790  147.5320 C   0  0  0  0  0  2  0  0  0  0  0  0
  186.8890  176.9350  143.8630 C   0  0  0  0  0  0  0  0  0  0  0  0
  190.1020  175.3020  142.7700 N   0  0  0  0  0  0  0  0  0  0  0  0
  184.6990  177.8260  144.1770 N   0  0  0  0  0  0  0  0  0  0  0  0
  186.2210  176.9200  142.6890 C   0  0  0  0  0  0  0  0  0  0  0  0
  190.7740  174.7190  145.0700 C   0  0  1  0  0  3  0  0  0  0  0  0
  188.1750  176.3910  143.9770 C   0  0  0  0  0  0  0  0  0  0  0  0
  189.2740  174.7110  147.1490 C   0  0  0  0  0  2  0  0  0  0  0  0
  186.7890  176.4010  141.5380 C   0  0  0  0  0  3  0  0  0  0  0  0
  193.0550  174.6110  145.6710 O   0  0  0  0  0  0  0  0  0  0  0  0
  191.9170  174.8190  146.0620 C   0  0  0  0  0  0  0  0  0  0  0  0
  189.3640  174.9790  145.6510 C   0  0  1  0  0  3  0  0  0  0  0  0
  192.0250  172.0840  142.0210 C   0  0  0  0  0  2  0  0  0  0  0  0
  190.5390  174.5840  141.5670 C   0  0  0  0  0  3  0  0  0  0  0  0
  189.8700  173.2110  141.4170 C   0  0  0  0  0  2  0  0  0  0  0  0
  190.5290  172.1520  142.2990 C   0  0  0  0  0  2  0  0  0  0  0  0
  192.6700  173.4310  142.3250 C   0  0  0  0  0  2  0  0  0  0  0  0
  192.0670  174.5200  141.4380 C   0  0  0  0  0  2  0  0  0  0  0  0
  2 16  1  0  0  0  0
  4 13  1  0  0  0  0
  5 13  1  0  0  0  0
  6  2  2  0  0  0  0
  7  9  1  6  0  0  0
 10  8  1  0  0  0  0
 11 16  2  0  0  0  0
 11  7  1  0  0  0  0
 12  2  1  0  0  0  0
 12  1  1  0  0  0  0
 13  7  1  0  0  0  0
 14  4  1  0  0  0  0
 14 11  1  0  0  0  0
 15  1  1  6  0  0  0
 15 21  1  0  0  0  0
 15 20  1  0  0  0  0
 16  3  1  0  0  0  0
 17  8  1  0  0  0  0
 18  6  1  0  0  0  0
 18 14  2  0  0  0  0
 19 20  2  0  0  0  0
 20 10  1  0  0  0  0
 21  3  1  1  0  0  0
 21 17  1  0  0  0  0
 22 25  1  0  0  0  0
 22 26  1  0  0  0  0
 23 12  1  0  0  0  0
 24 23  1  0  0  0  0
 24 25  1  0  0  0  0
 27 23  1  0  0  0  0
 27 26  1  0  0  0  0
M  END
>  <MODEL>
2

>  <REMARK>
 VINA RESULT:      -7.4      3.037      7.222
  Name = 
  1 active torsions:
  status: ('A' for Active; 'I' for Inactive)
    1  A    between atoms: C_9  and  N_15
                            x       y       z     vdW  Elec       q    Type
                         _______ _______ _______ _____ _____    ______ ____

>  <TORSDO>
F 1

$$$$
=
 OpenBabel11052418203D

 27 31  0  0  1  0  0  0  0  0999 V2000
  189.8480  175.7250  143.4150 C   0  0  0  0  0  2  0  0  0  0  0  0
  191.8190  175.8580  145.0120 C   0  0  0  0  0  0  0  0  0  0  0  0
  191.8710  173.7920  143.4620 C   0  0  0  0  0  2  0  0  0  0  0  0
  195.6720  174.7820  146.1450 N   0  0  0  0  0  2  0  0  0  0  0  0
  197.1760  173.9330  144.6260 C   0  0  0  0  0  1  0  0  0  0  0  0
  192.4680  176.6180  145.9550 N   0  0  0  0  0  0  0  0  0  0  0  0
  194.7580  173.3900  144.5440 C   0  0  2  0  0  3  0  0  0  0  0  0
  190.0020  171.8690  141.9850 C   0  0  0  0  0  2  0  0  0  0  0  0
  195.0160  173.3220  143.0350 C   0  0  0  0  0  1  0  0  0  0  0  0
  188.6940  172.5770  141.6570 C   0  0  0  0  0  2  0  0  0  0  0  0
  193.8050  174.4900  144.8820 C   0  0  0  0  0  0  0  0  0  0  0  0
  190.4670  176.2170  144.6450 N   0  0  0  0  0  0  0  0  0  0  0  0
  195.9700  173.6290  145.3920 N   0  0  0  0  0  0  0  0  0  0  0  0
  194.3910  175.2640  145.8200 C   0  0  0  0  0  0  0  0  0  0  0  0
  189.3630  174.2840  143.5830 C   0  0  1  0  0  3  0  0  0  0  0  0
  192.4920  174.7270  144.4570 C   0  0  0  0  0  0  0  0  0  0  0  0
  190.2470  171.8800  143.4840 C   0  0  0  0  0  2  0  0  0  0  0  0
  193.7340  176.3480  146.3800 C   0  0  0  0  0  3  0  0  0  0  0  0
  187.5810  174.5950  142.0670 O   0  0  0  0  0  0  0  0  0  0  0  0
  188.5090  173.8750  142.3980 C   0  0  0  0  0  0  0  0  0  0  0  0
  190.5070  173.3080  143.9470 C   0  0  1  0  0  3  0  0  0  0  0  0
  187.0280  176.5890  146.2740 C   0  0  0  0  0  2  0  0  0  0  0  0
  189.7740  177.2400  145.4370 C   0  0  0  0  0  3  0  0  0  0  0  0
  189.4570  176.7740  146.8650 C   0  0  0  0  0  2  0  0  0  0  0  0
  188.2170  175.8830  146.9150 C   0  0  0  0  0  2  0  0  0  0  0  0
  187.3370  176.9010  144.8150 C   0  0  0  0  0  2  0  0  0  0  0  0
  188.5520  177.8220  144.7140 C   0  0  0  0  0  2  0  0  0  0  0  0
  1 12  1  0  0  0  0
  2  6  1  0  0  0  0
  3 16  1  0  0  0  0
  5 13  1  0  0  0  0
  6 18  2  0  0  0  0
  7  9  1  6  0  0  0
  7 11  1  0  0  0  0
  7 13  1  0  0  0  0
  8 17  1  0  0  0  0
 10  8  1  0  0  0  0
 10 20  1  0  0  0  0
 11 14  2  0  0  0  0
 12  2  1  0  0  0  0
 12 23  1  0  0  0  0
 13  4  1  0  0  0  0
 14  4  1  0  0  0  0
 14 18  1  0  0  0  0
 15  1  1  6  0  0  0
 15 21  1  0  0  0  0
 16 11  1  0  0  0  0
 16  2  2  0  0  0  0
 17 21  1  0  0  0  0
 19 20  2  0  0  0  0
 20 15  1  0  0  0  0
 21  3  1  6  0  0  0
 22 25  1  0  0  0  0
 23 24  1  0  0  0  0
 24 25  1  0  0  0  0
 26 22  1  0  0  0  0
 27 26  1  0  0  0  0
 27 23  1  0  0  0  0
M  END
>  <MODEL>
3

>  <REMARK>
 VINA RESULT:      -7.3      2.389      3.634
  Name = 
  1 active torsions:
  status: ('A' for Active; 'I' for Inactive)
    1  A    between atoms: C_9  and  N_15
                            x       y       z     vdW  Elec       q    Type
                         _______ _______ _______ _____ _____    ______ ____

>  <TORSDO>
F 1

$$$$
=
 OpenBabel11052418203D

 27 31  0  0  1  0  0  0  0  0999 V2000
  190.3290  176.3250  144.0380 C   0  0  0  0  0  2  0  0  0  0  0  0
  192.7040  176.0310  144.8910 C   0  0  0  0  0  0  0  0  0  0  0  0
  192.3180  175.0640  142.5260 C   0  0  0  0  0  2  0  0  0  0  0  0
  196.7470  175.3140  144.2420 N   0  0  0  0  0  2  0  0  0  0  0  0
  197.7090  175.6460  142.1780 C   0  0  0  0  0  1  0  0  0  0  0  0
  193.5970  176.3320  145.8900 N   0  0  0  0  0  0  0  0  0  0  0  0
  195.4100  174.7530  142.4430 C   0  0  2  0  0  3  0  0  0  0  0  0
  190.1330  173.8060  140.7890 C   0  0  0  0  0  2  0  0  0  0  0  0
  195.1710  175.4950  141.1250 C   0  0  0  0  0  1  0  0  0  0  0  0
  188.7680  174.3110  141.2380 C   0  0  0  0  0  2  0  0  0  0  0  0
  194.5840  175.3280  143.5470 C   0  0  0  0  0  0  0  0  0  0  0  0
  191.2950  176.2510  145.1330 N   0  0  0  0  0  0  0  0  0  0  0  0
  196.8230  174.7710  142.9440 N   0  0  0  0  0  0  0  0  0  0  0  0
  195.4150  175.6310  144.5660 C   0  0  0  0  0  0  0  0  0  0  0  0
  189.9680  174.9290  143.5290 C   0  0  1  0  0  3  0  0  0  0  0  0
  193.1970  175.4820  143.6670 C   0  0  0  0  0  0  0  0  0  0  0  0
  190.8460  173.1190  141.9400 C   0  0  0  0  0  2  0  0  0  0  0  0
  194.9410  176.1410  145.7630 C   0  0  0  0  0  3  0  0  0  0  0  0
  187.7840  175.5960  142.9300 O   0  0  0  0  0  0  0  0  0  0  0  0
  188.7920  175.0040  142.5750 C   0  0  0  0  0  0  0  0  0  0  0  0
  191.1980  174.1460  143.0090 C   0  0  1  0  0  3  0  0  0  0  0  0
  188.1740  175.6660  147.2630 C   0  0  0  0  0  2  0  0  0  0  0  0
  190.8630  176.5870  146.4940 C   0  0  0  0  0  3  0  0  0  0  0  0
  190.6580  175.3480  147.3770 C   0  0  0  0  0  2  0  0  0  0  0  0
  189.3160  174.6680  147.1090 C   0  0  0  0  0  2  0  0  0  0  0  0
  188.3450  176.8040  146.2640 C   0  0  0  0  0  2  0  0  0  0  0  0
  189.6600  177.5400  146.5160 C   0  0  0  0  0  2  0  0  0  0  0  0
  1 12  1  0  0  0  0
  2 12  1  0  0  0  0
  2  6  1  0  0  0  0
  3 21  1  0  0  0  0
  3 16  1  0  0  0  0
  4 14  1  0  0  0  0
  5 13  1  0  0  0  0
  7  9  1  6  0  0  0
  7 13  1  0  0  0  0
  7 11  1  0  0  0  0
  8 10  1  0  0  0  0
  8 17  1  0  0  0  0
 10 20  1  0  0  0  0
 11 16  1  0  0  0  0
 11 14  2  0  0  0  0
 12 23  1  0  0  0  0
 13  4  1  0  0  0  0
 14 18  1  0  0  0  0
 15  1  1  6  0  0  0
 16  2  2  0  0  0  0
 18  6  2  0  0  0  0
 20 19  2  0  0  0  0
 20 15  1  0  0  0  0
 21 17  1  6  0  0  0
 21 15  1  0  0  0  0
 23 27  1  0  0  0  0
 23 24  1  0  0  0  0
 25 22  1  0  0  0  0
 25 24  1  0  0  0  0
 26 27  1  0  0  0  0
 26 22  1  0  0  0  0
M  END
>  <MODEL>
4

>  <REMARK>
 VINA RESULT:      -7.2      2.490      3.960
  Name = 
  1 active torsions:
  status: ('A' for Active; 'I' for Inactive)
    1  A    between atoms: C_9  and  N_15
                            x       y       z     vdW  Elec       q    Type
                         _______ _______ _______ _____ _____    ______ ____

>  <TORSDO>
F 1

$$$$
=
 OpenBabel11052418203D

 27 31  0  0  1  0  0  0  0  0999 V2000
  187.8480  176.0320  144.6980 C   0  0  0  0  0  2  0  0  0  0  0  0
  188.3720  175.2320  142.3440 C   0  0  0  0  0  0  0  0  0  0  0  0
  190.3710  175.0620  143.9710 C   0  0  0  0  0  2  0  0  0  0  0  0
  190.7080  173.0810  139.6610 N   0  0  0  0  0  2  0  0  0  0  0  0
  192.0850  171.3780  140.3660 C   0  0  0  0  0  1  0  0  0  0  0  0
  187.8610  174.9510  141.1000 N   0  0  0  0  0  0  0  0  0  0  0  0
  191.7370  173.4400  141.6980 C   0  0  2  0  0  3  0  0  0  0  0  0
  191.5520  176.4170  146.4510 C   0  0  0  0  0  2  0  0  0  0  0  0
  191.9400  172.4860  142.8800 C   0  0  0  0  0  1  0  0  0  0  0  0
  190.4370  177.0660  147.2590 C   0  0  0  0  0  2  0  0  0  0  0  0
  190.3590  174.0190  141.7010 C   0  0  0  0  0  0  0  0  0  0  0  0
  187.5680  176.0080  143.2630 N   0  0  0  0  0  0  0  0  0  0  0  0
  191.9160  172.8290  140.3410 N   0  0  0  0  0  0  0  0  0  0  0  0
  189.8130  173.7830  140.4890 C   0  0  0  0  0  0  0  0  0  0  0  0
  189.0160  176.9670  145.0140 C   0  0  1  0  0  3  0  0  0  0  0  0
  189.6850  174.7740  142.6690 C   0  0  0  0  0  0  0  0  0  0  0  0
  191.5800  176.9830  145.0410 C   0  0  0  0  0  2  0  0  0  0  0  0
  188.5500  174.2440  140.1600 C   0  0  0  0  0  3  0  0  0  0  0  0
  188.1420  177.5160  147.1360 O   0  0  0  0  0  0  0  0  0  0  0  0
  189.1340  177.1750  146.5110 C   0  0  0  0  0  0  0  0  0  0  0  0
  190.3230  176.5540  144.2940 C   0  0  1  0  0  3  0  0  0  0  0  0
  185.7700  179.3440  143.7640 C   0  0  0  0  0  2  0  0  0  0  0  0
  186.3410  176.6360  142.7600 C   0  0  0  0  0  3  0  0  0  0  0  0
  186.6160  177.8850  141.9110 C   0  0  0  0  0  2  0  0  0  0  0  0
  186.9030  179.1130  142.7720 C   0  0  0  0  0  2  0  0  0  0  0  0
  185.6320  178.1350  144.6820 C   0  0  0  0  0  2  0  0  0  0  0  0
  185.3070  176.8840  143.8670 C   0  0  0  0  0  2  0  0  0  0  0  0
  2 16  1  0  0  0  0
  2 12  1  0  0  0  0
  4 13  1  0  0  0  0
  4 14  1  0  0  0  0
  6  2  2  0  0  0  0
  7 11  1  0  0  0  0
  7  9  1  1  0  0  0
  8 10  1  0  0  0  0
 11 16  2  0  0  0  0
 12  1  1  0  0  0  0
 13  5  1  0  0  0  0
 13  7  1  0  0  0  0
 14 11  1  0  0  0  0
 15  1  1  1  0  0  0
 15 20  1  0  0  0  0
 16  3  1  0  0  0  0
 17  8  1  0  0  0  0
 18 14  2  0  0  0  0
 18  6  1  0  0  0  0
 20 19  2  0  0  0  0
 20 10  1  0  0  0  0
 21  3  1  1  0  0  0
 21 15  1  0  0  0  0
 21 17  1  0  0  0  0
 22 26  1  0  0  0  0
 23 12  1  0  0  0  0
 23 27  1  0  0  0  0
 24 23  1  0  0  0  0
 24 25  1  0  0  0  0
 25 22  1  0  0  0  0
 27 26  1  0  0  0  0
M  END
>  <MODEL>
5

>  <REMARK>
 VINA RESULT:      -6.9      2.990      5.001
  Name = 
  1 active torsions:
  status: ('A' for Active; 'I' for Inactive)
    1  A    between atoms: C_9  and  N_15
                            x       y       z     vdW  Elec       q    Type
                         _______ _______ _______ _____ _____    ______ ____

>  <TORSDO>
F 1

$$$$
=
 OpenBabel11052418203D

 27 31  0  0  1  0  0  0  0  0999 V2000
  191.9160  176.6160  144.1650 C   0  0  0  0  0  2  0  0  0  0  0  0
  189.7220  176.2160  142.9480 C   0  0  0  0  0  0  0  0  0  0  0  0
  189.4300  176.9810  145.3980 C   0  0  0  0  0  2  0  0  0  0  0  0
  185.6160  176.7460  142.5660 N   0  0  0  0  0  2  0  0  0  0  0  0
  184.5300  178.4900  143.6010 C   0  0  0  0  0  1  0  0  0  0  0  0
  189.1270  175.9280  141.7430 N   0  0  0  0  0  0  0  0  0  0  0  0
  186.4260  177.2930  144.6590 C   0  0  2  0  0  3  0  0  0  0  0  0
  190.8160  176.8370  148.1240 C   0  0  0  0  0  2  0  0  0  0  0  0
  186.7030  178.6660  145.2800 C   0  0  0  0  0  1  0  0  0  0  0  0
  192.3200  176.7040  147.9280 C   0  0  0  0  0  2  0  0  0  0  0  0
  187.5440  176.8690  143.7630 C   0  0  0  0  0  0  0  0  0  0  0  0
  191.1450  175.9990  143.0860 N   0  0  0  0  0  0  0  0  0  0  0  0
  185.1830  177.2030  143.8270 N   0  0  0  0  0  0  0  0  0  0  0  0
  187.0110  176.5600  142.5620 C   0  0  0  0  0  0  0  0  0  0  0  0
  191.7270  175.8550  145.4780 C   0  0  1  0  0  3  0  0  0  0  0  0
  188.9080  176.6850  144.0240 C   0  0  0  0  0  0  0  0  0  0  0  0
  190.0900  175.6890  147.4440 C   0  0  0  0  0  2  0  0  0  0  0  0
  187.7910  176.0810  141.5230 C   0  0  0  0  0  3  0  0  0  0  0  0
  193.8990  176.3960  146.2270 O   0  0  0  0  0  0  0  0  0  0  0  0
  192.7150  176.3480  146.5180 C   0  0  0  0  0  0  0  0  0  0  0  0
  190.2480  175.8090  145.9340 C   0  0  1  0  0  3  0  0  0  0  0  0
  193.9510  173.4110  142.8680 C   0  0  0  0  0  2  0  0  0  0  0  0
  191.8530  175.2910  142.0130 C   0  0  0  0  0  3  0  0  0  0  0  0
  191.6130  173.7750  142.0410 C   0  0  0  0  0  2  0  0  0  0  0  0
  192.4800  173.0760  143.0860 C   0  0  0  0  0  2  0  0  0  0  0  0
  194.1630  174.9140  142.9950 C   0  0  0  0  0  2  0  0  0  0  0  0
  193.3410  175.6580  141.9420 C   0  0  0  0  0  2  0  0  0  0  0  0
  2 12  1  0  0  0  0
  2 16  1  0  0  0  0
  4 13  1  0  0  0  0
  5 13  1  0  0  0  0
  6  2  2  0  0  0  0
  7  9  1  6  0  0  0
 10  8  1  0  0  0  0
 11 16  2  0  0  0  0
 11  7  1  0  0  0  0
 12  1  1  0  0  0  0
 13  7  1  0  0  0  0
 14  4  1  0  0  0  0
 14 11  1  0  0  0  0
 15  1  1  6  0  0  0
 15 21  1  0  0  0  0
 15 20  1  0  0  0  0
 16  3  1  0  0  0  0
 17  8  1  0  0  0  0
 18  6  1  0  0  0  0
 18 14  2  0  0  0  0
 19 20  2  0  0  0  0
 20 10  1  0  0  0  0
 21  3  1  1  0  0  0
 21 17  1  0  0  0  0
 22 26  1  0  0  0  0
 22 25  1  0  0  0  0
 23 24  1  0  0  0  0
 23 12  1  0  0  0  0
 24 25  1  0  0  0  0
 27 23  1  0  0  0  0
 27 26  1  0  0  0  0
M  END
>  <MODEL>
6

>  <REMARK>
 VINA RESULT:      -6.6      2.759      7.284
  Name = 
  1 active torsions:
  status: ('A' for Active; 'I' for Inactive)
    1  A    between atoms: C_9  and  N_15
                            x       y       z     vdW  Elec       q    Type
                         _______ _______ _______ _____ _____    ______ ____

>  <TORSDO>
F 1

$$$$
=
 OpenBabel11052418203D

 27 31  0  0  1  0  0  0  0  0999 V2000
  192.7990  173.9810  144.9330 C   0  0  0  0  0  2  0  0  0  0  0  0
  191.8860  176.1330  143.9380 C   0  0  0  0  0  0  0  0  0  0  0  0
  190.6270  174.0120  143.1680 C   0  0  0  0  0  2  0  0  0  0  0  0
  188.8610  178.2910  142.0730 N   0  0  0  0  0  2  0  0  0  0  0  0
  186.6700  177.5910  142.1420 C   0  0  0  0  0  1  0  0  0  0  0  0
  191.9510  177.5050  143.9450 N   0  0  0  0  0  0  0  0  0  0  0  0
  188.5650  176.0020  141.9610 C   0  0  2  0  0  3  0  0  0  0  0  0
  191.0760  171.0300  142.6390 C   0  0  0  0  0  2  0  0  0  0  0  0
  187.6320  175.0890  142.7640 C   0  0  0  0  0  1  0  0  0  0  0  0
  192.2110  170.5200  143.5160 C   0  0  0  0  0  2  0  0  0  0  0  0
  189.8000  176.3300  142.7360 C   0  0  0  0  0  0  0  0  0  0  0  0
  192.9570  175.3860  144.5590 N   0  0  0  0  0  0  0  0  0  0  0  0
  187.9800  177.3210  141.5540 N   0  0  0  0  0  0  0  0  0  0  0  0
  189.9210  177.6750  142.7630 C   0  0  0  0  0  0  0  0  0  0  0  0
  192.9430  173.0690  143.7140 C   0  0  1  0  0  3  0  0  0  0  0  0
  190.7820  175.4990  143.2890 C   0  0  0  0  0  0  0  0  0  0  0  0
  191.5610  172.1640  141.7530 C   0  0  0  0  0  2  0  0  0  0  0  0
  191.0010  178.2940  143.3690 C   0  0  0  0  0  3  0  0  0  0  0  0
  193.8390  171.3070  145.0040 O   0  0  0  0  0  0  0  0  0  0  0  0
  193.0250  171.6180  144.1480 C   0  0  0  0  0  0  0  0  0  0  0  0
  191.8980  173.3750  142.6130 C   0  0  1  0  0  3  0  0  0  0  0  0
  196.7090  174.6650  144.6930 C   0  0  0  0  0  2  0  0  0  0  0  0
  194.1610  176.1100  144.9840 C   0  0  0  0  0  3  0  0  0  0  0  0
  195.1230  176.3980  143.8230 C   0  0  0  0  0  2  0  0  0  0  0  0
  195.9710  175.1800  143.4640 C   0  0  0  0  0  2  0  0  0  0  0  0
  195.7060  174.2530  145.7640 C   0  0  0  0  0  2  0  0  0  0  0  0
  194.8560  175.4510  146.1840 C   0  0  0  0  0  2  0  0  0  0  0  0
  2  6  1  0  0  0  0
  2 12  1  0  0  0  0
  3 16  1  0  0  0  0
  4 14  1  0  0  0  0
  7 11  1  0  0  0  0
  7  9  1  1  0  0  0
  8 10  1  0  0  0  0
 10 20  1  0  0  0  0
 11 14  2  0  0  0  0
 11 16  1  0  0  0  0
 12  1  1  0  0  0  0
 12 23  1  0  0  0  0
 13  7  1  0  0  0  0
 13  4  1  0  0  0  0
 13  5  1  0  0  0  0
 14 18  1  0  0  0  0
 15 20  1  0  0  0  0
 15  1  1  1  0  0  0
 16  2  2  0  0  0  0
 17  8  1  0  0  0  0
 18  6  2  0  0  0  0
 20 19  2  0  0  0  0
 21 17  1  1  0  0  0
 21  3  1  0  0  0  0
 21 15  1  0  0  0  0
 22 26  1  0  0  0  0
 23 27  1  0  0  0  0
 24 23  1  0  0  0  0
 25 24  1  0  0  0  0
 25 22  1  0  0  0  0
 26 27  1  0  0  0  0
M  END
>  <MODEL>
7

>  <REMARK>
 VINA RESULT:      -6.6      3.674      7.453
  Name = 
  1 active torsions:
  status: ('A' for Active; 'I' for Inactive)
    1  A    between atoms: C_9  and  N_15
                            x       y       z     vdW  Elec       q    Type
                         _______ _______ _______ _____ _____    ______ ____

>  <TORSDO>
F 1

$$$$
=
 OpenBabel11052418203D

 27 31  0  0  1  0  0  0  0  0999 V2000
  192.8040  175.8460  144.4600 C   0  0  0  0  0  2  0  0  0  0  0  0
  192.5390  174.5720  142.2780 C   0  0  0  0  0  0  0  0  0  0  0  0
  190.3180  174.9460  143.5440 C   0  0  0  0  0  2  0  0  0  0  0  0
  190.2090  173.1900  139.1240 N   0  0  0  0  0  2  0  0  0  0  0  0
  188.1910  174.1660  138.6050 C   0  0  0  0  0  1  0  0  0  0  0  0
  193.1650  174.1300  141.1380 N   0  0  0  0  0  0  0  0  0  0  0  0
  188.9730  173.8990  140.9430 C   0  0  2  0  0  3  0  0  0  0  0  0
  189.2120  175.2610  146.3810 C   0  0  0  0  0  2  0  0  0  0  0  0
  188.1910  175.1980  141.1560 C   0  0  0  0  0  1  0  0  0  0  0  0
  190.2870  175.8450  147.2880 C   0  0  0  0  0  2  0  0  0  0  0  0
  190.4330  174.0970  141.1960 C   0  0  0  0  0  0  0  0  0  0  0  0
  193.3550  175.0220  143.3850 N   0  0  0  0  0  0  0  0  0  0  0  0
  188.8770  173.3080  139.5690 N   0  0  0  0  0  0  0  0  0  0  0  0
  191.1000  173.6630  140.1060 C   0  0  0  0  0  0  0  0  0  0  0  0
  192.0170  174.9940  145.4570 C   0  0  1  0  0  3  0  0  0  0  0  0
  191.1120  174.5410  142.3380 C   0  0  0  0  0  0  0  0  0  0  0  0
  189.6920  173.9590  145.7640 C   0  0  0  0  0  2  0  0  0  0  0  0
  192.4830  173.6690  140.0520 C   0  0  0  0  0  3  0  0  0  0  0  0
  192.5580  176.4150  147.2620 O   0  0  0  0  0  0  0  0  0  0  0  0
  191.6670  175.8090  146.6860 C   0  0  0  0  0  0  0  0  0  0  0  0
  190.8340  174.2440  144.7970 C   0  0  1  0  0  3  0  0  0  0  0  0
  196.0680  173.8580  145.8130 C   0  0  0  0  0  2  0  0  0  0  0  0
  194.8030  174.7940  143.3250 C   0  0  0  0  0  3  0  0  0  0  0  0
  195.1830  173.3210  143.5310 C   0  0  0  0  0  2  0  0  0  0  0  0
  195.1720  172.9260  145.0060 C   0  0  0  0  0  2  0  0  0  0  0  0
  195.5640  175.2910  145.6950 C   0  0  0  0  0  2  0  0  0  0  0  0
  195.5900  175.7450  144.2370 C   0  0  0  0  0  2  0  0  0  0  0  0
  2 16  1  0  0  0  0
  2 12  1  0  0  0  0
  4 13  1  0  0  0  0
  4 14  1  0  0  0  0
  5 13  1  0  0  0  0
  6  2  2  0  0  0  0
  7  9  1  6  0  0  0
  7 11  1  0  0  0  0
  8 10  1  0  0  0  0
 11 16  2  0  0  0  0
 12  1  1  0  0  0  0
 13  7  1  0  0  0  0
 14 11  1  0  0  0  0
 15  1  1  6  0  0  0
 15 20  1  0  0  0  0
 16  3  1  0  0  0  0
 17  8  1  0  0  0  0
 18 14  2  0  0  0  0
 18  6  1  0  0  0  0
 20 19  2  0  0  0  0
 20 10  1  0  0  0  0
 21  3  1  6  0  0  0
 21 15  1  0  0  0  0
 21 17  1  0  0  0  0
 23 12  1  0  0  0  0
 23 24  1  0  0  0  0
 23 27  1  0  0  0  0
 24 25  1  0  0  0  0
 25 22  1  0  0  0  0
 26 22  1  0  0  0  0
 27 26  1  0  0  0  0
M  END
>  <MODEL>
8

>  <REMARK>
 VINA RESULT:      -6.6      3.737      7.598
  Name = 
  1 active torsions:
  status: ('A' for Active; 'I' for Inactive)
    1  A    between atoms: C_9  and  N_15
                            x       y       z     vdW  Elec       q    Type
                         _______ _______ _______ _____ _____    ______ ____

>  <TORSDO>
F 1

$$$$
=
 OpenBabel11052418203D

 27 31  0  0  1  0  0  0  0  0999 V2000
  192.8240  175.6190  142.9570 C   0  0  0  0  0  2  0  0  0  0  0  0
  190.4020  175.1670  142.3370 C   0  0  0  0  0  0  0  0  0  0  0  0
  190.6990  176.2250  144.6750 C   0  0  0  0  0  2  0  0  0  0  0  0
  186.3270  175.8110  142.8490 N   0  0  0  0  0  2  0  0  0  0  0  0
  185.5320  177.7070  143.8840 C   0  0  0  0  0  1  0  0  0  0  0  0
  189.5400  174.7640  141.3470 N   0  0  0  0  0  0  0  0  0  0  0  0
  187.6100  176.5670  144.6160 C   0  0  2  0  0  3  0  0  0  0  0  0
  192.6820  176.3460  147.0050 C   0  0  0  0  0  2  0  0  0  0  0  0
  188.0390  177.9910  144.9820 C   0  0  0  0  0  1  0  0  0  0  0  0
  194.0960  176.1300  146.4860 C   0  0  0  0  0  2  0  0  0  0  0  0
  188.4820  175.9970  143.5450 C   0  0  0  0  0  0  0  0  0  0  0  0
  191.8160  174.9110  142.1690 N   0  0  0  0  0  0  0  0  0  0  0  0
  186.2060  176.4300  144.1090 N   0  0  0  0  0  0  0  0  0  0  0  0
  187.6800  175.5710  142.5470 C   0  0  0  0  0  0  0  0  0  0  0  0
  192.9390  175.0250  144.3620 C   0  0  1  0  0  3  0  0  0  0  0  0
  189.8670  175.7910  143.5050 C   0  0  0  0  0  0  0  0  0  0  0  0
  191.8040  175.1560  146.6580 C   0  0  0  0  0  2  0  0  0  0  0  0
  188.1910  174.9430  141.4230 C   0  0  0  0  0  3  0  0  0  0  0  0
  195.2310  175.5630  144.5180 O   0  0  0  0  0  0  0  0  0  0  0  0
  194.1470  175.5970  145.0780 C   0  0  0  0  0  0  0  0  0  0  0  0
  191.6070  175.0920  145.1480 C   0  0  1  0  0  3  0  0  0  0  0  0
  194.6780  172.4620  141.5160 C   0  0  0  0  0  2  0  0  0  0  0  0
  192.2450  174.0550  141.0580 C   0  0  0  0  0  3  0  0  0  0  0  0
  192.1770  172.5590  141.3970 C   0  0  0  0  0  2  0  0  0  0  0  0
  193.3780  172.1030  142.2240 C   0  0  0  0  0  2  0  0  0  0  0  0
  194.7670  173.9730  141.3320 C   0  0  0  0  0  2  0  0  0  0  0  0
  193.6040  174.4730  140.4780 C   0  0  0  0  0  2  0  0  0  0  0  0
  2 16  1  0  0  0  0
  4 13  1  0  0  0  0
  5 13  1  0  0  0  0
  6 18  1  0  0  0  0
  6  2  2  0  0  0  0
  7  9  1  6  0  0  0
 10  8  1  0  0  0  0
 11  7  1  0  0  0  0
 12  2  1  0  0  0  0
 12  1  1  0  0  0  0
 13  7  1  0  0  0  0
 14  4  1  0  0  0  0
 14 11  1  0  0  0  0
 15  1  1  6  0  0  0
 15 20  1  0  0  0  0
 15 21  1  0  0  0  0
 16 11  2  0  0  0  0
 16  3  1  0  0  0  0
 17  8  1  0  0  0  0
 18 14  2  0  0  0  0
 19 20  2  0  0  0  0
 20 10  1  0  0  0  0
 21  3  1  6  0  0  0
 21 17  1  0  0  0  0
 22 25  1  0  0  0  0
 23 24  1  0  0  0  0
 23 12  1  0  0  0  0
 24 25  1  0  0  0  0
 26 22  1  0  0  0  0
 27 23  1  0  0  0  0
 27 26  1  0  0  0  0
M  END
>  <MODEL>
9

>  <REMARK>
 VINA RESULT:      -6.6      3.252      7.738
  Name = 
  1 active torsions:
  status: ('A' for Active; 'I' for Inactive)
    1  A    between atoms: C_9  and  N_15
                            x       y       z     vdW  Elec       q    Type
                         _______ _______ _______ _____ _____    ______ ____

>  <TORSDO>
F 1

$$$$
