=
 OpenBabel11052420413D

 43 49  0  0  1  0  0  0  0  0999 V2000
  184.9760  178.8250  144.8980 C   0  0  1  0  0  3  0  0  0  0  0  0
  189.1520  175.8860  145.5260 C   0  0  0  0  0  0  0  0  0  0  0  0
  189.2890  174.3030  143.2710 C   0  0  0  0  0  0  0  0  0  0  0  0
  186.9680  177.6140  145.8540 C   0  0  0  0  0  0  0  0  0  0  0  0
  184.9600  177.7510  143.8420 C   0  0  0  0  0  3  0  0  0  0  0  0
  183.6810  179.0700  145.3520 O   0  0  0  0  0  1  0  0  0  0  0  0
  187.0520  176.8110  144.7050 C   0  0  0  0  0  0  0  0  0  0  0  0
  185.8420  178.4780  146.0250 N   0  0  0  0  0  2  0  0  0  0  0  0
  185.9420  176.8520  143.7330 C   0  0  0  0  0  3  0  0  0  0  0  0
  188.2380  175.1480  143.4380 N   0  0  0  0  0  0  0  0  0  0  0  0
  188.1430  175.9410  144.5380 C   0  0  0  0  0  0  0  0  0  0  0  0
  189.0500  176.6880  146.6720 C   0  0  0  0  0  3  0  0  0  0  0  0
  190.2310  175.0120  145.3330 C   0  0  0  0  0  0  0  0  0  0  0  0
  190.2730  174.2470  144.2070 N   0  0  0  0  0  0  0  0  0  0  0  0
  187.9590  177.5460  146.8370 C   0  0  0  0  0  3  0  0  0  0  0  0
  189.3770  173.4690  142.0360 C   0  0  2  0  0  3  0  0  0  0  0  0
  189.9850  174.2550  140.9400 C   0  0  2  0  0  3  0  0  0  0  0  0
  188.5980  174.0400  141.0120 O   0  0  0  0  0  0  0  0  0  0  0  0
  190.5880  173.3190  139.9120 C   0  0  1  0  0  3  0  0  0  0  0  0
  190.0900  173.6370  138.6470 O   0  0  0  0  0  1  0  0  0  0  0  0
  192.0990  173.4710  139.9180 C   0  0  0  0  0  2  0  0  0  0  0  0
  192.7370  172.1570  139.8230 N   0  0  0  0  0  0  0  0  0  0  0  0
  193.6530  171.7450  142.0080 C   0  0  0  0  0  2  0  0  0  0  0  0
  191.8350  171.2290  140.5030 C   0  0  0  0  0  2  0  0  0  0  0  0
  194.0050  172.0940  140.5740 C   0  0  1  0  0  0  0  0  0  0  0  0
  194.8550  170.9710  139.9890 C   0  0  0  0  0  1  0  0  0  0  0  0
  192.3300  171.0260  141.9250 C   0  0  0  0  0  2  0  0  0  0  0  0
  194.8160  173.4030  140.4990 C   0  0  0  0  0  2  0  0  0  0  0  0
  195.1910  173.8820  141.8230 N   0  0  0  0  0  0  0  0  0  0  0  0
  197.9410  175.9850  142.4230 O   0  0  0  0  0  0  0  0  0  0  0  0
  195.5810  176.2010  142.4770 C   0  0  0  0  0  2  0  0  0  0  0  0
  196.8410  175.4860  142.2570 C   0  0  0  0  0  0  0  0  0  0  0  0
  194.5490  175.1920  142.0010 C   0  0  0  0  0  2  0  0  0  0  0  0
  196.6350  174.1000  141.8040 C   0  0  0  0  0  2  0  0  0  0  0  0
  191.2740  174.9290  146.3190 N   0  0  0  0  0  2  0  0  0  0  0  0
  194.5350  173.2870  145.4290 C   0  0  0  0  0  3  0  0  0  0  0  0
  195.4260  174.3350  145.6830 C   0  0  0  0  0  0  0  0  0  0  0  0
  193.5720  175.7420  146.3550 C   0  0  0  0  0  3  0  0  0  0  0  0
  193.1640  173.4720  145.6300 C   0  0  0  0  0  3  0  0  0  0  0  0
  192.6720  174.7020  146.0930 C   0  0  0  0  0  0  0  0  0  0  0  0
  194.9440  175.5600  146.1550 C   0  0  0  0  0  3  0  0  0  0  0  0
  197.1390  172.8070  145.1380 O   0  0  0  0  0  1  0  0  0  0  0  0
  196.8880  174.1330  145.4940 C   0  0  0  0  0  2  0  0  0  0  0  0
  1  6  1  1  0  0  0
  1  8  1  0  0  0  0
  2 12  1  0  0  0  0
  3 10  2  0  0  0  0
  3 14  1  0  0  0  0
  4  8  1  0  0  0  0
  4 15  1  0  0  0  0
  5  1  1  0  0  0  0
  7  4  2  0  0  0  0
  9  5  2  0  0  0  0
  9  7  1  0  0  0  0
 10 11  1  0  0  0  0
 11  7  1  0  0  0  0
 11  2  2  0  0  0  0
 12 15  2  0  0  0  0
 13  2  1  0  0  0  0
 13 35  1  0  0  0  0
 14 13  2  0  0  0  0
 16  3  1  1  0  0  0
 17 19  1  6  0  0  0
 17 18  1  0  0  0  0
 17 16  1  0  0  0  0
 18 16  1  0  0  0  0
 19 20  1  6  0  0  0
 19 21  1  0  0  0  0
 22 21  1  0  0  0  0
 22 24  1  0  0  0  0
 22 25  1  0  0  0  0
 24 27  1  0  0  0  0
 25 26  1  6  0  0  0
 25 23  1  0  0  0  0
 27 23  1  0  0  0  0
 28 25  1  0  0  0  0
 28 29  1  0  0  0  0
 29 33  1  0  0  0  0
 32 30  2  0  0  0  0
 32 31  1  0  0  0  0
 33 31  1  0  0  0  0
 34 29  1  0  0  0  0
 34 32  1  0  0  0  0
 36 39  2  0  0  0  0
 36 37  1  0  0  0  0
 37 41  2  0  0  0  0
 39 40  1  0  0  0  0
 40 35  1  0  0  0  0
 40 38  2  0  0  0  0
 41 38  1  0  0  0  0
 42 43  1  0  0  0  0
 43 37  1  0  0  0  0
M  END
>  <MODEL>
1

>  <REMARK>
 VINA RESULT:      -7.2      0.000      0.000
  Name = 
  9 active torsions:
  status: ('A' for Active; 'I' for Inactive)
    1  A    between atoms: N_1  and  C_34
    2  A    between atoms: N_1  and  C_35
    3  A    between atoms: C_2  and  C_13
    4  A    between atoms: C_3  and  N_4
    5  A    between atoms: C_3  and  C_12
    6  A    between atoms: C_6  and  C_12
    7  A    between atoms: N_11  and  C_14
    8  A    between atoms: C_14  and  C_22
    9  A    between atoms: C_19  and  C_37
                            x       y       z     vdW  Elec       q    Type
                         _______ _______ _______ _____ _____    ______ ____

>  <TORSDO>
F 9

$$$$
=
 OpenBabel11052420413D

 43 49  0  0  1  0  0  0  0  0999 V2000
  196.2480  173.8330  145.3040 C   0  0  1  0  0  3  0  0  0  0  0  0
  191.3400  175.3420  145.6190 C   0  0  0  0  0  0  0  0  0  0  0  0
  189.9910  173.8790  143.7080 C   0  0  0  0  0  0  0  0  0  0  0  0
  194.1240  175.0810  145.8290 C   0  0  0  0  0  0  0  0  0  0  0  0
  195.5080  173.2820  144.1140 C   0  0  0  0  0  3  0  0  0  0  0  0
  197.5340  174.2210  144.9310 O   0  0  0  0  0  1  0  0  0  0  0  0
  193.4270  174.3340  144.8660 C   0  0  0  0  0  0  0  0  0  0  0  0
  195.5450  174.9600  145.9180 N   0  0  0  0  0  2  0  0  0  0  0  0
  194.1990  173.4820  143.9400 C   0  0  0  0  0  3  0  0  0  0  0  0
  191.3400  173.7570  143.8230 N   0  0  0  0  0  0  0  0  0  0  0  0
  192.0320  174.4640  144.7550 C   0  0  0  0  0  0  0  0  0  0  0  0
  192.0510  176.0880  146.5700 C   0  0  0  0  0  3  0  0  0  0  0  0
  189.9480  175.4500  145.4890 C   0  0  0  0  0  0  0  0  0  0  0  0
  189.3100  174.7110  144.5400 N   0  0  0  0  0  0  0  0  0  0  0  0
  193.4380  175.9610  146.6710 C   0  0  0  0  0  3  0  0  0  0  0  0
  189.2600  173.0640  142.6940 C   0  0  2  0  0  3  0  0  0  0  0  0
  189.3880  173.6880  141.3580 C   0  0  2  0  0  3  0  0  0  0  0  0
  188.2180  173.8210  142.1260 O   0  0  0  0  0  0  0  0  0  0  0  0
  189.1690  172.6450  140.2810 C   0  0  1  0  0  3  0  0  0  0  0  0
  187.9710  172.9090  139.6160 O   0  0  0  0  0  1  0  0  0  0  0  0
  190.3220  172.6930  139.2940 C   0  0  0  0  0  2  0  0  0  0  0  0
  190.0210  171.8590  138.1290 N   0  0  0  0  0  0  0  0  0  0  0  0
  191.8070  172.2830  136.5760 C   0  0  0  0  0  2  0  0  0  0  0  0
  190.9400  170.7250  138.2060 C   0  0  0  0  0  2  0  0  0  0  0  0
  190.3380  172.5370  136.8570 C   0  0  1  0  0  0  0  0  0  0  0  0
  189.5070  171.8960  135.7510 C   0  0  0  0  0  1  0  0  0  0  0  0
  192.1350  171.0070  137.3110 C   0  0  0  0  0  2  0  0  0  0  0  0
  190.0250  174.0460  136.8840 C   0  0  0  0  0  2  0  0  0  0  0  0
  189.5900  174.5290  135.5800 N   0  0  0  0  0  0  0  0  0  0  0  0
  187.7610  177.4930  135.1160 O   0  0  0  0  0  0  0  0  0  0  0  0
  189.9660  176.7540  134.6510 C   0  0  0  0  0  2  0  0  0  0  0  0
  188.6050  176.6150  135.1770 C   0  0  0  0  0  0  0  0  0  0  0  0
  190.6220  175.4600  135.1040 C   0  0  0  0  0  2  0  0  0  0  0  0
  188.3690  175.3010  135.7970 C   0  0  0  0  0  2  0  0  0  0  0  0
  189.2120  176.3350  146.3500 N   0  0  0  0  0  2  0  0  0  0  0  0
  185.5790  177.2510  146.6430 C   0  0  0  0  0  3  0  0  0  0  0  0
  185.4440  178.1110  145.5490 C   0  0  0  0  0  0  0  0  0  0  0  0
  187.7800  177.7770  145.0040 C   0  0  0  0  0  3  0  0  0  0  0  0
  186.8170  176.6630  146.9210 C   0  0  0  0  0  3  0  0  0  0  0  0
  187.9280  176.9240  146.1040 C   0  0  0  0  0  0  0  0  0  0  0  0
  186.5440  178.3670  144.7240 C   0  0  0  0  0  3  0  0  0  0  0  0
  184.0150  178.9380  143.8640 O   0  0  0  0  0  1  0  0  0  0  0  0
  184.1210  178.7180  145.2370 C   0  0  0  0  0  2  0  0  0  0  0  0
  1  6  1  6  0  0  0
  1  8  1  0  0  0  0
  2 12  1  0  0  0  0
  3 10  2  0  0  0  0
  3 14  1  0  0  0  0
  4  8  1  0  0  0  0
  4 15  1  0  0  0  0
  5  1  1  0  0  0  0
  7  4  2  0  0  0  0
  9  5  2  0  0  0  0
  9  7  1  0  0  0  0
 10 11  1  0  0  0  0
 11  7  1  0  0  0  0
 11  2  2  0  0  0  0
 12 15  2  0  0  0  0
 13  2  1  0  0  0  0
 13 35  1  0  0  0  0
 14 13  2  0  0  0  0
 16  3  1  1  0  0  0
 17 19  1  6  0  0  0
 17 18  1  0  0  0  0
 17 16  1  0  0  0  0
 18 16  1  0  0  0  0
 19 20  1  6  0  0  0
 21 19  1  0  0  0  0
 22 24  1  0  0  0  0
 22 21  1  0  0  0  0
 23 25  1  0  0  0  0
 23 27  1  0  0  0  0
 25 26  1  6  0  0  0
 25 28  1  0  0  0  0
 25 22  1  0  0  0  0
 27 24  1  0  0  0  0
 29 34  1  0  0  0  0
 29 28  1  0  0  0  0
 30 32  2  0  0  0  0
 31 33  1  0  0  0  0
 31 32  1  0  0  0  0
 32 34  1  0  0  0  0
 33 29  1  0  0  0  0
 36 39  1  0  0  0  0
 37 36  2  0  0  0  0
 38 40  1  0  0  0  0
 40 35  1  0  0  0  0
 40 39  2  0  0  0  0
 41 38  2  0  0  0  0
 41 37  1  0  0  0  0
 42 43  1  0  0  0  0
 43 37  1  0  0  0  0
M  END
>  <MODEL>
2

>  <REMARK>
 VINA RESULT:      -7.0      2.832      7.610
  Name = 
  9 active torsions:
  status: ('A' for Active; 'I' for Inactive)
    1  A    between atoms: N_1  and  C_34
    2  A    between atoms: N_1  and  C_35
    3  A    between atoms: C_2  and  C_13
    4  A    between atoms: C_3  and  N_4
    5  A    between atoms: C_3  and  C_12
    6  A    between atoms: C_6  and  C_12
    7  A    between atoms: N_11  and  C_14
    8  A    between atoms: C_14  and  C_22
    9  A    between atoms: C_19  and  C_37
                            x       y       z     vdW  Elec       q    Type
                         _______ _______ _______ _____ _____    ______ ____

>  <TORSDO>
F 9

$$$$
=
 OpenBabel11052420413D

 43 49  0  0  1  0  0  0  0  0999 V2000
  185.4280  179.2730  143.7500 C   0  0  1  0  0  3  0  0  0  0  0  0
  189.0060  175.6210  144.3170 C   0  0  0  0  0  0  0  0  0  0  0  0
  188.6860  173.9290  142.1600 C   0  0  0  0  0  0  0  0  0  0  0  0
  187.2160  177.7510  144.6630 C   0  0  0  0  0  0  0  0  0  0  0  0
  185.1360  178.1700  142.7670 C   0  0  0  0  0  3  0  0  0  0  0  0
  184.2360  179.7850  144.2630 O   0  0  0  0  0  1  0  0  0  0  0  0
  187.0670  176.8900  143.5630 C   0  0  0  0  0  0  0  0  0  0  0  0
  186.2880  178.8220  144.8450 N   0  0  0  0  0  2  0  0  0  0  0  0
  185.9200  177.0950  142.6570 C   0  0  0  0  0  3  0  0  0  0  0  0
  187.8280  174.9690  142.3360 N   0  0  0  0  0  0  0  0  0  0  0  0
  187.9600  175.8190  143.3880 C   0  0  0  0  0  0  0  0  0  0  0  0
  189.1370  176.4830  145.4150 C   0  0  0  0  0  3  0  0  0  0  0  0
  189.8840  174.5460  144.1160 C   0  0  0  0  0  0  0  0  0  0  0  0
  189.7040  173.7320  143.0400 N   0  0  0  0  0  0  0  0  0  0  0  0
  188.2420  177.5420  145.5880 C   0  0  0  0  0  3  0  0  0  0  0  0
  188.5290  173.0340  140.9770 C   0  0  2  0  0  3  0  0  0  0  0  0
  189.5420  173.3710  139.9530 C   0  0  2  0  0  3  0  0  0  0  0  0
  188.2060  173.7930  139.8360 O   0  0  0  0  0  0  0  0  0  0  0  0
  189.7740  172.1770  139.0480 C   0  0  1  0  0  3  0  0  0  0  0  0
  188.9610  172.2850  137.9190 O   0  0  0  0  0  1  0  0  0  0  0  0
  191.2320  172.1430  138.6260 C   0  0  0  0  0  2  0  0  0  0  0  0
  191.8440  173.4590  138.8210 N   0  0  0  0  0  0  0  0  0  0  0  0
  194.0910  173.2350  137.9950 C   0  0  0  0  0  2  0  0  0  0  0  0
  191.8820  174.0770  137.4970 C   0  0  0  0  0  2  0  0  0  0  0  0
  193.2520  173.3640  139.2520 C   0  0  1  0  0  0  0  0  0  0  0  0
  193.6250  174.6620  139.9610 C   0  0  0  0  0  1  0  0  0  0  0  0
  193.2640  173.8630  136.9020 C   0  0  0  0  0  2  0  0  0  0  0  0
  193.5080  172.1940  140.2210 C   0  0  0  0  0  2  0  0  0  0  0  0
  193.4890  172.6310  141.6110 N   0  0  0  0  0  0  0  0  0  0  0  0
  192.3140  170.6440  144.2600 O   0  0  0  0  0  0  0  0  0  0  0  0
  194.4230  171.4400  143.5260 C   0  0  0  0  0  2  0  0  0  0  0  0
  192.9700  171.2700  143.4450 C   0  0  0  0  0  0  0  0  0  0  0  0
  194.7390  172.1590  142.2240 C   0  0  0  0  0  2  0  0  0  0  0  0
  192.3870  171.9300  142.2650 C   0  0  0  0  0  2  0  0  0  0  0  0
  190.9590  174.3140  145.0430 N   0  0  0  0  0  2  0  0  0  0  0  0
  194.6750  174.5210  145.5610 C   0  0  0  0  0  3  0  0  0  0  0  0
  195.0460  175.2830  144.4490 C   0  0  0  0  0  0  0  0  0  0  0  0
  192.7270  175.3970  143.7600 C   0  0  0  0  0  3  0  0  0  0  0  0
  193.3320  174.1910  145.7660 C   0  0  0  0  0  3  0  0  0  0  0  0
  192.3480  174.6250  144.8640 C   0  0  0  0  0  0  0  0  0  0  0  0
  194.0690  175.7280  143.5530 C   0  0  0  0  0  3  0  0  0  0  0  0
  196.5500  176.7900  143.4350 O   0  0  0  0  0  1  0  0  0  0  0  0
  196.4720  175.6570  144.2440 C   0  0  0  0  0  2  0  0  0  0  0  0
  1  6  1  1  0  0  0
  1  8  1  0  0  0  0
  2 12  1  0  0  0  0
  3 10  2  0  0  0  0
  3 14  1  0  0  0  0
  4  8  1  0  0  0  0
  4 15  1  0  0  0  0
  5  1  1  0  0  0  0
  7  4  2  0  0  0  0
  9  5  2  0  0  0  0
  9  7  1  0  0  0  0
 10 11  1  0  0  0  0
 11  7  1  0  0  0  0
 11  2  2  0  0  0  0
 12 15  2  0  0  0  0
 13  2  1  0  0  0  0
 13 35  1  0  0  0  0
 14 13  2  0  0  0  0
 16  3  1  1  0  0  0
 17 19  1  6  0  0  0
 17 16  1  0  0  0  0
 18 17  1  0  0  0  0
 18 16  1  0  0  0  0
 19 20  1  6  0  0  0
 21 22  1  0  0  0  0
 21 19  1  0  0  0  0
 22 25  1  0  0  0  0
 23 25  1  0  0  0  0
 24 22  1  0  0  0  0
 25 26  1  1  0  0  0
 25 28  1  0  0  0  0
 27 24  1  0  0  0  0
 27 23  1  0  0  0  0
 28 29  1  0  0  0  0
 29 33  1  0  0  0  0
 29 34  1  0  0  0  0
 32 31  1  0  0  0  0
 32 30  2  0  0  0  0
 33 31  1  0  0  0  0
 34 32  1  0  0  0  0
 36 39  1  0  0  0  0
 37 36  2  0  0  0  0
 38 40  1  0  0  0  0
 40 35  1  0  0  0  0
 40 39  2  0  0  0  0
 41 38  2  0  0  0  0
 41 37  1  0  0  0  0
 42 43  1  0  0  0  0
 43 37  1  0  0  0  0
M  END
>  <MODEL>
3

>  <REMARK>
 VINA RESULT:      -7.0      1.744      2.820
  Name = 
  9 active torsions:
  status: ('A' for Active; 'I' for Inactive)
    1  A    between atoms: N_1  and  C_34
    2  A    between atoms: N_1  and  C_35
    3  A    between atoms: C_2  and  C_13
    4  A    between atoms: C_3  and  N_4
    5  A    between atoms: C_3  and  C_12
    6  A    between atoms: C_6  and  C_12
    7  A    between atoms: N_11  and  C_14
    8  A    between atoms: C_14  and  C_22
    9  A    between atoms: C_19  and  C_37
                            x       y       z     vdW  Elec       q    Type
                         _______ _______ _______ _____ _____    ______ ____

>  <TORSDO>
F 9

$$$$
=
 OpenBabel11052420413D

 43 49  0  0  1  0  0  0  0  0999 V2000
  196.2840  173.5780  145.6770 C   0  0  1  0  0  3  0  0  0  0  0  0
  191.5090  175.4930  145.6610 C   0  0  0  0  0  0  0  0  0  0  0  0
  190.0780  173.8990  143.9220 C   0  0  0  0  0  0  0  0  0  0  0  0
  194.2590  175.0470  145.9780 C   0  0  0  0  0  0  0  0  0  0  0  0
  195.5210  172.9340  144.5500 C   0  0  0  0  0  3  0  0  0  0  0  0
  197.6030  173.8120  145.2910 O   0  0  0  0  0  1  0  0  0  0  0  0
  193.5200  174.2350  145.1020 C   0  0  0  0  0  0  0  0  0  0  0  0
  195.6640  174.8280  146.1190 N   0  0  0  0  0  2  0  0  0  0  0  0
  194.2350  173.2100  144.3170 C   0  0  0  0  0  3  0  0  0  0  0  0
  191.4100  173.6890  144.0880 N   0  0  0  0  0  0  0  0  0  0  0  0
  192.1410  174.4570  144.9380 C   0  0  0  0  0  0  0  0  0  0  0  0
  192.2620  176.3010  146.5250 C   0  0  0  0  0  3  0  0  0  0  0  0
  190.1330  175.6910  145.4810 C   0  0  0  0  0  0  0  0  0  0  0  0
  189.4520  174.8850  144.6200 N   0  0  0  0  0  0  0  0  0  0  0  0
  193.6330  176.0810  146.6790 C   0  0  0  0  0  3  0  0  0  0  0  0
  189.3000  173.0170  143.0040 C   0  0  2  0  0  3  0  0  0  0  0  0
  189.4790  173.4620  141.6050 C   0  0  2  0  0  3  0  0  0  0  0  0
  188.3150  173.7660  142.3330 O   0  0  0  0  0  0  0  0  0  0  0  0
  189.1970  172.3120  140.6600 C   0  0  1  0  0  3  0  0  0  0  0  0
  188.3570  172.7480  139.6340 O   0  0  0  0  0  1  0  0  0  0  0  0
  190.5050  171.8120  140.0720 C   0  0  0  0  0  2  0  0  0  0  0  0
  190.8110  172.5400  138.8380 N   0  0  0  0  0  0  0  0  0  0  0  0
  192.9710  171.7330  138.1550 C   0  0  0  0  0  2  0  0  0  0  0  0
  190.5930  171.5860  137.7520 C   0  0  0  0  0  2  0  0  0  0  0  0
  192.2350  172.9180  138.7500 C   0  0  1  0  0  0  0  0  0  0  0  0
  192.3590  174.1020  137.7980 C   0  0  0  0  0  1  0  0  0  0  0  0
  191.9310  170.9790  137.3630 C   0  0  0  0  0  2  0  0  0  0  0  0
  192.8360  173.3260  140.1100 C   0  0  0  0  0  2  0  0  0  0  0  0
  193.7680  174.4380  139.9750 N   0  0  0  0  0  0  0  0  0  0  0  0
  195.0460  176.2450  142.7040 O   0  0  0  0  0  0  0  0  0  0  0  0
  195.9040  174.6960  141.1270 C   0  0  0  0  0  2  0  0  0  0  0  0
  194.8550  175.5070  141.7530 C   0  0  0  0  0  0  0  0  0  0  0  0
  195.1200  173.8800  140.1120 C   0  0  0  0  0  2  0  0  0  0  0  0
  193.5410  175.3250  141.1130 C   0  0  0  0  0  2  0  0  0  0  0  0
  189.4570  176.7370  146.1990 N   0  0  0  0  0  2  0  0  0  0  0  0
  186.4360  178.3910  144.6950 C   0  0  0  0  0  3  0  0  0  0  0  0
  185.4780  178.1130  145.6750 C   0  0  0  0  0  0  0  0  0  0  0  0
  187.1560  176.9480  146.9770 C   0  0  0  0  0  3  0  0  0  0  0  0
  187.7490  177.9390  144.8530 C   0  0  0  0  0  3  0  0  0  0  0  0
  188.1180  177.2110  145.9950 C   0  0  0  0  0  0  0  0  0  0  0  0
  185.8410  177.3980  146.8210 C   0  0  0  0  0  3  0  0  0  0  0  0
  183.8910  179.0710  144.2160 O   0  0  0  0  0  1  0  0  0  0  0  0
  184.0860  178.6150  145.5200 C   0  0  0  0  0  2  0  0  0  0  0  0
  1  6  1  6  0  0  0
  1  8  1  0  0  0  0
  2 12  1  0  0  0  0
  3 10  2  0  0  0  0
  3 14  1  0  0  0  0
  4  8  1  0  0  0  0
  4 15  1  0  0  0  0
  5  1  1  0  0  0  0
  7  4  2  0  0  0  0
  9  5  2  0  0  0  0
  9  7  1  0  0  0  0
 10 11  1  0  0  0  0
 11  7  1  0  0  0  0
 11  2  2  0  0  0  0
 12 15  2  0  0  0  0
 13  2  1  0  0  0  0
 13 35  1  0  0  0  0
 14 13  2  0  0  0  0
 16  3  1  1  0  0  0
 17 19  1  6  0  0  0
 17 18  1  0  0  0  0
 17 16  1  0  0  0  0
 18 16  1  0  0  0  0
 19 20  1  6  0  0  0
 21 19  1  0  0  0  0
 22 21  1  0  0  0  0
 23 25  1  0  0  0  0
 24 22  1  0  0  0  0
 25 26  1  6  0  0  0
 25 22  1  0  0  0  0
 25 28  1  0  0  0  0
 27 24  1  0  0  0  0
 27 23  1  0  0  0  0
 29 28  1  0  0  0  0
 29 33  1  0  0  0  0
 29 34  1  0  0  0  0
 31 32  1  0  0  0  0
 32 30  2  0  0  0  0
 33 31  1  0  0  0  0
 34 32  1  0  0  0  0
 36 39  2  0  0  0  0
 36 37  1  0  0  0  0
 37 41  2  0  0  0  0
 39 40  1  0  0  0  0
 40 35  1  0  0  0  0
 40 38  2  0  0  0  0
 41 38  1  0  0  0  0
 42 43  1  0  0  0  0
 43 37  1  0  0  0  0
M  END
>  <MODEL>
4

>  <REMARK>
 VINA RESULT:      -6.9      1.688      6.570
  Name = 
  9 active torsions:
  status: ('A' for Active; 'I' for Inactive)
    1  A    between atoms: N_1  and  C_34
    2  A    between atoms: N_1  and  C_35
    3  A    between atoms: C_2  and  C_13
    4  A    between atoms: C_3  and  N_4
    5  A    between atoms: C_3  and  C_12
    6  A    between atoms: C_6  and  C_12
    7  A    between atoms: N_11  and  C_14
    8  A    between atoms: C_14  and  C_22
    9  A    between atoms: C_19  and  C_37
                            x       y       z     vdW  Elec       q    Type
                         _______ _______ _______ _____ _____    ______ ____

>  <TORSDO>
F 9

$$$$
=
 OpenBabel11052420413D

 43 49  0  0  1  0  0  0  0  0999 V2000
  189.3450  172.2710  136.5080 C   0  0  1  0  0  3  0  0  0  0  0  0
  190.9500  171.6500  141.3560 C   0  0  0  0  0  0  0  0  0  0  0  0
  190.6930  174.1260  142.5450 C   0  0  0  0  0  0  0  0  0  0  0  0
  190.3780  171.3760  138.6260 C   0  0  0  0  0  0  0  0  0  0  0  0
  189.4920  173.6330  137.1350 C   0  0  0  0  0  3  0  0  0  0  0  0
  189.7500  172.3120  135.1750 O   0  0  0  0  0  1  0  0  0  0  0  0
  190.2410  172.6310  139.2410 C   0  0  0  0  0  0  0  0  0  0  0  0
  190.1040  171.2480  137.2280 N   0  0  0  0  0  2  0  0  0  0  0  0
  189.8650  173.7890  138.4080 C   0  0  0  0  0  3  0  0  0  0  0  0
  190.4130  173.9800  141.2230 N   0  0  0  0  0  0  0  0  0  0  0  0
  190.5300  172.7730  140.6100 C   0  0  0  0  0  0  0  0  0  0  0  0
  191.0910  170.4050  140.7250 C   0  0  0  0  0  3  0  0  0  0  0  0
  191.2290  171.8190  142.7200 C   0  0  0  0  0  0  0  0  0  0  0  0
  191.0870  173.0520  143.2790 N   0  0  0  0  0  0  0  0  0  0  0  0
  190.8090  170.2710  139.3630 C   0  0  0  0  0  3  0  0  0  0  0  0
  190.5240  175.4600  143.1920 C   0  0  2  0  0  3  0  0  0  0  0  0
  189.1030  175.6710  143.5480 C   0  0  2  0  0  3  0  0  0  0  0  0
  189.6770  176.2710  142.4140 O   0  0  0  0  0  0  0  0  0  0  0  0
  189.0000  176.6940  144.6610 C   0  0  1  0  0  3  0  0  0  0  0  0
  189.1440  177.9760  144.1290 O   0  0  0  0  0  1  0  0  0  0  0  0
  187.6430  176.5700  145.3330 C   0  0  0  0  0  2  0  0  0  0  0  0
  187.1170  177.8990  145.6530 N   0  0  0  0  0  0  0  0  0  0  0  0
  184.8130  177.5370  146.2370 C   0  0  0  0  0  2  0  0  0  0  0  0
  187.0280  177.9480  147.1110 C   0  0  0  0  0  2  0  0  0  0  0  0
  185.7360  178.0860  145.1670 C   0  0  1  0  0  0  0  0  0  0  0  0
  185.4790  179.5810  145.0160 C   0  0  0  0  0  1  0  0  0  0  0  0
  185.6010  177.6220  147.5210 C   0  0  0  0  0  2  0  0  0  0  0  0
  185.4800  177.4120  143.8050 C   0  0  0  0  0  2  0  0  0  0  0  0
  185.5300  178.3720  142.7100 N   0  0  0  0  0  0  0  0  0  0  0  0
  186.5110  177.5450  139.4390 O   0  0  0  0  0  0  0  0  0  0  0  0
  184.4840  178.1380  140.5180 C   0  0  0  0  0  2  0  0  0  0  0  0
  185.9170  177.8360  140.4640 C   0  0  0  0  0  0  0  0  0  0  0  0
  184.2400  178.2890  142.0100 C   0  0  0  0  0  2  0  0  0  0  0  0
  186.5620  177.9120  141.7850 C   0  0  0  0  0  2  0  0  0  0  0  0
  191.6610  170.6980  143.5100 N   0  0  0  0  0  2  0  0  0  0  0  0
  194.7890  169.1990  144.9560 C   0  0  0  0  0  3  0  0  0  0  0  0
  195.3510  170.3240  145.5690 C   0  0  0  0  0  0  0  0  0  0  0  0
  193.4750  171.6620  144.8230 C   0  0  0  0  0  3  0  0  0  0  0  0
  193.5760  169.3100  144.2710 C   0  0  0  0  0  3  0  0  0  0  0  0
  192.9110  170.5440  144.1970 C   0  0  0  0  0  0  0  0  0  0  0  0
  194.6890  171.5540  145.5090 C   0  0  0  0  0  3  0  0  0  0  0  0
  196.5110  169.2100  147.2950 O   0  0  0  0  0  1  0  0  0  0  0  0
  196.6290  170.2020  146.3210 C   0  0  0  0  0  2  0  0  0  0  0  0
  1  6  1  6  0  0  0
  1  5  1  0  0  0  0
  1  8  1  0  0  0  0
  2 13  1  0  0  0  0
  3 14  1  0  0  0  0
  4  7  2  0  0  0  0
  4 15  1  0  0  0  0
  5  9  2  0  0  0  0
  7 11  1  0  0  0  0
  8  4  1  0  0  0  0
  9  7  1  0  0  0  0
 10  3  2  0  0  0  0
 11 10  1  0  0  0  0
 11  2  2  0  0  0  0
 12  2  1  0  0  0  0
 13 14  2  0  0  0  0
 13 35  1  0  0  0  0
 15 12  2  0  0  0  0
 16  3  1  6  0  0  0
 16 17  1  0  0  0  0
 17 19  1  1  0  0  0
 18 16  1  0  0  0  0
 18 17  1  0  0  0  0
 19 20  1  6  0  0  0
 19 21  1  0  0  0  0
 21 22  1  0  0  0  0
 22 24  1  0  0  0  0
 23 27  1  0  0  0  0
 24 27  1  0  0  0  0
 25 26  1  6  0  0  0
 25 22  1  0  0  0  0
 25 23  1  0  0  0  0
 28 25  1  0  0  0  0
 29 28  1  0  0  0  0
 30 32  2  0  0  0  0
 31 33  1  0  0  0  0
 32 31  1  0  0  0  0
 32 34  1  0  0  0  0
 33 29  1  0  0  0  0
 34 29  1  0  0  0  0
 35 40  1  0  0  0  0
 36 37  1  0  0  0  0
 37 43  1  0  0  0  0
 38 41  1  0  0  0  0
 39 36  2  0  0  0  0
 40 39  1  0  0  0  0
 40 38  2  0  0  0  0
 41 37  2  0  0  0  0
 43 42  1  0  0  0  0
M  END
>  <MODEL>
5

>  <REMARK>
 VINA RESULT:      -6.8      3.248      8.401
  Name = 
  9 active torsions:
  status: ('A' for Active; 'I' for Inactive)
    1  A    between atoms: N_1  and  C_34
    2  A    between atoms: N_1  and  C_35
    3  A    between atoms: C_2  and  C_13
    4  A    between atoms: C_3  and  N_4
    5  A    between atoms: C_3  and  C_12
    6  A    between atoms: C_6  and  C_12
    7  A    between atoms: N_11  and  C_14
    8  A    between atoms: C_14  and  C_22
    9  A    between atoms: C_19  and  C_37
                            x       y       z     vdW  Elec       q    Type
                         _______ _______ _______ _____ _____    ______ ____

>  <TORSDO>
F 9

$$$$
=
 OpenBabel11052420413D

 43 49  0  0  1  0  0  0  0  0999 V2000
  196.2190  175.9980  143.5850 C   0  0  1  0  0  3  0  0  0  0  0  0
  191.2330  175.6430  144.8000 C   0  0  0  0  0  0  0  0  0  0  0  0
  190.0840  174.1480  142.7860 C   0  0  0  0  0  0  0  0  0  0  0  0
  193.9450  176.3280  144.6190 C   0  0  0  0  0  0  0  0  0  0  0  0
  195.4830  175.4340  142.3980 C   0  0  0  0  0  3  0  0  0  0  0  0
  197.2250  176.8630  143.1570 O   0  0  0  0  0  1  0  0  0  0  0  0
  193.3540  175.5600  143.6030 C   0  0  0  0  0  0  0  0  0  0  0  0
  195.3230  176.6920  144.5100 N   0  0  0  0  0  2  0  0  0  0  0  0
  194.1690  175.1950  142.4280 C   0  0  0  0  0  3  0  0  0  0  0  0
  191.3990  174.4820  142.7120 N   0  0  0  0  0  0  0  0  0  0  0  0
  191.9930  175.2160  143.6880 C   0  0  0  0  0  0  0  0  0  0  0  0
  191.8350  176.4170  145.8020 C   0  0  0  0  0  3  0  0  0  0  0  0
  189.8790  175.2840  144.8620 C   0  0  0  0  0  0  0  0  0  0  0  0
  189.3420  174.5410  143.8550 N   0  0  0  0  0  0  0  0  0  0  0  0
  193.1860  176.7620  145.7090 C   0  0  0  0  0  3  0  0  0  0  0  0
  189.4720  173.3140  141.7110 C   0  0  2  0  0  3  0  0  0  0  0  0
  189.1120  174.1650  140.5550 C   0  0  2  0  0  3  0  0  0  0  0  0
  188.1460  173.7240  141.4760 O   0  0  0  0  0  0  0  0  0  0  0  0
  189.0350  173.3200  139.3000 C   0  0  1  0  0  3  0  0  0  0  0  0
  188.0970  173.8720  138.4260 O   0  0  0  0  0  1  0  0  0  0  0  0
  190.3980  173.2880  138.6310 C   0  0  0  0  0  2  0  0  0  0  0  0
  190.5350  172.0730  137.8260 N   0  0  0  0  0  0  0  0  0  0  0  0
  192.4570  170.9400  138.7220 C   0  0  0  0  0  2  0  0  0  0  0  0
  190.0420  170.9840  138.6670 C   0  0  0  0  0  2  0  0  0  0  0  0
  191.9450  171.7440  137.5420 C   0  0  1  0  0  0  0  0  0  0  0  0
  191.9920  170.8710  136.2930 C   0  0  0  0  0  1  0  0  0  0  0  0
  191.2300  170.3080  139.3310 C   0  0  0  0  0  2  0  0  0  0  0  0
  192.8160  172.9910  137.2930 C   0  0  0  0  0  2  0  0  0  0  0  0
  194.0020  172.9980  138.1390 N   0  0  0  0  0  0  0  0  0  0  0  0
  197.1150  174.2640  137.1160 O   0  0  0  0  0  0  0  0  0  0  0  0
  195.4220  174.9180  138.6420 C   0  0  0  0  0  2  0  0  0  0  0  0
  196.0230  174.0590  137.6170 C   0  0  0  0  0  0  0  0  0  0  0  0
  194.0420  174.3050  138.8090 C   0  0  0  0  0  2  0  0  0  0  0  0
  195.1600  172.9230  137.2530 C   0  0  0  0  0  2  0  0  0  0  0  0
  189.0740  175.7020  145.9780 N   0  0  0  0  0  2  0  0  0  0  0  0
  185.7530  177.2350  146.8390 C   0  0  0  0  0  3  0  0  0  0  0  0
  185.6360  178.1810  145.8150 C   0  0  0  0  0  0  0  0  0  0  0  0
  187.7720  177.4700  144.9210 C   0  0  0  0  0  3  0  0  0  0  0  0
  186.8840  176.4160  146.9060 C   0  0  0  0  0  3  0  0  0  0  0  0
  187.9030  176.5290  145.9480 C   0  0  0  0  0  0  0  0  0  0  0  0
  186.6420  178.2920  144.8510 C   0  0  0  0  0  3  0  0  0  0  0  0
  184.0660  179.2150  144.3900 O   0  0  0  0  0  1  0  0  0  0  0  0
  184.4220  179.0370  145.7270 C   0  0  0  0  0  2  0  0  0  0  0  0
  1  6  1  6  0  0  0
  1  8  1  0  0  0  0
  2 13  1  0  0  0  0
  2 12  1  0  0  0  0
  3 14  1  0  0  0  0
  4 15  1  0  0  0  0
  5  9  2  0  0  0  0
  5  1  1  0  0  0  0
  7 11  1  0  0  0  0
  7  4  2  0  0  0  0
  8  4  1  0  0  0  0
  9  7  1  0  0  0  0
 10  3  2  0  0  0  0
 10 11  1  0  0  0  0
 11  2  2  0  0  0  0
 13 35  1  0  0  0  0
 14 13  2  0  0  0  0
 15 12  2  0  0  0  0
 16  3  1  1  0  0  0
 17 19  1  6  0  0  0
 17 18  1  0  0  0  0
 17 16  1  0  0  0  0
 18 16  1  0  0  0  0
 19 20  1  6  0  0  0
 21 19  1  0  0  0  0
 22 21  1  0  0  0  0
 22 24  1  0  0  0  0
 23 27  1  0  0  0  0
 24 27  1  0  0  0  0
 25 26  1  6  0  0  0
 25 22  1  0  0  0  0
 25 23  1  0  0  0  0
 28 25  1  0  0  0  0
 28 29  1  0  0  0  0
 29 33  1  0  0  0  0
 30 32  2  0  0  0  0
 31 33  1  0  0  0  0
 32 31  1  0  0  0  0
 34 32  1  0  0  0  0
 34 29  1  0  0  0  0
 36 39  1  0  0  0  0
 37 36  2  0  0  0  0
 38 40  1  0  0  0  0
 40 35  1  0  0  0  0
 40 39  2  0  0  0  0
 41 38  2  0  0  0  0
 41 37  1  0  0  0  0
 42 43  1  0  0  0  0
 43 37  1  0  0  0  0
M  END
>  <MODEL>
6

>  <REMARK>
 VINA RESULT:      -6.8      2.153      6.471
  Name = 
  9 active torsions:
  status: ('A' for Active; 'I' for Inactive)
    1  A    between atoms: N_1  and  C_34
    2  A    between atoms: N_1  and  C_35
    3  A    between atoms: C_2  and  C_13
    4  A    between atoms: C_3  and  N_4
    5  A    between atoms: C_3  and  C_12
    6  A    between atoms: C_6  and  C_12
    7  A    between atoms: N_11  and  C_14
    8  A    between atoms: C_14  and  C_22
    9  A    between atoms: C_19  and  C_37
                            x       y       z     vdW  Elec       q    Type
                         _______ _______ _______ _____ _____    ______ ____

>  <TORSDO>
F 9

$$$$
=
 OpenBabel11052420413D

 43 49  0  0  1  0  0  0  0  0999 V2000
  190.3780  175.4540  147.5200 C   0  0  1  0  0  3  0  0  0  0  0  0
  188.1060  176.8310  143.1150 C   0  0  0  0  0  0  0  0  0  0  0  0
  188.5030  174.7190  141.3840 C   0  0  0  0  0  0  0  0  0  0  0  0
  189.2670  176.7480  145.6650 C   0  0  0  0  0  0  0  0  0  0  0  0
  190.7890  174.4750  146.4510 C   0  0  0  0  0  3  0  0  0  0  0  0
  191.4510  175.7090  148.3730 O   0  0  0  0  0  1  0  0  0  0  0  0
  189.4560  175.6740  144.7810 C   0  0  0  0  0  0  0  0  0  0  0  0
  189.8790  176.7080  146.9560 N   0  0  0  0  0  2  0  0  0  0  0  0
  190.3260  174.5580  145.2010 C   0  0  0  0  0  3  0  0  0  0  0  0
  189.0570  174.6880  142.6250 N   0  0  0  0  0  0  0  0  0  0  0  0
  188.8780  175.7130  143.5000 C   0  0  0  0  0  0  0  0  0  0  0  0
  187.9330  177.9000  144.0060 C   0  0  0  0  0  3  0  0  0  0  0  0
  187.5380  176.8430  141.8330 C   0  0  0  0  0  0  0  0  0  0  0  0
  187.7480  175.7830  141.0030 N   0  0  0  0  0  0  0  0  0  0  0  0
  188.5160  177.8590  145.2750 C   0  0  0  0  0  3  0  0  0  0  0  0
  188.6950  173.5630  140.4610 C   0  0  2  0  0  3  0  0  0  0  0  0
  189.9170  173.7600  139.6520 C   0  0  2  0  0  3  0  0  0  0  0  0
  188.6360  173.9970  139.1230 O   0  0  0  0  0  0  0  0  0  0  0  0
  190.4270  172.4220  139.1570 C   0  0  1  0  0  3  0  0  0  0  0  0
  190.4330  172.4140  137.7620 O   0  0  0  0  0  1  0  0  0  0  0  0
  191.8380  172.1990  139.6740 C   0  0  0  0  0  2  0  0  0  0  0  0
  192.7740  173.0870  138.9820 N   0  0  0  0  0  0  0  0  0  0  0  0
  194.8970  172.7130  140.0450 C   0  0  0  0  0  2  0  0  0  0  0  0
  193.5550  172.2260  138.0960 C   0  0  0  0  0  2  0  0  0  0  0  0
  193.7520  173.6970  139.9020 C   0  0  1  0  0  0  0  0  0  0  0  0
  194.2810  174.9770  139.2620 C   0  0  0  0  0  1  0  0  0  0  0  0
  194.8660  171.8850  138.7840 C   0  0  0  0  0  2  0  0  0  0  0  0
  193.1480  174.0580  141.2730 C   0  0  0  0  0  2  0  0  0  0  0  0
  193.9300  175.0810  141.9550 N   0  0  0  0  0  0  0  0  0  0  0  0
  192.6820  177.0570  144.5790 O   0  0  0  0  0  0  0  0  0  0  0  0
  194.2590  175.2990  144.3630 C   0  0  0  0  0  2  0  0  0  0  0  0
  193.2500  176.2420  143.8720 C   0  0  0  0  0  0  0  0  0  0  0  0
  194.5280  174.4440  143.1360 C   0  0  0  0  0  2  0  0  0  0  0  0
  192.9890  176.0920  142.4300 C   0  0  0  0  0  2  0  0  0  0  0  0
  186.7480  177.9660  141.4070 N   0  0  0  0  0  2  0  0  0  0  0  0
  183.1750  178.0640  140.2430 C   0  0  0  0  0  3  0  0  0  0  0  0
  182.5190  178.3000  141.4550 C   0  0  0  0  0  0  0  0  0  0  0  0
  184.6520  178.3190  142.6020 C   0  0  0  0  0  3  0  0  0  0  0  0
  184.5680  177.9470  140.2150 C   0  0  0  0  0  3  0  0  0  0  0  0
  185.3170  178.0710  141.3950 C   0  0  0  0  0  0  0  0  0  0  0  0
  183.2590  178.4360  142.6340 C   0  0  0  0  0  3  0  0  0  0  0  0
  180.6740  179.3420  142.4930 O   0  0  0  0  0  1  0  0  0  0  0  0
  181.0390  178.4500  141.4840 C   0  0  0  0  0  2  0  0  0  0  0  0
  1  6  1  1  0  0  0
  2 11  2  0  0  0  0
  2 12  1  0  0  0  0
  3 10  2  0  0  0  0
  4  8  1  0  0  0  0
  5  1  1  0  0  0  0
  7  9  1  0  0  0  0
  7  4  2  0  0  0  0
  8  1  1  0  0  0  0
  9  5  2  0  0  0  0
 10 11  1  0  0  0  0
 11  7  1  0  0  0  0
 12 15  2  0  0  0  0
 13  2  1  0  0  0  0
 14  3  1  0  0  0  0
 14 13  2  0  0  0  0
 15  4  1  0  0  0  0
 16  3  1  1  0  0  0
 17 19  1  6  0  0  0
 17 16  1  0  0  0  0
 18 17  1  0  0  0  0
 18 16  1  0  0  0  0
 19 20  1  6  0  0  0
 19 21  1  0  0  0  0
 22 21  1  0  0  0  0
 22 25  1  0  0  0  0
 24 27  1  0  0  0  0
 24 22  1  0  0  0  0
 25 26  1  6  0  0  0
 25 23  1  0  0  0  0
 25 28  1  0  0  0  0
 27 23  1  0  0  0  0
 28 29  1  0  0  0  0
 29 34  1  0  0  0  0
 29 33  1  0  0  0  0
 32 31  1  0  0  0  0
 32 30  2  0  0  0  0
 33 31  1  0  0  0  0
 34 32  1  0  0  0  0
 35 13  1  0  0  0  0
 36 37  1  0  0  0  0
 37 43  1  0  0  0  0
 37 41  2  0  0  0  0
 38 41  1  0  0  0  0
 39 36  2  0  0  0  0
 39 40  1  0  0  0  0
 40 35  1  0  0  0  0
 40 38  2  0  0  0  0
 43 42  1  0  0  0  0
M  END
>  <MODEL>
7

>  <REMARK>
 VINA RESULT:      -6.8      2.558      6.765
  Name = 
  9 active torsions:
  status: ('A' for Active; 'I' for Inactive)
    1  A    between atoms: N_1  and  C_34
    2  A    between atoms: N_1  and  C_35
    3  A    between atoms: C_2  and  C_13
    4  A    between atoms: C_3  and  N_4
    5  A    between atoms: C_3  and  C_12
    6  A    between atoms: C_6  and  C_12
    7  A    between atoms: N_11  and  C_14
    8  A    between atoms: C_14  and  C_22
    9  A    between atoms: C_19  and  C_37
                            x       y       z     vdW  Elec       q    Type
                         _______ _______ _______ _____ _____    ______ ____

>  <TORSDO>
F 9

$$$$
=
 OpenBabel11052420413D

 43 49  0  0  1  0  0  0  0  0999 V2000
  185.5240  178.8250  143.7890 C   0  0  1  0  0  3  0  0  0  0  0  0
  187.8370  175.4860  140.6320 C   0  0  0  0  0  0  0  0  0  0  0  0
  188.9570  173.5700  142.2720 C   0  0  0  0  0  0  0  0  0  0  0  0
  186.5570  177.6960  141.7870 C   0  0  0  0  0  0  0  0  0  0  0  0
  186.3850  177.9090  144.6190 C   0  0  0  0  0  3  0  0  0  0  0  0
  185.5690  180.1200  144.3030 O   0  0  0  0  0  1  0  0  0  0  0  0
  187.1220  176.7120  142.6130 C   0  0  0  0  0  0  0  0  0  0  0  0
  185.9240  178.8320  142.3820 N   0  0  0  0  0  2  0  0  0  0  0  0
  187.0860  176.9100  144.0750 C   0  0  0  0  0  3  0  0  0  0  0  0
  188.3290  174.6440  142.8190 N   0  0  0  0  0  0  0  0  0  0  0  0
  187.7670  175.6030  142.0380 C   0  0  0  0  0  0  0  0  0  0  0  0
  187.2750  176.4820  139.8200 C   0  0  0  0  0  3  0  0  0  0  0  0
  188.4830  174.3680  140.0850 C   0  0  0  0  0  0  0  0  0  0  0  0
  189.0210  173.4370  140.9200 N   0  0  0  0  0  0  0  0  0  0  0  0
  186.6410  177.5850  140.3970 C   0  0  0  0  0  3  0  0  0  0  0  0
  189.5360  172.5200  143.1600 C   0  0  2  0  0  3  0  0  0  0  0  0
  190.9890  172.3960  142.9130 C   0  0  2  0  0  3  0  0  0  0  0  0
  190.0700  171.4720  142.3860 O   0  0  0  0  0  0  0  0  0  0  0  0
  191.6660  171.7950  144.1280 C   0  0  1  0  0  3  0  0  0  0  0  0
  192.0980  170.5020  143.8270 O   0  0  0  0  0  1  0  0  0  0  0  0
  192.8580  172.6540  144.5140 C   0  0  0  0  0  2  0  0  0  0  0  0
  193.0250  173.7460  143.5530 N   0  0  0  0  0  0  0  0  0  0  0  0
  194.7270  175.1580  144.4970 C   0  0  0  0  0  2  0  0  0  0  0  0
  194.2690  173.4590  142.8410 C   0  0  0  0  0  2  0  0  0  0  0  0
  193.2410  175.0460  144.2150 C   0  0  1  0  0  0  0  0  0  0  0  0
  192.8400  176.1520  143.2430 C   0  0  0  0  0  1  0  0  0  0  0  0
  195.3890  174.2620  143.4800 C   0  0  0  0  0  2  0  0  0  0  0  0
  192.4110  175.2130  145.5030 C   0  0  0  0  0  2  0  0  0  0  0  0
  191.0650  175.6940  145.2200 N   0  0  0  0  0  0  0  0  0  0  0  0
  188.3320  175.2090  147.3740 O   0  0  0  0  0  0  0  0  0  0  0  0
  189.6630  177.0480  146.6880 C   0  0  0  0  0  2  0  0  0  0  0  0
  189.2700  175.6360  146.7220 C   0  0  0  0  0  0  0  0  0  0  0  0
  190.9380  177.0090  145.8620 C   0  0  0  0  0  2  0  0  0  0  0  0
  190.1370  174.7860  145.8900 C   0  0  0  0  0  2  0  0  0  0  0  0
  188.5740  174.2170  138.6580 N   0  0  0  0  0  2  0  0  0  0  0  0
  191.6990  172.9380  137.0090 C   0  0  0  0  0  3  0  0  0  0  0  0
  191.2280  171.7380  136.4660 C   0  0  0  0  0  0  0  0  0  0  0  0
  189.0280  172.1990  137.3670 C   0  0  0  0  0  3  0  0  0  0  0  0
  190.8350  173.7610  137.7370 C   0  0  0  0  0  3  0  0  0  0  0  0
  189.4930  173.3960  137.9240 C   0  0  0  0  0  0  0  0  0  0  0  0
  189.8890  171.3730  136.6380 C   0  0  0  0  0  3  0  0  0  0  0  0
  191.3990  169.8980  135.0000 O   0  0  0  0  0  1  0  0  0  0  0  0
  192.1390  170.8730  135.6690 C   0  0  0  0  0  2  0  0  0  0  0  0
  1  6  1  1  0  0  0
  1  5  1  0  0  0  0
  2 11  1  0  0  0  0
  3 10  2  0  0  0  0
  4  8  1  0  0  0  0
  4  7  1  0  0  0  0
  7  9  1  0  0  0  0
  8  1  1  0  0  0  0
  9  5  2  0  0  0  0
 11  7  2  0  0  0  0
 11 10  1  0  0  0  0
 12 15  1  0  0  0  0
 12  2  2  0  0  0  0
 13  2  1  0  0  0  0
 13 14  2  0  0  0  0
 14  3  1  0  0  0  0
 15  4  2  0  0  0  0
 16  3  1  6  0  0  0
 17 16  1  0  0  0  0
 17 19  1  1  0  0  0
 18 17  1  0  0  0  0
 18 16  1  0  0  0  0
 19 20  1  6  0  0  0
 19 21  1  0  0  0  0
 22 25  1  0  0  0  0
 22 21  1  0  0  0  0
 24 27  1  0  0  0  0
 24 22  1  0  0  0  0
 25 26  1  6  0  0  0
 25 23  1  0  0  0  0
 25 28  1  0  0  0  0
 27 23  1  0  0  0  0
 29 28  1  0  0  0  0
 29 33  1  0  0  0  0
 29 34  1  0  0  0  0
 31 32  1  0  0  0  0
 32 30  2  0  0  0  0
 33 31  1  0  0  0  0
 34 32  1  0  0  0  0
 35 13  1  0  0  0  0
 36 39  1  0  0  0  0
 37 41  1  0  0  0  0
 37 36  2  0  0  0  0
 38 40  1  0  0  0  0
 39 40  2  0  0  0  0
 40 35  1  0  0  0  0
 41 38  2  0  0  0  0
 42 43  1  0  0  0  0
 43 37  1  0  0  0  0
M  END
>  <MODEL>
8

>  <REMARK>
 VINA RESULT:      -6.7      2.854      6.450
  Name = 
  9 active torsions:
  status: ('A' for Active; 'I' for Inactive)
    1  A    between atoms: N_1  and  C_34
    2  A    between atoms: N_1  and  C_35
    3  A    between atoms: C_2  and  C_13
    4  A    between atoms: C_3  and  N_4
    5  A    between atoms: C_3  and  C_12
    6  A    between atoms: C_6  and  C_12
    7  A    between atoms: N_11  and  C_14
    8  A    between atoms: C_14  and  C_22
    9  A    between atoms: C_19  and  C_37
                            x       y       z     vdW  Elec       q    Type
                         _______ _______ _______ _____ _____    ______ ____

>  <TORSDO>
F 9

$$$$
=
 OpenBabel11052420413D

 43 49  0  0  1  0  0  0  0  0999 V2000
  196.2530  174.2130  144.9200 C   0  0  1  0  0  3  0  0  0  0  0  0
  191.3050  175.5000  145.4900 C   0  0  0  0  0  0  0  0  0  0  0  0
  189.9240  173.9630  143.6620 C   0  0  0  0  0  0  0  0  0  0  0  0
  194.1040  175.3680  145.5520 C   0  0  0  0  0  0  0  0  0  0  0  0
  195.4760  173.6200  143.7740 C   0  0  0  0  0  3  0  0  0  0  0  0
  197.4980  174.6560  144.4760 O   0  0  0  0  0  1  0  0  0  0  0  0
  193.3930  174.5830  144.6310 C   0  0  0  0  0  0  0  0  0  0  0  0
  195.5330  175.3120  145.5640 N   0  0  0  0  0  2  0  0  0  0  0  0
  194.1520  173.7590  143.6700 C   0  0  0  0  0  3  0  0  0  0  0  0
  191.2810  173.9030  143.7050 N   0  0  0  0  0  0  0  0  0  0  0  0
  191.9890  174.6480  144.5950 C   0  0  0  0  0  0  0  0  0  0  0  0
  192.0300  176.2850  146.3980 C   0  0  0  0  0  3  0  0  0  0  0  0
  189.9040  175.5440  145.4340 C   0  0  0  0  0  0  0  0  0  0  0  0
  189.2510  174.7700  144.5250 N   0  0  0  0  0  0  0  0  0  0  0  0
  193.4260  176.2220  146.4250 C   0  0  0  0  0  3  0  0  0  0  0  0
  189.1780  173.1080  142.6930 C   0  0  2  0  0  3  0  0  0  0  0  0
  189.4420  173.5650  141.3100 C   0  0  2  0  0  3  0  0  0  0  0  0
  188.2480  173.8870  141.9780 O   0  0  0  0  0  0  0  0  0  0  0  0
  189.1860  172.4320  140.3380 C   0  0  1  0  0  3  0  0  0  0  0  0
  188.1670  172.7970  139.4570 O   0  0  0  0  0  1  0  0  0  0  0  0
  190.4570  172.1420  139.5580 C   0  0  0  0  0  2  0  0  0  0  0  0
  191.2650  173.3580  139.4450 N   0  0  0  0  0  0  0  0  0  0  0  0
  193.2860  172.6670  138.3390 C   0  0  0  0  0  2  0  0  0  0  0  0
  191.1590  173.7760  138.0480 C   0  0  0  0  0  2  0  0  0  0  0  0
  192.7000  173.0990  139.6700 C   0  0  1  0  0  0  0  0  0  0  0  0
  193.3630  174.4040  140.0980 C   0  0  0  0  0  1  0  0  0  0  0  0
  192.3760  173.2650  137.2950 C   0  0  0  0  0  2  0  0  0  0  0  0
  192.9580  172.0450  140.7650 C   0  0  0  0  0  2  0  0  0  0  0  0
  193.8730  171.0070  140.3080 N   0  0  0  0  0  0  0  0  0  0  0  0
  196.1920  169.4000  142.4030 O   0  0  0  0  0  0  0  0  0  0  0  0
  194.1820  168.7980  141.2990 C   0  0  0  0  0  2  0  0  0  0  0  0
  195.2500  169.7190  141.6980 C   0  0  0  0  0  0  0  0  0  0  0  0
  193.2180  169.7170  140.5660 C   0  0  0  0  0  2  0  0  0  0  0  0
  195.0570  171.0760  141.1610 C   0  0  0  0  0  2  0  0  0  0  0  0
  189.1760  176.4010  146.3290 N   0  0  0  0  0  2  0  0  0  0  0  0
  185.5400  177.2850  146.6780 C   0  0  0  0  0  3  0  0  0  0  0  0
  185.3950  178.1910  145.6220 C   0  0  0  0  0  0  0  0  0  0  0  0
  187.7310  177.8940  145.0540 C   0  0  0  0  0  3  0  0  0  0  0  0
  186.7810  176.6920  146.9240 C   0  0  0  0  0  3  0  0  0  0  0  0
  187.8870  176.9950  146.1140 C   0  0  0  0  0  0  0  0  0  0  0  0
  186.4900  178.4900  144.8050 C   0  0  0  0  0  3  0  0  0  0  0  0
  183.9190  179.0000  143.9700 O   0  0  0  0  0  1  0  0  0  0  0  0
  184.0680  178.8050  145.3430 C   0  0  0  0  0  2  0  0  0  0  0  0
  1  6  1  6  0  0  0
  1  8  1  0  0  0  0
  2 12  1  0  0  0  0
  3 10  2  0  0  0  0
  3 14  1  0  0  0  0
  4  8  1  0  0  0  0
  4 15  1  0  0  0  0
  5  1  1  0  0  0  0
  7  4  2  0  0  0  0
  9  5  2  0  0  0  0
  9  7  1  0  0  0  0
 10 11  1  0  0  0  0
 11  7  1  0  0  0  0
 11  2  2  0  0  0  0
 12 15  2  0  0  0  0
 13  2  1  0  0  0  0
 13 35  1  0  0  0  0
 14 13  2  0  0  0  0
 16  3  1  1  0  0  0
 17 19  1  6  0  0  0
 17 18  1  0  0  0  0
 17 16  1  0  0  0  0
 18 16  1  0  0  0  0
 19 20  1  6  0  0  0
 21 19  1  0  0  0  0
 22 21  1  0  0  0  0
 22 25  1  0  0  0  0
 23 25  1  0  0  0  0
 24 22  1  0  0  0  0
 25 26  1  1  0  0  0
 25 28  1  0  0  0  0
 27 24  1  0  0  0  0
 27 23  1  0  0  0  0
 29 33  1  0  0  0  0
 29 28  1  0  0  0  0
 29 34  1  0  0  0  0
 31 32  1  0  0  0  0
 32 30  2  0  0  0  0
 33 31  1  0  0  0  0
 34 32  1  0  0  0  0
 36 39  1  0  0  0  0
 37 36  2  0  0  0  0
 38 40  1  0  0  0  0
 40 35  1  0  0  0  0
 40 39  2  0  0  0  0
 41 38  2  0  0  0  0
 41 37  1  0  0  0  0
 42 43  1  0  0  0  0
 43 37  1  0  0  0  0
M  END
>  <MODEL>
9

>  <REMARK>
 VINA RESULT:      -6.7      1.781      6.759
  Name = 
  9 active torsions:
  status: ('A' for Active; 'I' for Inactive)
    1  A    between atoms: N_1  and  C_34
    2  A    between atoms: N_1  and  C_35
    3  A    between atoms: C_2  and  C_13
    4  A    between atoms: C_3  and  N_4
    5  A    between atoms: C_3  and  C_12
    6  A    between atoms: C_6  and  C_12
    7  A    between atoms: N_11  and  C_14
    8  A    between atoms: C_14  and  C_22
    9  A    between atoms: C_19  and  C_37
                            x       y       z     vdW  Elec       q    Type
                         _______ _______ _______ _____ _____    ______ ____

>  <TORSDO>
F 9

$$$$
