=
 OpenBabel11052418003D

 31 34  0  0  1  0  0  0  0  0999 V2000
  189.8220  173.0820  140.9180 C   0  0  0  0  0  0  0  0  0  0  0  0
  189.3900  175.6500  143.6260 C   0  0  0  0  0  0  0  0  0  0  0  0
  190.4040  175.3750  144.5810 C   0  0  0  0  0  0  0  0  0  0  0  0
  192.2850  174.0570  145.3940 C   0  0  0  0  0  3  0  0  0  0  0  0
  189.2150  174.8810  142.3580 C   0  0  0  0  0  0  0  0  0  0  0  0
  188.9690  173.5570  139.9200 C   0  0  0  0  0  3  0  0  0  0  0  0
  191.2970  174.3010  144.4390 C   0  0  0  0  0  3  0  0  0  0  0  0
  187.3670  177.0330  142.9440 C   0  0  2  0  0  3  0  0  0  0  0  0
  190.4970  172.0380  140.7220 O   0  0  0  0  0  0  0  0  0  0  0  0
  189.6880  177.2700  145.8770 N   0  0  0  0  0  0  0  0  0  0  0  0
  192.3970  174.8850  146.5090 C   0  0  0  0  0  3  0  0  0  0  0  0
  187.5540  176.5040  141.6300 O   0  0  0  0  0  0  0  0  0  0  0  0
  188.5310  176.7460  143.8560 C   0  0  0  0  0  0  0  0  0  0  0  0
  189.9300  173.7500  142.0970 N   0  0  0  0  0  0  0  0  0  0  0  0
  191.7050  176.9810  148.0960 Cl  0  0  0  0  0  0  0  0  0  0  0  0
  188.3280  175.3670  141.3820 C   0  0  1  0  0  3  0  0  0  0  0  0
  188.2220  174.7090  140.1570 C   0  0  0  0  0  3  0  0  0  0  0  0
  188.7050  177.5450  144.9860 C   0  0  0  0  0  3  0  0  0  0  0  0
  190.5300  176.2150  145.7180 C   0  0  0  0  0  0  0  0  0  0  0  0
  191.5260  175.9630  146.6760 C   0  0  0  0  0  0  0  0  0  0  0  0
  186.0300  176.5710  143.5370 C   0  0  0  0  0  2  0  0  0  0  0  0
  184.4030  178.8800  145.8740 O   0  0  0  0  0  0  0  0  0  0  0  0
  185.6770  177.2680  147.8220 C   0  0  0  0  0  1  0  0  0  0  0  0
  185.7990  177.0880  146.3850 N   0  0  0  0  0  2  0  0  0  0  0  0
  185.1090  177.9230  145.4530 C   0  0  0  0  0  0  0  0  0  0  0  0
  185.2280  177.6830  144.0390 N   0  0  0  0  0  0  0  0  0  0  0  0
  184.8290  178.7090  143.0830 C   0  0  0  0  0  2  0  0  0  0  0  0
  183.7290  178.1930  140.8750 C   0  0  0  0  0  0  0  0  0  0  0  0
  182.6140  177.7510  140.1770 O   0  0  0  0  0  0  0  0  0  0  0  0
  184.7630  178.5400  140.2440 O   0  0  0  0  0  1  0  0  0  0  0  0
  183.6930  178.2500  142.3000 N   0  0  0  0  0  2  0  0  0  0  0  0
  1 14  1  0  0  0  0
  2 13  2  0  0  0  0
  2  3  1  0  0  0  0
  3 19  1  0  0  0  0
  4 11  2  0  0  0  0
  5  2  1  0  0  0  0
  6 17  2  0  0  0  0
  6  1  1  0  0  0  0
  7  3  2  0  0  0  0
  7  4  1  0  0  0  0
  8 21  1  1  0  0  0
  8 13  1  0  0  0  0
  9  1  2  0  0  0  0
 11 20  1  0  0  0  0
 12  8  1  0  0  0  0
 13 18  1  0  0  0  0
 14  5  2  0  0  0  0
 16 17  1  6  0  0  0
 16 12  1  0  0  0  0
 16  5  1  0  0  0  0
 18 10  2  0  0  0  0
 19 10  1  0  0  0  0
 19 20  2  0  0  0  0
 20 15  1  0  0  0  0
 21 26  1  0  0  0  0
 24 23  1  0  0  0  0
 25 22  2  0  0  0  0
 25 24  1  0  0  0  0
 26 25  1  0  0  0  0
 27 26  1  0  0  0  0
 28 31  1  0  0  0  0
 29 28  2  0  0  0  0
 30 28  1  0  0  0  0
 31 27  1  0  0  0  0
M  END
>  <MODEL>
1

>  <REMARK>
 VINA RESULT:      -8.0      0.000      0.000
  Name = 
  4 active torsions:
  status: ('A' for Active; 'I' for Inactive)
    1  A    between atoms: C_6  and  N_22
    2  A    between atoms: C_6  and  N_24
    3  A    between atoms: C_15  and  C_23
    4  A    between atoms: N_22  and  C_23
                            x       y       z     vdW  Elec       q    Type
                         _______ _______ _______ _____ _____    ______ ____

>  <TORSDO>
F 4

$$$$
=
 OpenBabel11052418003D

 31 34  0  0  1  0  0  0  0  0999 V2000
  187.2630  176.4490  140.4090 C   0  0  0  0  0  0  0  0  0  0  0  0
  187.9820  176.3330  144.0950 C   0  0  0  0  0  0  0  0  0  0  0  0
  187.1620  177.3350  144.6780 C   0  0  0  0  0  0  0  0  0  0  0  0
  185.5290  179.1350  144.5110 C   0  0  0  0  0  3  0  0  0  0  0  0
  187.9890  176.0130  142.6370 C   0  0  0  0  0  0  0  0  0  0  0  0
  187.9050  175.3000  139.9450 C   0  0  0  0  0  3  0  0  0  0  0  0
  186.3260  178.1600  143.9100 C   0  0  0  0  0  3  0  0  0  0  0  0
  189.7720  174.5510  144.3890 C   0  0  2  0  0  3  0  0  0  0  0  0
  186.6310  177.1830  139.6060 O   0  0  0  0  0  0  0  0  0  0  0  0
  187.9660  176.7150  146.8580 N   0  0  0  0  0  0  0  0  0  0  0  0
  185.5540  179.3000  145.8960 C   0  0  0  0  0  3  0  0  0  0  0  0
  189.4010  174.0830  143.0900 O   0  0  0  0  0  0  0  0  0  0  0  0
  188.7980  175.5550  144.9450 C   0  0  0  0  0  0  0  0  0  0  0  0
  187.3130  176.7720  141.7290 N   0  0  0  0  0  0  0  0  0  0  0  0
  186.3700  178.7330  148.4260 Cl  0  0  0  0  0  0  0  0  0  0  0  0
  188.6690  174.8650  142.1940 C   0  0  1  0  0  3  0  0  0  0  0  0
  188.6090  174.5040  140.8480 C   0  0  0  0  0  3  0  0  0  0  0  0
  188.7660  175.7610  146.3240 C   0  0  0  0  0  3  0  0  0  0  0  0
  187.1760  177.5070  146.0860 C   0  0  0  0  0  0  0  0  0  0  0  0
  186.3720  178.4910  146.6860 C   0  0  0  0  0  0  0  0  0  0  0  0
  191.2160  175.0690  144.3940 C   0  0  0  0  0  2  0  0  0  0  0  0
  193.5980  172.5170  145.5150 O   0  0  0  0  0  0  0  0  0  0  0  0
  193.5350  171.7490  142.7910 C   0  0  0  0  0  1  0  0  0  0  0  0
  192.8030  172.8710  143.3550 N   0  0  0  0  0  2  0  0  0  0  0  0
  192.8590  173.1920  144.7470 C   0  0  0  0  0  0  0  0  0  0  0  0
  192.0870  174.2880  145.2690 N   0  0  0  0  0  0  0  0  0  0  0  0
  192.3910  174.8420  146.5830 C   0  0  0  0  0  2  0  0  0  0  0  0
  194.3240  176.4370  146.3190 C   0  0  0  0  0  0  0  0  0  0  0  0
  194.7820  177.7420  146.1970 O   0  0  0  0  0  0  0  0  0  0  0  0
  195.1490  175.4840  146.3150 O   0  0  0  0  0  1  0  0  0  0  0  0
  192.9260  176.1880  146.4470 N   0  0  0  0  0  2  0  0  0  0  0  0
  1 14  1  0  0  0  0
  2  3  2  0  0  0  0
  2 13  1  0  0  0  0
  3 19  1  0  0  0  0
  4 11  1  0  0  0  0
  5  2  1  0  0  0  0
  6  1  1  0  0  0  0
  6 17  2  0  0  0  0
  7  4  2  0  0  0  0
  7  3  1  0  0  0  0
  8 21  1  6  0  0  0
  8 13  1  0  0  0  0
  9  1  2  0  0  0  0
 11 20  2  0  0  0  0
 12  8  1  0  0  0  0
 13 18  2  0  0  0  0
 14  5  2  0  0  0  0
 16 17  1  1  0  0  0
 16  5  1  0  0  0  0
 16 12  1  0  0  0  0
 18 10  1  0  0  0  0
 19 20  1  0  0  0  0
 19 10  2  0  0  0  0
 20 15  1  0  0  0  0
 21 26  1  0  0  0  0
 23 24  1  0  0  0  0
 24 25  1  0  0  0  0
 25 26  1  0  0  0  0
 25 22  2  0  0  0  0
 26 27  1  0  0  0  0
 28 31  1  0  0  0  0
 29 28  2  0  0  0  0
 30 28  1  0  0  0  0
 31 27  1  0  0  0  0
M  END
>  <MODEL>
2

>  <REMARK>
 VINA RESULT:      -7.8      3.239      7.100
  Name = 
  4 active torsions:
  status: ('A' for Active; 'I' for Inactive)
    1  A    between atoms: C_6  and  N_22
    2  A    between atoms: C_6  and  N_24
    3  A    between atoms: C_15  and  C_23
    4  A    between atoms: N_22  and  C_23
                            x       y       z     vdW  Elec       q    Type
                         _______ _______ _______ _____ _____    ______ ____

>  <TORSDO>
F 4

$$$$
=
 OpenBabel11052418003D

 31 34  0  0  1  0  0  0  0  0999 V2000
  189.9410  173.2090  141.1390 C   0  0  0  0  0  0  0  0  0  0  0  0
  189.3850  175.7050  143.8930 C   0  0  0  0  0  0  0  0  0  0  0  0
  190.4080  175.4590  144.8460 C   0  0  0  0  0  0  0  0  0  0  0  0
  192.3470  174.2160  145.6390 C   0  0  0  0  0  3  0  0  0  0  0  0
  189.2480  174.9520  142.6100 C   0  0  0  0  0  0  0  0  0  0  0  0
  189.0690  173.6630  140.1480 C   0  0  0  0  0  3  0  0  0  0  0  0
  191.3510  174.4310  144.6860 C   0  0  0  0  0  3  0  0  0  0  0  0
  187.3010  177.0040  143.2300 C   0  0  2  0  0  3  0  0  0  0  0  0
  190.6640  172.2020  140.9260 O   0  0  0  0  0  0  0  0  0  0  0  0
  189.6020  177.2950  146.1740 N   0  0  0  0  0  0  0  0  0  0  0  0
  192.4180  175.0280  146.7700 C   0  0  0  0  0  3  0  0  0  0  0  0
  187.5150  176.5090  141.9070 O   0  0  0  0  0  0  0  0  0  0  0  0
  188.4750  176.7560  144.1400 C   0  0  0  0  0  0  0  0  0  0  0  0
  190.0150  173.8600  142.3310 N   0  0  0  0  0  0  0  0  0  0  0  0
  191.6260  177.0600  148.3930 Cl  0  0  0  0  0  0  0  0  0  0  0  0
  188.3410  175.4140  141.6410 C   0  0  1  0  0  3  0  0  0  0  0  0
  188.2680  174.7740  140.4040 C   0  0  0  0  0  3  0  0  0  0  0  0
  188.6090  177.5410  145.2850 C   0  0  0  0  0  3  0  0  0  0  0  0
  190.4920  176.2840  145.9980 C   0  0  0  0  0  0  0  0  0  0  0  0
  191.4980  176.0600  146.9540 C   0  0  0  0  0  0  0  0  0  0  0  0
  185.9850  176.4700  143.8110 C   0  0  0  0  0  2  0  0  0  0  0  0
  183.5300  179.1890  143.6920 O   0  0  0  0  0  0  0  0  0  0  0  0
  183.5610  178.6390  140.9160 C   0  0  0  0  0  1  0  0  0  0  0  0
  184.3280  177.9150  141.9150 N   0  0  0  0  0  2  0  0  0  0  0  0
  184.2870  178.2590  143.3020 C   0  0  0  0  0  0  0  0  0  0  0  0
  185.0940  177.5400  144.2510 N   0  0  0  0  0  0  0  0  0  0  0  0
  184.8110  177.6340  145.6780 C   0  0  0  0  0  2  0  0  0  0  0  0
  185.9310  178.9150  147.5380 C   0  0  0  0  0  0  0  0  0  0  0  0
  186.4590  180.1080  148.0090 O   0  0  0  0  0  0  0  0  0  0  0  0
  185.9400  177.8940  148.2760 O   0  0  0  0  0  1  0  0  0  0  0  0
  185.3820  178.8560  146.2220 N   0  0  0  0  0  2  0  0  0  0  0  0
  1 14  1  0  0  0  0
  2 13  2  0  0  0  0
  2  3  1  0  0  0  0
  3 19  1  0  0  0  0
  4 11  2  0  0  0  0
  5  2  1  0  0  0  0
  6 17  2  0  0  0  0
  6  1  1  0  0  0  0
  7  3  2  0  0  0  0
  7  4  1  0  0  0  0
  8 21  1  1  0  0  0
  8 13  1  0  0  0  0
  9  1  2  0  0  0  0
 11 20  1  0  0  0  0
 12  8  1  0  0  0  0
 13 18  1  0  0  0  0
 14  5  2  0  0  0  0
 16 17  1  6  0  0  0
 16 12  1  0  0  0  0
 16  5  1  0  0  0  0
 18 10  2  0  0  0  0
 19 10  1  0  0  0  0
 19 20  2  0  0  0  0
 20 15  1  0  0  0  0
 21 26  1  0  0  0  0
 23 24  1  0  0  0  0
 24 25  1  0  0  0  0
 25 22  2  0  0  0  0
 25 26  1  0  0  0  0
 26 27  1  0  0  0  0
 27 31  1  0  0  0  0
 28 29  2  0  0  0  0
 28 30  1  0  0  0  0
 31 28  1  0  0  0  0
M  END
>  <MODEL>
3

>  <REMARK>
 VINA RESULT:      -7.7      1.197      3.183
  Name = 
  4 active torsions:
  status: ('A' for Active; 'I' for Inactive)
    1  A    between atoms: C_6  and  N_22
    2  A    between atoms: C_6  and  N_24
    3  A    between atoms: C_15  and  C_23
    4  A    between atoms: N_22  and  C_23
                            x       y       z     vdW  Elec       q    Type
                         _______ _______ _______ _____ _____    ______ ____

>  <TORSDO>
F 4

$$$$
=
 OpenBabel11052418003D

 31 34  0  0  1  0  0  0  0  0999 V2000
  192.2230  176.1570  146.2910 C   0  0  0  0  0  0  0  0  0  0  0  0
  189.6630  175.4540  143.6310 C   0  0  0  0  0  0  0  0  0  0  0  0
  190.3670  174.8020  142.5840 C   0  0  0  0  0  0  0  0  0  0  0  0
  192.4130  173.9200  141.5990 C   0  0  0  0  0  3  0  0  0  0  0  0
  190.2980  175.8880  144.9120 C   0  0  0  0  0  0  0  0  0  0  0  0
  191.4300  176.5660  147.3640 C   0  0  0  0  0  3  0  0  0  0  0  0
  191.7490  174.5660  142.6430 C   0  0  0  0  0  3  0  0  0  0  0  0
  187.4840  176.4360  144.5000 C   0  0  2  0  0  3  0  0  0  0  0  0
  193.4720  176.0880  146.4230 O   0  0  0  0  0  0  0  0  0  0  0  0
  188.3100  174.5670  141.3590 N   0  0  0  0  0  0  0  0  0  0  0  0
  191.7020  173.4980  140.4760 C   0  0  0  0  0  3  0  0  0  0  0  0
  188.0960  176.4330  145.7920 O   0  0  0  0  0  0  0  0  0  0  0  0
  188.2740  175.6570  143.4820 C   0  0  0  0  0  0  0  0  0  0  0  0
  191.6460  175.8240  145.1050 N   0  0  0  0  0  0  0  0  0  0  0  0
  189.4720  173.1650  138.9590 Cl  0  0  0  0  0  0  0  0  0  0  0  0
  189.4770  176.3230  145.9660 C   0  0  1  0  0  3  0  0  0  0  0  0
  190.0490  176.6450  147.1970 C   0  0  0  0  0  3  0  0  0  0  0  0
  187.6200  175.1980  142.3390 C   0  0  0  0  0  3  0  0  0  0  0  0
  189.6520  174.3640  141.4390 C   0  0  0  0  0  0  0  0  0  0  0  0
  190.3270  173.7150  140.3910 C   0  0  0  0  0  0  0  0  0  0  0  0
  187.1820  177.8670  144.0380 C   0  0  0  0  0  2  0  0  0  0  0  0
  183.7810  178.4990  142.8240 O   0  0  0  0  0  0  0  0  0  0  0  0
  184.9700  178.0670  140.2910 C   0  0  0  0  0  1  0  0  0  0  0  0
  185.6660  177.9740  141.5630 N   0  0  0  0  0  2  0  0  0  0  0  0
  185.0130  178.2290  142.8080 C   0  0  0  0  0  0  0  0  0  0  0  0
  185.7520  178.1650  144.0410 N   0  0  0  0  0  0  0  0  0  0  0  0
  185.0500  178.0750  145.3160 C   0  0  0  0  0  2  0  0  0  0  0  0
  185.9440  178.9110  147.5190 C   0  0  0  0  0  0  0  0  0  0  0  0
  186.3270  179.9790  148.3180 O   0  0  0  0  0  1  0  0  0  0  0  0
  186.0210  177.7370  147.9680 O   0  0  0  0  0  0  0  0  0  0  0  0
  185.4680  179.1540  146.1960 N   0  0  0  0  0  2  0  0  0  0  0  0
  1  9  2  0  0  0  0
  1  6  1  0  0  0  0
  2  5  1  0  0  0  0
  3  7  1  0  0  0  0
  3  2  2  0  0  0  0
  4  7  2  0  0  0  0
  5 14  2  0  0  0  0
  5 16  1  0  0  0  0
  8 21  1  6  0  0  0
  8 12  1  0  0  0  0
 10 19  2  0  0  0  0
 10 18  1  0  0  0  0
 11  4  1  0  0  0  0
 12 16  1  0  0  0  0
 13  2  1  0  0  0  0
 13  8  1  0  0  0  0
 14  1  1  0  0  0  0
 15 20  1  0  0  0  0
 16 17  1  1  0  0  0
 17  6  2  0  0  0  0
 18 13  2  0  0  0  0
 19  3  1  0  0  0  0
 20 11  2  0  0  0  0
 20 19  1  0  0  0  0
 21 26  1  0  0  0  0
 23 24  1  0  0  0  0
 24 25  1  0  0  0  0
 25 22  2  0  0  0  0
 25 26  1  0  0  0  0
 26 27  1  0  0  0  0
 27 31  1  0  0  0  0
 28 30  2  0  0  0  0
 28 29  1  0  0  0  0
 31 28  1  0  0  0  0
M  END
>  <MODEL>
4

>  <REMARK>
 VINA RESULT:      -7.7      2.902      5.385
  Name = 
  4 active torsions:
  status: ('A' for Active; 'I' for Inactive)
    1  A    between atoms: C_6  and  N_22
    2  A    between atoms: C_6  and  N_24
    3  A    between atoms: C_15  and  C_23
    4  A    between atoms: N_22  and  C_23
                            x       y       z     vdW  Elec       q    Type
                         _______ _______ _______ _____ _____    ______ ____

>  <TORSDO>
F 4

$$$$
=
 OpenBabel11052418003D

 31 34  0  0  1  0  0  0  0  0999 V2000
  188.5360  174.2830  139.5320 C   0  0  0  0  0  0  0  0  0  0  0  0
  188.4810  175.9670  142.8910 C   0  0  0  0  0  0  0  0  0  0  0  0
  187.3690  176.8490  142.8600 C   0  0  0  0  0  0  0  0  0  0  0  0
  185.4710  177.8690  141.7230 C   0  0  0  0  0  3  0  0  0  0  0  0
  188.8570  175.0670  141.7600 C   0  0  0  0  0  0  0  0  0  0  0  0
  189.4830  173.2760  139.7210 C   0  0  0  0  0  3  0  0  0  0  0  0
  186.5590  176.9950  141.7230 C   0  0  0  0  0  3  0  0  0  0  0  0
  190.5000  175.0610  144.1450 C   0  0  2  0  0  3  0  0  0  0  0  0
  187.9460  174.3910  138.4260 O   0  0  0  0  0  0  0  0  0  0  0  0
  187.8130  177.4770  145.1390 N   0  0  0  0  0  0  0  0  0  0  0  0
  185.1730  178.6120  142.8650 C   0  0  0  0  0  3  0  0  0  0  0  0
  190.5110  173.9980  143.1900 O   0  0  0  0  0  0  0  0  0  0  0  0
  189.2450  175.8910  144.0750 C   0  0  0  0  0  0  0  0  0  0  0  0
  188.2420  175.1410  140.5460 N   0  0  0  0  0  0  0  0  0  0  0  0
  185.5450  179.4390  145.4270 Cl  0  0  0  0  0  0  0  0  0  0  0  0
  189.8360  174.0810  141.9700 C   0  0  1  0  0  3  0  0  0  0  0  0
  190.1330  173.1760  140.9500 C   0  0  0  0  0  3  0  0  0  0  0  0
  188.8860  176.6510  145.1880 C   0  0  0  0  0  3  0  0  0  0  0  0
  187.0550  177.6060  144.0180 C   0  0  0  0  0  0  0  0  0  0  0  0
  185.9580  178.4850  144.0120 C   0  0  0  0  0  0  0  0  0  0  0  0
  191.7720  175.9110  144.0370 C   0  0  0  0  0  2  0  0  0  0  0  0
  195.2110  174.7460  144.5460 O   0  0  0  0  0  0  0  0  0  0  0  0
  195.6660  176.0830  142.0930 C   0  0  0  0  0  1  0  0  0  0  0  0
  194.3910  176.0340  142.7880 N   0  0  0  0  0  2  0  0  0  0  0  0
  194.2210  175.3190  144.0140 C   0  0  0  0  0  0  0  0  0  0  0  0
  192.9300  175.2640  144.6480 N   0  0  0  0  0  0  0  0  0  0  0  0
  192.8110  174.8520  146.0410 C   0  0  0  0  0  2  0  0  0  0  0  0
  191.5010  176.1240  147.7780 C   0  0  0  0  0  0  0  0  0  0  0  0
  191.3580  177.2580  148.5650 O   0  0  0  0  0  1  0  0  0  0  0  0
  190.6460  175.2020  147.8520 O   0  0  0  0  0  0  0  0  0  0  0  0
  192.6140  176.0150  146.8930 N   0  0  0  0  0  2  0  0  0  0  0  0
  1  6  1  0  0  0  0
  1 14  1  0  0  0  0
  2 13  1  0  0  0  0
  3  2  2  0  0  0  0
  3 19  1  0  0  0  0
  4  7  2  0  0  0  0
  4 11  1  0  0  0  0
  5 16  1  0  0  0  0
  5  2  1  0  0  0  0
  6 17  2  0  0  0  0
  7  3  1  0  0  0  0
  8 21  1  6  0  0  0
  9  1  2  0  0  0  0
 10 18  1  0  0  0  0
 11 20  2  0  0  0  0
 12  8  1  0  0  0  0
 13  8  1  0  0  0  0
 13 18  2  0  0  0  0
 14  5  2  0  0  0  0
 16 17  1  1  0  0  0
 16 12  1  0  0  0  0
 19 10  2  0  0  0  0
 20 19  1  0  0  0  0
 20 15  1  0  0  0  0
 21 26  1  0  0  0  0
 23 24  1  0  0  0  0
 24 25  1  0  0  0  0
 25 22  2  0  0  0  0
 25 26  1  0  0  0  0
 26 27  1  0  0  0  0
 27 31  1  0  0  0  0
 28 30  2  0  0  0  0
 28 29  1  0  0  0  0
 31 28  1  0  0  0  0
M  END
>  <MODEL>
5

>  <REMARK>
 VINA RESULT:      -7.6      3.336      6.965
  Name = 
  4 active torsions:
  status: ('A' for Active; 'I' for Inactive)
    1  A    between atoms: C_6  and  N_22
    2  A    between atoms: C_6  and  N_24
    3  A    between atoms: C_15  and  C_23
    4  A    between atoms: N_22  and  C_23
                            x       y       z     vdW  Elec       q    Type
                         _______ _______ _______ _____ _____    ______ ____

>  <TORSDO>
F 4

$$$$
=
 OpenBabel11052418003D

 31 34  0  0  1  0  0  0  0  0999 V2000
  184.9170  178.1470  146.8420 C   0  0  0  0  0  0  0  0  0  0  0  0
  187.1180  177.5000  143.8660 C   0  0  0  0  0  0  0  0  0  0  0  0
  186.2790  177.6420  142.7300 C   0  0  0  0  0  0  0  0  0  0  0  0
  184.1090  178.0630  141.7050 C   0  0  0  0  0  3  0  0  0  0  0  0
  186.6540  177.7050  145.2710 C   0  0  0  0  0  0  0  0  0  0  0  0
  185.8430  178.2310  147.8830 C   0  0  0  0  0  3  0  0  0  0  0  0
  184.9090  177.9280  142.8410 C   0  0  0  0  0  3  0  0  0  0  0  0
  189.4080  176.9320  144.8170 C   0  0  2  0  0  3  0  0  0  0  0  0
  183.6920  178.3110  147.0770 O   0  0  0  0  0  0  0  0  0  0  0  0
  188.1650  177.2330  141.2950 N   0  0  0  0  0  0  0  0  0  0  0  0
  184.6690  177.9160  140.4360 C   0  0  0  0  0  3  0  0  0  0  0  0
  188.9580  177.5310  146.0340 O   0  0  0  0  0  0  0  0  0  0  0  0
  188.4830  177.2030  143.6600 C   0  0  0  0  0  0  0  0  0  0  0  0
  185.3380  177.8960  145.5740 N   0  0  0  0  0  0  0  0  0  0  0  0
  186.6910  177.4600  138.6770 Cl  0  0  0  0  0  0  0  0  0  0  0  0
  187.6060  177.7560  146.3030 C   0  0  1  0  0  3  0  0  0  0  0  0
  187.1950  178.0370  147.6070 C   0  0  0  0  0  3  0  0  0  0  0  0
  188.9830  177.0820  142.3640 C   0  0  0  0  0  3  0  0  0  0  0  0
  186.8390  177.4980  141.4340 C   0  0  0  0  0  0  0  0  0  0  0  0
  186.0280  177.6360  140.2950 C   0  0  0  0  0  0  0  0  0  0  0  0
  189.6820  175.4350  145.0110 C   0  0  0  0  0  2  0  0  0  0  0  0
  193.2570  174.9570  144.3530 O   0  0  0  0  0  0  0  0  0  0  0  0
  193.5480  176.4200  146.7580 C   0  0  0  0  0  1  0  0  0  0  0  0
  192.2770  176.0430  146.1640 N   0  0  0  0  0  2  0  0  0  0  0  0
  192.1980  175.3230  144.9310 C   0  0  0  0  0  0  0  0  0  0  0  0
  190.9160  175.0050  144.3590 N   0  0  0  0  0  0  0  0  0  0  0  0
  190.8080  173.9930  143.3150 C   0  0  0  0  0  2  0  0  0  0  0  0
  188.7410  173.3660  142.0160 C   0  0  0  0  0  0  0  0  0  0  0  0
  187.4420  172.8780  142.0120 O   0  0  0  0  0  1  0  0  0  0  0  0
  189.2860  173.7000  140.9300 O   0  0  0  0  0  0  0  0  0  0  0  0
  189.4470  173.4840  143.2500 N   0  0  0  0  0  2  0  0  0  0  0  0
  1  9  2  0  0  0  0
  1  6  1  0  0  0  0
  2  5  1  0  0  0  0
  3  7  1  0  0  0  0
  3  2  2  0  0  0  0
  4  7  2  0  0  0  0
  5 14  2  0  0  0  0
  5 16  1  0  0  0  0
  8 21  1  1  0  0  0
  8 12  1  0  0  0  0
 10 19  2  0  0  0  0
 10 18  1  0  0  0  0
 11  4  1  0  0  0  0
 12 16  1  0  0  0  0
 13  2  1  0  0  0  0
 13  8  1  0  0  0  0
 14  1  1  0  0  0  0
 15 20  1  0  0  0  0
 16 17  1  6  0  0  0
 17  6  2  0  0  0  0
 18 13  2  0  0  0  0
 19  3  1  0  0  0  0
 20 11  2  0  0  0  0
 20 19  1  0  0  0  0
 22 25  2  0  0  0  0
 24 23  1  0  0  0  0
 25 24  1  0  0  0  0
 26 25  1  0  0  0  0
 26 21  1  0  0  0  0
 27 26  1  0  0  0  0
 28 31  1  0  0  0  0
 29 28  1  0  0  0  0
 30 28  2  0  0  0  0
 31 27  1  0  0  0  0
M  END
>  <MODEL>
6

>  <REMARK>
 VINA RESULT:      -7.6      3.077      7.248
  Name = 
  4 active torsions:
  status: ('A' for Active; 'I' for Inactive)
    1  A    between atoms: C_6  and  N_22
    2  A    between atoms: C_6  and  N_24
    3  A    between atoms: C_15  and  C_23
    4  A    between atoms: N_22  and  C_23
                            x       y       z     vdW  Elec       q    Type
                         _______ _______ _______ _____ _____    ______ ____

>  <TORSDO>
F 4

$$$$
=
 OpenBabel11052418003D

 31 34  0  0  1  0  0  0  0  0999 V2000
  188.2130  175.1310  140.8340 C   0  0  0  0  0  0  0  0  0  0  0  0
  188.1770  175.9890  144.4920 C   0  0  0  0  0  0  0  0  0  0  0  0
  187.2950  177.0940  144.6190 C   0  0  0  0  0  0  0  0  0  0  0  0
  185.7960  178.7620  143.6670 C   0  0  0  0  0  3  0  0  0  0  0  0
  188.4640  175.3010  143.1980 C   0  0  0  0  0  0  0  0  0  0  0  0
  188.8920  173.9110  140.8220 C   0  0  0  0  0  3  0  0  0  0  0  0
  186.6600  177.6770  143.5110 C   0  0  0  0  0  3  0  0  0  0  0  0
  189.8060  174.3740  145.5910 C   0  0  2  0  0  3  0  0  0  0  0  0
  187.7810  175.6190  139.7580 O   0  0  0  0  0  0  0  0  0  0  0  0
  187.6250  177.0750  147.0010 N   0  0  0  0  0  0  0  0  0  0  0  0
  185.5510  179.2810  144.9370 C   0  0  0  0  0  3  0  0  0  0  0  0
  189.6840  173.5790  144.4100 O   0  0  0  0  0  0  0  0  0  0  0  0
  188.7780  175.4720  145.6600 C   0  0  0  0  0  0  0  0  0  0  0  0
  188.0100  175.7870  142.0080 N   0  0  0  0  0  0  0  0  0  0  0  0
  185.8240  179.4050  147.6390 Cl  0  0  0  0  0  0  0  0  0  0  0  0
  189.1750  174.0880  143.2130 C   0  0  1  0  0  3  0  0  0  0  0  0
  189.3710  173.3890  142.0220 C   0  0  0  0  0  3  0  0  0  0  0  0
  188.4800  176.0290  146.9040 C   0  0  0  0  0  3  0  0  0  0  0  0
  187.0350  177.6270  145.9080 C   0  0  0  0  0  0  0  0  0  0  0  0
  186.1640  178.7190  146.0580 C   0  0  0  0  0  0  0  0  0  0  0  0
  191.2380  174.9000  145.7540 C   0  0  0  0  0  2  0  0  0  0  0  0
  192.5540  176.3370  142.6490 O   0  0  0  0  0  0  0  0  0  0  0  0
  191.2530  178.6730  143.5790 C   0  0  0  0  0  1  0  0  0  0  0  0
  191.2990  177.4080  144.2920 N   0  0  0  0  0  2  0  0  0  0  0  0
  191.9540  176.2560  143.7550 C   0  0  0  0  0  0  0  0  0  0  0  0
  191.9410  175.0120  144.4790 N   0  0  0  0  0  0  0  0  0  0  0  0
  192.8750  173.9490  144.1310 C   0  0  0  0  0  2  0  0  0  0  0  0
  195.1510  174.5190  145.0520 C   0  0  0  0  0  0  0  0  0  0  0  0
  196.1010  174.3690  146.0530 O   0  0  0  0  0  1  0  0  0  0  0  0
  195.3990  175.2590  144.0630 O   0  0  0  0  0  0  0  0  0  0  0  0
  193.9050  173.8330  145.1520 N   0  0  0  0  0  2  0  0  0  0  0  0
  1 14  1  0  0  0  0
  2  3  2  0  0  0  0
  2 13  1  0  0  0  0
  3 19  1  0  0  0  0
  4 11  1  0  0  0  0
  5 16  1  0  0  0  0
  5  2  1  0  0  0  0
  6  1  1  0  0  0  0
  6 17  2  0  0  0  0
  7  4  2  0  0  0  0
  7  3  1  0  0  0  0
  8 13  1  0  0  0  0
  8 21  1  6  0  0  0
  9  1  2  0  0  0  0
 11 20  2  0  0  0  0
 12  8  1  0  0  0  0
 13 18  2  0  0  0  0
 14  5  2  0  0  0  0
 16 17  1  1  0  0  0
 16 12  1  0  0  0  0
 18 10  1  0  0  0  0
 19 20  1  0  0  0  0
 19 10  2  0  0  0  0
 20 15  1  0  0  0  0
 22 25  2  0  0  0  0
 23 24  1  0  0  0  0
 25 24  1  0  0  0  0
 25 26  1  0  0  0  0
 26 21  1  0  0  0  0
 27 26  1  0  0  0  0
 27 31  1  0  0  0  0
 28 31  1  0  0  0  0
 28 29  1  0  0  0  0
 30 28  2  0  0  0  0
M  END
>  <MODEL>
7

>  <REMARK>
 VINA RESULT:      -7.6      3.155      6.818
  Name = 
  4 active torsions:
  status: ('A' for Active; 'I' for Inactive)
    1  A    between atoms: C_6  and  N_22
    2  A    between atoms: C_6  and  N_24
    3  A    between atoms: C_15  and  C_23
    4  A    between atoms: N_22  and  C_23
                            x       y       z     vdW  Elec       q    Type
                         _______ _______ _______ _____ _____    ______ ____

>  <TORSDO>
F 4

$$$$
=
 OpenBabel11052418003D

 31 34  0  0  1  0  0  0  0  0999 V2000
  185.2590  178.3450  146.9870 C   0  0  0  0  0  0  0  0  0  0  0  0
  187.2730  177.3970  143.9590 C   0  0  0  0  0  0  0  0  0  0  0  0
  186.4100  177.5900  142.8480 C   0  0  0  0  0  0  0  0  0  0  0  0
  184.2560  178.1990  141.8850 C   0  0  0  0  0  3  0  0  0  0  0  0
  186.8840  177.6870  145.3710 C   0  0  0  0  0  0  0  0  0  0  0  0
  186.2270  178.3650  147.9920 C   0  0  0  0  0  3  0  0  0  0  0  0
  185.0800  178.0160  142.9970 C   0  0  0  0  0  3  0  0  0  0  0  0
  189.5280  176.6280  144.8480 C   0  0  2  0  0  3  0  0  0  0  0  0
  184.0660  178.6380  147.2580 O   0  0  0  0  0  0  0  0  0  0  0  0
  188.1910  176.9540  141.3630 N   0  0  0  0  0  0  0  0  0  0  0  0
  184.7510  177.9600  140.6040 C   0  0  0  0  0  3  0  0  0  0  0  0
  189.1860  177.3040  146.0610 O   0  0  0  0  0  0  0  0  0  0  0  0
  188.5920  176.9590  143.7160 C   0  0  0  0  0  0  0  0  0  0  0  0
  185.6060  178.0170  145.7130 N   0  0  0  0  0  0  0  0  0  0  0  0
  186.6500  177.2540  138.7920 Cl  0  0  0  0  0  0  0  0  0  0  0  0
  187.8740  177.6710  146.3690 C   0  0  1  0  0  3  0  0  0  0  0  0
  187.5420  178.0280  147.6760 C   0  0  0  0  0  3  0  0  0  0  0  0
  189.0300  176.7510  142.4080 C   0  0  0  0  0  3  0  0  0  0  0  0
  186.9050  177.3550  141.5390 C   0  0  0  0  0  0  0  0  0  0  0  0
  186.0690  177.5410  140.4250 C   0  0  0  0  0  0  0  0  0  0  0  0
  189.6600  175.1170  145.0790 C   0  0  0  0  0  2  0  0  0  0  0  0
  192.9080  173.7380  144.0850 O   0  0  0  0  0  0  0  0  0  0  0  0
  191.6210  173.4110  141.5850 C   0  0  0  0  0  1  0  0  0  0  0  0
  191.0110  174.0070  142.7610 N   0  0  0  0  0  2  0  0  0  0  0  0
  191.7090  174.1210  144.0040 C   0  0  0  0  0  0  0  0  0  0  0  0
  191.0520  174.6830  145.1550 N   0  0  0  0  0  0  0  0  0  0  0  0
  191.8320  175.1240  146.3050 C   0  0  0  0  0  2  0  0  0  0  0  0
  193.9860  176.4170  146.1070 C   0  0  0  0  0  0  0  0  0  0  0  0
  194.6380  177.5990  145.7840 O   0  0  0  0  0  0  0  0  0  0  0  0
  194.6530  175.4280  146.5130 O   0  0  0  0  0  1  0  0  0  0  0  0
  192.5680  176.3350  145.9760 N   0  0  0  0  0  2  0  0  0  0  0  0
  1  9  2  0  0  0  0
  1  6  1  0  0  0  0
  2  5  1  0  0  0  0
  3  7  1  0  0  0  0
  3  2  2  0  0  0  0
  4  7  2  0  0  0  0
  5 14  2  0  0  0  0
  5 16  1  0  0  0  0
  8 21  1  1  0  0  0
  8 12  1  0  0  0  0
 10 19  2  0  0  0  0
 10 18  1  0  0  0  0
 11  4  1  0  0  0  0
 12 16  1  0  0  0  0
 13  2  1  0  0  0  0
 13  8  1  0  0  0  0
 14  1  1  0  0  0  0
 15 20  1  0  0  0  0
 16 17  1  6  0  0  0
 17  6  2  0  0  0  0
 18 13  2  0  0  0  0
 19  3  1  0  0  0  0
 20 11  2  0  0  0  0
 20 19  1  0  0  0  0
 21 26  1  0  0  0  0
 23 24  1  0  0  0  0
 24 25  1  0  0  0  0
 25 22  2  0  0  0  0
 25 26  1  0  0  0  0
 26 27  1  0  0  0  0
 28 30  1  0  0  0  0
 29 28  2  0  0  0  0
 31 28  1  0  0  0  0
 31 27  1  0  0  0  0
M  END
>  <MODEL>
8

>  <REMARK>
 VINA RESULT:      -7.5      3.431      8.090
  Name = 
  4 active torsions:
  status: ('A' for Active; 'I' for Inactive)
    1  A    between atoms: C_6  and  N_22
    2  A    between atoms: C_6  and  N_24
    3  A    between atoms: C_15  and  C_23
    4  A    between atoms: N_22  and  C_23
                            x       y       z     vdW  Elec       q    Type
                         _______ _______ _______ _____ _____    ______ ____

>  <TORSDO>
F 4

$$$$
=
 OpenBabel11052418003D

 31 34  0  0  1  0  0  0  0  0999 V2000
  190.9340  175.3230  146.7780 C   0  0  0  0  0  0  0  0  0  0  0  0
  188.1630  176.1870  144.3910 C   0  0  0  0  0  0  0  0  0  0  0  0
  187.2270  176.9410  145.1480 C   0  0  0  0  0  0  0  0  0  0  0  0
  186.4670  177.9480  147.2310 C   0  0  0  0  0  3  0  0  0  0  0  0
  189.4460  175.6630  144.9470 C   0  0  0  0  0  0  0  0  0  0  0  0
  191.9100  174.8080  145.9250 C   0  0  0  0  0  3  0  0  0  0  0  0
  187.4040  177.2030  146.5150 C   0  0  0  0  0  3  0  0  0  0  0  0
  188.7900  175.0870  142.1860 C   0  0  2  0  0  3  0  0  0  0  0  0
  191.1610  175.4090  148.0130 O   0  0  0  0  0  0  0  0  0  0  0  0
  185.8800  177.2310  143.1760 N   0  0  0  0  0  0  0  0  0  0  0  0
  185.3340  178.4460  146.5890 C   0  0  0  0  0  3  0  0  0  0  0  0
  190.1180  174.9950  142.7060 O   0  0  0  0  0  0  0  0  0  0  0  0
  187.8990  175.9660  143.0230 C   0  0  0  0  0  0  0  0  0  0  0  0
  189.7410  175.7410  146.2760 N   0  0  0  0  0  0  0  0  0  0  0  0
  183.6920  178.8550  144.4620 Cl  0  0  0  0  0  0  0  0  0  0  0  0
  190.4000  175.1220  144.0680 C   0  0  1  0  0  3  0  0  0  0  0  0
  191.6390  174.7110  144.5610 C   0  0  0  0  0  3  0  0  0  0  0  0
  186.7530  176.5040  142.4370 C   0  0  0  0  0  3  0  0  0  0  0  0
  186.0730  177.4570  144.5020 C   0  0  0  0  0  0  0  0  0  0  0  0
  185.1330  178.2060  145.2300 C   0  0  0  0  0  0  0  0  0  0  0  0
  188.1910  173.6930  141.9580 C   0  0  0  0  0  2  0  0  0  0  0  0
  190.4290  171.4170  140.1550 O   0  0  0  0  0  0  0  0  0  0  0  0
  191.3290  170.7820  142.7620 C   0  0  0  0  0  1  0  0  0  0  0  0
  190.2630  171.7200  142.4570 N   0  0  0  0  0  2  0  0  0  0  0  0
  189.8710  172.0150  141.1140 C   0  0  0  0  0  0  0  0  0  0  0  0
  188.8360  172.9810  140.8570 N   0  0  0  0  0  0  0  0  0  0  0  0
  188.1920  173.0390  139.5510 C   0  0  0  0  0  2  0  0  0  0  0  0
  189.4260  173.6000  137.4270 C   0  0  0  0  0  0  0  0  0  0  0  0
  190.0840  174.5410  136.6470 O   0  0  0  0  0  0  0  0  0  0  0  0
  189.3120  172.4160  137.0120 O   0  0  0  0  0  1  0  0  0  0  0  0
  188.8870  173.9830  138.6900 N   0  0  0  0  0  2  0  0  0  0  0  0
  1  9  2  0  0  0  0
  2  5  1  0  0  0  0
  2  3  1  0  0  0  0
  3  7  1  0  0  0  0
  5 14  2  0  0  0  0
  6  1  1  0  0  0  0
  7  4  2  0  0  0  0
  8 21  1  1  0  0  0
  8 12  1  0  0  0  0
  8 13  1  0  0  0  0
 10 19  1  0  0  0  0
 11  4  1  0  0  0  0
 12 16  1  0  0  0  0
 13  2  2  0  0  0  0
 14  1  1  0  0  0  0
 15 20  1  0  0  0  0
 16 17  1  6  0  0  0
 16  5  1  0  0  0  0
 17  6  2  0  0  0  0
 18 13  1  0  0  0  0
 18 10  2  0  0  0  0
 19  3  2  0  0  0  0
 19 20  1  0  0  0  0
 20 11  2  0  0  0  0
 22 25  2  0  0  0  0
 24 23  1  0  0  0  0
 25 24  1  0  0  0  0
 26 25  1  0  0  0  0
 26 21  1  0  0  0  0
 27 26  1  0  0  0  0
 28 31  1  0  0  0  0
 29 28  2  0  0  0  0
 30 28  1  0  0  0  0
 31 27  1  0  0  0  0
M  END
>  <MODEL>
9

>  <REMARK>
 VINA RESULT:      -7.5      3.268      6.567
  Name = 
  4 active torsions:
  status: ('A' for Active; 'I' for Inactive)
    1  A    between atoms: C_6  and  N_22
    2  A    between atoms: C_6  and  N_24
    3  A    between atoms: C_15  and  C_23
    4  A    between atoms: N_22  and  C_23
                            x       y       z     vdW  Elec       q    Type
                         _______ _______ _______ _____ _____    ______ ____

>  <TORSDO>
F 4

$$$$
