=
 OpenBabel11052419413D

 55 61  0  0  1  0  0  0  0  0999 V2000
  189.5320  175.5360  143.9470 C   0  0  0  0  0  0  0  0  0  0  0  0
  192.3780  173.0360  142.3340 C   0  0  0  0  0  2  0  0  0  0  0  0
  190.8430  172.7240  139.7650 O   0  0  0  0  0  1  0  0  0  0  0  0
  188.3190  174.1670  138.2650 C   0  0  0  0  0  3  0  0  0  0  0  0
  187.8720  174.3960  137.0320 C   0  0  0  0  0  3  0  0  0  0  0  0
  187.3890  176.3680  139.0200 C   0  0  2  0  0  3  0  0  0  0  0  0
  186.4420  176.2340  137.8280 C   0  0  0  0  0  2  0  0  0  0  0  0
  189.0290  173.5740  140.8580 O   0  0  0  0  0  0  0  0  0  0  0  0
  187.0630  175.5060  136.7720 O   0  0  0  0  0  0  0  0  0  0  0  0
  189.8910  175.5270  146.3800 C   0  0  0  0  0  3  0  0  0  0  0  0
  188.0100  175.0700  139.3400 N   0  0  0  0  0  0  0  0  0  0  0  0
  192.6330  175.1340  145.9720 C   0  0  0  0  0  0  0  0  0  0  0  0
  188.8160  175.5430  142.9780 C   0  0  0  0  0  0  0  0  0  0  0  0
  191.7750  175.2900  144.8810 C   0  0  0  0  0  3  0  0  0  0  0  0
  187.4510  176.9290  141.4560 C   0  0  2  0  0  3  0  0  0  0  0  0
  192.7840  172.5790  143.7230 C   0  0  0  0  0  2  0  0  0  0  0  0
  186.5880  176.8870  140.2030 C   0  0  0  0  0  2  0  0  0  0  0  0
  190.8880  172.8210  142.1470 C   0  0  0  0  0  2  0  0  0  0  0  0
  190.4250  173.4820  140.8600 C   0  0  1  0  0  3  0  0  0  0  0  0
  190.7480  175.3830  147.4760 C   0  0  0  0  0  3  0  0  0  0  0  0
  194.2010  173.0410  144.0210 C   0  0  1  0  0  3  0  0  0  0  0  0
  190.4070  175.4790  145.0810 C   0  0  0  0  0  0  0  0  0  0  0  0
  188.7460  174.9260  140.6050 C   0  0  1  0  0  3  0  0  0  0  0  0
  187.9570  175.5180  141.7830 C   0  0  1  0  0  3  0  0  0  0  0  0
  194.3430  173.3840  145.5030 C   0  0  0  0  0  2  0  0  0  0  0  0
  194.0840  174.8670  145.7510 C   0  0  0  0  0  2  0  0  0  0  0  0
  192.1170  175.1790  147.2720 C   0  0  0  0  0  3  0  0  0  0  0  0
  186.0050  176.6750  143.4140 C   0  0  0  0  0  3  0  0  0  0  0  0
  185.6820  178.5740  145.0010 C   0  0  2  0  0  3  0  0  0  0  0  0
  186.6110  178.8890  142.7870 O   0  0  0  0  0  0  0  0  0  0  0  0
  185.7830  179.4910  143.7840 C   0  0  0  0  0  2  0  0  0  0  0  0
  185.1640  177.2140  144.5340 C   0  0  0  0  0  2  0  0  0  0  0  0
  186.6430  177.5010  142.5790 C   0  0  0  0  0  0  0  0  0  0  0  0
  184.7270  179.1680  146.0210 C   0  0  0  0  0  3  0  0  0  0  0  0
  185.3620  179.1220  147.3970 C   0  0  0  0  0  2  0  0  0  0  0  0
  184.3190  178.0950  147.0120 C   0  0  0  0  0  2  0  0  0  0  0  0
  195.6840  171.2200  144.6510 O   0  0  0  0  0  1  0  0  0  0  0  0
  195.2020  171.9700  143.5730 C   0  0  2  0  0  3  0  0  0  0  0  0
  196.3420  172.5390  142.7260 C   0  0  0  0  0  2  0  0  0  0  0  0
  195.9460  173.7980  141.9520 C   0  0  1  0  0  3  0  0  0  0  0  0
  196.5250  174.9240  142.5440 O   0  0  0  0  0  1  0  0  0  0  0  0
  194.6050  171.3900  138.5250 N   0  0  0  0  0  0  0  0  0  0  0  0
  196.7290  175.3170  137.5390 O   0  0  0  0  0  1  0  0  0  0  0  0
  196.2880  173.6870  140.4470 C   0  0  1  0  0  0  0  0  0  0  0  0
  194.2140  174.8920  139.9100 O   0  0  0  0  0  1  0  0  0  0  0  0
  195.5620  174.7410  139.5630 C   0  0  2  0  0  3  0  0  0  0  0  0
  194.7850  172.0110  139.8160 C   0  0  0  0  0  2  0  0  0  0  0  0
  194.5180  174.4320  137.1730 C   0  0  1  0  0  3  0  0  0  0  0  0
  194.0390  171.9810  137.5280 C   0  0  0  0  0  3  0  0  0  0  0  0
  195.7710  174.4490  138.0640 C   0  0  1  0  0  3  0  0  0  0  0  0
  197.6380  173.9770  140.3410 F   0  0  0  0  0  0  0  0  0  0  0  0
  193.4900  173.3780  137.6040 C   0  0  0  0  0  2  0  0  0  0  0  0
  196.1380  172.3510  139.9840 O   0  0  0  0  0  0  0  0  0  0  0  0
  193.9120  175.7410  137.1250 N   0  0  0  0  0  0  0  0  0  0  0  0
  192.9200  175.9780  136.3480 C   0  0  0  0  0  2  0  0  0  0  0  0
  1 22  1  0  0  0  0
  2 16  1  0  0  0  0
  4 11  1  0  0  0  0
  5  4  2  0  0  0  0
  6  7  1  6  0  0  0
  6 11  1  0  0  0  0
  6 17  1  0  0  0  0
  8 19  1  0  0  0  0
  9  5  1  0  0  0  0
  9  7  1  0  0  0  0
 10 20  1  0  0  0  0
 11 23  1  0  0  0  0
 12 27  1  0  0  0  0
 13  1  3  0  0  0  0
 14 22  1  0  0  0  0
 14 12  2  0  0  0  0
 15 24  1  0  0  0  0
 15 33  1  1  0  0  0
 16 21  1  0  0  0  0
 17 15  1  0  0  0  0
 18  2  1  0  0  0  0
 19  3  1  6  0  0  0
 19 18  1  0  0  0  0
 21 38  1  1  0  0  0
 21 25  1  0  0  0  0
 22 10  2  0  0  0  0
 23  8  1  1  0  0  0
 23 24  1  0  0  0  0
 24 13  1  1  0  0  0
 25 26  1  0  0  0  0
 26 12  1  0  0  0  0
 27 20  2  0  0  0  0
 28 32  1  0  0  0  0
 29 34  1  1  0  0  0
 30 31  1  0  0  0  0
 31 29  1  0  0  0  0
 32 29  1  0  0  0  0
 33 30  1  0  0  0  0
 33 28  2  0  0  0  0
 34 36  1  0  0  0  0
 34 35  1  0  0  0  0
 36 35  1  0  0  0  0
 38 37  1  1  0  0  0
 39 38  1  0  0  0  0
 40 41  1  1  0  0  0
 40 39  1  0  0  0  0
 42 47  1  0  0  0  0
 44 51  1  6  0  0  0
 44 40  1  0  0  0  0
 46 45  1  6  0  0  0
 46 44  1  0  0  0  0
 47 53  1  0  0  0  0
 48 54  1  1  0  0  0
 48 52  1  0  0  0  0
 48 50  1  0  0  0  0
 49 52  1  0  0  0  0
 49 42  2  0  0  0  0
 50 43  1  6  0  0  0
 50 46  1  0  0  0  0
 53 44  1  0  0  0  0
 55 54  2  0  0  0  0
M  END
>  <MODEL>
1

>  <REMARK>
 VINA RESULT:      -8.7      0.000      0.000
  Name = 
  7 active torsions:
  status: ('A' for Active; 'I' for Inactive)
    1  A    between atoms: C_6  and  C_20
    2  A    between atoms: C_8  and  C_22
    3  A    between atoms: C_8  and  C_43
    4  A    between atoms: C_10  and  C_32
    5  A    between atoms: N_11  and  C_29
    6  A    between atoms: C_20  and  C_22
    7  A    between atoms: C_33  and  C_52
                            x       y       z     vdW  Elec       q    Type
                         _______ _______ _______ _____ _____    ______ ____

>  <TORSDO>
F 7

$$$$
=
 OpenBabel11052419413D

 55 61  0  0  1  0  0  0  0  0999 V2000
  189.5150  175.4890  143.9610 C   0  0  0  0  0  0  0  0  0  0  0  0
  192.3530  172.9590  142.3820 C   0  0  0  0  0  2  0  0  0  0  0  0
  190.8430  172.6570  139.7980 O   0  0  0  0  0  1  0  0  0  0  0  0
  188.3490  174.1220  138.2690 C   0  0  0  0  0  3  0  0  0  0  0  0
  187.9170  174.3530  137.0310 C   0  0  0  0  0  3  0  0  0  0  0  0
  187.4320  176.3330  139.0100 C   0  0  2  0  0  3  0  0  0  0  0  0
  186.4970  176.2070  137.8090 C   0  0  0  0  0  2  0  0  0  0  0  0
  189.0260  173.5260  140.8710 O   0  0  0  0  0  0  0  0  0  0  0  0
  187.1230  175.4700  136.7610 O   0  0  0  0  0  0  0  0  0  0  0  0
  189.8480  175.4800  146.3980 C   0  0  0  0  0  3  0  0  0  0  0  0
  188.0370  175.0300  139.3390 N   0  0  0  0  0  0  0  0  0  0  0  0
  192.5900  175.0590  146.0200 C   0  0  0  0  0  0  0  0  0  0  0  0
  188.8100  175.5010  142.9840 C   0  0  0  0  0  0  0  0  0  0  0  0
  191.7460  175.2230  144.9190 C   0  0  0  0  0  3  0  0  0  0  0  0
  187.4740  176.8970  141.4460 C   0  0  2  0  0  3  0  0  0  0  0  0
  192.7410  172.5000  143.7760 C   0  0  0  0  0  2  0  0  0  0  0  0
  186.6250  176.8620  140.1850 C   0  0  0  0  0  2  0  0  0  0  0  0
  190.8640  172.7580  142.1800 C   0  0  0  0  0  2  0  0  0  0  0  0
  190.4210  173.4210  140.8870 C   0  0  1  0  0  3  0  0  0  0  0  0
  190.6920  175.3300  147.5030 C   0  0  0  0  0  3  0  0  0  0  0  0
  194.1590  172.9490  144.0880 C   0  0  1  0  0  3  0  0  0  0  0  0
  190.3780  175.4250  145.1040 C   0  0  0  0  0  0  0  0  0  0  0  0
  188.7590  174.8810  140.6120 C   0  0  1  0  0  3  0  0  0  0  0  0
  187.9630  175.4830  141.7810 C   0  0  1  0  0  3  0  0  0  0  0  0
  194.2890  173.2920  145.5710 C   0  0  0  0  0  2  0  0  0  0  0  0
  194.0410  174.7780  145.8140 C   0  0  0  0  0  2  0  0  0  0  0  0
  192.0620  175.1120  147.3140 C   0  0  0  0  0  3  0  0  0  0  0  0
  186.0000  176.6610  143.3850 C   0  0  0  0  0  3  0  0  0  0  0  0
  185.6830  178.5630  144.9710 C   0  0  2  0  0  3  0  0  0  0  0  0
  186.6440  178.8680  142.7690 O   0  0  0  0  0  0  0  0  0  0  0  0
  185.8120  179.4790  143.7570 C   0  0  0  0  0  2  0  0  0  0  0  0
  185.1530  177.2100  144.4950 C   0  0  0  0  0  2  0  0  0  0  0  0
  186.6600  177.4790  142.5600 C   0  0  0  0  0  0  0  0  0  0  0  0
  184.7240  179.1670  145.9800 C   0  0  0  0  0  3  0  0  0  0  0  0
  185.3310  179.0900  147.3670 C   0  0  0  0  0  2  0  0  0  0  0  0
  184.2710  178.0940  146.9500 C   0  0  0  0  0  2  0  0  0  0  0  0
  195.7360  171.2190  144.7470 O   0  0  0  0  0  1  0  0  0  0  0  0
  195.1540  171.8670  143.6530 C   0  0  2  0  0  3  0  0  0  0  0  0
  196.2110  172.3910  142.6780 C   0  0  0  0  0  2  0  0  0  0  0  0
  195.9380  171.9980  141.2250 C   0  0  1  0  0  3  0  0  0  0  0  0
  194.9020  171.0620  141.1710 O   0  0  0  0  0  1  0  0  0  0  0  0
  197.9330  174.0670  137.8970 N   0  0  0  0  0  0  0  0  0  0  0  0
  193.4520  174.8390  138.3720 O   0  0  0  0  0  1  0  0  0  0  0  0
  195.6610  173.2320  140.3330 C   0  0  1  0  0  0  0  0  0  0  0  0
  195.0160  171.7300  138.4980 O   0  0  0  0  0  1  0  0  0  0  0  0
  194.7090  172.9360  139.1390 C   0  0  2  0  0  3  0  0  0  0  0  0
  197.5440  173.1590  138.9490 C   0  0  0  0  0  2  0  0  0  0  0  0
  194.8430  173.8390  136.6770 C   0  0  1  0  0  3  0  0  0  0  0  0
  197.3500  174.1110  136.7470 C   0  0  0  0  0  3  0  0  0  0  0  0
  194.6400  174.1340  138.1720 C   0  0  1  0  0  3  0  0  0  0  0  0
  194.9840  174.1360  141.1340 F   0  0  0  0  0  0  0  0  0  0  0  0
  196.2080  173.2100  136.3700 C   0  0  0  0  0  2  0  0  0  0  0  0
  196.8710  173.8740  139.9550 O   0  0  0  0  0  0  0  0  0  0  0  0
  193.7760  173.0080  136.1740 N   0  0  0  0  0  0  0  0  0  0  0  0
  193.0610  173.3860  135.1790 C   0  0  0  0  0  2  0  0  0  0  0  0
  1 22  1  0  0  0  0
  2 16  1  0  0  0  0
  4 11  1  0  0  0  0
  5  4  2  0  0  0  0
  6  7  1  6  0  0  0
  6 11  1  0  0  0  0
  6 17  1  0  0  0  0
  8 19  1  0  0  0  0
  9  5  1  0  0  0  0
  9  7  1  0  0  0  0
 10 20  1  0  0  0  0
 11 23  1  0  0  0  0
 12 27  1  0  0  0  0
 13  1  3  0  0  0  0
 14 22  1  0  0  0  0
 14 12  2  0  0  0  0
 15 24  1  0  0  0  0
 15 33  1  1  0  0  0
 16 21  1  0  0  0  0
 17 15  1  0  0  0  0
 18  2  1  0  0  0  0
 19  3  1  6  0  0  0
 19 18  1  0  0  0  0
 21 38  1  1  0  0  0
 21 25  1  0  0  0  0
 22 10  2  0  0  0  0
 23  8  1  1  0  0  0
 23 24  1  0  0  0  0
 24 13  1  1  0  0  0
 25 26  1  0  0  0  0
 26 12  1  0  0  0  0
 27 20  2  0  0  0  0
 28 32  1  0  0  0  0
 29 34  1  1  0  0  0
 30 31  1  0  0  0  0
 31 29  1  0  0  0  0
 32 29  1  0  0  0  0
 33 30  1  0  0  0  0
 33 28  2  0  0  0  0
 34 36  1  0  0  0  0
 34 35  1  0  0  0  0
 36 35  1  0  0  0  0
 38 37  1  1  0  0  0
 39 38  1  0  0  0  0
 40 41  1  1  0  0  0
 40 39  1  0  0  0  0
 42 47  1  0  0  0  0
 44 51  1  1  0  0  0
 44 40  1  0  0  0  0
 46 45  1  6  0  0  0
 46 44  1  0  0  0  0
 47 53  1  0  0  0  0
 48 54  1  1  0  0  0
 48 50  1  0  0  0  0
 49 42  2  0  0  0  0
 50 43  1  6  0  0  0
 50 46  1  0  0  0  0
 52 48  1  0  0  0  0
 52 49  1  0  0  0  0
 53 44  1  0  0  0  0
 55 54  2  0  0  0  0
M  END
>  <MODEL>
2

>  <REMARK>
 VINA RESULT:      -8.2      1.166      1.567
  Name = 
  7 active torsions:
  status: ('A' for Active; 'I' for Inactive)
    1  A    between atoms: C_6  and  C_20
    2  A    between atoms: C_8  and  C_22
    3  A    between atoms: C_8  and  C_43
    4  A    between atoms: C_10  and  C_32
    5  A    between atoms: N_11  and  C_29
    6  A    between atoms: C_20  and  C_22
    7  A    between atoms: C_33  and  C_52
                            x       y       z     vdW  Elec       q    Type
                         _______ _______ _______ _____ _____    ______ ____

>  <TORSDO>
F 7

$$$$
=
 OpenBabel11052419413D

 55 61  0  0  1  0  0  0  0  0999 V2000
  189.0990  174.9520  141.3630 C   0  0  0  0  0  0  0  0  0  0  0  0
  192.6470  172.8660  141.2420 C   0  0  0  0  0  2  0  0  0  0  0  0
  193.7090  174.2660  143.6840 O   0  0  0  0  0  1  0  0  0  0  0  0
  192.5470  176.1630  146.0830 C   0  0  0  0  0  3  0  0  0  0  0  0
  192.7980  176.4480  147.3590 C   0  0  0  0  0  3  0  0  0  0  0  0
  190.0920  176.4540  146.4930 C   0  0  2  0  0  3  0  0  0  0  0  0
  190.5200  177.3240  147.6740 C   0  0  0  0  0  2  0  0  0  0  0  0
  192.0600  175.8160  143.3950 O   0  0  0  0  0  0  0  0  0  0  0  0
  191.7690  176.8800  148.1990 O   0  0  0  0  0  0  0  0  0  0  0  0
  188.0980  174.7590  139.1250 C   0  0  0  0  0  3  0  0  0  0  0  0
  191.2120  176.2600  145.5560 N   0  0  0  0  0  0  0  0  0  0  0  0
  189.2640  172.2320  138.8220 C   0  0  0  0  0  0  0  0  0  0  0  0
  189.3600  175.5730  142.3620 C   0  0  0  0  0  0  0  0  0  0  0  0
  189.4180  172.9380  140.0170 C   0  0  0  0  0  3  0  0  0  0  0  0
  188.5290  176.3800  144.5430 C   0  0  2  0  0  3  0  0  0  0  0  0
  192.5120  172.6960  139.7400 C   0  0  0  0  0  2  0  0  0  0  0  0
  188.9250  177.1390  145.8010 C   0  0  0  0  0  2  0  0  0  0  0  0
  192.5660  174.3390  141.5930 C   0  0  0  0  0  2  0  0  0  0  0  0
  192.4660  174.5100  143.0990 C   0  0  1  0  0  3  0  0  0  0  0  0
  187.9310  174.0500  137.9310 C   0  0  0  0  0  3  0  0  0  0  0  0
  192.3130  171.2270  139.4060 C   0  0  1  0  0  3  0  0  0  0  0  0
  188.8440  174.2020  140.1690 C   0  0  0  0  0  0  0  0  0  0  0  0
  190.9420  175.6760  144.2330 C   0  0  1  0  0  3  0  0  0  0  0  0
  189.7160  176.3280  143.5730 C   0  0  1  0  0  3  0  0  0  0  0  0
  191.3850  171.0820  138.2010 C   0  0  0  0  0  2  0  0  0  0  0  0
  189.9350  170.9110  138.6420 C   0  0  0  0  0  2  0  0  0  0  0  0
  188.5200  172.7900  137.7770 C   0  0  0  0  0  3  0  0  0  0  0  0
  187.5190  177.8700  142.8850 C   0  0  0  0  0  3  0  0  0  0  0  0
  185.0660  177.7780  142.4310 C   0  0  2  0  0  3  0  0  0  0  0  0
  186.0500  176.7740  144.4030 O   0  0  0  0  0  0  0  0  0  0  0  0
  184.8940  177.4580  143.9140 C   0  0  0  0  0  2  0  0  0  0  0  0
  186.3550  178.5820  142.2610 C   0  0  0  0  0  2  0  0  0  0  0  0
  187.3410  177.0520  143.9270 C   0  0  0  0  0  0  0  0  0  0  0  0
  183.8830  178.5870  141.9330 C   0  0  0  0  0  3  0  0  0  0  0  0
  182.9530  177.6910  141.1390 C   0  0  0  0  0  2  0  0  0  0  0  0
  183.9000  178.6240  140.4170 C   0  0  0  0  0  2  0  0  0  0  0  0
  193.8080  170.0810  137.8690 O   0  0  0  0  0  1  0  0  0  0  0  0
  193.6730  170.5570  139.1770 C   0  0  2  0  0  3  0  0  0  0  0  0
  193.9800  169.4700  140.2100 C   0  0  0  0  0  2  0  0  0  0  0  0
  195.1570  169.8220  141.1220 C   0  0  1  0  0  3  0  0  0  0  0  0
  195.7010  171.0540  140.7450 O   0  0  0  0  0  1  0  0  0  0  0  0
  196.9300  168.3750  144.8770 N   0  0  0  0  0  0  0  0  0  0  0  0
  193.6460  171.5310  145.2670 O   0  0  0  0  0  1  0  0  0  0  0  0
  194.7630  169.7880  142.6180 C   0  0  1  0  0  0  0  0  0  0  0  0
  196.3270  171.6350  143.0480 O   0  0  0  0  0  1  0  0  0  0  0  0
  195.0690  171.1130  143.3730 C   0  0  2  0  0  3  0  0  0  0  0  0
  196.6590  168.7520  143.5100 C   0  0  0  0  0  2  0  0  0  0  0  0
  195.9910  171.4300  145.8120 C   0  0  1  0  0  3  0  0  0  0  0  0
  197.2190  169.2270  145.8020 C   0  0  0  0  0  3  0  0  0  0  0  0
  194.8570  170.9500  144.8910 C   0  0  1  0  0  3  0  0  0  0  0  0
  193.3850  169.6540  142.6450 F   0  0  0  0  0  0  0  0  0  0  0  0
  197.3180  170.7060  145.5560 C   0  0  0  0  0  2  0  0  0  0  0  0
  195.2810  168.6310  143.2590 O   0  0  0  0  0  0  0  0  0  0  0  0
  196.1630  172.8590  145.7020 N   0  0  0  0  0  0  0  0  0  0  0  0
  197.0890  173.4610  146.3520 C   0  0  0  0  0  2  0  0  0  0  0  0
  1 13  3  0  0  0  0
  2 18  1  0  0  0  0
  4  5  2  0  0  0  0
  5  9  1  0  0  0  0
  6 17  1  6  0  0  0
  6  7  1  0  0  0  0
  7  9  1  0  0  0  0
 10 22  1  0  0  0  0
 11  4  1  0  0  0  0
 11  6  1  0  0  0  0
 12 14  1  0  0  0  0
 14 22  2  0  0  0  0
 15 33  1  6  0  0  0
 15 17  1  0  0  0  0
 16  2  1  0  0  0  0
 18 19  1  0  0  0  0
 19  8  1  0  0  0  0
 19  3  1  1  0  0  0
 20 10  2  0  0  0  0
 21 38  1  6  0  0  0
 21 16  1  0  0  0  0
 22  1  1  0  0  0  0
 23  8  1  6  0  0  0
 23 11  1  0  0  0  0
 24 13  1  6  0  0  0
 24 23  1  0  0  0  0
 24 15  1  0  0  0  0
 25 26  1  0  0  0  0
 25 21  1  0  0  0  0
 26 12  1  0  0  0  0
 27 20  1  0  0  0  0
 27 12  2  0  0  0  0
 28 33  2  0  0  0  0
 29 34  1  1  0  0  0
 29 31  1  0  0  0  0
 31 30  1  0  0  0  0
 32 29  1  0  0  0  0
 32 28  1  0  0  0  0
 33 30  1  0  0  0  0
 35 34  1  0  0  0  0
 36 35  1  0  0  0  0
 36 34  1  0  0  0  0
 38 37  1  6  0  0  0
 38 39  1  0  0  0  0
 39 40  1  0  0  0  0
 40 41  1  6  0  0  0
 40 44  1  0  0  0  0
 42 49  2  0  0  0  0
 44 51  1  1  0  0  0
 44 53  1  0  0  0  0
 44 46  1  0  0  0  0
 46 45  1  1  0  0  0
 46 50  1  0  0  0  0
 47 42  1  0  0  0  0
 48 54  1  6  0  0  0
 50 43  1  1  0  0  0
 50 48  1  0  0  0  0
 52 49  1  0  0  0  0
 52 48  1  0  0  0  0
 53 47  1  0  0  0  0
 54 55  2  0  0  0  0
M  END
>  <MODEL>
3

>  <REMARK>
 VINA RESULT:      -7.2      3.324      6.677
  Name = 
  7 active torsions:
  status: ('A' for Active; 'I' for Inactive)
    1  A    between atoms: C_6  and  C_20
    2  A    between atoms: C_8  and  C_22
    3  A    between atoms: C_8  and  C_43
    4  A    between atoms: C_10  and  C_32
    5  A    between atoms: N_11  and  C_29
    6  A    between atoms: C_20  and  C_22
    7  A    between atoms: C_33  and  C_52
                            x       y       z     vdW  Elec       q    Type
                         _______ _______ _______ _____ _____    ______ ____

>  <TORSDO>
F 7

$$$$
=
 OpenBabel11052419413D

 55 61  0  0  1  0  0  0  0  0999 V2000
  186.4450  177.3090  143.9650 C   0  0  0  0  0  0  0  0  0  0  0  0
  190.0900  175.4720  144.5060 C   0  0  0  0  0  2  0  0  0  0  0  0
  190.0590  174.2930  141.7390 O   0  0  0  0  0  1  0  0  0  0  0  0
  188.3670  174.6760  138.9650 C   0  0  0  0  0  3  0  0  0  0  0  0
  188.5380  174.5480  137.6510 C   0  0  0  0  0  3  0  0  0  0  0  0
  186.8340  176.6210  138.5860 C   0  0  2  0  0  3  0  0  0  0  0  0
  186.6160  176.0180  137.1990 C   0  0  0  0  0  2  0  0  0  0  0  0
  187.8290  174.7730  141.6630 O   0  0  0  0  0  0  0  0  0  0  0  0
  187.7810  175.3210  136.7660 O   0  0  0  0  0  0  0  0  0  0  0  0
  185.5850  177.8290  146.2090 C   0  0  0  0  0  3  0  0  0  0  0  0
  187.4320  175.6300  139.4970 N   0  0  0  0  0  0  0  0  0  0  0  0
  188.2060  178.1620  147.1360 C   0  0  0  0  0  0  0  0  0  0  0  0
  186.2950  176.9430  142.8270 C   0  0  0  0  0  0  0  0  0  0  0  0
  187.9670  177.8750  145.7900 C   0  0  0  0  0  3  0  0  0  0  0  0
  185.6200  177.5960  140.5430 C   0  0  2  0  0  3  0  0  0  0  0  0
  189.8480  175.4000  146.0030 C   0  0  0  0  0  2  0  0  0  0  0  0
  185.4890  177.0930  139.1130 C   0  0  0  0  0  2  0  0  0  0  0  0
  188.9350  174.8160  143.7760 C   0  0  0  0  0  2  0  0  0  0  0  0
  189.0450  175.0820  142.2840 C   0  0  1  0  0  3  0  0  0  0  0  0
  185.8180  178.1290  147.5550 C   0  0  0  0  0  3  0  0  0  0  0  0
  190.8460  176.2880  146.7270 C   0  0  1  0  0  3  0  0  0  0  0  0
  186.6620  177.7020  145.3260 C   0  0  0  0  0  0  0  0  0  0  0  0
  187.4810  175.9240  140.9370 C   0  0  1  0  0  3  0  0  0  0  0  0
  186.1350  176.4670  141.4440 C   0  0  1  0  0  3  0  0  0  0  0  0
  190.1970  176.9120  147.9620 C   0  0  0  0  0  2  0  0  0  0  0  0
  189.6060  178.2810  147.6380 C   0  0  0  0  0  2  0  0  0  0  0  0
  187.1290  178.2880  148.0210 C   0  0  0  0  0  3  0  0  0  0  0  0
  183.2720  178.1490  140.1340 C   0  0  0  0  0  3  0  0  0  0  0  0
  181.6960  178.4590  142.0450 C   0  0  2  0  0  3  0  0  0  0  0  0
  184.0990  178.4730  142.3420 O   0  0  0  0  0  0  0  0  0  0  0  0
  182.8780  179.0510  142.8080 C   0  0  0  0  0  2  0  0  0  0  0  0
  181.9310  178.6790  140.5510 C   0  0  0  0  0  2  0  0  0  0  0  0
  184.2890  178.1050  141.0000 C   0  0  0  0  0  0  0  0  0  0  0  0
  180.4080  179.1400  142.4710 C   0  0  0  0  0  3  0  0  0  0  0  0
  179.2800  178.1270  142.4890 C   0  0  0  0  0  2  0  0  0  0  0  0
  179.4110  179.0900  141.3300 C   0  0  0  0  0  2  0  0  0  0  0  0
  191.9530  174.7700  148.2690 O   0  0  0  0  0  1  0  0  0  0  0  0
  192.1030  175.4820  147.0750 C   0  0  2  0  0  3  0  0  0  0  0  0
  193.3720  176.3360  147.0810 C   0  0  0  0  0  2  0  0  0  0  0  0
  193.9920  176.5020  145.6920 C   0  0  1  0  0  3  0  0  0  0  0  0
  194.6870  177.7130  145.6220 O   0  0  0  0  0  1  0  0  0  0  0  0
  193.7390  173.0940  142.9240 N   0  0  0  0  0  0  0  0  0  0  0  0
  197.9270  174.2370  144.3580 O   0  0  0  0  0  1  0  0  0  0  0  0
  194.8780  175.2940  145.3030 C   0  0  1  0  0  0  0  0  0  0  0  0
  195.4850  176.4410  143.2160 O   0  0  0  0  0  1  0  0  0  0  0  0
  195.9730  175.6360  144.2530 C   0  0  2  0  0  3  0  0  0  0  0  0
  193.5190  174.3060  143.6770 C   0  0  0  0  0  2  0  0  0  0  0  0
  196.8060  174.1890  142.2260 C   0  0  1  0  0  3  0  0  0  0  0  0
  194.5950  173.0040  141.9630 C   0  0  0  0  0  3  0  0  0  0  0  0
  196.6780  174.3620  143.7480 C   0  0  1  0  0  3  0  0  0  0  0  0
  195.5630  174.9390  146.4530 F   0  0  0  0  0  0  0  0  0  0  0  0
  195.4490  174.1550  141.5110 C   0  0  0  0  0  2  0  0  0  0  0  0
  194.0850  174.1670  144.9570 O   0  0  0  0  0  0  0  0  0  0  0  0
  197.6470  175.2190  141.6670 N   0  0  0  0  0  0  0  0  0  0  0  0
  197.4570  175.6480  140.4740 C   0  0  0  0  0  2  0  0  0  0  0  0
  1 22  1  0  0  0  0
  2 16  1  0  0  0  0
  4 11  1  0  0  0  0
  5  4  2  0  0  0  0
  6  7  1  6  0  0  0
  6 17  1  0  0  0  0
  6 11  1  0  0  0  0
  8 19  1  0  0  0  0
  9  7  1  0  0  0  0
  9  5  1  0  0  0  0
 10 20  1  0  0  0  0
 11 23  1  0  0  0  0
 12 26  1  0  0  0  0
 12 27  1  0  0  0  0
 13  1  3  0  0  0  0
 14 12  2  0  0  0  0
 15 33  1  1  0  0  0
 15 24  1  0  0  0  0
 16 21  1  0  0  0  0
 17 15  1  0  0  0  0
 18  2  1  0  0  0  0
 19  3  1  6  0  0  0
 19 18  1  0  0  0  0
 20 27  2  0  0  0  0
 21 38  1  1  0  0  0
 21 25  1  0  0  0  0
 22 14  1  0  0  0  0
 22 10  2  0  0  0  0
 23 24  1  0  0  0  0
 23  8  1  1  0  0  0
 24 13  1  1  0  0  0
 26 25  1  0  0  0  0
 28 32  1  0  0  0  0
 28 33  2  0  0  0  0
 29 34  1  1  0  0  0
 29 31  1  0  0  0  0
 30 31  1  0  0  0  0
 32 29  1  0  0  0  0
 33 30  1  0  0  0  0
 34 35  1  0  0  0  0
 36 34  1  0  0  0  0
 36 35  1  0  0  0  0
 38 39  1  0  0  0  0
 38 37  1  1  0  0  0
 40 41  1  1  0  0  0
 40 39  1  0  0  0  0
 42 47  1  0  0  0  0
 44 40  1  0  0  0  0
 44 51  1  1  0  0  0
 46 45  1  6  0  0  0
 46 44  1  0  0  0  0
 47 53  1  0  0  0  0
 48 54  1  6  0  0  0
 48 50  1  0  0  0  0
 49 42  2  0  0  0  0
 50 46  1  0  0  0  0
 50 43  1  1  0  0  0
 52 49  1  0  0  0  0
 52 48  1  0  0  0  0
 53 44  1  0  0  0  0
 55 54  2  0  0  0  0
M  END
>  <MODEL>
4

>  <REMARK>
 VINA RESULT:      -7.0      2.909      4.649
  Name = 
  7 active torsions:
  status: ('A' for Active; 'I' for Inactive)
    1  A    between atoms: C_6  and  C_20
    2  A    between atoms: C_8  and  C_22
    3  A    between atoms: C_8  and  C_43
    4  A    between atoms: C_10  and  C_32
    5  A    between atoms: N_11  and  C_29
    6  A    between atoms: C_20  and  C_22
    7  A    between atoms: C_33  and  C_52
                            x       y       z     vdW  Elec       q    Type
                         _______ _______ _______ _____ _____    ______ ____

>  <TORSDO>
F 7

$$$$
=
 OpenBabel11052419413D

 55 61  0  0  1  0  0  0  0  0999 V2000
  193.8920  174.1920  140.9910 C   0  0  0  0  0  0  0  0  0  0  0  0
  190.7760  173.5600  143.6070 C   0  0  0  0  0  2  0  0  0  0  0  0
  189.2230  171.9630  141.5850 O   0  0  0  0  0  1  0  0  0  0  0  0
  189.7730  170.5330  138.6940 C   0  0  0  0  0  3  0  0  0  0  0  0
  189.3330  169.5010  137.9760 C   0  0  0  0  0  3  0  0  0  0  0  0
  192.0820  170.1930  137.7820 C   0  0  2  0  0  3  0  0  0  0  0  0
  191.3830  169.4980  136.6140 C   0  0  0  0  0  2  0  0  0  0  0  0
  190.6150  172.8120  139.9880 O   0  0  0  0  0  0  0  0  0  0  0  0
  190.1740  168.8810  137.0480 O   0  0  0  0  0  0  0  0  0  0  0  0
  195.1600  176.1090  141.8640 C   0  0  0  0  0  3  0  0  0  0  0  0
  191.1250  171.0040  138.5550 N   0  0  0  0  0  0  0  0  0  0  0  0
  194.4710  175.3740  144.4760 C   0  0  0  0  0  0  0  0  0  0  0  0
  193.4180  173.5530  140.0860 C   0  0  0  0  0  0  0  0  0  0  0  0
  194.0660  174.5880  143.3950 C   0  0  0  0  0  3  0  0  0  0  0  0
  193.8490  171.8780  138.3230 C   0  0  2  0  0  3  0  0  0  0  0  0
  191.1080  174.8490  144.3360 C   0  0  0  0  0  2  0  0  0  0  0  0
  193.1920  171.0660  137.2170 C   0  0  0  0  0  2  0  0  0  0  0  0
  190.5700  173.8520  142.1330 C   0  0  0  0  0  2  0  0  0  0  0  0
  190.4680  172.5520  141.3550 C   0  0  1  0  0  3  0  0  0  0  0  0
  195.5780  176.8920  142.9450 C   0  0  0  0  0  3  0  0  0  0  0  0
  191.5840  174.5340  145.7440 C   0  0  1  0  0  3  0  0  0  0  0  0
  194.4020  174.9560  142.0910 C   0  0  0  0  0  0  0  0  0  0  0  0
  191.6380  171.9520  139.5550 C   0  0  1  0  0  3  0  0  0  0  0  0
  192.8060  172.7800  138.9940 C   0  0  1  0  0  3  0  0  0  0  0  0
  192.6550  175.5340  146.1750 C   0  0  0  0  0  2  0  0  0  0  0  0
  194.0530  175.0110  145.8620 C   0  0  0  0  0  2  0  0  0  0  0  0
  195.2270  176.5290  144.2500 C   0  0  0  0  0  3  0  0  0  0  0  0
  195.2200  172.5890  136.4240 C   0  0  0  0  0  3  0  0  0  0  0  0
  196.6420  174.6330  136.5870 C   0  0  2  0  0  3  0  0  0  0  0  0
  195.7130  173.5510  138.5440 O   0  0  0  0  0  0  0  0  0  0  0  0
  196.8520  174.2620  138.0530 C   0  0  0  0  0  2  0  0  0  0  0  0
  196.3540  173.3520  135.8050 C   0  0  0  0  0  2  0  0  0  0  0  0
  194.9710  172.6750  137.7340 C   0  0  0  0  0  0  0  0  0  0  0  0
  197.8880  175.3030  136.0370 C   0  0  0  0  0  3  0  0  0  0  0  0
  197.4880  176.4490  135.1280 C   0  0  0  0  0  2  0  0  0  0  0  0
  197.9300  175.1310  134.5310 C   0  0  0  0  0  2  0  0  0  0  0  0
  189.4400  173.5530  146.3360 O   0  0  0  0  0  1  0  0  0  0  0  0
  190.3890  174.5110  146.7050 C   0  0  2  0  0  3  0  0  0  0  0  0
  189.7570  175.8900  146.8990 C   0  0  0  0  0  2  0  0  0  0  0  0
  188.3270  175.9780  146.3610 C   0  0  1  0  0  3  0  0  0  0  0  0
  187.4150  175.7260  147.3900 O   0  0  0  0  0  1  0  0  0  0  0  0
  189.1050  177.7450  142.4100 N   0  0  0  0  0  0  0  0  0  0  0  0
  185.7860  179.6860  144.8830 O   0  0  0  0  0  1  0  0  0  0  0  0
  188.0550  177.3270  145.6530 C   0  0  1  0  0  0  0  0  0  0  0  0
  186.2340  176.2680  144.3870 O   0  0  0  0  0  1  0  0  0  0  0  0
  186.6250  177.4370  145.0510 C   0  0  2  0  0  3  0  0  0  0  0  0
  188.9860  176.8760  143.5570 C   0  0  0  0  0  2  0  0  0  0  0  0
  185.8870  178.5220  142.7760 C   0  0  1  0  0  3  0  0  0  0  0  0
  188.1050  178.0720  141.6620 C   0  0  0  0  0  3  0  0  0  0  0  0
  186.4840  178.7020  144.1820 C   0  0  1  0  0  3  0  0  0  0  0  0
  188.1180  178.2950  146.6420 F   0  0  0  0  0  0  0  0  0  0  0  0
  186.7070  177.5720  141.8950 C   0  0  0  0  0  2  0  0  0  0  0  0
  189.0900  177.6410  144.7320 O   0  0  0  0  0  0  0  0  0  0  0  0
  184.5160  178.0800  142.8590 N   0  0  0  0  0  0  0  0  0  0  0  0
  183.7090  178.2530  141.8780 C   0  0  0  0  0  2  0  0  0  0  0  0
  1 22  1  0  0  0  0
  2 16  1  0  0  0  0
  5  4  2  0  0  0  0
  6  7  1  6  0  0  0
  6 11  1  0  0  0  0
  7  9  1  0  0  0  0
  8 19  1  0  0  0  0
  9  5  1  0  0  0  0
 10 22  2  0  0  0  0
 10 20  1  0  0  0  0
 11  4  1  0  0  0  0
 11 23  1  0  0  0  0
 12 26  1  0  0  0  0
 13  1  3  0  0  0  0
 14 12  2  0  0  0  0
 15 33  1  6  0  0  0
 15 24  1  0  0  0  0
 16 21  1  0  0  0  0
 17  6  1  0  0  0  0
 17 15  1  0  0  0  0
 18  2  1  0  0  0  0
 19  3  1  6  0  0  0
 19 18  1  0  0  0  0
 20 27  2  0  0  0  0
 21 25  1  0  0  0  0
 21 38  1  1  0  0  0
 22 14  1  0  0  0  0
 23  8  1  6  0  0  0
 24 23  1  0  0  0  0
 24 13  1  1  0  0  0
 26 25  1  0  0  0  0
 27 12  1  0  0  0  0
 28 33  2  0  0  0  0
 29 34  1  6  0  0  0
 29 31  1  0  0  0  0
 31 30  1  0  0  0  0
 32 28  1  0  0  0  0
 32 29  1  0  0  0  0
 33 30  1  0  0  0  0
 35 34  1  0  0  0  0
 36 35  1  0  0  0  0
 36 34  1  0  0  0  0
 38 37  1  6  0  0  0
 38 39  1  0  0  0  0
 40 39  1  0  0  0  0
 40 41  1  1  0  0  0
 42 47  1  0  0  0  0
 44 40  1  0  0  0  0
 44 51  1  1  0  0  0
 46 45  1  6  0  0  0
 46 44  1  0  0  0  0
 47 53  1  0  0  0  0
 48 54  1  1  0  0  0
 48 50  1  0  0  0  0
 49 52  1  0  0  0  0
 49 42  2  0  0  0  0
 50 43  1  1  0  0  0
 50 46  1  0  0  0  0
 52 48  1  0  0  0  0
 53 44  1  0  0  0  0
 55 54  2  0  0  0  0
M  END
>  <MODEL>
5

>  <REMARK>
 VINA RESULT:      -6.8      3.121      9.168
  Name = 
  7 active torsions:
  status: ('A' for Active; 'I' for Inactive)
    1  A    between atoms: C_6  and  C_20
    2  A    between atoms: C_8  and  C_22
    3  A    between atoms: C_8  and  C_43
    4  A    between atoms: C_10  and  C_32
    5  A    between atoms: N_11  and  C_29
    6  A    between atoms: C_20  and  C_22
    7  A    between atoms: C_33  and  C_52
                            x       y       z     vdW  Elec       q    Type
                         _______ _______ _______ _____ _____    ______ ____

>  <TORSDO>
F 7

$$$$
=
 OpenBabel11052419413D

 55 61  0  0  1  0  0  0  0  0999 V2000
  194.1500  174.8460  141.4100 C   0  0  0  0  0  0  0  0  0  0  0  0
  191.1810  175.3020  144.2260 C   0  0  0  0  0  2  0  0  0  0  0  0
  189.0660  174.2490  142.3630 O   0  0  0  0  0  1  0  0  0  0  0  0
  188.9320  172.6620  139.5050 C   0  0  0  0  0  3  0  0  0  0  0  0
  188.1380  171.8130  138.8560 C   0  0  0  0  0  3  0  0  0  0  0  0
  190.9440  171.5800  138.4750 C   0  0  2  0  0  3  0  0  0  0  0  0
  189.9820  171.1240  137.3800 C   0  0  0  0  0  2  0  0  0  0  0  0
  190.5450  174.5740  140.6560 O   0  0  0  0  0  0  0  0  0  0  0  0
  188.6720  170.9370  137.9070 O   0  0  0  0  0  0  0  0  0  0  0  0
  196.0210  176.2710  142.1300 C   0  0  0  0  0  3  0  0  0  0  0  0
  190.3510  172.6700  139.2690 N   0  0  0  0  0  0  0  0  0  0  0  0
  195.3120  175.8470  144.8050 C   0  0  0  0  0  0  0  0  0  0  0  0
  193.4370  174.3760  140.5600 C   0  0  0  0  0  0  0  0  0  0  0  0
  194.6050  175.2120  143.7820 C   0  0  0  0  0  3  0  0  0  0  0  0
  193.1890  172.6170  138.8450 C   0  0  2  0  0  3  0  0  0  0  0  0
  191.9570  176.4290  144.8820 C   0  0  0  0  0  2  0  0  0  0  0  0
  192.2330  172.0380  137.8130 C   0  0  0  0  0  2  0  0  0  0  0  0
  190.9800  175.6150  142.7560 C   0  0  0  0  0  2  0  0  0  0  0  0
  190.4150  174.4020  142.0380 C   0  0  1  0  0  3  0  0  0  0  0  0
  196.7400  176.8990  143.1520 C   0  0  0  0  0  3  0  0  0  0  0  0
  192.4020  176.0050  146.2710 C   0  0  1  0  0  3  0  0  0  0  0  0
  194.9520  175.4270  142.4470 C   0  0  0  0  0  0  0  0  0  0  0  0
  191.2070  173.4230  140.1990 C   0  0  1  0  0  3  0  0  0  0  0  0
  192.5370  173.8190  139.5390 C   0  0  1  0  0  3  0  0  0  0  0  0
  193.7630  176.6170  146.5990 C   0  0  0  0  0  2  0  0  0  0  0  0
  194.8960  175.6650  146.2270 C   0  0  0  0  0  2  0  0  0  0  0  0
  196.3810  176.6930  144.4890 C   0  0  0  0  0  3  0  0  0  0  0  0
  194.5960  172.7790  136.8480 C   0  0  0  0  0  3  0  0  0  0  0  0
  196.5840  174.2880  136.8220 C   0  0  2  0  0  3  0  0  0  0  0  0
  195.4860  173.6390  138.8810 O   0  0  0  0  0  0  0  0  0  0  0  0
  196.7560  173.9390  138.2980 C   0  0  0  0  0  2  0  0  0  0  0  0
  195.8710  173.1240  136.1350 C   0  0  0  0  0  2  0  0  0  0  0  0
  194.4650  172.9990  138.1600 C   0  0  0  0  0  0  0  0  0  0  0  0
  197.9400  174.5130  136.1790 C   0  0  0  0  0  3  0  0  0  0  0  0
  197.8220  175.5770  135.1050 C   0  0  0  0  0  2  0  0  0  0  0  0
  197.8770  174.1150  134.7180 C   0  0  0  0  0  2  0  0  0  0  0  0
  191.6710  175.9680  148.5900 O   0  0  0  0  0  1  0  0  0  0  0  0
  191.3300  176.3870  147.3000 C   0  0  2  0  0  3  0  0  0  0  0  0
  189.9310  175.9130  146.9030 C   0  0  0  0  0  2  0  0  0  0  0  0
  188.9760  177.0630  146.5780 C   0  0  1  0  0  3  0  0  0  0  0  0
  189.6260  178.0130  145.7840 O   0  0  0  0  0  1  0  0  0  0  0  0
  184.7160  178.1450  146.7180 N   0  0  0  0  0  0  0  0  0  0  0  0
  186.0720  175.7080  143.0960 O   0  0  0  0  0  1  0  0  0  0  0  0
  187.6610  176.5620  145.9330 C   0  0  1  0  0  0  0  0  0  0  0  0
  187.6980  178.4920  144.4120 O   0  0  0  0  0  1  0  0  0  0  0  0
  187.4130  177.1240  144.5050 C   0  0  2  0  0  3  0  0  0  0  0  0
  186.1490  178.0760  146.8750 C   0  0  0  0  0  2  0  0  0  0  0  0
  185.1520  177.9110  143.4250 C   0  0  1  0  0  3  0  0  0  0  0  0
  184.1400  178.5620  145.6420 C   0  0  0  0  0  3  0  0  0  0  0  0
  186.0010  176.7660  144.0030 C   0  0  1  0  0  3  0  0  0  0  0  0
  187.8130  175.1950  145.7740 F   0  0  0  0  0  0  0  0  0  0  0  0
  184.8980  179.0370  144.4350 C   0  0  0  0  0  2  0  0  0  0  0  0
  186.5600  176.7330  146.8150 O   0  0  0  0  0  0  0  0  0  0  0  0
  185.7550  178.4330  142.2230 N   0  0  0  0  0  0  0  0  0  0  0  0
  185.1000  178.4710  141.1220 C   0  0  0  0  0  2  0  0  0  0  0  0
  1 22  1  0  0  0  0
  2 16  1  0  0  0  0
  5  4  2  0  0  0  0
  6  7  1  6  0  0  0
  6 11  1  0  0  0  0
  7  9  1  0  0  0  0
  8 19  1  0  0  0  0
  9  5  1  0  0  0  0
 10 22  2  0  0  0  0
 10 20  1  0  0  0  0
 11  4  1  0  0  0  0
 11 23  1  0  0  0  0
 12 26  1  0  0  0  0
 13  1  3  0  0  0  0
 14 12  2  0  0  0  0
 15 33  1  6  0  0  0
 15 24  1  0  0  0  0
 16 21  1  0  0  0  0
 17  6  1  0  0  0  0
 17 15  1  0  0  0  0
 18  2  1  0  0  0  0
 19  3  1  6  0  0  0
 19 18  1  0  0  0  0
 20 27  2  0  0  0  0
 21 25  1  0  0  0  0
 21 38  1  1  0  0  0
 22 14  1  0  0  0  0
 23  8  1  6  0  0  0
 24 23  1  0  0  0  0
 24 13  1  1  0  0  0
 26 25  1  0  0  0  0
 27 12  1  0  0  0  0
 28 33  2  0  0  0  0
 29 34  1  6  0  0  0
 29 31  1  0  0  0  0
 31 30  1  0  0  0  0
 32 29  1  0  0  0  0
 32 28  1  0  0  0  0
 33 30  1  0  0  0  0
 35 34  1  0  0  0  0
 36 35  1  0  0  0  0
 36 34  1  0  0  0  0
 38 37  1  1  0  0  0
 39 38  1  0  0  0  0
 40 41  1  6  0  0  0
 40 39  1  0  0  0  0
 42 47  1  0  0  0  0
 44 51  1  6  0  0  0
 44 40  1  0  0  0  0
 44 53  1  0  0  0  0
 46 45  1  1  0  0  0
 46 44  1  0  0  0  0
 48 54  1  6  0  0  0
 48 50  1  0  0  0  0
 48 52  1  0  0  0  0
 49 42  2  0  0  0  0
 50 43  1  6  0  0  0
 50 46  1  0  0  0  0
 52 49  1  0  0  0  0
 53 47  1  0  0  0  0
 55 54  2  0  0  0  0
M  END
>  <MODEL>
6

>  <REMARK>
 VINA RESULT:      -6.5      3.164      9.289
  Name = 
  7 active torsions:
  status: ('A' for Active; 'I' for Inactive)
    1  A    between atoms: C_6  and  C_20
    2  A    between atoms: C_8  and  C_22
    3  A    between atoms: C_8  and  C_43
    4  A    between atoms: C_10  and  C_32
    5  A    between atoms: N_11  and  C_29
    6  A    between atoms: C_20  and  C_22
    7  A    between atoms: C_33  and  C_52
                            x       y       z     vdW  Elec       q    Type
                         _______ _______ _______ _____ _____    ______ ____

>  <TORSDO>
F 7

$$$$
=
 OpenBabel11052419413D

 55 61  0  0  1  0  0  0  0  0999 V2000
  189.4590  174.6780  141.6030 C   0  0  0  0  0  0  0  0  0  0  0  0
  193.0070  172.5990  141.8050 C   0  0  0  0  0  2  0  0  0  0  0  0
  193.9570  174.1840  144.1800 O   0  0  0  0  0  1  0  0  0  0  0  0
  192.6860  176.2550  146.3700 C   0  0  0  0  0  3  0  0  0  0  0  0
  192.8780  176.6380  147.6310 C   0  0  0  0  0  3  0  0  0  0  0  0
  190.2150  176.5710  146.6440 C   0  0  2  0  0  3  0  0  0  0  0  0
  190.5890  177.5290  147.7730 C   0  0  0  0  0  2  0  0  0  0  0  0
  192.3230  175.7030  143.6970 O   0  0  0  0  0  0  0  0  0  0  0  0
  191.8110  177.1290  148.3870 O   0  0  0  0  0  0  0  0  0  0  0  0
  188.5630  174.3130  139.3420 C   0  0  0  0  0  3  0  0  0  0  0  0
  191.3770  176.3080  145.7760 N   0  0  0  0  0  0  0  0  0  0  0  0
  189.7400  171.7730  139.2870 C   0  0  0  0  0  0  0  0  0  0  0  0
  189.6740  175.3750  142.5620 C   0  0  0  0  0  0  0  0  0  0  0  0
  189.8390  172.5690  140.4300 C   0  0  0  0  0  3  0  0  0  0  0  0
  188.7440  176.3430  144.6340 C   0  0  2  0  0  3  0  0  0  0  0  0
  192.9420  172.3150  140.3160 C   0  0  0  0  0  2  0  0  0  0  0  0
  189.0810  177.1970  145.8470 C   0  0  0  0  0  2  0  0  0  0  0  0
  192.9110  174.0950  142.0380 C   0  0  0  0  0  2  0  0  0  0  0  0
  192.7420  174.3800  143.5210 C   0  0  1  0  0  3  0  0  0  0  0  0
  188.4500  173.5140  138.1990 C   0  0  0  0  0  3  0  0  0  0  0  0
  192.7570  170.8240  140.0860 C   0  0  1  0  0  3  0  0  0  0  0  0
  189.2590  173.8390  140.4580 C   0  0  0  0  0  0  0  0  0  0  0  0
  191.1680  175.6240  144.4910 C   0  0  1  0  0  3  0  0  0  0  0  0
  189.9750  176.2210  143.7270 C   0  0  1  0  0  3  0  0  0  0  0  0
  191.8860  170.5840  138.8540 C   0  0  0  0  0  2  0  0  0  0  0  0
  190.4170  170.4440  139.2400 C   0  0  0  0  0  2  0  0  0  0  0  0
  189.0450  172.2480  138.1690 C   0  0  0  0  0  3  0  0  0  0  0  0
  187.8170  177.8880  142.9780 C   0  0  0  0  0  3  0  0  0  0  0  0
  185.4670  177.6230  142.1790 C   0  0  2  0  0  3  0  0  0  0  0  0
  186.2780  176.5290  144.1810 O   0  0  0  0  0  0  0  0  0  0  0  0
  185.1340  177.1520  143.5920 C   0  0  0  0  0  2  0  0  0  0  0  0
  186.6800  178.5500  142.2560 C   0  0  0  0  0  2  0  0  0  0  0  0
  187.5860  176.9630  143.9150 C   0  0  0  0  0  0  0  0  0  0  0  0
  184.2850  178.3690  141.5870 C   0  0  0  0  0  3  0  0  0  0  0  0
  183.6900  177.5580  140.4530 C   0  0  0  0  0  2  0  0  0  0  0  0
  184.5900  178.7350  140.1480 C   0  0  0  0  0  2  0  0  0  0  0  0
  194.3280  169.2010  140.9870 O   0  0  0  0  0  1  0  0  0  0  0  0
  194.1260  170.1420  139.9720 C   0  0  2  0  0  3  0  0  0  0  0  0
  195.2820  171.1410  139.8880 C   0  0  0  0  0  2  0  0  0  0  0  0
  196.1140  170.9920  138.6120 C   0  0  1  0  0  3  0  0  0  0  0  0
  195.3100  170.5190  137.5710 O   0  0  0  0  0  1  0  0  0  0  0  0
  197.9340  172.7420  135.0120 N   0  0  0  0  0  0  0  0  0  0  0  0
  196.8040  175.6660  138.3400 O   0  0  0  0  0  1  0  0  0  0  0  0
  196.8430  172.3050  138.2390 C   0  0  1  0  0  0  0  0  0  0  0  0
  194.8050  173.0920  137.1150 O   0  0  0  0  0  1  0  0  0  0  0  0
  195.8810  173.4840  137.9190 C   0  0  2  0  0  3  0  0  0  0  0  0
  197.2410  171.9130  135.9690 C   0  0  0  0  0  2  0  0  0  0  0  0
  196.1080  175.3230  136.0580 C   0  0  1  0  0  3  0  0  0  0  0  0
  197.4350  173.8260  134.5220 C   0  0  0  0  0  3  0  0  0  0  0  0
  196.6510  174.6930  137.3520 C   0  0  1  0  0  3  0  0  0  0  0  0
  197.5390  172.6890  139.3740 F   0  0  0  0  0  0  0  0  0  0  0  0
  196.0690  174.3390  134.8830 C   0  0  0  0  0  2  0  0  0  0  0  0
  197.8250  172.0790  137.2370 O   0  0  0  0  0  0  0  0  0  0  0  0
  194.8040  175.8980  136.2830 N   0  0  0  0  0  0  0  0  0  0  0  0
  194.0440  176.2080  135.2980 C   0  0  0  0  0  2  0  0  0  0  0  0
  1 13  3  0  0  0  0
  2 18  1  0  0  0  0
  4  5  2  0  0  0  0
  5  9  1  0  0  0  0
  6 17  1  6  0  0  0
  6  7  1  0  0  0  0
  7  9  1  0  0  0  0
 10 22  1  0  0  0  0
 11  4  1  0  0  0  0
 11  6  1  0  0  0  0
 12 14  1  0  0  0  0
 14 22  2  0  0  0  0
 15 33  1  6  0  0  0
 15 17  1  0  0  0  0
 16  2  1  0  0  0  0
 18 19  1  0  0  0  0
 19  8  1  0  0  0  0
 19  3  1  1  0  0  0
 20 10  2  0  0  0  0
 21 38  1  6  0  0  0
 21 16  1  0  0  0  0
 22  1  1  0  0  0  0
 23  8  1  6  0  0  0
 23 11  1  0  0  0  0
 24 13  1  6  0  0  0
 24 23  1  0  0  0  0
 24 15  1  0  0  0  0
 25 26  1  0  0  0  0
 25 21  1  0  0  0  0
 26 12  1  0  0  0  0
 27 20  1  0  0  0  0
 27 12  2  0  0  0  0
 28 33  2  0  0  0  0
 29 34  1  1  0  0  0
 29 32  1  0  0  0  0
 29 31  1  0  0  0  0
 31 30  1  0  0  0  0
 32 28  1  0  0  0  0
 33 30  1  0  0  0  0
 35 34  1  0  0  0  0
 36 35  1  0  0  0  0
 36 34  1  0  0  0  0
 38 37  1  1  0  0  0
 39 38  1  0  0  0  0
 40 41  1  6  0  0  0
 40 39  1  0  0  0  0
 42 47  1  0  0  0  0
 44 40  1  0  0  0  0
 44 51  1  1  0  0  0
 46 45  1  6  0  0  0
 46 44  1  0  0  0  0
 47 53  1  0  0  0  0
 48 54  1  1  0  0  0
 48 50  1  0  0  0  0
 49 52  1  0  0  0  0
 49 42  2  0  0  0  0
 50 46  1  0  0  0  0
 50 43  1  1  0  0  0
 52 48  1  0  0  0  0
 53 44  1  0  0  0  0
 55 54  2  0  0  0  0
M  END
>  <MODEL>
7

>  <REMARK>
 VINA RESULT:      -6.2      2.755      5.615
  Name = 
  7 active torsions:
  status: ('A' for Active; 'I' for Inactive)
    1  A    between atoms: C_6  and  C_20
    2  A    between atoms: C_8  and  C_22
    3  A    between atoms: C_8  and  C_43
    4  A    between atoms: C_10  and  C_32
    5  A    between atoms: N_11  and  C_29
    6  A    between atoms: C_20  and  C_22
    7  A    between atoms: C_33  and  C_52
                            x       y       z     vdW  Elec       q    Type
                         _______ _______ _______ _____ _____    ______ ____

>  <TORSDO>
F 7

$$$$
=
 OpenBabel11052419413D

 55 61  0  0  1  0  0  0  0  0999 V2000
  186.4690  176.8470  143.1710 C   0  0  0  0  0  0  0  0  0  0  0  0
  190.1210  175.0920  143.9030 C   0  0  0  0  0  2  0  0  0  0  0  0
  190.2800  173.9460  141.1260 O   0  0  0  0  0  1  0  0  0  0  0  0
  188.7420  174.3220  138.2630 C   0  0  0  0  0  3  0  0  0  0  0  0
  188.9910  174.2140  136.9600 C   0  0  0  0  0  3  0  0  0  0  0  0
  187.1860  176.2340  137.8160 C   0  0  2  0  0  3  0  0  0  0  0  0
  187.0640  175.6430  136.4130 C   0  0  0  0  0  2  0  0  0  0  0  0
  188.0470  174.3730  140.9270 O   0  0  0  0  0  0  0  0  0  0  0  0
  188.2680  174.9790  136.0400 O   0  0  0  0  0  0  0  0  0  0  0  0
  185.4680  177.3190  145.3670 C   0  0  0  0  0  3  0  0  0  0  0  0
  187.7550  175.2460  138.7500 N   0  0  0  0  0  0  0  0  0  0  0  0
  188.0220  177.7030  146.4480 C   0  0  0  0  0  0  0  0  0  0  0  0
  186.3950  176.4910  142.0220 C   0  0  0  0  0  0  0  0  0  0  0  0
  187.8690  177.4270  145.0870 C   0  0  0  0  0  3  0  0  0  0  0  0
  185.8370  177.1550  139.7100 C   0  0  2  0  0  3  0  0  0  0  0  0
  189.7950  174.9970  145.3820 C   0  0  0  0  0  2  0  0  0  0  0  0
  185.8010  176.6670  138.2690 C   0  0  0  0  0  2  0  0  0  0  0  0
  189.0270  174.4170  143.1000 C   0  0  0  0  0  2  0  0  0  0  0  0
  189.2160  174.7030  141.6200 C   0  0  1  0  0  3  0  0  0  0  0  0
  185.6150  177.6080  146.7270 C   0  0  0  0  0  3  0  0  0  0  0  0
  190.7270  175.9000  146.1730 C   0  0  1  0  0  3  0  0  0  0  0  0
  186.5970  177.2290  144.5470 C   0  0  0  0  0  0  0  0  0  0  0  0
  187.7130  175.5240  140.1940 C   0  0  1  0  0  3  0  0  0  0  0  0
  186.3270  176.0280  140.6270 C   0  0  1  0  0  3  0  0  0  0  0  0
  189.9930  176.4930  147.3740 C   0  0  0  0  0  2  0  0  0  0  0  0
  189.3870  177.8500  147.0320 C   0  0  0  0  0  2  0  0  0  0  0  0
  186.8930  177.7920  147.2690 C   0  0  0  0  0  3  0  0  0  0  0  0
  183.4020  177.1250  139.4640 C   0  0  0  0  0  3  0  0  0  0  0  0
  181.9400  178.0550  141.2600 C   0  0  2  0  0  3  0  0  0  0  0  0
  184.3100  178.5390  141.1500 O   0  0  0  0  0  0  0  0  0  0  0  0
  183.0370  179.0900  141.4940 C   0  0  0  0  0  2  0  0  0  0  0  0
  182.0180  177.5950  139.8050 C   0  0  0  0  0  2  0  0  0  0  0  0
  184.4690  177.6260  140.0940 C   0  0  0  0  0  0  0  0  0  0  0  0
  180.5790  178.6690  141.5340 C   0  0  0  0  0  3  0  0  0  0  0  0
  179.6210  177.5910  142.0030 C   0  0  0  0  0  2  0  0  0  0  0  0
  179.5610  178.0850  140.5740 C   0  0  0  0  0  2  0  0  0  0  0  0
  192.1940  175.1640  147.9660 O   0  0  0  0  0  1  0  0  0  0  0  0
  191.9810  175.1200  146.5850 C   0  0  2  0  0  3  0  0  0  0  0  0
  193.2270  175.5460  145.8060 C   0  0  0  0  0  2  0  0  0  0  0  0
  193.8930  174.3900  145.0560 C   0  0  1  0  0  3  0  0  0  0  0  0
  193.0950  173.2450  145.1400 O   0  0  0  0  0  1  0  0  0  0  0  0
  197.2070  176.3350  142.9180 N   0  0  0  0  0  0  0  0  0  0  0  0
  194.4260  173.7220  140.4020 O   0  0  0  0  0  1  0  0  0  0  0  0
  194.2280  174.7650  143.5920 C   0  0  1  0  0  0  0  0  0  0  0  0
  195.7910  172.8710  143.4910 O   0  0  0  0  0  1  0  0  0  0  0  0
  194.8290  173.5900  142.7700 C   0  0  2  0  0  3  0  0  0  0  0  0
  196.3350  175.7300  143.8970 C   0  0  0  0  0  2  0  0  0  0  0  0
  196.7610  173.6560  140.9930 C   0  0  1  0  0  3  0  0  0  0  0  0
  197.8760  175.6560  142.0500 C   0  0  0  0  0  3  0  0  0  0  0  0
  195.3380  174.0730  141.3980 C   0  0  1  0  0  3  0  0  0  0  0  0
  193.0170  175.0610  142.9890 F   0  0  0  0  0  0  0  0  0  0  0  0
  197.8330  174.1560  141.9690 C   0  0  0  0  0  2  0  0  0  0  0  0
  194.9970  175.9580  143.5320 O   0  0  0  0  0  0  0  0  0  0  0  0
  196.8450  172.2240  140.8380 N   0  0  0  0  0  0  0  0  0  0  0  0
  197.9410  171.6650  140.4750 C   0  0  0  0  0  2  0  0  0  0  0  0
  1 22  1  0  0  0  0
  2 16  1  0  0  0  0
  4 11  1  0  0  0  0
  5  4  2  0  0  0  0
  6  7  1  6  0  0  0
  6 17  1  0  0  0  0
  6 11  1  0  0  0  0
  8 19  1  0  0  0  0
  9  7  1  0  0  0  0
  9  5  1  0  0  0  0
 10 20  1  0  0  0  0
 11 23  1  0  0  0  0
 12 26  1  0  0  0  0
 12 27  1  0  0  0  0
 13  1  3  0  0  0  0
 14 12  2  0  0  0  0
 15 33  1  1  0  0  0
 15 24  1  0  0  0  0
 16 21  1  0  0  0  0
 17 15  1  0  0  0  0
 18  2  1  0  0  0  0
 19  3  1  6  0  0  0
 19 18  1  0  0  0  0
 20 27  2  0  0  0  0
 21 38  1  1  0  0  0
 21 25  1  0  0  0  0
 22 14  1  0  0  0  0
 22 10  2  0  0  0  0
 23 24  1  0  0  0  0
 23  8  1  1  0  0  0
 24 13  1  1  0  0  0
 26 25  1  0  0  0  0
 28 32  1  0  0  0  0
 28 33  2  0  0  0  0
 29 31  1  0  0  0  0
 29 34  1  6  0  0  0
 30 31  1  0  0  0  0
 32 29  1  0  0  0  0
 33 30  1  0  0  0  0
 34 35  1  0  0  0  0
 36 34  1  0  0  0  0
 36 35  1  0  0  0  0
 38 37  1  1  0  0  0
 39 38  1  0  0  0  0
 40 41  1  6  0  0  0
 40 39  1  0  0  0  0
 42 47  1  0  0  0  0
 44 51  1  6  0  0  0
 44 40  1  0  0  0  0
 46 45  1  1  0  0  0
 46 44  1  0  0  0  0
 48 54  1  1  0  0  0
 48 50  1  0  0  0  0
 48 52  1  0  0  0  0
 49 42  2  0  0  0  0
 50 43  1  6  0  0  0
 50 46  1  0  0  0  0
 52 49  1  0  0  0  0
 53 44  1  0  0  0  0
 53 47  1  0  0  0  0
 55 54  2  0  0  0  0
M  END
>  <MODEL>
8

>  <REMARK>
 VINA RESULT:      -5.8      2.792      4.601
  Name = 
  7 active torsions:
  status: ('A' for Active; 'I' for Inactive)
    1  A    between atoms: C_6  and  C_20
    2  A    between atoms: C_8  and  C_22
    3  A    between atoms: C_8  and  C_43
    4  A    between atoms: C_10  and  C_32
    5  A    between atoms: N_11  and  C_29
    6  A    between atoms: C_20  and  C_22
    7  A    between atoms: C_33  and  C_52
                            x       y       z     vdW  Elec       q    Type
                         _______ _______ _______ _____ _____    ______ ____

>  <TORSDO>
F 7

$$$$
