=
 OpenBabel11052419163D

 32 37  0  0  1  0  0  0  0  0999 V2000
  189.7930  175.6130  144.6080 C   0  0  0  0  0  0  0  0  0  0  0  0
  187.9160  177.2190  144.2880 C   0  0  2  0  0  3  0  0  0  0  0  0
  190.6710  174.9280  145.3930 N   0  0  0  0  0  0  0  0  0  0  0  0
  188.8780  176.4970  145.1890 C   0  0  0  0  0  0  0  0  0  0  0  0
  186.6240  177.7630  144.9660 C   0  0  1  0  0  3  0  0  0  0  0  0
  185.9270  177.7620  139.9280 C   0  0  0  0  0  3  0  0  0  0  0  0
  187.7100  176.3910  143.0070 C   0  0  2  0  0  3  0  0  0  0  0  0
  184.5820  178.2040  141.8960 C   0  0  0  0  0  3  0  0  0  0  0  0
  185.5540  177.5990  142.6970 C   0  0  0  0  0  0  0  0  0  0  0  0
  188.8520  176.6530  146.5760 C   0  0  0  0  0  0  0  0  0  0  0  0
  185.3390  177.4560  144.1760 C   0  0  0  0  0  2  0  0  0  0  0  0
  187.8170  177.5320  147.2030 C   0  0  0  0  0  2  0  0  0  0  0  0
  189.7780  175.9640  147.3620 C   0  0  0  0  0  3  0  0  0  0  0  0
  188.9710  176.2120  142.4000 O   0  0  0  0  0  0  0  0  0  0  0  0
  189.6630  175.3400  143.1990 N   0  0  0  0  0  0  0  0  0  0  0  0
  186.7200  177.0730  142.1130 C   0  0  0  0  0  0  0  0  0  0  0  0
  186.4870  177.3910  146.4560 C   0  0  1  0  0  3  0  0  0  0  0  0
  190.6920  175.1010  146.7450 C   0  0  0  0  0  3  0  0  0  0  0  0
  184.7710  178.2910  140.5130 C   0  0  0  0  0  3  0  0  0  0  0  0
  186.8980  177.1480  140.7240 C   0  0  0  0  0  3  0  0  0  0  0  0
  190.2940  173.0630  140.2800 C   0  0  1  0  0  3  0  0  0  0  0  0
  191.2140  170.0450  142.3470 O   0  0  0  0  0  1  0  0  0  0  0  0
  190.6430  173.3910  138.9700 O   0  0  0  0  0  1  0  0  0  0  0  0
  189.4220  171.5760  142.7560 C   0  0  0  0  0  2  0  0  0  0  0  0
  190.0870  174.0510  142.6660 C   0  0  1  0  0  3  0  0  0  0  0  0
  190.8980  171.7050  140.6590 C   0  0  0  0  0  2  0  0  0  0  0  0
  188.9410  173.0360  142.7630 C   0  0  0  0  0  2  0  0  0  0  0  0
  190.6310  174.2230  141.2360 C   0  0  1  0  0  3  0  0  0  0  0  0
  192.1220  174.5160  141.2760 C   0  0  0  0  0  1  0  0  0  0  0  0
  190.8130  171.3650  142.1490 C   0  0  2  0  0  3  0  0  0  0  0  0
  185.4080  178.2230  147.1450 C   0  0  0  0  0  2  0  0  0  0  0  0
  185.9410  179.4160  147.6380 O   0  0  0  0  0  1  0  0  0  0  0  0
  1  4  2  0  0  0  0
  1  3  1  0  0  0  0
  2  5  1  0  0  0  0
  2  4  1  1  0  0  0
  3 18  2  0  0  0  0
  4 10  1  0  0  0  0
  5 11  1  6  0  0  0
  5 17  1  0  0  0  0
  6 19  2  0  0  0  0
  6 20  1  0  0  0  0
  7 16  1  6  0  0  0
  7  2  1  0  0  0  0
  8  9  2  0  0  0  0
  9 11  1  0  0  0  0
 10 12  1  0  0  0  0
 10 13  2  0  0  0  0
 14  7  1  0  0  0  0
 14 15  1  0  0  0  0
 15  1  1  0  0  0  0
 16  9  1  0  0  0  0
 17 31  1  1  0  0  0
 17 12  1  0  0  0  0
 18 13  1  0  0  0  0
 19  8  1  0  0  0  0
 20 16  2  0  0  0  0
 21 23  1  6  0  0  0
 21 26  1  0  0  0  0
 21 28  1  0  0  0  0
 24 27  1  0  0  0  0
 25 27  1  6  0  0  0
 25 15  1  0  0  0  0
 26 30  1  0  0  0  0
 28 29  1  1  0  0  0
 28 25  1  0  0  0  0
 30 22  1  6  0  0  0
 30 24  1  0  0  0  0
 31 32  1  0  0  0  0
M  END
>  <MODEL>
1

>  <REMARK>
 VINA RESULT:      -8.8      0.000      0.000
  Name = 
  2 active torsions:
  status: ('A' for Active; 'I' for Inactive)
    1  A    between atoms: C_13  and  C_29
    2  A    between atoms: C_16  and  N_27
                            x       y       z     vdW  Elec       q    Type
                         _______ _______ _______ _____ _____    ______ ____

>  <TORSDO>
F 2

$$$$
=
 OpenBabel11052419163D

 32 37  0  0  1  0  0  0  0  0999 V2000
  190.2280  176.4380  144.3590 C   0  0  0  0  0  0  0  0  0  0  0  0
  188.0560  177.6560  144.3090 C   0  0  2  0  0  3  0  0  0  0  0  0
  191.2990  175.9120  145.0180 N   0  0  0  0  0  0  0  0  0  0  0  0
  189.2270  177.1050  145.0720 C   0  0  0  0  0  0  0  0  0  0  0  0
  186.7620  177.9120  145.1370 C   0  0  1  0  0  3  0  0  0  0  0  0
  185.5520  177.9480  140.1980 C   0  0  0  0  0  3  0  0  0  0  0  0
  187.8780  176.8470  143.0110 C   0  0  2  0  0  3  0  0  0  0  0  0
  184.3620  178.0500  142.3080 C   0  0  0  0  0  3  0  0  0  0  0  0
  185.5100  177.6200  142.9770 C   0  0  0  0  0  0  0  0  0  0  0  0
  189.3180  177.2050  146.4630 C   0  0  0  0  0  0  0  0  0  0  0  0
  185.4830  177.3870  144.4600 C   0  0  0  0  0  2  0  0  0  0  0  0
  188.2060  177.8430  147.2330 C   0  0  0  0  0  2  0  0  0  0  0  0
  190.4360  176.6840  147.1170 C   0  0  0  0  0  3  0  0  0  0  0  0
  189.0790  176.9390  142.2760 O   0  0  0  0  0  0  0  0  0  0  0  0
  190.0050  176.1930  142.9570 N   0  0  0  0  0  0  0  0  0  0  0  0
  186.6870  177.3530  142.2550 C   0  0  0  0  0  0  0  0  0  0  0  0
  186.8560  177.4690  146.6110 C   0  0  1  0  0  3  0  0  0  0  0  0
  191.4280  176.0390  146.3680 C   0  0  0  0  0  3  0  0  0  0  0  0
  184.3840  178.2200  140.9190 C   0  0  0  0  0  3  0  0  0  0  0  0
  186.7010  177.5090  140.8620 C   0  0  0  0  0  3  0  0  0  0  0  0
  191.4210  172.7200  143.1600 C   0  0  1  0  0  3  0  0  0  0  0  0
  192.4560  172.5220  139.5390 O   0  0  0  0  0  1  0  0  0  0  0  0
  191.1180  171.7000  144.0620 O   0  0  0  0  0  1  0  0  0  0  0  0
  192.7220  174.3900  141.0090 C   0  0  0  0  0  2  0  0  0  0  0  0
  190.6100  175.0310  142.3160 C   0  0  1  0  0  3  0  0  0  0  0  0
  191.8190  172.1220  141.8050 C   0  0  0  0  0  2  0  0  0  0  0  0
  192.1140  175.2590  142.1230 C   0  0  0  0  0  2  0  0  0  0  0  0
  190.2820  173.7570  143.1130 C   0  0  1  0  0  3  0  0  0  0  0  0
  188.9790  173.1500  142.6160 C   0  0  0  0  0  1  0  0  0  0  0  0
  191.9100  173.1370  140.6640 C   0  0  2  0  0  3  0  0  0  0  0  0
  185.7170  178.0500  147.4450 C   0  0  0  0  0  2  0  0  0  0  0  0
  185.8370  179.4370  147.5520 O   0  0  0  0  0  1  0  0  0  0  0  0
  1  3  2  0  0  0  0
  1  4  1  0  0  0  0
  2  4  1  1  0  0  0
  2  5  1  0  0  0  0
  3 18  1  0  0  0  0
  4 10  2  0  0  0  0
  5 11  1  6  0  0  0
  5 17  1  0  0  0  0
  6 20  2  0  0  0  0
  6 19  1  0  0  0  0
  7 16  1  6  0  0  0
  7  2  1  0  0  0  0
  8  9  1  0  0  0  0
  9 11  1  0  0  0  0
 10 13  1  0  0  0  0
 10 12  1  0  0  0  0
 14 15  1  0  0  0  0
 14  7  1  0  0  0  0
 15  1  1  0  0  0  0
 16  9  2  0  0  0  0
 17 12  1  0  0  0  0
 17 31  1  1  0  0  0
 18 13  2  0  0  0  0
 19  8  2  0  0  0  0
 20 16  1  0  0  0  0
 21 23  1  1  0  0  0
 24 27  1  0  0  0  0
 25 27  1  1  0  0  0
 25 15  1  0  0  0  0
 25 28  1  0  0  0  0
 26 21  1  0  0  0  0
 28 29  1  6  0  0  0
 28 21  1  0  0  0  0
 30 22  1  6  0  0  0
 30 24  1  0  0  0  0
 30 26  1  0  0  0  0
 31 32  1  0  0  0  0
M  END
>  <MODEL>
2

>  <REMARK>
 VINA RESULT:      -8.5      1.002      2.009
  Name = 
  2 active torsions:
  status: ('A' for Active; 'I' for Inactive)
    1  A    between atoms: C_13  and  C_29
    2  A    between atoms: C_16  and  N_27
                            x       y       z     vdW  Elec       q    Type
                         _______ _______ _______ _____ _____    ______ ____

>  <TORSDO>
F 2

$$$$
=
 OpenBabel11052419163D

 32 37  0  0  1  0  0  0  0  0999 V2000
  189.6370  174.8140  143.2650 C   0  0  0  0  0  0  0  0  0  0  0  0
  187.5270  176.0620  142.8210 C   0  0  2  0  0  3  0  0  0  0  0  0
  190.6750  174.0250  142.8700 N   0  0  0  0  0  0  0  0  0  0  0  0
  188.6450  175.1760  142.3480 C   0  0  0  0  0  0  0  0  0  0  0  0
  186.7640  176.8480  141.7140 C   0  0  1  0  0  3  0  0  0  0  0  0
  185.6620  178.9280  146.2220 C   0  0  0  0  0  3  0  0  0  0  0  0
  188.0180  176.8910  144.0220 C   0  0  2  0  0  3  0  0  0  0  0  0
  185.2110  179.4240  143.8920 C   0  0  0  0  0  3  0  0  0  0  0  0
  186.2030  178.5190  143.5080 C   0  0  0  0  0  0  0  0  0  0  0  0
  188.7390  174.7490  141.0220 C   0  0  0  0  0  0  0  0  0  0  0  0
  186.5410  178.3330  142.0560 C   0  0  0  0  0  2  0  0  0  0  0  0
  187.7260  175.2070  140.0220 C   0  0  0  0  0  2  0  0  0  0  0  0
  189.7950  173.9170  140.6420 C   0  0  0  0  0  3  0  0  0  0  0  0
  188.4410  175.9920  145.0240 O   0  0  0  0  0  0  0  0  0  0  0  0
  189.6040  175.4280  144.5690 N   0  0  0  0  0  0  0  0  0  0  0  0
  186.9300  177.8130  144.4830 C   0  0  0  0  0  0  0  0  0  0  0  0
  187.3410  176.6650  140.2970 C   0  0  1  0  0  3  0  0  0  0  0  0
  190.7600  173.5590  141.5920 C   0  0  0  0  0  3  0  0  0  0  0  0
  184.9360  179.6240  145.2490 C   0  0  0  0  0  3  0  0  0  0  0  0
  186.6630  178.0290  145.8420 C   0  0  0  0  0  3  0  0  0  0  0  0
  191.5180  177.0820  147.3450 C   0  0  1  0  0  3  0  0  0  0  0  0
  194.8560  175.5710  146.4540 O   0  0  0  0  0  1  0  0  0  0  0  0
  191.0500  177.5640  148.5680 O   0  0  0  0  0  1  0  0  0  0  0  0
  193.2360  176.4700  144.9410 C   0  0  0  0  0  2  0  0  0  0  0  0
  190.8430  175.6260  145.3110 C   0  0  1  0  0  3  0  0  0  0  0  0
  192.9640  176.5930  147.4920 C   0  0  0  0  0  2  0  0  0  0  0  0
  191.7520  176.6110  144.5660 C   0  0  0  0  0  2  0  0  0  0  0  0
  190.5320  176.0550  146.7560 C   0  0  1  0  0  3  0  0  0  0  0  0
  190.3850  174.8300  147.6440 C   0  0  0  0  0  1  0  0  0  0  0  0
  193.4910  175.7980  146.2950 C   0  0  2  0  0  3  0  0  0  0  0  0
  186.3710  177.1600  139.2270 C   0  0  0  0  0  2  0  0  0  0  0  0
  186.5240  176.4340  138.0440 O   0  0  0  0  0  1  0  0  0  0  0  0
  1 15  1  0  0  0  0
  2  4  1  6  0  0  0
  2  7  1  0  0  0  0
  3  1  1  0  0  0  0
  4  1  2  0  0  0  0
  5 11  1  1  0  0  0
  5  2  1  0  0  0  0
  7 16  1  1  0  0  0
  7 14  1  0  0  0  0
  8 19  1  0  0  0  0
  9  8  2  0  0  0  0
  9 16  1  0  0  0  0
 10  4  1  0  0  0  0
 11  9  1  0  0  0  0
 12 17  1  0  0  0  0
 12 10  1  0  0  0  0
 13 10  2  0  0  0  0
 13 18  1  0  0  0  0
 15 14  1  0  0  0  0
 15 25  1  0  0  0  0
 16 20  2  0  0  0  0
 17 31  1  6  0  0  0
 17  5  1  0  0  0  0
 18  3  2  0  0  0  0
 19  6  2  0  0  0  0
 20  6  1  0  0  0  0
 21 26  1  0  0  0  0
 21 23  1  1  0  0  0
 24 30  1  0  0  0  0
 25 27  1  6  0  0  0
 25 28  1  0  0  0  0
 27 24  1  0  0  0  0
 28 21  1  0  0  0  0
 28 29  1  1  0  0  0
 30 22  1  1  0  0  0
 30 26  1  0  0  0  0
 32 31  1  0  0  0  0
M  END
>  <MODEL>
3

>  <REMARK>
 VINA RESULT:      -8.4      2.450      5.714
  Name = 
  2 active torsions:
  status: ('A' for Active; 'I' for Inactive)
    1  A    between atoms: C_13  and  C_29
    2  A    between atoms: C_16  and  N_27
                            x       y       z     vdW  Elec       q    Type
                         _______ _______ _______ _____ _____    ______ ____

>  <TORSDO>
F 2

$$$$
=
 OpenBabel11052419163D

 32 37  0  0  1  0  0  0  0  0999 V2000
  192.0820  174.9650  143.9290 C   0  0  0  0  0  0  0  0  0  0  0  0
  190.6220  176.7710  144.8300 C   0  0  2  0  0  3  0  0  0  0  0  0
  193.1480  174.1210  144.0190 N   0  0  0  0  0  0  0  0  0  0  0  0
  191.8170  175.8700  144.9610 C   0  0  0  0  0  0  0  0  0  0  0  0
  190.0660  177.3660  146.1570 C   0  0  1  0  0  3  0  0  0  0  0  0
  186.5500  177.9490  142.5290 C   0  0  0  0  0  3  0  0  0  0  0  0
  189.5890  176.1020  143.9040 C   0  0  2  0  0  3  0  0  0  0  0  0
  186.6960  178.3160  144.9210 C   0  0  0  0  0  3  0  0  0  0  0  0
  187.8570  177.5410  144.9690 C   0  0  0  0  0  0  0  0  0  0  0  0
  192.6330  175.8850  146.0950 C   0  0  0  0  0  0  0  0  0  0  0  0
  188.5350  177.2680  146.2820 C   0  0  0  0  0  2  0  0  0  0  0  0
  192.3000  176.7920  147.2360 C   0  0  0  0  0  2  0  0  0  0  0  0
  193.7380  175.0320  146.1570 C   0  0  0  0  0  3  0  0  0  0  0  0
  190.2120  175.8640  142.6610 O   0  0  0  0  0  0  0  0  0  0  0  0
  191.1120  174.8520  142.8690 N   0  0  0  0  0  0  0  0  0  0  0  0
  188.3700  176.9660  143.7930 C   0  0  0  0  0  0  0  0  0  0  0  0
  190.7800  176.8580  147.4250 C   0  0  1  0  0  3  0  0  0  0  0  0
  193.9830  174.1520  145.0960 C   0  0  0  0  0  3  0  0  0  0  0  0
  186.0460  178.5250  143.7000 C   0  0  0  0  0  3  0  0  0  0  0  0
  187.7060  177.1640  142.5740 C   0  0  0  0  0  3  0  0  0  0  0  0
  189.9810  172.9230  139.8510 C   0  0  1  0  0  3  0  0  0  0  0  0
  190.8160  169.5200  141.2430 O   0  0  0  0  0  1  0  0  0  0  0  0
  189.8760  173.3480  138.5260 O   0  0  0  0  0  1  0  0  0  0  0  0
  189.7700  171.3300  142.4050 C   0  0  0  0  0  2  0  0  0  0  0  0
  190.9580  173.5890  142.1560 C   0  0  1  0  0  3  0  0  0  0  0  0
  190.3160  171.4270  139.8970 C   0  0  0  0  0  2  0  0  0  0  0  0
  189.7180  172.8440  142.6660 C   0  0  0  0  0  2  0  0  0  0  0  0
  190.9400  173.8370  140.6370 C   0  0  1  0  0  3  0  0  0  0  0  0
  192.3550  173.7910  140.0840 C   0  0  0  0  0  1  0  0  0  0  0  0
  190.7220  170.9090  141.2790 C   0  0  2  0  0  3  0  0  0  0  0  0
  190.4410  177.7160  148.6410 C   0  0  0  0  0  2  0  0  0  0  0  0
  191.5710  177.9150  149.4390 O   0  0  0  0  0  1  0  0  0  0  0  0
  1  3  2  0  0  0  0
  1  4  1  0  0  0  0
  2  4  1  1  0  0  0
  2  5  1  0  0  0  0
  3 18  1  0  0  0  0
  4 10  2  0  0  0  0
  5 11  1  1  0  0  0
  5 17  1  0  0  0  0
  6 20  2  0  0  0  0
  6 19  1  0  0  0  0
  7 14  1  6  0  0  0
  7  2  1  0  0  0  0
  8  9  1  0  0  0  0
  9 11  1  0  0  0  0
 10 13  1  0  0  0  0
 10 12  1  0  0  0  0
 12 17  1  0  0  0  0
 14 15  1  0  0  0  0
 15  1  1  0  0  0  0
 16  7  1  0  0  0  0
 16  9  2  0  0  0  0
 17 31  1  1  0  0  0
 18 13  2  0  0  0  0
 19  8  2  0  0  0  0
 20 16  1  0  0  0  0
 21 23  1  6  0  0  0
 21 26  1  0  0  0  0
 21 28  1  0  0  0  0
 24 27  1  0  0  0  0
 25 27  1  1  0  0  0
 25 15  1  0  0  0  0
 26 30  1  0  0  0  0
 28 29  1  6  0  0  0
 28 25  1  0  0  0  0
 30 22  1  6  0  0  0
 30 24  1  0  0  0  0
 31 32  1  0  0  0  0
M  END
>  <MODEL>
4

>  <REMARK>
 VINA RESULT:      -7.7      1.953      2.977
  Name = 
  2 active torsions:
  status: ('A' for Active; 'I' for Inactive)
    1  A    between atoms: C_13  and  C_29
    2  A    between atoms: C_16  and  N_27
                            x       y       z     vdW  Elec       q    Type
                         _______ _______ _______ _____ _____    ______ ____

>  <TORSDO>
F 2

$$$$
=
 OpenBabel11052419163D

 32 37  0  0  1  0  0  0  0  0999 V2000
  191.5790  174.0590  141.9600 C   0  0  0  0  0  0  0  0  0  0  0  0
  190.0020  174.9100  143.6910 C   0  0  2  0  0  3  0  0  0  0  0  0
  191.8580  173.5860  140.7130 N   0  0  0  0  0  0  0  0  0  0  0  0
  190.2630  174.3750  142.3110 C   0  0  0  0  0  0  0  0  0  0  0  0
  188.6820  175.7150  143.8720 C   0  0  1  0  0  3  0  0  0  0  0  0
  191.7050  176.6510  147.8540 C   0  0  0  0  0  3  0  0  0  0  0  0
  191.2830  175.5830  144.2180 C   0  0  2  0  0  3  0  0  0  0  0  0
  189.5800  177.4680  147.0200 C   0  0  0  0  0  3  0  0  0  0  0  0
  189.8360  176.8720  145.7830 C   0  0  0  0  0  0  0  0  0  0  0  0
  189.2420  174.2290  141.3690 C   0  0  0  0  0  0  0  0  0  0  0  0
  188.8660  177.0320  144.6480 C   0  0  0  0  0  2  0  0  0  0  0  0
  187.8490  174.6490  141.7150 C   0  0  0  0  0  2  0  0  0  0  0  0
  189.5430  173.7170  140.1050 C   0  0  0  0  0  3  0  0  0  0  0  0
  192.3130  174.6200  144.2100 O   0  0  0  0  0  0  0  0  0  0  0  0
  192.6240  174.3990  142.8930 N   0  0  0  0  0  0  0  0  0  0  0  0
  191.0310  176.1610  145.5770 C   0  0  0  0  0  0  0  0  0  0  0  0
  187.8830  175.9200  142.5710 C   0  0  1  0  0  3  0  0  0  0  0  0
  190.8700  173.3930  139.7960 C   0  0  0  0  0  3  0  0  0  0  0  0
  190.5110  177.3520  148.0580 C   0  0  0  0  0  3  0  0  0  0  0  0
  191.9690  176.0610  146.6140 C   0  0  0  0  0  3  0  0  0  0  0  0
  196.2460  175.1470  143.5490 C   0  0  1  0  0  3  0  0  0  0  0  0
  197.1660  175.7510  139.9420 O   0  0  0  0  0  1  0  0  0  0  0  0
  197.0440  174.7510  144.6230 O   0  0  0  0  0  1  0  0  0  0  0  0
  195.1990  176.5130  141.0700 C   0  0  0  0  0  2  0  0  0  0  0  0
  193.9640  174.7050  142.4050 C   0  0  1  0  0  3  0  0  0  0  0  0
  197.1000  175.2840  142.2830 C   0  0  0  0  0  2  0  0  0  0  0  0
  194.0750  176.1980  142.0710 C   0  0  0  0  0  2  0  0  0  0  0  0
  195.0180  174.2260  143.4190 C   0  0  1  0  0  3  0  0  0  0  0  0
  195.4130  172.7880  143.1200 C   0  0  0  0  0  1  0  0  0  0  0  0
  196.2990  175.4480  140.9900 C   0  0  2  0  0  3  0  0  0  0  0  0
  186.4610  176.3970  142.8540 C   0  0  0  0  0  2  0  0  0  0  0  0
  185.9800  177.1810  141.8020 O   0  0  0  0  0  1  0  0  0  0  0  0
  1  4  1  0  0  0  0
  1 15  1  0  0  0  0
  2  4  1  6  0  0  0
  2  5  1  0  0  0  0
  2  7  1  0  0  0  0
  3  1  2  0  0  0  0
  5 11  1  6  0  0  0
  6 19  1  0  0  0  0
  7 14  1  1  0  0  0
  7 16  1  0  0  0  0
  8 19  2  0  0  0  0
  9  8  1  0  0  0  0
 10 12  1  0  0  0  0
 10  4  2  0  0  0  0
 11  9  1  0  0  0  0
 12 17  1  0  0  0  0
 13 10  1  0  0  0  0
 15 14  1  0  0  0  0
 16  9  2  0  0  0  0
 16 20  1  0  0  0  0
 17 31  1  1  0  0  0
 17  5  1  0  0  0  0
 18 13  2  0  0  0  0
 18  3  1  0  0  0  0
 20  6  2  0  0  0  0
 21 23  1  1  0  0  0
 24 27  1  0  0  0  0
 25 27  1  1  0  0  0
 25 15  1  0  0  0  0
 25 28  1  0  0  0  0
 26 21  1  0  0  0  0
 28 29  1  6  0  0  0
 28 21  1  0  0  0  0
 30 22  1  6  0  0  0
 30 24  1  0  0  0  0
 30 26  1  0  0  0  0
 32 31  1  0  0  0  0
M  END
>  <MODEL>
5

>  <REMARK>
 VINA RESULT:      -7.5      3.148      6.136
  Name = 
  2 active torsions:
  status: ('A' for Active; 'I' for Inactive)
    1  A    between atoms: C_13  and  C_29
    2  A    between atoms: C_16  and  N_27
                            x       y       z     vdW  Elec       q    Type
                         _______ _______ _______ _____ _____    ______ ____

>  <TORSDO>
F 2

$$$$
=
 OpenBabel11052419163D

 32 37  0  0  1  0  0  0  0  0999 V2000
  189.2580  175.2010  142.8610 C   0  0  0  0  0  0  0  0  0  0  0  0
  187.1780  176.4650  143.3920 C   0  0  2  0  0  3  0  0  0  0  0  0
  190.0860  174.5550  141.9930 N   0  0  0  0  0  0  0  0  0  0  0  0
  188.0540  175.7460  142.4050 C   0  0  0  0  0  0  0  0  0  0  0  0
  186.1550  177.4720  142.7890 C   0  0  1  0  0  3  0  0  0  0  0  0
  186.5830  178.3940  147.7720 C   0  0  0  0  0  3  0  0  0  0  0  0
  188.0520  176.9980  144.5420 C   0  0  2  0  0  3  0  0  0  0  0  0
  185.4690  179.4170  145.8770 C   0  0  0  0  0  3  0  0  0  0  0  0
  186.2500  178.6540  145.0050 C   0  0  0  0  0  0  0  0  0  0  0  0
  187.7180  175.6470  141.0520 C   0  0  0  0  0  0  0  0  0  0  0  0
  186.1200  178.8270  143.5190 C   0  0  0  0  0  2  0  0  0  0  0  0
  186.4730  176.3040  140.5490 C   0  0  0  0  0  2  0  0  0  0  0  0
  188.5660  174.9560  140.1830 C   0  0  0  0  0  3  0  0  0  0  0  0
  188.7150  175.8980  145.1260 O   0  0  0  0  0  0  0  0  0  0  0  0
  189.6550  175.4870  144.2170 N   0  0  0  0  0  0  0  0  0  0  0  0
  187.2040  177.7560  145.5170 C   0  0  0  0  0  0  0  0  0  0  0  0
  186.2630  177.6450  141.2610 C   0  0  1  0  0  3  0  0  0  0  0  0
  189.7550  174.4080  140.6800 C   0  0  0  0  0  3  0  0  0  0  0  0
  185.6310  179.2820  147.2600 C   0  0  0  0  0  3  0  0  0  0  0  0
  187.3740  177.6370  146.9030 C   0  0  0  0  0  3  0  0  0  0  0  0
  193.2600  175.7800  143.2040 C   0  0  1  0  0  3  0  0  0  0  0  0
  194.6660  175.2880  146.6690 O   0  0  0  0  0  1  0  0  0  0  0  0
  193.8110  176.4250  142.0970 O   0  0  0  0  0  1  0  0  0  0  0  0
  192.8690  174.0730  145.6620 C   0  0  0  0  0  2  0  0  0  0  0  0
  191.0690  175.5350  144.5660 C   0  0  1  0  0  3  0  0  0  0  0  0
  194.2430  175.8240  144.3800 C   0  0  0  0  0  2  0  0  0  0  0  0
  191.6070  174.1150  144.7850 C   0  0  0  0  0  2  0  0  0  0  0  0
  191.8510  176.3270  143.5030 C   0  0  1  0  0  3  0  0  0  0  0  0
  191.8770  177.8040  143.8670 C   0  0  0  0  0  1  0  0  0  0  0  0
  193.6480  175.3910  145.7230 C   0  0  2  0  0  3  0  0  0  0  0  0
  185.0390  178.3550  140.6880 C   0  0  0  0  0  2  0  0  0  0  0  0
  184.3780  177.5400  139.7660 O   0  0  0  0  0  1  0  0  0  0  0  0
  1 15  1  0  0  0  0
  2  4  1  6  0  0  0
  2  7  1  0  0  0  0
  3  1  2  0  0  0  0
  4  1  1  0  0  0  0
  5  2  1  0  0  0  0
  5 11  1  1  0  0  0
  7 14  1  1  0  0  0
  7 16  1  0  0  0  0
  8 19  2  0  0  0  0
  9 16  2  0  0  0  0
  9  8  1  0  0  0  0
 10  4  2  0  0  0  0
 11  9  1  0  0  0  0
 12 10  1  0  0  0  0
 12 17  1  0  0  0  0
 13 18  2  0  0  0  0
 13 10  1  0  0  0  0
 15 14  1  0  0  0  0
 16 20  1  0  0  0  0
 17 31  1  6  0  0  0
 17  5  1  0  0  0  0
 18  3  1  0  0  0  0
 19  6  1  0  0  0  0
 20  6  2  0  0  0  0
 21 23  1  6  0  0  0
 21 28  1  0  0  0  0
 21 26  1  0  0  0  0
 24 30  1  0  0  0  0
 25 15  1  6  0  0  0
 25 27  1  0  0  0  0
 26 30  1  0  0  0  0
 27 24  1  0  0  0  0
 28 29  1  1  0  0  0
 28 25  1  0  0  0  0
 30 22  1  1  0  0  0
 32 31  1  0  0  0  0
M  END
>  <MODEL>
6

>  <REMARK>
 VINA RESULT:      -7.4      2.526      5.019
  Name = 
  2 active torsions:
  status: ('A' for Active; 'I' for Inactive)
    1  A    between atoms: C_13  and  C_29
    2  A    between atoms: C_16  and  N_27
                            x       y       z     vdW  Elec       q    Type
                         _______ _______ _______ _____ _____    ______ ____

>  <TORSDO>
F 2

$$$$
=
 OpenBabel11052419163D

 32 37  0  0  1  0  0  0  0  0999 V2000
  189.9450  176.2750  146.0570 C   0  0  0  0  0  0  0  0  0  0  0  0
  191.2790  174.9210  144.4470 C   0  0  2  0  0  3  0  0  0  0  0  0
  189.8260  177.0410  147.1770 N   0  0  0  0  0  0  0  0  0  0  0  0
  191.1890  175.7470  145.6990 C   0  0  0  0  0  0  0  0  0  0  0  0
  192.6960  174.7960  143.8110 C   0  0  1  0  0  3  0  0  0  0  0  0
  189.2480  173.3340  140.3700 C   0  0  0  0  0  3  0  0  0  0  0  0
  190.1440  175.3330  143.4910 C   0  0  2  0  0  3  0  0  0  0  0  0
  191.6430  173.7120  140.4200 C   0  0  0  0  0  3  0  0  0  0  0  0
  191.5100  174.3950  141.6310 C   0  0  0  0  0  0  0  0  0  0  0  0
  192.3120  176.0340  146.4780 C   0  0  0  0  0  0  0  0  0  0  0  0
  192.7090  175.0170  142.2880 C   0  0  0  0  0  2  0  0  0  0  0  0
  193.6570  175.5420  146.0480 C   0  0  0  0  0  2  0  0  0  0  0  0
  192.1660  176.7980  147.6380 C   0  0  0  0  0  3  0  0  0  0  0  0
  188.9200  175.1400  144.1660 O   0  0  0  0  0  0  0  0  0  0  0  0
  188.8540  176.1130  145.1290 N   0  0  0  0  0  0  0  0  0  0  0  0
  190.2410  174.5490  142.2180 C   0  0  0  0  0  0  0  0  0  0  0  0
  193.7830  175.6260  144.5220 C   0  0  1  0  0  3  0  0  0  0  0  0
  190.9010  177.2940  147.9750 C   0  0  0  0  0  3  0  0  0  0  0  0
  190.5130  173.1760  139.7930 C   0  0  0  0  0  3  0  0  0  0  0  0
  189.1100  174.0250  141.5770 C   0  0  0  0  0  3  0  0  0  0  0  0
  185.2780  177.0850  145.7450 C   0  0  1  0  0  3  0  0  0  0  0  0
  185.5660  180.5410  144.2620 O   0  0  0  0  0  1  0  0  0  0  0  0
  184.3850  176.5890  146.6940 O   0  0  0  0  0  1  0  0  0  0  0  0
  186.4900  178.5180  143.3820 C   0  0  0  0  0  2  0  0  0  0  0  0
  187.7840  177.1030  145.0850 C   0  0  1  0  0  3  0  0  0  0  0  0
  184.9650  178.5570  145.4470 C   0  0  0  0  0  2  0  0  0  0  0  0
  187.1980  177.1840  143.6700 C   0  0  0  0  0  2  0  0  0  0  0  0
  186.7310  176.7920  146.1640 C   0  0  1  0  0  3  0  0  0  0  0  0
  187.1000  177.4860  147.4670 C   0  0  0  0  0  1  0  0  0  0  0  0
  186.0370  179.2820  144.6310 C   0  0  2  0  0  3  0  0  0  0  0  0
  195.1840  175.2050  144.0890 C   0  0  0  0  0  2  0  0  0  0  0  0
  196.0020  176.3210  143.8980 O   0  0  0  0  0  1  0  0  0  0  0  0
  1  3  1  0  0  0  0
  2  4  1  1  0  0  0
  3 18  2  0  0  0  0
  4  1  2  0  0  0  0
  4 10  1  0  0  0  0
  5 11  1  6  0  0  0
  5  2  1  0  0  0  0
  5 17  1  0  0  0  0
  6 20  1  0  0  0  0
  7 16  1  6  0  0  0
  7 14  1  0  0  0  0
  7  2  1  0  0  0  0
  8  9  2  0  0  0  0
  9 16  1  0  0  0  0
  9 11  1  0  0  0  0
 10 13  2  0  0  0  0
 12 10  1  0  0  0  0
 13 18  1  0  0  0  0
 14 15  1  0  0  0  0
 15  1  1  0  0  0  0
 17 31  1  1  0  0  0
 17 12  1  0  0  0  0
 19  6  2  0  0  0  0
 19  8  1  0  0  0  0
 20 16  2  0  0  0  0
 21 28  1  0  0  0  0
 21 23  1  1  0  0  0
 24 27  1  0  0  0  0
 24 30  1  0  0  0  0
 25 27  1  6  0  0  0
 25 15  1  0  0  0  0
 25 28  1  0  0  0  0
 26 21  1  0  0  0  0
 28 29  1  1  0  0  0
 30 22  1  6  0  0  0
 30 26  1  0  0  0  0
 32 31  1  0  0  0  0
M  END
>  <MODEL>
7

>  <REMARK>
 VINA RESULT:      -7.3      2.389      6.865
  Name = 
  2 active torsions:
  status: ('A' for Active; 'I' for Inactive)
    1  A    between atoms: C_13  and  C_29
    2  A    between atoms: C_16  and  N_27
                            x       y       z     vdW  Elec       q    Type
                         _______ _______ _______ _____ _____    ______ ____

>  <TORSDO>
F 2

$$$$
=
 OpenBabel11052419163D

 32 37  0  0  1  0  0  0  0  0999 V2000
  191.9090  175.0510  143.2590 C   0  0  0  0  0  0  0  0  0  0  0  0
  190.5830  176.3110  144.9500 C   0  0  2  0  0  3  0  0  0  0  0  0
  193.0580  174.4620  142.8260 N   0  0  0  0  0  0  0  0  0  0  0  0
  191.8750  175.6880  144.5040 C   0  0  0  0  0  0  0  0  0  0  0  0
  190.4270  176.5350  146.4840 C   0  0  1  0  0  3  0  0  0  0  0  0
  185.8410  176.9300  144.3200 C   0  0  0  0  0  3  0  0  0  0  0  0
  189.4130  175.5960  144.2500 C   0  0  2  0  0  3  0  0  0  0  0  0
  186.7340  176.9100  146.5740 C   0  0  0  0  0  3  0  0  0  0  0  0
  187.9470  176.4150  146.0900 C   0  0  0  0  0  0  0  0  0  0  0  0
  193.0150  175.6910  145.3110 C   0  0  0  0  0  0  0  0  0  0  0  0
  189.0640  176.0810  147.0370 C   0  0  0  0  0  2  0  0  0  0  0  0
  192.9540  176.2950  146.6770 C   0  0  0  0  0  2  0  0  0  0  0  0
  194.1920  175.1050  144.8380 C   0  0  0  0  0  3  0  0  0  0  0  0
  189.6050  175.7160  142.8570 O   0  0  0  0  0  0  0  0  0  0  0  0
  190.6660  174.9070  142.5440 N   0  0  0  0  0  0  0  0  0  0  0  0
  188.1110  176.1750  144.7140 C   0  0  0  0  0  0  0  0  0  0  0  0
  191.5990  175.9900  147.3240 C   0  0  1  0  0  3  0  0  0  0  0  0
  194.1940  174.4940  143.5780 C   0  0  0  0  0  3  0  0  0  0  0  0
  185.6830  177.1740  145.6880 C   0  0  0  0  0  3  0  0  0  0  0  0
  187.0500  176.4250  143.8320 C   0  0  0  0  0  3  0  0  0  0  0  0
  191.3020  171.3260  141.6080 C   0  0  1  0  0  3  0  0  0  0  0  0
  189.4650  171.4640  138.3170 O   0  0  0  0  0  1  0  0  0  0  0  0
  191.5760  170.2370  142.4360 O   0  0  0  0  0  1  0  0  0  0  0  0
  190.9470  173.1180  139.2060 C   0  0  0  0  0  2  0  0  0  0  0  0
  190.4740  173.7810  141.6380 C   0  0  1  0  0  3  0  0  0  0  0  0
  190.5470  170.8580  140.3580 C   0  0  0  0  0  2  0  0  0  0  0  0
  191.4250  173.8990  140.4400 C   0  0  0  0  0  2  0  0  0  0  0  0
  190.6210  172.4540  142.4050 C   0  0  1  0  0  3  0  0  0  0  0  0
  189.2740  172.0240  142.9650 C   0  0  0  0  0  1  0  0  0  0  0  0
  189.9570  171.9880  139.5110 C   0  0  2  0  0  3  0  0  0  0  0  0
  191.5660  176.5340  148.7500 C   0  0  0  0  0  2  0  0  0  0  0  0
  191.3750  177.9180  148.7500 O   0  0  0  0  0  1  0  0  0  0  0  0
  1  4  1  0  0  0  0
  2  4  1  1  0  0  0
  2  5  1  0  0  0  0
  3  1  2  0  0  0  0
  3 18  1  0  0  0  0
  4 10  2  0  0  0  0
  5 11  1  1  0  0  0
  5 17  1  0  0  0  0
  6 19  1  0  0  0  0
  7 14  1  6  0  0  0
  7 16  1  0  0  0  0
  7  2  1  0  0  0  0
  9  8  1  0  0  0  0
  9 11  1  0  0  0  0
 10 12  1  0  0  0  0
 12 17  1  0  0  0  0
 13 10  1  0  0  0  0
 15 14  1  0  0  0  0
 15  1  1  0  0  0  0
 16  9  2  0  0  0  0
 17 31  1  1  0  0  0
 18 13  2  0  0  0  0
 19  8  2  0  0  0  0
 20  6  2  0  0  0  0
 20 16  1  0  0  0  0
 21 28  1  0  0  0  0
 21 23  1  1  0  0  0
 24 30  1  0  0  0  0
 24 27  1  0  0  0  0
 25 27  1  6  0  0  0
 25 28  1  0  0  0  0
 25 15  1  0  0  0  0
 26 21  1  0  0  0  0
 28 29  1  6  0  0  0
 30 22  1  6  0  0  0
 30 26  1  0  0  0  0
 31 32  1  0  0  0  0
M  END
>  <MODEL>
8

>  <REMARK>
 VINA RESULT:      -7.3      2.041      4.019
  Name = 
  2 active torsions:
  status: ('A' for Active; 'I' for Inactive)
    1  A    between atoms: C_13  and  C_29
    2  A    between atoms: C_16  and  N_27
                            x       y       z     vdW  Elec       q    Type
                         _______ _______ _______ _____ _____    ______ ____

>  <TORSDO>
F 2

$$$$
=
 OpenBabel11052419163D

 32 37  0  0  1  0  0  0  0  0999 V2000
  189.8800  173.9720  143.7710 C   0  0  0  0  0  0  0  0  0  0  0  0
  188.0660  174.6710  142.2130 C   0  0  2  0  0  3  0  0  0  0  0  0
  190.9840  173.2370  144.0810 N   0  0  0  0  0  0  0  0  0  0  0  0
  189.2710  173.8280  142.5200 C   0  0  0  0  0  0  0  0  0  0  0  0
  187.7420  174.8740  140.7040 C   0  0  1  0  0  3  0  0  0  0  0  0
  185.1590  178.3360  143.3900 C   0  0  0  0  0  3  0  0  0  0  0  0
  188.1160  175.9490  143.0710 C   0  0  2  0  0  3  0  0  0  0  0  0
  185.5500  177.8520  141.0470 C   0  0  0  0  0  3  0  0  0  0  0  0
  186.6060  177.0080  141.3970 C   0  0  0  0  0  0  0  0  0  0  0  0
  189.8170  172.9480  141.5830 C   0  0  0  0  0  0  0  0  0  0  0  0
  187.4250  176.3340  140.3330 C   0  0  0  0  0  2  0  0  0  0  0  0
  189.2180  172.8580  140.2160 C   0  0  0  0  0  2  0  0  0  0  0  0
  190.9320  172.1820  141.9280 C   0  0  0  0  0  3  0  0  0  0  0  0
  188.1580  175.5580  144.4270 O   0  0  0  0  0  0  0  0  0  0  0  0
  189.4020  175.0220  144.6350 N   0  0  0  0  0  0  0  0  0  0  0  0
  186.9430  176.8240  142.7490 C   0  0  0  0  0  0  0  0  0  0  0  0
  188.7740  174.2480  139.7460 C   0  0  1  0  0  3  0  0  0  0  0  0
  191.5040  172.3390  143.1970 C   0  0  0  0  0  3  0  0  0  0  0  0
  184.8220  178.5110  142.0430 C   0  0  0  0  0  3  0  0  0  0  0  0
  186.2220  177.5000  143.7440 C   0  0  0  0  0  3  0  0  0  0  0  0
  192.8830  175.8810  145.7530 C   0  0  1  0  0  3  0  0  0  0  0  0
  191.8490  177.4870  149.0050 O   0  0  0  0  0  1  0  0  0  0  0  0
  194.0290  176.0760  144.9820 O   0  0  0  0  0  1  0  0  0  0  0  0
  190.9810  175.4680  148.0590 C   0  0  0  0  0  2  0  0  0  0  0  0
  190.3080  175.6470  145.5910 C   0  0  1  0  0  3  0  0  0  0  0  0
  192.9430  176.7540  147.0130 C   0  0  0  0  0  2  0  0  0  0  0  0
  190.5230  174.7220  146.7960 C   0  0  0  0  0  2  0  0  0  0  0  0
  191.6170  176.0540  144.8920 C   0  0  1  0  0  3  0  0  0  0  0  0
  191.4940  177.4630  144.3330 C   0  0  0  0  0  1  0  0  0  0  0  0
  191.6300  176.8320  147.7950 C   0  0  2  0  0  3  0  0  0  0  0  0
  188.2390  174.1710  138.3180 C   0  0  0  0  0  2  0  0  0  0  0  0
  189.2770  173.9440  137.4110 O   0  0  0  0  0  1  0  0  0  0  0  0
  1  3  1  0  0  0  0
  1 15  1  0  0  0  0
  2  4  1  6  0  0  0
  2  7  1  0  0  0  0
  4  1  2  0  0  0  0
  5 11  1  1  0  0  0
  5  2  1  0  0  0  0
  6 20  1  0  0  0  0
  7 16  1  1  0  0  0
  7 14  1  0  0  0  0
  8  9  2  0  0  0  0
  8 19  1  0  0  0  0
  9 16  1  0  0  0  0
 10 13  2  0  0  0  0
 10  4  1  0  0  0  0
 11  9  1  0  0  0  0
 12 10  1  0  0  0  0
 13 18  1  0  0  0  0
 14 15  1  0  0  0  0
 16 20  2  0  0  0  0
 17 31  1  6  0  0  0
 17 12  1  0  0  0  0
 17  5  1  0  0  0  0
 18  3  2  0  0  0  0
 19  6  2  0  0  0  0
 21 23  1  6  0  0  0
 21 26  1  0  0  0  0
 25 15  1  6  0  0  0
 25 27  1  0  0  0  0
 26 30  1  0  0  0  0
 27 24  1  0  0  0  0
 28 29  1  1  0  0  0
 28 25  1  0  0  0  0
 28 21  1  0  0  0  0
 30 24  1  0  0  0  0
 30 22  1  1  0  0  0
 32 31  1  0  0  0  0
M  END
>  <MODEL>
9

>  <REMARK>
 VINA RESULT:      -7.2      2.238      5.736
  Name = 
  2 active torsions:
  status: ('A' for Active; 'I' for Inactive)
    1  A    between atoms: C_13  and  C_29
    2  A    between atoms: C_16  and  N_27
                            x       y       z     vdW  Elec       q    Type
                         _______ _______ _______ _____ _____    ______ ____

>  <TORSDO>
F 2

$$$$
