=
 OpenBabel11052419153D

 32 37  0  0  1  0  0  0  0  0999 V2000
  189.3650  175.2110  143.2490 C   0  0  0  0  0  0  0  0  0  0  0  0
  187.3860  176.1440  144.1510 N   0  0  0  0  0  0  0  0  0  0  0  0
  190.1740  174.8900  142.0120 C   0  0  0  0  0  2  0  0  0  0  0  0
  188.0860  175.5490  143.1040 C   0  0  0  0  0  0  0  0  0  0  0  0
  186.3110  176.8340  143.5570 C   0  0  0  0  0  0  0  0  0  0  0  0
  186.8350  178.8160  148.1710 C   0  0  0  0  0  3  0  0  0  0  0  0
  188.0090  176.5860  145.3410 C   0  0  0  0  0  0  0  0  0  0  0  0
  185.2920  178.9990  146.3070 C   0  0  0  0  0  3  0  0  0  0  0  0
  186.0540  178.0840  145.5750 C   0  0  0  0  0  0  0  0  0  0  0  0
  187.4310  175.7040  141.8540 N   0  0  0  0  0  0  0  0  0  0  0  0
  185.6790  177.7650  144.2120 N   0  0  0  0  0  0  0  0  0  0  0  0
  188.1430  175.4780  140.5970 C   0  0  0  0  0  2  0  0  0  0  0  0
  189.2860  176.2290  145.5510 C   0  0  0  0  0  3  0  0  0  0  0  0
  189.9820  175.4380  144.5490 N   0  0  0  0  0  0  0  0  0  0  0  0
  187.2310  177.5340  146.1580 C   0  0  0  0  0  0  0  0  0  0  0  0
  186.2540  176.5720  142.0640 C   0  0  2  0  0  3  0  0  0  0  0  0
  189.2850  174.4740  140.8220 C   0  0  0  0  0  2  0  0  0  0  0  0
  185.6790  179.3590  147.6020 C   0  0  0  0  0  3  0  0  0  0  0  0
  187.6150  177.9060  147.4500 C   0  0  0  0  0  3  0  0  0  0  0  0
  193.0230  173.3060  145.1440 C   0  0  0  0  0  0  0  0  0  0  0  0
  193.3930  171.9690  145.2250 O   0  0  0  0  0  1  0  0  0  0  0  0
  192.3190  176.0080  145.0030 C   0  0  0  0  0  3  0  0  0  0  0  0
  193.9930  174.2950  145.3210 C   0  0  0  0  0  3  0  0  0  0  0  0
  191.3340  175.0300  144.8110 C   0  0  0  0  0  0  0  0  0  0  0  0
  191.6870  173.6650  144.8930 C   0  0  0  0  0  0  0  0  0  0  0  0
  190.6510  172.5950  144.7620 C   0  0  0  0  0  1  0  0  0  0  0  0
  193.6440  175.6480  145.2560 C   0  0  0  0  0  0  0  0  0  0  0  0
  194.6340  177.4380  146.4650 O   0  0  0  0  0  0  0  0  0  0  0  0
  194.6480  176.6980  145.4460 C   0  0  0  0  0  3  0  0  0  0  0  0
  186.4190  177.8760  141.2910 C   0  0  0  0  0  2  0  0  0  0  0  0
  185.4710  177.9260  140.1930 N   0  0  0  0  0  2  0  0  0  0  0  0
  184.1940  178.3130  140.7620 C   0  0  0  0  0  1  0  0  0  0  0  0
  1 14  1  0  0  0  0
  2  7  1  0  0  0  0
  3  1  1  0  0  0  0
  4  1  2  0  0  0  0
  4  2  1  0  0  0  0
  5  2  1  0  0  0  0
  5 11  2  0  0  0  0
  7 13  2  0  0  0  0
  7 15  1  0  0  0  0
  8 18  2  0  0  0  0
  9 15  2  0  0  0  0
  9  8  1  0  0  0  0
 10 16  1  0  0  0  0
 10  4  1  0  0  0  0
 11  9  1  0  0  0  0
 12 17  1  0  0  0  0
 12 10  1  0  0  0  0
 14 24  1  0  0  0  0
 14 13  1  0  0  0  0
 15 19  1  0  0  0  0
 16 30  1  6  0  0  0
 16  5  1  0  0  0  0
 17  3  1  0  0  0  0
 18  6  1  0  0  0  0
 19  6  2  0  0  0  0
 20 21  1  0  0  0  0
 20 23  1  0  0  0  0
 22 27  1  0  0  0  0
 24 25  1  0  0  0  0
 24 22  2  0  0  0  0
 25 20  2  0  0  0  0
 26 25  1  0  0  0  0
 27 23  2  0  0  0  0
 27 29  1  0  0  0  0
 29 28  2  0  0  0  0
 31 32  1  0  0  0  0
 31 30  1  0  0  0  0
M  END
>  <MODEL>
1

>  <REMARK>
 VINA RESULT:      -8.0      0.000      0.000
  Name = 
  4 active torsions:
  status: ('A' for Active; 'I' for Inactive)
    1  A    between atoms: N_13  and  C_18
    2  A    between atoms: C_15  and  C_26
    3  A    between atoms: C_18  and  C_29
    4  A    between atoms: C_20  and  N_27
                            x       y       z     vdW  Elec       q    Type
                         _______ _______ _______ _____ _____    ______ ____

>  <TORSDO>
F 4

$$$$
=
 OpenBabel11052419153D

 32 37  0  0  1  0  0  0  0  0999 V2000
  189.1860  174.8820  142.7180 C   0  0  0  0  0  0  0  0  0  0  0  0
  191.5220  174.5720  142.9400 N   0  0  0  0  0  0  0  0  0  0  0  0
  187.8540  174.2870  142.3180 C   0  0  0  0  0  2  0  0  0  0  0  0
  190.3000  174.2530  142.3520 C   0  0  0  0  0  0  0  0  0  0  0  0
  192.3450  173.4450  142.7600 C   0  0  0  0  0  0  0  0  0  0  0  0
  194.4790  176.1340  146.4630 C   0  0  0  0  0  3  0  0  0  0  0  0
  191.6360  175.4290  144.0590 C   0  0  0  0  0  0  0  0  0  0  0  0
  195.0040  174.1620  145.1500 C   0  0  0  0  0  3  0  0  0  0  0  0
  193.7910  174.2840  144.4660 C   0  0  0  0  0  0  0  0  0  0  0  0
  190.3340  173.0100  141.6680 N   0  0  0  0  0  0  0  0  0  0  0  0
  193.4160  173.2860  143.4850 N   0  0  0  0  0  0  0  0  0  0  0  0
  189.1010  172.3220  141.2910 C   0  0  0  0  0  2  0  0  0  0  0  0
  190.5490  176.1210  144.4350 C   0  0  0  0  0  3  0  0  0  0  0  0
  189.3020  175.9430  143.7080 N   0  0  0  0  0  0  0  0  0  0  0  0
  192.9090  175.3520  144.7970 C   0  0  0  0  0  0  0  0  0  0  0  0
  191.6550  172.3940  141.9140 C   0  0  2  0  0  3  0  0  0  0  0  0
  187.9730  173.3480  141.1000 C   0  0  0  0  0  2  0  0  0  0  0  0
  195.3480  175.0860  146.1410 C   0  0  0  0  0  3  0  0  0  0  0  0
  193.2580  176.2670  145.7960 C   0  0  0  0  0  3  0  0  0  0  0  0
  186.5130  178.4670  143.6750 C   0  0  0  0  0  0  0  0  0  0  0  0
  185.9770  179.4600  142.8630 O   0  0  0  0  0  1  0  0  0  0  0  0
  187.5650  176.4880  145.3460 C   0  0  0  0  0  3  0  0  0  0  0  0
  185.9260  178.2100  144.9160 C   0  0  0  0  0  3  0  0  0  0  0  0
  188.1600  176.7230  144.0990 C   0  0  0  0  0  0  0  0  0  0  0  0
  187.6350  177.7300  143.2600 C   0  0  0  0  0  0  0  0  0  0  0  0
  188.2850  178.0550  141.9530 C   0  0  0  0  0  1  0  0  0  0  0  0
  186.4520  177.2240  145.7570 C   0  0  0  0  0  0  0  0  0  0  0  0
  186.0740  177.6920  148.0560 O   0  0  0  0  0  0  0  0  0  0  0  0
  185.8530  176.9460  147.0650 C   0  0  0  0  0  3  0  0  0  0  0  0
  191.4910  171.1010  142.7060 C   0  0  0  0  0  2  0  0  0  0  0  0
  192.0710  169.9910  141.9700 N   0  0  0  0  0  2  0  0  0  0  0  0
  190.9720  169.1270  141.5840 C   0  0  0  0  0  1  0  0  0  0  0  0
  1 14  1  0  0  0  0
  2  7  1  0  0  0  0
  3  1  1  0  0  0  0
  4  1  2  0  0  0  0
  4  2  1  0  0  0  0
  5  2  1  0  0  0  0
  5 11  2  0  0  0  0
  7 13  2  0  0  0  0
  7 15  1  0  0  0  0
  8 18  2  0  0  0  0
  9 15  2  0  0  0  0
  9  8  1  0  0  0  0
 10 16  1  0  0  0  0
 10  4  1  0  0  0  0
 11  9  1  0  0  0  0
 12 10  1  0  0  0  0
 14 24  1  0  0  0  0
 14 13  1  0  0  0  0
 15 19  1  0  0  0  0
 16 30  1  1  0  0  0
 16  5  1  0  0  0  0
 17 12  1  0  0  0  0
 17  3  1  0  0  0  0
 18  6  1  0  0  0  0
 19  6  2  0  0  0  0
 20 23  1  0  0  0  0
 21 20  1  0  0  0  0
 22 27  1  0  0  0  0
 23 27  2  0  0  0  0
 24 22  2  0  0  0  0
 25 20  2  0  0  0  0
 25 24  1  0  0  0  0
 26 25  1  0  0  0  0
 27 29  1  0  0  0  0
 29 28  2  0  0  0  0
 31 30  1  0  0  0  0
 32 31  1  0  0  0  0
M  END
>  <MODEL>
2

>  <REMARK>
 VINA RESULT:      -7.6      3.201      7.120
  Name = 
  4 active torsions:
  status: ('A' for Active; 'I' for Inactive)
    1  A    between atoms: N_13  and  C_18
    2  A    between atoms: C_15  and  C_26
    3  A    between atoms: C_18  and  C_29
    4  A    between atoms: C_20  and  N_27
                            x       y       z     vdW  Elec       q    Type
                         _______ _______ _______ _____ _____    ______ ____

>  <TORSDO>
F 4

$$$$
=
 OpenBabel11052419153D

 32 37  0  0  1  0  0  0  0  0999 V2000
  189.1260  175.6740  142.8930 C   0  0  0  0  0  0  0  0  0  0  0  0
  191.4760  175.3970  142.8810 N   0  0  0  0  0  0  0  0  0  0  0  0
  187.7810  175.1740  142.4140 C   0  0  0  0  0  2  0  0  0  0  0  0
  190.2250  175.2190  142.2970 C   0  0  0  0  0  0  0  0  0  0  0  0
  192.3070  174.4010  142.3340 C   0  0  0  0  0  0  0  0  0  0  0  0
  194.6280  175.9720  146.5330 C   0  0  0  0  0  3  0  0  0  0  0  0
  191.6480  175.8950  144.1940 C   0  0  0  0  0  0  0  0  0  0  0  0
  195.1010  174.4870  144.6730 C   0  0  0  0  0  3  0  0  0  0  0  0
  193.8450  174.7600  144.1250 C   0  0  0  0  0  0  0  0  0  0  0  0
  190.2370  174.2300  141.2780 N   0  0  0  0  0  0  0  0  0  0  0  0
  193.4250  174.0770  142.9180 N   0  0  0  0  0  0  0  0  0  0  0  0
  188.9940  173.6370  140.7880 C   0  0  0  0  0  2  0  0  0  0  0  0
  190.5750  176.4080  144.8170 C   0  0  0  0  0  3  0  0  0  0  0  0
  189.2870  176.4050  144.1430 N   0  0  0  0  0  0  0  0  0  0  0  0
  192.9680  175.6520  144.8030 C   0  0  0  0  0  0  0  0  0  0  0  0
  191.5810  173.6170  141.2580 C   0  0  2  0  0  3  0  0  0  0  0  0
  187.8380  174.6340  140.9700 C   0  0  0  0  0  2  0  0  0  0  0  0
  195.4930  175.0960  145.8700 C   0  0  0  0  0  3  0  0  0  0  0  0
  193.3640  176.2490  146.0040 C   0  0  0  0  0  3  0  0  0  0  0  0
  186.6480  177.1680  146.7120 C   0  0  0  0  0  0  0  0  0  0  0  0
  186.2330  176.7590  147.9730 O   0  0  0  0  0  1  0  0  0  0  0  0
  187.4410  178.0130  144.1670 C   0  0  0  0  0  3  0  0  0  0  0  0
  185.9510  178.1890  146.0610 C   0  0  0  0  0  3  0  0  0  0  0  0
  188.1600  176.9960  144.8090 C   0  0  0  0  0  0  0  0  0  0  0  0
  187.7530  176.5620  146.0900 C   0  0  0  0  0  0  0  0  0  0  0  0
  188.4530  175.4320  146.7750 C   0  0  0  0  0  1  0  0  0  0  0  0
  186.3420  178.6120  144.7860 C   0  0  0  0  0  0  0  0  0  0  0  0
  184.3750  179.8220  144.2270 O   0  0  0  0  0  0  0  0  0  0  0  0
  185.6180  179.6760  144.0870 C   0  0  0  0  0  3  0  0  0  0  0  0
  191.4920  172.1450  141.6450 C   0  0  0  0  0  2  0  0  0  0  0  0
  191.9850  171.3150  140.5590 N   0  0  0  0  0  2  0  0  0  0  0  0
  190.9100  170.4070  140.2090 C   0  0  0  0  0  1  0  0  0  0  0  0
  1 14  1  0  0  0  0
  2  7  1  0  0  0  0
  3  1  1  0  0  0  0
  4  2  1  0  0  0  0
  4  1  2  0  0  0  0
  5  2  1  0  0  0  0
  5 11  2  0  0  0  0
  7 15  1  0  0  0  0
  7 13  2  0  0  0  0
  8 18  1  0  0  0  0
  9  8  2  0  0  0  0
  9 15  1  0  0  0  0
 10  4  1  0  0  0  0
 11  9  1  0  0  0  0
 12 17  1  0  0  0  0
 12 10  1  0  0  0  0
 14 24  1  0  0  0  0
 14 13  1  0  0  0  0
 15 19  2  0  0  0  0
 16 10  1  0  0  0  0
 16 30  1  1  0  0  0
 16  5  1  0  0  0  0
 17  3  1  0  0  0  0
 18  6  2  0  0  0  0
 19  6  1  0  0  0  0
 20 21  1  0  0  0  0
 22 27  2  0  0  0  0
 22 24  1  0  0  0  0
 23 20  2  0  0  0  0
 24 25  2  0  0  0  0
 25 20  1  0  0  0  0
 25 26  1  0  0  0  0
 27 23  1  0  0  0  0
 29 28  2  0  0  0  0
 29 27  1  0  0  0  0
 31 30  1  0  0  0  0
 32 31  1  0  0  0  0
M  END
>  <MODEL>
3

>  <REMARK>
 VINA RESULT:      -7.5      3.200      6.867
  Name = 
  4 active torsions:
  status: ('A' for Active; 'I' for Inactive)
    1  A    between atoms: N_13  and  C_18
    2  A    between atoms: C_15  and  C_26
    3  A    between atoms: C_18  and  C_29
    4  A    between atoms: C_20  and  N_27
                            x       y       z     vdW  Elec       q    Type
                         _______ _______ _______ _____ _____    ______ ____

>  <TORSDO>
F 4

$$$$
=
 OpenBabel11052419153D

 32 37  0  0  1  0  0  0  0  0999 V2000
  189.5960  175.2250  143.2560 C   0  0  0  0  0  0  0  0  0  0  0  0
  187.6080  176.0800  144.2120 N   0  0  0  0  0  0  0  0  0  0  0  0
  190.3710  174.9080  141.9950 C   0  0  0  0  0  2  0  0  0  0  0  0
  188.2960  175.4910  143.1550 C   0  0  0  0  0  0  0  0  0  0  0  0
  186.4750  176.6940  143.6430 C   0  0  0  0  0  0  0  0  0  0  0  0
  187.0770  178.8440  148.1720 C   0  0  0  0  0  3  0  0  0  0  0  0
  188.2540  176.5910  145.3610 C   0  0  0  0  0  0  0  0  0  0  0  0
  185.4530  178.8870  146.3700 C   0  0  0  0  0  3  0  0  0  0  0  0
  186.2320  177.9920  145.6340 C   0  0  0  0  0  0  0  0  0  0  0  0
  187.5840  175.5720  141.9290 N   0  0  0  0  0  0  0  0  0  0  0  0
  185.8210  177.6110  144.2970 N   0  0  0  0  0  0  0  0  0  0  0  0
  188.2560  175.3440  140.6510 C   0  0  0  0  0  2  0  0  0  0  0  0
  189.5560  176.3080  145.5290 C   0  0  0  0  0  3  0  0  0  0  0  0
  190.2520  175.5240  144.5210 N   0  0  0  0  0  0  0  0  0  0  0  0
  187.4600  177.5220  146.1820 C   0  0  0  0  0  0  0  0  0  0  0  0
  186.3720  176.3830  142.1630 C   0  0  2  0  0  3  0  0  0  0  0  0
  189.4580  174.4090  140.8570 C   0  0  0  0  0  2  0  0  0  0  0  0
  185.8710  179.3070  147.6360 C   0  0  0  0  0  3  0  0  0  0  0  0
  187.8750  177.9540  147.4460 C   0  0  0  0  0  3  0  0  0  0  0  0
  193.9840  175.8200  144.8790 C   0  0  0  0  0  0  0  0  0  0  0  0
  194.9950  176.7710  144.8040 O   0  0  0  0  0  1  0  0  0  0  0  0
  191.9860  173.8700  145.0250 C   0  0  0  0  0  3  0  0  0  0  0  0
  194.3150  174.4950  145.1750 C   0  0  0  0  0  3  0  0  0  0  0  0
  191.6340  175.1960  144.7380 C   0  0  0  0  0  0  0  0  0  0  0  0
  192.6440  176.1790  144.6540 C   0  0  0  0  0  0  0  0  0  0  0  0
  192.3140  177.5890  144.2820 C   0  0  0  0  0  1  0  0  0  0  0  0
  193.3180  173.5160  145.2450 C   0  0  0  0  0  0  0  0  0  0  0  0
  193.5470  171.2210  144.6720 O   0  0  0  0  0  0  0  0  0  0  0  0
  193.6480  172.1210  145.5480 C   0  0  0  0  0  3  0  0  0  0  0  0
  186.4350  177.6690  141.3460 C   0  0  0  0  0  2  0  0  0  0  0  0
  185.3720  177.6830  140.3570 N   0  0  0  0  0  2  0  0  0  0  0  0
  184.2090  178.2580  141.0050 C   0  0  0  0  0  1  0  0  0  0  0  0
  1 14  1  0  0  0  0
  2  7  1  0  0  0  0
  3  1  1  0  0  0  0
  4  1  2  0  0  0  0
  4  2  1  0  0  0  0
  5  2  1  0  0  0  0
  5 11  2  0  0  0  0
  7 13  2  0  0  0  0
  7 15  1  0  0  0  0
  8 18  2  0  0  0  0
  9 15  2  0  0  0  0
  9  8  1  0  0  0  0
 10 16  1  0  0  0  0
 10  4  1  0  0  0  0
 11  9  1  0  0  0  0
 12 17  1  0  0  0  0
 12 10  1  0  0  0  0
 14 24  1  0  0  0  0
 14 13  1  0  0  0  0
 15 19  1  0  0  0  0
 16 30  1  6  0  0  0
 16  5  1  0  0  0  0
 17  3  1  0  0  0  0
 18  6  1  0  0  0  0
 19  6  2  0  0  0  0
 20 23  1  0  0  0  0
 21 20  1  0  0  0  0
 22 27  1  0  0  0  0
 23 27  2  0  0  0  0
 24 22  2  0  0  0  0
 25 24  1  0  0  0  0
 25 20  2  0  0  0  0
 26 25  1  0  0  0  0
 27 29  1  0  0  0  0
 28 29  2  0  0  0  0
 31 32  1  0  0  0  0
 31 30  1  0  0  0  0
M  END
>  <MODEL>
4

>  <REMARK>
 VINA RESULT:      -7.4      0.601      2.123
  Name = 
  4 active torsions:
  status: ('A' for Active; 'I' for Inactive)
    1  A    between atoms: N_13  and  C_18
    2  A    between atoms: C_15  and  C_26
    3  A    between atoms: C_18  and  C_29
    4  A    between atoms: C_20  and  N_27
                            x       y       z     vdW  Elec       q    Type
                         _______ _______ _______ _____ _____    ______ ____

>  <TORSDO>
F 4

$$$$
=
 OpenBabel11052419153D

 32 37  0  0  1  0  0  0  0  0999 V2000
  189.4260  175.2990  144.7550 C   0  0  0  0  0  0  0  0  0  0  0  0
  187.9960  177.0100  143.9620 N   0  0  0  0  0  0  0  0  0  0  0  0
  189.8070  174.3840  145.8980 C   0  0  0  0  0  2  0  0  0  0  0  0
  188.6200  176.3280  145.0040 C   0  0  0  0  0  0  0  0  0  0  0  0
  186.8680  177.6350  144.5270 C   0  0  0  0  0  0  0  0  0  0  0  0
  186.0380  177.5400  139.5480 C   0  0  0  0  0  3  0  0  0  0  0  0
  188.0260  176.5610  142.6210 C   0  0  0  0  0  0  0  0  0  0  0  0
  184.9830  178.4760  141.5220 C   0  0  0  0  0  3  0  0  0  0  0  0
  185.9750  177.9140  142.3300 C   0  0  0  0  0  0  0  0  0  0  0  0
  188.0230  176.5960  146.2630 N   0  0  0  0  0  0  0  0  0  0  0  0
  185.8960  178.0560  143.7700 N   0  0  0  0  0  0  0  0  0  0  0  0
  188.2780  175.7360  147.4170 C   0  0  0  0  0  2  0  0  0  0  0  0
  188.8600  175.5540  142.3140 C   0  0  0  0  0  3  0  0  0  0  0  0
  189.6680  174.9510  143.3610 N   0  0  0  0  0  0  0  0  0  0  0  0
  187.0120  177.1460  141.7270 C   0  0  0  0  0  0  0  0  0  0  0  0
  186.8320  177.4380  146.0300 C   0  0  2  0  0  3  0  0  0  0  0  0
  189.6550  175.0690  147.2710 C   0  0  0  0  0  2  0  0  0  0  0  0
  185.0180  178.2950  140.1360 C   0  0  0  0  0  3  0  0  0  0  0  0
  187.0340  176.9620  140.3400 C   0  0  0  0  0  3  0  0  0  0  0  0
  191.0580  171.6090  142.3380 C   0  0  0  0  0  0  0  0  0  0  0  0
  190.6320  170.3250  142.0170 O   0  0  0  0  0  1  0  0  0  0  0  0
  191.9600  174.1730  142.9900 C   0  0  0  0  0  3  0  0  0  0  0  0
  192.4240  171.9000  142.3160 C   0  0  0  0  0  3  0  0  0  0  0  0
  190.5850  173.9030  143.0060 C   0  0  0  0  0  0  0  0  0  0  0  0
  190.1300  172.6050  142.6870 C   0  0  0  0  0  0  0  0  0  0  0  0
  188.6760  172.2620  142.7600 C   0  0  0  0  0  1  0  0  0  0  0  0
  192.8790  173.1800  142.6460 C   0  0  0  0  0  0  0  0  0  0  0  0
  194.8130  174.2650  143.4990 O   0  0  0  0  0  0  0  0  0  0  0  0
  194.3090  173.5010  142.6340 C   0  0  0  0  0  3  0  0  0  0  0  0
  185.5700  176.6840  146.4340 C   0  0  0  0  0  2  0  0  0  0  0  0
  184.5550  177.6190  146.8880 N   0  0  0  0  0  2  0  0  0  0  0  0
  185.2480  178.6650  147.6150 C   0  0  0  0  0  1  0  0  0  0  0  0
  1  4  2  0  0  0  0
  1  3  1  0  0  0  0
  2  5  1  0  0  0  0
  2  4  1  0  0  0  0
  3 17  1  0  0  0  0
  4 10  1  0  0  0  0
  5 16  1  0  0  0  0
  6 18  2  0  0  0  0
  6 19  1  0  0  0  0
  7  2  1  0  0  0  0
  8  9  2  0  0  0  0
  9 11  1  0  0  0  0
 10 12  1  0  0  0  0
 11  5  2  0  0  0  0
 13  7  2  0  0  0  0
 13 14  1  0  0  0  0
 14  1  1  0  0  0  0
 15  9  1  0  0  0  0
 15  7  1  0  0  0  0
 16 10  1  0  0  0  0
 16 30  1  6  0  0  0
 17 12  1  0  0  0  0
 18  8  1  0  0  0  0
 19 15  2  0  0  0  0
 20 25  1  0  0  0  0
 21 20  1  0  0  0  0
 22 24  1  0  0  0  0
 23 20  2  0  0  0  0
 23 27  1  0  0  0  0
 24 14  1  0  0  0  0
 25 26  1  0  0  0  0
 25 24  2  0  0  0  0
 27 22  2  0  0  0  0
 29 27  1  0  0  0  0
 29 28  2  0  0  0  0
 30 31  1  0  0  0  0
 31 32  1  0  0  0  0
M  END
>  <MODEL>
5

>  <REMARK>
 VINA RESULT:      -7.4      2.106      4.562
  Name = 
  4 active torsions:
  status: ('A' for Active; 'I' for Inactive)
    1  A    between atoms: N_13  and  C_18
    2  A    between atoms: C_15  and  C_26
    3  A    between atoms: C_18  and  C_29
    4  A    between atoms: C_20  and  N_27
                            x       y       z     vdW  Elec       q    Type
                         _______ _______ _______ _____ _____    ______ ____

>  <TORSDO>
F 4

$$$$
=
 OpenBabel11052419153D

 32 37  0  0  1  0  0  0  0  0999 V2000
  190.1600  175.4120  144.4640 C   0  0  0  0  0  0  0  0  0  0  0  0
  188.6090  177.1090  143.9020 N   0  0  0  0  0  0  0  0  0  0  0  0
  190.7330  174.5140  145.5380 C   0  0  0  0  0  2  0  0  0  0  0  0
  189.4020  176.4420  144.8320 C   0  0  0  0  0  0  0  0  0  0  0  0
  187.5880  177.7370  144.6410 C   0  0  0  0  0  0  0  0  0  0  0  0
  185.9340  177.5750  139.8730 C   0  0  0  0  0  3  0  0  0  0  0  0
  188.4150  176.6420  142.5810 C   0  0  0  0  0  0  0  0  0  0  0  0
  185.2200  178.5330  141.9860 C   0  0  0  0  0  3  0  0  0  0  0  0
  186.3370  177.9840  142.6220 C   0  0  0  0  0  0  0  0  0  0  0  0
  189.0240  176.7250  146.1710 N   0  0  0  0  0  0  0  0  0  0  0  0
  186.5000  178.1450  144.0530 N   0  0  0  0  0  0  0  0  0  0  0  0
  189.4740  175.8800  147.2760 C   0  0  0  0  0  2  0  0  0  0  0  0
  189.1910  175.6340  142.1500 C   0  0  0  0  0  3  0  0  0  0  0  0
  190.1670  175.0470  143.0540 N   0  0  0  0  0  0  0  0  0  0  0  0
  187.2620  177.2130  141.8630 C   0  0  0  0  0  0  0  0  0  0  0  0
  187.8060  177.5600  146.1310 C   0  0  2  0  0  3  0  0  0  0  0  0
  190.8110  175.2160  146.9090 C   0  0  0  0  0  2  0  0  0  0  0  0
  185.0230  178.3340  140.6160 C   0  0  0  0  0  3  0  0  0  0  0  0
  187.0520  177.0110  140.4950 C   0  0  0  0  0  3  0  0  0  0  0  0
  193.1520  173.2000  141.7030 C   0  0  0  0  0  0  0  0  0  0  0  0
  194.4680  173.4290  141.3180 O   0  0  0  0  0  1  0  0  0  0  0  0
  190.5060  172.6980  142.4530 C   0  0  0  0  0  3  0  0  0  0  0  0
  192.6290  171.9080  141.6130 C   0  0  0  0  0  3  0  0  0  0  0  0
  191.0170  173.9980  142.5620 C   0  0  0  0  0  0  0  0  0  0  0  0
  192.3500  174.2540  142.1730 C   0  0  0  0  0  0  0  0  0  0  0  0
  192.9070  175.6410  142.2110 C   0  0  0  0  0  1  0  0  0  0  0  0
  191.3050  171.6530  141.9830 C   0  0  0  0  0  0  0  0  0  0  0  0
  190.7340  169.6750  140.7980 O   0  0  0  0  0  0  0  0  0  0  0  0
  190.7380  170.3060  141.8880 C   0  0  0  0  0  3  0  0  0  0  0  0
  186.6340  176.8070  146.7510 C   0  0  0  0  0  2  0  0  0  0  0  0
  186.0860  177.5660  147.8610 N   0  0  0  0  0  2  0  0  0  0  0  0
  185.0070  178.3720  147.3220 C   0  0  0  0  0  1  0  0  0  0  0  0
  1  4  2  0  0  0  0
  1  3  1  0  0  0  0
  2  5  1  0  0  0  0
  2  4  1  0  0  0  0
  3 17  1  0  0  0  0
  4 10  1  0  0  0  0
  5 16  1  0  0  0  0
  6 19  2  0  0  0  0
  6 18  1  0  0  0  0
  7  2  1  0  0  0  0
  8  9  1  0  0  0  0
  9 11  1  0  0  0  0
 10 12  1  0  0  0  0
 11  5  2  0  0  0  0
 13  7  2  0  0  0  0
 13 14  1  0  0  0  0
 14  1  1  0  0  0  0
 15  7  1  0  0  0  0
 15  9  2  0  0  0  0
 16 10  1  0  0  0  0
 16 30  1  6  0  0  0
 17 12  1  0  0  0  0
 18  8  2  0  0  0  0
 19 15  1  0  0  0  0
 20 25  1  0  0  0  0
 21 20  1  0  0  0  0
 22 24  1  0  0  0  0
 23 20  2  0  0  0  0
 23 27  1  0  0  0  0
 24 14  1  0  0  0  0
 25 26  1  0  0  0  0
 25 24  2  0  0  0  0
 27 22  2  0  0  0  0
 28 29  2  0  0  0  0
 29 27  1  0  0  0  0
 30 31  1  0  0  0  0
 32 31  1  0  0  0  0
M  END
>  <MODEL>
6

>  <REMARK>
 VINA RESULT:      -7.3      2.352      5.141
  Name = 
  4 active torsions:
  status: ('A' for Active; 'I' for Inactive)
    1  A    between atoms: N_13  and  C_18
    2  A    between atoms: C_15  and  C_26
    3  A    between atoms: C_18  and  C_29
    4  A    between atoms: C_20  and  N_27
                            x       y       z     vdW  Elec       q    Type
                         _______ _______ _______ _____ _____    ______ ____

>  <TORSDO>
F 4

$$$$
=
 OpenBabel11052419153D

 32 37  0  0  1  0  0  0  0  0999 V2000
  191.8820  174.9990  145.5070 C   0  0  0  0  0  0  0  0  0  0  0  0
  192.6670  172.8630  144.8530 N   0  0  0  0  0  0  0  0  0  0  0  0
  192.2280  176.4160  145.9080 C   0  0  0  0  0  2  0  0  0  0  0  0
  192.8500  174.0850  145.4970 C   0  0  0  0  0  0  0  0  0  0  0  0
  193.9560  172.3800  144.5630 C   0  0  0  0  0  0  0  0  0  0  0  0
  190.8160  169.8210  141.5490 C   0  0  0  0  0  3  0  0  0  0  0  0
  191.5470  172.5850  144.0350 C   0  0  0  0  0  0  0  0  0  0  0  0
  193.1750  169.7880  142.1210 C   0  0  0  0  0  3  0  0  0  0  0  0
  192.9890  170.8700  142.9860 C   0  0  0  0  0  0  0  0  0  0  0  0
  194.2170  174.3580  145.7670 N   0  0  0  0  0  0  0  0  0  0  0  0
  194.1280  171.4460  143.6710 N   0  0  0  0  0  0  0  0  0  0  0  0
  194.6640  175.7080  146.1030 C   0  0  0  0  0  2  0  0  0  0  0  0
  190.5260  173.4560  144.0500 C   0  0  0  0  0  3  0  0  0  0  0  0
  190.6180  174.6530  144.8710 N   0  0  0  0  0  0  0  0  0  0  0  0
  191.6890  171.4360  143.1240 C   0  0  0  0  0  0  0  0  0  0  0  0
  195.0230  173.2820  145.1520 C   0  0  2  0  0  3  0  0  0  0  0  0
  193.5130  176.4860  146.7590 C   0  0  0  0  0  2  0  0  0  0  0  0
  192.0910  169.2620  141.4100 C   0  0  0  0  0  3  0  0  0  0  0  0
  190.6130  170.9090  142.4020 C   0  0  0  0  0  3  0  0  0  0  0  0
  187.6070  176.5700  146.0560 C   0  0  0  0  0  0  0  0  0  0  0  0
  186.8000  176.7090  147.1790 O   0  0  0  0  0  1  0  0  0  0  0  0
  189.1950  176.3120  143.7690 C   0  0  0  0  0  3  0  0  0  0  0  0
  187.3270  177.3280  144.9170 C   0  0  0  0  0  3  0  0  0  0  0  0
  189.4980  175.5520  144.9070 C   0  0  0  0  0  0  0  0  0  0  0  0
  188.6900  175.6740  146.0580 C   0  0  0  0  0  0  0  0  0  0  0  0
  188.9420  174.8290  147.2660 C   0  0  0  0  0  1  0  0  0  0  0  0
  188.1160  177.1990  143.7690 C   0  0  0  0  0  0  0  0  0  0  0  0
  188.7460  178.2800  141.7490 O   0  0  0  0  0  0  0  0  0  0  0  0
  187.8320  177.9820  142.5640 C   0  0  0  0  0  3  0  0  0  0  0  0
  195.9030  173.8540  144.0460 C   0  0  0  0  0  2  0  0  0  0  0  0
  197.2970  173.8200  144.4530 N   0  0  0  0  0  2  0  0  0  0  0  0
  197.7260  172.4380  144.3560 C   0  0  0  0  0  1  0  0  0  0  0  0
  1  3  1  0  0  0  0
  2  4  1  0  0  0  0
  3 17  1  0  0  0  0
  4  1  2  0  0  0  0
  4 10  1  0  0  0  0
  5  2  1  0  0  0  0
  5 16  1  0  0  0  0
  6 19  1  0  0  0  0
  7 13  2  0  0  0  0
  7  2  1  0  0  0  0
  8  9  2  0  0  0  0
  9 15  1  0  0  0  0
  9 11  1  0  0  0  0
 10 12  1  0  0  0  0
 11  5  2  0  0  0  0
 12 17  1  0  0  0  0
 13 14  1  0  0  0  0
 14 24  1  0  0  0  0
 14  1  1  0  0  0  0
 15  7  1  0  0  0  0
 16 30  1  6  0  0  0
 16 10  1  0  0  0  0
 18  6  2  0  0  0  0
 18  8  1  0  0  0  0
 19 15  2  0  0  0  0
 20 25  1  0  0  0  0
 20 21  1  0  0  0  0
 22 24  1  0  0  0  0
 23 20  2  0  0  0  0
 24 25  2  0  0  0  0
 25 26  1  0  0  0  0
 27 22  2  0  0  0  0
 27 23  1  0  0  0  0
 28 29  2  0  0  0  0
 29 27  1  0  0  0  0
 30 31  1  0  0  0  0
 32 31  1  0  0  0  0
M  END
>  <MODEL>
7

>  <REMARK>
 VINA RESULT:      -7.3      3.481      8.379
  Name = 
  4 active torsions:
  status: ('A' for Active; 'I' for Inactive)
    1  A    between atoms: N_13  and  C_18
    2  A    between atoms: C_15  and  C_26
    3  A    between atoms: C_18  and  C_29
    4  A    between atoms: C_20  and  N_27
                            x       y       z     vdW  Elec       q    Type
                         _______ _______ _______ _____ _____    ______ ____

>  <TORSDO>
F 4

$$$$
=
 OpenBabel11052419153D

 32 37  0  0  1  0  0  0  0  0999 V2000
  190.8580  176.4440  144.6880 C   0  0  0  0  0  0  0  0  0  0  0  0
  188.8850  177.6770  144.2560 N   0  0  0  0  0  0  0  0  0  0  0  0
  191.6600  175.6270  145.6770 C   0  0  0  0  0  2  0  0  0  0  0  0
  189.8320  177.1620  145.1380 C   0  0  0  0  0  0  0  0  0  0  0  0
  187.7220  177.8950  145.0190 C   0  0  0  0  0  0  0  0  0  0  0  0
  186.2150  177.8290  140.2010 C   0  0  0  0  0  3  0  0  0  0  0  0
  188.8430  177.3340  142.8850 C   0  0  0  0  0  0  0  0  0  0  0  0
  185.2410  178.2860  142.3760 C   0  0  0  0  0  3  0  0  0  0  0  0
  186.4650  178.0100  142.9910 C   0  0  0  0  0  0  0  0  0  0  0  0
  189.3800  177.1640  146.4830 N   0  0  0  0  0  0  0  0  0  0  0  0
  186.5660  178.0400  144.4370 N   0  0  0  0  0  0  0  0  0  0  0  0
  190.0490  176.3590  147.5050 C   0  0  0  0  0  2  0  0  0  0  0  0
  189.8800  176.6500  142.3760 C   0  0  0  0  0  3  0  0  0  0  0  0
  190.9790  176.2650  143.2470 N   0  0  0  0  0  0  0  0  0  0  0  0
  187.5790  177.6310  142.1890 C   0  0  0  0  0  0  0  0  0  0  0  0
  187.9720  177.6120  146.4870 C   0  0  2  0  0  3  0  0  0  0  0  0
  191.5220  176.1550  147.1190 C   0  0  0  0  0  2  0  0  0  0  0  0
  185.1190  178.2020  140.9860 C   0  0  0  0  0  3  0  0  0  0  0  0
  187.4440  177.5400  140.8000 C   0  0  0  0  0  3  0  0  0  0  0  0
  193.1630  173.5390  141.8520 C   0  0  0  0  0  0  0  0  0  0  0  0
  193.1350  172.1750  141.5870 O   0  0  0  0  0  1  0  0  0  0  0  0
  193.2700  176.2820  142.3840 C   0  0  0  0  0  3  0  0  0  0  0  0
  194.3180  174.2680  141.5570 C   0  0  0  0  0  3  0  0  0  0  0  0
  192.0990  175.5700  142.6760 C   0  0  0  0  0  0  0  0  0  0  0  0
  192.0490  174.1820  142.4180 C   0  0  0  0  0  0  0  0  0  0  0  0
  190.8420  173.3780  142.7810 C   0  0  0  0  0  1  0  0  0  0  0  0
  194.3770  175.6390  141.8250 C   0  0  0  0  0  0  0  0  0  0  0  0
  196.6450  176.2500  142.1810 O   0  0  0  0  0  0  0  0  0  0  0  0
  195.5820  176.4170  141.5270 C   0  0  0  0  0  3  0  0  0  0  0  0
  187.0650  176.4870  146.9720 C   0  0  0  0  0  2  0  0  0  0  0  0
  185.9410  177.0370  147.7100 N   0  0  0  0  0  2  0  0  0  0  0  0
  186.2770  178.4140  148.0150 C   0  0  0  0  0  1  0  0  0  0  0  0
  1  4  2  0  0  0  0
  1  3  1  0  0  0  0
  2  5  1  0  0  0  0
  2  4  1  0  0  0  0
  3 17  1  0  0  0  0
  4 10  1  0  0  0  0
  5 16  1  0  0  0  0
  6 19  2  0  0  0  0
  6 18  1  0  0  0  0
  7  2  1  0  0  0  0
  8  9  1  0  0  0  0
  9 11  1  0  0  0  0
 10 16  1  0  0  0  0
 10 12  1  0  0  0  0
 11  5  2  0  0  0  0
 13  7  2  0  0  0  0
 13 14  1  0  0  0  0
 14  1  1  0  0  0  0
 15  7  1  0  0  0  0
 15  9  2  0  0  0  0
 16 30  1  6  0  0  0
 17 12  1  0  0  0  0
 18  8  2  0  0  0  0
 19 15  1  0  0  0  0
 20 25  1  0  0  0  0
 21 20  1  0  0  0  0
 22 24  1  0  0  0  0
 23 27  1  0  0  0  0
 23 20  2  0  0  0  0
 24 14  1  0  0  0  0
 25 24  2  0  0  0  0
 25 26  1  0  0  0  0
 27 22  2  0  0  0  0
 29 27  1  0  0  0  0
 29 28  2  0  0  0  0
 30 31  1  0  0  0  0
 31 32  1  0  0  0  0
M  END
>  <MODEL>
8

>  <REMARK>
 VINA RESULT:      -7.2      2.342      4.583
  Name = 
  4 active torsions:
  status: ('A' for Active; 'I' for Inactive)
    1  A    between atoms: N_13  and  C_18
    2  A    between atoms: C_15  and  C_26
    3  A    between atoms: C_18  and  C_29
    4  A    between atoms: C_20  and  N_27
                            x       y       z     vdW  Elec       q    Type
                         _______ _______ _______ _____ _____    ______ ____

>  <TORSDO>
F 4

$$$$
=
 OpenBabel11052419153D

 32 37  0  0  1  0  0  0  0  0999 V2000
  190.5510  175.8950  144.4930 C   0  0  0  0  0  0  0  0  0  0  0  0
  190.9860  174.1920  142.9080 N   0  0  0  0  0  0  0  0  0  0  0  0
  191.0960  177.0460  145.3090 C   0  0  0  0  0  2  0  0  0  0  0  0
  191.4110  175.0670  143.9050 C   0  0  0  0  0  0  0  0  0  0  0  0
  192.1330  173.8730  142.1570 C   0  0  0  0  0  0  0  0  0  0  0  0
  188.1960  172.6650  139.2360 C   0  0  0  0  0  3  0  0  0  0  0  0
  189.6930  174.2450  142.3370 C   0  0  0  0  0  0  0  0  0  0  0  0
  190.6110  172.4330  139.1740 C   0  0  0  0  0  3  0  0  0  0  0  0
  190.7150  173.0900  140.4030 C   0  0  0  0  0  0  0  0  0  0  0  0
  192.8220  175.2250  143.9250 N   0  0  0  0  0  0  0  0  0  0  0  0
  192.0230  173.3630  140.9640 N   0  0  0  0  0  0  0  0  0  0  0  0
  193.4450  176.3410  144.6350 C   0  0  0  0  0  2  0  0  0  0  0  0
  188.7780  175.0320  142.9260 C   0  0  0  0  0  3  0  0  0  0  0  0
  189.1520  175.8140  144.0940 N   0  0  0  0  0  0  0  0  0  0  0  0
  189.5320  173.5450  141.0510 C   0  0  0  0  0  0  0  0  0  0  0  0
  193.3770  174.4830  142.7750 C   0  0  2  0  0  3  0  0  0  0  0  0
  192.5390  176.7900  145.7910 C   0  0  0  0  0  2  0  0  0  0  0  0
  189.3570  172.2170  138.5950 C   0  0  0  0  0  3  0  0  0  0  0  0
  188.2810  173.3320  140.4610 C   0  0  0  0  0  3  0  0  0  0  0  0
  186.8170  177.2270  146.6810 C   0  0  0  0  0  0  0  0  0  0  0  0
  186.4600  177.0480  148.0130 O   0  0  0  0  0  1  0  0  0  0  0  0
  187.4940  177.6120  143.9960 C   0  0  0  0  0  3  0  0  0  0  0  0
  186.1830  178.2210  145.9330 C   0  0  0  0  0  3  0  0  0  0  0  0
  188.1490  176.6180  144.7350 C   0  0  0  0  0  0  0  0  0  0  0  0
  187.7990  176.4160  146.0880 C   0  0  0  0  0  0  0  0  0  0  0  0
  188.4280  175.3190  146.8870 C   0  0  0  0  0  1  0  0  0  0  0  0
  186.5160  178.4150  144.5880 C   0  0  0  0  0  0  0  0  0  0  0  0
  184.9250  180.1490  144.2630 O   0  0  0  0  0  0  0  0  0  0  0  0
  185.8570  179.4480  143.7860 C   0  0  0  0  0  3  0  0  0  0  0  0
  194.0340  175.4490  141.7950 C   0  0  0  0  0  2  0  0  0  0  0  0
  195.4580  175.1750  141.7060 N   0  0  0  0  0  2  0  0  0  0  0  0
  196.1340  176.4560  141.7690 C   0  0  0  0  0  1  0  0  0  0  0  0
  1  3  1  0  0  0  0
  2  4  1  0  0  0  0
  3 17  1  0  0  0  0
  4 10  1  0  0  0  0
  4  1  2  0  0  0  0
  5 16  1  0  0  0  0
  5  2  1  0  0  0  0
  6 19  1  0  0  0  0
  7  2  1  0  0  0  0
  7 13  2  0  0  0  0
  8  9  2  0  0  0  0
  9 11  1  0  0  0  0
  9 15  1  0  0  0  0
 10 12  1  0  0  0  0
 11  5  2  0  0  0  0
 12 17  1  0  0  0  0
 13 14  1  0  0  0  0
 14  1  1  0  0  0  0
 14 24  1  0  0  0  0
 15  7  1  0  0  0  0
 16 30  1  6  0  0  0
 16 10  1  0  0  0  0
 18  8  1  0  0  0  0
 18  6  2  0  0  0  0
 19 15  2  0  0  0  0
 20 21  1  0  0  0  0
 22 27  2  0  0  0  0
 22 24  1  0  0  0  0
 23 20  2  0  0  0  0
 24 25  2  0  0  0  0
 25 20  1  0  0  0  0
 25 26  1  0  0  0  0
 27 23  1  0  0  0  0
 29 28  2  0  0  0  0
 29 27  1  0  0  0  0
 31 32  1  0  0  0  0
 31 30  1  0  0  0  0
M  END
>  <MODEL>
9

>  <REMARK>
 VINA RESULT:      -7.2      3.284      7.529
  Name = 
  4 active torsions:
  status: ('A' for Active; 'I' for Inactive)
    1  A    between atoms: N_13  and  C_18
    2  A    between atoms: C_15  and  C_26
    3  A    between atoms: C_18  and  C_29
    4  A    between atoms: C_20  and  N_27
                            x       y       z     vdW  Elec       q    Type
                         _______ _______ _______ _____ _____    ______ ____

>  <TORSDO>
F 4

$$$$
