=
 OpenBabel11052418083D

 28 32  0  0  1  0  0  0  0  0999 V2000
  187.4160  176.0250  141.3950 C   0  0  0  0  0  3  0  0  0  0  0  0
  184.4860  179.0920  145.8950 O   0  0  0  0  0  1  0  0  0  0  0  0
  185.5970  177.6150  141.1410 C   0  0  0  0  0  0  0  0  0  0  0  0
  186.2800  176.8820  143.4810 C   0  0  1  0  0  3  0  0  0  0  0  0
  186.7050  176.7050  139.1860 C   0  0  0  0  0  0  0  0  0  0  0  0
  186.4680  176.8790  141.9800 C   0  0  0  0  0  0  0  0  0  0  0  0
  184.2060  178.2200  143.1470 C   0  0  0  0  0  2  0  0  0  0  0  0
  185.7370  177.5370  139.7520 C   0  0  0  0  0  3  0  0  0  0  0  0
  186.4770  177.8100  146.2710 C   0  0  2  0  0  3  0  0  0  0  0  0
  187.6060  176.8400  144.2300 C   0  0  0  0  0  2  0  0  0  0  0  0
  184.5670  178.5560  141.7030 C   0  0  0  0  0  2  0  0  0  0  0  0
  185.1810  177.9610  145.4570 C   0  0  2  0  0  3  0  0  0  0  0  0
  186.8680  176.6110  137.4460 Cl  0  0  0  0  0  0  0  0  0  0  0  0
  187.5400  175.9450  140.0070 C   0  0  0  0  0  3  0  0  0  0  0  0
  185.4860  178.0980  143.9650 C   0  0  1  0  0  3  0  0  0  0  0  0
  187.3510  176.6570  145.7270 C   0  0  1  0  0  3  0  0  0  0  0  0
  188.6950  176.5850  146.4460 C   0  0  2  0  0  3  0  0  0  0  0  0
  189.5500  175.4940  145.8240 C   0  0  2  0  0  3  0  0  0  0  0  0
  188.8410  175.2430  147.1360 C   0  0  0  0  0  2  0  0  0  0  0  0
  191.0150  175.8040  146.0890 C   0  0  2  0  0  3  0  0  0  0  0  0
  191.7090  176.1050  144.7620 C   0  0  2  0  0  3  0  0  0  0  0  0
  193.2710  174.5840  146.2410 C   0  0  0  0  0  1  0  0  0  0  0  0
  191.9710  174.7880  145.4760 C   0  0  1  0  0  0  0  0  0  0  0  0
  192.7480  177.0120  144.9810 O   0  0  0  0  0  1  0  0  0  0  0  0
  191.3540  173.6160  144.8660 N   0  0  0  0  0  2  0  0  0  0  0  0
  192.3100  172.6620  144.7610 O   0  0  0  0  0  1  0  0  0  0  0  0
  186.5630  178.6390  148.5140 O   0  0  0  0  0  1  0  0  0  0  0  0
  186.1120  177.5750  147.7330 C   0  0  0  0  0  2  0  0  0  0  0  0
  1  6  1  0  0  0  0
  3 11  1  0  0  0  0
  3  6  2  0  0  0  0
  4 15  1  0  0  0  0
  4 10  1  1  0  0  0
  5  8  2  0  0  0  0
  5 14  1  0  0  0  0
  6  4  1  0  0  0  0
  8  3  1  0  0  0  0
  9 28  1  1  0  0  0
 11  7  1  0  0  0  0
 12  2  1  1  0  0  0
 12  9  1  0  0  0  0
 13  5  1  0  0  0  0
 14  1  2  0  0  0  0
 15  7  1  6  0  0  0
 15 12  1  0  0  0  0
 16 10  1  6  0  0  0
 16  9  1  0  0  0  0
 16 17  1  0  0  0  0
 17 19  1  1  0  0  0
 18 17  1  0  0  0  0
 18 19  1  1  0  0  0
 20 18  1  6  0  0  0
 21 24  1  1  0  0  0
 21 23  1  0  0  0  0
 21 20  1  0  0  0  0
 23 20  1  0  0  0  0
 23 22  1  1  0  0  0
 25 23  1  0  0  0  0
 26 25  1  0  0  0  0
 28 27  1  0  0  0  0
M  END
>  <MODEL>
1

>  <REMARK>
 VINA RESULT:      -7.5      0.000      0.000
  Name = 
  4 active torsions:
  status: ('A' for Active; 'I' for Inactive)
    1  A    between atoms: C_1  and  C_27
    2  A    between atoms: C_2  and  C_3
    3  A    between atoms: N_6  and  C_11
    4  A    between atoms: C_16  and  C_21
                            x       y       z     vdW  Elec       q    Type
                         _______ _______ _______ _____ _____    ______ ____

>  <TORSDO>
F 4

$$$$
=
 OpenBabel11052418083D

 28 32  0  0  1  0  0  0  0  0999 V2000
  193.4890  176.4150  142.2920 C   0  0  0  0  0  3  0  0  0  0  0  0
  191.5890  175.6130  148.1210 O   0  0  0  0  0  1  0  0  0  0  0  0
  194.8250  175.6690  144.1790 C   0  0  0  0  0  0  0  0  0  0  0  0
  192.4410  176.4630  144.5880 C   0  0  1  0  0  3  0  0  0  0  0  0
  195.7740  175.7030  141.9480 C   0  0  0  0  0  0  0  0  0  0  0  0
  193.5900  176.1280  143.6620 C   0  0  0  0  0  0  0  0  0  0  0  0
  193.9610  176.0310  146.5120 C   0  0  0  0  0  2  0  0  0  0  0  0
  195.8990  175.4410  143.3140 C   0  0  0  0  0  3  0  0  0  0  0  0
  190.0830  176.0350  146.3030 C   0  0  2  0  0  3  0  0  0  0  0  0
  191.0880  176.1000  143.9860 C   0  0  0  0  0  2  0  0  0  0  0  0
  194.9950  175.3320  145.6340 C   0  0  0  0  0  2  0  0  0  0  0  0
  191.4810  176.2760  146.8950 C   0  0  2  0  0  3  0  0  0  0  0  0
  197.1280  175.4190  140.8760 Cl  0  0  0  0  0  0  0  0  0  0  0  0
  194.5720  176.1960  141.4380 C   0  0  0  0  0  3  0  0  0  0  0  0
  192.5700  175.7710  145.9470 C   0  0  1  0  0  3  0  0  0  0  0  0
  189.9650  176.6280  144.8800 C   0  0  1  0  0  3  0  0  0  0  0  0
  188.6260  176.2790  144.2370 C   0  0  2  0  0  3  0  0  0  0  0  0
  187.8720  177.5550  143.9030 C   0  0  2  0  0  3  0  0  0  0  0  0
  187.4890  176.7490  145.1240 C   0  0  0  0  0  2  0  0  0  0  0  0
  186.8910  177.2680  142.7770 C   0  0  2  0  0  3  0  0  0  0  0  0
  187.1010  178.2880  141.6600 C   0  0  2  0  0  3  0  0  0  0  0  0
  184.5200  177.9260  142.0390 C   0  0  0  0  0  1  0  0  0  0  0  0
  185.8770  178.3830  142.5560 C   0  0  1  0  0  0  0  0  0  0  0  0
  186.7840  177.7010  140.4330 O   0  0  0  0  0  1  0  0  0  0  0  0
  185.8990  179.4700  143.5280 N   0  0  0  0  0  2  0  0  0  0  0  0
  184.6480  179.5900  144.0320 O   0  0  0  0  0  1  0  0  0  0  0  0
  189.4520  177.9190  147.6370 O   0  0  0  0  0  1  0  0  0  0  0  0
  189.0450  176.6470  147.2370 C   0  0  0  0  0  2  0  0  0  0  0  0
  1  6  1  0  0  0  0
  3 11  1  0  0  0  0
  4 10  1  6  0  0  0
  4 15  1  0  0  0  0
  5  8  2  0  0  0  0
  6  3  2  0  0  0  0
  6  4  1  0  0  0  0
  8  3  1  0  0  0  0
  9 12  1  0  0  0  0
  9 28  1  1  0  0  0
 11  7  1  0  0  0  0
 12  2  1  1  0  0  0
 13  5  1  0  0  0  0
 14  5  1  0  0  0  0
 14  1  2  0  0  0  0
 15  7  1  1  0  0  0
 15 12  1  0  0  0  0
 16 10  1  6  0  0  0
 16  9  1  0  0  0  0
 17 16  1  0  0  0  0
 17 19  1  1  0  0  0
 18 17  1  0  0  0  0
 18 19  1  1  0  0  0
 20 18  1  1  0  0  0
 21 24  1  6  0  0  0
 21 23  1  0  0  0  0
 21 20  1  0  0  0  0
 23 22  1  6  0  0  0
 23 20  1  0  0  0  0
 23 25  1  0  0  0  0
 25 26  1  0  0  0  0
 28 27  1  0  0  0  0
M  END
>  <MODEL>
2

>  <REMARK>
 VINA RESULT:      -6.7      3.552      7.482
  Name = 
  4 active torsions:
  status: ('A' for Active; 'I' for Inactive)
    1  A    between atoms: C_1  and  C_27
    2  A    between atoms: C_2  and  C_3
    3  A    between atoms: N_6  and  C_11
    4  A    between atoms: C_16  and  C_21
                            x       y       z     vdW  Elec       q    Type
                         _______ _______ _______ _____ _____    ______ ____

>  <TORSDO>
F 4

$$$$
=
 OpenBabel11052418083D

 28 32  0  0  1  0  0  0  0  0999 V2000
  186.6490  177.2660  142.0170 C   0  0  0  0  0  3  0  0  0  0  0  0
  188.0150  177.9130  148.0120 O   0  0  0  0  0  1  0  0  0  0  0  0
  185.1630  178.0200  143.7850 C   0  0  0  0  0  0  0  0  0  0  0  0
  187.4750  177.1490  144.3990 C   0  0  1  0  0  3  0  0  0  0  0  0
  184.4260  178.0510  141.4750 C   0  0  0  0  0  0  0  0  0  0  0  0
  186.4280  177.5330  143.3760 C   0  0  0  0  0  0  0  0  0  0  0  0
  185.7940  177.5920  146.1810 C   0  0  0  0  0  2  0  0  0  0  0  0
  184.1810  178.2940  142.8280 C   0  0  0  0  0  3  0  0  0  0  0  0
  189.6730  177.4780  146.3340 C   0  0  2  0  0  3  0  0  0  0  0  0
  188.8880  177.4820  143.9340 C   0  0  0  0  0  2  0  0  0  0  0  0
  184.8660  178.3360  145.2250 C   0  0  0  0  0  2  0  0  0  0  0  0
  188.2190  177.2690  146.7890 C   0  0  2  0  0  3  0  0  0  0  0  0
  183.1870  178.3920  140.2870 Cl  0  0  0  0  0  0  0  0  0  0  0  0
  185.6570  177.5320  141.0700 C   0  0  0  0  0  3  0  0  0  0  0  0
  187.2380  177.8220  145.7540 C   0  0  1  0  0  3  0  0  0  0  0  0
  189.9070  176.9070  144.9180 C   0  0  1  0  0  3  0  0  0  0  0  0
  191.3100  177.2270  144.4100 C   0  0  2  0  0  3  0  0  0  0  0  0
  192.0290  175.9380  144.0480 C   0  0  2  0  0  3  0  0  0  0  0  0
  192.3460  176.6400  145.3490 C   0  0  0  0  0  2  0  0  0  0  0  0
  193.1120  176.2480  143.0260 C   0  0  2  0  0  3  0  0  0  0  0  0
  193.2910  175.0410  142.1070 C   0  0  2  0  0  3  0  0  0  0  0  0
  195.6540  176.0120  142.7460 C   0  0  0  0  0  1  0  0  0  0  0  0
  194.3420  175.3600  143.1580 C   0  0  1  0  0  0  0  0  0  0  0  0
  193.6920  175.4790  140.8440 O   0  0  0  0  0  1  0  0  0  0  0  0
  194.3640  174.4640  144.3080 N   0  0  0  0  0  2  0  0  0  0  0  0
  195.4230  174.8150  145.0770 O   0  0  0  0  0  1  0  0  0  0  0  0
  190.1780  175.5180  147.6100 O   0  0  0  0  0  1  0  0  0  0  0  0
  190.6010  176.8210  147.3490 C   0  0  0  0  0  2  0  0  0  0  0  0
  1  6  1  0  0  0  0
  3 11  1  0  0  0  0
  4 10  1  6  0  0  0
  4 15  1  0  0  0  0
  5  8  2  0  0  0  0
  6  3  2  0  0  0  0
  6  4  1  0  0  0  0
  8  3  1  0  0  0  0
  9 12  1  0  0  0  0
  9 28  1  1  0  0  0
 11  7  1  0  0  0  0
 12  2  1  1  0  0  0
 13  5  1  0  0  0  0
 14  5  1  0  0  0  0
 14  1  2  0  0  0  0
 15  7  1  1  0  0  0
 15 12  1  0  0  0  0
 16 10  1  6  0  0  0
 16  9  1  0  0  0  0
 17 16  1  0  0  0  0
 17 19  1  1  0  0  0
 18 17  1  0  0  0  0
 18 19  1  1  0  0  0
 20 23  1  0  0  0  0
 20 18  1  1  0  0  0
 21 24  1  6  0  0  0
 21 20  1  0  0  0  0
 21 23  1  0  0  0  0
 23 22  1  6  0  0  0
 23 25  1  0  0  0  0
 25 26  1  0  0  0  0
 28 27  1  0  0  0  0
M  END
>  <MODEL>
3

>  <REMARK>
 VINA RESULT:      -6.6      2.299      3.461
  Name = 
  4 active torsions:
  status: ('A' for Active; 'I' for Inactive)
    1  A    between atoms: C_1  and  C_27
    2  A    between atoms: C_2  and  C_3
    3  A    between atoms: N_6  and  C_11
    4  A    between atoms: C_16  and  C_21
                            x       y       z     vdW  Elec       q    Type
                         _______ _______ _______ _____ _____    ______ ____

>  <TORSDO>
F 4

$$$$
=
 OpenBabel11052418083D

 28 32  0  0  1  0  0  0  0  0999 V2000
  188.7740  175.1190  141.5470 C   0  0  0  0  0  3  0  0  0  0  0  0
  193.0080  173.4970  145.7510 O   0  0  0  0  0  1  0  0  0  0  0  0
  190.5140  173.4420  141.3020 C   0  0  0  0  0  0  0  0  0  0  0  0
  190.4970  174.9130  143.3800 C   0  0  1  0  0  3  0  0  0  0  0  0
  188.8510  173.7390  139.5630 C   0  0  0  0  0  0  0  0  0  0  0  0
  189.8870  174.4480  142.0760 C   0  0  0  0  0  0  0  0  0  0  0  0
  192.4470  173.4360  142.9100 C   0  0  0  0  0  2  0  0  0  0  0  0
  189.9770  173.0820  140.0620 C   0  0  0  0  0  3  0  0  0  0  0  0
  191.1510  174.9300  146.2530 C   0  0  2  0  0  3  0  0  0  0  0  0
  189.4410  175.2570  144.4230 C   0  0  0  0  0  2  0  0  0  0  0  0
  191.7030  172.6780  141.8150 C   0  0  0  0  0  2  0  0  0  0  0  0
  192.1650  174.4630  145.1950 C   0  0  2  0  0  3  0  0  0  0  0  0
  188.1910  173.2840  138.0070 Cl  0  0  0  0  0  0  0  0  0  0  0  0
  188.2530  174.7610  140.3020 C   0  0  0  0  0  3  0  0  0  0  0  0
  191.4510  173.8750  143.9770 C   0  0  1  0  0  3  0  0  0  0  0  0
  190.1060  175.8930  145.6450 C   0  0  1  0  0  3  0  0  0  0  0  0
  189.0230  176.2560  146.6560 C   0  0  2  0  0  3  0  0  0  0  0  0
  188.1980  177.4160  146.1270 C   0  0  2  0  0  3  0  0  0  0  0  0
  189.2550  177.6590  147.1800 C   0  0  0  0  0  2  0  0  0  0  0  0
  186.8260  177.3850  146.7820 C   0  0  2  0  0  3  0  0  0  0  0  0
  185.8180  176.7910  145.8010 C   0  0  2  0  0  3  0  0  0  0  0  0
  184.7400  178.8660  147.0120 C   0  0  0  0  0  1  0  0  0  0  0  0
  185.8050  178.2820  146.0950 C   0  0  1  0  0  0  0  0  0  0  0  0
  184.8170  176.1270  146.5130 O   0  0  0  0  0  1  0  0  0  0  0  0
  186.3160  179.1320  145.0260 N   0  0  0  0  0  2  0  0  0  0  0  0
  185.8360  178.6480  143.8560 O   0  0  0  0  0  1  0  0  0  0  0  0
  192.8110  176.5310  146.8890 O   0  0  0  0  0  1  0  0  0  0  0  0
  191.9090  175.5970  147.3950 C   0  0  0  0  0  2  0  0  0  0  0  0
  1  6  1  0  0  0  0
  3 11  1  0  0  0  0
  3  6  2  0  0  0  0
  4 15  1  0  0  0  0
  4 10  1  1  0  0  0
  5  8  2  0  0  0  0
  5 14  1  0  0  0  0
  6  4  1  0  0  0  0
  8  3  1  0  0  0  0
  9 28  1  1  0  0  0
 11  7  1  0  0  0  0
 12  2  1  1  0  0  0
 12  9  1  0  0  0  0
 13  5  1  0  0  0  0
 14  1  2  0  0  0  0
 15  7  1  6  0  0  0
 15 12  1  0  0  0  0
 16 10  1  6  0  0  0
 16  9  1  0  0  0  0
 16 17  1  0  0  0  0
 17 19  1  1  0  0  0
 18 17  1  0  0  0  0
 18 19  1  1  0  0  0
 20 18  1  6  0  0  0
 21 23  1  0  0  0  0
 21 24  1  1  0  0  0
 21 20  1  0  0  0  0
 23 20  1  0  0  0  0
 23 22  1  1  0  0  0
 25 23  1  0  0  0  0
 26 25  1  0  0  0  0
 27 28  1  0  0  0  0
M  END
>  <MODEL>
4

>  <REMARK>
 VINA RESULT:      -6.6      2.706      6.223
  Name = 
  4 active torsions:
  status: ('A' for Active; 'I' for Inactive)
    1  A    between atoms: C_1  and  C_27
    2  A    between atoms: C_2  and  C_3
    3  A    between atoms: N_6  and  C_11
    4  A    between atoms: C_16  and  C_21
                            x       y       z     vdW  Elec       q    Type
                         _______ _______ _______ _____ _____    ______ ____

>  <TORSDO>
F 4

$$$$
=
 OpenBabel11052418083D

 28 32  0  0  1  0  0  0  0  0999 V2000
  189.2090  177.1690  145.6200 C   0  0  0  0  0  3  0  0  0  0  0  0
  188.3450  173.8610  140.4680 O   0  0  0  0  0  1  0  0  0  0  0  0
  187.0880  176.6010  144.5820 C   0  0  0  0  0  0  0  0  0  0  0  0
  189.2510  176.0290  143.3680 C   0  0  1  0  0  3  0  0  0  0  0  0
  187.1340  177.7440  146.7200 C   0  0  0  0  0  0  0  0  0  0  0  0
  188.5030  176.5640  144.5690 C   0  0  0  0  0  0  0  0  0  0  0  0
  187.0640  175.7980  142.1990 C   0  0  0  0  0  2  0  0  0  0  0  0
  186.4160  177.1720  145.6670 C   0  0  0  0  0  3  0  0  0  0  0  0
  190.4760  174.0590  141.5520 C   0  0  2  0  0  3  0  0  0  0  0  0
  190.5170  175.2790  143.7630 C   0  0  0  0  0  2  0  0  0  0  0  0
  186.2710  175.9620  143.4930 C   0  0  0  0  0  2  0  0  0  0  0  0
  189.1320  174.7320  141.2280 C   0  0  2  0  0  3  0  0  0  0  0  0
  186.2820  178.4610  148.0710 Cl  0  0  0  0  0  0  0  0  0  0  0  0
  188.5290  177.7480  146.6940 C   0  0  0  0  0  3  0  0  0  0  0  0
  188.3850  175.1040  142.5100 C   0  0  1  0  0  3  0  0  0  0  0  0
  191.3220  174.9250  142.5110 C   0  0  1  0  0  3  0  0  0  0  0  0
  192.5980  174.2050  142.9390 C   0  0  2  0  0  3  0  0  0  0  0  0
  193.7060  175.2190  143.1630 C   0  0  2  0  0  3  0  0  0  0  0  0
  193.6770  174.4010  141.8920 C   0  0  0  0  0  2  0  0  0  0  0  0
  194.7280  174.6300  144.1230 C   0  0  2  0  0  3  0  0  0  0  0  0
  194.9800  175.6240  145.2550 C   0  0  2  0  0  3  0  0  0  0  0  0
  197.2710  174.5820  144.4790 C   0  0  0  0  0  1  0  0  0  0  0  0
  196.0320  175.4140  144.1790 C   0  0  1  0  0  0  0  0  0  0  0  0
  195.3030  174.9240  146.4200 O   0  0  0  0  0  1  0  0  0  0  0  0
  196.1660  176.5030  143.2170 N   0  0  0  0  0  2  0  0  0  0  0  0
  197.4880  176.7580  143.0740 O   0  0  0  0  0  1  0  0  0  0  0  0
  191.3390  172.4310  140.0240 O   0  0  0  0  0  1  0  0  0  0  0  0
  191.2210  173.8030  140.2460 C   0  0  0  0  0  2  0  0  0  0  0  0
  1 14  1  0  0  0  0
  3  8  2  0  0  0  0
  4 10  1  1  0  0  0
  4  6  1  0  0  0  0
  5 13  1  0  0  0  0
  6  3  1  0  0  0  0
  6  1  2  0  0  0  0
  7 11  1  0  0  0  0
  8  5  1  0  0  0  0
  9 28  1  6  0  0  0
  9 16  1  0  0  0  0
 11  3  1  0  0  0  0
 12  2  1  6  0  0  0
 12  9  1  0  0  0  0
 12 15  1  0  0  0  0
 14  5  2  0  0  0  0
 15  7  1  6  0  0  0
 15  4  1  0  0  0  0
 16 17  1  0  0  0  0
 16 10  1  1  0  0  0
 17 19  1  6  0  0  0
 17 18  1  0  0  0  0
 18 19  1  6  0  0  0
 20 18  1  6  0  0  0
 20 23  1  0  0  0  0
 20 21  1  0  0  0  0
 21 24  1  1  0  0  0
 23 22  1  1  0  0  0
 23 21  1  0  0  0  0
 25 23  1  0  0  0  0
 26 25  1  0  0  0  0
 27 28  1  0  0  0  0
M  END
>  <MODEL>
5

>  <REMARK>
 VINA RESULT:      -6.5      3.970      6.191
  Name = 
  4 active torsions:
  status: ('A' for Active; 'I' for Inactive)
    1  A    between atoms: C_1  and  C_27
    2  A    between atoms: C_2  and  C_3
    3  A    between atoms: N_6  and  C_11
    4  A    between atoms: C_16  and  C_21
                            x       y       z     vdW  Elec       q    Type
                         _______ _______ _______ _____ _____    ______ ____

>  <TORSDO>
F 4

$$$$
=
 OpenBabel11052418083D

 28 32  0  0  1  0  0  0  0  0999 V2000
  188.2920  176.7640  141.9810 C   0  0  0  0  0  3  0  0  0  0  0  0
  189.0060  177.8780  148.0210 O   0  0  0  0  0  1  0  0  0  0  0  0
  186.6670  177.7550  143.4900 C   0  0  0  0  0  0  0  0  0  0  0  0
  188.8330  176.8200  144.4460 C   0  0  1  0  0  3  0  0  0  0  0  0
  186.2020  177.6170  141.1150 C   0  0  0  0  0  0  0  0  0  0  0  0
  187.9360  177.1650  143.2770 C   0  0  0  0  0  0  0  0  0  0  0  0
  186.9920  177.5140  145.9720 C   0  0  0  0  0  2  0  0  0  0  0  0
  185.8200  177.9950  142.4030 C   0  0  0  0  0  3  0  0  0  0  0  0
  190.8120  177.2030  146.5950 C   0  0  2  0  0  3  0  0  0  0  0  0
  190.3080  177.0310  144.1260 C   0  0  0  0  0  2  0  0  0  0  0  0
  186.2290  178.2170  144.8520 C   0  0  0  0  0  2  0  0  0  0  0  0
  189.3050  177.1150  146.8890 C   0  0  2  0  0  3  0  0  0  0  0  0
  185.1310  177.9160  139.7630 Cl  0  0  0  0  0  0  0  0  0  0  0  0
  187.4340  176.9960  140.9040 C   0  0  0  0  0  3  0  0  0  0  0  0
  188.4870  177.6250  145.7010 C   0  0  1  0  0  3  0  0  0  0  0  0
  191.1690  176.4930  145.2690 C   0  0  1  0  0  3  0  0  0  0  0  0
  192.6380  176.6880  144.9070 C   0  0  2  0  0  3  0  0  0  0  0  0
  193.0970  175.5570  144.0030 C   0  0  2  0  0  3  0  0  0  0  0  0
  193.4650  175.5490  145.4690 C   0  0  0  0  0  2  0  0  0  0  0  0
  194.2860  176.0310  143.1830 C   0  0  2  0  0  3  0  0  0  0  0  0
  194.0910  175.6060  141.7290 C   0  0  2  0  0  3  0  0  0  0  0  0
  196.5960  175.1960  142.4310 C   0  0  0  0  0  1  0  0  0  0  0  0
  195.1140  174.8940  142.5990 C   0  0  1  0  0  0  0  0  0  0  0  0
  194.7050  176.5380  140.8890 O   0  0  0  0  0  1  0  0  0  0  0  0
  194.7420  173.5490  143.0230 N   0  0  0  0  0  2  0  0  0  0  0  0
  195.7140  173.1010  143.8530 O   0  0  0  0  0  1  0  0  0  0  0  0
  191.1150  175.2980  148.0110 O   0  0  0  0  0  1  0  0  0  0  0  0
  191.5750  176.5910  147.7640 C   0  0  0  0  0  2  0  0  0  0  0  0
  1  6  1  0  0  0  0
  3 11  1  0  0  0  0
  4 10  1  6  0  0  0
  4 15  1  0  0  0  0
  5  8  2  0  0  0  0
  6  3  2  0  0  0  0
  6  4  1  0  0  0  0
  8  3  1  0  0  0  0
  9 12  1  0  0  0  0
  9 28  1  1  0  0  0
 11  7  1  0  0  0  0
 12  2  1  1  0  0  0
 13  5  1  0  0  0  0
 14  5  1  0  0  0  0
 14  1  2  0  0  0  0
 15  7  1  1  0  0  0
 15 12  1  0  0  0  0
 16 10  1  6  0  0  0
 16  9  1  0  0  0  0
 17 16  1  0  0  0  0
 17 19  1  1  0  0  0
 18 17  1  0  0  0  0
 18 19  1  1  0  0  0
 20 18  1  1  0  0  0
 21 24  1  6  0  0  0
 21 23  1  0  0  0  0
 21 20  1  0  0  0  0
 23 22  1  6  0  0  0
 23 25  1  0  0  0  0
 23 20  1  0  0  0  0
 25 26  1  0  0  0  0
 28 27  1  0  0  0  0
M  END
>  <MODEL>
6

>  <REMARK>
 VINA RESULT:      -6.4      2.502      3.875
  Name = 
  4 active torsions:
  status: ('A' for Active; 'I' for Inactive)
    1  A    between atoms: C_1  and  C_27
    2  A    between atoms: C_2  and  C_3
    3  A    between atoms: N_6  and  C_11
    4  A    between atoms: C_16  and  C_21
                            x       y       z     vdW  Elec       q    Type
                         _______ _______ _______ _____ _____    ______ ____

>  <TORSDO>
F 4

$$$$
=
 OpenBabel11052418083D

 28 32  0  0  1  0  0  0  0  0999 V2000
  186.4880  176.3820  143.0570 C   0  0  0  0  0  3  0  0  0  0  0  0
  191.7450  175.0050  146.0070 O   0  0  0  0  0  1  0  0  0  0  0  0
  187.2090  177.2030  145.2270 C   0  0  0  0  0  0  0  0  0  0  0  0
  188.5770  175.3930  144.0720 C   0  0  1  0  0  3  0  0  0  0  0  0
  185.1850  178.0640  144.2060 C   0  0  0  0  0  0  0  0  0  0  0  0
  187.4310  176.3810  144.0960 C   0  0  0  0  0  0  0  0  0  0  0  0
  189.0620  176.0080  146.4360 C   0  0  0  0  0  2  0  0  0  0  0  0
  186.0990  178.0520  145.2620 C   0  0  0  0  0  3  0  0  0  0  0  0
  191.3230  174.3820  143.7300 C   0  0  2  0  0  3  0  0  0  0  0  0
  189.1970  175.2580  142.6870 C   0  0  0  0  0  2  0  0  0  0  0  0
  188.1860  177.2560  146.3690 C   0  0  0  0  0  2  0  0  0  0  0  0
  190.7260  174.6440  145.1220 C   0  0  2  0  0  3  0  0  0  0  0  0
  183.7960  179.1280  144.2640 Cl  0  0  0  0  0  0  0  0  0  0  0  0
  185.3760  177.2250  143.1070 C   0  0  0  0  0  3  0  0  0  0  0  0
  189.6820  175.7610  145.0660 C   0  0  1  0  0  3  0  0  0  0  0  0
  190.2170  174.1190  142.6830 C   0  0  1  0  0  3  0  0  0  0  0  0
  190.7960  173.9880  141.2770 C   0  0  2  0  0  3  0  0  0  0  0  0
  189.8920  173.1050  140.4330 C   0  0  2  0  0  3  0  0  0  0  0  0
  191.1730  172.5440  141.0070 C   0  0  0  0  0  2  0  0  0  0  0  0
  190.1000  173.4470  138.9660 C   0  0  2  0  0  3  0  0  0  0  0  0
  188.7420  173.4970  138.2680 C   0  0  2  0  0  3  0  0  0  0  0  0
  190.4760  172.2590  136.7200 C   0  0  0  0  0  1  0  0  0  0  0  0
  189.6840  172.3310  138.0170 C   0  0  1  0  0  0  0  0  0  0  0  0
  188.7950  174.4210  137.2230 O   0  0  0  0  0  1  0  0  0  0  0  0
  189.2950  171.0720  138.6430 N   0  0  0  0  0  2  0  0  0  0  0  0
  189.6490  170.0730  137.7990 O   0  0  0  0  0  1  0  0  0  0  0  0
  191.6520  172.1270  144.4620 O   0  0  0  0  0  1  0  0  0  0  0  0
  192.2780  173.1970  143.8240 C   0  0  0  0  0  2  0  0  0  0  0  0
  1 14  2  0  0  0  0
  1  6  1  0  0  0  0
  3  8  1  0  0  0  0
  3 11  1  0  0  0  0
  4 10  1  6  0  0  0
  4  6  1  0  0  0  0
  4 15  1  0  0  0  0
  5 13  1  0  0  0  0
  5  8  2  0  0  0  0
  6  3  2  0  0  0  0
  9 28  1  1  0  0  0
  9 12  1  0  0  0  0
 11  7  1  0  0  0  0
 12  2  1  1  0  0  0
 14  5  1  0  0  0  0
 15 12  1  0  0  0  0
 15  7  1  1  0  0  0
 16 10  1  6  0  0  0
 16  9  1  0  0  0  0
 17 19  1  1  0  0  0
 17 16  1  0  0  0  0
 18 19  1  6  0  0  0
 18 17  1  0  0  0  0
 20 18  1  1  0  0  0
 21 24  1  6  0  0  0
 21 20  1  0  0  0  0
 23 22  1  6  0  0  0
 23 21  1  0  0  0  0
 23 25  1  0  0  0  0
 23 20  1  0  0  0  0
 26 25  1  0  0  0  0
 28 27  1  0  0  0  0
M  END
>  <MODEL>
7

>  <REMARK>
 VINA RESULT:      -6.4      3.882      6.600
  Name = 
  4 active torsions:
  status: ('A' for Active; 'I' for Inactive)
    1  A    between atoms: C_1  and  C_27
    2  A    between atoms: C_2  and  C_3
    3  A    between atoms: N_6  and  C_11
    4  A    between atoms: C_16  and  C_21
                            x       y       z     vdW  Elec       q    Type
                         _______ _______ _______ _____ _____    ______ ____

>  <TORSDO>
F 4

$$$$
=
 OpenBabel11052418083D

 28 32  0  0  1  0  0  0  0  0999 V2000
  190.3590  173.5480  141.4900 C   0  0  0  0  0  3  0  0  0  0  0  0
  187.5040  178.1480  144.4780 O   0  0  0  0  0  1  0  0  0  0  0  0
  188.4780  174.8660  140.6970 C   0  0  0  0  0  0  0  0  0  0  0  0
  189.2770  175.1690  143.0950 C   0  0  1  0  0  3  0  0  0  0  0  0
  189.5400  173.2500  139.2350 C   0  0  0  0  0  0  0  0  0  0  0  0
  189.4060  174.5530  141.7190 C   0  0  0  0  0  0  0  0  0  0  0  0
  187.1480  176.2200  142.3460 C   0  0  0  0  0  2  0  0  0  0  0  0
  188.5670  174.2260  139.4570 C   0  0  0  0  0  3  0  0  0  0  0  0
  189.5510  177.1640  145.2460 C   0  0  2  0  0  3  0  0  0  0  0  0
  190.6320  175.4580  143.7290 C   0  0  0  0  0  2  0  0  0  0  0  0
  187.4400  175.9380  140.8750 C   0  0  0  0  0  2  0  0  0  0  0  0
  188.2200  176.9480  144.5080 C   0  0  2  0  0  3  0  0  0  0  0  0
  189.6390  172.4510  137.6800 Cl  0  0  0  0  0  0  0  0  0  0  0  0
  190.4320  172.9060  140.2520 C   0  0  0  0  0  3  0  0  0  0  0  0
  188.4620  176.4640  143.0770 C   0  0  1  0  0  3  0  0  0  0  0  0
  190.4420  175.9030  145.1800 C   0  0  1  0  0  3  0  0  0  0  0  0
  191.8150  176.1530  145.7980 C   0  0  2  0  0  3  0  0  0  0  0  0
  192.6380  174.8780  145.7480 C   0  0  2  0  0  3  0  0  0  0  0  0
  191.9840  175.3040  147.0420 C   0  0  0  0  0  2  0  0  0  0  0  0
  194.1140  175.2420  145.7800 C   0  0  2  0  0  3  0  0  0  0  0  0
  194.6960  175.0900  144.3760 C   0  0  2  0  0  3  0  0  0  0  0  0
  196.3950  174.1150  146.1380 C   0  0  0  0  0  1  0  0  0  0  0  0
  195.0350  174.0730  145.4540 C   0  0  1  0  0  0  0  0  0  0  0  0
  195.7340  176.0080  144.2050 O   0  0  0  0  0  1  0  0  0  0  0  0
  194.3910  172.7730  145.3090 N   0  0  0  0  0  2  0  0  0  0  0  0
  195.2680  171.8350  145.7400 O   0  0  0  0  0  1  0  0  0  0  0  0
  188.3890  176.6110  147.2640 O   0  0  0  0  0  1  0  0  0  0  0  0
  189.2520  177.5450  146.6920 C   0  0  0  0  0  2  0  0  0  0  0  0
  1  6  1  0  0  0  0
  3 11  1  0  0  0  0
  3  6  2  0  0  0  0
  4 10  1  6  0  0  0
  5  8  2  0  0  0  0
  5 14  1  0  0  0  0
  6  4  1  0  0  0  0
  8  3  1  0  0  0  0
  9 28  1  1  0  0  0
 11  7  1  0  0  0  0
 12  2  1  6  0  0  0
 12  9  1  0  0  0  0
 13  5  1  0  0  0  0
 14  1  2  0  0  0  0
 15  7  1  1  0  0  0
 15  4  1  0  0  0  0
 15 12  1  0  0  0  0
 16 10  1  6  0  0  0
 16  9  1  0  0  0  0
 16 17  1  0  0  0  0
 17 19  1  1  0  0  0
 18 17  1  0  0  0  0
 18 19  1  1  0  0  0
 20 18  1  6  0  0  0
 21 24  1  1  0  0  0
 21 23  1  0  0  0  0
 21 20  1  0  0  0  0
 23 20  1  0  0  0  0
 23 22  1  1  0  0  0
 25 23  1  0  0  0  0
 25 26  1  0  0  0  0
 28 27  1  0  0  0  0
M  END
>  <MODEL>
8

>  <REMARK>
 VINA RESULT:      -6.3      2.518      3.572
  Name = 
  4 active torsions:
  status: ('A' for Active; 'I' for Inactive)
    1  A    between atoms: C_1  and  C_27
    2  A    between atoms: C_2  and  C_3
    3  A    between atoms: N_6  and  C_11
    4  A    between atoms: C_16  and  C_21
                            x       y       z     vdW  Elec       q    Type
                         _______ _______ _______ _____ _____    ______ ____

>  <TORSDO>
F 4

$$$$
=
 OpenBabel11052418083D

 28 32  0  0  1  0  0  0  0  0999 V2000
  185.5950  176.9460  143.2290 C   0  0  0  0  0  3  0  0  0  0  0  0
  189.8640  177.4980  147.6680 O   0  0  0  0  0  1  0  0  0  0  0  0
  185.5580  178.4760  145.1150 C   0  0  0  0  0  0  0  0  0  0  0  0
  187.3830  176.7050  144.9950 C   0  0  1  0  0  3  0  0  0  0  0  0
  183.8470  178.6080  143.4020 C   0  0  0  0  0  0  0  0  0  0  0  0
  186.1860  177.4220  144.4090 C   0  0  0  0  0  0  0  0  0  0  0  0
  187.0860  178.0540  147.0670 C   0  0  0  0  0  2  0  0  0  0  0  0
  184.4060  179.0730  144.5940 C   0  0  0  0  0  3  0  0  0  0  0  0
  190.1970  176.1790  145.6930 C   0  0  2  0  0  3  0  0  0  0  0  0
  188.3930  176.2990  143.9290 C   0  0  0  0  0  2  0  0  0  0  0  0
  186.1450  179.0390  146.3800 C   0  0  0  0  0  2  0  0  0  0  0  0
  189.1920  176.7110  146.7280 C   0  0  2  0  0  3  0  0  0  0  0  0
  182.4010  179.3590  142.7630 Cl  0  0  0  0  0  0  0  0  0  0  0  0
  184.4370  177.5410  142.7230 C   0  0  0  0  0  3  0  0  0  0  0  0
  188.1020  177.5460  146.0530 C   0  0  1  0  0  3  0  0  0  0  0  0
  189.4800  175.4220  144.5520 C   0  0  1  0  0  3  0  0  0  0  0  0
  190.4570  175.0050  143.4560 C   0  0  2  0  0  3  0  0  0  0  0  0
  189.9810  173.7150  142.8110 C   0  0  2  0  0  3  0  0  0  0  0  0
  191.1070  173.6840  143.8190 C   0  0  0  0  0  2  0  0  0  0  0  0
  190.5550  173.6250  141.4060 C   0  0  2  0  0  3  0  0  0  0  0  0
  189.4410  173.2330  140.4360 C   0  0  2  0  0  3  0  0  0  0  0  0
  191.6290  171.8910  139.8440 C   0  0  0  0  0  1  0  0  0  0  0  0
  190.5080  172.2200  140.8190 C   0  0  1  0  0  0  0  0  0  0  0  0
  189.7030  173.7910  139.1830 O   0  0  0  0  0  1  0  0  0  0  0  0
  190.0680  171.1640  141.7240 N   0  0  0  0  0  2  0  0  0  0  0  0
  191.1490  170.4010  142.0150 O   0  0  0  0  0  1  0  0  0  0  0  0
  192.4710  175.8400  146.3540 O   0  0  0  0  0  1  0  0  0  0  0  0
  191.1980  175.2750  146.4030 C   0  0  0  0  0  2  0  0  0  0  0  0
  1  6  1  0  0  0  0
  3 11  1  0  0  0  0
  4 10  1  6  0  0  0
  4 15  1  0  0  0  0
  5  8  2  0  0  0  0
  6  4  1  0  0  0  0
  6  3  2  0  0  0  0
  8  3  1  0  0  0  0
  9 28  1  1  0  0  0
  9 12  1  0  0  0  0
 11  7  1  0  0  0  0
 12  2  1  1  0  0  0
 13  5  1  0  0  0  0
 14  1  2  0  0  0  0
 14  5  1  0  0  0  0
 15 12  1  0  0  0  0
 15  7  1  1  0  0  0
 16 10  1  6  0  0  0
 16  9  1  0  0  0  0
 17 19  1  1  0  0  0
 17 16  1  0  0  0  0
 18 17  1  0  0  0  0
 18 19  1  1  0  0  0
 20 18  1  1  0  0  0
 21 24  1  6  0  0  0
 21 23  1  0  0  0  0
 21 20  1  0  0  0  0
 23 22  1  6  0  0  0
 23 20  1  0  0  0  0
 23 25  1  0  0  0  0
 25 26  1  0  0  0  0
 27 28  1  0  0  0  0
M  END
>  <MODEL>
9

>  <REMARK>
 VINA RESULT:      -6.2      3.060      4.841
  Name = 
  4 active torsions:
  status: ('A' for Active; 'I' for Inactive)
    1  A    between atoms: C_1  and  C_27
    2  A    between atoms: C_2  and  C_3
    3  A    between atoms: N_6  and  C_11
    4  A    between atoms: C_16  and  C_21
                            x       y       z     vdW  Elec       q    Type
                         _______ _______ _______ _____ _____    ______ ____

>  <TORSDO>
F 4

$$$$
