=
 OpenBabel11052418133D

 28 32  0  0  1  0  0  0  0  0999 V2000
  186.4390  177.8510  145.0580 C   0  0  0  0  0  0  0  0  0  0  0  0
  188.7430  175.3710  141.5220 C   0  0  0  0  0  3  0  0  0  0  0  0
  189.3780  174.8600  147.4910 C   0  0  0  0  0  2  0  0  0  0  0  0
  189.2620  173.4130  143.0860 C   0  0  1  0  0  3  0  0  0  0  0  0
  189.4380  175.8540  143.8730 C   0  0  1  0  0  3  0  0  0  0  0  0
  188.1900  173.0990  140.8020 C   0  0  2  0  0  3  0  0  0  0  0  0
  188.7170  174.8700  142.9440 C   0  0  1  0  0  3  0  0  0  0  0  0
  190.6830  174.0240  145.0720 C   0  0  0  0  0  2  0  0  0  0  0  0
  189.2290  172.5800  141.7930 C   0  0  0  0  0  2  0  0  0  0  0  0
  187.8410  176.2990  146.2770 C   0  0  0  0  0  0  0  0  0  0  0  0
  188.6650  177.1650  144.0660 C   0  0  0  0  0  2  0  0  0  0  0  0
  190.6720  173.3810  143.6810 C   0  0  0  0  0  2  0  0  0  0  0  0
  185.8020  177.0530  147.2430 C   0  0  0  0  0  3  0  0  0  0  0  0
  189.0420  175.4440  146.3420 C   0  0  0  0  0  0  0  0  0  0  0  0
  186.9390  176.3090  147.2980 N   0  0  0  0  0  0  0  0  0  0  0  0
  188.2530  172.3600  139.6220 O   0  0  0  0  0  1  0  0  0  0  0  0
  188.4780  174.5400  140.5100 C   0  0  0  0  0  3  0  0  0  0  0  0
  189.8000  175.1970  145.1390 N   0  0  0  0  0  0  0  0  0  0  0  0
  185.5310  177.8330  146.1200 C   0  0  0  0  0  3  0  0  0  0  0  0
  187.6070  177.0710  145.1280 C   0  0  0  0  0  0  0  0  0  0  0  0
  186.1230  178.6790  143.8540 C   0  0  0  0  0  2  0  0  0  0  0  0
  185.5080  177.8080  142.7710 C   0  0  1  0  0  3  0  0  0  0  0  0
  184.0920  178.2610  142.4950 C   0  0  0  0  0  2  0  0  0  0  0  0
  185.2120  178.6660  141.5550 C   0  0  2  0  0  3  0  0  0  0  0  0
  185.1980  177.8340  140.3600 N   0  0  0  0  0  0  0  0  0  0  0  0
  186.4420  176.8520  138.6040 N   0  0  0  0  0  2  0  0  0  0  0  0
  184.0200  177.5520  139.7520 O   0  0  0  0  0  1  0  0  0  0  0  0
  186.4320  177.5040  139.7180 C   0  0  0  0  0  3  0  0  0  0  0  0
  1 20  2  0  0  0  0
  1 19  1  0  0  0  0
  4  9  1  6  0  0  0
  4 12  1  0  0  0  0
  5 11  1  1  0  0  0
  5 18  1  0  0  0  0
  6 16  1  6  0  0  0
  6  9  1  0  0  0  0
  7  2  1  6  0  0  0
  7  4  1  0  0  0  0
  7  5  1  0  0  0  0
  8 18  1  0  0  0  0
 10 14  1  0  0  0  0
 10 15  2  0  0  0  0
 11 20  1  0  0  0  0
 12  8  1  0  0  0  0
 13 15  1  0  0  0  0
 14  3  2  0  0  0  0
 17  6  1  0  0  0  0
 17  2  2  0  0  0  0
 18 14  1  0  0  0  0
 19 13  2  0  0  0  0
 20 10  1  0  0  0  0
 21  1  1  0  0  0  0
 22 21  1  1  0  0  0
 23 22  1  0  0  0  0
 24 25  1  6  0  0  0
 24 23  1  0  0  0  0
 24 22  1  0  0  0  0
 26 28  2  0  0  0  0
 27 25  1  0  0  0  0
 28 25  1  0  0  0  0
M  END
>  <MODEL>
1

>  <REMARK>
 VINA RESULT:      -8.2      0.000      0.000
  Name = 
  3 active torsions:
  status: ('A' for Active; 'I' for Inactive)
    1  A    between atoms: C_1  and  C_2
    2  A    between atoms: C_2  and  C_3
    3  A    between atoms: N_6  and  C_11
                            x       y       z     vdW  Elec       q    Type
                         _______ _______ _______ _____ _____    ______ ____

>  <TORSDO>
F 3

$$$$
=
 OpenBabel11052418133D

 28 32  0  0  1  0  0  0  0  0999 V2000
  189.7610  174.0070  144.8260 C   0  0  0  0  0  0  0  0  0  0  0  0
  187.0510  178.0830  144.8530 C   0  0  0  0  0  3  0  0  0  0  0  0
  188.3000  174.4380  140.2230 C   0  0  0  0  0  2  0  0  0  0  0  0
  185.7560  177.3640  142.7660 C   0  0  1  0  0  3  0  0  0  0  0  0
  188.2870  176.9780  142.9850 C   0  0  1  0  0  3  0  0  0  0  0  0
  184.6050  178.1510  144.8930 C   0  0  2  0  0  3  0  0  0  0  0  0
  186.9520  177.0820  143.7310 C   0  0  1  0  0  3  0  0  0  0  0  0
  187.1870  177.0390  140.7220 C   0  0  0  0  0  2  0  0  0  0  0  0
  184.6270  178.2190  143.3680 C   0  0  0  0  0  2  0  0  0  0  0  0
  188.9620  174.1710  142.5460 C   0  0  0  0  0  0  0  0  0  0  0  0
  189.3820  176.2980  143.8170 C   0  0  0  0  0  2  0  0  0  0  0  0
  186.2150  177.9800  141.4430 C   0  0  0  0  0  2  0  0  0  0  0  0
  189.4410  172.0340  143.4750 C   0  0  0  0  0  3  0  0  0  0  0  0
  188.4630  174.9900  141.4240 C   0  0  0  0  0  0  0  0  0  0  0  0
  189.0290  172.8150  142.4400 N   0  0  0  0  0  0  0  0  0  0  0  0
  183.6170  178.9990  145.3900 O   0  0  0  0  0  1  0  0  0  0  0  0
  185.9430  178.5770  145.4160 C   0  0  0  0  0  3  0  0  0  0  0  0
  188.0930  176.3640  141.6620 N   0  0  0  0  0  0  0  0  0  0  0  0
  189.8110  172.6170  144.6860 C   0  0  0  0  0  3  0  0  0  0  0  0
  189.3250  174.7990  143.7480 C   0  0  0  0  0  0  0  0  0  0  0  0
  190.1410  174.6130  146.1380 C   0  0  0  0  0  2  0  0  0  0  0  0
  191.3120  175.5620  145.9520 C   0  0  1  0  0  3  0  0  0  0  0  0
  191.4490  176.4500  147.1680 C   0  0  0  0  0  2  0  0  0  0  0  0
  192.3700  175.2560  146.9960 C   0  0  2  0  0  3  0  0  0  0  0  0
  193.6750  175.6860  146.5140 N   0  0  0  0  0  0  0  0  0  0  0  0
  195.7120  175.0790  145.4760 N   0  0  0  0  0  2  0  0  0  0  0  0
  194.1680  176.8890  146.8950 O   0  0  0  0  0  1  0  0  0  0  0  0
  194.5120  174.7540  145.8270 C   0  0  0  0  0  3  0  0  0  0  0  0
  1 21  1  0  0  0  0
  2 17  2  0  0  0  0
  3 14  2  0  0  0  0
  4 12  1  6  0  0  0
  4  9  1  0  0  0  0
  4  7  1  0  0  0  0
  5  7  1  0  0  0  0
  5 11  1  1  0  0  0
  6 16  1  1  0  0  0
  6 17  1  0  0  0  0
  7  2  1  1  0  0  0
  8 12  1  0  0  0  0
  8 18  1  0  0  0  0
  9  6  1  0  0  0  0
 10 20  1  0  0  0  0
 13 19  2  0  0  0  0
 14 18  1  0  0  0  0
 14 10  1  0  0  0  0
 15 10  2  0  0  0  0
 15 13  1  0  0  0  0
 18  5  1  0  0  0  0
 19  1  1  0  0  0  0
 20 11  1  0  0  0  0
 20  1  2  0  0  0  0
 22 21  1  1  0  0  0
 22 24  1  0  0  0  0
 22 23  1  0  0  0  0
 24 25  1  6  0  0  0
 24 23  1  0  0  0  0
 25 27  1  0  0  0  0
 26 28  2  0  0  0  0
 28 25  1  0  0  0  0
M  END
>  <MODEL>
2

>  <REMARK>
 VINA RESULT:      -7.8      3.141      7.246
  Name = 
  3 active torsions:
  status: ('A' for Active; 'I' for Inactive)
    1  A    between atoms: C_1  and  C_2
    2  A    between atoms: C_2  and  C_3
    3  A    between atoms: N_6  and  C_11
                            x       y       z     vdW  Elec       q    Type
                         _______ _______ _______ _____ _____    ______ ____

>  <TORSDO>
F 3

$$$$
=
 OpenBabel11052418133D

 28 32  0  0  1  0  0  0  0  0999 V2000
  189.8160  174.7980  142.0990 C   0  0  0  0  0  0  0  0  0  0  0  0
  188.1280  177.5270  145.7960 C   0  0  0  0  0  3  0  0  0  0  0  0
  186.3440  177.4850  140.0420 C   0  0  0  0  0  2  0  0  0  0  0  0
  185.8760  177.8930  144.6380 C   0  0  1  0  0  3  0  0  0  0  0  0
  188.0890  177.9420  143.3330 C   0  0  1  0  0  3  0  0  0  0  0  0
  186.0690  177.0930  147.0440 C   0  0  2  0  0  3  0  0  0  0  0  0
  187.3350  177.3460  144.5270 C   0  0  1  0  0  3  0  0  0  0  0  0
  186.0330  179.0700  142.4190 C   0  0  0  0  0  2  0  0  0  0  0  0
  185.3390  178.0200  146.0750 C   0  0  0  0  0  2  0  0  0  0  0  0
  188.0250  176.0760  141.0880 C   0  0  0  0  0  0  0  0  0  0  0  0
  189.3360  177.1330  142.9530 C   0  0  0  0  0  2  0  0  0  0  0  0
  185.7020  179.2270  143.9070 C   0  0  0  0  0  2  0  0  0  0  0  0
  188.5740  173.9290  140.2220 C   0  0  0  0  0  3  0  0  0  0  0  0
  187.1640  177.2740  141.0710 C   0  0  0  0  0  0  0  0  0  0  0  0
  187.8250  175.0630  140.1980 N   0  0  0  0  0  0  0  0  0  0  0  0
  185.5990  177.3000  148.3400 O   0  0  0  0  0  1  0  0  0  0  0  0
  187.5360  177.3900  146.9860 C   0  0  0  0  0  3  0  0  0  0  0  0
  187.1730  178.1670  142.2030 N   0  0  0  0  0  0  0  0  0  0  0  0
  189.5800  173.7760  141.1760 C   0  0  0  0  0  3  0  0  0  0  0  0
  189.0270  175.9630  142.0640 C   0  0  0  0  0  0  0  0  0  0  0  0
  190.8850  174.6090  143.1260 C   0  0  0  0  0  2  0  0  0  0  0  0
  190.2910  174.7090  144.5200 C   0  0  1  0  0  3  0  0  0  0  0  0
  190.5700  173.4360  145.2860 C   0  0  0  0  0  2  0  0  0  0  0  0
  191.4130  174.6720  145.5410 C   0  0  2  0  0  3  0  0  0  0  0  0
  190.9850  175.3350  146.7640 N   0  0  0  0  0  0  0  0  0  0  0  0
  191.4280  177.0020  148.3840 N   0  0  0  0  0  2  0  0  0  0  0  0
  190.0250  174.7680  147.5350 O   0  0  0  0  0  1  0  0  0  0  0  0
  191.7250  176.4570  147.2520 C   0  0  0  0  0  3  0  0  0  0  0  0
  1 21  1  0  0  0  0
  2 17  2  0  0  0  0
  3 14  2  0  0  0  0
  4 12  1  1  0  0  0
  4  9  1  0  0  0  0
  5 11  1  6  0  0  0
  5  7  1  0  0  0  0
  6 16  1  1  0  0  0
  7  4  1  0  0  0  0
  7  2  1  1  0  0  0
  8 12  1  0  0  0  0
  9  6  1  0  0  0  0
 10 20  2  0  0  0  0
 13 19  1  0  0  0  0
 14 10  1  0  0  0  0
 14 18  1  0  0  0  0
 15 13  2  0  0  0  0
 15 10  1  0  0  0  0
 17  6  1  0  0  0  0
 18  8  1  0  0  0  0
 18  5  1  0  0  0  0
 19  1  2  0  0  0  0
 20  1  1  0  0  0  0
 20 11  1  0  0  0  0
 22 21  1  6  0  0  0
 22 23  1  0  0  0  0
 22 24  1  0  0  0  0
 23 24  1  0  0  0  0
 24 25  1  1  0  0  0
 25 28  1  0  0  0  0
 25 27  1  0  0  0  0
 28 26  2  0  0  0  0
M  END
>  <MODEL>
3

>  <REMARK>
 VINA RESULT:      -7.6      2.836      7.212
  Name = 
  3 active torsions:
  status: ('A' for Active; 'I' for Inactive)
    1  A    between atoms: C_1  and  C_2
    2  A    between atoms: C_2  and  C_3
    3  A    between atoms: N_6  and  C_11
                            x       y       z     vdW  Elec       q    Type
                         _______ _______ _______ _____ _____    ______ ____

>  <TORSDO>
F 3

$$$$
=
 OpenBabel11052418133D

 28 32  0  0  1  0  0  0  0  0999 V2000
  189.7010  174.4100  143.8300 C   0  0  0  0  0  0  0  0  0  0  0  0
  187.2560  177.9180  146.2140 C   0  0  0  0  0  3  0  0  0  0  0  0
  187.1280  176.5810  140.3420 C   0  0  0  0  0  2  0  0  0  0  0  0
  185.4410  178.0250  144.4130 C   0  0  1  0  0  3  0  0  0  0  0  0
  187.9270  177.7630  143.8120 C   0  0  1  0  0  3  0  0  0  0  0  0
  184.9080  177.7910  146.8880 C   0  0  2  0  0  3  0  0  0  0  0  0
  186.8320  177.4580  144.8420 C   0  0  1  0  0  3  0  0  0  0  0  0
  186.2860  178.6650  142.1310 C   0  0  0  0  0  2  0  0  0  0  0  0
  184.5400  178.4780  145.5750 C   0  0  0  0  0  2  0  0  0  0  0  0
  188.3510  175.4350  142.1010 C   0  0  0  0  0  0  0  0  0  0  0  0
  189.1700  176.8810  143.9870 C   0  0  0  0  0  2  0  0  0  0  0  0
  185.5700  179.1590  143.3930 C   0  0  0  0  0  2  0  0  0  0  0  0
  188.9660  173.1450  141.9120 C   0  0  0  0  0  3  0  0  0  0  0  0
  187.6150  176.6040  141.5810 C   0  0  0  0  0  0  0  0  0  0  0  0
  188.3340  174.2480  141.4320 N   0  0  0  0  0  0  0  0  0  0  0  0
  184.1150  178.2910  147.9200 O   0  0  0  0  0  1  0  0  0  0  0  0
  186.3510  178.0590  147.1870 C   0  0  0  0  0  3  0  0  0  0  0  0
  187.3750  177.7310  142.4480 N   0  0  0  0  0  0  0  0  0  0  0  0
  189.6570  173.2060  143.1220 C   0  0  0  0  0  3  0  0  0  0  0  0
  189.0360  175.5410  143.3220 C   0  0  0  0  0  0  0  0  0  0  0  0
  190.4300  174.4530  145.1340 C   0  0  0  0  0  2  0  0  0  0  0  0
  191.8650  174.8970  144.9140 C   0  0  1  0  0  3  0  0  0  0  0  0
  192.2280  175.9700  145.9150 C   0  0  0  0  0  2  0  0  0  0  0  0
  192.6880  174.5410  146.1390 C   0  0  2  0  0  3  0  0  0  0  0  0
  194.0870  174.3930  145.7640 N   0  0  0  0  0  0  0  0  0  0  0  0
  195.8380  172.9280  145.1460 N   0  0  0  0  0  2  0  0  0  0  0  0
  194.9490  175.4190  145.9690 O   0  0  0  0  0  1  0  0  0  0  0  0
  194.5830  173.1070  145.3880 C   0  0  0  0  0  3  0  0  0  0  0  0
  1 21  1  0  0  0  0
  2 17  2  0  0  0  0
  3 14  2  0  0  0  0
  4 12  1  6  0  0  0
  4  7  1  0  0  0  0
  4  9  1  0  0  0  0
  5 11  1  6  0  0  0
  5  7  1  0  0  0  0
  6 17  1  0  0  0  0
  6 16  1  1  0  0  0
  7  2  1  1  0  0  0
  8 18  1  0  0  0  0
  8 12  1  0  0  0  0
  9  6  1  0  0  0  0
 10 20  2  0  0  0  0
 13 19  1  0  0  0  0
 14 10  1  0  0  0  0
 14 18  1  0  0  0  0
 15 13  2  0  0  0  0
 15 10  1  0  0  0  0
 18  5  1  0  0  0  0
 19  1  2  0  0  0  0
 20  1  1  0  0  0  0
 20 11  1  0  0  0  0
 22 21  1  1  0  0  0
 22 23  1  0  0  0  0
 22 24  1  0  0  0  0
 23 24  1  0  0  0  0
 24 25  1  6  0  0  0
 25 27  1  0  0  0  0
 26 28  2  0  0  0  0
 28 25  1  0  0  0  0
M  END
>  <MODEL>
4

>  <REMARK>
 VINA RESULT:      -7.2      3.266      7.637
  Name = 
  3 active torsions:
  status: ('A' for Active; 'I' for Inactive)
    1  A    between atoms: C_1  and  C_2
    2  A    between atoms: C_2  and  C_3
    3  A    between atoms: N_6  and  C_11
                            x       y       z     vdW  Elec       q    Type
                         _______ _______ _______ _____ _____    ______ ____

>  <TORSDO>
F 3

$$$$
=
 OpenBabel11052418133D

 28 32  0  0  1  0  0  0  0  0999 V2000
  189.7670  174.0410  143.7110 C   0  0  0  0  0  0  0  0  0  0  0  0
  187.0830  178.1270  143.9640 C   0  0  0  0  0  3  0  0  0  0  0  0
  187.9140  174.4680  139.2510 C   0  0  0  0  0  2  0  0  0  0  0  0
  185.6090  177.4080  141.9990 C   0  0  1  0  0  3  0  0  0  0  0  0
  188.1490  177.0140  141.9980 C   0  0  1  0  0  3  0  0  0  0  0  0
  184.6510  178.2030  144.2170 C   0  0  2  0  0  3  0  0  0  0  0  0
  186.8840  177.1230  142.8570 C   0  0  1  0  0  3  0  0  0  0  0  0
  186.8560  177.0740  139.8390 C   0  0  0  0  0  2  0  0  0  0  0  0
  184.5400  178.2680  142.6950 C   0  0  0  0  0  2  0  0  0  0  0  0
  188.7740  174.2030  141.5080 C   0  0  0  0  0  0  0  0  0  0  0  0
  189.3100  176.3310  142.7340 C   0  0  0  0  0  2  0  0  0  0  0  0
  185.9540  178.0190  140.6390 C   0  0  0  0  0  2  0  0  0  0  0  0
  189.3250  172.0670  142.3970 C   0  0  0  0  0  3  0  0  0  0  0  0
  188.1820  175.0220  140.4320 C   0  0  0  0  0  0  0  0  0  0  0  0
  188.8270  172.8460  141.4010 N   0  0  0  0  0  0  0  0  0  0  0  0
  183.7120  179.0560  144.7950 O   0  0  0  0  0  1  0  0  0  0  0  0
  186.0300  178.6250  144.6200 C   0  0  0  0  0  3  0  0  0  0  0  0
  187.8390  176.3970  140.6980 N   0  0  0  0  0  0  0  0  0  0  0  0
  189.8000  172.6510  143.5700 C   0  0  0  0  0  3  0  0  0  0  0  0
  189.2420  174.8330  142.6730 C   0  0  0  0  0  0  0  0  0  0  0  0
  190.2630  174.6490  144.9830 C   0  0  0  0  0  2  0  0  0  0  0  0
  189.0900  175.0310  145.8680 C   0  0  1  0  0  3  0  0  0  0  0  0
  189.4180  174.7270  147.3120 C   0  0  0  0  0  2  0  0  0  0  0  0
  189.5160  176.1520  146.7990 C   0  0  2  0  0  3  0  0  0  0  0  0
  188.3480  176.9200  147.2080 N   0  0  0  0  0  0  0  0  0  0  0  0
  186.0080  176.9520  147.5550 N   0  0  0  0  0  2  0  0  0  0  0  0
  188.4330  178.2690  147.3070 O   0  0  0  0  0  1  0  0  0  0  0  0
  187.0760  176.2750  147.2910 C   0  0  0  0  0  3  0  0  0  0  0  0
  1 21  1  0  0  0  0
  2 17  2  0  0  0  0
  3 14  2  0  0  0  0
  4 12  1  6  0  0  0
  4  9  1  0  0  0  0
  4  7  1  0  0  0  0
  5 11  1  1  0  0  0
  5  7  1  0  0  0  0
  6 17  1  0  0  0  0
  6 16  1  1  0  0  0
  7  2  1  1  0  0  0
  8 12  1  0  0  0  0
  8 18  1  0  0  0  0
  9  6  1  0  0  0  0
 10 20  1  0  0  0  0
 13 19  2  0  0  0  0
 14 18  1  0  0  0  0
 14 10  1  0  0  0  0
 15 10  2  0  0  0  0
 15 13  1  0  0  0  0
 18  5  1  0  0  0  0
 19  1  1  0  0  0  0
 20 11  1  0  0  0  0
 20  1  2  0  0  0  0
 22 21  1  6  0  0  0
 22 24  1  0  0  0  0
 22 23  1  0  0  0  0
 24 25  1  1  0  0  0
 24 23  1  0  0  0  0
 25 28  1  0  0  0  0
 25 27  1  0  0  0  0
 28 26  2  0  0  0  0
M  END
>  <MODEL>
5

>  <REMARK>
 VINA RESULT:      -7.2      2.488      6.613
  Name = 
  3 active torsions:
  status: ('A' for Active; 'I' for Inactive)
    1  A    between atoms: C_1  and  C_2
    2  A    between atoms: C_2  and  C_3
    3  A    between atoms: N_6  and  C_11
                            x       y       z     vdW  Elec       q    Type
                         _______ _______ _______ _____ _____    ______ ____

>  <TORSDO>
F 3

$$$$
=
 OpenBabel11052418133D

 28 32  0  0  1  0  0  0  0  0999 V2000
  187.0160  176.6730  144.6350 C   0  0  0  0  0  0  0  0  0  0  0  0
  189.9120  173.7320  142.0040 C   0  0  0  0  0  3  0  0  0  0  0  0
  190.9640  176.1820  147.4050 C   0  0  0  0  0  2  0  0  0  0  0  0
  191.1920  172.9580  144.0800 C   0  0  1  0  0  3  0  0  0  0  0  0
  190.4840  175.4080  143.7650 C   0  0  1  0  0  3  0  0  0  0  0  0
  190.2100  171.3330  142.3880 C   0  0  2  0  0  3  0  0  0  0  0  0
  190.1390  173.9420  143.4790 C   0  0  1  0  0  3  0  0  0  0  0  0
  192.3740  174.8050  145.3150 C   0  0  0  0  0  2  0  0  0  0  0  0
  191.4110  171.6690  143.2680 C   0  0  0  0  0  2  0  0  0  0  0  0
  188.9490  176.3600  146.0590 C   0  0  0  0  0  0  0  0  0  0  0  0
  189.2900  176.3500  143.5690 C   0  0  0  0  0  2  0  0  0  0  0  0
  192.5390  173.6390  144.3350 C   0  0  0  0  0  2  0  0  0  0  0  0
  186.8220  176.7860  147.0370 C   0  0  0  0  0  3  0  0  0  0  0  0
  190.3830  176.0500  146.2140 C   0  0  0  0  0  0  0  0  0  0  0  0
  188.1550  176.5450  147.1510 N   0  0  0  0  0  0  0  0  0  0  0  0
  190.4880  170.2050  141.6190 O   0  0  0  0  0  1  0  0  0  0  0  0
  189.9280  172.4980  141.4890 C   0  0  0  0  0  3  0  0  0  0  0  0
  191.1220  175.5400  145.0850 N   0  0  0  0  0  0  0  0  0  0  0  0
  186.2300  176.8510  145.7760 C   0  0  0  0  0  3  0  0  0  0  0  0
  188.3920  176.4170  144.7710 C   0  0  0  0  0  0  0  0  0  0  0  0
  186.3600  176.7260  143.2920 C   0  0  0  0  0  2  0  0  0  0  0  0
  185.0710  177.5240  143.3740 C   0  0  1  0  0  3  0  0  0  0  0  0
  185.3440  178.9720  143.0390 C   0  0  0  0  0  2  0  0  0  0  0  0
  184.7300  178.0580  141.9950 C   0  0  2  0  0  3  0  0  0  0  0  0
  183.2960  178.2880  141.8980 N   0  0  0  0  0  0  0  0  0  0  0  0
  181.3780  178.3470  140.5140 N   0  0  0  0  0  2  0  0  0  0  0  0
  182.6460  178.9080  142.9130 O   0  0  0  0  0  1  0  0  0  0  0  0
  182.6280  178.0570  140.6560 C   0  0  0  0  0  3  0  0  0  0  0  0
  1 20  2  0  0  0  0
  1 19  1  0  0  0  0
  4  9  1  6  0  0  0
  4 12  1  0  0  0  0
  5 11  1  1  0  0  0
  5 18  1  0  0  0  0
  6 16  1  6  0  0  0
  6  9  1  0  0  0  0
  7  2  1  6  0  0  0
  7  5  1  0  0  0  0
  7  4  1  0  0  0  0
 10 14  1  0  0  0  0
 10 15  2  0  0  0  0
 11 20  1  0  0  0  0
 12  8  1  0  0  0  0
 13 15  1  0  0  0  0
 14  3  2  0  0  0  0
 17  2  2  0  0  0  0
 17  6  1  0  0  0  0
 18  8  1  0  0  0  0
 18 14  1  0  0  0  0
 19 13  2  0  0  0  0
 20 10  1  0  0  0  0
 21  1  1  0  0  0  0
 22 21  1  6  0  0  0
 23 22  1  0  0  0  0
 24 25  1  1  0  0  0
 24 23  1  0  0  0  0
 24 22  1  0  0  0  0
 25 27  1  0  0  0  0
 26 28  2  0  0  0  0
 28 25  1  0  0  0  0
M  END
>  <MODEL>
6

>  <REMARK>
 VINA RESULT:      -7.0      1.939      2.337
  Name = 
  3 active torsions:
  status: ('A' for Active; 'I' for Inactive)
    1  A    between atoms: C_1  and  C_2
    2  A    between atoms: C_2  and  C_3
    3  A    between atoms: N_6  and  C_11
                            x       y       z     vdW  Elec       q    Type
                         _______ _______ _______ _____ _____    ______ ____

>  <TORSDO>
F 3

$$$$
=
 OpenBabel11052418133D

 28 32  0  0  1  0  0  0  0  0999 V2000
  188.0280  177.5400  144.6160 C   0  0  0  0  0  0  0  0  0  0  0  0
  191.9300  175.5970  142.3880 C   0  0  0  0  0  3  0  0  0  0  0  0
  191.1020  176.6580  148.2600 C   0  0  0  0  0  2  0  0  0  0  0  0
  192.6960  174.4170  144.5260 C   0  0  1  0  0  3  0  0  0  0  0  0
  191.7490  176.8060  144.5660 C   0  0  1  0  0  3  0  0  0  0  0  0
  192.4600  173.2100  142.2990 C   0  0  2  0  0  3  0  0  0  0  0  0
  191.7130  175.4400  143.8720 C   0  0  1  0  0  3  0  0  0  0  0  0
  193.2130  175.9720  146.4360 C   0  0  0  0  0  2  0  0  0  0  0  0
  193.3150  173.4000  143.5510 C   0  0  0  0  0  2  0  0  0  0  0  0
  189.5250  177.0200  146.4460 C   0  0  0  0  0  0  0  0  0  0  0  0
  190.5280  177.6740  144.2360 C   0  0  0  0  0  2  0  0  0  0  0  0
  193.8080  175.1100  145.3170 C   0  0  0  0  0  2  0  0  0  0  0  0
  187.1750  177.0210  146.8110 C   0  0  0  0  0  3  0  0  0  0  0  0
  190.8930  176.7910  146.9510 C   0  0  0  0  0  0  0  0  0  0  0  0
  188.4470  176.8600  147.2630 N   0  0  0  0  0  0  0  0  0  0  0  0
  193.1000  172.3400  141.4190 O   0  0  0  0  0  1  0  0  0  0  0  0
  192.2660  174.5410  141.6400 C   0  0  0  0  0  3  0  0  0  0  0  0
  191.9770  176.6440  146.0110 N   0  0  0  0  0  0  0  0  0  0  0  0
  186.9440  177.3600  145.4790 C   0  0  0  0  0  3  0  0  0  0  0  0
  189.3380  177.3630  145.0980 C   0  0  0  0  0  0  0  0  0  0  0  0
  187.7620  177.8850  143.1860 C   0  0  0  0  0  2  0  0  0  0  0  0
  187.3440  176.6420  142.4200 C   0  0  1  0  0  3  0  0  0  0  0  0
  187.3880  176.9180  140.9350 C   0  0  0  0  0  2  0  0  0  0  0  0
  188.5190  176.1500  141.5950 C   0  0  2  0  0  3  0  0  0  0  0  0
  188.3790  174.7230  141.3430 N   0  0  0  0  0  0  0  0  0  0  0  0
  188.6350  172.5210  142.1710 N   0  0  0  0  0  2  0  0  0  0  0  0
  188.1910  174.2800  140.0760 O   0  0  0  0  0  1  0  0  0  0  0  0
  188.6560  173.7930  142.3930 C   0  0  0  0  0  3  0  0  0  0  0  0
  1 20  2  0  0  0  0
  1 19  1  0  0  0  0
  4  9  1  6  0  0  0
  4 12  1  0  0  0  0
  5 11  1  1  0  0  0
  5 18  1  0  0  0  0
  6 16  1  6  0  0  0
  6  9  1  0  0  0  0
  7  2  1  6  0  0  0
  7  4  1  0  0  0  0
  7  5  1  0  0  0  0
 10 14  1  0  0  0  0
 10 15  2  0  0  0  0
 11 20  1  0  0  0  0
 12  8  1  0  0  0  0
 13 15  1  0  0  0  0
 14  3  2  0  0  0  0
 17  6  1  0  0  0  0
 17  2  2  0  0  0  0
 18  8  1  0  0  0  0
 18 14  1  0  0  0  0
 19 13  2  0  0  0  0
 20 10  1  0  0  0  0
 21  1  1  0  0  0  0
 22 21  1  1  0  0  0
 23 24  1  0  0  0  0
 23 22  1  0  0  0  0
 24 25  1  6  0  0  0
 24 22  1  0  0  0  0
 25 28  1  0  0  0  0
 26 28  2  0  0  0  0
 27 25  1  0  0  0  0
M  END
>  <MODEL>
7

>  <REMARK>
 VINA RESULT:      -6.9      2.500      3.515
  Name = 
  3 active torsions:
  status: ('A' for Active; 'I' for Inactive)
    1  A    between atoms: C_1  and  C_2
    2  A    between atoms: C_2  and  C_3
    3  A    between atoms: N_6  and  C_11
                            x       y       z     vdW  Elec       q    Type
                         _______ _______ _______ _____ _____    ______ ____

>  <TORSDO>
F 3

$$$$
=
 OpenBabel11052418133D

 28 32  0  0  1  0  0  0  0  0999 V2000
  188.3910  175.2900  142.9980 C   0  0  0  0  0  0  0  0  0  0  0  0
  191.8300  175.7930  146.4460 C   0  0  0  0  0  3  0  0  0  0  0  0
  191.4920  171.6850  142.0530 C   0  0  0  0  0  2  0  0  0  0  0  0
  193.5740  174.5600  145.0370 C   0  0  1  0  0  3  0  0  0  0  0  0
  191.1280  173.7780  145.1460 C   0  0  1  0  0  3  0  0  0  0  0  0
  194.0240  176.8210  146.1100 C   0  0  2  0  0  3  0  0  0  0  0  0
  192.0790  174.9800  145.2010 C   0  0  1  0  0  3  0  0  0  0  0  0
  192.9580  172.1860  144.4730 C   0  0  0  0  0  2  0  0  0  0  0  0
  194.5800  175.4310  145.8100 C   0  0  0  0  0  2  0  0  0  0  0  0
  189.9830  173.5430  142.4700 C   0  0  0  0  0  0  0  0  0  0  0  0
  189.6730  174.1830  144.8810 C   0  0  0  0  0  2  0  0  0  0  0  0
  193.8010  173.0860  145.3830 C   0  0  0  0  0  2  0  0  0  0  0  0
  188.6790  174.5130  140.7320 C   0  0  0  0  0  3  0  0  0  0  0  0
  191.0450  172.6120  142.8980 C   0  0  0  0  0  0  0  0  0  0  0  0
  189.6220  173.6310  141.1590 N   0  0  0  0  0  0  0  0  0  0  0  0
  194.9410  177.5410  146.8750 O   0  0  0  0  0  1  0  0  0  0  0  0
  192.7400  176.6760  146.8680 C   0  0  0  0  0  3  0  0  0  0  0  0
  191.6330  172.7640  144.2060 N   0  0  0  0  0  0  0  0  0  0  0  0
  188.0510  175.3600  141.6450 C   0  0  0  0  0  3  0  0  0  0  0  0
  189.3750  174.3770  143.4220 C   0  0  0  0  0  0  0  0  0  0  0  0
  187.7220  176.2190  143.9590 C   0  0  0  0  0  2  0  0  0  0  0  0
  186.2690  176.4170  143.5630 C   0  0  1  0  0  3  0  0  0  0  0  0
  185.5670  177.2590  144.6040 C   0  0  0  0  0  2  0  0  0  0  0  0
  186.0240  177.8930  143.3030 C   0  0  2  0  0  3  0  0  0  0  0  0
  184.8990  178.0500  142.3920 N   0  0  0  0  0  0  0  0  0  0  0  0
  184.1730  178.4020  140.1680 N   0  0  0  0  0  2  0  0  0  0  0  0
  183.6610  178.2910  142.8890 O   0  0  0  0  0  1  0  0  0  0  0  0
  185.1410  178.1640  140.9880 C   0  0  0  0  0  3  0  0  0  0  0  0
  1 20  1  0  0  0  0
  1 21  1  0  0  0  0
  2 17  2  0  0  0  0
  3 14  2  0  0  0  0
  4  7  1  0  0  0  0
  4 12  1  1  0  0  0
  4  9  1  0  0  0  0
  5 11  1  6  0  0  0
  5  7  1  0  0  0  0
  6 17  1  0  0  0  0
  6 16  1  1  0  0  0
  7  2  1  1  0  0  0
  8 12  1  0  0  0  0
  9  6  1  0  0  0  0
 10 14  1  0  0  0  0
 10 20  2  0  0  0  0
 13 15  2  0  0  0  0
 13 19  1  0  0  0  0
 14 18  1  0  0  0  0
 15 10  1  0  0  0  0
 18  8  1  0  0  0  0
 18  5  1  0  0  0  0
 19  1  2  0  0  0  0
 20 11  1  0  0  0  0
 22 21  1  1  0  0  0
 22 23  1  0  0  0  0
 24 25  1  6  0  0  0
 24 22  1  0  0  0  0
 24 23  1  0  0  0  0
 25 27  1  0  0  0  0
 26 28  2  0  0  0  0
 28 25  1  0  0  0  0
M  END
>  <MODEL>
8

>  <REMARK>
 VINA RESULT:      -6.8      3.138      5.203
  Name = 
  3 active torsions:
  status: ('A' for Active; 'I' for Inactive)
    1  A    between atoms: C_1  and  C_2
    2  A    between atoms: C_2  and  C_3
    3  A    between atoms: N_6  and  C_11
                            x       y       z     vdW  Elec       q    Type
                         _______ _______ _______ _____ _____    ______ ____

>  <TORSDO>
F 3

$$$$
=
 OpenBabel11052418133D

 28 32  0  0  1  0  0  0  0  0999 V2000
  192.5650  173.8620  144.9070 C   0  0  0  0  0  0  0  0  0  0  0  0
  188.2830  175.2720  142.9990 C   0  0  0  0  0  3  0  0  0  0  0  0
  190.9310  177.1500  148.0730 C   0  0  0  0  0  2  0  0  0  0  0  0
  188.3440  177.5090  144.2410 C   0  0  1  0  0  3  0  0  0  0  0  0
  189.0930  175.3200  145.3610 C   0  0  1  0  0  3  0  0  0  0  0  0
  187.9110  177.3380  141.7410 C   0  0  2  0  0  3  0  0  0  0  0  0
  188.9870  176.0990  144.0450 C   0  0  1  0  0  3  0  0  0  0  0  0
  188.3860  177.2980  146.7480 C   0  0  0  0  0  2  0  0  0  0  0  0
  187.5070  178.0100  143.0510 C   0  0  0  0  0  2  0  0  0  0  0  0
  191.7930  175.5660  146.4440 C   0  0  0  0  0  0  0  0  0  0  0  0
  190.0770  174.1460  145.2810 C   0  0  0  0  0  2  0  0  0  0  0  0
  187.5130  177.5910  145.5230 C   0  0  0  0  0  2  0  0  0  0  0  0
  194.1270  175.1980  146.1680 C   0  0  0  0  0  3  0  0  0  0  0  0
  190.6870  176.3320  147.0510 C   0  0  0  0  0  0  0  0  0  0  0  0
  193.0890  175.8580  146.7470 N   0  0  0  0  0  0  0  0  0  0  0  0
  187.0750  177.7690  140.7120 O   0  0  0  0  0  1  0  0  0  0  0  0
  187.7890  175.8540  141.9010 C   0  0  0  0  0  3  0  0  0  0  0  0
  189.3650  176.2350  146.4820 N   0  0  0  0  0  0  0  0  0  0  0  0
  193.8820  174.1910  145.2350 C   0  0  0  0  0  3  0  0  0  0  0  0
  191.5020  174.5590  145.5100 C   0  0  0  0  0  0  0  0  0  0  0  0
  192.3200  172.7930  143.8900 C   0  0  0  0  0  2  0  0  0  0  0  0
  191.9370  173.4190  142.5600 C   0  0  1  0  0  3  0  0  0  0  0  0
  192.8960  172.9600  141.4850 C   0  0  0  0  0  2  0  0  0  0  0  0
  191.5240  172.3200  141.5970 C   0  0  2  0  0  3  0  0  0  0  0  0
  190.6260  172.8650  140.5890 N   0  0  0  0  0  0  0  0  0  0  0  0
  188.4310  172.9360  139.7080 N   0  0  0  0  0  2  0  0  0  0  0  0
  191.1380  173.4900  139.5010 O   0  0  0  0  0  1  0  0  0  0  0  0
  189.2330  172.5490  140.6430 C   0  0  0  0  0  3  0  0  0  0  0  0
  1 19  2  0  0  0  0
  1 20  1  0  0  0  0
  4  9  1  6  0  0  0
  4 12  1  0  0  0  0
  5 11  1  6  0  0  0
  5 18  1  0  0  0  0
  6 16  1  6  0  0  0
  6 17  1  0  0  0  0
  6  9  1  0  0  0  0
  7  2  1  6  0  0  0
  7  4  1  0  0  0  0
  7  5  1  0  0  0  0
 10 15  1  0  0  0  0
 10 14  1  0  0  0  0
 11 20  1  0  0  0  0
 12  8  1  0  0  0  0
 13 15  2  0  0  0  0
 14  3  2  0  0  0  0
 17  2  2  0  0  0  0
 18  8  1  0  0  0  0
 18 14  1  0  0  0  0
 19 13  1  0  0  0  0
 20 10  2  0  0  0  0
 21  1  1  0  0  0  0
 22 21  1  1  0  0  0
 23 24  1  0  0  0  0
 23 22  1  0  0  0  0
 24 25  1  6  0  0  0
 24 22  1  0  0  0  0
 25 28  1  0  0  0  0
 26 28  2  0  0  0  0
 27 25  1  0  0  0  0
M  END
>  <MODEL>
9

>  <REMARK>
 VINA RESULT:      -6.8      2.441      5.904
  Name = 
  3 active torsions:
  status: ('A' for Active; 'I' for Inactive)
    1  A    between atoms: C_1  and  C_2
    2  A    between atoms: C_2  and  C_3
    3  A    between atoms: N_6  and  C_11
                            x       y       z     vdW  Elec       q    Type
                         _______ _______ _______ _____ _____    ______ ____

>  <TORSDO>
F 3

$$$$
