=
 OpenBabel11052418443D

 34 39  0  0  1  0  0  0  0  0999 V2000
  191.8690  176.6080  144.7470 C   0  0  0  0  0  0  0  0  0  0  0  0
  192.0970  174.2010  145.1280 C   0  0  0  0  0  0  0  0  0  0  0  0
  189.8460  175.2250  144.3650 C   0  0  1  0  0  3  0  0  0  0  0  0
  188.5260  175.2360  142.2490 C   0  0  0  0  0  0  0  0  0  0  0  0
  194.0680  175.5730  145.4880 C   0  0  0  0  0  3  0  0  0  0  0  0
  193.4940  174.3710  145.5320 C   0  0  0  0  0  3  0  0  0  0  0  0
  190.5320  174.0680  142.1420 C   0  0  0  0  0  3  0  0  0  0  0  0
  191.2970  175.3850  144.7600 C   0  0  0  0  0  0  0  0  0  0  0  0
  188.5060  174.6010  140.6980 S   0  0  0  0  0  0  0  0  0  0  0  0
  193.3470  176.8000  144.9910 C   0  0  0  0  0  2  0  0  0  0  0  0
  189.0190  176.4890  144.7220 C   0  0  2  0  0  3  0  0  0  0  0  0
  191.0810  177.7670  144.4360 N   0  0  0  0  0  0  0  0  0  0  0  0
  191.5850  173.0510  145.1230 O   0  0  0  0  0  0  0  0  0  0  0  0
  187.4820  175.9840  142.8720 N   0  0  0  0  0  0  0  0  0  0  0  0
  187.6530  176.5260  144.0480 C   0  0  0  0  0  0  0  0  0  0  0  0
  190.0080  173.8500  140.8680 C   0  0  0  0  0  0  0  0  0  0  0  0
  189.6840  174.8770  142.9100 C   0  0  0  0  0  0  0  0  0  0  0  0
  189.7830  177.7420  144.3880 C   0  0  0  0  0  3  0  0  0  0  0  0
  185.0940  179.2190  144.7940 C   0  0  0  0  0  0  0  0  0  0  0  0
  184.4260  178.6680  145.8900 C   0  0  0  0  0  3  0  0  0  0  0  0
  186.5380  177.2650  144.6810 C   0  0  0  0  0  0  0  0  0  0  0  0
  184.8090  177.4190  146.3860 C   0  0  0  0  0  3  0  0  0  0  0  0
  186.1450  178.5210  144.1930 C   0  0  0  0  0  3  0  0  0  0  0  0
  185.8610  176.7210  145.7840 C   0  0  0  0  0  3  0  0  0  0  0  0
  184.7230  180.4290  144.3130 F   0  0  0  0  0  0  0  0  0  0  0  0
  190.6270  173.0710  139.8450 N   0  0  0  0  0  2  0  0  0  0  0  0
  189.9940  171.8840  139.2900 C   0  0  0  0  0  2  0  0  0  0  0  0
  189.3200  169.8470  137.3650 F   0  0  0  0  0  0  0  0  0  0  0  0
  189.4910  172.1750  137.8870 C   0  0  2  0  0  3  0  0  0  0  0  0
  189.8900  171.0350  136.9440 C   0  0  2  0  0  3  0  0  0  0  0  0
  189.9030  172.7150  135.0840 C   0  0  0  0  0  2  0  0  0  0  0  0
  189.4840  173.7610  136.1140 C   0  0  0  0  0  2  0  0  0  0  0  0
  190.0630  173.4370  137.4160 N   0  0  0  0  0  2  0  0  0  0  0  0
  189.4090  171.3430  135.5290 C   0  0  0  0  0  2  0  0  0  0  0  0
  1  8  2  0  0  0  0
  1 10  1  0  0  0  0
  2  6  1  0  0  0  0
  3 17  1  6  0  0  0
  3 11  1  0  0  0  0
  3  8  1  0  0  0  0
  4 14  1  0  0  0  0
  4 17  2  0  0  0  0
  5  6  2  0  0  0  0
  7 17  1  0  0  0  0
  8  2  1  0  0  0  0
  9 16  1  0  0  0  0
  9  4  1  0  0  0  0
 10  5  1  0  0  0  0
 11 18  1  6  0  0  0
 12  1  1  0  0  0  0
 13  2  2  0  0  0  0
 14 15  2  0  0  0  0
 15 21  1  0  0  0  0
 15 11  1  0  0  0  0
 16  7  2  0  0  0  0
 18 12  2  0  0  0  0
 19 20  1  0  0  0  0
 20 22  2  0  0  0  0
 21 24  2  0  0  0  0
 23 21  1  0  0  0  0
 23 19  2  0  0  0  0
 24 22  1  0  0  0  0
 25 19  1  0  0  0  0
 26 16  1  0  0  0  0
 27 26  1  0  0  0  0
 29 27  1  1  0  0  0
 30 28  1  1  0  0  0
 30 29  1  0  0  0  0
 31 34  1  0  0  0  0
 31 32  1  0  0  0  0
 32 33  1  0  0  0  0
 33 29  1  0  0  0  0
 34 30  1  0  0  0  0
M  END
>  <MODEL>
1

>  <REMARK>
 VINA RESULT:      -8.7      0.000      0.000
  Name = 
  4 active torsions:
  status: ('A' for Active; 'I' for Inactive)
    1  A    between atoms: C_3  and  C_13
    2  A    between atoms: C_3  and  N_17
    3  A    between atoms: C_12  and  C_28
    4  A    between atoms: N_17  and  C_29
                            x       y       z     vdW  Elec       q    Type
                         _______ _______ _______ _____ _____    ______ ____

>  <TORSDO>
F 4

$$$$
=
 OpenBabel11052418443D

 34 39  0  0  1  0  0  0  0  0999 V2000
  191.5450  176.2170  144.8620 C   0  0  0  0  0  0  0  0  0  0  0  0
  191.6840  173.7780  144.9920 C   0  0  0  0  0  0  0  0  0  0  0  0
  189.4930  174.9540  144.2770 C   0  0  1  0  0  3  0  0  0  0  0  0
  188.2440  175.2360  142.1360 C   0  0  0  0  0  0  0  0  0  0  0  0
  193.6850  175.0330  145.5530 C   0  0  0  0  0  3  0  0  0  0  0  0
  193.0720  173.8540  145.4520 C   0  0  0  0  0  3  0  0  0  0  0  0
  190.2140  174.0160  141.9640 C   0  0  0  0  0  3  0  0  0  0  0  0
  190.9350  175.0210  144.7290 C   0  0  0  0  0  0  0  0  0  0  0  0
  188.2550  174.7700  140.5260 S   0  0  0  0  0  0  0  0  0  0  0  0
  193.0200  176.3300  145.1690 C   0  0  0  0  0  2  0  0  0  0  0  0
  188.6960  176.2030  144.7420 C   0  0  2  0  0  3  0  0  0  0  0  0
  190.8060  177.4300  144.6540 N   0  0  0  0  0  0  0  0  0  0  0  0
  191.1360  172.6530  144.8480 O   0  0  0  0  0  0  0  0  0  0  0  0
  187.2050  175.9510  142.8050 N   0  0  0  0  0  0  0  0  0  0  0  0
  187.3550  176.3590  144.0360 C   0  0  0  0  0  0  0  0  0  0  0  0
  189.7260  173.9520  140.6590 C   0  0  0  0  0  0  0  0  0  0  0  0
  189.3680  174.7680  142.7880 C   0  0  0  0  0  0  0  0  0  0  0  0
  189.5090  177.4560  144.5660 C   0  0  0  0  0  3  0  0  0  0  0  0
  184.2970  178.5200  144.6130 C   0  0  0  0  0  0  0  0  0  0  0  0
  184.1390  178.4110  145.9970 C   0  0  0  0  0  3  0  0  0  0  0  0
  186.2430  177.0650  144.7120 C   0  0  0  0  0  0  0  0  0  0  0  0
  185.0300  177.6340  146.7420 C   0  0  0  0  0  3  0  0  0  0  0  0
  185.3430  177.8500  143.9740 C   0  0  0  0  0  3  0  0  0  0  0  0
  186.0780  176.9650  146.1020 C   0  0  0  0  0  3  0  0  0  0  0  0
  183.4340  179.2730  143.8910 F   0  0  0  0  0  0  0  0  0  0  0  0
  190.3530  173.2640  139.5770 N   0  0  0  0  0  2  0  0  0  0  0  0
  189.6300  172.3140  138.7450 C   0  0  0  0  0  2  0  0  0  0  0  0
  189.4820  170.4760  136.5300 F   0  0  0  0  0  0  0  0  0  0  0  0
  190.3930  171.0030  138.6780 C   0  0  2  0  0  3  0  0  0  0  0  0
  189.6220  169.9950  137.8180 C   0  0  2  0  0  3  0  0  0  0  0  0
  190.6730  168.1790  139.1880 C   0  0  0  0  0  2  0  0  0  0  0  0
  191.4050  169.2730  139.9600 C   0  0  0  0  0  2  0  0  0  0  0  0
  190.5730  170.4730  140.0300 N   0  0  0  0  0  2  0  0  0  0  0  0
  190.3750  168.6690  137.7760 C   0  0  0  0  0  2  0  0  0  0  0  0
  1 10  1  0  0  0  0
  2  6  1  0  0  0  0
  3 17  1  6  0  0  0
  3  8  1  0  0  0  0
  3 11  1  0  0  0  0
  4 17  2  0  0  0  0
  4 14  1  0  0  0  0
  6  5  2  0  0  0  0
  7 17  1  0  0  0  0
  8  1  2  0  0  0  0
  8  2  1  0  0  0  0
  9 16  1  0  0  0  0
  9  4  1  0  0  0  0
 10  5  1  0  0  0  0
 11 18  1  6  0  0  0
 12  1  1  0  0  0  0
 13  2  2  0  0  0  0
 14 15  2  0  0  0  0
 15 21  1  0  0  0  0
 15 11  1  0  0  0  0
 16  7  2  0  0  0  0
 18 12  2  0  0  0  0
 19 20  1  0  0  0  0
 20 22  2  0  0  0  0
 21 24  2  0  0  0  0
 23 19  2  0  0  0  0
 23 21  1  0  0  0  0
 24 22  1  0  0  0  0
 25 19  1  0  0  0  0
 26 16  1  0  0  0  0
 27 26  1  0  0  0  0
 29 27  1  1  0  0  0
 29 33  1  0  0  0  0
 30 28  1  6  0  0  0
 30 29  1  0  0  0  0
 31 32  1  0  0  0  0
 32 33  1  0  0  0  0
 34 30  1  0  0  0  0
 34 31  1  0  0  0  0
M  END
>  <MODEL>
2

>  <REMARK>
 VINA RESULT:      -8.7      1.236      1.900
  Name = 
  4 active torsions:
  status: ('A' for Active; 'I' for Inactive)
    1  A    between atoms: C_3  and  C_13
    2  A    between atoms: C_3  and  N_17
    3  A    between atoms: C_12  and  C_28
    4  A    between atoms: N_17  and  C_29
                            x       y       z     vdW  Elec       q    Type
                         _______ _______ _______ _____ _____    ______ ____

>  <TORSDO>
F 4

$$$$
=
 OpenBabel11052418443D

 34 39  0  0  1  0  0  0  0  0999 V2000
  191.5140  176.5770  144.7490 C   0  0  0  0  0  0  0  0  0  0  0  0
  191.6770  174.1710  145.1670 C   0  0  0  0  0  0  0  0  0  0  0  0
  189.4870  175.2280  144.2830 C   0  0  1  0  0  3  0  0  0  0  0  0
  188.2730  175.2400  142.1040 C   0  0  0  0  0  0  0  0  0  0  0  0
  193.6530  175.5090  145.6100 C   0  0  0  0  0  3  0  0  0  0  0  0
  193.0550  174.3190  145.6380 C   0  0  0  0  0  3  0  0  0  0  0  0
  190.2580  174.0320  142.1090 C   0  0  0  0  0  3  0  0  0  0  0  0
  190.9190  175.3660  144.7470 C   0  0  0  0  0  0  0  0  0  0  0  0
  188.3170  174.5870  140.5600 S   0  0  0  0  0  0  0  0  0  0  0  0
  192.9820  176.7430  145.0640 C   0  0  0  0  0  2  0  0  0  0  0  0
  188.6680  176.5120  144.5840 C   0  0  2  0  0  3  0  0  0  0  0  0
  190.7660  177.7470  144.3870 N   0  0  0  0  0  0  0  0  0  0  0  0
  191.1430  173.0310  145.1490 O   0  0  0  0  0  0  0  0  0  0  0  0
  187.2140  176.0150  142.6660 N   0  0  0  0  0  0  0  0  0  0  0  0
  187.3380  176.5670  143.8440 C   0  0  0  0  0  0  0  0  0  0  0  0
  189.7940  173.8090  140.8130 C   0  0  0  0  0  0  0  0  0  0  0  0
  189.3890  174.8660  142.8250 C   0  0  0  0  0  0  0  0  0  0  0  0
  189.4710  177.7460  144.2750 C   0  0  0  0  0  3  0  0  0  0  0  0
  184.9430  178.1160  146.3370 C   0  0  0  0  0  0  0  0  0  0  0  0
  184.0550  178.7830  145.4890 C   0  0  0  0  0  3  0  0  0  0  0  0
  186.2070  177.3340  144.4130 C   0  0  0  0  0  0  0  0  0  0  0  0
  184.2370  178.7280  144.1050 C   0  0  0  0  0  3  0  0  0  0  0  0
  186.0130  177.3960  145.8010 C   0  0  0  0  0  3  0  0  0  0  0  0
  185.3080  178.0060  143.5690 C   0  0  0  0  0  3  0  0  0  0  0  0
  184.7660  178.1700  147.6780 F   0  0  0  0  0  0  0  0  0  0  0  0
  190.4470  173.0070  139.8300 N   0  0  0  0  0  2  0  0  0  0  0  0
  191.1030  173.5910  138.6700 C   0  0  0  0  0  2  0  0  0  0  0  0
  188.7760  173.0590  137.0530 F   0  0  0  0  0  0  0  0  0  0  0  0
  191.0800  172.6070  137.5140 C   0  0  2  0  0  3  0  0  0  0  0  0
  189.6660  172.0410  137.3400 C   0  0  2  0  0  3  0  0  0  0  0  0
  190.7230  169.9670  136.4100 C   0  0  0  0  0  2  0  0  0  0  0  0
  192.0760  170.6450  136.6100 C   0  0  0  0  0  2  0  0  0  0  0  0
  192.0250  171.5210  137.7780 N   0  0  0  0  0  2  0  0  0  0  0  0
  189.6520  171.0300  136.1960 C   0  0  0  0  0  2  0  0  0  0  0  0
  1 10  1  0  0  0  0
  2  6  1  0  0  0  0
  3 17  1  6  0  0  0
  3 11  1  0  0  0  0
  3  8  1  0  0  0  0
  4 14  1  0  0  0  0
  4 17  2  0  0  0  0
  5  6  2  0  0  0  0
  7 17  1  0  0  0  0
  8  1  2  0  0  0  0
  8  2  1  0  0  0  0
  9 16  1  0  0  0  0
  9  4  1  0  0  0  0
 10  5  1  0  0  0  0
 11 18  1  6  0  0  0
 12  1  1  0  0  0  0
 13  2  2  0  0  0  0
 14 15  2  0  0  0  0
 15 21  1  0  0  0  0
 15 11  1  0  0  0  0
 16  7  2  0  0  0  0
 18 12  2  0  0  0  0
 19 25  1  0  0  0  0
 20 19  2  0  0  0  0
 21 23  2  0  0  0  0
 22 20  1  0  0  0  0
 23 19  1  0  0  0  0
 24 22  2  0  0  0  0
 24 21  1  0  0  0  0
 26 16  1  0  0  0  0
 27 26  1  0  0  0  0
 29 33  1  0  0  0  0
 29 27  1  1  0  0  0
 30 28  1  6  0  0  0
 30 29  1  0  0  0  0
 31 32  1  0  0  0  0
 32 33  1  0  0  0  0
 34 31  1  0  0  0  0
 34 30  1  0  0  0  0
M  END
>  <MODEL>
3

>  <REMARK>
 VINA RESULT:      -8.3      1.294      1.672
  Name = 
  4 active torsions:
  status: ('A' for Active; 'I' for Inactive)
    1  A    between atoms: C_3  and  C_13
    2  A    between atoms: C_3  and  N_17
    3  A    between atoms: C_12  and  C_28
    4  A    between atoms: N_17  and  C_29
                            x       y       z     vdW  Elec       q    Type
                         _______ _______ _______ _____ _____    ______ ____

>  <TORSDO>
F 4

$$$$
=
 OpenBabel11052418443D

 34 39  0  0  1  0  0  0  0  0999 V2000
  191.8590  176.5630  144.6390 C   0  0  0  0  0  0  0  0  0  0  0  0
  192.0520  174.1530  145.0190 C   0  0  0  0  0  0  0  0  0  0  0  0
  189.8130  175.2120  144.2700 C   0  0  1  0  0  3  0  0  0  0  0  0
  188.4810  175.2450  142.1620 C   0  0  0  0  0  0  0  0  0  0  0  0
  194.0460  175.4930  145.3670 C   0  0  0  0  0  3  0  0  0  0  0  0
  193.4540  174.3010  145.4140 C   0  0  0  0  0  3  0  0  0  0  0  0
  190.4670  174.0450  142.0430 C   0  0  0  0  0  3  0  0  0  0  0  0
  191.2690  175.3500  144.6560 C   0  0  0  0  0  0  0  0  0  0  0  0
  188.4410  174.6110  140.6110 S   0  0  0  0  0  0  0  0  0  0  0  0
  193.3420  176.7310  144.8740 C   0  0  0  0  0  2  0  0  0  0  0  0
  189.0090  176.4900  144.6320 C   0  0  2  0  0  3  0  0  0  0  0  0
  191.0890  177.7350  144.3340 N   0  0  0  0  0  0  0  0  0  0  0  0
  191.5220  173.0110  145.0160 O   0  0  0  0  0  0  0  0  0  0  0  0
  187.4520  176.0100  142.7910 N   0  0  0  0  0  0  0  0  0  0  0  0
  187.6390  176.5480  143.9670 C   0  0  0  0  0  0  0  0  0  0  0  0
  189.9320  173.8360  140.7710 C   0  0  0  0  0  0  0  0  0  0  0  0
  189.6360  174.8670  142.8150 C   0  0  0  0  0  0  0  0  0  0  0  0
  189.7890  177.7300  144.2930 C   0  0  0  0  0  3  0  0  0  0  0  0
  185.1530  179.2970  144.7520 C   0  0  0  0  0  0  0  0  0  0  0  0
  184.4570  178.7400  145.8280 C   0  0  0  0  0  3  0  0  0  0  0  0
  186.5390  177.3040  144.6060 C   0  0  0  0  0  0  0  0  0  0  0  0
  184.7980  177.4690  146.2980 C   0  0  0  0  0  3  0  0  0  0  0  0
  186.1880  178.5820  144.1450 C   0  0  0  0  0  3  0  0  0  0  0  0
  185.8350  176.7550  145.6900 C   0  0  0  0  0  3  0  0  0  0  0  0
  184.8220  180.5290  144.2970 F   0  0  0  0  0  0  0  0  0  0  0  0
  190.5320  173.0480  139.7450 N   0  0  0  0  0  2  0  0  0  0  0  0
  191.9660  172.8060  139.6970 C   0  0  0  0  0  2  0  0  0  0  0  0
  194.5360  174.1100  139.6150 F   0  0  0  0  0  0  0  0  0  0  0  0
  192.5560  173.4400  138.4500 C   0  0  2  0  0  3  0  0  0  0  0  0
  193.4930  174.5880  138.8430 C   0  0  2  0  0  3  0  0  0  0  0  0
  192.9370  175.6560  136.6450 C   0  0  0  0  0  2  0  0  0  0  0  0
  192.0500  174.4490  136.3560 C   0  0  0  0  0  2  0  0  0  0  0  0
  191.4760  173.9450  137.6020 N   0  0  0  0  0  2  0  0  0  0  0  0
  194.0620  175.2430  137.5880 C   0  0  0  0  0  2  0  0  0  0  0  0
  1  8  2  0  0  0  0
  1 10  1  0  0  0  0
  2  6  1  0  0  0  0
  3 17  1  6  0  0  0
  3 11  1  0  0  0  0
  3  8  1  0  0  0  0
  4 14  1  0  0  0  0
  4 17  2  0  0  0  0
  5  6  2  0  0  0  0
  7 17  1  0  0  0  0
  8  2  1  0  0  0  0
  9 16  1  0  0  0  0
  9  4  1  0  0  0  0
 10  5  1  0  0  0  0
 11 18  1  6  0  0  0
 12  1  1  0  0  0  0
 13  2  2  0  0  0  0
 14 15  2  0  0  0  0
 15 21  1  0  0  0  0
 15 11  1  0  0  0  0
 16  7  2  0  0  0  0
 18 12  2  0  0  0  0
 19 20  1  0  0  0  0
 20 22  2  0  0  0  0
 21 24  2  0  0  0  0
 23 21  1  0  0  0  0
 23 19  2  0  0  0  0
 24 22  1  0  0  0  0
 25 19  1  0  0  0  0
 26 16  1  0  0  0  0
 27 26  1  0  0  0  0
 29 30  1  0  0  0  0
 29 27  1  1  0  0  0
 30 28  1  1  0  0  0
 31 34  1  0  0  0  0
 32 31  1  0  0  0  0
 32 33  1  0  0  0  0
 33 29  1  0  0  0  0
 34 30  1  0  0  0  0
M  END
>  <MODEL>
4

>  <REMARK>
 VINA RESULT:      -8.3      1.975      2.216
  Name = 
  4 active torsions:
  status: ('A' for Active; 'I' for Inactive)
    1  A    between atoms: C_3  and  C_13
    2  A    between atoms: C_3  and  N_17
    3  A    between atoms: C_12  and  C_28
    4  A    between atoms: N_17  and  C_29
                            x       y       z     vdW  Elec       q    Type
                         _______ _______ _______ _____ _____    ______ ____

>  <TORSDO>
F 4

$$$$
=
 OpenBabel11052418443D

 34 39  0  0  1  0  0  0  0  0999 V2000
  191.4060  176.5450  144.9020 C   0  0  0  0  0  0  0  0  0  0  0  0
  191.5260  174.1260  145.2490 C   0  0  0  0  0  0  0  0  0  0  0  0
  189.3670  175.2420  144.3630 C   0  0  1  0  0  3  0  0  0  0  0  0
  188.1890  175.3380  142.1660 C   0  0  0  0  0  0  0  0  0  0  0  0
  193.5150  175.4190  145.7630 C   0  0  0  0  0  3  0  0  0  0  0  0
  192.8990  174.2380  145.7460 C   0  0  0  0  0  3  0  0  0  0  0  0
  190.1550  174.1010  142.1660 C   0  0  0  0  0  3  0  0  0  0  0  0
  190.7930  175.3440  144.8540 C   0  0  0  0  0  0  0  0  0  0  0  0
  188.2480  174.7310  140.6050 S   0  0  0  0  0  0  0  0  0  0  0  0
  192.8710  176.6790  145.2440 C   0  0  0  0  0  2  0  0  0  0  0  0
  188.5620  176.5290  144.6900 C   0  0  2  0  0  3  0  0  0  0  0  0
  190.6810  177.7370  144.5640 N   0  0  0  0  0  0  0  0  0  0  0  0
  190.9760  172.9950  145.1880 O   0  0  0  0  0  0  0  0  0  0  0  0
  187.1320  176.1120  142.7350 N   0  0  0  0  0  0  0  0  0  0  0  0
  187.2450  176.6270  143.9300 C   0  0  0  0  0  0  0  0  0  0  0  0
  189.7090  173.9240  140.8570 C   0  0  0  0  0  0  0  0  0  0  0  0
  189.2880  174.9260  142.8930 C   0  0  0  0  0  0  0  0  0  0  0  0
  189.3890  177.7590  144.4310 C   0  0  0  0  0  3  0  0  0  0  0  0
  184.8770  178.1990  146.4350 C   0  0  0  0  0  0  0  0  0  0  0  0
  183.9700  178.8430  145.5900 C   0  0  0  0  0  3  0  0  0  0  0  0
  186.1170  177.3940  144.5040 C   0  0  0  0  0  0  0  0  0  0  0  0
  184.1300  178.7650  144.2050 C   0  0  0  0  0  3  0  0  0  0  0  0
  185.9450  177.4780  145.8950 C   0  0  0  0  0  3  0  0  0  0  0  0
  185.1980  178.0430  143.6640 C   0  0  0  0  0  3  0  0  0  0  0  0
  184.7220  178.2740  147.7780 F   0  0  0  0  0  0  0  0  0  0  0  0
  190.3660  173.1410  139.8610 N   0  0  0  0  0  2  0  0  0  0  0  0
  190.2530  171.6910  139.8200 C   0  0  0  0  0  2  0  0  0  0  0  0
  190.3110  169.7370  141.9390 F   0  0  0  0  0  0  0  0  0  0  0  0
  191.5250  171.0590  140.3570 C   0  0  2  0  0  3  0  0  0  0  0  0
  191.3310  170.6640  141.8250 C   0  0  2  0  0  3  0  0  0  0  0  0
  193.7960  170.9960  142.1330 C   0  0  0  0  0  2  0  0  0  0  0  0
  193.8680  171.3510  140.6510 C   0  0  0  0  0  2  0  0  0  0  0  0
  192.6310  172.0100  140.2370 N   0  0  0  0  0  2  0  0  0  0  0  0
  192.6190  170.0560  142.3720 C   0  0  0  0  0  2  0  0  0  0  0  0
  1 10  1  0  0  0  0
  2  6  1  0  0  0  0
  3 17  1  6  0  0  0
  3 11  1  0  0  0  0
  3  8  1  0  0  0  0
  4 14  1  0  0  0  0
  4 17  2  0  0  0  0
  6  5  2  0  0  0  0
  7 17  1  0  0  0  0
  8  1  2  0  0  0  0
  8  2  1  0  0  0  0
  9 16  1  0  0  0  0
  9  4  1  0  0  0  0
 10  5  1  0  0  0  0
 11 18  1  6  0  0  0
 12  1  1  0  0  0  0
 13  2  2  0  0  0  0
 14 15  2  0  0  0  0
 15 21  1  0  0  0  0
 15 11  1  0  0  0  0
 16  7  2  0  0  0  0
 18 12  2  0  0  0  0
 19 25  1  0  0  0  0
 20 19  2  0  0  0  0
 21 23  2  0  0  0  0
 22 20  1  0  0  0  0
 23 19  1  0  0  0  0
 24 22  2  0  0  0  0
 24 21  1  0  0  0  0
 26 16  1  0  0  0  0
 27 26  1  0  0  0  0
 29 27  1  1  0  0  0
 29 30  1  0  0  0  0
 30 28  1  6  0  0  0
 30 34  1  0  0  0  0
 31 34  1  0  0  0  0
 32 31  1  0  0  0  0
 33 29  1  0  0  0  0
 33 32  1  0  0  0  0
M  END
>  <MODEL>
5

>  <REMARK>
 VINA RESULT:      -8.3      1.946      2.928
  Name = 
  4 active torsions:
  status: ('A' for Active; 'I' for Inactive)
    1  A    between atoms: C_3  and  C_13
    2  A    between atoms: C_3  and  N_17
    3  A    between atoms: C_12  and  C_28
    4  A    between atoms: N_17  and  C_29
                            x       y       z     vdW  Elec       q    Type
                         _______ _______ _______ _____ _____    ______ ____

>  <TORSDO>
F 4

$$$$
=
 OpenBabel11052418443D

 34 39  0  0  1  0  0  0  0  0999 V2000
  190.1170  174.3960  145.5830 C   0  0  0  0  0  0  0  0  0  0  0  0
  191.1030  176.6220  145.3370 C   0  0  0  0  0  0  0  0  0  0  0  0
  190.4960  175.1940  143.2670 C   0  0  1  0  0  3  0  0  0  0  0  0
  188.7280  175.2730  141.5100 C   0  0  0  0  0  0  0  0  0  0  0  0
  190.7160  175.8260  147.5970 C   0  0  0  0  0  3  0  0  0  0  0  0
  191.1910  176.7740  146.7910 C   0  0  0  0  0  3  0  0  0  0  0  0
  188.5960  176.9580  143.1040 C   0  0  0  0  0  3  0  0  0  0  0  0
  190.5690  175.3710  144.7670 C   0  0  0  0  0  0  0  0  0  0  0  0
  187.4410  176.2010  140.9670 S   0  0  0  0  0  0  0  0  0  0  0  0
  190.0330  174.5860  147.0800 C   0  0  0  0  0  2  0  0  0  0  0  0
  190.6290  173.7000  142.8660 C   0  0  2  0  0  3  0  0  0  0  0  0
  189.6410  173.1590  145.0330 N   0  0  0  0  0  0  0  0  0  0  0  0
  191.5070  177.5510  144.5880 O   0  0  0  0  0  0  0  0  0  0  0  0
  189.2930  174.1400  140.8510 N   0  0  0  0  0  0  0  0  0  0  0  0
  190.2240  173.4240  141.4240 C   0  0  0  0  0  0  0  0  0  0  0  0
  187.5450  177.2930  142.2500 C   0  0  0  0  0  0  0  0  0  0  0  0
  189.2470  175.7930  142.6790 C   0  0  0  0  0  0  0  0  0  0  0  0
  189.8320  172.8230  143.7920 C   0  0  0  0  0  3  0  0  0  0  0  0
  190.6130  170.4760  139.0760 C   0  0  0  0  0  0  0  0  0  0  0  0
  191.9340  170.0970  139.3260 C   0  0  0  0  0  3  0  0  0  0  0  0
  190.8140  172.2780  140.6970 C   0  0  0  0  0  0  0  0  0  0  0  0
  192.6970  170.8020  140.2590 C   0  0  0  0  0  3  0  0  0  0  0  0
  190.0560  171.5610  139.7580 C   0  0  0  0  0  3  0  0  0  0  0  0
  192.1400  171.8870  140.9420 C   0  0  0  0  0  3  0  0  0  0  0  0
  189.8720  169.7930  138.1710 F   0  0  0  0  0  0  0  0  0  0  0  0
  186.6860  178.4210  142.4040 N   0  0  0  0  0  2  0  0  0  0  0  0
  185.2730  178.2760  142.7230 C   0  0  0  0  0  2  0  0  0  0  0  0
  185.5480  180.5410  144.4860 F   0  0  0  0  0  0  0  0  0  0  0  0
  185.0880  178.2070  144.2290 C   0  0  2  0  0  3  0  0  0  0  0  0
  185.9410  179.2840  144.9080 C   0  0  2  0  0  3  0  0  0  0  0  0
  186.0650  177.7780  146.9070 C   0  0  0  0  0  2  0  0  0  0  0  0
  185.1920  176.7910  146.1380 C   0  0  0  0  0  2  0  0  0  0  0  0
  185.4810  176.8810  144.7080 N   0  0  0  0  0  2  0  0  0  0  0  0
  185.7770  179.1940  146.4230 C   0  0  0  0  0  2  0  0  0  0  0  0
  1 10  1  0  0  0  0
  2  6  1  0  0  0  0
  3 17  1  1  0  0  0
  3  8  1  0  0  0  0
  4 17  2  0  0  0  0
  6  5  2  0  0  0  0
  8  2  1  0  0  0  0
  8  1  2  0  0  0  0
  9  4  1  0  0  0  0
  9 16  1  0  0  0  0
 10  5  1  0  0  0  0
 11  3  1  0  0  0  0
 11 18  1  1  0  0  0
 12  1  1  0  0  0  0
 13  2  2  0  0  0  0
 14 15  2  0  0  0  0
 14  4  1  0  0  0  0
 15 11  1  0  0  0  0
 16 26  1  0  0  0  0
 16  7  2  0  0  0  0
 17  7  1  0  0  0  0
 18 12  2  0  0  0  0
 19 20  2  0  0  0  0
 19 23  1  0  0  0  0
 20 22  1  0  0  0  0
 21 24  1  0  0  0  0
 21 15  1  0  0  0  0
 22 24  2  0  0  0  0
 23 21  2  0  0  0  0
 25 19  1  0  0  0  0
 26 27  1  0  0  0  0
 29 27  1  6  0  0  0
 29 33  1  0  0  0  0
 29 30  1  0  0  0  0
 30 28  1  6  0  0  0
 30 34  1  0  0  0  0
 32 31  1  0  0  0  0
 33 32  1  0  0  0  0
 34 31  1  0  0  0  0
M  END
>  <MODEL>
6

>  <REMARK>
 VINA RESULT:      -8.2      2.358      8.079
  Name = 
  4 active torsions:
  status: ('A' for Active; 'I' for Inactive)
    1  A    between atoms: C_3  and  C_13
    2  A    between atoms: C_3  and  N_17
    3  A    between atoms: C_12  and  C_28
    4  A    between atoms: N_17  and  C_29
                            x       y       z     vdW  Elec       q    Type
                         _______ _______ _______ _____ _____    ______ ____

>  <TORSDO>
F 4

$$$$
=
 OpenBabel11052418443D

 34 39  0  0  1  0  0  0  0  0999 V2000
  191.3980  173.6500  140.6300 C   0  0  0  0  0  0  0  0  0  0  0  0
  189.2310  172.8770  141.4650 C   0  0  0  0  0  0  0  0  0  0  0  0
  191.0940  173.6410  143.0900 C   0  0  1  0  0  3  0  0  0  0  0  0
  191.4740  175.6260  144.5510 C   0  0  0  0  0  0  0  0  0  0  0  0
  189.5470  172.9020  139.0580 C   0  0  0  0  0  3  0  0  0  0  0  0
  188.7710  172.6110  140.1010 C   0  0  0  0  0  3  0  0  0  0  0  0
  189.4970  175.6750  143.3320 C   0  0  0  0  0  3  0  0  0  0  0  0
  190.5990  173.3850  141.6850 C   0  0  0  0  0  0  0  0  0  0  0  0
  190.7440  177.0400  145.0800 S   0  0  0  0  0  0  0  0  0  0  0  0
  190.9000  173.5500  139.2070 C   0  0  0  0  0  2  0  0  0  0  0  0
  192.6310  173.4480  143.1930 C   0  0  2  0  0  3  0  0  0  0  0  0
  192.7450  174.0980  140.8410 N   0  0  0  0  0  0  0  0  0  0  0  0
  188.4650  172.6480  142.4380 O   0  0  0  0  0  0  0  0  0  0  0  0
  192.6930  175.0680  145.0410 N   0  0  0  0  0  0  0  0  0  0  0  0
  193.2260  174.0180  144.4750 C   0  0  0  0  0  0  0  0  0  0  0  0
  189.4010  176.8520  144.0750 C   0  0  0  0  0  0  0  0  0  0  0  0
  190.6930  174.9990  143.6010 C   0  0  0  0  0  0  0  0  0  0  0  0
  193.3280  174.0470  142.0020 C   0  0  0  0  0  3  0  0  0  0  0  0
  195.7960  171.5110  145.6860 C   0  0  0  0  0  0  0  0  0  0  0  0
  196.8330  172.3540  146.0920 C   0  0  0  0  0  3  0  0  0  0  0  0
  194.4710  173.4420  145.0300 C   0  0  0  0  0  0  0  0  0  0  0  0
  196.6950  173.7390  145.9720 C   0  0  0  0  0  3  0  0  0  0  0  0
  194.6210  172.0530  145.1580 C   0  0  0  0  0  3  0  0  0  0  0  0
  195.5190  174.2810  145.4440 C   0  0  0  0  0  3  0  0  0  0  0  0
  195.9290  170.1690  145.8030 F   0  0  0  0  0  0  0  0  0  0  0  0
  188.3070  177.7680  144.0310 N   0  0  0  0  0  2  0  0  0  0  0  0
  187.0610  177.4480  143.3530 C   0  0  0  0  0  2  0  0  0  0  0  0
  185.3360  179.7510  143.5310 F   0  0  0  0  0  0  0  0  0  0  0  0
  185.8990  177.5650  144.3240 C   0  0  2  0  0  3  0  0  0  0  0  0
  185.6580  179.0380  144.6710 C   0  0  2  0  0  3  0  0  0  0  0  0
  184.7660  178.2640  146.8820 C   0  0  0  0  0  2  0  0  0  0  0  0
  185.0320  176.8350  146.4150 C   0  0  0  0  0  2  0  0  0  0  0  0
  186.2010  176.8080  145.5390 N   0  0  0  0  0  2  0  0  0  0  0  0
  184.5100  179.1520  145.6700 C   0  0  0  0  0  2  0  0  0  0  0  0
  1 12  1  0  0  0  0
  1  8  2  0  0  0  0
  2  8  1  0  0  0  0
  2 13  2  0  0  0  0
  3  8  1  6  0  0  0
  3 11  1  0  0  0  0
  3 17  1  0  0  0  0
  4 14  1  0  0  0  0
  4  9  1  0  0  0  0
  5 10  1  0  0  0  0
  5  6  2  0  0  0  0
  6  2  1  0  0  0  0
  7 17  1  0  0  0  0
  7 16  2  0  0  0  0
 10  1  1  0  0  0  0
 11 18  1  6  0  0  0
 11 15  1  0  0  0  0
 12 18  2  0  0  0  0
 15 21  1  0  0  0  0
 15 14  2  0  0  0  0
 16  9  1  0  0  0  0
 17  4  2  0  0  0  0
 19 25  1  0  0  0  0
 19 20  1  0  0  0  0
 21 23  1  0  0  0  0
 21 24  2  0  0  0  0
 22 20  2  0  0  0  0
 23 19  2  0  0  0  0
 24 22  1  0  0  0  0
 26 16  1  0  0  0  0
 27 26  1  0  0  0  0
 29 27  1  6  0  0  0
 29 30  1  0  0  0  0
 29 33  1  0  0  0  0
 30 28  1  6  0  0  0
 30 34  1  0  0  0  0
 32 31  1  0  0  0  0
 33 32  1  0  0  0  0
 34 31  1  0  0  0  0
M  END
>  <MODEL>
7

>  <REMARK>
 VINA RESULT:      -8.2      2.880      8.786
  Name = 
  4 active torsions:
  status: ('A' for Active; 'I' for Inactive)
    1  A    between atoms: C_3  and  C_13
    2  A    between atoms: C_3  and  N_17
    3  A    between atoms: C_12  and  C_28
    4  A    between atoms: N_17  and  C_29
                            x       y       z     vdW  Elec       q    Type
                         _______ _______ _______ _____ _____    ______ ____

>  <TORSDO>
F 4

$$$$
=
 OpenBabel11052418443D

 34 39  0  0  1  0  0  0  0  0999 V2000
  190.6190  172.0650  142.9820 C   0  0  0  0  0  0  0  0  0  0  0  0
  191.2390  172.9280  140.7770 C   0  0  0  0  0  0  0  0  0  0  0  0
  190.5400  174.5260  142.6890 C   0  0  1  0  0  3  0  0  0  0  0  0
  191.7210  176.1460  144.1720 C   0  0  0  0  0  0  0  0  0  0  0  0
  191.3180  170.5210  141.0880 C   0  0  0  0  0  3  0  0  0  0  0  0
  191.4510  171.5690  140.2750 C   0  0  0  0  0  3  0  0  0  0  0  0
  193.0870  175.0350  142.6560 C   0  0  0  0  0  3  0  0  0  0  0  0
  190.7850  173.1280  142.1670 C   0  0  0  0  0  0  0  0  0  0  0  0
  193.2230  176.8410  144.4440 S   0  0  0  0  0  0  0  0  0  0  0  0
  190.9910  170.6650  142.5520 C   0  0  0  0  0  2  0  0  0  0  0  0
  189.4440  174.5350  143.7890 C   0  0  2  0  0  3  0  0  0  0  0  0
  190.1310  172.2520  144.3190 N   0  0  0  0  0  0  0  0  0  0  0  0
  191.4220  173.9110  140.0120 O   0  0  0  0  0  0  0  0  0  0  0  0
  190.4890  176.5210  144.7890 N   0  0  0  0  0  0  0  0  0  0  0  0
  189.3980  175.8340  144.5830 C   0  0  0  0  0  0  0  0  0  0  0  0
  193.9950  175.8890  143.2830 C   0  0  0  0  0  0  0  0  0  0  0  0
  191.8000  175.1800  143.1890 C   0  0  0  0  0  0  0  0  0  0  0  0
  189.6170  173.3730  144.7290 C   0  0  0  0  0  3  0  0  0  0  0  0
  185.8550  177.1070  145.0120 C   0  0  0  0  0  0  0  0  0  0  0  0
  185.7300  177.1090  146.4040 C   0  0  0  0  0  3  0  0  0  0  0  0
  188.1310  176.2710  145.2100 C   0  0  0  0  0  0  0  0  0  0  0  0
  186.7990  176.6960  147.2010 C   0  0  0  0  0  3  0  0  0  0  0  0
  187.0500  176.6900  144.4190 C   0  0  0  0  0  3  0  0  0  0  0  0
  187.9950  176.2790  146.6070 C   0  0  0  0  0  3  0  0  0  0  0  0
  184.8190  177.5080  144.2380 F   0  0  0  0  0  0  0  0  0  0  0  0
  195.3840  175.9850  142.9740 N   0  0  0  0  0  2  0  0  0  0  0  0
  196.4140  175.6320  143.9390 C   0  0  0  0  0  2  0  0  0  0  0  0
  196.0080  174.5520  146.5810 F   0  0  0  0  0  0  0  0  0  0  0  0
  196.3460  174.1460  144.2480 C   0  0  2  0  0  3  0  0  0  0  0  0
  196.8230  173.8900  145.6810 C   0  0  2  0  0  3  0  0  0  0  0  0
  197.5540  171.6160  144.9210 C   0  0  0  0  0  2  0  0  0  0  0  0
  197.0220  171.9790  143.5370 C   0  0  0  0  0  2  0  0  0  0  0  0
  197.1860  173.4120  143.3020 N   0  0  0  0  0  2  0  0  0  0  0  0
  196.7810  172.3940  145.9800 C   0  0  0  0  0  2  0  0  0  0  0  0
  1 12  1  0  0  0  0
  2  8  1  0  0  0  0
  3  8  1  1  0  0  0
  3 17  1  0  0  0  0
  3 11  1  0  0  0  0
  4  9  1  0  0  0  0
  4 14  1  0  0  0  0
  5 10  1  0  0  0  0
  6  2  1  0  0  0  0
  6  5  2  0  0  0  0
  7 17  1  0  0  0  0
  7 16  2  0  0  0  0
  8  1  2  0  0  0  0
 10  1  1  0  0  0  0
 11 15  1  0  0  0  0
 11 18  1  1  0  0  0
 12 18  2  0  0  0  0
 13  2  2  0  0  0  0
 15 14  2  0  0  0  0
 15 21  1  0  0  0  0
 16  9  1  0  0  0  0
 17  4  2  0  0  0  0
 19 20  1  0  0  0  0
 20 22  2  0  0  0  0
 21 24  2  0  0  0  0
 23 19  2  0  0  0  0
 23 21  1  0  0  0  0
 24 22  1  0  0  0  0
 25 19  1  0  0  0  0
 26 16  1  0  0  0  0
 26 27  1  0  0  0  0
 29 27  1  6  0  0  0
 29 30  1  0  0  0  0
 30 34  1  0  0  0  0
 30 28  1  1  0  0  0
 31 34  1  0  0  0  0
 32 31  1  0  0  0  0
 33 32  1  0  0  0  0
 33 29  1  0  0  0  0
M  END
>  <MODEL>
8

>  <REMARK>
 VINA RESULT:      -8.0      3.758      6.528
  Name = 
  4 active torsions:
  status: ('A' for Active; 'I' for Inactive)
    1  A    between atoms: C_3  and  C_13
    2  A    between atoms: C_3  and  N_17
    3  A    between atoms: C_12  and  C_28
    4  A    between atoms: N_17  and  C_29
                            x       y       z     vdW  Elec       q    Type
                         _______ _______ _______ _____ _____    ______ ____

>  <TORSDO>
F 4

$$$$
=
 OpenBabel11052418443D

 34 39  0  0  1  0  0  0  0  0999 V2000
  186.9380  176.9140  144.0340 C   0  0  0  0  0  0  0  0  0  0  0  0
  186.9150  177.8170  141.7600 C   0  0  0  0  0  0  0  0  0  0  0  0
  189.0280  176.6760  142.7220 C   0  0  1  0  0  3  0  0  0  0  0  0
  190.2030  174.5080  142.3500 C   0  0  0  0  0  0  0  0  0  0  0  0
  184.8750  178.0320  143.0590 C   0  0  0  0  0  3  0  0  0  0  0  0
  185.5380  178.2850  141.9310 C   0  0  0  0  0  3  0  0  0  0  0  0
  188.2880  174.8130  141.0710 C   0  0  0  0  0  3  0  0  0  0  0  0
  187.5980  177.1420  142.8800 C   0  0  0  0  0  0  0  0  0  0  0  0
  190.1690  173.1310  141.3940 S   0  0  0  0  0  0  0  0  0  0  0  0
  185.4690  177.2280  144.1880 C   0  0  0  0  0  2  0  0  0  0  0  0
  189.7800  176.6880  144.0810 C   0  0  2  0  0  3  0  0  0  0  0  0
  187.6150  176.3010  145.1420 N   0  0  0  0  0  0  0  0  0  0  0  0
  187.5100  178.0160  140.6680 O   0  0  0  0  0  0  0  0  0  0  0  0
  191.2270  174.8720  143.2760 N   0  0  0  0  0  0  0  0  0  0  0  0
  191.0930  175.9150  144.0500 C   0  0  0  0  0  0  0  0  0  0  0  0
  188.7420  173.5770  140.6110 C   0  0  0  0  0  0  0  0  0  0  0  0
  189.1210  175.3200  142.0750 C   0  0  0  0  0  0  0  0  0  0  0  0
  188.9060  176.1560  145.1830 C   0  0  0  0  0  3  0  0  0  0  0  0
  194.4570  177.0810  145.3460 C   0  0  0  0  0  0  0  0  0  0  0  0
  194.2700  176.9790  146.7270 C   0  0  0  0  0  3  0  0  0  0  0  0
  192.1890  176.2850  144.9730 C   0  0  0  0  0  0  0  0  0  0  0  0
  193.0500  176.5290  147.2350 C   0  0  0  0  0  3  0  0  0  0  0  0
  193.4210  176.7360  144.4740 C   0  0  0  0  0  3  0  0  0  0  0  0
  192.0140  176.1830  146.3620 C   0  0  0  0  0  3  0  0  0  0  0  0
  195.6400  177.5170  144.8530 F   0  0  0  0  0  0  0  0  0  0  0  0
  188.1180  172.7960  139.5930 N   0  0  0  0  0  2  0  0  0  0  0  0
  188.3740  173.0260  138.1790 C   0  0  0  0  0  2  0  0  0  0  0  0
  189.5610  173.1920  135.5570 F   0  0  0  0  0  0  0  0  0  0  0  0
  189.5390  172.1670  137.7190 C   0  0  2  0  0  3  0  0  0  0  0  0
  189.4730  171.9710  136.2000 C   0  0  2  0  0  3  0  0  0  0  0  0
  190.6470  169.7820  136.5370 C   0  0  0  0  0  2  0  0  0  0  0  0
  190.6720  170.0980  138.0290 C   0  0  0  0  0  2  0  0  0  0  0  0
  189.4850  170.8700  138.3940 N   0  0  0  0  0  2  0  0  0  0  0  0
  190.6280  171.0830  135.7440 C   0  0  0  0  0  2  0  0  0  0  0  0
  1 10  1  0  0  0  0
  1 12  1  0  0  0  0
  2  6  1  0  0  0  0
  2  8  1  0  0  0  0
  3 17  1  1  0  0  0
  3  8  1  0  0  0  0
  3 11  1  0  0  0  0
  4 14  1  0  0  0  0
  5 10  1  0  0  0  0
  6  5  2  0  0  0  0
  7 17  1  0  0  0  0
  8  1  2  0  0  0  0
  9  4  1  0  0  0  0
 11 18  1  1  0  0  0
 12 18  2  0  0  0  0
 13  2  2  0  0  0  0
 14 15  2  0  0  0  0
 15 11  1  0  0  0  0
 15 21  1  0  0  0  0
 16  7  2  0  0  0  0
 16  9  1  0  0  0  0
 17  4  2  0  0  0  0
 19 20  1  0  0  0  0
 20 22  2  0  0  0  0
 21 24  2  0  0  0  0
 23 21  1  0  0  0  0
 23 19  2  0  0  0  0
 24 22  1  0  0  0  0
 25 19  1  0  0  0  0
 26 16  1  0  0  0  0
 27 26  1  0  0  0  0
 29 27  1  1  0  0  0
 29 33  1  0  0  0  0
 30 28  1  6  0  0  0
 30 29  1  0  0  0  0
 31 32  1  0  0  0  0
 32 33  1  0  0  0  0
 34 30  1  0  0  0  0
 34 31  1  0  0  0  0
M  END
>  <MODEL>
9

>  <REMARK>
 VINA RESULT:      -7.8      2.929      5.596
  Name = 
  4 active torsions:
  status: ('A' for Active; 'I' for Inactive)
    1  A    between atoms: C_3  and  C_13
    2  A    between atoms: C_3  and  N_17
    3  A    between atoms: C_12  and  C_28
    4  A    between atoms: N_17  and  C_29
                            x       y       z     vdW  Elec       q    Type
                         _______ _______ _______ _____ _____    ______ ____

>  <TORSDO>
F 4

$$$$
