=
 OpenBabel11052420373D

 34 37  0  0  1  0  0  0  0  0999 V2000
  191.3550  176.3180  144.7640 C   0  0  1  0  0  3  0  0  0  0  0  0
  192.6540  175.4360  142.3950 C   0  0  0  0  0  2  0  0  0  0  0  0
  190.1390  171.3160  142.3850 N   0  0  0  0  0  0  0  0  0  0  0  0
  193.8650  175.6270  143.2650 C   0  0  0  0  0  3  0  0  0  0  0  0
  189.8440  177.0280  146.7800 C   0  0  2  0  0  3  0  0  0  0  0  0
  190.2930  177.2680  145.3340 C   0  0  0  0  0  2  0  0  0  0  0  0
  192.7940  175.3730  146.6740 C   0  0  0  0  0  2  0  0  0  0  0  0
  191.5620  175.3680  147.5740 C   0  0  0  0  0  2  0  0  0  0  0  0
  191.8450  172.6320  141.3000 C   0  0  0  0  0  3  0  0  0  0  0  0
  190.9720  176.7580  147.7780 C   0  0  0  0  0  2  0  0  0  0  0  0
  193.9130  176.0300  144.5490 C   0  0  0  0  0  0  0  0  0  0  0  0
  192.7240  176.3040  145.4550 C   0  0  1  0  0  3  0  0  0  0  0  0
  195.1750  176.1900  145.1060 O   0  0  0  0  0  1  0  0  0  0  0  0
  191.2820  173.3140  142.4940 C   0  0  0  0  0  0  0  0  0  0  0  0
  191.0660  171.3010  141.2550 C   0  0  0  0  0  3  0  0  0  0  0  0
  190.3250  172.5340  143.0740 C   0  0  0  0  0  0  0  0  0  0  0  0
  189.6450  172.9340  144.2230 C   0  0  0  0  0  3  0  0  0  0  0  0
  191.6150  174.5630  143.0270 C   0  0  2  0  0  3  0  0  0  0  0  0
  189.9620  174.1840  144.7780 C   0  0  0  0  0  3  0  0  0  0  0  0
  190.9310  175.0080  144.1720 C   0  0  0  0  0  0  0  0  0  0  0  0
  188.6980  176.0300  146.8820 C   0  0  0  0  0  2  0  0  0  0  0  0
  187.3580  176.7330  146.7330 C   0  0  0  0  0  2  0  0  0  0  0  0
  186.8450  176.6200  145.2970 C   0  0  0  0  0  2  0  0  0  0  0  0
  186.5630  177.9750  144.6450 C   0  0  2  0  0  3  0  0  0  0  0  0
  186.0240  178.9720  145.6600 C   0  0  0  0  0  2  0  0  0  0  0  0
  183.9620  178.2320  146.8160 C   0  0  0  0  0  1  0  0  0  0  0  0
  184.5070  178.9910  145.6240 C   0  0  0  0  0  2  0  0  0  0  0  0
  185.6330  177.8530  143.4430 C   0  0  0  0  0  2  0  0  0  0  0  0
  186.1590  178.6910  142.2920 C   0  0  0  0  0  2  0  0  0  0  0  0
  186.7590  177.8340  141.2850 N   0  0  0  0  0  0  0  0  0  0  0  0
  186.0160  177.6210  140.0500 C   0  0  0  0  0  1  0  0  0  0  0  0
  188.1160  177.3980  141.4800 C   0  0  0  0  0  3  0  0  0  0  0  0
  188.4970  176.1640  141.8260 C   0  0  0  0  0  3  0  0  0  0  0  0
  187.5790  175.1020  142.0660 N   0  0  0  0  0  1  0  0  0  0  0  0
  1  6  1  1  0  0  0
  1 12  1  0  0  0  0
  2  4  1  0  0  0  0
  3 16  1  0  0  0  0
  4 11  2  0  0  0  0
  5 21  1  6  0  0  0
  5 10  1  0  0  0  0
  6  5  1  0  0  0  0
  7  8  1  0  0  0  0
  8 10  1  0  0  0  0
  9 14  2  0  0  0  0
 11 13  1  0  0  0  0
 11 12  1  0  0  0  0
 12  7  1  1  0  0  0
 14 18  1  0  0  0  0
 14 16  1  0  0  0  0
 15  9  1  0  0  0  0
 15  3  2  0  0  0  0
 16 17  2  0  0  0  0
 17 19  1  0  0  0  0
 18  2  1  6  0  0  0
 18 20  1  0  0  0  0
 20  1  1  0  0  0  0
 20 19  2  0  0  0  0
 22 21  1  0  0  0  0
 23 22  1  0  0  0  0
 24 28  1  6  0  0  0
 24 23  1  0  0  0  0
 24 25  1  0  0  0  0
 27 25  1  0  0  0  0
 27 26  1  0  0  0  0
 29 28  1  0  0  0  0
 30 32  1  0  0  0  0
 30 29  1  0  0  0  0
 31 30  1  0  0  0  0
 32 33  2  0  0  0  0
 33 34  1  0  0  0  0
M  END
>  <MODEL>
1

>  <REMARK>
 VINA RESULT:      -7.5      0.000      0.000
  Name = 
  10 active torsions:
  status: ('A' for Active; 'I' for Inactive)
    1  A    between atoms: C_6  and  C_28
    2  A    between atoms: C_6  and  C_30
    3  A    between atoms: N_7  and  C_11
    4  A    between atoms: N_7  and  C_29
    5  A    between atoms: C_8  and  C_18
    6  A    between atoms: C_16  and  C_28
    7  A    between atoms: C_16  and  C_31
    8  A    between atoms: C_18  and  C_30
    9  A    between atoms: C_26  and  C_28
   10  A    between atoms: C_26  and  C_29
                            x       y       z     vdW  Elec       q    Type
                         _______ _______ _______ _____ _____    ______ ____

>  <TORSDO>
F 10

$$$$
=
 OpenBabel11052420373D

 34 37  0  0  1  0  0  0  0  0999 V2000
  189.3500  177.4110  143.5100 C   0  0  1  0  0  3  0  0  0  0  0  0
  186.9600  178.6900  142.6550 C   0  0  0  0  0  2  0  0  0  0  0  0
  184.9060  178.0450  146.9750 N   0  0  0  0  0  0  0  0  0  0  0  0
  187.0160  177.5920  141.6290 C   0  0  0  0  0  3  0  0  0  0  0  0
  191.5270  176.4480  144.6000 C   0  0  2  0  0  3  0  0  0  0  0  0
  190.8050  177.6320  143.9460 C   0  0  0  0  0  2  0  0  0  0  0  0
  188.9580  174.9190  143.0120 C   0  0  0  0  0  2  0  0  0  0  0  0
  189.9250  174.5620  144.1380 C   0  0  0  0  0  2  0  0  0  0  0  0
  184.6410  178.8820  144.7270 C   0  0  0  0  0  3  0  0  0  0  0  0
  191.3310  175.0990  143.9040 C   0  0  0  0  0  2  0  0  0  0  0  0
  187.9330  176.6150  141.5040 C   0  0  0  0  0  0  0  0  0  0  0  0
  189.0950  176.3400  142.4440 C   0  0  1  0  0  3  0  0  0  0  0  0
  187.7890  175.7590  140.4190 O   0  0  0  0  0  1  0  0  0  0  0  0
  185.9860  178.2930  144.9550 C   0  0  0  0  0  0  0  0  0  0  0  0
  183.9410  178.6980  146.0910 C   0  0  0  0  0  3  0  0  0  0  0  0
  186.0880  177.8340  146.2350 C   0  0  0  0  0  0  0  0  0  0  0  0
  187.2490  177.2200  146.7070 C   0  0  0  0  0  3  0  0  0  0  0  0
  187.0530  178.1780  144.0580 C   0  0  2  0  0  3  0  0  0  0  0  0
  188.3340  177.0910  145.8260 C   0  0  0  0  0  3  0  0  0  0  0  0
  188.2470  177.5860  144.5090 C   0  0  0  0  0  0  0  0  0  0  0  0
  191.3100  176.3860  146.1060 C   0  0  0  0  0  2  0  0  0  0  0  0
  192.3700  175.5190  146.7670 C   0  0  0  0  0  2  0  0  0  0  0  0
  193.7710  176.0210  146.4190 C   0  0  0  0  0  2  0  0  0  0  0  0
  194.7510  174.8960  146.0770 C   0  0  2  0  0  3  0  0  0  0  0  0
  195.7300  175.3310  144.9960 C   0  0  0  0  0  2  0  0  0  0  0  0
  194.8140  175.9760  142.7870 C   0  0  0  0  0  1  0  0  0  0  0  0
  195.1430  176.4680  144.1810 C   0  0  0  0  0  2  0  0  0  0  0  0
  194.0360  173.6080  145.6890 C   0  0  0  0  0  2  0  0  0  0  0  0
  195.0510  172.5180  145.3930 C   0  0  0  0  0  2  0  0  0  0  0  0
  194.6510  171.7710  144.2140 N   0  0  0  0  0  0  0  0  0  0  0  0
  195.1570  172.2240  142.9250 C   0  0  0  0  0  1  0  0  0  0  0  0
  193.9410  170.5330  144.3980 C   0  0  0  0  0  3  0  0  0  0  0  0
  192.6450  170.3310  144.1370 C   0  0  0  0  0  3  0  0  0  0  0  0
  191.7800  171.3500  143.6450 N   0  0  0  0  0  1  0  0  0  0  0  0
  1  6  1  1  0  0  0
  1 20  1  0  0  0  0
  4  2  1  0  0  0  0
  5 21  1  1  0  0  0
  6  5  1  0  0  0  0
  7  8  1  0  0  0  0
  9 14  2  0  0  0  0
  9 15  1  0  0  0  0
 10  8  1  0  0  0  0
 10  5  1  0  0  0  0
 11  4  2  0  0  0  0
 11 12  1  0  0  0  0
 12  7  1  1  0  0  0
 12  1  1  0  0  0  0
 13 11  1  0  0  0  0
 14 16  1  0  0  0  0
 15  3  2  0  0  0  0
 16 17  2  0  0  0  0
 16  3  1  0  0  0  0
 18  2  1  1  0  0  0
 18 20  1  0  0  0  0
 18 14  1  0  0  0  0
 19 17  1  0  0  0  0
 20 19  2  0  0  0  0
 21 22  1  0  0  0  0
 23 22  1  0  0  0  0
 24 25  1  6  0  0  0
 24 23  1  0  0  0  0
 26 27  1  0  0  0  0
 27 25  1  0  0  0  0
 28 24  1  0  0  0  0
 29 28  1  0  0  0  0
 30 32  1  0  0  0  0
 30 29  1  0  0  0  0
 31 30  1  0  0  0  0
 33 32  2  0  0  0  0
 34 33  1  0  0  0  0
M  END
>  <MODEL>
2

>  <REMARK>
 VINA RESULT:      -7.2      2.669      7.691
  Name = 
  10 active torsions:
  status: ('A' for Active; 'I' for Inactive)
    1  A    between atoms: C_6  and  C_28
    2  A    between atoms: C_6  and  C_30
    3  A    between atoms: N_7  and  C_11
    4  A    between atoms: N_7  and  C_29
    5  A    between atoms: C_8  and  C_18
    6  A    between atoms: C_16  and  C_28
    7  A    between atoms: C_16  and  C_31
    8  A    between atoms: C_18  and  C_30
    9  A    between atoms: C_26  and  C_28
   10  A    between atoms: C_26  and  C_29
                            x       y       z     vdW  Elec       q    Type
                         _______ _______ _______ _____ _____    ______ ____

>  <TORSDO>
F 10

$$$$
=
 OpenBabel11052420373D

 34 37  0  0  1  0  0  0  0  0999 V2000
  189.4150  177.3790  143.5140 C   0  0  1  0  0  3  0  0  0  0  0  0
  186.9940  178.5970  142.6600 C   0  0  0  0  0  2  0  0  0  0  0  0
  184.9940  177.9950  147.0110 N   0  0  0  0  0  0  0  0  0  0  0  0
  187.0600  177.4820  141.6530 C   0  0  0  0  0  3  0  0  0  0  0  0
  191.6190  176.4760  144.5990 C   0  0  2  0  0  3  0  0  0  0  0  0
  190.8700  177.6340  143.9310 C   0  0  0  0  0  2  0  0  0  0  0  0
  189.0640  174.8710  143.0650 C   0  0  0  0  0  2  0  0  0  0  0  0
  190.0480  174.5520  144.1880 C   0  0  0  0  0  2  0  0  0  0  0  0
  184.6910  178.7850  144.7520 C   0  0  0  0  0  3  0  0  0  0  0  0
  191.4410  175.1110  143.9300 C   0  0  0  0  0  2  0  0  0  0  0  0
  187.9930  176.5190  141.5370 C   0  0  0  0  0  0  0  0  0  0  0  0
  189.1690  176.2830  142.4700 C   0  0  1  0  0  3  0  0  0  0  0  0
  187.8540  175.6410  140.4700 O   0  0  0  0  0  1  0  0  0  0  0  0
  186.0490  178.2260  144.9760 C   0  0  0  0  0  0  0  0  0  0  0  0
  184.0090  178.6150  146.1250 C   0  0  0  0  0  3  0  0  0  0  0  0
  186.1730  177.7920  146.2630 C   0  0  0  0  0  0  0  0  0  0  0  0
  187.3490  177.2090  146.7340 C   0  0  0  0  0  3  0  0  0  0  0  0
  187.1100  178.1130  144.0710 C   0  0  2  0  0  3  0  0  0  0  0  0
  188.4270  177.0830  145.8450 C   0  0  0  0  0  3  0  0  0  0  0  0
  188.3180  177.5520  144.5210 C   0  0  0  0  0  0  0  0  0  0  0  0
  191.4180  176.4370  146.1080 C   0  0  0  0  0  2  0  0  0  0  0  0
  192.6350  175.8390  146.7980 C   0  0  0  0  0  2  0  0  0  0  0  0
  193.9220  176.4560  146.2520 C   0  0  0  0  0  2  0  0  0  0  0  0
  194.7200  175.5040  145.3580 C   0  0  2  0  0  3  0  0  0  0  0  0
  195.5920  174.5740  146.1880 C   0  0  0  0  0  2  0  0  0  0  0  0
  194.1030  172.7260  145.4790 C   0  0  0  0  0  1  0  0  0  0  0  0
  195.5440  173.1660  145.6260 C   0  0  0  0  0  2  0  0  0  0  0  0
  195.5440  176.2480  144.3150 C   0  0  0  0  0  2  0  0  0  0  0  0
  195.0200  175.9440  142.9230 C   0  0  0  0  0  2  0  0  0  0  0  0
  196.1130  175.5430  142.0560 N   0  0  0  0  0  0  0  0  0  0  0  0
  196.3300  176.3190  140.8420 C   0  0  0  0  0  1  0  0  0  0  0  0
  197.0250  174.5340  142.5260 C   0  0  0  0  0  3  0  0  0  0  0  0
  196.9420  173.2250  142.2660 C   0  0  0  0  0  3  0  0  0  0  0  0
  195.9020  172.6500  141.4810 N   0  0  0  0  0  1  0  0  0  0  0  0
  1  6  1  1  0  0  0
  1 20  1  0  0  0  0
  4  2  1  0  0  0  0
  5 21  1  1  0  0  0
  6  5  1  0  0  0  0
  7  8  1  0  0  0  0
  9 14  2  0  0  0  0
  9 15  1  0  0  0  0
 10  8  1  0  0  0  0
 10  5  1  0  0  0  0
 11  4  2  0  0  0  0
 11 12  1  0  0  0  0
 12  7  1  1  0  0  0
 12  1  1  0  0  0  0
 13 11  1  0  0  0  0
 14 16  1  0  0  0  0
 15  3  2  0  0  0  0
 16 17  2  0  0  0  0
 16  3  1  0  0  0  0
 18  2  1  1  0  0  0
 18 20  1  0  0  0  0
 18 14  1  0  0  0  0
 19 17  1  0  0  0  0
 20 19  2  0  0  0  0
 21 22  1  0  0  0  0
 23 22  1  0  0  0  0
 24 28  1  6  0  0  0
 24 25  1  0  0  0  0
 24 23  1  0  0  0  0
 26 27  1  0  0  0  0
 27 25  1  0  0  0  0
 29 28  1  0  0  0  0
 30 32  1  0  0  0  0
 30 29  1  0  0  0  0
 31 30  1  0  0  0  0
 33 32  2  0  0  0  0
 34 33  1  0  0  0  0
M  END
>  <MODEL>
3

>  <REMARK>
 VINA RESULT:      -7.1      2.996      7.730
  Name = 
  10 active torsions:
  status: ('A' for Active; 'I' for Inactive)
    1  A    between atoms: C_6  and  C_28
    2  A    between atoms: C_6  and  C_30
    3  A    between atoms: N_7  and  C_11
    4  A    between atoms: N_7  and  C_29
    5  A    between atoms: C_8  and  C_18
    6  A    between atoms: C_16  and  C_28
    7  A    between atoms: C_16  and  C_31
    8  A    between atoms: C_18  and  C_30
    9  A    between atoms: C_26  and  C_28
   10  A    between atoms: C_26  and  C_29
                            x       y       z     vdW  Elec       q    Type
                         _______ _______ _______ _____ _____    ______ ____

>  <TORSDO>
F 10

$$$$
=
 OpenBabel11052420373D

 34 37  0  0  1  0  0  0  0  0999 V2000
  191.2930  173.0230  144.2940 C   0  0  1  0  0  3  0  0  0  0  0  0
  193.8830  172.8720  145.4540 C   0  0  0  0  0  2  0  0  0  0  0  0
  195.5060  176.4330  142.6280 N   0  0  0  0  0  0  0  0  0  0  0  0
  193.7670  171.4560  144.9610 C   0  0  0  0  0  3  0  0  0  0  0  0
  188.9360  173.5290  143.2740 C   0  0  2  0  0  3  0  0  0  0  0  0
  189.8490  173.4980  144.5050 C   0  0  0  0  0  2  0  0  0  0  0  0
  191.4030  171.4400  142.2710 C   0  0  0  0  0  2  0  0  0  0  0  0
  190.3160  172.2670  141.5890 C   0  0  0  0  0  2  0  0  0  0  0  0
  196.0440  174.8230  144.3430 C   0  0  0  0  0  3  0  0  0  0  0  0
  189.0110  172.2930  142.3740 C   0  0  0  0  0  2  0  0  0  0  0  0
  192.7460  170.8880  144.2940 C   0  0  0  0  0  0  0  0  0  0  0  0
  191.4900  171.5860  143.7970 C   0  0  1  0  0  3  0  0  0  0  0  0
  192.8620  169.5330  144.0110 O   0  0  0  0  0  1  0  0  0  0  0  0
  194.6220  174.7420  143.9210 C   0  0  0  0  0  0  0  0  0  0  0  0
  196.6100  175.9570  143.4610 C   0  0  0  0  0  2  0  0  0  0  0  0
  194.3660  175.6680  142.9520 C   0  0  0  0  0  0  0  0  0  0  0  0
  193.1050  175.7950  142.3700 C   0  0  0  0  0  3  0  0  0  0  0  0
  193.6200  173.8830  144.3820 C   0  0  0  0  0  0  0  0  0  0  0  0
  192.0820  174.9430  142.8150 C   0  0  0  0  0  3  0  0  0  0  0  0
  192.3300  174.0010  143.8330 C   0  0  0  0  0  0  0  0  0  0  0  0
  189.0280  174.8400  142.5050 C   0  0  0  0  0  2  0  0  0  0  0  0
  188.2180  175.9260  143.1960 C   0  0  0  0  0  2  0  0  0  0  0  0
  189.0540  177.1940  143.3700 C   0  0  0  0  0  2  0  0  0  0  0  0
  189.3290  177.5430  144.8350 C   0  0  2  0  0  3  0  0  0  0  0  0
  190.7670  177.2240  145.2140 C   0  0  0  0  0  2  0  0  0  0  0  0
  192.2310  176.1590  146.9050 C   0  0  0  0  0  1  0  0  0  0  0  0
  190.8020  176.3180  146.4310 C   0  0  0  0  0  2  0  0  0  0  0  0
  188.3450  176.8670  145.7820 C   0  0  0  0  0  2  0  0  0  0  0  0
  187.4970  177.9120  146.4850 C   0  0  0  0  0  2  0  0  0  0  0  0
  186.1850  177.9870  145.8680 N   0  0  0  0  0  0  0  0  0  0  0  0
  185.3860  176.7690  145.8340 C   0  0  0  0  0  1  0  0  0  0  0  0
  185.6770  179.2810  145.4970 C   0  0  0  0  0  3  0  0  0  0  0  0
  185.5610  179.7440  144.2480 C   0  0  0  0  0  3  0  0  0  0  0  0
  185.9520  178.9990  143.0990 N   0  0  0  0  0  1  0  0  0  0  0  0
  1  6  1  6  0  0  0
  3 16  2  0  0  0  0
  3 15  1  0  0  0  0
  4  2  1  0  0  0  0
  5 21  1  6  0  0  0
  5  6  1  0  0  0  0
  8  7  1  0  0  0  0
  8 10  1  0  0  0  0
 10  5  1  0  0  0  0
 11  4  2  0  0  0  0
 12  7  1  6  0  0  0
 12 11  1  0  0  0  0
 12  1  1  0  0  0  0
 13 11  1  0  0  0  0
 14  9  2  0  0  0  0
 14 18  1  0  0  0  0
 15  9  1  0  0  0  0
 16 14  1  0  0  0  0
 17 19  2  0  0  0  0
 17 16  1  0  0  0  0
 18  2  1  0  0  0  0
 19 20  1  0  0  0  0
 20  1  1  0  0  0  0
 20 18  2  0  0  0  0
 21 22  1  0  0  0  0
 22 23  1  0  0  0  0
 24 23  1  6  0  0  0
 24 25  1  0  0  0  0
 24 28  1  0  0  0  0
 25 27  1  0  0  0  0
 27 26  1  0  0  0  0
 28 29  1  0  0  0  0
 30 29  1  0  0  0  0
 31 30  1  0  0  0  0
 32 30  1  0  0  0  0
 33 32  2  0  0  0  0
 34 33  1  0  0  0  0
M  END
>  <MODEL>
4

>  <REMARK>
 VINA RESULT:      -6.9      2.564      5.194
  Name = 
  10 active torsions:
  status: ('A' for Active; 'I' for Inactive)
    1  A    between atoms: C_6  and  C_28
    2  A    between atoms: C_6  and  C_30
    3  A    between atoms: N_7  and  C_11
    4  A    between atoms: N_7  and  C_29
    5  A    between atoms: C_8  and  C_18
    6  A    between atoms: C_16  and  C_28
    7  A    between atoms: C_16  and  C_31
    8  A    between atoms: C_18  and  C_30
    9  A    between atoms: C_26  and  C_28
   10  A    between atoms: C_26  and  C_29
                            x       y       z     vdW  Elec       q    Type
                         _______ _______ _______ _____ _____    ______ ____

>  <TORSDO>
F 10

$$$$
=
 OpenBabel11052420373D

 34 37  0  0  1  0  0  0  0  0999 V2000
  191.5640  176.4380  144.5800 C   0  0  1  0  0  3  0  0  0  0  0  0
  192.8540  175.4360  142.2540 C   0  0  0  0  0  2  0  0  0  0  0  0
  190.0160  171.5320  142.1920 N   0  0  0  0  0  0  0  0  0  0  0  0
  194.0510  175.5350  143.1590 C   0  0  0  0  0  3  0  0  0  0  0  0
  190.0570  177.2820  146.5470 C   0  0  2  0  0  3  0  0  0  0  0  0
  190.5660  177.4740  145.1140 C   0  0  0  0  0  2  0  0  0  0  0  0
  192.8660  175.3940  146.5360 C   0  0  0  0  0  2  0  0  0  0  0  0
  191.6120  175.4950  147.4000 C   0  0  0  0  0  2  0  0  0  0  0  0
  191.8540  172.6980  141.1510 C   0  0  0  0  0  3  0  0  0  0  0  0
  191.1310  176.9290  147.5790 C   0  0  0  0  0  2  0  0  0  0  0  0
  194.0940  175.9430  144.4410 C   0  0  0  0  0  0  0  0  0  0  0  0
  192.9060  176.3190  145.3100 C   0  0  1  0  0  3  0  0  0  0  0  0
  195.3490  176.0040  145.0340 O   0  0  0  0  0  1  0  0  0  0  0  0
  191.3130  173.4320  142.3240 C   0  0  0  0  0  0  0  0  0  0  0  0
  190.9720  171.4340  141.0890 C   0  0  0  0  0  3  0  0  0  0  0  0
  190.2800  172.7360  142.8800 C   0  0  0  0  0  0  0  0  0  0  0  0
  189.6020  173.1980  144.0070 C   0  0  0  0  0  3  0  0  0  0  0  0
  191.7310  174.6540  142.8600 C   0  0  2  0  0  3  0  0  0  0  0  0
  190.0030  174.4220  144.5640 C   0  0  0  0  0  3  0  0  0  0  0  0
  191.0520  175.1610  143.9830 C   0  0  0  0  0  0  0  0  0  0  0  0
  188.8320  176.3800  146.6210 C   0  0  0  0  0  2  0  0  0  0  0  0
  187.6310  177.0510  145.9740 C   0  0  0  0  0  2  0  0  0  0  0  0
  186.8120  176.0390  145.1740 C   0  0  0  0  0  2  0  0  0  0  0  0
  186.5840  176.4560  143.7190 C   0  0  2  0  0  3  0  0  0  0  0  0
  187.0470  175.3710  142.7580 C   0  0  0  0  0  2  0  0  0  0  0  0
  188.1850  175.0830  140.5770 C   0  0  0  0  0  1  0  0  0  0  0  0
  188.1380  175.9040  141.8480 C   0  0  0  0  0  2  0  0  0  0  0  0
  187.2360  177.7950  143.3960 C   0  0  0  0  0  2  0  0  0  0  0  0
  186.3410  178.6000  142.4710 C   0  0  0  0  0  2  0  0  0  0  0  0
  185.1750  179.0740  143.1940 N   0  0  0  0  0  0  0  0  0  0  0  0
  183.8680  178.6230  142.7350 C   0  0  0  0  0  1  0  0  0  0  0  0
  185.3790  179.7990  144.4200 C   0  0  0  0  0  3  0  0  0  0  0  0
  184.9170  179.4440  145.6230 C   0  0  0  0  0  3  0  0  0  0  0  0
  184.1300  178.2770  145.8440 N   0  0  0  0  0  1  0  0  0  0  0  0
  1  6  1  1  0  0  0
  1 12  1  0  0  0  0
  2  4  1  0  0  0  0
  3 16  1  0  0  0  0
  4 11  2  0  0  0  0
  5 21  1  6  0  0  0
  5 10  1  0  0  0  0
  6  5  1  0  0  0  0
  7  8  1  0  0  0  0
  8 10  1  0  0  0  0
  9 14  2  0  0  0  0
 11 13  1  0  0  0  0
 11 12  1  0  0  0  0
 12  7  1  1  0  0  0
 14 18  1  0  0  0  0
 14 16  1  0  0  0  0
 15  9  1  0  0  0  0
 15  3  2  0  0  0  0
 16 17  2  0  0  0  0
 17 19  1  0  0  0  0
 18  2  1  6  0  0  0
 18 20  1  0  0  0  0
 20 19  2  0  0  0  0
 20  1  1  0  0  0  0
 22 21  1  0  0  0  0
 23 22  1  0  0  0  0
 24 25  1  6  0  0  0
 24 23  1  0  0  0  0
 26 27  1  0  0  0  0
 27 25  1  0  0  0  0
 28 24  1  0  0  0  0
 29 30  1  0  0  0  0
 29 28  1  0  0  0  0
 30 32  1  0  0  0  0
 31 30  1  0  0  0  0
 32 33  2  0  0  0  0
 33 34  1  0  0  0  0
M  END
>  <MODEL>
5

>  <REMARK>
 VINA RESULT:      -6.8      1.294      2.719
  Name = 
  10 active torsions:
  status: ('A' for Active; 'I' for Inactive)
    1  A    between atoms: C_6  and  C_28
    2  A    between atoms: C_6  and  C_30
    3  A    between atoms: N_7  and  C_11
    4  A    between atoms: N_7  and  C_29
    5  A    between atoms: C_8  and  C_18
    6  A    between atoms: C_16  and  C_28
    7  A    between atoms: C_16  and  C_31
    8  A    between atoms: C_18  and  C_30
    9  A    between atoms: C_26  and  C_28
   10  A    between atoms: C_26  and  C_29
                            x       y       z     vdW  Elec       q    Type
                         _______ _______ _______ _____ _____    ______ ____

>  <TORSDO>
F 10

$$$$
=
 OpenBabel11052420373D

 34 37  0  0  1  0  0  0  0  0999 V2000
  193.2000  175.7670  143.8030 C   0  0  1  0  0  3  0  0  0  0  0  0
  192.9490  174.8470  141.1260 C   0  0  0  0  0  2  0  0  0  0  0  0
  190.9410  170.7090  142.5910 N   0  0  0  0  0  0  0  0  0  0  0  0
  194.4360  175.0640  141.1580 C   0  0  0  0  0  3  0  0  0  0  0  0
  193.0790  176.5060  146.3110 C   0  0  2  0  0  3  0  0  0  0  0  0
  192.6290  176.7200  144.8610 C   0  0  0  0  0  2  0  0  0  0  0  0
  195.4830  174.8710  144.5770 C   0  0  0  0  0  2  0  0  0  0  0  0
  194.9750  174.8760  146.0170 C   0  0  0  0  0  2  0  0  0  0  0  0
  191.7130  172.0150  140.7150 C   0  0  0  0  0  3  0  0  0  0  0  0
  194.5780  176.2650  146.5000 C   0  0  0  0  0  2  0  0  0  0  0  0
  195.1930  175.4940  142.1840 C   0  0  0  0  0  0  0  0  0  0  0  0
  194.7200  175.7780  143.6000 C   0  0  1  0  0  3  0  0  0  0  0  0
  196.5470  175.6740  141.9290 O   0  0  0  0  0  1  0  0  0  0  0  0
  191.9110  172.7170  142.0090 C   0  0  0  0  0  0  0  0  0  0  0  0
  191.0680  170.6770  141.1340 C   0  0  0  0  0  3  0  0  0  0  0  0
  191.4620  171.9410  143.0380 C   0  0  0  0  0  0  0  0  0  0  0  0
  191.5430  172.3600  144.3660 C   0  0  0  0  0  3  0  0  0  0  0  0
  192.4650  173.9790  142.2450 C   0  0  2  0  0  3  0  0  0  0  0  0
  192.0960  173.6230  144.6290 C   0  0  0  0  0  3  0  0  0  0  0  0
  192.5390  174.4420  143.5710 C   0  0  0  0  0  0  0  0  0  0  0  0
  192.2090  175.5020  147.0550 C   0  0  0  0  0  2  0  0  0  0  0  0
  190.8220  176.0740  147.3050 C   0  0  0  0  0  2  0  0  0  0  0  0
  189.7520  175.0020  147.1030 C   0  0  0  0  0  2  0  0  0  0  0  0
  188.6240  175.4400  146.1660 C   0  0  2  0  0  3  0  0  0  0  0  0
  189.1750  176.1410  144.9330 C   0  0  0  0  0  2  0  0  0  0  0  0
  189.3390  176.0650  142.4630 C   0  0  0  0  0  1  0  0  0  0  0  0
  188.9780  175.2750  143.7030 C   0  0  0  0  0  2  0  0  0  0  0  0
  187.5900  176.3060  146.8760 C   0  0  0  0  0  2  0  0  0  0  0  0
  187.2670  177.5270  146.0340 C   0  0  0  0  0  2  0  0  0  0  0  0
  185.9310  177.4090  145.4770 N   0  0  0  0  0  0  0  0  0  0  0  0
  184.8170  177.3180  146.4110 C   0  0  0  0  0  1  0  0  0  0  0  0
  185.7660  177.5750  144.0570 C   0  0  0  0  0  3  0  0  0  0  0  0
  185.5910  178.7390  143.4230 C   0  0  0  0  0  3  0  0  0  0  0  0
  185.5280  179.9920  144.0950 N   0  0  0  0  0  1  0  0  0  0  0  0
  1  6  1  1  0  0  0
  2  4  1  0  0  0  0
  3 16  1  0  0  0  0
  4 11  2  0  0  0  0
  5 10  1  0  0  0  0
  5 21  1  6  0  0  0
  6  5  1  0  0  0  0
  7  8  1  0  0  0  0
  8 10  1  0  0  0  0
  9 15  1  0  0  0  0
  9 14  2  0  0  0  0
 11 12  1  0  0  0  0
 12  1  1  0  0  0  0
 12  7  1  1  0  0  0
 13 11  1  0  0  0  0
 14 18  1  0  0  0  0
 14 16  1  0  0  0  0
 15  3  2  0  0  0  0
 16 17  2  0  0  0  0
 17 19  1  0  0  0  0
 18  2  1  6  0  0  0
 18 20  1  0  0  0  0
 20  1  1  0  0  0  0
 20 19  2  0  0  0  0
 21 22  1  0  0  0  0
 23 22  1  0  0  0  0
 24 25  1  6  0  0  0
 24 28  1  0  0  0  0
 24 23  1  0  0  0  0
 26 27  1  0  0  0  0
 27 25  1  0  0  0  0
 29 28  1  0  0  0  0
 30 29  1  0  0  0  0
 30 31  1  0  0  0  0
 32 30  1  0  0  0  0
 33 32  2  0  0  0  0
 33 34  1  0  0  0  0
M  END
>  <MODEL>
6

>  <REMARK>
 VINA RESULT:      -6.8      1.785      3.574
  Name = 
  10 active torsions:
  status: ('A' for Active; 'I' for Inactive)
    1  A    between atoms: C_6  and  C_28
    2  A    between atoms: C_6  and  C_30
    3  A    between atoms: N_7  and  C_11
    4  A    between atoms: N_7  and  C_29
    5  A    between atoms: C_8  and  C_18
    6  A    between atoms: C_16  and  C_28
    7  A    between atoms: C_16  and  C_31
    8  A    between atoms: C_18  and  C_30
    9  A    between atoms: C_26  and  C_28
   10  A    between atoms: C_26  and  C_29
                            x       y       z     vdW  Elec       q    Type
                         _______ _______ _______ _____ _____    ______ ____

>  <TORSDO>
F 10

$$$$
=
 OpenBabel11052420373D

 34 37  0  0  1  0  0  0  0  0999 V2000
  188.1890  175.9380  146.1760 C   0  0  1  0  0  3  0  0  0  0  0  0
  185.6160  176.7780  145.3110 C   0  0  0  0  0  2  0  0  0  0  0  0
  187.3080  177.9160  140.9360 N   0  0  0  0  0  0  0  0  0  0  0  0
  185.7760  177.6980  146.4890 C   0  0  0  0  0  3  0  0  0  0  0  0
  190.5770  174.9760  146.6530 C   0  0  2  0  0  3  0  0  0  0  0  0
  189.0740  174.7230  146.4880 C   0  0  0  0  0  2  0  0  0  0  0  0
  189.2860  178.0740  147.0970 C   0  0  0  0  0  2  0  0  0  0  0  0
  190.6560  177.4900  146.7650 C   0  0  0  0  0  2  0  0  0  0  0  0
  185.3900  177.8670  142.3990 C   0  0  0  0  0  3  0  0  0  0  0  0
  190.9440  176.1920  147.5080 C   0  0  0  0  0  2  0  0  0  0  0  0
  186.8220  177.8000  147.3300 C   0  0  0  0  0  0  0  0  0  0  0  0
  188.1430  177.0550  147.2240 C   0  0  1  0  0  3  0  0  0  0  0  0
  186.6880  178.6900  148.3880 O   0  0  0  0  0  1  0  0  0  0  0  0
  186.6150  177.3420  143.0570 C   0  0  0  0  0  0  0  0  0  0  0  0
  185.8840  178.2460  140.9870 C   0  0  0  0  0  3  0  0  0  0  0  0
  187.6700  177.3910  142.1940 C   0  0  2  0  0  3  0  0  0  0  0  0
  188.9460  176.9680  142.5660 C   0  0  0  0  0  3  0  0  0  0  0  0
  186.7680  176.8500  144.3570 C   0  0  0  0  0  0  0  0  0  0  0  0
  189.1250  176.4720  143.8660 C   0  0  0  0  0  3  0  0  0  0  0  0
  188.0360  176.3930  144.7570 C   0  0  0  0  0  0  0  0  0  0  0  0
  191.3330  174.9190  145.3320 C   0  0  0  0  0  2  0  0  0  0  0  0
  192.1030  173.6140  145.2100 C   0  0  0  0  0  2  0  0  0  0  0  0
  191.9470  173.0230  143.8090 C   0  0  0  0  0  2  0  0  0  0  0  0
  191.6300  174.0720  142.7400 C   0  0  2  0  0  3  0  0  0  0  0  0
  190.4660  173.6300  141.8660 C   0  0  0  0  0  2  0  0  0  0  0  0
  188.0200  173.2680  142.0090 C   0  0  0  0  0  1  0  0  0  0  0  0
  189.3420  173.0790  142.7230 C   0  0  0  0  0  2  0  0  0  0  0  0
  192.8500  174.4230  141.8980 C   0  0  0  0  0  2  0  0  0  0  0  0
  193.3880  175.7830  142.3040 C   0  0  0  0  0  2  0  0  0  0  0  0
  194.8080  175.6910  142.5950 N   0  0  0  0  0  0  0  0  0  0  0  0
  195.7230  176.4190  141.7270 C   0  0  0  0  0  1  0  0  0  0  0  0
  195.2140  175.0480  143.8170 C   0  0  0  0  0  3  0  0  0  0  0  0
  195.2590  175.6220  145.0230 C   0  0  0  0  0  3  0  0  0  0  0  0
  194.9160  176.9850  145.2520 N   0  0  0  0  0  1  0  0  0  0  0  0
  1  6  1  6  0  0  0
  1 12  1  0  0  0  0
  2  4  1  0  0  0  0
  3 15  2  0  0  0  0
  3 16  1  0  0  0  0
  4 11  2  0  0  0  0
  5 21  1  6  0  0  0
  5 10  1  0  0  0  0
  6  5  1  0  0  0  0
  8  7  1  0  0  0  0
  8 10  1  0  0  0  0
  9 14  2  0  0  0  0
 11 13  1  0  0  0  0
 12  7  1  6  0  0  0
 12 11  1  0  0  0  0
 14 18  1  0  0  0  0
 15  9  1  0  0  0  0
 16 17  1  1  0  0  0
 16 14  1  0  0  0  0
 17 19  2  0  0  0  0
 18 20  2  0  0  0  0
 18  2  1  0  0  0  0
 19 20  1  0  0  0  0
 20  1  1  0  0  0  0
 22 21  1  0  0  0  0
 23 22  1  0  0  0  0
 24 25  1  6  0  0  0
 24 23  1  0  0  0  0
 25 27  1  0  0  0  0
 26 27  1  0  0  0  0
 28 29  1  0  0  0  0
 28 24  1  0  0  0  0
 29 30  1  0  0  0  0
 30 32  1  0  0  0  0
 31 30  1  0  0  0  0
 32 33  2  0  0  0  0
 33 34  1  0  0  0  0
M  END
>  <MODEL>
7

>  <REMARK>
 VINA RESULT:      -6.8      2.721      6.663
  Name = 
  10 active torsions:
  status: ('A' for Active; 'I' for Inactive)
    1  A    between atoms: C_6  and  C_28
    2  A    between atoms: C_6  and  C_30
    3  A    between atoms: N_7  and  C_11
    4  A    between atoms: N_7  and  C_29
    5  A    between atoms: C_8  and  C_18
    6  A    between atoms: C_16  and  C_28
    7  A    between atoms: C_16  and  C_31
    8  A    between atoms: C_18  and  C_30
    9  A    between atoms: C_26  and  C_28
   10  A    between atoms: C_26  and  C_29
                            x       y       z     vdW  Elec       q    Type
                         _______ _______ _______ _____ _____    ______ ____

>  <TORSDO>
F 10

$$$$
=
 OpenBabel11052420373D

 34 37  0  0  1  0  0  0  0  0999 V2000
  188.3500  175.7910  145.3160 C   0  0  1  0  0  3  0  0  0  0  0  0
  185.6540  176.6860  145.2130 C   0  0  0  0  0  2  0  0  0  0  0  0
  186.0890  177.8960  140.5610 N   0  0  0  0  0  0  0  0  0  0  0  0
  186.1530  177.5770  146.3170 C   0  0  0  0  0  3  0  0  0  0  0  0
  190.7570  174.7870  145.0950 C   0  0  2  0  0  3  0  0  0  0  0  0
  189.2630  174.5580  145.3480 C   0  0  0  0  0  2  0  0  0  0  0  0
  189.7000  177.8910  145.9330 C   0  0  0  0  0  2  0  0  0  0  0  0
  190.9130  177.2960  145.2230 C   0  0  0  0  0  2  0  0  0  0  0  0
  184.6510  177.8410  142.4980 C   0  0  0  0  0  3  0  0  0  0  0  0
  191.3700  175.9780  145.8350 C   0  0  0  0  0  2  0  0  0  0  0  0
  187.3920  177.6460  146.8360 C   0  0  0  0  0  0  0  0  0  0  0  0
  188.6170  176.8860  146.3550 C   0  0  1  0  0  3  0  0  0  0  0  0
  187.5740  178.5150  147.9040 O   0  0  0  0  0  1  0  0  0  0  0  0
  186.0000  177.2850  142.7810 C   0  0  0  0  0  0  0  0  0  0  0  0
  184.7410  178.2440  141.0110 C   0  0  0  0  0  3  0  0  0  0  0  0
  186.7750  177.3380  141.6600 C   0  0  2  0  0  3  0  0  0  0  0  0
  188.0960  176.8900  141.6560 C   0  0  0  0  0  3  0  0  0  0  0  0
  186.4980  176.7630  143.9790 C   0  0  0  0  0  0  0  0  0  0  0  0
  188.6190  176.3630  142.8470 C   0  0  0  0  0  3  0  0  0  0  0  0
  187.8180  176.2800  144.0030 C   0  0  0  0  0  0  0  0  0  0  0  0
  191.1160  174.7480  143.6150 C   0  0  0  0  0  2  0  0  0  0  0  0
  192.5720  174.3530  143.4260 C   0  0  0  0  0  2  0  0  0  0  0  0
  192.8580  173.0070  144.0900 C   0  0  0  0  0  2  0  0  0  0  0  0
  194.2480  172.9260  144.7250 C   0  0  2  0  0  3  0  0  0  0  0  0
  194.3410  171.7580  145.6950 C   0  0  0  0  0  2  0  0  0  0  0  0
  196.7430  171.2400  146.0140 C   0  0  0  0  0  1  0  0  0  0  0  0
  195.4740  170.8310  145.2960 C   0  0  0  0  0  2  0  0  0  0  0  0
  194.6520  174.2340  145.3950 C   0  0  0  0  0  2  0  0  0  0  0  0
  195.9540  174.7420  144.8030 C   0  0  0  0  0  2  0  0  0  0  0  0
  195.7860  176.1040  144.3270 N   0  0  0  0  0  0  0  0  0  0  0  0
  194.8640  176.9640  145.0560 C   0  0  0  0  0  1  0  0  0  0  0  0
  196.6650  176.5790  143.2910 C   0  0  0  0  0  3  0  0  0  0  0  0
  196.3450  176.7230  142.0010 C   0  0  0  0  0  3  0  0  0  0  0  0
  195.0620  176.4000  141.4750 N   0  0  0  0  0  1  0  0  0  0  0  0
  1  6  1  6  0  0  0
  1 12  1  0  0  0  0
  2  4  1  0  0  0  0
  3 15  2  0  0  0  0
  3 16  1  0  0  0  0
  4 11  2  0  0  0  0
  5 21  1  6  0  0  0
  5  6  1  0  0  0  0
  5 10  1  0  0  0  0
  8 10  1  0  0  0  0
  8  7  1  0  0  0  0
  9 14  2  0  0  0  0
 11 13  1  0  0  0  0
 12  7  1  6  0  0  0
 12 11  1  0  0  0  0
 14 18  1  0  0  0  0
 15  9  1  0  0  0  0
 16 17  1  1  0  0  0
 16 14  1  0  0  0  0
 17 19  2  0  0  0  0
 18 20  2  0  0  0  0
 18  2  1  0  0  0  0
 19 20  1  0  0  0  0
 20  1  1  0  0  0  0
 22 21  1  0  0  0  0
 22 23  1  0  0  0  0
 24 23  1  1  0  0  0
 24 28  1  0  0  0  0
 24 25  1  0  0  0  0
 27 25  1  0  0  0  0
 27 26  1  0  0  0  0
 29 28  1  0  0  0  0
 30 29  1  0  0  0  0
 30 31  1  0  0  0  0
 32 30  1  0  0  0  0
 33 32  2  0  0  0  0
 34 33  1  0  0  0  0
M  END
>  <MODEL>
8

>  <REMARK>
 VINA RESULT:      -6.5      3.132      7.761
  Name = 
  10 active torsions:
  status: ('A' for Active; 'I' for Inactive)
    1  A    between atoms: C_6  and  C_28
    2  A    between atoms: C_6  and  C_30
    3  A    between atoms: N_7  and  C_11
    4  A    between atoms: N_7  and  C_29
    5  A    between atoms: C_8  and  C_18
    6  A    between atoms: C_16  and  C_28
    7  A    between atoms: C_16  and  C_31
    8  A    between atoms: C_18  and  C_30
    9  A    between atoms: C_26  and  C_28
   10  A    between atoms: C_26  and  C_29
                            x       y       z     vdW  Elec       q    Type
                         _______ _______ _______ _____ _____    ______ ____

>  <TORSDO>
F 10

$$$$
=
 OpenBabel11052420373D

 34 37  0  0  1  0  0  0  0  0999 V2000
  195.1940  175.8040  145.0040 C   0  0  1  0  0  3  0  0  0  0  0  0
  197.5930  175.4230  143.5300 C   0  0  0  0  0  2  0  0  0  0  0  0
  195.1710  175.2950  139.3570 N   0  0  0  0  0  0  0  0  0  0  0  0
  197.6840  174.2250  144.4330 C   0  0  0  0  0  3  0  0  0  0  0  0
  192.9010  176.4140  146.1100 C   0  0  2  0  0  3  0  0  0  0  0  0
  194.3380  176.8230  145.7680 C   0  0  0  0  0  2  0  0  0  0  0  0
  194.3600  173.4220  145.4990 C   0  0  0  0  0  2  0  0  0  0  0  0
  192.9320  173.9570  145.5660 C   0  0  0  0  0  2  0  0  0  0  0  0
  197.3210  175.1290  140.4390 C   0  0  0  0  0  3  0  0  0  0  0  0
  192.7400  174.9960  146.6630 C   0  0  0  0  0  2  0  0  0  0  0  0
  196.8140  173.8280  145.3810 C   0  0  0  0  0  0  0  0  0  0  0  0
  195.4710  174.4650  145.6970 C   0  0  1  0  0  3  0  0  0  0  0  0
  197.1700  172.7130  146.1280 O   0  0  0  0  0  1  0  0  0  0  0  0
  196.2200  175.3690  141.4070 C   0  0  0  0  0  0  0  0  0  0  0  0
  196.5910  175.0810  139.0800 C   0  0  0  0  0  3  0  0  0  0  0  0
  195.0270  175.4540  140.7510 C   0  0  2  0  0  3  0  0  0  0  0  0
  193.8260  175.6630  141.4290 C   0  0  0  0  0  3  0  0  0  0  0  0
  196.2900  175.5010  142.7970 C   0  0  0  0  0  0  0  0  0  0  0  0
  193.8700  175.7970  142.8260 C   0  0  0  0  0  3  0  0  0  0  0  0
  195.1010  175.7360  143.5100 C   0  0  0  0  0  0  0  0  0  0  0  0
  191.9150  176.7420  144.9970 C   0  0  0  0  0  2  0  0  0  0  0  0
  190.5020  176.8550  145.5470 C   0  0  0  0  0  2  0  0  0  0  0  0
  189.5800  175.8320  144.8830 C   0  0  0  0  0  2  0  0  0  0  0  0
  188.2450  176.4250  144.4260 C   0  0  2  0  0  3  0  0  0  0  0  0
  188.3910  177.1410  143.0920 C   0  0  0  0  0  2  0  0  0  0  0  0
  187.1210  177.5480  141.0040 C   0  0  0  0  0  1  0  0  0  0  0  0
  187.4730  176.5180  142.0570 C   0  0  0  0  0  2  0  0  0  0  0  0
  187.6310  177.3390  145.4790 C   0  0  0  0  0  2  0  0  0  0  0  0
  186.1840  176.9510  145.7260 C   0  0  0  0  0  2  0  0  0  0  0  0
  185.3500  178.1380  145.7690 N   0  0  0  0  0  0  0  0  0  0  0  0
  184.4410  178.2830  146.8990 C   0  0  0  0  0  1  0  0  0  0  0  0
  185.5950  179.1820  144.8090 C   0  0  0  0  0  3  0  0  0  0  0  0
  185.0520  179.2630  143.5900 C   0  0  0  0  0  3  0  0  0  0  0  0
  184.1500  178.2910  143.0710 N   0  0  0  0  0  1  0  0  0  0  0  0
  1 12  1  0  0  0  0
  1  6  1  1  0  0  0
  2  4  1  0  0  0  0
  3 16  1  0  0  0  0
  4 11  2  0  0  0  0
  5 21  1  6  0  0  0
  5 10  1  0  0  0  0
  6  5  1  0  0  0  0
  7  8  1  0  0  0  0
  8 10  1  0  0  0  0
  9 14  2  0  0  0  0
 11 12  1  0  0  0  0
 11 13  1  0  0  0  0
 12  7  1  6  0  0  0
 14 18  1  0  0  0  0
 15  3  2  0  0  0  0
 15  9  1  0  0  0  0
 16 14  1  0  0  0  0
 16 17  1  1  0  0  0
 17 19  2  0  0  0  0
 18 20  2  0  0  0  0
 18  2  1  0  0  0  0
 19 20  1  0  0  0  0
 20  1  1  0  0  0  0
 21 22  1  0  0  0  0
 23 22  1  0  0  0  0
 24 25  1  6  0  0  0
 24 23  1  0  0  0  0
 24 28  1  0  0  0  0
 26 27  1  0  0  0  0
 27 25  1  0  0  0  0
 28 29  1  0  0  0  0
 29 30  1  0  0  0  0
 30 31  1  0  0  0  0
 32 30  1  0  0  0  0
 33 32  2  0  0  0  0
 34 33  1  0  0  0  0
M  END
>  <MODEL>
9

>  <REMARK>
 VINA RESULT:      -6.4      2.747      4.662
  Name = 
  10 active torsions:
  status: ('A' for Active; 'I' for Inactive)
    1  A    between atoms: C_6  and  C_28
    2  A    between atoms: C_6  and  C_30
    3  A    between atoms: N_7  and  C_11
    4  A    between atoms: N_7  and  C_29
    5  A    between atoms: C_8  and  C_18
    6  A    between atoms: C_16  and  C_28
    7  A    between atoms: C_16  and  C_31
    8  A    between atoms: C_18  and  C_30
    9  A    between atoms: C_26  and  C_28
   10  A    between atoms: C_26  and  C_29
                            x       y       z     vdW  Elec       q    Type
                         _______ _______ _______ _____ _____    ______ ____

>  <TORSDO>
F 10

$$$$
