=
 OpenBabel11052421433D

 32 34  0  0  1  0  0  0  0  0999 V2000
  188.6980  177.3090  145.7400 O   0  0  0  0  0  0  0  0  0  0  0  0
  190.3030  175.7350  146.5020 C   0  0  0  0  0  0  0  0  0  0  0  0
  191.6790  176.1280  146.1600 C   0  0  0  0  0  0  0  0  0  0  0  0
  186.7910  178.2990  144.7160 C   0  0  1  0  0  3  0  0  0  0  0  0
  187.3160  177.1100  142.5620 C   0  0  0  0  0  2  0  0  0  0  0  0
  194.2760  176.9040  145.4640 C   0  0  0  0  0  3  0  0  0  0  0  0
  187.1170  175.6110  142.4360 C   0  0  0  0  0  2  0  0  0  0  0  0
  188.4520  174.9030  142.1840 C   0  0  1  0  0  3  0  0  0  0  0  0
  189.6180  175.8750  144.0650 C   0  0  2  0  0  3  0  0  0  0  0  0
  193.9380  176.7130  146.8110 C   0  0  0  0  0  3  0  0  0  0  0  0
  186.2110  177.7190  143.4160 C   0  0  2  0  0  3  0  0  0  0  0  0
  192.6400  176.3250  147.1580 C   0  0  0  0  0  3  0  0  0  0  0  0
  185.8140  179.0260  145.3960 O   0  0  0  0  0  1  0  0  0  0  0  0
  189.1240  174.6140  143.4750 N   0  0  0  0  0  0  0  0  0  0  0  0
  191.0330  176.1640  143.7890 N   0  0  0  0  0  2  0  0  0  0  0  0
  187.3100  177.1960  145.6290 C   0  0  0  0  0  2  0  0  0  0  0  0
  190.0390  175.2380  147.6300 O   0  0  0  0  0  0  0  0  0  0  0  0
  193.3160  176.7140  144.4670 C   0  0  0  0  0  3  0  0  0  0  0  0
  189.1910  176.0200  145.5340 C   0  0  2  0  0  3  0  0  0  0  0  0
  192.0190  176.3270  144.8130 C   0  0  0  0  0  0  0  0  0  0  0  0
  187.1430  172.9030  142.0190 O   0  0  0  0  0  1  0  0  0  0  0  0
  188.1480  173.6350  141.3840 C   0  0  0  0  0  2  0  0  0  0  0  0
  189.9940  172.5090  144.5540 C   0  0  0  0  0  1  0  0  0  0  0  0
  190.1480  173.5460  143.4420 C   0  0  0  0  0  2  0  0  0  0  0  0
  185.5830  178.7350  142.6840 O   0  0  0  0  0  0  0  0  0  0  0  0
  184.3040  178.2440  142.4010 C   0  0  0  0  0  2  0  0  0  0  0  0
  184.1460  178.0780  140.9040 C   0  0  0  0  0  2  0  0  0  0  0  0
  182.7140  178.3740  140.4930 C   0  0  0  0  0  2  0  0  0  0  0  0
  181.7780  178.2780  141.6870 C   0  0  0  0  0  2  0  0  0  0  0  0
  180.3560  178.2450  141.2540 C   0  0  0  0  0  0  0  0  0  0  0  0
  179.9690  178.9120  140.1010 O   0  0  0  0  0  0  0  0  0  0  0  0
  179.5040  177.6260  141.9410 O   0  0  0  0  0  1  0  0  0  0  0  0
  2 17  2  0  0  0  0
  3  2  1  0  0  0  0
  3 12  1  0  0  0  0
  4 13  1  1  0  0  0
  4 16  1  0  0  0  0
  5 11  1  0  0  0  0
  6 10  1  0  0  0  0
  7  5  1  0  0  0  0
  8 22  1  1  0  0  0
  8  7  1  0  0  0  0
  8 14  1  0  0  0  0
  9 15  1  1  0  0  0
  9 19  1  0  0  0  0
 10 12  2  0  0  0  0
 11 25  1  6  0  0  0
 11  4  1  0  0  0  0
 14  9  1  0  0  0  0
 15 20  1  0  0  0  0
 16  1  1  0  0  0  0
 18 20  1  0  0  0  0
 18  6  2  0  0  0  0
 19  1  1  6  0  0  0
 19  2  1  0  0  0  0
 20  3  2  0  0  0  0
 22 21  1  0  0  0  0
 24 14  1  0  0  0  0
 24 23  1  0  0  0  0
 26 25  1  0  0  0  0
 27 26  1  0  0  0  0
 28 27  1  0  0  0  0
 28 29  1  0  0  0  0
 30 29  1  0  0  0  0
 30 32  1  0  0  0  0
 31 30  2  0  0  0  0
M  END
>  <MODEL>
1

>  <REMARK>
 VINA RESULT:      -7.3      0.000      0.000
  Name = 
  8 active torsions:
  status: ('A' for Active; 'I' for Inactive)
    1  A    between atoms: C_1  and  C_10
    2  A    between atoms: C_2  and  C_19
    3  A    between atoms: C_2  and  C_24
    4  A    between atoms: C_10  and  C_24
    5  A    between atoms: O_12  and  C_19
    6  A    between atoms: O_12  and  C_21
    7  A    between atoms: C_13  and  C_15
    8  A    between atoms: C_25  and  N_26
                            x       y       z     vdW  Elec       q    Type
                         _______ _______ _______ _____ _____    ______ ____

>  <TORSDO>
F 8

$$$$
=
 OpenBabel11052421433D

 32 34  0  0  1  0  0  0  0  0999 V2000
  192.3910  176.6850  145.8270 O   0  0  0  0  0  0  0  0  0  0  0  0
  194.3370  175.4480  145.2660 C   0  0  0  0  0  0  0  0  0  0  0  0
  194.9120  175.8610  143.9760 C   0  0  0  0  0  0  0  0  0  0  0  0
  190.1830  177.2730  146.4930 C   0  0  1  0  0  3  0  0  0  0  0  0
  189.2330  175.6820  144.7920 C   0  0  0  0  0  2  0  0  0  0  0  0
  195.9520  176.6630  141.5050 C   0  0  0  0  0  3  0  0  0  0  0  0
  189.3360  174.1820  144.9920 C   0  0  0  0  0  2  0  0  0  0  0  0
  190.1860  173.5400  143.8910 C   0  0  1  0  0  3  0  0  0  0  0  0
  192.1000  174.9920  144.1660 C   0  0  2  0  0  3  0  0  0  0  0  0
  196.7410  176.7490  142.6590 C   0  0  0  0  0  3  0  0  0  0  0  0
  188.9890  176.3770  146.1260 C   0  0  2  0  0  3  0  0  0  0  0  0
  196.2220  176.3480  143.8950 C   0  0  0  0  0  3  0  0  0  0  0  0
  189.8730  178.0540  147.6060 O   0  0  0  0  0  1  0  0  0  0  0  0
  191.6220  173.5980  144.2620 N   0  0  0  0  0  0  0  0  0  0  0  0
  192.7700  175.3220  142.8990 N   0  0  0  0  0  2  0  0  0  0  0  0
  191.4210  176.4430  146.8030 C   0  0  0  0  0  2  0  0  0  0  0  0
  195.0850  175.1940  146.2500 O   0  0  0  0  0  0  0  0  0  0  0  0
  194.6420  176.1830  141.5860 C   0  0  0  0  0  3  0  0  0  0  0  0
  192.8460  175.4250  145.4370 C   0  0  2  0  0  3  0  0  0  0  0  0
  194.1210  175.7830  142.8190 C   0  0  0  0  0  0  0  0  0  0  0  0
  188.6200  172.0900  142.8030 O   0  0  0  0  0  1  0  0  0  0  0  0
  189.6840  172.1070  143.7070 C   0  0  0  0  0  2  0  0  0  0  0  0
  193.4680  171.8980  144.5010 C   0  0  0  0  0  1  0  0  0  0  0  0
  192.5030  172.6320  143.5690 C   0  0  0  0  0  2  0  0  0  0  0  0
  187.8280  177.1540  146.0240 O   0  0  0  0  0  0  0  0  0  0  0  0
  186.8790  176.4980  146.8140 C   0  0  0  0  0  2  0  0  0  0  0  0
  185.4880  176.8260  146.3120 C   0  0  0  0  0  2  0  0  0  0  0  0
  185.1130  178.2450  146.7020 C   0  0  0  0  0  2  0  0  0  0  0  0
  184.0040  178.7780  145.8080 C   0  0  0  0  0  2  0  0  0  0  0  0
  184.5110  179.0750  144.4420 C   0  0  0  0  0  0  0  0  0  0  0  0
  184.0310  178.3600  143.3560 O   0  0  0  0  0  0  0  0  0  0  0  0
  185.3850  179.9640  144.2760 O   0  0  0  0  0  1  0  0  0  0  0  0
  1 16  1  0  0  0  0
  2 17  2  0  0  0  0
  3  2  1  0  0  0  0
  4 16  1  0  0  0  0
  4 13  1  1  0  0  0
  5  7  1  0  0  0  0
  5 11  1  0  0  0  0
  6 18  2  0  0  0  0
  6 10  1  0  0  0  0
  8 22  1  1  0  0  0
  8 14  1  0  0  0  0
  8  7  1  0  0  0  0
  9 15  1  6  0  0  0
  9 14  1  0  0  0  0
  9 19  1  0  0  0  0
 10 12  2  0  0  0  0
 11 25  1  6  0  0  0
 11  4  1  0  0  0  0
 12  3  1  0  0  0  0
 18 20  1  0  0  0  0
 19  2  1  6  0  0  0
 19  1  1  0  0  0  0
 20 15  1  0  0  0  0
 20  3  2  0  0  0  0
 21 22  1  0  0  0  0
 24 14  1  0  0  0  0
 24 23  1  0  0  0  0
 25 26  1  0  0  0  0
 27 28  1  0  0  0  0
 27 26  1  0  0  0  0
 29 28  1  0  0  0  0
 30 29  1  0  0  0  0
 31 30  2  0  0  0  0
 32 30  1  0  0  0  0
M  END
>  <MODEL>
2

>  <REMARK>
 VINA RESULT:      -7.1      2.692      4.257
  Name = 
  8 active torsions:
  status: ('A' for Active; 'I' for Inactive)
    1  A    between atoms: C_1  and  C_10
    2  A    between atoms: C_2  and  C_19
    3  A    between atoms: C_2  and  C_24
    4  A    between atoms: C_10  and  C_24
    5  A    between atoms: O_12  and  C_19
    6  A    between atoms: O_12  and  C_21
    7  A    between atoms: C_13  and  C_15
    8  A    between atoms: C_25  and  N_26
                            x       y       z     vdW  Elec       q    Type
                         _______ _______ _______ _____ _____    ______ ____

>  <TORSDO>
F 8

$$$$
=
 OpenBabel11052421433D

 32 34  0  0  1  0  0  0  0  0999 V2000
  192.2540  176.4760  145.4600 O   0  0  0  0  0  0  0  0  0  0  0  0
  194.0980  175.1280  144.8130 C   0  0  0  0  0  0  0  0  0  0  0  0
  194.8380  175.7010  143.6780 C   0  0  0  0  0  0  0  0  0  0  0  0
  190.0700  177.2040  146.0620 C   0  0  1  0  0  3  0  0  0  0  0  0
  189.1220  176.0960  144.0120 C   0  0  0  0  0  2  0  0  0  0  0  0
  196.2000  176.8140  141.5000 C   0  0  0  0  0  3  0  0  0  0  0  0
  189.0380  174.5850  143.9170 C   0  0  0  0  0  2  0  0  0  0  0  0
  189.9170  174.0590  142.7770 C   0  0  1  0  0  3  0  0  0  0  0  0
  191.9430  175.1770  143.4790 C   0  0  2  0  0  3  0  0  0  0  0  0
  196.8760  176.5800  142.7050 C   0  0  0  0  0  3  0  0  0  0  0  0
  188.8260  176.5530  145.4350 C   0  0  2  0  0  3  0  0  0  0  0  0
  196.1960  176.0230  143.7930 C   0  0  0  0  0  3  0  0  0  0  0  0
  189.7390  177.7950  147.2820 O   0  0  0  0  0  1  0  0  0  0  0  0
  191.3070  173.8620  143.2590 N   0  0  0  0  0  0  0  0  0  0  0  0
  192.7670  175.6510  142.3570 N   0  0  0  0  0  2  0  0  0  0  0  0
  191.1720  176.1800  146.2930 C   0  0  0  0  0  2  0  0  0  0  0  0
  194.7120  174.6000  145.7790 O   0  0  0  0  0  0  0  0  0  0  0  0
  194.8430  176.4990  141.3860 C   0  0  0  0  0  3  0  0  0  0  0  0
  192.6030  175.2640  144.8630 C   0  0  2  0  0  3  0  0  0  0  0  0
  194.1620  175.9430  142.4720 C   0  0  0  0  0  0  0  0  0  0  0  0
  188.9400  171.9500  143.3580 O   0  0  0  0  0  1  0  0  0  0  0  0
  189.2800  172.7630  142.2750 C   0  0  0  0  0  2  0  0  0  0  0  0
  192.8760  171.8900  143.2890 C   0  0  0  0  0  1  0  0  0  0  0  0
  192.1400  172.9400  142.4560 C   0  0  0  0  0  2  0  0  0  0  0  0
  187.7740  177.4770  145.4030 O   0  0  0  0  0  0  0  0  0  0  0  0
  186.6650  176.7840  145.8990 C   0  0  0  0  0  2  0  0  0  0  0  0
  185.4410  177.6740  145.8300 C   0  0  0  0  0  2  0  0  0  0  0  0
  185.8280  179.0570  145.3360 C   0  0  0  0  0  2  0  0  0  0  0  0
  184.9260  179.4960  144.1920 C   0  0  0  0  0  2  0  0  0  0  0  0
  185.3240  178.8490  142.9150 C   0  0  0  0  0  0  0  0  0  0  0  0
  184.3630  178.2560  142.1110 O   0  0  0  0  0  0  0  0  0  0  0  0
  186.5340  178.8260  142.5730 O   0  0  0  0  0  1  0  0  0  0  0  0
  1 16  1  0  0  0  0
  2 17  2  0  0  0  0
  3 12  1  0  0  0  0
  3  2  1  0  0  0  0
  4 16  1  0  0  0  0
  4 13  1  1  0  0  0
  5 11  1  0  0  0  0
  6 10  1  0  0  0  0
  7  5  1  0  0  0  0
  8 22  1  1  0  0  0
  8 14  1  0  0  0  0
  8  7  1  0  0  0  0
  9 15  1  6  0  0  0
  9 19  1  0  0  0  0
 10 12  2  0  0  0  0
 11 25  1  6  0  0  0
 11  4  1  0  0  0  0
 14  9  1  0  0  0  0
 15 20  1  0  0  0  0
 18  6  2  0  0  0  0
 18 20  1  0  0  0  0
 19  2  1  6  0  0  0
 19  1  1  0  0  0  0
 20  3  2  0  0  0  0
 22 21  1  0  0  0  0
 24 14  1  0  0  0  0
 24 23  1  0  0  0  0
 25 26  1  0  0  0  0
 27 26  1  0  0  0  0
 28 27  1  0  0  0  0
 29 28  1  0  0  0  0
 30 29  1  0  0  0  0
 31 30  2  0  0  0  0
 32 30  1  0  0  0  0
M  END
>  <MODEL>
3

>  <REMARK>
 VINA RESULT:      -6.9      2.448      3.998
  Name = 
  8 active torsions:
  status: ('A' for Active; 'I' for Inactive)
    1  A    between atoms: C_1  and  C_10
    2  A    between atoms: C_2  and  C_19
    3  A    between atoms: C_2  and  C_24
    4  A    between atoms: C_10  and  C_24
    5  A    between atoms: O_12  and  C_19
    6  A    between atoms: O_12  and  C_21
    7  A    between atoms: C_13  and  C_15
    8  A    between atoms: C_25  and  N_26
                            x       y       z     vdW  Elec       q    Type
                         _______ _______ _______ _____ _____    ______ ____

>  <TORSDO>
F 8

$$$$
=
 OpenBabel11052421433D

 32 34  0  0  1  0  0  0  0  0999 V2000
  191.6010  177.1620  144.8630 O   0  0  0  0  0  0  0  0  0  0  0  0
  189.4190  177.1550  143.9290 C   0  0  0  0  0  0  0  0  0  0  0  0
  188.3690  177.1340  144.9600 C   0  0  0  0  0  0  0  0  0  0  0  0
  193.8730  176.6360  145.3390 C   0  0  1  0  0  3  0  0  0  0  0  0
  193.2640  174.2120  145.6280 C   0  0  0  0  0  2  0  0  0  0  0  0
  186.4070  177.0640  146.9550 C   0  0  0  0  0  3  0  0  0  0  0  0
  192.8880  173.3600  144.4310 C   0  0  0  0  0  2  0  0  0  0  0  0
  191.4390  172.8760  144.5380 C   0  0  1  0  0  3  0  0  0  0  0  0
  190.4660  175.0600  144.8980 C   0  0  2  0  0  3  0  0  0  0  0  0
  186.4380  178.1230  146.0370 C   0  0  0  0  0  3  0  0  0  0  0  0
  194.3760  175.1860  145.2540 C   0  0  2  0  0  3  0  0  0  0  0  0
  187.4180  178.1570  145.0400 C   0  0  0  0  0  3  0  0  0  0  0  0
  194.9390  177.5230  145.1910 O   0  0  0  0  0  1  0  0  0  0  0  0
  190.5200  173.9010  143.9830 N   0  0  0  0  0  0  0  0  0  0  0  0
  189.3300  175.0460  145.8320 N   0  0  0  0  0  2  0  0  0  0  0  0
  192.8390  176.9250  144.2590 C   0  0  0  0  0  2  0  0  0  0  0  0
  189.2980  177.8800  142.9040 O   0  0  0  0  0  0  0  0  0  0  0  0
  187.3600  176.0440  146.8790 C   0  0  0  0  0  3  0  0  0  0  0  0
  190.6880  176.3840  144.1510 C   0  0  2  0  0  3  0  0  0  0  0  0
  188.3400  176.0780  145.8840 C   0  0  0  0  0  0  0  0  0  0  0  0
  192.4050  170.7140  144.1770 O   0  0  0  0  0  1  0  0  0  0  0  0
  191.3490  171.5430  143.7940 C   0  0  0  0  0  2  0  0  0  0  0  0
  188.7330  173.9100  142.2060 C   0  0  0  0  0  1  0  0  0  0  0  0
  189.1820  173.4140  143.5800 C   0  0  0  0  0  2  0  0  0  0  0  0
  195.4490  175.0050  146.1360 O   0  0  0  0  0  0  0  0  0  0  0  0
  196.4110  174.3050  145.4010 C   0  0  0  0  0  2  0  0  0  0  0  0
  196.9370  173.1490  146.2280 C   0  0  0  0  0  2  0  0  0  0  0  0
  196.9050  171.8680  145.4130 C   0  0  0  0  0  2  0  0  0  0  0  0
  195.5700  171.1580  145.5710 C   0  0  0  0  0  2  0  0  0  0  0  0
  195.7090  169.9280  146.3930 C   0  0  0  0  0  0  0  0  0  0  0  0
  194.6000  169.1360  146.6460 O   0  0  0  0  0  0  0  0  0  0  0  0
  196.8290  169.6150  146.8720 O   0  0  0  0  0  1  0  0  0  0  0  0
  2  3  1  0  0  0  0
  3 12  2  0  0  0  0
  3 20  1  0  0  0  0
  4 13  1  6  0  0  0
  7  8  1  0  0  0  0
  7  5  1  0  0  0  0
  8 22  1  6  0  0  0
  9 15  1  6  0  0  0
 10  6  2  0  0  0  0
 11  4  1  0  0  0  0
 11  5  1  0  0  0  0
 11 25  1  1  0  0  0
 12 10  1  0  0  0  0
 14  8  1  0  0  0  0
 14  9  1  0  0  0  0
 15 20  1  0  0  0  0
 16  1  1  0  0  0  0
 16  4  1  0  0  0  0
 17  2  2  0  0  0  0
 18  6  1  0  0  0  0
 19  2  1  1  0  0  0
 19  1  1  0  0  0  0
 19  9  1  0  0  0  0
 20 18  2  0  0  0  0
 22 21  1  0  0  0  0
 23 24  1  0  0  0  0
 24 14  1  0  0  0  0
 26 25  1  0  0  0  0
 26 27  1  0  0  0  0
 28 29  1  0  0  0  0
 28 27  1  0  0  0  0
 29 30  1  0  0  0  0
 30 31  2  0  0  0  0
 30 32  1  0  0  0  0
M  END
>  <MODEL>
4

>  <REMARK>
 VINA RESULT:      -6.8      4.022      9.405
  Name = 
  8 active torsions:
  status: ('A' for Active; 'I' for Inactive)
    1  A    between atoms: C_1  and  C_10
    2  A    between atoms: C_2  and  C_19
    3  A    between atoms: C_2  and  C_24
    4  A    between atoms: C_10  and  C_24
    5  A    between atoms: O_12  and  C_19
    6  A    between atoms: O_12  and  C_21
    7  A    between atoms: C_13  and  C_15
    8  A    between atoms: C_25  and  N_26
                            x       y       z     vdW  Elec       q    Type
                         _______ _______ _______ _____ _____    ______ ____

>  <TORSDO>
F 8

$$$$
=
 OpenBabel11052421433D

 32 34  0  0  1  0  0  0  0  0999 V2000
  192.4240  176.7690  146.1360 O   0  0  0  0  0  0  0  0  0  0  0  0
  194.3520  175.5520  145.4760 C   0  0  0  0  0  0  0  0  0  0  0  0
  194.7920  175.8960  144.1150 C   0  0  0  0  0  0  0  0  0  0  0  0
  190.2670  177.3370  146.9660 C   0  0  1  0  0  3  0  0  0  0  0  0
  189.2210  175.6110  145.4640 C   0  0  0  0  0  2  0  0  0  0  0  0
  195.5760  176.5620  141.5120 C   0  0  0  0  0  3  0  0  0  0  0  0
  189.3920  174.1310  145.7470 C   0  0  0  0  0  2  0  0  0  0  0  0
  190.1600  173.4430  144.6150 C   0  0  1  0  0  3  0  0  0  0  0  0
  192.0400  174.9620  144.6200 C   0  0  2  0  0  3  0  0  0  0  0  0
  196.4630  176.7460  142.5810 C   0  0  0  0  0  3  0  0  0  0  0  0
  189.0760  176.3860  146.7680 C   0  0  2  0  0  3  0  0  0  0  0  0
  196.0720  176.4120  143.8820 C   0  0  0  0  0  3  0  0  0  0  0  0
  190.0320  178.1800  148.0520 O   0  0  0  0  0  1  0  0  0  0  0  0
  191.6200  173.5650  144.8460 N   0  0  0  0  0  0  0  0  0  0  0  0
  192.5810  175.2270  143.2780 N   0  0  0  0  0  2  0  0  0  0  0  0
  191.5550  176.5640  147.2110 C   0  0  0  0  0  2  0  0  0  0  0  0
  195.1930  175.3840  146.4000 O   0  0  0  0  0  0  0  0  0  0  0  0
  194.2960  176.0530  141.7450 C   0  0  0  0  0  3  0  0  0  0  0  0
  192.8840  175.4990  145.7860 C   0  0  2  0  0  3  0  0  0  0  0  0
  193.9030  175.7200  143.0440 C   0  0  0  0  0  0  0  0  0  0  0  0
  189.0490  171.7340  143.3550 O   0  0  0  0  0  1  0  0  0  0  0  0
  189.6920  171.9880  144.5680 C   0  0  0  0  0  2  0  0  0  0  0  0
  193.5820  171.9890  145.0000 C   0  0  0  0  0  1  0  0  0  0  0  0
  192.4670  172.5800  144.1360 C   0  0  0  0  0  2  0  0  0  0  0  0
  187.8840  177.1220  146.7260 O   0  0  0  0  0  0  0  0  0  0  0  0
  187.7940  177.5950  145.4130 C   0  0  0  0  0  2  0  0  0  0  0  0
  186.3760  178.0490  145.1360 C   0  0  0  0  0  2  0  0  0  0  0  0
  186.1610  178.2080  143.6410 C   0  0  0  0  0  2  0  0  0  0  0  0
  186.9860  177.1940  142.8640 C   0  0  0  0  0  2  0  0  0  0  0  0
  187.6450  177.8230  141.6900 C   0  0  0  0  0  0  0  0  0  0  0  0
  186.9820  177.8830  140.4740 O   0  0  0  0  0  0  0  0  0  0  0  0
  188.8100  178.2870  141.7970 O   0  0  0  0  0  1  0  0  0  0  0  0
  1 16  1  0  0  0  0
  2 17  2  0  0  0  0
  3  2  1  0  0  0  0
  4 16  1  0  0  0  0
  4 13  1  1  0  0  0
  5  7  1  0  0  0  0
  5 11  1  0  0  0  0
  6 18  2  0  0  0  0
  6 10  1  0  0  0  0
  8 22  1  1  0  0  0
  8 14  1  0  0  0  0
  8  7  1  0  0  0  0
  9 15  1  6  0  0  0
  9 14  1  0  0  0  0
  9 19  1  0  0  0  0
 10 12  2  0  0  0  0
 11 25  1  6  0  0  0
 11  4  1  0  0  0  0
 12  3  1  0  0  0  0
 18 20  1  0  0  0  0
 19  2  1  6  0  0  0
 19  1  1  0  0  0  0
 20 15  1  0  0  0  0
 20  3  2  0  0  0  0
 21 22  1  0  0  0  0
 24 14  1  0  0  0  0
 24 23  1  0  0  0  0
 26 25  1  0  0  0  0
 27 26  1  0  0  0  0
 28 27  1  0  0  0  0
 29 28  1  0  0  0  0
 30 32  1  0  0  0  0
 30 29  1  0  0  0  0
 31 30  2  0  0  0  0
M  END
>  <MODEL>
5

>  <REMARK>
 VINA RESULT:      -6.8      3.071      4.577
  Name = 
  8 active torsions:
  status: ('A' for Active; 'I' for Inactive)
    1  A    between atoms: C_1  and  C_10
    2  A    between atoms: C_2  and  C_19
    3  A    between atoms: C_2  and  C_24
    4  A    between atoms: C_10  and  C_24
    5  A    between atoms: O_12  and  C_19
    6  A    between atoms: O_12  and  C_21
    7  A    between atoms: C_13  and  C_15
    8  A    between atoms: C_25  and  N_26
                            x       y       z     vdW  Elec       q    Type
                         _______ _______ _______ _____ _____    ______ ____

>  <TORSDO>
F 8

$$$$
=
 OpenBabel11052421433D

 32 34  0  0  1  0  0  0  0  0999 V2000
  192.3040  176.6040  145.5760 O   0  0  0  0  0  0  0  0  0  0  0  0
  194.2890  175.3960  145.0940 C   0  0  0  0  0  0  0  0  0  0  0  0
  194.9400  175.8590  143.8590 C   0  0  0  0  0  0  0  0  0  0  0  0
  190.0550  177.1580  146.1240 C   0  0  1  0  0  3  0  0  0  0  0  0
  189.2230  175.6270  144.3100 C   0  0  0  0  0  2  0  0  0  0  0  0
  196.1280  176.7540  141.4880 C   0  0  0  0  0  3  0  0  0  0  0  0
  189.3230  174.1210  144.4610 C   0  0  0  0  0  2  0  0  0  0  0  0
  190.2440  173.5240  143.3930 C   0  0  1  0  0  3  0  0  0  0  0  0
  192.1270  174.9720  143.8410 C   0  0  2  0  0  3  0  0  0  0  0  0
  196.8430  176.8010  142.6930 C   0  0  0  0  0  3  0  0  0  0  0  0
  188.8920  176.2720  145.6500 C   0  0  2  0  0  3  0  0  0  0  0  0
  196.2500  176.3530  143.8770 C   0  0  0  0  0  3  0  0  0  0  0  0
  189.6710  177.8970  147.2430 O   0  0  0  0  0  1  0  0  0  0  0  0
  191.6530  173.5730  143.8550 N   0  0  0  0  0  0  0  0  0  0  0  0
  192.8730  175.3510  142.6310 N   0  0  0  0  0  2  0  0  0  0  0  0
  191.2760  176.3220  146.4800 C   0  0  0  0  0  2  0  0  0  0  0  0
  194.9750  175.1090  146.1130 O   0  0  0  0  0  0  0  0  0  0  0  0
  194.8190  176.2670  141.4700 C   0  0  0  0  0  3  0  0  0  0  0  0
  192.7900  175.3610  145.1710 C   0  0  2  0  0  3  0  0  0  0  0  0
  194.2240  175.8200  142.6530 C   0  0  0  0  0  0  0  0  0  0  0  0
  189.3560  171.9740  141.7970 O   0  0  0  0  0  1  0  0  0  0  0  0
  189.7630  172.0960  143.1260 C   0  0  0  0  0  2  0  0  0  0  0  0
  193.4540  171.8340  144.1500 C   0  0  0  0  0  1  0  0  0  0  0  0
  192.5820  172.6370  143.1840 C   0  0  0  0  0  2  0  0  0  0  0  0
  187.7350  177.0470  145.5040 O   0  0  0  0  0  0  0  0  0  0  0  0
  187.8550  177.6490  144.2470 C   0  0  0  0  0  2  0  0  0  0  0  0
  186.4760  177.9520  143.6980 C   0  0  0  0  0  2  0  0  0  0  0  0
  185.9910  179.2950  144.2180 C   0  0  0  0  0  2  0  0  0  0  0  0
  184.6240  179.1600  144.8710 C   0  0  0  0  0  2  0  0  0  0  0  0
  184.7470  178.7320  146.2890 C   0  0  0  0  0  0  0  0  0  0  0  0
  185.6850  179.3330  147.1140 O   0  0  0  0  0  1  0  0  0  0  0  0
  184.0100  177.8150  146.7350 O   0  0  0  0  0  0  0  0  0  0  0  0
  1 16  1  0  0  0  0
  2 17  2  0  0  0  0
  3 12  1  0  0  0  0
  3  2  1  0  0  0  0
  4 16  1  0  0  0  0
  4 13  1  1  0  0  0
  5  7  1  0  0  0  0
  5 11  1  0  0  0  0
  6 10  1  0  0  0  0
  8 22  1  1  0  0  0
  8 14  1  0  0  0  0
  8  7  1  0  0  0  0
  9 15  1  6  0  0  0
  9 14  1  0  0  0  0
  9 19  1  0  0  0  0
 10 12  2  0  0  0  0
 11 25  1  6  0  0  0
 11  4  1  0  0  0  0
 15 20  1  0  0  0  0
 18  6  2  0  0  0  0
 18 20  1  0  0  0  0
 19  2  1  6  0  0  0
 19  1  1  0  0  0  0
 20  3  2  0  0  0  0
 21 22  1  0  0  0  0
 24 14  1  0  0  0  0
 24 23  1  0  0  0  0
 26 25  1  0  0  0  0
 27 28  1  0  0  0  0
 27 26  1  0  0  0  0
 28 29  1  0  0  0  0
 29 30  1  0  0  0  0
 30 32  2  0  0  0  0
 30 31  1  0  0  0  0
M  END
>  <MODEL>
6

>  <REMARK>
 VINA RESULT:      -6.8      3.014      4.266
  Name = 
  8 active torsions:
  status: ('A' for Active; 'I' for Inactive)
    1  A    between atoms: C_1  and  C_10
    2  A    between atoms: C_2  and  C_19
    3  A    between atoms: C_2  and  C_24
    4  A    between atoms: C_10  and  C_24
    5  A    between atoms: O_12  and  C_19
    6  A    between atoms: O_12  and  C_21
    7  A    between atoms: C_13  and  C_15
    8  A    between atoms: C_25  and  N_26
                            x       y       z     vdW  Elec       q    Type
                         _______ _______ _______ _____ _____    ______ ____

>  <TORSDO>
F 8

$$$$
=
 OpenBabel11052421433D

 32 34  0  0  1  0  0  0  0  0999 V2000
  189.5330  173.3150  144.2930 O   0  0  0  0  0  0  0  0  0  0  0  0
  189.3840  174.7910  146.1460 C   0  0  0  0  0  0  0  0  0  0  0  0
  188.5420  175.9630  145.8620 C   0  0  0  0  0  0  0  0  0  0  0  0
  190.3750  171.8970  142.5770 C   0  0  1  0  0  3  0  0  0  0  0  0
  191.9630  173.7050  141.8440 C   0  0  0  0  0  2  0  0  0  0  0  0
  186.9540  178.1900  145.2670 C   0  0  0  0  0  3  0  0  0  0  0  0
  193.1630  174.0740  142.6960 C   0  0  0  0  0  2  0  0  0  0  0  0
  193.0580  175.5200  143.1910 C   0  0  1  0  0  3  0  0  0  0  0  0
  190.8450  175.3070  144.1400 C   0  0  2  0  0  3  0  0  0  0  0  0
  186.6100  177.3470  146.3320 C   0  0  0  0  0  3  0  0  0  0  0  0
  191.7200  172.2020  141.8980 C   0  0  2  0  0  3  0  0  0  0  0  0
  187.4040  176.2340  146.6300 C   0  0  0  0  0  3  0  0  0  0  0  0
  190.0660  170.5430  142.4460 O   0  0  0  0  0  1  0  0  0  0  0  0
  192.2660  175.5700  144.4440 N   0  0  0  0  0  0  0  0  0  0  0  0
  190.0210  176.5140  143.9780 N   0  0  0  0  0  2  0  0  0  0  0  0
  190.4100  172.2530  144.0560 C   0  0  0  0  0  2  0  0  0  0  0  0
  189.3170  174.2070  147.2620 O   0  0  0  0  0  0  0  0  0  0  0  0
  188.0870  177.9160  144.4950 C   0  0  0  0  0  3  0  0  0  0  0  0
  190.2560  174.2270  145.0620 C   0  0  2  0  0  3  0  0  0  0  0  0
  188.8800  176.8040  144.7910 C   0  0  0  0  0  0  0  0  0  0  0  0
  195.3000  175.0220  143.8730 O   0  0  0  0  0  1  0  0  0  0  0  0
  194.4840  176.0400  143.3760 C   0  0  0  0  0  2  0  0  0  0  0  0
  192.7400  176.4580  146.7550 C   0  0  0  0  0  1  0  0  0  0  0  0
  192.4670  176.7720  145.2840 C   0  0  0  0  0  2  0  0  0  0  0  0
  191.7140  171.6990  140.5910 O   0  0  0  0  0  0  0  0  0  0  0  0
  191.1290  172.7050  139.8150 C   0  0  0  0  0  2  0  0  0  0  0  0
  189.9950  172.1180  138.9990 C   0  0  0  0  0  2  0  0  0  0  0  0
  188.6640  172.6640  139.4860 C   0  0  0  0  0  2  0  0  0  0  0  0
  188.7020  174.1820  139.5780 C   0  0  0  0  0  2  0  0  0  0  0  0
  188.1920  174.6530  140.8920 C   0  0  0  0  0  0  0  0  0  0  0  0
  188.1920  176.0070  141.1890 O   0  0  0  0  0  0  0  0  0  0  0  0
  187.7750  173.8220  141.7400 O   0  0  0  0  0  1  0  0  0  0  0  0
  2 17  2  0  0  0  0
  3  2  1  0  0  0  0
  3 12  1  0  0  0  0
  4 13  1  1  0  0  0
  4 16  1  0  0  0  0
  5 11  1  0  0  0  0
  5  7  1  0  0  0  0
  6 10  1  0  0  0  0
  7  8  1  0  0  0  0
  8 22  1  1  0  0  0
  8 14  1  0  0  0  0
  9 15  1  1  0  0  0
  9 14  1  0  0  0  0
  9 19  1  0  0  0  0
 10 12  2  0  0  0  0
 11 25  1  6  0  0  0
 11  4  1  0  0  0  0
 14 24  1  0  0  0  0
 15 20  1  0  0  0  0
 16  1  1  0  0  0  0
 18 20  1  0  0  0  0
 18  6  2  0  0  0  0
 19  1  1  6  0  0  0
 19  2  1  0  0  0  0
 20  3  2  0  0  0  0
 22 21  1  0  0  0  0
 24 23  1  0  0  0  0
 26 25  1  0  0  0  0
 27 28  1  0  0  0  0
 27 26  1  0  0  0  0
 28 29  1  0  0  0  0
 29 30  1  0  0  0  0
 30 31  2  0  0  0  0
 30 32  1  0  0  0  0
M  END
>  <MODEL>
7

>  <REMARK>
 VINA RESULT:      -6.4      3.716      6.550
  Name = 
  8 active torsions:
  status: ('A' for Active; 'I' for Inactive)
    1  A    between atoms: C_1  and  C_10
    2  A    between atoms: C_2  and  C_19
    3  A    between atoms: C_2  and  C_24
    4  A    between atoms: C_10  and  C_24
    5  A    between atoms: O_12  and  C_19
    6  A    between atoms: O_12  and  C_21
    7  A    between atoms: C_13  and  C_15
    8  A    between atoms: C_25  and  N_26
                            x       y       z     vdW  Elec       q    Type
                         _______ _______ _______ _____ _____    ______ ____

>  <TORSDO>
F 8

$$$$
=
 OpenBabel11052421433D

 32 34  0  0  1  0  0  0  0  0999 V2000
  192.7590  175.5970  145.5100 O   0  0  0  0  0  0  0  0  0  0  0  0
  194.1170  174.2810  144.0760 C   0  0  0  0  0  0  0  0  0  0  0  0
  194.9290  175.1020  143.1650 C   0  0  0  0  0  0  0  0  0  0  0  0
  190.8980  176.4730  146.7090 C   0  0  1  0  0  3  0  0  0  0  0  0
  189.5750  176.6160  144.5740 C   0  0  0  0  0  2  0  0  0  0  0  0
  196.4330  176.7050  141.4320 C   0  0  0  0  0  3  0  0  0  0  0  0
  189.0680  175.3610  143.8900 C   0  0  0  0  0  2  0  0  0  0  0  0
  189.7060  175.1960  142.5080 C   0  0  1  0  0  3  0  0  0  0  0  0
  191.9960  175.3990  143.2550 C   0  0  2  0  0  3  0  0  0  0  0  0
  197.0780  175.8220  142.3080 C   0  0  0  0  0  3  0  0  0  0  0  0
  189.4920  176.4640  146.0880 C   0  0  2  0  0  3  0  0  0  0  0  0
  196.3270  175.0200  143.1740 C   0  0  0  0  0  3  0  0  0  0  0  0
  190.8090  176.5330  148.0990 O   0  0  0  0  0  1  0  0  0  0  0  0
  191.0080  174.4960  142.6300 N   0  0  0  0  0  0  0  0  0  0  0  0
  192.8610  176.1100  142.3010 N   0  0  0  0  0  2  0  0  0  0  0  0
  191.6810  175.2260  146.3190 C   0  0  0  0  0  2  0  0  0  0  0  0
  194.6090  173.2600  144.6300 O   0  0  0  0  0  0  0  0  0  0  0  0
  195.0390  176.7920  141.4260 C   0  0  0  0  0  3  0  0  0  0  0  0
  192.7250  174.7210  144.4250 C   0  0  2  0  0  3  0  0  0  0  0  0
  194.2870  175.9930  142.2910 C   0  0  0  0  0  0  0  0  0  0  0  0
  187.4620  174.3930  142.2650 O   0  0  0  0  0  1  0  0  0  0  0  0
  188.7080  174.4320  141.6360 C   0  0  0  0  0  2  0  0  0  0  0  0
  191.9900  172.4130  141.6030 C   0  0  0  0  0  1  0  0  0  0  0  0
  191.5090  173.8500  141.3960 C   0  0  0  0  0  2  0  0  0  0  0  0
  188.7390  177.5240  146.6080 O   0  0  0  0  0  0  0  0  0  0  0  0
  187.4870  176.9740  146.9010 C   0  0  0  0  0  2  0  0  0  0  0  0
  186.4620  178.0830  147.0160 C   0  0  0  0  0  2  0  0  0  0  0  0
  185.2640  177.7810  146.1310 C   0  0  0  0  0  2  0  0  0  0  0  0
  185.1790  178.7700  144.9790 C   0  0  0  0  0  2  0  0  0  0  0  0
  185.7590  178.1980  143.7360 C   0  0  0  0  0  0  0  0  0  0  0  0
  186.3150  179.0370  142.7830 O   0  0  0  0  0  0  0  0  0  0  0  0
  185.7300  176.9550  143.5430 O   0  0  0  0  0  1  0  0  0  0  0  0
  1 16  1  0  0  0  0
  2 17  2  0  0  0  0
  3 12  1  0  0  0  0
  3  2  1  0  0  0  0
  4 13  1  1  0  0  0
  5 11  1  0  0  0  0
  6 10  1  0  0  0  0
  7  5  1  0  0  0  0
  8 22  1  6  0  0  0
  8 14  1  0  0  0  0
  8  7  1  0  0  0  0
  9 15  1  6  0  0  0
  9 19  1  0  0  0  0
 10 12  2  0  0  0  0
 11 25  1  1  0  0  0
 11  4  1  0  0  0  0
 14  9  1  0  0  0  0
 16  4  1  0  0  0  0
 18  6  2  0  0  0  0
 18 20  1  0  0  0  0
 19  2  1  6  0  0  0
 19  1  1  0  0  0  0
 20 15  1  0  0  0  0
 20  3  2  0  0  0  0
 22 21  1  0  0  0  0
 24 23  1  0  0  0  0
 24 14  1  0  0  0  0
 25 26  1  0  0  0  0
 26 27  1  0  0  0  0
 28 27  1  0  0  0  0
 29 28  1  0  0  0  0
 30 29  1  0  0  0  0
 31 30  2  0  0  0  0
 32 30  1  0  0  0  0
M  END
>  <MODEL>
8

>  <REMARK>
 VINA RESULT:      -6.4      2.843      4.567
  Name = 
  8 active torsions:
  status: ('A' for Active; 'I' for Inactive)
    1  A    between atoms: C_1  and  C_10
    2  A    between atoms: C_2  and  C_19
    3  A    between atoms: C_2  and  C_24
    4  A    between atoms: C_10  and  C_24
    5  A    between atoms: O_12  and  C_19
    6  A    between atoms: O_12  and  C_21
    7  A    between atoms: C_13  and  C_15
    8  A    between atoms: C_25  and  N_26
                            x       y       z     vdW  Elec       q    Type
                         _______ _______ _______ _____ _____    ______ ____

>  <TORSDO>
F 8

$$$$
=
 OpenBabel11052421433D

 32 34  0  0  1  0  0  0  0  0999 V2000
  189.9490  174.5260  142.3970 O   0  0  0  0  0  0  0  0  0  0  0  0
  192.1760  173.8500  141.9340 C   0  0  0  0  0  0  0  0  0  0  0  0
  192.4020  172.4260  142.2310 C   0  0  0  0  0  0  0  0  0  0  0  0
  188.0570  175.7200  143.2090 C   0  0  1  0  0  3  0  0  0  0  0  0
  189.0050  175.6620  145.5390 C   0  0  0  0  0  2  0  0  0  0  0  0
  192.7910  169.7220  142.8380 C   0  0  0  0  0  3  0  0  0  0  0  0
  190.2110  176.5060  145.9060 C   0  0  0  0  0  2  0  0  0  0  0  0
  191.3990  175.6210  146.2950 C   0  0  1  0  0  3  0  0  0  0  0  0
  191.3650  174.2540  144.3010 C   0  0  2  0  0  3  0  0  0  0  0  0
  193.0140  170.1880  141.5350 C   0  0  0  0  0  3  0  0  0  0  0  0
  188.1010  176.4220  144.5760 C   0  0  2  0  0  3  0  0  0  0  0  0
  192.8200  171.5400  141.2320 C   0  0  0  0  0  3  0  0  0  0  0  0
  187.0810  176.3040  142.4010 O   0  0  0  0  0  1  0  0  0  0  0  0
  192.1560  175.2280  145.0820 N   0  0  0  0  0  0  0  0  0  0  0  0
  191.7110  172.8470  144.5520 N   0  0  0  0  0  2  0  0  0  0  0  0
  189.4010  175.8080  142.5000 C   0  0  0  0  0  2  0  0  0  0  0  0
  192.6670  174.3750  140.8980 O   0  0  0  0  0  0  0  0  0  0  0  0
  192.3680  170.6050  143.8350 C   0  0  0  0  0  3  0  0  0  0  0  0
  191.2710  174.6550  142.8210 C   0  0  2  0  0  3  0  0  0  0  0  0
  192.1730  171.9550  143.5330 C   0  0  0  0  0  0  0  0  0  0  0  0
  191.4500  176.8800  148.3330 O   0  0  0  0  0  1  0  0  0  0  0  0
  192.2500  176.4160  147.2870 C   0  0  0  0  0  2  0  0  0  0  0  0
  194.5470  175.3570  144.2930 C   0  0  0  0  0  1  0  0  0  0  0  0
  193.5530  174.7940  145.3090 C   0  0  0  0  0  2  0  0  0  0  0  0
  186.8110  176.4820  145.1190 O   0  0  0  0  0  0  0  0  0  0  0  0
  186.9900  176.9150  146.4370 C   0  0  0  0  0  2  0  0  0  0  0  0
  185.6390  177.1730  147.0730 C   0  0  0  0  0  2  0  0  0  0  0  0
  185.2150  178.6110  146.8310 C   0  0  0  0  0  2  0  0  0  0  0  0
  184.0590  178.6770  145.8450 C   0  0  0  0  0  2  0  0  0  0  0  0
  184.5400  178.9860  144.4740 C   0  0  0  0  0  0  0  0  0  0  0  0
  185.4050  180.0500  144.2680 O   0  0  0  0  0  1  0  0  0  0  0  0
  184.1510  178.2930  143.4990 O   0  0  0  0  0  0  0  0  0  0  0  0
  1 16  1  0  0  0  0
  1 19  1  0  0  0  0
  2  3  1  0  0  0  0
  3 20  1  0  0  0  0
  4 13  1  6  0  0  0
  4 11  1  0  0  0  0
  5  7  1  0  0  0  0
  6 18  1  0  0  0  0
  7  8  1  0  0  0  0
  8 22  1  1  0  0  0
  9 15  1  6  0  0  0
  9 14  1  0  0  0  0
 10  6  2  0  0  0  0
 11 25  1  1  0  0  0
 11  5  1  0  0  0  0
 12 10  1  0  0  0  0
 12  3  2  0  0  0  0
 14 24  1  0  0  0  0
 14  8  1  0  0  0  0
 16  4  1  0  0  0  0
 17  2  2  0  0  0  0
 19  2  1  6  0  0  0
 19  9  1  0  0  0  0
 20 18  2  0  0  0  0
 20 15  1  0  0  0  0
 22 21  1  0  0  0  0
 23 24  1  0  0  0  0
 25 26  1  0  0  0  0
 26 27  1  0  0  0  0
 28 27  1  0  0  0  0
 29 28  1  0  0  0  0
 30 29  1  0  0  0  0
 31 30  1  0  0  0  0
 32 30  2  0  0  0  0
M  END
>  <MODEL>
9

>  <REMARK>
 VINA RESULT:      -6.2      2.666      5.493
  Name = 
  8 active torsions:
  status: ('A' for Active; 'I' for Inactive)
    1  A    between atoms: C_1  and  C_10
    2  A    between atoms: C_2  and  C_19
    3  A    between atoms: C_2  and  C_24
    4  A    between atoms: C_10  and  C_24
    5  A    between atoms: O_12  and  C_19
    6  A    between atoms: O_12  and  C_21
    7  A    between atoms: C_13  and  C_15
    8  A    between atoms: C_25  and  N_26
                            x       y       z     vdW  Elec       q    Type
                         _______ _______ _______ _____ _____    ______ ____

>  <TORSDO>
F 8

$$$$
