=
 OpenBabel11052420453D

 43 49  0  0  1  0  0  0  0  0999 V2000
  185.3460  178.6720  145.6240 N   0  0  0  0  0  0  0  0  0  0  0  0
  189.5770  176.6540  143.7920 C   0  0  0  0  0  0  0  0  0  0  0  0
  191.4410  176.3390  145.8140 C   0  0  2  0  0  3  0  0  0  0  0  0
  186.9930  177.6070  144.1640 C   0  0  0  0  0  0  0  0  0  0  0  0
  185.7250  177.7230  146.6670 C   0  0  0  0  0  2  0  0  0  0  0  0
  183.9150  178.8830  145.7500 C   0  0  0  0  0  1  0  0  0  0  0  0
  187.7820  177.3020  145.2910 C   0  0  0  0  0  0  0  0  0  0  0  0
  185.5620  178.0350  144.3260 C   0  0  0  0  0  2  0  0  0  0  0  0
  187.2430  177.5510  146.6770 C   0  0  0  0  0  2  0  0  0  0  0  0
  189.9880  176.5240  146.2760 C   0  0  0  0  0  2  0  0  0  0  0  0
  189.0990  176.8510  145.1030 C   0  0  0  0  0  0  0  0  0  0  0  0
  188.7870  176.9630  142.7270 N   0  0  0  0  0  0  0  0  0  0  0  0
  191.0160  176.2320  143.5940 C   0  0  1  0  0  3  0  0  0  0  0  0
  191.4740  175.4840  144.6990 O   0  0  0  0  0  0  0  0  0  0  0  0
  187.5170  177.4180  142.8850 C   0  0  0  0  0  3  0  0  0  0  0  0
  192.3240  175.7760  146.9220 C   0  0  1  0  0  3  0  0  0  0  0  0
  191.4900  175.3880  148.1330 C   0  0  0  0  0  1  0  0  0  0  0  0
  193.0670  174.6550  146.4480 O   0  0  0  0  0  0  0  0  0  0  0  0
  194.2660  174.7650  145.7300 C   0  0  0  0  0  0  0  0  0  0  0  0
  195.0470  175.8380  145.8380 C   0  0  0  0  0  2  0  0  0  0  0  0
  194.7020  173.6390  144.8480 C   0  0  2  0  0  3  0  0  0  0  0  0
  193.7420  172.4720  144.9860 C   0  0  2  0  0  3  0  0  0  0  0  0
  195.0370  170.7270  144.0090 O   0  0  0  0  0  0  0  0  0  0  0  0
  195.0700  172.4220  145.6780 C   0  0  1  0  0  3  0  0  0  0  0  0
  193.9080  171.5370  143.8080 C   0  0  1  0  0  3  0  0  0  0  0  0
  195.8900  171.4620  144.8460 C   0  0  0  0  0  2  0  0  0  0  0  0
  192.7150  170.7120  143.6310 N   0  0  0  0  0  0  0  0  0  0  0  0
  192.8180  169.2680  143.8170 C   0  0  0  0  0  1  0  0  0  0  0  0
  191.4440  171.3220  143.3320 C   0  0  0  0  0  0  0  0  0  0  0  0
  189.4820  172.5780  144.0410 C   0  0  0  0  0  3  0  0  0  0  0  0
  189.6760  171.8510  141.7420 C   0  0  0  0  0  3  0  0  0  0  0  0
  188.9630  172.5100  142.7460 C   0  0  0  0  0  3  0  0  0  0  0  0
  190.9090  171.2610  142.0340 C   0  0  0  0  0  3  0  0  0  0  0  0
  190.7150  171.9880  144.3320 C   0  0  0  0  0  3  0  0  0  0  0  0
  191.1770  175.4050  142.3230 C   0  0  0  0  0  2  0  0  0  0  0  0
  194.8820  176.0920  141.9400 C   0  0  0  0  0  3  0  0  0  0  0  0
  195.3150  174.9230  141.3070 C   0  0  0  0  0  0  0  0  0  0  0  0
  193.0520  174.0620  141.3480 C   0  0  0  0  0  3  0  0  0  0  0  0
  193.5340  176.2460  142.2770 C   0  0  0  0  0  3  0  0  0  0  0  0
  192.6180  175.2300  141.9850 C   0  0  0  0  0  0  0  0  0  0  0  0
  194.4000  173.9080  141.0110 C   0  0  0  0  0  3  0  0  0  0  0  0
  197.2060  175.7110  139.7280 O   0  0  0  0  0  0  0  0  0  0  0  0
  197.0210  174.7290  140.8770 S   0  0  0  0  0  3  0  0  0  0  0  0
  1  6  1  0  0  0  0
  1  5  1  0  0  0  0
  2 11  1  0  0  0  0
  3 10  1  0  0  0  0
  3 16  1  1  0  0  0
  4  8  1  0  0  0  0
  4  7  1  0  0  0  0
  5  9  1  0  0  0  0
  7  9  1  0  0  0  0
  8  1  1  0  0  0  0
 11  7  2  0  0  0  0
 11 10  1  0  0  0  0
 12 15  1  0  0  0  0
 12  2  2  0  0  0  0
 13 35  1  6  0  0  0
 13  2  1  0  0  0  0
 13 14  1  0  0  0  0
 14  3  1  0  0  0  0
 15  4  2  0  0  0  0
 16 17  1  1  0  0  0
 18 16  1  0  0  0  0
 19 20  2  0  0  0  0
 19 18  1  0  0  0  0
 21 22  1  0  0  0  0
 21 24  1  0  0  0  0
 21 19  1  1  0  0  0
 22 24  1  0  0  0  0
 23 26  1  0  0  0  0
 25 23  1  0  0  0  0
 25 22  1  0  0  0  0
 26 24  1  0  0  0  0
 27 25  1  0  0  0  0
 27 28  1  0  0  0  0
 29 27  1  0  0  0  0
 29 34  1  0  0  0  0
 30 34  2  0  0  0  0
 31 33  1  0  0  0  0
 31 32  2  0  0  0  0
 32 30  1  0  0  0  0
 33 29  2  0  0  0  0
 36 39  1  0  0  0  0
 37 36  2  0  0  0  0
 38 40  1  0  0  0  0
 40 39  2  0  0  0  0
 40 35  1  0  0  0  0
 41 37  1  0  0  0  0
 41 38  2  0  0  0  0
 42 43  2  0  0  0  0
 43 37  1  0  0  0  0
M  END
>  <MODEL>
1

>  <REMARK>
 VINA RESULT:      -7.5      0.000      0.000
  Name = 
  9 active torsions:
  status: ('A' for Active; 'I' for Inactive)
    1  A    between atoms: C_1  and  C_34
    2  A    between atoms: C_1  and  C_35
    3  A    between atoms: C_2  and  O_6
    4  A    between atoms: C_2  and  C_13
    5  A    between atoms: C_3  and  C_12
    6  A    between atoms: O_6  and  C_12
    7  A    between atoms: C_11  and  N_14
    8  A    between atoms: N_14  and  C_22
    9  A    between atoms: C_19  and  S_37
                            x       y       z     vdW  Elec       q    Type
                         _______ _______ _______ _____ _____    ______ ____

>  <TORSDO>
F 9

$$$$
=
 OpenBabel11052420453D

 43 49  0  0  1  0  0  0  0  0999 V2000
  185.1120  178.6880  144.2740 N   0  0  0  0  0  0  0  0  0  0  0  0
  189.1300  175.7170  143.6730 C   0  0  0  0  0  0  0  0  0  0  0  0
  191.0040  176.2320  145.6440 C   0  0  2  0  0  3  0  0  0  0  0  0
  186.6380  176.9370  143.5090 C   0  0  0  0  0  0  0  0  0  0  0  0
  185.4360  178.3070  145.6460 C   0  0  0  0  0  2  0  0  0  0  0  0
  183.7060  179.0480  144.2600 C   0  0  0  0  0  1  0  0  0  0  0  0
  187.4240  177.1300  144.6630 C   0  0  0  0  0  0  0  0  0  0  0  0
  185.2500  177.5050  143.4260 C   0  0  0  0  0  2  0  0  0  0  0  0
  186.9350  178.0380  145.7640 C   0  0  0  0  0  2  0  0  0  0  0  0
  189.5810  176.7260  145.9390 C   0  0  0  0  0  2  0  0  0  0  0  0
  188.6970  176.5390  144.7320 C   0  0  0  0  0  0  0  0  0  0  0  0
  188.3460  175.5570  142.5720 N   0  0  0  0  0  0  0  0  0  0  0  0
  190.5260  175.1370  143.7220 C   0  0  1  0  0  3  0  0  0  0  0  0
  190.9460  174.9560  145.0560 O   0  0  0  0  0  0  0  0  0  0  0  0
  187.1190  176.1340  142.4760 C   0  0  0  0  0  3  0  0  0  0  0  0
  191.8620  176.1800  146.9040 C   0  0  1  0  0  3  0  0  0  0  0  0
  191.0910  175.5580  148.0570 C   0  0  0  0  0  1  0  0  0  0  0  0
  193.0660  175.4550  146.6600 O   0  0  0  0  0  0  0  0  0  0  0  0
  194.1750  175.9920  145.9910 C   0  0  0  0  0  0  0  0  0  0  0  0
  194.5160  177.2720  146.1250 C   0  0  0  0  0  2  0  0  0  0  0  0
  195.0190  175.1040  145.1340 C   0  0  2  0  0  3  0  0  0  0  0  0
  194.7460  173.6500  145.4690 C   0  0  2  0  0  3  0  0  0  0  0  0
  196.6290  172.6070  144.4470 O   0  0  0  0  0  0  0  0  0  0  0  0
  195.9900  174.3060  145.9860 C   0  0  1  0  0  3  0  0  0  0  0  0
  195.2390  172.7680  144.3430 C   0  0  1  0  0  3  0  0  0  0  0  0
  197.0950  173.7480  145.1180 C   0  0  0  0  0  2  0  0  0  0  0  0
  194.5710  171.4680  144.3750 N   0  0  0  0  0  0  0  0  0  0  0  0
  194.6220  170.6770  145.6010 C   0  0  0  0  0  1  0  0  0  0  0  0
  193.8290  170.9990  143.2320 C   0  0  0  0  0  0  0  0  0  0  0  0
  193.7040  170.5040  140.8510 C   0  0  0  0  0  3  0  0  0  0  0  0
  191.7750  170.1230  142.2610 C   0  0  0  0  0  3  0  0  0  0  0  0
  192.3790  170.0860  141.0020 C   0  0  0  0  0  3  0  0  0  0  0  0
  192.4970  170.5770  143.3690 C   0  0  0  0  0  3  0  0  0  0  0  0
  194.4240  170.9580  141.9590 C   0  0  0  0  0  3  0  0  0  0  0  0
  190.5940  173.8040  142.9850 C   0  0  0  0  0  2  0  0  0  0  0  0
  193.7440  174.4570  140.9840 C   0  0  0  0  0  3  0  0  0  0  0  0
  193.3430  174.0640  139.7040 C   0  0  0  0  0  0  0  0  0  0  0  0
  191.1540  173.4880  140.5650 C   0  0  0  0  0  3  0  0  0  0  0  0
  192.8490  174.3660  142.0550 C   0  0  0  0  0  3  0  0  0  0  0  0
  191.5550  173.8770  141.8470 C   0  0  0  0  0  0  0  0  0  0  0  0
  192.0480  173.5790  139.4940 C   0  0  0  0  0  3  0  0  0  0  0  0
  195.4140  175.3020  138.7730 O   0  0  0  0  0  0  0  0  0  0  0  0
  194.4740  174.1820  138.3470 S   0  0  0  0  0  3  0  0  0  0  0  0
  1  5  1  0  0  0  0
  2 13  1  0  0  0  0
  2 11  1  0  0  0  0
  3 10  1  0  0  0  0
  3 16  1  1  0  0  0
  4  7  1  0  0  0  0
  5  9  1  0  0  0  0
  6  1  1  0  0  0  0
  7 11  2  0  0  0  0
  7  9  1  0  0  0  0
  8  4  1  0  0  0  0
  8  1  1  0  0  0  0
 11 10  1  0  0  0  0
 12  2  2  0  0  0  0
 13 35  1  6  0  0  0
 13 14  1  0  0  0  0
 14  3  1  0  0  0  0
 15 12  1  0  0  0  0
 15  4  2  0  0  0  0
 16 17  1  1  0  0  0
 18 16  1  0  0  0  0
 19 20  2  0  0  0  0
 19 18  1  0  0  0  0
 21 22  1  0  0  0  0
 21 24  1  0  0  0  0
 21 19  1  1  0  0  0
 22 24  1  0  0  0  0
 23 26  1  0  0  0  0
 25 27  1  0  0  0  0
 25 23  1  0  0  0  0
 25 22  1  0  0  0  0
 26 24  1  0  0  0  0
 27 28  1  0  0  0  0
 29 33  1  0  0  0  0
 29 27  1  0  0  0  0
 30 32  2  0  0  0  0
 30 34  1  0  0  0  0
 31 33  2  0  0  0  0
 32 31  1  0  0  0  0
 34 29  2  0  0  0  0
 36 39  1  0  0  0  0
 37 36  2  0  0  0  0
 38 40  1  0  0  0  0
 40 39  2  0  0  0  0
 40 35  1  0  0  0  0
 41 37  1  0  0  0  0
 41 38  2  0  0  0  0
 43 42  2  0  0  0  0
 43 37  1  0  0  0  0
M  END
>  <MODEL>
2

>  <REMARK>
 VINA RESULT:      -7.4      1.580      2.190
  Name = 
  9 active torsions:
  status: ('A' for Active; 'I' for Inactive)
    1  A    between atoms: C_1  and  C_34
    2  A    between atoms: C_1  and  C_35
    3  A    between atoms: C_2  and  O_6
    4  A    between atoms: C_2  and  C_13
    5  A    between atoms: C_3  and  C_12
    6  A    between atoms: O_6  and  C_12
    7  A    between atoms: C_11  and  N_14
    8  A    between atoms: N_14  and  C_22
    9  A    between atoms: C_19  and  S_37
                            x       y       z     vdW  Elec       q    Type
                         _______ _______ _______ _____ _____    ______ ____

>  <TORSDO>
F 9

$$$$
=
 OpenBabel11052420453D

 43 49  0  0  1  0  0  0  0  0999 V2000
  189.9000  171.4810  136.2150 N   0  0  0  0  0  0  0  0  0  0  0  0
  188.5660  174.5430  139.9800 C   0  0  0  0  0  0  0  0  0  0  0  0
  189.6210  173.6340  142.3730 C   0  0  2  0  0  3  0  0  0  0  0  0
  189.0290  173.3660  137.5050 C   0  0  0  0  0  0  0  0  0  0  0  0
  191.1230  171.5620  137.0090 C   0  0  0  0  0  2  0  0  0  0  0  0
  190.3000  171.1220  134.8670 C   0  0  0  0  0  1  0  0  0  0  0  0
  189.7750  172.9380  138.6200 C   0  0  0  0  0  0  0  0  0  0  0  0
  189.3160  172.8190  136.1360 C   0  0  0  0  0  2  0  0  0  0  0  0
  190.7680  171.8120  138.4740 C   0  0  0  0  0  2  0  0  0  0  0  0
  190.2820  173.0760  141.1040 C   0  0  0  0  0  2  0  0  0  0  0  0
  189.5190  173.5100  139.8770 C   0  0  0  0  0  0  0  0  0  0  0  0
  187.8610  174.9280  138.8810 N   0  0  0  0  0  0  0  0  0  0  0  0
  188.2470  175.1100  141.3450 C   0  0  1  0  0  3  0  0  0  0  0  0
  189.3610  175.0050  142.2040 O   0  0  0  0  0  0  0  0  0  0  0  0
  188.0790  174.3760  137.6590 C   0  0  0  0  0  3  0  0  0  0  0  0
  190.4890  173.4220  143.6080 C   0  0  1  0  0  3  0  0  0  0  0  0
  189.7300  172.6490  144.6750 C   0  0  0  0  0  1  0  0  0  0  0  0
  191.6940  172.7420  143.2620 O   0  0  0  0  0  0  0  0  0  0  0  0
  192.4730  172.0240  144.1800 C   0  0  0  0  0  0  0  0  0  0  0  0
  192.4900  170.6930  144.1870 C   0  0  0  0  0  2  0  0  0  0  0  0
  193.3340  172.7640  145.1530 C   0  0  2  0  0  3  0  0  0  0  0  0
  193.4170  174.2280  144.7610 C   0  0  2  0  0  3  0  0  0  0  0  0
  195.2870  174.9210  146.0640 O   0  0  0  0  0  0  0  0  0  0  0  0
  194.5680  173.3160  144.4610 C   0  0  1  0  0  3  0  0  0  0  0  0
  193.8940  175.0430  145.9430 C   0  0  1  0  0  3  0  0  0  0  0  0
  195.6120  173.6810  145.4910 C   0  0  0  0  0  2  0  0  0  0  0  0
  193.5180  176.4470  145.7870 N   0  0  0  0  0  0  0  0  0  0  0  0
  194.5660  177.4620  145.7630 C   0  0  0  0  0  1  0  0  0  0  0  0
  192.1370  176.8170  145.6060 C   0  0  0  0  0  0  0  0  0  0  0  0
  190.3710  177.7890  144.2400 C   0  0  0  0  0  3  0  0  0  0  0  0
  189.8530  176.9320  146.4420 C   0  0  0  0  0  3  0  0  0  0  0  0
  189.4420  177.5400  145.2540 C   0  0  0  0  0  3  0  0  0  0  0  0
  191.1920  176.5730  146.6160 C   0  0  0  0  0  3  0  0  0  0  0  0
  191.7100  177.4300  144.4150 C   0  0  0  0  0  3  0  0  0  0  0  0
  187.8190  176.5700  141.2480 C   0  0  0  0  0  2  0  0  0  0  0  0
  186.2190  178.7390  143.9100 C   0  0  0  0  0  3  0  0  0  0  0  0
  185.7410  177.7740  144.8010 C   0  0  0  0  0  0  0  0  0  0  0  0
  186.6060  176.0230  143.3690 C   0  0  0  0  0  3  0  0  0  0  0  0
  186.8910  178.3460  142.7480 C   0  0  0  0  0  3  0  0  0  0  0  0
  187.0810  176.9880  142.4740 C   0  0  0  0  0  0  0  0  0  0  0  0
  185.9340  176.4160  144.5310 C   0  0  0  0  0  3  0  0  0  0  0  0
  183.6910  179.0410  145.7410 O   0  0  0  0  0  0  0  0  0  0  0  0
  184.8930  178.2710  146.2730 S   0  0  0  0  0  3  0  0  0  0  0  0
  1  5  1  0  0  0  0
  2 13  1  0  0  0  0
  3 16  1  1  0  0  0
  4 15  2  0  0  0  0
  4  7  1  0  0  0  0
  5  9  1  0  0  0  0
  6  1  1  0  0  0  0
  7 11  2  0  0  0  0
  8  1  1  0  0  0  0
  8  4  1  0  0  0  0
  9  7  1  0  0  0  0
 10  3  1  0  0  0  0
 11  2  1  0  0  0  0
 11 10  1  0  0  0  0
 12  2  2  0  0  0  0
 13 35  1  6  0  0  0
 13 14  1  0  0  0  0
 14  3  1  0  0  0  0
 15 12  1  0  0  0  0
 16 17  1  1  0  0  0
 18 16  1  0  0  0  0
 18 19  1  0  0  0  0
 19 20  2  0  0  0  0
 21 19  1  6  0  0  0
 22 21  1  0  0  0  0
 22 25  1  0  0  0  0
 24 22  1  0  0  0  0
 24 21  1  0  0  0  0
 24 26  1  0  0  0  0
 25 23  1  0  0  0  0
 26 23  1  0  0  0  0
 27 25  1  0  0  0  0
 28 27  1  0  0  0  0
 29 27  1  0  0  0  0
 29 33  1  0  0  0  0
 30 34  1  0  0  0  0
 30 32  2  0  0  0  0
 31 33  2  0  0  0  0
 32 31  1  0  0  0  0
 34 29  2  0  0  0  0
 35 40  1  0  0  0  0
 36 37  1  0  0  0  0
 37 43  1  0  0  0  0
 38 41  1  0  0  0  0
 39 36  2  0  0  0  0
 40 39  1  0  0  0  0
 40 38  2  0  0  0  0
 41 37  2  0  0  0  0
 42 43  2  0  0  0  0
M  END
>  <MODEL>
3

>  <REMARK>
 VINA RESULT:      -7.1      3.863      7.541
  Name = 
  9 active torsions:
  status: ('A' for Active; 'I' for Inactive)
    1  A    between atoms: C_1  and  C_34
    2  A    between atoms: C_1  and  C_35
    3  A    between atoms: C_2  and  O_6
    4  A    between atoms: C_2  and  C_13
    5  A    between atoms: C_3  and  C_12
    6  A    between atoms: O_6  and  C_12
    7  A    between atoms: C_11  and  N_14
    8  A    between atoms: N_14  and  C_22
    9  A    between atoms: C_19  and  S_37
                            x       y       z     vdW  Elec       q    Type
                         _______ _______ _______ _____ _____    ______ ____

>  <TORSDO>
F 9

$$$$
=
 OpenBabel11052420453D

 43 49  0  0  1  0  0  0  0  0999 V2000
  196.4470  175.9470  142.6650 N   0  0  0  0  0  0  0  0  0  0  0  0
  191.6850  176.0970  144.2870 C   0  0  0  0  0  0  0  0  0  0  0  0
  189.9760  175.1380  142.3310 C   0  0  2  0  0  3  0  0  0  0  0  0
  194.4540  176.1700  144.0640 C   0  0  0  0  0  0  0  0  0  0  0  0
  195.9000  174.6870  142.1680 C   0  0  0  0  0  2  0  0  0  0  0  0
  197.8840  175.7680  142.7640 C   0  0  0  0  0  1  0  0  0  0  0  0
  193.7040  175.4800  143.0920 C   0  0  0  0  0  0  0  0  0  0  0  0
  195.9550  176.1520  144.0270 C   0  0  0  0  0  2  0  0  0  0  0  0
  194.4010  174.8430  141.9160 C   0  0  0  0  0  2  0  0  0  0  0  0
  191.4540  174.7560  142.1640 C   0  0  0  0  0  2  0  0  0  0  0  0
  192.3020  175.4690  143.1870 C   0  0  0  0  0  0  0  0  0  0  0  0
  192.4410  176.7580  145.2060 N   0  0  0  0  0  0  0  0  0  0  0  0
  190.1740  176.1400  144.3510 C   0  0  1  0  0  3  0  0  0  0  0  0
  189.6130  175.0310  143.6850 O   0  0  0  0  0  0  0  0  0  0  0  0
  193.7970  176.7960  145.1230 C   0  0  0  0  0  3  0  0  0  0  0  0
  189.0620  174.2630  141.4810 C   0  0  1  0  0  3  0  0  0  0  0  0
  187.6010  174.5650  141.7730 C   0  0  0  0  0  1  0  0  0  0  0  0
  189.3420  174.4450  140.0950 O   0  0  0  0  0  0  0  0  0  0  0  0
  188.8280  173.6220  139.0830 C   0  0  0  0  0  0  0  0  0  0  0  0
  188.1770  174.1280  138.0380 C   0  0  0  0  0  2  0  0  0  0  0  0
  189.0440  172.1440  139.1550 C   0  0  2  0  0  3  0  0  0  0  0  0
  190.5060  171.8480  139.4310 C   0  0  2  0  0  3  0  0  0  0  0  0
  190.5970  169.5380  138.8540 O   0  0  0  0  0  0  0  0  0  0  0  0
  189.9680  171.6850  138.0420 C   0  0  1  0  0  3  0  0  0  0  0  0
  190.6490  170.4290  139.9370 C   0  0  1  0  0  3  0  0  0  0  0  0
  189.8480  170.1890  137.8610 C   0  0  0  0  0  2  0  0  0  0  0  0
  191.9030  170.2660  140.6700 N   0  0  0  0  0  0  0  0  0  0  0  0
  192.9930  169.5200  140.0510 C   0  0  0  0  0  1  0  0  0  0  0  0
  192.0780  170.8810  141.9620 C   0  0  0  0  0  0  0  0  0  0  0  0
  191.1430  171.7210  144.0480 C   0  0  0  0  0  3  0  0  0  0  0  0
  193.5280  171.8450  143.6640 C   0  0  0  0  0  3  0  0  0  0  0  0
  192.4210  172.0810  144.4820 C   0  0  0  0  0  3  0  0  0  0  0  0
  193.3570  171.2490  142.4120 C   0  0  0  0  0  3  0  0  0  0  0  0
  190.9720  171.1240  142.7960 C   0  0  0  0  0  3  0  0  0  0  0  0
  189.6840  176.1640  145.7950 C   0  0  0  0  0  2  0  0  0  0  0  0
  186.1920  176.9880  147.0090 C   0  0  0  0  0  3  0  0  0  0  0  0
  185.7600  177.8780  146.0210 C   0  0  0  0  0  0  0  0  0  0  0  0
  187.8920  177.6620  144.8920 C   0  0  0  0  0  3  0  0  0  0  0  0
  187.4740  176.4350  146.9380 C   0  0  0  0  0  3  0  0  0  0  0  0
  188.3270  176.7740  145.8820 C   0  0  0  0  0  0  0  0  0  0  0  0
  186.6100  178.2150  144.9630 C   0  0  0  0  0  3  0  0  0  0  0  0
  183.8660  179.0160  144.6760 O   0  0  0  0  0  0  0  0  0  0  0  0
  184.1360  178.5770  146.1090 S   0  0  0  0  0  3  0  0  0  0  0  0
  1  6  1  0  0  0  0
  1  8  1  0  0  0  0
  2 13  1  0  0  0  0
  2 12  1  0  0  0  0
  3 16  1  6  0  0  0
  3 14  1  0  0  0  0
  4 15  1  0  0  0  0
  5  1  1  0  0  0  0
  7 11  1  0  0  0  0
  7  4  2  0  0  0  0
  8  4  1  0  0  0  0
  9  5  1  0  0  0  0
  9  7  1  0  0  0  0
 10  3  1  0  0  0  0
 10 11  1  0  0  0  0
 11  2  2  0  0  0  0
 13 35  1  1  0  0  0
 14 13  1  0  0  0  0
 15 12  2  0  0  0  0
 16 17  1  6  0  0  0
 18 16  1  0  0  0  0
 19 18  1  0  0  0  0
 20 19  2  0  0  0  0
 21 19  1  6  0  0  0
 21 22  1  0  0  0  0
 22 25  1  0  0  0  0
 23 25  1  0  0  0  0
 24 21  1  0  0  0  0
 24 22  1  0  0  0  0
 25 27  1  0  0  0  0
 26 24  1  0  0  0  0
 26 23  1  0  0  0  0
 27 29  1  0  0  0  0
 28 27  1  0  0  0  0
 29 33  2  0  0  0  0
 29 34  1  0  0  0  0
 30 32  1  0  0  0  0
 31 32  2  0  0  0  0
 33 31  1  0  0  0  0
 34 30  2  0  0  0  0
 35 40  1  0  0  0  0
 37 43  1  0  0  0  0
 37 36  2  0  0  0  0
 38 41  2  0  0  0  0
 38 40  1  0  0  0  0
 39 36  1  0  0  0  0
 40 39  2  0  0  0  0
 41 37  1  0  0  0  0
 42 43  2  0  0  0  0
M  END
>  <MODEL>
4

>  <REMARK>
 VINA RESULT:      -7.0      3.661      7.743
  Name = 
  9 active torsions:
  status: ('A' for Active; 'I' for Inactive)
    1  A    between atoms: C_1  and  C_34
    2  A    between atoms: C_1  and  C_35
    3  A    between atoms: C_2  and  O_6
    4  A    between atoms: C_2  and  C_13
    5  A    between atoms: C_3  and  C_12
    6  A    between atoms: O_6  and  C_12
    7  A    between atoms: C_11  and  N_14
    8  A    between atoms: N_14  and  C_22
    9  A    between atoms: C_19  and  S_37
                            x       y       z     vdW  Elec       q    Type
                         _______ _______ _______ _____ _____    ______ ____

>  <TORSDO>
F 9

$$$$
=
 OpenBabel11052420453D

 43 49  0  0  1  0  0  0  0  0999 V2000
  185.9020  177.1320  146.5520 N   0  0  0  0  0  0  0  0  0  0  0  0
  190.8100  176.0250  146.6640 C   0  0  0  0  0  0  0  0  0  0  0  0
  191.3020  173.7050  145.2370 C   0  0  2  0  0  3  0  0  0  0  0  0
  188.3210  177.2400  146.8910 C   0  0  0  0  0  0  0  0  0  0  0  0
  186.1600  176.6840  145.1860 C   0  0  0  0  0  2  0  0  0  0  0  0
  184.7290  177.9840  146.4980 C   0  0  0  0  0  1  0  0  0  0  0  0
  188.4880  176.1790  145.9790 C   0  0  0  0  0  0  0  0  0  0  0  0
  187.0160  177.9790  146.9730 C   0  0  0  0  0  2  0  0  0  0  0  0
  187.3090  175.6770  145.1850 C   0  0  0  0  0  2  0  0  0  0  0  0
  189.9640  174.3960  144.9370 C   0  0  0  0  0  2  0  0  0  0  0  0
  189.7380  175.5440  145.8880 C   0  0  0  0  0  0  0  0  0  0  0  0
  190.6110  177.0500  147.5380 N   0  0  0  0  0  0  0  0  0  0  0  0
  192.1360  175.2970  146.6120 C   0  0  1  0  0  3  0  0  0  0  0  0
  192.3140  174.6730  145.3600 O   0  0  0  0  0  0  0  0  0  0  0  0
  189.4060  177.6670  147.6560 C   0  0  0  0  0  3  0  0  0  0  0  0
  191.6790  172.6990  144.1550 C   0  0  1  0  0  3  0  0  0  0  0  0
  192.6780  171.6830  144.6870 C   0  0  0  0  0  1  0  0  0  0  0  0
  190.5160  172.0420  143.6560 O   0  0  0  0  0  0  0  0  0  0  0  0
  190.3870  171.5880  142.3350 C   0  0  0  0  0  0  0  0  0  0  0  0
  190.5670  170.3080  142.0180 C   0  0  0  0  0  2  0  0  0  0  0  0
  190.0010  172.5530  141.2600 C   0  0  2  0  0  3  0  0  0  0  0  0
  189.0970  173.6290  141.8300 C   0  0  2  0  0  3  0  0  0  0  0  0
  188.1990  174.5500  139.8240 O   0  0  0  0  0  0  0  0  0  0  0  0
  188.5020  172.5160  141.0210 C   0  0  1  0  0  3  0  0  0  0  0  0
  189.0680  174.8170  140.8930 C   0  0  1  0  0  3  0  0  0  0  0  0
  188.1790  173.1520  139.6890 C   0  0  0  0  0  2  0  0  0  0  0  0
  188.6470  176.0230  141.6020 N   0  0  0  0  0  0  0  0  0  0  0  0
  187.2410  176.4130  141.5630 C   0  0  0  0  0  1  0  0  0  0  0  0
  189.5960  176.7860  142.3740 C   0  0  0  0  0  0  0  0  0  0  0  0
  190.1050  178.6520  143.8520 C   0  0  0  0  0  3  0  0  0  0  0  0
  191.8730  177.1560  143.1530 C   0  0  0  0  0  3  0  0  0  0  0  0
  191.4500  178.2740  143.8760 C   0  0  0  0  0  3  0  0  0  0  0  0
  190.9520  176.4180  142.4060 C   0  0  0  0  0  3  0  0  0  0  0  0
  189.1840  177.9130  143.1050 C   0  0  0  0  0  3  0  0  0  0  0  0
  193.2970  176.2510  146.8710 C   0  0  0  0  0  2  0  0  0  0  0  0
  196.1840  174.5310  145.1230 C   0  0  0  0  0  3  0  0  0  0  0  0
  196.5610  175.5030  144.1910 C   0  0  0  0  0  0  0  0  0  0  0  0
  194.8010  176.9580  144.9970 C   0  0  0  0  0  3  0  0  0  0  0  0
  195.1160  174.7720  145.9920 C   0  0  0  0  0  3  0  0  0  0  0  0
  194.4200  175.9840  145.9270 C   0  0  0  0  0  0  0  0  0  0  0  0
  195.8690  176.7160  144.1280 C   0  0  0  0  0  3  0  0  0  0  0  0
  197.2960  174.3280  142.0080 O   0  0  0  0  0  0  0  0  0  0  0  0
  197.9150  175.1980  143.0930 S   0  0  0  0  0  3  0  0  0  0  0  0
  1  8  1  0  0  0  0
  2 12  1  0  0  0  0
  3 16  1  6  0  0  0
  3 14  1  0  0  0  0
  4  8  1  0  0  0  0
  4 15  1  0  0  0  0
  5  1  1  0  0  0  0
  6  1  1  0  0  0  0
  7  4  2  0  0  0  0
  9  5  1  0  0  0  0
  9  7  1  0  0  0  0
 10  3  1  0  0  0  0
 10 11  1  0  0  0  0
 11  7  1  0  0  0  0
 11  2  2  0  0  0  0
 12 15  2  0  0  0  0
 13  2  1  0  0  0  0
 13 35  1  6  0  0  0
 14 13  1  0  0  0  0
 16 17  1  1  0  0  0
 18 16  1  0  0  0  0
 19 18  1  0  0  0  0
 20 19  2  0  0  0  0
 21 22  1  0  0  0  0
 21 19  1  1  0  0  0
 23 25  1  0  0  0  0
 24 21  1  0  0  0  0
 24 22  1  0  0  0  0
 25 27  1  0  0  0  0
 25 22  1  0  0  0  0
 26 23  1  0  0  0  0
 26 24  1  0  0  0  0
 27 29  1  0  0  0  0
 28 27  1  0  0  0  0
 29 33  2  0  0  0  0
 29 34  1  0  0  0  0
 30 32  1  0  0  0  0
 31 32  2  0  0  0  0
 33 31  1  0  0  0  0
 34 30  2  0  0  0  0
 36 39  1  0  0  0  0
 37 36  2  0  0  0  0
 38 40  1  0  0  0  0
 40 39  2  0  0  0  0
 40 35  1  0  0  0  0
 41 37  1  0  0  0  0
 41 38  2  0  0  0  0
 42 43  2  0  0  0  0
 43 37  1  0  0  0  0
M  END
>  <MODEL>
5

>  <REMARK>
 VINA RESULT:      -7.0      2.229      5.137
  Name = 
  9 active torsions:
  status: ('A' for Active; 'I' for Inactive)
    1  A    between atoms: C_1  and  C_34
    2  A    between atoms: C_1  and  C_35
    3  A    between atoms: C_2  and  O_6
    4  A    between atoms: C_2  and  C_13
    5  A    between atoms: C_3  and  C_12
    6  A    between atoms: O_6  and  C_12
    7  A    between atoms: C_11  and  N_14
    8  A    between atoms: N_14  and  C_22
    9  A    between atoms: C_19  and  S_37
                            x       y       z     vdW  Elec       q    Type
                         _______ _______ _______ _____ _____    ______ ____

>  <TORSDO>
F 9

$$$$
=
 OpenBabel11052420453D

 43 49  0  0  1  0  0  0  0  0999 V2000
  185.3390  177.7610  145.0720 N   0  0  0  0  0  0  0  0  0  0  0  0
  189.7950  175.9390  143.6030 C   0  0  0  0  0  0  0  0  0  0  0  0
  189.4370  173.9020  141.7630 C   0  0  2  0  0  3  0  0  0  0  0  0
  187.7360  177.4400  144.7150 C   0  0  0  0  0  0  0  0  0  0  0  0
  185.1460  177.5610  143.6390 C   0  0  0  0  0  2  0  0  0  0  0  0
  184.3830  178.7710  145.4860 C   0  0  0  0  0  1  0  0  0  0  0  0
  187.4520  176.5680  143.6450 C   0  0  0  0  0  0  0  0  0  0  0  0
  186.6690  178.3330  145.2780 C   0  0  0  0  0  2  0  0  0  0  0  0
  186.0340  176.4150  143.1560 C   0  0  0  0  0  2  0  0  0  0  0  0
  188.2300  174.8300  141.9670 C   0  0  0  0  0  2  0  0  0  0  0  0
  188.4860  175.7870  143.1040 C   0  0  0  0  0  0  0  0  0  0  0  0
  190.0320  176.7870  144.6410 N   0  0  0  0  0  0  0  0  0  0  0  0
  190.8920  175.0480  143.0640 C   0  0  1  0  0  3  0  0  0  0  0  0
  190.6170  174.6660  141.7340 O   0  0  0  0  0  0  0  0  0  0  0  0
  189.0430  177.5400  145.1910 C   0  0  0  0  0  3  0  0  0  0  0  0
  189.3190  173.0870  140.4800 C   0  0  1  0  0  3  0  0  0  0  0  0
  188.5630  173.8640  139.4140 C   0  0  0  0  0  1  0  0  0  0  0  0
  190.6110  172.7140  140.0040 O   0  0  0  0  0  0  0  0  0  0  0  0
  191.3260  171.6070  140.4820 C   0  0  0  0  0  0  0  0  0  0  0  0
  190.7130  170.5940  141.0910 C   0  0  0  0  0  2  0  0  0  0  0  0
  192.8050  171.5400  140.2740 C   0  0  2  0  0  3  0  0  0  0  0  0
  193.3080  172.8540  139.7090 C   0  0  2  0  0  3  0  0  0  0  0  0
  195.4620  172.1960  138.9310 O   0  0  0  0  0  0  0  0  0  0  0  0
  193.1440  171.6740  138.8010 C   0  0  1  0  0  3  0  0  0  0  0  0
  194.8040  172.9540  139.9110 C   0  0  1  0  0  3  0  0  0  0  0  0
  194.5550  171.1930  138.5530 C   0  0  0  0  0  2  0  0  0  0  0  0
  195.2410  174.3480  139.8560 N   0  0  0  0  0  0  0  0  0  0  0  0
  194.8510  175.1660  138.7110 C   0  0  0  0  0  1  0  0  0  0  0  0
  195.9970  174.9200  140.9400 C   0  0  0  0  0  0  0  0  0  0  0  0
  196.4870  176.7910  142.4200 C   0  0  0  0  0  3  0  0  0  0  0  0
  197.7300  174.7280  142.6400 C   0  0  0  0  0  3  0  0  0  0  0  0
  197.4760  176.0370  143.0550 C   0  0  0  0  0  3  0  0  0  0  0  0
  196.9950  174.1740  141.5880 C   0  0  0  0  0  3  0  0  0  0  0  0
  195.7520  176.2370  141.3680 C   0  0  0  0  0  3  0  0  0  0  0  0
  192.2460  175.7480  143.1190 C   0  0  0  0  0  2  0  0  0  0  0  0
  195.0090  174.5510  145.4170 C   0  0  0  0  0  3  0  0  0  0  0  0
  195.2180  173.2520  144.9420 C   0  0  0  0  0  0  0  0  0  0  0  0
  193.4790  173.5750  143.2880 C   0  0  0  0  0  3  0  0  0  0  0  0
  194.0350  175.3620  144.8260 C   0  0  0  0  0  3  0  0  0  0  0  0
  193.2660  174.8740  143.7640 C   0  0  0  0  0  0  0  0  0  0  0  0
  194.4530  172.7640  143.8780 C   0  0  0  0  0  3  0  0  0  0  0  0
  197.2220  173.1950  146.5760 O   0  0  0  0  0  0  0  0  0  0  0  0
  196.4530  172.2260  145.6880 S   0  0  0  0  0  3  0  0  0  0  0  0
  1  8  1  0  0  0  0
  1  6  1  0  0  0  0
  2 12  1  0  0  0  0
  3 16  1  6  0  0  0
  3 10  1  0  0  0  0
  4 15  1  0  0  0  0
  4  8  1  0  0  0  0
  5  1  1  0  0  0  0
  7  4  2  0  0  0  0
  9  5  1  0  0  0  0
  9  7  1  0  0  0  0
 10 11  1  0  0  0  0
 11  2  2  0  0  0  0
 11  7  1  0  0  0  0
 12 15  2  0  0  0  0
 13 35  1  6  0  0  0
 13  2  1  0  0  0  0
 14  3  1  0  0  0  0
 14 13  1  0  0  0  0
 16 17  1  6  0  0  0
 18 16  1  0  0  0  0
 18 19  1  0  0  0  0
 19 20  2  0  0  0  0
 21 19  1  6  0  0  0
 22 25  1  0  0  0  0
 22 21  1  0  0  0  0
 23 25  1  0  0  0  0
 24 22  1  0  0  0  0
 24 21  1  0  0  0  0
 26 24  1  0  0  0  0
 26 23  1  0  0  0  0
 27 25  1  0  0  0  0
 27 29  1  0  0  0  0
 28 27  1  0  0  0  0
 29 34  2  0  0  0  0
 29 33  1  0  0  0  0
 30 32  2  0  0  0  0
 31 32  1  0  0  0  0
 33 31  2  0  0  0  0
 34 30  1  0  0  0  0
 35 40  1  0  0  0  0
 37 36  1  0  0  0  0
 37 43  1  0  0  0  0
 38 40  2  0  0  0  0
 38 41  1  0  0  0  0
 39 36  2  0  0  0  0
 40 39  1  0  0  0  0
 41 37  2  0  0  0  0
 43 42  2  0  0  0  0
M  END
>  <MODEL>
6

>  <REMARK>
 VINA RESULT:      -6.9      2.490      5.341
  Name = 
  9 active torsions:
  status: ('A' for Active; 'I' for Inactive)
    1  A    between atoms: C_1  and  C_34
    2  A    between atoms: C_1  and  C_35
    3  A    between atoms: C_2  and  O_6
    4  A    between atoms: C_2  and  C_13
    5  A    between atoms: C_3  and  C_12
    6  A    between atoms: O_6  and  C_12
    7  A    between atoms: C_11  and  N_14
    8  A    between atoms: N_14  and  C_22
    9  A    between atoms: C_19  and  S_37
                            x       y       z     vdW  Elec       q    Type
                         _______ _______ _______ _____ _____    ______ ____

>  <TORSDO>
F 9

$$$$
=
 OpenBabel11052420453D

 43 49  0  0  1  0  0  0  0  0999 V2000
  192.7930  171.5530  139.0520 N   0  0  0  0  0  0  0  0  0  0  0  0
  189.5660  174.7230  141.2580 C   0  0  0  0  0  0  0  0  0  0  0  0
  190.7280  175.8720  143.4920 C   0  0  2  0  0  3  0  0  0  0  0  0
  190.8600  172.9720  139.5310 C   0  0  0  0  0  0  0  0  0  0  0  0
  193.6510  172.6750  139.4230 C   0  0  0  0  0  2  0  0  0  0  0  0
  193.4500  170.8710  137.9530 C   0  0  0  0  0  1  0  0  0  0  0  0
  191.6090  173.6460  140.5160 C   0  0  0  0  0  0  0  0  0  0  0  0
  191.5410  172.0910  138.5230 C   0  0  0  0  0  2  0  0  0  0  0  0
  193.0840  173.3660  140.6620 C   0  0  0  0  0  2  0  0  0  0  0  0
  191.7040  175.2400  142.4890 C   0  0  0  0  0  2  0  0  0  0  0  0
  190.9500  174.5060  141.4100 C   0  0  0  0  0  0  0  0  0  0  0  0
  188.8740  174.0520  140.2970 N   0  0  0  0  0  0  0  0  0  0  0  0
  188.8490  175.5990  142.2620 C   0  0  1  0  0  3  0  0  0  0  0  0
  189.7240  176.5670  142.7960 O   0  0  0  0  0  0  0  0  0  0  0  0
  189.4880  173.2010  139.4340 C   0  0  0  0  0  3  0  0  0  0  0  0
  191.4350  176.8170  144.4570 C   0  0  1  0  0  3  0  0  0  0  0  0
  190.4290  177.5410  145.3380 C   0  0  0  0  0  1  0  0  0  0  0  0
  192.3760  176.1040  145.2570 O   0  0  0  0  0  0  0  0  0  0  0  0
  193.7650  176.2660  145.1520 C   0  0  0  0  0  0  0  0  0  0  0  0
  194.3660  177.3890  145.5390 C   0  0  0  0  0  2  0  0  0  0  0  0
  194.6000  175.1410  144.6290 C   0  0  2  0  0  3  0  0  0  0  0  0
  194.1070  173.8240  145.1970 C   0  0  2  0  0  3  0  0  0  0  0  0
  195.9670  172.4170  144.7050 O   0  0  0  0  0  0  0  0  0  0  0  0
  195.3430  174.4560  145.7620 C   0  0  1  0  0  3  0  0  0  0  0  0
  194.6330  172.6800  144.3570 C   0  0  1  0  0  3  0  0  0  0  0  0
  196.4770  173.6260  145.2030 C   0  0  0  0  0  2  0  0  0  0  0  0
  193.8130  171.4850  144.5400 N   0  0  0  0  0  0  0  0  0  0  0  0
  194.2850  170.4330  145.4350 C   0  0  0  0  0  1  0  0  0  0  0  0
  192.5320  171.3710  143.8890 C   0  0  0  0  0  0  0  0  0  0  0  0
  190.1820  171.9880  143.7250 C   0  0  0  0  0  3  0  0  0  0  0  0
  191.1250  170.4180  142.1450 C   0  0  0  0  0  3  0  0  0  0  0  0
  190.0330  171.1470  142.6200 C   0  0  0  0  0  3  0  0  0  0  0  0
  192.3670  170.5290  142.7770 C   0  0  0  0  0  3  0  0  0  0  0  0
  191.4240  172.0990  144.3560 C   0  0  0  0  0  3  0  0  0  0  0  0
  187.6500  176.2960  141.6270 C   0  0  0  0  0  2  0  0  0  0  0  0
  185.0910  178.4930  143.3510 C   0  0  0  0  0  3  0  0  0  0  0  0
  185.1130  177.9730  144.6490 C   0  0  0  0  0  0  0  0  0  0  0  0
  186.7780  176.3500  143.9730 C   0  0  0  0  0  3  0  0  0  0  0  0
  185.9140  177.9410  142.3650 C   0  0  0  0  0  3  0  0  0  0  0  0
  186.7550  176.8670  142.6730 C   0  0  0  0  0  0  0  0  0  0  0  0
  185.9550  176.9020  144.9600 C   0  0  0  0  0  3  0  0  0  0  0  0
  184.7400  178.2320  147.1950 O   0  0  0  0  0  0  0  0  0  0  0  0
  184.0730  178.6730  145.8990 S   0  0  0  0  0  3  0  0  0  0  0  0
  1  5  1  0  0  0  0
  2 11  1  0  0  0  0
  2 13  1  0  0  0  0
  3 16  1  1  0  0  0
  4  7  1  0  0  0  0
  5  9  1  0  0  0  0
  6  1  1  0  0  0  0
  7  9  1  0  0  0  0
  7 11  2  0  0  0  0
  8  1  1  0  0  0  0
  8  4  1  0  0  0  0
 10  3  1  0  0  0  0
 11 10  1  0  0  0  0
 12  2  2  0  0  0  0
 13 35  1  6  0  0  0
 13 14  1  0  0  0  0
 14  3  1  0  0  0  0
 15  4  2  0  0  0  0
 15 12  1  0  0  0  0
 16 18  1  0  0  0  0
 16 17  1  1  0  0  0
 19 18  1  0  0  0  0
 19 20  2  0  0  0  0
 21 19  1  1  0  0  0
 21 22  1  0  0  0  0
 21 24  1  0  0  0  0
 22 24  1  0  0  0  0
 23 26  1  0  0  0  0
 25 27  1  0  0  0  0
 25 23  1  0  0  0  0
 25 22  1  0  0  0  0
 26 24  1  0  0  0  0
 27 28  1  0  0  0  0
 29 34  1  0  0  0  0
 29 27  1  0  0  0  0
 30 34  2  0  0  0  0
 31 32  2  0  0  0  0
 31 33  1  0  0  0  0
 32 30  1  0  0  0  0
 33 29  2  0  0  0  0
 35 40  1  0  0  0  0
 36 37  1  0  0  0  0
 37 41  2  0  0  0  0
 37 43  1  0  0  0  0
 38 41  1  0  0  0  0
 39 40  1  0  0  0  0
 39 36  2  0  0  0  0
 40 38  2  0  0  0  0
 43 42  2  0  0  0  0
M  END
>  <MODEL>
7

>  <REMARK>
 VINA RESULT:      -6.9      3.158      6.673
  Name = 
  9 active torsions:
  status: ('A' for Active; 'I' for Inactive)
    1  A    between atoms: C_1  and  C_34
    2  A    between atoms: C_1  and  C_35
    3  A    between atoms: C_2  and  O_6
    4  A    between atoms: C_2  and  C_13
    5  A    between atoms: C_3  and  C_12
    6  A    between atoms: O_6  and  C_12
    7  A    between atoms: C_11  and  N_14
    8  A    between atoms: N_14  and  C_22
    9  A    between atoms: C_19  and  S_37
                            x       y       z     vdW  Elec       q    Type
                         _______ _______ _______ _____ _____    ______ ____

>  <TORSDO>
F 9

$$$$
=
 OpenBabel11052420453D

 43 49  0  0  1  0  0  0  0  0999 V2000
  186.1480  177.8590  146.2180 N   0  0  0  0  0  0  0  0  0  0  0  0
  189.7560  174.5590  145.0280 C   0  0  0  0  0  0  0  0  0  0  0  0
  189.4540  173.7120  142.4090 C   0  0  2  0  0  3  0  0  0  0  0  0
  188.1590  176.4690  146.2620 C   0  0  0  0  0  0  0  0  0  0  0  0
  186.5070  178.2550  144.8590 C   0  0  0  0  0  2  0  0  0  0  0  0
  185.5660  179.0270  146.8530 C   0  0  0  0  0  1  0  0  0  0  0  0
  188.0380  176.2650  144.8730 C   0  0  0  0  0  0  0  0  0  0  0  0
  187.3790  177.5560  146.9460 C   0  0  0  0  0  2  0  0  0  0  0  0
  187.0090  177.0360  144.0860 C   0  0  0  0  0  2  0  0  0  0  0  0
  188.7210  175.0120  142.7740 C   0  0  0  0  0  2  0  0  0  0  0  0
  188.8230  175.2780  144.2540 C   0  0  0  0  0  0  0  0  0  0  0  0
  189.8420  174.7800  146.3680 N   0  0  0  0  0  0  0  0  0  0  0  0
  190.5510  173.4520  144.3720 C   0  0  1  0  0  3  0  0  0  0  0  0
  190.7310  173.7130  142.9970 O   0  0  0  0  0  0  0  0  0  0  0  0
  189.0810  175.7180  146.9900 C   0  0  0  0  0  3  0  0  0  0  0  0
  189.5810  173.5330  140.9010 C   0  0  1  0  0  3  0  0  0  0  0  0
  188.7140  174.5410  140.1630 C   0  0  0  0  0  1  0  0  0  0  0  0
  190.9430  173.6550  140.4950 O   0  0  0  0  0  0  0  0  0  0  0  0
  191.8220  172.5680  140.3900 C   0  0  0  0  0  0  0  0  0  0  0  0
  191.4260  171.3980  139.8930 C   0  0  0  0  0  2  0  0  0  0  0  0
  193.2480  172.7310  140.8090 C   0  0  2  0  0  3  0  0  0  0  0  0
  193.5750  174.2040  140.9700 C   0  0  2  0  0  3  0  0  0  0  0  0
  195.9560  174.1200  140.9940 O   0  0  0  0  0  0  0  0  0  0  0  0
  194.0360  173.4740  139.7450 C   0  0  1  0  0  3  0  0  0  0  0  0
  194.8310  174.3570  141.7990 C   0  0  1  0  0  3  0  0  0  0  0  0
  195.5170  173.2690  139.9670 C   0  0  0  0  0  2  0  0  0  0  0  0
  194.9000  175.6920  142.3900 N   0  0  0  0  0  0  0  0  0  0  0  0
  195.4700  176.7840  141.6060 C   0  0  0  0  0  1  0  0  0  0  0  0
  194.3640  175.9370  143.7050 C   0  0  0  0  0  0  0  0  0  0  0  0
  192.5910  176.7910  145.1390 C   0  0  0  0  0  3  0  0  0  0  0  0
  194.5670  175.8050  146.1280 C   0  0  0  0  0  3  0  0  0  0  0  0
  193.3190  176.4170  146.2710 C   0  0  0  0  0  3  0  0  0  0  0  0
  195.0850  175.5680  144.8520 C   0  0  0  0  0  3  0  0  0  0  0  0
  193.1100  176.5520  143.8640 C   0  0  0  0  0  3  0  0  0  0  0  0
  191.9140  173.2850  145.0360 C   0  0  0  0  0  2  0  0  0  0  0  0
  192.6300  169.9650  143.3590 C   0  0  0  0  0  3  0  0  0  0  0  0
  194.0270  169.9340  143.3950 C   0  0  0  0  0  0  0  0  0  0  0  0
  194.0480  172.0940  144.4890 C   0  0  0  0  0  3  0  0  0  0  0  0
  191.9410  171.0600  143.8880 C   0  0  0  0  0  3  0  0  0  0  0  0
  192.6490  172.1280  144.4500 C   0  0  0  0  0  0  0  0  0  0  0  0
  194.7360  170.9990  143.9600 C   0  0  0  0  0  3  0  0  0  0  0  0
  196.3560  168.8730  143.0220 O   0  0  0  0  0  0  0  0  0  0  0  0
  194.8990  168.5450  142.7270 S   0  0  0  0  0  3  0  0  0  0  0  0
  1  6  1  0  0  0  0
  1  8  1  0  0  0  0
  2 12  1  0  0  0  0
  3 16  1  6  0  0  0
  3 10  1  0  0  0  0
  3 14  1  0  0  0  0
  4  8  1  0  0  0  0
  4 15  1  0  0  0  0
  5  1  1  0  0  0  0
  7  4  2  0  0  0  0
  9  5  1  0  0  0  0
  9  7  1  0  0  0  0
 10 11  1  0  0  0  0
 11  7  1  0  0  0  0
 11  2  2  0  0  0  0
 12 15  2  0  0  0  0
 13  2  1  0  0  0  0
 13 35  1  1  0  0  0
 14 13  1  0  0  0  0
 16 17  1  6  0  0  0
 18 16  1  0  0  0  0
 19 18  1  0  0  0  0
 20 19  2  0  0  0  0
 21 19  1  6  0  0  0
 21 22  1  0  0  0  0
 22 25  1  0  0  0  0
 23 25  1  0  0  0  0
 24 26  1  0  0  0  0
 24 21  1  0  0  0  0
 24 22  1  0  0  0  0
 25 27  1  0  0  0  0
 26 23  1  0  0  0  0
 27 29  1  0  0  0  0
 28 27  1  0  0  0  0
 29 34  2  0  0  0  0
 29 33  1  0  0  0  0
 30 32  2  0  0  0  0
 31 32  1  0  0  0  0
 33 31  2  0  0  0  0
 34 30  1  0  0  0  0
 36 37  2  0  0  0  0
 36 39  1  0  0  0  0
 37 41  1  0  0  0  0
 39 40  2  0  0  0  0
 40 38  1  0  0  0  0
 40 35  1  0  0  0  0
 41 38  2  0  0  0  0
 43 42  2  0  0  0  0
 43 37  1  0  0  0  0
M  END
>  <MODEL>
8

>  <REMARK>
 VINA RESULT:      -6.8      2.240      5.178
  Name = 
  9 active torsions:
  status: ('A' for Active; 'I' for Inactive)
    1  A    between atoms: C_1  and  C_34
    2  A    between atoms: C_1  and  C_35
    3  A    between atoms: C_2  and  O_6
    4  A    between atoms: C_2  and  C_13
    5  A    between atoms: C_3  and  C_12
    6  A    between atoms: O_6  and  C_12
    7  A    between atoms: C_11  and  N_14
    8  A    between atoms: N_14  and  C_22
    9  A    between atoms: C_19  and  S_37
                            x       y       z     vdW  Elec       q    Type
                         _______ _______ _______ _____ _____    ______ ____

>  <TORSDO>
F 9

$$$$
=
 OpenBabel11052420453D

 43 49  0  0  1  0  0  0  0  0999 V2000
  193.8550  176.7040  146.0340 N   0  0  0  0  0  0  0  0  0  0  0  0
  191.6980  172.7150  143.8500 C   0  0  0  0  0  0  0  0  0  0  0  0
  189.2510  173.4240  142.7660 C   0  0  2  0  0  3  0  0  0  0  0  0
  193.4440  174.4850  145.0930 C   0  0  0  0  0  0  0  0  0  0  0  0
  193.2870  177.2750  144.8160 C   0  0  0  0  0  2  0  0  0  0  0  0
  194.9420  177.5770  146.4370 C   0  0  0  0  0  1  0  0  0  0  0  0
  192.3240  174.9930  144.4060 C   0  0  0  0  0  0  0  0  0  0  0  0
  194.4570  175.4150  145.6960 C   0  0  0  0  0  2  0  0  0  0  0  0
  192.0520  176.4760  144.4020 C   0  0  0  0  0  2  0  0  0  0  0  0
  190.2040  174.5900  143.0690 C   0  0  0  0  0  2  0  0  0  0  0  0
  191.4240  174.0970  143.8050 C   0  0  0  0  0  0  0  0  0  0  0  0
  192.7880  172.2600  144.5270 N   0  0  0  0  0  0  0  0  0  0  0  0
  190.6930  171.7510  143.2600 C   0  0  1  0  0  3  0  0  0  0  0  0
  189.9770  172.3570  142.2070 O   0  0  0  0  0  0  0  0  0  0  0  0
  193.6610  173.1080  145.1310 C   0  0  0  0  0  3  0  0  0  0  0  0
  188.1290  173.8360  141.8200 C   0  0  1  0  0  3  0  0  0  0  0  0
  187.2070  172.6610  141.5320 C   0  0  0  0  0  1  0  0  0  0  0  0
  187.3910  174.9280  142.3650 O   0  0  0  0  0  0  0  0  0  0  0  0
  187.3860  176.2160  141.8120 C   0  0  0  0  0  0  0  0  0  0  0  0
  187.4410  176.4080  140.4950 C   0  0  0  0  0  2  0  0  0  0  0  0
  187.2810  177.4040  142.7130 C   0  0  2  0  0  3  0  0  0  0  0  0
  186.8880  176.9610  144.1090 C   0  0  2  0  0  3  0  0  0  0  0  0
  186.2060  179.0420  145.0490 O   0  0  0  0  0  0  0  0  0  0  0  0
  185.8560  177.5730  143.2100 C   0  0  1  0  0  3  0  0  0  0  0  0
  187.2070  178.0600  145.1000 C   0  0  1  0  0  3  0  0  0  0  0  0
  185.6650  178.9700  143.7560 C   0  0  0  0  0  2  0  0  0  0  0  0
  187.3220  177.5180  146.4520 N   0  0  0  0  0  0  0  0  0  0  0  0
  186.1880  177.6410  147.3630 C   0  0  0  0  0  1  0  0  0  0  0  0
  188.5180  176.8250  146.8620 C   0  0  0  0  0  0  0  0  0  0  0  0
  190.8180  176.8690  147.6600 C   0  0  0  0  0  3  0  0  0  0  0  0
  189.7230  174.7480  147.2630 C   0  0  0  0  0  3  0  0  0  0  0  0
  190.8500  175.4720  147.6600 C   0  0  0  0  0  3  0  0  0  0  0  0
  188.5650  175.4220  146.8660 C   0  0  0  0  0  3  0  0  0  0  0  0
  189.6590  177.5410  147.2640 C   0  0  0  0  0  3  0  0  0  0  0  0
  191.3790  170.4900  142.7440 C   0  0  0  0  0  2  0  0  0  0  0  0
  191.0100  169.9540  139.0120 C   0  0  0  0  0  3  0  0  0  0  0  0
  192.0820  170.7040  138.5190 C   0  0  0  0  0  0  0  0  0  0  0  0
  192.6880  171.3260  140.7800 C   0  0  0  0  0  3  0  0  0  0  0  0
  190.7770  169.8900  140.3890 C   0  0  0  0  0  3  0  0  0  0  0  0
  191.6130  170.5790  141.2740 C   0  0  0  0  0  0  0  0  0  0  0  0
  192.9210  171.3900  139.4030 C   0  0  0  0  0  3  0  0  0  0  0  0
  191.3620  171.8100  136.2950 O   0  0  0  0  0  0  0  0  0  0  0  0
  192.3790  170.7830  136.7760 S   0  0  0  0  0  3  0  0  0  0  0  0
  1  6  1  0  0  0  0
  2 12  1  0  0  0  0
  3 16  1  6  0  0  0
  3 10  1  0  0  0  0
  4 15  1  0  0  0  0
  4  8  1  0  0  0  0
  5  1  1  0  0  0  0
  7  4  2  0  0  0  0
  8  1  1  0  0  0  0
  9  7  1  0  0  0  0
  9  5  1  0  0  0  0
 10 11  1  0  0  0  0
 11  2  2  0  0  0  0
 11  7  1  0  0  0  0
 12 15  2  0  0  0  0
 13 35  1  6  0  0  0
 13  2  1  0  0  0  0
 14  3  1  0  0  0  0
 14 13  1  0  0  0  0
 16 17  1  1  0  0  0
 16 18  1  0  0  0  0
 19 18  1  0  0  0  0
 20 19  2  0  0  0  0
 21 19  1  6  0  0  0
 21 24  1  0  0  0  0
 21 22  1  0  0  0  0
 22 25  1  0  0  0  0
 23 25  1  0  0  0  0
 24 26  1  0  0  0  0
 24 22  1  0  0  0  0
 25 27  1  0  0  0  0
 26 23  1  0  0  0  0
 27 29  1  0  0  0  0
 27 28  1  0  0  0  0
 29 33  2  0  0  0  0
 29 34  1  0  0  0  0
 31 32  2  0  0  0  0
 32 30  1  0  0  0  0
 33 31  1  0  0  0  0
 34 30  2  0  0  0  0
 36 39  1  0  0  0  0
 37 36  2  0  0  0  0
 37 41  1  0  0  0  0
 38 40  1  0  0  0  0
 39 40  2  0  0  0  0
 40 35  1  0  0  0  0
 41 38  2  0  0  0  0
 42 43  2  0  0  0  0
 43 37  1  0  0  0  0
M  END
>  <MODEL>
9

>  <REMARK>
 VINA RESULT:      -6.8      2.867      7.522
  Name = 
  9 active torsions:
  status: ('A' for Active; 'I' for Inactive)
    1  A    between atoms: C_1  and  C_34
    2  A    between atoms: C_1  and  C_35
    3  A    between atoms: C_2  and  O_6
    4  A    between atoms: C_2  and  C_13
    5  A    between atoms: C_3  and  C_12
    6  A    between atoms: O_6  and  C_12
    7  A    between atoms: C_11  and  N_14
    8  A    between atoms: N_14  and  C_22
    9  A    between atoms: C_19  and  S_37
                            x       y       z     vdW  Elec       q    Type
                         _______ _______ _______ _____ _____    ______ ____

>  <TORSDO>
F 9

$$$$
