=
 OpenBabel11052418313D

 27 31  0  0  0  0  0  0  0  0999 V2000
  190.2160  173.8760  143.3430 C   0  0  0  0  0  3  0  0  0  0  0  0
  189.1000  175.5980  144.7480 C   0  0  0  0  0  0  0  0  0  0  0  0
  188.1200  175.8140  142.4560 N   0  0  0  0  0  0  0  0  0  0  0  0
  185.7710  177.6370  146.3240 C   0  0  0  0  0  3  0  0  0  0  0  0
  183.6510  178.8020  146.0110 N   0  0  0  0  0  1  0  0  0  0  0  0
  188.9680  175.8180  146.1290 C   0  0  0  0  0  3  0  0  0  0  0  0
  184.8640  177.8980  144.0960 C   0  0  0  0  0  3  0  0  0  0  0  0
  188.1880  173.7680  138.2660 F   0  0  0  0  0  0  0  0  0  0  0  0
  185.9610  177.2160  143.5640 C   0  0  0  0  0  3  0  0  0  0  0  0
  188.6080  173.7860  139.5540 C   0  0  0  0  0  0  0  0  0  0  0  0
  186.9790  176.7380  144.4040 C   0  0  0  0  0  0  0  0  0  0  0  0
  190.2920  174.9720  144.2580 N   0  0  0  0  0  0  0  0  0  0  0  0
  184.7690  178.1090  145.4730 C   0  0  0  0  0  0  0  0  0  0  0  0
  186.8730  176.9540  145.7980 C   0  0  0  0  0  0  0  0  0  0  0  0
  189.5080  173.8450  142.2150 C   0  0  0  0  0  0  0  0  0  0  0  0
  188.0850  176.0350  143.8750 C   0  0  0  0  0  0  0  0  0  0  0  0
  188.2750  174.8550  140.3830 C   0  0  0  0  0  3  0  0  0  0  0  0
  187.8640  176.4860  146.6520 C   0  0  0  0  0  3  0  0  0  0  0  0
  189.3320  172.7130  140.0660 C   0  0  0  0  0  3  0  0  0  0  0  0
  189.7850  172.7510  141.3840 C   0  0  0  0  0  3  0  0  0  0  0  0
  188.6760  174.8900  141.7260 C   0  0  0  0  0  0  0  0  0  0  0  0
  194.1050  175.8660  145.9300 C   0  0  0  0  0  3  0  0  0  0  0  0
  191.5790  175.2800  144.8410 C   0  0  0  0  0  0  0  0  0  0  0  0
  192.1840  176.5280  144.6180 C   0  0  0  0  0  3  0  0  0  0  0  0
  193.4380  176.8220  145.1620 C   0  0  0  0  0  3  0  0  0  0  0  0
  193.5220  174.6160  146.1530 C   0  0  0  0  0  3  0  0  0  0  0  0
  192.2690  174.3240  145.6090 C   0  0  0  0  0  3  0  0  0  0  0  0
  1 12  1  0  0  0  0
  2  6  1  0  0  0  0
  3 16  1  0  0  0  0
  6 18  2  0  0  0  0
  7 13  1  0  0  0  0
  8 10  1  0  0  0  0
  9  7  2  0  0  0  0
  9 11  1  0  0  0  0
 10 19  1  0  0  0  0
 10 17  2  0  0  0  0
 11 14  2  0  0  0  0
 12  2  1  0  0  0  0
 12 23  1  0  0  0  0
 13  5  1  0  0  0  0
 13  4  2  0  0  0  0
 14  4  1  0  0  0  0
 14 18  1  0  0  0  0
 15  1  2  0  0  0  0
 16 11  1  0  0  0  0
 16  2  2  0  0  0  0
 17 21  1  0  0  0  0
 19 20  2  0  0  0  0
 20 15  1  0  0  0  0
 21 15  1  0  0  0  0
 21  3  2  0  0  0  0
 22 26  1  0  0  0  0
 23 27  1  0  0  0  0
 24 23  2  0  0  0  0
 24 25  1  0  0  0  0
 25 22  2  0  0  0  0
 27 26  2  0  0  0  0
M  END
>  <MODEL>
1

>  <REMARK>
 VINA RESULT:      -8.5      0.000      0.000
  Name = 
  1 active torsions:
  status: ('A' for Active; 'I' for Inactive)
    1  A    between atoms: C_9  and  N_15
                            x       y       z     vdW  Elec       q    Type
                         _______ _______ _______ _____ _____    ______ ____

>  <TORSDO>
F 1

$$$$
=
 OpenBabel11052418313D

 27 31  0  0  0  0  0  0  0  0999 V2000
  187.1830  177.8070  142.3670 C   0  0  0  0  0  3  0  0  0  0  0  0
  188.7570  177.0180  144.1220 C   0  0  0  0  0  0  0  0  0  0  0  0
  188.9300  175.3850  142.2350 N   0  0  0  0  0  0  0  0  0  0  0  0
  192.4860  175.6960  145.5600 C   0  0  0  0  0  3  0  0  0  0  0  0
  194.4220  174.2180  145.4010 N   0  0  0  0  0  1  0  0  0  0  0  0
  189.3470  177.5970  145.2590 C   0  0  0  0  0  3  0  0  0  0  0  0
  192.6130  174.0740  143.7680 C   0  0  0  0  0  3  0  0  0  0  0  0
  187.4100  174.6870  137.8820 F   0  0  0  0  0  0  0  0  0  0  0  0
  191.3800  174.5110  143.2790 C   0  0  0  0  0  3  0  0  0  0  0  0
  187.4410  175.4700  138.9860 C   0  0  0  0  0  0  0  0  0  0  0  0
  190.6810  175.5440  143.9250 C   0  0  0  0  0  0  0  0  0  0  0  0
  187.4500  177.4500  143.7240 N   0  0  0  0  0  0  0  0  0  0  0  0
  193.1660  174.6650  144.9070 C   0  0  0  0  0  0  0  0  0  0  0  0
  191.2510  176.1380  145.0770 C   0  0  0  0  0  0  0  0  0  0  0  0
  187.4750  177.0750  141.2920 C   0  0  0  0  0  0  0  0  0  0  0  0
  189.4400  176.0010  143.4280 C   0  0  0  0  0  0  0  0  0  0  0  0
  188.0660  175.0170  140.1470 C   0  0  0  0  0  3  0  0  0  0  0  0
  190.5830  177.1660  145.7310 C   0  0  0  0  0  3  0  0  0  0  0  0
  186.8930  176.7490  138.9510 C   0  0  0  0  0  3  0  0  0  0  0  0
  186.9020  177.5380  140.1000 C   0  0  0  0  0  3  0  0  0  0  0  0
  188.1330  175.8140  141.2990 C   0  0  0  0  0  0  0  0  0  0  0  0
  184.4380  178.3100  146.6100 C   0  0  0  0  0  3  0  0  0  0  0  0
  186.4400  177.7480  144.7160 C   0  0  0  0  0  0  0  0  0  0  0  0
  185.9570  176.7410  145.5680 C   0  0  0  0  0  3  0  0  0  0  0  0
  184.9650  177.0210  146.5130 C   0  0  0  0  0  3  0  0  0  0  0  0
  184.9000  179.3190  145.7630 C   0  0  0  0  0  3  0  0  0  0  0  0
  185.8920  179.0400  144.8190 C   0  0  0  0  0  3  0  0  0  0  0  0
  1 12  1  0  0  0  0
  2  6  1  0  0  0  0
  3 16  1  0  0  0  0
  6 18  2  0  0  0  0
  7 13  1  0  0  0  0
  8 10  1  0  0  0  0
  9  7  2  0  0  0  0
  9 11  1  0  0  0  0
 10 17  2  0  0  0  0
 11 14  2  0  0  0  0
 12  2  1  0  0  0  0
 12 23  1  0  0  0  0
 13  5  1  0  0  0  0
 13  4  2  0  0  0  0
 14  4  1  0  0  0  0
 14 18  1  0  0  0  0
 15 21  1  0  0  0  0
 15  1  2  0  0  0  0
 16 11  1  0  0  0  0
 16  2  2  0  0  0  0
 17 21  1  0  0  0  0
 19 10  1  0  0  0  0
 19 20  2  0  0  0  0
 20 15  1  0  0  0  0
 21  3  2  0  0  0  0
 23 27  2  0  0  0  0
 23 24  1  0  0  0  0
 24 25  2  0  0  0  0
 25 22  1  0  0  0  0
 26 22  2  0  0  0  0
 27 26  1  0  0  0  0
M  END
>  <MODEL>
2

>  <REMARK>
 VINA RESULT:      -7.9      1.816      5.964
  Name = 
  1 active torsions:
  status: ('A' for Active; 'I' for Inactive)
    1  A    between atoms: C_9  and  N_15
                            x       y       z     vdW  Elec       q    Type
                         _______ _______ _______ _____ _____    ______ ____

>  <TORSDO>
F 1

$$$$
=
 OpenBabel11052418313D

 27 31  0  0  0  0  0  0  0  0999 V2000
  191.6320  175.5040  142.7980 C   0  0  0  0  0  3  0  0  0  0  0  0
  189.1750  175.4610  143.1840 C   0  0  0  0  0  0  0  0  0  0  0  0
  190.2250  176.0180  145.3850 N   0  0  0  0  0  0  0  0  0  0  0  0
  185.5230  177.0280  144.5700 C   0  0  0  0  0  3  0  0  0  0  0  0
  184.1800  178.0420  146.3380 N   0  0  0  0  0  1  0  0  0  0  0  0
  188.0400  175.5040  142.3560 C   0  0  0  0  0  3  0  0  0  0  0  0
  186.5300  177.5020  146.7190 C   0  0  0  0  0  3  0  0  0  0  0  0
  194.3710  176.9650  147.2990 F   0  0  0  0  0  0  0  0  0  0  0  0
  187.7490  176.9910  146.2650 C   0  0  0  0  0  3  0  0  0  0  0  0
  193.6440  176.6770  146.1930 C   0  0  0  0  0  0  0  0  0  0  0  0
  187.8700  176.4890  144.9590 C   0  0  0  0  0  0  0  0  0  0  0  0
  190.3690  174.8430  142.6880 N   0  0  0  0  0  0  0  0  0  0  0  0
  185.4190  177.5200  145.8730 C   0  0  0  0  0  0  0  0  0  0  0  0
  186.7390  176.5140  144.1100 C   0  0  0  0  0  0  0  0  0  0  0  0
  192.1420  176.0410  143.9050 C   0  0  0  0  0  0  0  0  0  0  0  0
  189.1030  175.9830  144.4890 C   0  0  0  0  0  0  0  0  0  0  0  0
  192.2920  176.3570  146.3080 C   0  0  0  0  0  3  0  0  0  0  0  0
  186.8340  176.0280  142.8110 C   0  0  0  0  0  3  0  0  0  0  0  0
  194.2330  176.7470  144.9330 C   0  0  0  0  0  3  0  0  0  0  0  0
  193.4870  176.4200  143.8020 C   0  0  0  0  0  3  0  0  0  0  0  0
  191.5100  176.0760  145.1800 C   0  0  0  0  0  0  0  0  0  0  0  0
  190.2100  171.3210  140.2980 C   0  0  0  0  0  3  0  0  0  0  0  0
  190.2970  173.6500  141.8740 C   0  0  0  0  0  0  0  0  0  0  0  0
  190.1770  172.3830  142.4710 C   0  0  0  0  0  3  0  0  0  0  0  0
  190.1300  171.2260  141.6880 C   0  0  0  0  0  3  0  0  0  0  0  0
  190.3400  172.5720  139.6890 C   0  0  0  0  0  3  0  0  0  0  0  0
  190.3870  173.7280  140.4720 C   0  0  0  0  0  3  0  0  0  0  0  0
  1 15  2  0  0  0  0
  2 16  1  0  0  0  0
  4 13  2  0  0  0  0
  6 18  1  0  0  0  0
  6  2  2  0  0  0  0
  9  7  2  0  0  0  0
 10 17  2  0  0  0  0
 10  8  1  0  0  0  0
 11  9  1  0  0  0  0
 12  1  1  0  0  0  0
 12  2  1  0  0  0  0
 13  5  1  0  0  0  0
 13  7  1  0  0  0  0
 14  4  1  0  0  0  0
 14 11  1  0  0  0  0
 15 21  1  0  0  0  0
 16 11  2  0  0  0  0
 16  3  1  0  0  0  0
 18 14  2  0  0  0  0
 19 10  1  0  0  0  0
 20 15  1  0  0  0  0
 20 19  2  0  0  0  0
 21  3  2  0  0  0  0
 21 17  1  0  0  0  0
 22 25  1  0  0  0  0
 23 24  1  0  0  0  0
 23 12  1  0  0  0  0
 25 24  2  0  0  0  0
 26 22  2  0  0  0  0
 26 27  1  0  0  0  0
 27 23  2  0  0  0  0
M  END
>  <MODEL>
3

>  <REMARK>
 VINA RESULT:      -7.9      2.550      5.189
  Name = 
  1 active torsions:
  status: ('A' for Active; 'I' for Inactive)
    1  A    between atoms: C_9  and  N_15
                            x       y       z     vdW  Elec       q    Type
                         _______ _______ _______ _____ _____    ______ ____

>  <TORSDO>
F 1

$$$$
=
 OpenBabel11052418313D

 27 31  0  0  0  0  0  0  0  0999 V2000
  188.9040  176.5260  145.7760 C   0  0  0  0  0  3  0  0  0  0  0  0
  188.4390  175.7870  143.4480 C   0  0  0  0  0  0  0  0  0  0  0  0
  190.9280  175.8210  143.6920 N   0  0  0  0  0  0  0  0  0  0  0  0
  188.8370  173.2330  140.1250 C   0  0  0  0  0  3  0  0  0  0  0  0
  190.2330  172.0020  138.5470 N   0  0  0  0  0  1  0  0  0  0  0  0
  187.3110  175.2910  142.7710 C   0  0  0  0  0  3  0  0  0  0  0  0
  191.2460  173.3260  140.3300 C   0  0  0  0  0  3  0  0  0  0  0  0
  194.2580  176.4910  146.8880 F   0  0  0  0  0  0  0  0  0  0  0  0
  191.1240  174.1680  141.4380 C   0  0  0  0  0  3  0  0  0  0  0  0
  192.9400  176.4160  146.5860 C   0  0  0  0  0  0  0  0  0  0  0  0
  189.8570  174.5560  141.9030 C   0  0  0  0  0  0  0  0  0  0  0  0
  188.2480  176.7170  144.5210 N   0  0  0  0  0  0  0  0  0  0  0  0
  190.1050  172.8590  139.6740 C   0  0  0  0  0  0  0  0  0  0  0  0
  188.7070  174.0760  141.2330 C   0  0  0  0  0  0  0  0  0  0  0  0
  190.2050  176.2970  145.9530 C   0  0  0  0  0  0  0  0  0  0  0  0
  189.7260  175.3960  143.0310 C   0  0  0  0  0  0  0  0  0  0  0  0
  192.5320  176.2770  145.2610 C   0  0  0  0  0  3  0  0  0  0  0  0
  187.4410  174.4410  141.6760 C   0  0  0  0  0  3  0  0  0  0  0  0
  191.9890  176.4270  147.6040 C   0  0  0  0  0  3  0  0  0  0  0  0
  190.6330  176.3790  147.2850 C   0  0  0  0  0  3  0  0  0  0  0  0
  191.1760  176.1740  144.9210 C   0  0  0  0  0  0  0  0  0  0  0  0
  185.1970  179.6780  144.2720 C   0  0  0  0  0  3  0  0  0  0  0  0
  187.2240  177.7360  144.4380 C   0  0  0  0  0  0  0  0  0  0  0  0
  186.4590  178.0720  145.5680 C   0  0  0  0  0  3  0  0  0  0  0  0
  185.4540  179.0410  145.4870 C   0  0  0  0  0  3  0  0  0  0  0  0
  185.9410  179.3480  143.1380 C   0  0  0  0  0  3  0  0  0  0  0  0
  186.9460  178.3810  143.2190 C   0  0  0  0  0  3  0  0  0  0  0  0
  1 15  2  0  0  0  0
  2 12  1  0  0  0  0
  3 21  2  0  0  0  0
  4 14  1  0  0  0  0
  5 13  1  0  0  0  0
  6  2  2  0  0  0  0
  7  9  2  0  0  0  0
  9 11  1  0  0  0  0
 10  8  1  0  0  0  0
 10 19  1  0  0  0  0
 11 16  2  0  0  0  0
 12  1  1  0  0  0  0
 13  4  2  0  0  0  0
 13  7  1  0  0  0  0
 14 18  2  0  0  0  0
 14 11  1  0  0  0  0
 15 20  1  0  0  0  0
 16  2  1  0  0  0  0
 16  3  1  0  0  0  0
 17 10  2  0  0  0  0
 18  6  1  0  0  0  0
 20 19  2  0  0  0  0
 21 17  1  0  0  0  0
 21 15  1  0  0  0  0
 22 25  1  0  0  0  0
 23 12  1  0  0  0  0
 23 24  1  0  0  0  0
 25 24  2  0  0  0  0
 26 27  1  0  0  0  0
 26 22  2  0  0  0  0
 27 23  2  0  0  0  0
M  END
>  <MODEL>
4

>  <REMARK>
 VINA RESULT:      -7.8      2.776      6.991
  Name = 
  1 active torsions:
  status: ('A' for Active; 'I' for Inactive)
    1  A    between atoms: C_9  and  N_15
                            x       y       z     vdW  Elec       q    Type
                         _______ _______ _______ _____ _____    ______ ____

>  <TORSDO>
F 1

$$$$
=
 OpenBabel11052418313D

 27 31  0  0  0  0  0  0  0  0999 V2000
  191.1290  175.5330  143.7620 C   0  0  0  0  0  3  0  0  0  0  0  0
  188.7960  175.8180  142.9500 C   0  0  0  0  0  0  0  0  0  0  0  0
  188.7390  176.2280  145.4170 N   0  0  0  0  0  0  0  0  0  0  0  0
  185.1340  177.8570  142.5620 C   0  0  0  0  0  3  0  0  0  0  0  0
  183.2460  179.0400  143.5560 N   0  0  0  0  0  1  0  0  0  0  0  0
  188.2000  176.0120  141.6920 C   0  0  0  0  0  3  0  0  0  0  0  0
  185.0550  178.1920  144.9580 C   0  0  0  0  0  3  0  0  0  0  0  0
  191.5680  176.6130  149.1040 F   0  0  0  0  0  0  0  0  0  0  0  0
  186.2740  177.5230  145.0960 C   0  0  0  0  0  3  0  0  0  0  0  0
  191.4210  176.4250  147.7710 C   0  0  0  0  0  0  0  0  0  0  0  0
  186.9380  177.0100  143.9700 C   0  0  0  0  0  0  0  0  0  0  0  0
  190.0010  175.0460  143.0330 N   0  0  0  0  0  0  0  0  0  0  0  0
  184.4860  178.3590  143.6940 C   0  0  0  0  0  0  0  0  0  0  0  0
  186.3540  177.1860  142.6930 C   0  0  0  0  0  0  0  0  0  0  0  0
  191.1150  175.9960  145.0110 C   0  0  0  0  0  0  0  0  0  0  0  0
  188.1780  176.3440  144.1000 C   0  0  0  0  0  0  0  0  0  0  0  0
  190.1490  176.2890  147.2200 C   0  0  0  0  0  3  0  0  0  0  0  0
  186.9930  176.6930  141.5620 C   0  0  0  0  0  3  0  0  0  0  0  0
  192.5390  176.4170  146.9410 C   0  0  0  0  0  3  0  0  0  0  0  0
  192.3830  176.1930  145.5740 C   0  0  0  0  0  3  0  0  0  0  0  0
  189.9650  176.1150  145.8410 C   0  0  0  0  0  0  0  0  0  0  0  0
  190.5720  171.5750  140.6320 C   0  0  0  0  0  3  0  0  0  0  0  0
  190.1820  173.8740  142.2060 C   0  0  0  0  0  0  0  0  0  0  0  0
  189.5010  172.6810  142.4990 C   0  0  0  0  0  3  0  0  0  0  0  0
  189.6910  171.5390  141.7150 C   0  0  0  0  0  3  0  0  0  0  0  0
  191.2640  172.7510  140.3340 C   0  0  0  0  0  3  0  0  0  0  0  0
  191.0740  173.8920  141.1170 C   0  0  0  0  0  3  0  0  0  0  0  0
  1 15  2  0  0  0  0
  2 12  1  0  0  0  0
  2 16  1  0  0  0  0
  3 21  2  0  0  0  0
  4 14  1  0  0  0  0
  4 13  2  0  0  0  0
  5 13  1  0  0  0  0
  6  2  2  0  0  0  0
  7  9  2  0  0  0  0
 10  8  1  0  0  0  0
 11 16  2  0  0  0  0
 11  9  1  0  0  0  0
 12  1  1  0  0  0  0
 13  7  1  0  0  0  0
 14 11  1  0  0  0  0
 15 20  1  0  0  0  0
 15 21  1  0  0  0  0
 16  3  1  0  0  0  0
 17 10  2  0  0  0  0
 18  6  1  0  0  0  0
 18 14  2  0  0  0  0
 19 10  1  0  0  0  0
 20 19  2  0  0  0  0
 21 17  1  0  0  0  0
 22 25  1  0  0  0  0
 23 24  1  0  0  0  0
 23 12  1  0  0  0  0
 25 24  2  0  0  0  0
 26 22  2  0  0  0  0
 26 27  1  0  0  0  0
 27 23  2  0  0  0  0
M  END
>  <MODEL>
5

>  <REMARK>
 VINA RESULT:      -7.6      2.696      5.206
  Name = 
  1 active torsions:
  status: ('A' for Active; 'I' for Inactive)
    1  A    between atoms: C_9  and  N_15
                            x       y       z     vdW  Elec       q    Type
                         _______ _______ _______ _____ _____    ______ ____

>  <TORSDO>
F 1

$$$$
=
 OpenBabel11052418313D

 27 31  0  0  0  0  0  0  0  0999 V2000
  192.1160  175.0860  142.6930 C   0  0  0  0  0  3  0  0  0  0  0  0
  189.6350  175.1080  142.8610 C   0  0  0  0  0  0  0  0  0  0  0  0
  190.4970  175.9660  145.0470 N   0  0  0  0  0  0  0  0  0  0  0  0
  185.9020  176.8710  143.6830 C   0  0  0  0  0  3  0  0  0  0  0  0
  184.4270  178.1300  145.1640 N   0  0  0  0  0  1  0  0  0  0  0  0
  188.5770  175.0390  141.9380 C   0  0  0  0  0  3  0  0  0  0  0  0
  186.7250  177.6400  145.8250 C   0  0  0  0  0  3  0  0  0  0  0  0
  194.4750  177.1560  147.1710 F   0  0  0  0  0  0  0  0  0  0  0  0
  187.9700  177.0640  145.5580 C   0  0  0  0  0  3  0  0  0  0  0  0
  193.8430  176.7180  146.0560 C   0  0  0  0  0  0  0  0  0  0  0  0
  188.1970  176.3820  144.3510 C   0  0  0  0  0  0  0  0  0  0  0  0
  190.8570  174.4210  142.5650 N   0  0  0  0  0  0  0  0  0  0  0  0
  185.6930  177.5430  144.8900 C   0  0  0  0  0  0  0  0  0  0  0  0
  187.1450  176.2920  143.4090 C   0  0  0  0  0  0  0  0  0  0  0  0
  192.5360  175.7710  143.7550 C   0  0  0  0  0  0  0  0  0  0  0  0
  189.4570  175.8100  144.0680 C   0  0  0  0  0  0  0  0  0  0  0  0
  192.4810  176.4240  146.0940 C   0  0  0  0  0  3  0  0  0  0  0  0
  187.3450  175.6280  142.2050 C   0  0  0  0  0  3  0  0  0  0  0  0
  194.5410  176.6070  144.8560 C   0  0  0  0  0  3  0  0  0  0  0  0
  193.8910  176.1270  143.7200 C   0  0  0  0  0  3  0  0  0  0  0  0
  191.7960  175.9890  144.9510 C   0  0  0  0  0  0  0  0  0  0  0  0
  190.7490  170.6170  140.6540 C   0  0  0  0  0  3  0  0  0  0  0  0
  190.8370  173.1260  141.9230 C   0  0  0  0  0  0  0  0  0  0  0  0
  191.2050  172.9910  140.5740 C   0  0  0  0  0  3  0  0  0  0  0  0
  191.1650  171.7440  139.9430 C   0  0  0  0  0  3  0  0  0  0  0  0
  190.3690  170.7350  141.9930 C   0  0  0  0  0  3  0  0  0  0  0  0
  190.4100  171.9820  142.6230 C   0  0  0  0  0  3  0  0  0  0  0  0
  1 15  2  0  0  0  0
  2 16  1  0  0  0  0
  4 13  2  0  0  0  0
  6 18  1  0  0  0  0
  6  2  2  0  0  0  0
  9  7  2  0  0  0  0
 10 17  2  0  0  0  0
 10  8  1  0  0  0  0
 11  9  1  0  0  0  0
 12  1  1  0  0  0  0
 12  2  1  0  0  0  0
 13  5  1  0  0  0  0
 13  7  1  0  0  0  0
 14  4  1  0  0  0  0
 14 11  1  0  0  0  0
 15 21  1  0  0  0  0
 16 11  2  0  0  0  0
 16  3  1  0  0  0  0
 18 14  2  0  0  0  0
 19 10  1  0  0  0  0
 20 15  1  0  0  0  0
 20 19  2  0  0  0  0
 21  3  2  0  0  0  0
 21 17  1  0  0  0  0
 22 26  1  0  0  0  0
 23 12  1  0  0  0  0
 23 27  1  0  0  0  0
 24 23  2  0  0  0  0
 25 24  1  0  0  0  0
 25 22  2  0  0  0  0
 26 27  2  0  0  0  0
M  END
>  <MODEL>
6

>  <REMARK>
 VINA RESULT:      -7.6      2.615      5.183
  Name = 
  1 active torsions:
  status: ('A' for Active; 'I' for Inactive)
    1  A    between atoms: C_9  and  N_15
                            x       y       z     vdW  Elec       q    Type
                         _______ _______ _______ _____ _____    ______ ____

>  <TORSDO>
F 1

$$$$
=
 OpenBabel11052418313D

 27 31  0  0  0  0  0  0  0  0999 V2000
  191.4350  173.1460  143.5670 C   0  0  0  0  0  3  0  0  0  0  0  0
  190.3890  174.7820  145.1210 C   0  0  0  0  0  0  0  0  0  0  0  0
  189.2930  175.1210  142.8980 N   0  0  0  0  0  0  0  0  0  0  0  0
  187.1410  176.7130  146.9760 C   0  0  0  0  0  3  0  0  0  0  0  0
  185.0050  177.8850  146.8370 N   0  0  0  0  0  1  0  0  0  0  0  0
  190.3270  174.9230  146.5180 C   0  0  0  0  0  3  0  0  0  0  0  0
  186.1210  177.0950  144.8150 C   0  0  0  0  0  3  0  0  0  0  0  0
  189.1520  173.3130  138.6010 F   0  0  0  0  0  0  0  0  0  0  0  0
  187.1910  176.4490  144.1910 C   0  0  0  0  0  3  0  0  0  0  0  0
  189.6360  173.2610  139.8650 C   0  0  0  0  0  0  0  0  0  0  0  0
  188.2520  175.9290  144.9500 C   0  0  0  0  0  0  0  0  0  0  0  0
  191.5550  174.1890  144.5370 N   0  0  0  0  0  0  0  0  0  0  0  0
  186.0960  177.2270  146.2050 C   0  0  0  0  0  0  0  0  0  0  0  0
  188.2160  176.0660  146.3580 C   0  0  0  0  0  0  0  0  0  0  0  0
  190.6710  173.1750  142.4760 C   0  0  0  0  0  0  0  0  0  0  0  0
  189.3300  175.2620  144.3270 C   0  0  0  0  0  0  0  0  0  0  0  0
  189.3440  174.2800  140.7690 C   0  0  0  0  0  3  0  0  0  0  0  0
  189.2500  175.5560  147.1330 C   0  0  0  0  0  3  0  0  0  0  0  0
  190.3870  172.1640  140.2790 C   0  0  0  0  0  3  0  0  0  0  0  0
  190.9070  172.1300  141.5720 C   0  0  0  0  0  3  0  0  0  0  0  0
  189.8130  174.2420  142.0890 C   0  0  0  0  0  0  0  0  0  0  0  0
  195.4410  175.0340  146.0610 C   0  0  0  0  0  3  0  0  0  0  0  0
  192.8700  174.4690  145.0710 C   0  0  0  0  0  0  0  0  0  0  0  0
  193.2060  175.7660  145.4960 C   0  0  0  0  0  3  0  0  0  0  0  0
  194.4830  176.0460  145.9920 C   0  0  0  0  0  3  0  0  0  0  0  0
  195.1260  173.7420  145.6330 C   0  0  0  0  0  3  0  0  0  0  0  0
  193.8500  173.4620  145.1380 C   0  0  0  0  0  3  0  0  0  0  0  0
  1 12  1  0  0  0  0
  2  6  1  0  0  0  0
  3 16  1  0  0  0  0
  6 18  2  0  0  0  0
  7 13  1  0  0  0  0
  8 10  1  0  0  0  0
  9  7  2  0  0  0  0
  9 11  1  0  0  0  0
 10 19  1  0  0  0  0
 10 17  2  0  0  0  0
 11 14  2  0  0  0  0
 12 23  1  0  0  0  0
 12  2  1  0  0  0  0
 13  5  1  0  0  0  0
 13  4  2  0  0  0  0
 14  4  1  0  0  0  0
 14 18  1  0  0  0  0
 15  1  2  0  0  0  0
 16 11  1  0  0  0  0
 16  2  2  0  0  0  0
 17 21  1  0  0  0  0
 19 20  2  0  0  0  0
 20 15  1  0  0  0  0
 21 15  1  0  0  0  0
 21  3  2  0  0  0  0
 23 27  2  0  0  0  0
 23 24  1  0  0  0  0
 24 25  2  0  0  0  0
 25 22  1  0  0  0  0
 26 22  2  0  0  0  0
 27 26  1  0  0  0  0
M  END
>  <MODEL>
7

>  <REMARK>
 VINA RESULT:      -7.6      1.184      1.554
  Name = 
  1 active torsions:
  status: ('A' for Active; 'I' for Inactive)
    1  A    between atoms: C_9  and  N_15
                            x       y       z     vdW  Elec       q    Type
                         _______ _______ _______ _____ _____    ______ ____

>  <TORSDO>
F 1

$$$$
=
 OpenBabel11052418313D

 27 31  0  0  0  0  0  0  0  0999 V2000
  188.9200  175.9540  142.6010 C   0  0  0  0  0  3  0  0  0  0  0  0
  190.6330  175.9110  144.4020 C   0  0  0  0  0  0  0  0  0  0  0  0
  190.8590  173.7500  143.1630 N   0  0  0  0  0  0  0  0  0  0  0  0
  194.5220  175.3990  145.9300 C   0  0  0  0  0  3  0  0  0  0  0  0
  196.5660  174.0830  146.1390 N   0  0  0  0  0  1  0  0  0  0  0  0
  191.2220  176.8780  145.2350 C   0  0  0  0  0  3  0  0  0  0  0  0
  194.7050  173.2770  144.7810 C   0  0  0  0  0  3  0  0  0  0  0  0
  189.2090  171.5200  139.4140 F   0  0  0  0  0  0  0  0  0  0  0  0
  193.4180  173.4420  144.2630 C   0  0  0  0  0  3  0  0  0  0  0  0
  189.2230  172.6310  140.1880 C   0  0  0  0  0  0  0  0  0  0  0  0
  192.6650  174.5860  144.5740 C   0  0  0  0  0  0  0  0  0  0  0  0
  189.2780  176.0970  143.9770 N   0  0  0  0  0  0  0  0  0  0  0  0
  195.2560  174.2540  145.6140 C   0  0  0  0  0  0  0  0  0  0  0  0
  193.2330  175.5700  145.4160 C   0  0  0  0  0  0  0  0  0  0  0  0
  189.2240  174.9220  141.8150 C   0  0  0  0  0  0  0  0  0  0  0  0
  191.3680  174.7660  144.0420 C   0  0  0  0  0  0  0  0  0  0  0  0
  189.9360  172.6410  141.3860 C   0  0  0  0  0  3  0  0  0  0  0  0
  192.5100  176.7130  145.7350 C   0  0  0  0  0  3  0  0  0  0  0  0
  188.5670  173.7840  139.7650 C   0  0  0  0  0  3  0  0  0  0  0  0
  188.5610  174.9150  140.5810 C   0  0  0  0  0  3  0  0  0  0  0  0
  189.9870  173.7830  142.1960 C   0  0  0  0  0  0  0  0  0  0  0  0
  186.3380  177.6830  146.6200 C   0  0  0  0  0  3  0  0  0  0  0  0
  188.2920  176.6480  144.8800 C   0  0  0  0  0  0  0  0  0  0  0  0
  188.0500  176.0460  146.1270 C   0  0  0  0  0  3  0  0  0  0  0  0
  187.0820  176.5620  146.9930 C   0  0  0  0  0  3  0  0  0  0  0  0
  186.5600  178.2870  145.3800 C   0  0  0  0  0  3  0  0  0  0  0  0
  187.5270  177.7710  144.5140 C   0  0  0  0  0  3  0  0  0  0  0  0
  1 12  1  0  0  0  0
  2  6  1  0  0  0  0
  3 16  1  0  0  0  0
  6 18  2  0  0  0  0
  7 13  2  0  0  0  0
  8 10  1  0  0  0  0
  9 11  2  0  0  0  0
  9  7  1  0  0  0  0
 10 17  2  0  0  0  0
 11 14  1  0  0  0  0
 12  2  1  0  0  0  0
 12 23  1  0  0  0  0
 13  4  1  0  0  0  0
 13  5  1  0  0  0  0
 14 18  1  0  0  0  0
 14  4  2  0  0  0  0
 15 21  1  0  0  0  0
 15  1  2  0  0  0  0
 16  2  2  0  0  0  0
 16 11  1  0  0  0  0
 17 21  1  0  0  0  0
 19 10  1  0  0  0  0
 19 20  2  0  0  0  0
 20 15  1  0  0  0  0
 21  3  2  0  0  0  0
 22 25  1  0  0  0  0
 23 24  1  0  0  0  0
 24 25  2  0  0  0  0
 26 22  2  0  0  0  0
 27 23  2  0  0  0  0
 27 26  1  0  0  0  0
M  END
>  <MODEL>
8

>  <REMARK>
 VINA RESULT:      -7.4      1.784      6.085
  Name = 
  1 active torsions:
  status: ('A' for Active; 'I' for Inactive)
    1  A    between atoms: C_9  and  N_15
                            x       y       z     vdW  Elec       q    Type
                         _______ _______ _______ _____ _____    ______ ____

>  <TORSDO>
F 1

$$$$
=
 OpenBabel11052418313D

 27 31  0  0  0  0  0  0  0  0999 V2000
  187.9850  176.2540  141.5380 C   0  0  0  0  0  3  0  0  0  0  0  0
  189.3670  176.5480  143.5840 C   0  0  0  0  0  0  0  0  0  0  0  0
  189.8670  174.2540  142.7180 N   0  0  0  0  0  0  0  0  0  0  0  0
  192.9530  176.4580  145.7870 C   0  0  0  0  0  3  0  0  0  0  0  0
  194.9720  175.2950  146.5130 N   0  0  0  0  0  1  0  0  0  0  0  0
  189.7760  177.6490  144.3560 C   0  0  0  0  0  3  0  0  0  0  0  0
  193.3940  174.2140  144.9960 C   0  0  0  0  0  3  0  0  0  0  0  0
  188.9480  171.4530  139.1050 F   0  0  0  0  0  0  0  0  0  0  0  0
  192.2100  174.2370  144.2560 C   0  0  0  0  0  3  0  0  0  0  0  0
  188.7960  172.6570  139.7050 C   0  0  0  0  0  0  0  0  0  0  0  0
  191.3800  175.3690  144.2730 C   0  0  0  0  0  0  0  0  0  0  0  0
  188.0990  176.6010  142.9200 N   0  0  0  0  0  0  0  0  0  0  0  0
  193.7650  175.3220  145.7610 C   0  0  0  0  0  0  0  0  0  0  0  0
  191.7660  176.4880  145.0490 C   0  0  0  0  0  0  0  0  0  0  0  0
  188.4500  175.1440  140.9680 C   0  0  0  0  0  0  0  0  0  0  0  0
  190.1870  175.4050  143.5160 C   0  0  0  0  0  0  0  0  0  0  0  0
  189.2940  172.8670  140.9900 C   0  0  0  0  0  3  0  0  0  0  0  0
  190.9650  177.6230  145.0790 C   0  0  0  0  0  3  0  0  0  0  0  0
  188.1860  173.7050  139.0210 C   0  0  0  0  0  3  0  0  0  0  0  0
  188.0080  174.9340  139.6550 C   0  0  0  0  0  3  0  0  0  0  0  0
  189.1710  174.1100  141.6270 C   0  0  0  0  0  0  0  0  0  0  0  0
  184.7690  178.4440  144.8310 C   0  0  0  0  0  3  0  0  0  0  0  0
  186.9570  177.2140  143.5610 C   0  0  0  0  0  0  0  0  0  0  0  0
  186.3390  178.3420  142.9940 C   0  0  0  0  0  3  0  0  0  0  0  0
  185.2490  178.9510  143.6230 C   0  0  0  0  0  3  0  0  0  0  0  0
  185.3780  177.3300  145.4130 C   0  0  0  0  0  3  0  0  0  0  0  0
  186.4670  176.7210  144.7840 C   0  0  0  0  0  3  0  0  0  0  0  0
  1 12  1  0  0  0  0
  2  6  1  0  0  0  0
  3 16  1  0  0  0  0
  6 18  2  0  0  0  0
  7 13  2  0  0  0  0
  8 10  1  0  0  0  0
  9 11  2  0  0  0  0
  9  7  1  0  0  0  0
 10 17  2  0  0  0  0
 11 14  1  0  0  0  0
 12 23  1  0  0  0  0
 12  2  1  0  0  0  0
 13  4  1  0  0  0  0
 13  5  1  0  0  0  0
 14 18  1  0  0  0  0
 14  4  2  0  0  0  0
 15  1  2  0  0  0  0
 15 21  1  0  0  0  0
 16  2  2  0  0  0  0
 16 11  1  0  0  0  0
 17 21  1  0  0  0  0
 19 20  2  0  0  0  0
 19 10  1  0  0  0  0
 20 15  1  0  0  0  0
 21  3  2  0  0  0  0
 22 26  1  0  0  0  0
 23 27  1  0  0  0  0
 24 23  2  0  0  0  0
 24 25  1  0  0  0  0
 25 22  2  0  0  0  0
 27 26  2  0  0  0  0
M  END
>  <MODEL>
9

>  <REMARK>
 VINA RESULT:      -7.4      1.682      5.786
  Name = 
  1 active torsions:
  status: ('A' for Active; 'I' for Inactive)
    1  A    between atoms: C_9  and  N_15
                            x       y       z     vdW  Elec       q    Type
                         _______ _______ _______ _____ _____    ______ ____

>  <TORSDO>
F 1

$$$$
