=
 OpenBabel11052417073D

 30 33  0  0  1  0  0  0  0  0999 V2000
  188.2560  174.9260  142.5770 C   0  0  0  0  0  0  0  0  0  0  0  0
  188.9370  174.1160  140.2530 C   0  0  1  0  0  3  0  0  0  0  0  0
  190.8380  173.0030  142.2840 C   0  0  1  0  0  3  0  0  0  0  0  0
  189.4110  175.5000  143.4260 C   0  0  2  0  0  3  0  0  0  0  0  0
  187.0460  175.5200  142.4560 C   0  0  0  0  0  3  0  0  0  0  0  0
  186.6210  179.1330  142.5530 O   0  0  0  0  0  0  0  0  0  0  0  0
  187.2560  177.9530  142.1590 C   0  0  2  0  0  3  0  0  0  0  0  0
  185.2770  177.2060  143.0650 C   0  0  0  0  0  2  0  0  0  0  0  0
  191.5090  172.8850  143.5870 N   0  0  0  0  0  0  0  0  0  0  0  0
  186.7250  176.8560  143.0390 C   0  0  1  0  0  3  0  0  0  0  0  0
  188.7850  178.0660  142.0500 C   0  0  0  0  0  2  0  0  0  0  0  0
  189.2390  172.8740  139.4220 C   0  0  0  0  0  2  0  0  0  0  0  0
  184.8700  179.4030  144.1640 C   0  0  0  0  0  1  0  0  0  0  0  0
  187.8800  174.9300  139.5280 C   0  0  0  0  0  1  0  0  0  0  0  0
  191.5900  172.2400  141.2050 C   0  0  0  0  0  2  0  0  0  0  0  0
  190.6790  172.8590  138.9070 C   0  0  0  0  0  2  0  0  0  0  0  0
  185.3080  178.7230  142.8820 C   0  0  1  0  0  3  0  0  0  0  0  0
  188.4770  173.7250  141.6750 C   0  0  1  0  0  3  0  0  0  0  0  0
  189.8100  174.5140  144.5270 C   0  0  0  0  0  2  0  0  0  0  0  0
  191.1250  171.6740  144.3080 C   0  0  0  0  0  1  0  0  0  0  0  0
  191.2780  174.0560  144.4470 C   0  0  2  0  0  3  0  0  0  0  0  0
  189.0760  176.7040  144.0710 O   0  0  0  0  0  0  0  0  0  0  0  0
  191.7380  173.1290  139.9790 C   0  0  0  0  0  2  0  0  0  0  0  0
  189.3470  172.6330  142.3110 C   0  0  0  0  0  2  0  0  0  0  0  0
  189.5960  177.7740  143.3230 C   0  0  0  0  0  2  0  0  0  0  0  0
  192.2520  175.1900  144.1280 C   0  0  0  0  0  2  0  0  0  0  0  0
  192.5870  176.0050  145.3690 C   0  0  1  0  0  3  0  0  0  0  0  0
  192.7380  175.0620  146.5440 C   0  0  0  0  0  1  0  0  0  0  0  0
  193.8920  176.7640  145.1800 C   0  0  0  0  0  2  0  0  0  0  0  0
  194.4800  177.1580  146.5220 C   0  0  0  0  0  1  0  0  0  0  0  0
  1  4  1  0  0  0  0
  2 14  1  6  0  0  0
  2 18  1  0  0  0  0
  3 15  1  6  0  0  0
  3 24  1  0  0  0  0
  3  9  1  0  0  0  0
  4 22  1  0  0  0  0
  4 19  1  1  0  0  0
  5  1  2  0  0  0  0
  6 17  1  0  0  0  0
  7 11  1  1  0  0  0
  7  6  1  0  0  0  0
  7 10  1  0  0  0  0
  9 20  1  0  0  0  0
  9 21  1  0  0  0  0
 10  5  1  6  0  0  0
 10  8  1  0  0  0  0
 11 25  1  0  0  0  0
 12  2  1  0  0  0  0
 16 12  1  0  0  0  0
 16 23  1  0  0  0  0
 17  8  1  0  0  0  0
 17 13  1  1  0  0  0
 18 24  1  1  0  0  0
 18  1  1  0  0  0  0
 21 26  1  6  0  0  0
 21 19  1  0  0  0  0
 23 15  1  0  0  0  0
 25 22  1  0  0  0  0
 26 27  1  0  0  0  0
 27 28  1  1  0  0  0
 29 27  1  0  0  0  0
 29 30  1  0  0  0  0
M  END
>  <MODEL>
1

>  <REMARK>
 VINA RESULT:      -7.5      0.000      0.000
  Name = 
  3 active torsions:
  status: ('A' for Active; 'I' for Inactive)
    1  A    between atoms: C_7  and  C_10
    2  A    between atoms: C_7  and  C_15
    3  A    between atoms: C_10  and  C_25
                            x       y       z     vdW  Elec       q    Type
                         _______ _______ _______ _____ _____    ______ ____

>  <TORSDO>
F 3

$$$$
=
 OpenBabel11052417073D

 30 33  0  0  1  0  0  0  0  0999 V2000
  189.4550  175.1220  144.1740 C   0  0  0  0  0  0  0  0  0  0  0  0
  189.4450  173.2140  142.4750 C   0  0  1  0  0  3  0  0  0  0  0  0
  192.1930  173.4860  143.6380 C   0  0  1  0  0  3  0  0  0  0  0  0
  190.6180  176.1240  144.0120 C   0  0  2  0  0  3  0  0  0  0  0  0
  188.1690  175.4890  144.3710 C   0  0  0  0  0  3  0  0  0  0  0  0
  186.7710  178.5460  142.9740 O   0  0  0  0  0  0  0  0  0  0  0  0
  187.5330  177.3760  142.9260 C   0  0  2  0  0  3  0  0  0  0  0  0
  186.3340  177.1390  144.8760 C   0  0  0  0  0  2  0  0  0  0  0  0
  193.2970  174.1320  144.3650 N   0  0  0  0  0  0  0  0  0  0  0  0
  187.7060  176.9080  144.3440 C   0  0  1  0  0  3  0  0  0  0  0  0
  188.8110  177.4910  142.0800 C   0  0  0  0  0  2  0  0  0  0  0  0
  189.7720  171.7380  142.2800 C   0  0  0  0  0  2  0  0  0  0  0  0
  185.7330  179.5570  144.8810 C   0  0  0  0  0  1  0  0  0  0  0  0
  188.0080  173.4470  142.0430 C   0  0  0  0  0  1  0  0  0  0  0  0
  192.6860  172.3000  142.8260 C   0  0  0  0  0  2  0  0  0  0  0  0
  190.8600  171.5210  141.2280 C   0  0  0  0  0  2  0  0  0  0  0  0
  185.8500  178.3120  144.0230 C   0  0  1  0  0  3  0  0  0  0  0  0
  189.6730  173.6370  143.9430 C   0  0  1  0  0  3  0  0  0  0  0  0
  191.6610  175.9180  145.1140 C   0  0  0  0  0  2  0  0  0  0  0  0
  193.5750  173.4900  145.6480 C   0  0  0  0  0  1  0  0  0  0  0  0
  193.0630  175.5680  144.5810 C   0  0  2  0  0  3  0  0  0  0  0  0
  190.2060  177.4660  144.1000 O   0  0  0  0  0  0  0  0  0  0  0  0
  192.1080  172.3860  141.4200 C   0  0  0  0  0  2  0  0  0  0  0  0
  190.9930  173.1130  144.5230 C   0  0  0  0  0  2  0  0  0  0  0  0
  190.0780  177.9820  142.7990 C   0  0  0  0  0  2  0  0  0  0  0  0
  193.4760  176.3960  143.3650 C   0  0  0  0  0  2  0  0  0  0  0  0
  194.7710  175.8830  142.7510 C   0  0  1  0  0  3  0  0  0  0  0  0
  194.8650  176.3860  141.3260 C   0  0  0  0  0  1  0  0  0  0  0  0
  195.9750  176.3890  143.5300 C   0  0  0  0  0  2  0  0  0  0  0  0
  196.8980  175.2420  143.8930 C   0  0  0  0  0  1  0  0  0  0  0  0
  1  5  2  0  0  0  0
  2 14  1  1  0  0  0
  2 18  1  0  0  0  0
  3 15  1  1  0  0  0
  3  9  1  0  0  0  0
  3 24  1  0  0  0  0
  4 22  1  0  0  0  0
  4  1  1  0  0  0  0
  4 19  1  1  0  0  0
  6 17  1  0  0  0  0
  7 11  1  1  0  0  0
  7  6  1  0  0  0  0
  7 10  1  0  0  0  0
  9 21  1  0  0  0  0
  9 20  1  0  0  0  0
 10  5  1  6  0  0  0
 10  8  1  0  0  0  0
 11 25  1  0  0  0  0
 12  2  1  0  0  0  0
 16 23  1  0  0  0  0
 16 12  1  0  0  0  0
 17  8  1  0  0  0  0
 17 13  1  1  0  0  0
 18  1  1  0  0  0  0
 18 24  1  6  0  0  0
 21 26  1  6  0  0  0
 21 19  1  0  0  0  0
 23 15  1  0  0  0  0
 25 22  1  0  0  0  0
 27 28  1  6  0  0  0
 27 26  1  0  0  0  0
 27 29  1  0  0  0  0
 29 30  1  0  0  0  0
M  END
>  <MODEL>
2

>  <REMARK>
 VINA RESULT:      -7.2      1.714      2.463
  Name = 
  3 active torsions:
  status: ('A' for Active; 'I' for Inactive)
    1  A    between atoms: C_7  and  C_10
    2  A    between atoms: C_7  and  C_15
    3  A    between atoms: C_10  and  C_25
                            x       y       z     vdW  Elec       q    Type
                         _______ _______ _______ _____ _____    ______ ____

>  <TORSDO>
F 3

$$$$
=
 OpenBabel11052417073D

 30 33  0  0  1  0  0  0  0  0999 V2000
  189.7390  174.8640  144.7480 C   0  0  0  0  0  0  0  0  0  0  0  0
  189.6510  173.5380  142.5670 C   0  0  1  0  0  3  0  0  0  0  0  0
  192.4310  173.4260  143.6800 C   0  0  1  0  0  3  0  0  0  0  0  0
  190.9170  175.8560  144.8540 C   0  0  2  0  0  3  0  0  0  0  0  0
  188.4650  175.1720  145.0810 C   0  0  0  0  0  3  0  0  0  0  0  0
  187.0940  178.5200  144.6810 O   0  0  0  0  0  0  0  0  0  0  0  0
  187.8320  177.4070  144.2700 C   0  0  2  0  0  3  0  0  0  0  0  0
  186.6750  176.6230  146.0990 C   0  0  0  0  0  2  0  0  0  0  0  0
  193.5640  173.8170  144.5320 N   0  0  0  0  0  0  0  0  0  0  0  0
  188.0290  176.5420  145.4840 C   0  0  1  0  0  3  0  0  0  0  0  0
  189.0910  177.7510  143.4590 C   0  0  0  0  0  2  0  0  0  0  0  0
  189.9440  172.1800  141.9390 C   0  0  0  0  0  2  0  0  0  0  0  0
  186.1210  178.9400  146.8290 C   0  0  0  0  0  1  0  0  0  0  0  0
  188.2090  173.9040  142.2630 C   0  0  0  0  0  1  0  0  0  0  0  0
  192.8810  172.5240  142.5430 C   0  0  0  0  0  2  0  0  0  0  0  0
  191.0030  172.2680  140.8390 C   0  0  0  0  0  2  0  0  0  0  0  0
  186.1940  178.0000  145.6400 C   0  0  1  0  0  3  0  0  0  0  0  0
  189.9220  173.5090  144.0880 C   0  0  1  0  0  3  0  0  0  0  0  0
  191.9820  175.3240  145.8170 C   0  0  0  0  0  2  0  0  0  0  0  0
  193.8600  172.8250  145.5620 C   0  0  0  0  0  1  0  0  0  0  0  0
  193.3640  175.1300  145.1660 C   0  0  2  0  0  3  0  0  0  0  0  0
  190.5330  177.1180  145.3430 O   0  0  0  0  0  0  0  0  0  0  0  0
  192.2720  173.0250  141.2410 C   0  0  0  0  0  2  0  0  0  0  0  0
  191.2460  172.8240  144.4510 C   0  0  0  0  0  2  0  0  0  0  0  0
  190.3840  177.9940  144.2540 C   0  0  0  0  0  2  0  0  0  0  0  0
  193.7630  176.2730  144.2330 C   0  0  0  0  0  2  0  0  0  0  0  0
  194.9480  175.8930  143.3570 C   0  0  1  0  0  3  0  0  0  0  0  0
  194.5930  176.1720  141.9120 C   0  0  0  0  0  1  0  0  0  0  0  0
  196.1760  176.7110  143.7260 C   0  0  0  0  0  2  0  0  0  0  0  0
  197.3430  176.3610  142.8230 C   0  0  0  0  0  1  0  0  0  0  0  0
  1  4  1  0  0  0  0
  1  5  2  0  0  0  0
  2 14  1  1  0  0  0
  2 18  1  0  0  0  0
  3 15  1  6  0  0  0
  3 24  1  0  0  0  0
  3  9  1  0  0  0  0
  4 22  1  0  0  0  0
  4 19  1  1  0  0  0
  6 17  1  0  0  0  0
  7 11  1  1  0  0  0
  7  6  1  0  0  0  0
  7 10  1  0  0  0  0
  9 21  1  0  0  0  0
  9 20  1  0  0  0  0
 10  5  1  6  0  0  0
 10  8  1  0  0  0  0
 11 25  1  0  0  0  0
 12  2  1  0  0  0  0
 16 23  1  0  0  0  0
 16 12  1  0  0  0  0
 17  8  1  0  0  0  0
 17 13  1  1  0  0  0
 18 24  1  6  0  0  0
 18  1  1  0  0  0  0
 21 26  1  6  0  0  0
 21 19  1  0  0  0  0
 23 15  1  0  0  0  0
 25 22  1  0  0  0  0
 27 28  1  6  0  0  0
 27 29  1  0  0  0  0
 27 26  1  0  0  0  0
 30 29  1  0  0  0  0
M  END
>  <MODEL>
3

>  <REMARK>
 VINA RESULT:      -7.1      2.010      2.747
  Name = 
  3 active torsions:
  status: ('A' for Active; 'I' for Inactive)
    1  A    between atoms: C_7  and  C_10
    2  A    between atoms: C_7  and  C_15
    3  A    between atoms: C_10  and  C_25
                            x       y       z     vdW  Elec       q    Type
                         _______ _______ _______ _____ _____    ______ ____

>  <TORSDO>
F 3

$$$$
=
 OpenBabel11052417073D

 30 33  0  0  1  0  0  0  0  0999 V2000
  189.6970  177.1060  143.8250 C   0  0  0  0  0  0  0  0  0  0  0  0
  189.8990  176.7720  146.3490 C   0  0  1  0  0  3  0  0  0  0  0  0
  192.2860  175.5640  144.9990 C   0  0  1  0  0  3  0  0  0  0  0  0
  189.9540  175.8370  142.9830 C   0  0  2  0  0  3  0  0  0  0  0  0
  188.6620  177.9500  143.6140 C   0  0  0  0  0  3  0  0  0  0  0  0
  185.4380  176.8200  142.3590 O   0  0  0  0  0  0  0  0  0  0  0  0
  186.5730  176.7310  143.1690 C   0  0  2  0  0  3  0  0  0  0  0  0
  186.7090  178.8620  142.3110 C   0  0  0  0  0  2  0  0  0  0  0  0
  193.0870  175.0360  143.8830 N   0  0  0  0  0  0  0  0  0  0  0  0
  187.5840  177.6950  142.6150 C   0  0  1  0  0  3  0  0  0  0  0  0
  187.0580  175.2930  143.4180 C   0  0  0  0  0  2  0  0  0  0  0  0
  190.8080  177.0000  147.5520 C   0  0  0  0  0  2  0  0  0  0  0  0
  185.0300  178.3340  140.5480 C   0  0  0  0  0  1  0  0  0  0  0  0
  188.5390  177.3710  146.6580 C   0  0  0  0  0  1  0  0  0  0  0  0
  192.8860  175.1770  146.3410 C   0  0  0  0  0  2  0  0  0  0  0  0
  191.2340  175.6880  148.2120 C   0  0  0  0  0  2  0  0  0  0  0  0
  185.3660  178.1920  142.0210 C   0  0  1  0  0  3  0  0  0  0  0  0
  190.5150  177.3880  145.0730 C   0  0  1  0  0  3  0  0  0  0  0  0
  191.3190  175.9160  142.2950 C   0  0  0  0  0  2  0  0  0  0  0  0
  194.2020  175.9110  143.5310 C   0  0  0  0  0  1  0  0  0  0  0  0
  192.2760  174.7750  142.6840 C   0  0  2  0  0  3  0  0  0  0  0  0
  189.0030  175.6500  141.9630 O   0  0  0  0  0  0  0  0  0  0  0  0
  191.7830  174.6400  147.2410 C   0  0  0  0  0  2  0  0  0  0  0  0
  192.0080  177.0730  144.9120 C   0  0  0  0  0  2  0  0  0  0  0  0
  188.0540  174.7120  142.4010 C   0  0  0  0  0  2  0  0  0  0  0  0
  191.5970  173.4070  142.7500 C   0  0  0  0  0  2  0  0  0  0  0  0
  191.6370  172.8290  144.1570 C   0  0  1  0  0  3  0  0  0  0  0  0
  190.2210  172.5280  144.5990 C   0  0  0  0  0  1  0  0  0  0  0  0
  192.4430  171.5400  144.1880 C   0  0  0  0  0  2  0  0  0  0  0  0
  193.7160  171.7240  144.9930 C   0  0  0  0  0  1  0  0  0  0  0  0
  1 18  1  0  0  0  0
  2 14  1  1  0  0  0
  2 12  1  0  0  0  0
  3 24  1  6  0  0  0
  3 15  1  0  0  0  0
  4 19  1  6  0  0  0
  4  1  1  0  0  0  0
  5  1  2  0  0  0  0
  6  7  1  0  0  0  0
  7 11  1  6  0  0  0
  9  3  1  0  0  0  0
 10  8  1  1  0  0  0
 10  7  1  0  0  0  0
 10  5  1  0  0  0  0
 12 16  1  0  0  0  0
 15 23  1  0  0  0  0
 17 13  1  6  0  0  0
 17  8  1  0  0  0  0
 17  6  1  0  0  0  0
 18 24  1  6  0  0  0
 18  2  1  0  0  0  0
 19 21  1  0  0  0  0
 20  9  1  0  0  0  0
 21 26  1  1  0  0  0
 21  9  1  0  0  0  0
 22 25  1  0  0  0  0
 22  4  1  0  0  0  0
 23 16  1  0  0  0  0
 25 11  1  0  0  0  0
 26 27  1  0  0  0  0
 27 29  1  0  0  0  0
 27 28  1  6  0  0  0
 29 30  1  0  0  0  0
M  END
>  <MODEL>
4

>  <REMARK>
 VINA RESULT:      -7.1      1.967      4.765
  Name = 
  3 active torsions:
  status: ('A' for Active; 'I' for Inactive)
    1  A    between atoms: C_7  and  C_10
    2  A    between atoms: C_7  and  C_15
    3  A    between atoms: C_10  and  C_25
                            x       y       z     vdW  Elec       q    Type
                         _______ _______ _______ _____ _____    ______ ____

>  <TORSDO>
F 3

$$$$
=
 OpenBabel11052417073D

 30 33  0  0  1  0  0  0  0  0999 V2000
  191.6340  176.0570  144.3930 C   0  0  0  0  0  0  0  0  0  0  0  0
  193.7600  175.6240  145.7420 C   0  0  1  0  0  3  0  0  0  0  0  0
  194.1230  174.5700  142.9610 C   0  0  1  0  0  3  0  0  0  0  0  0
  191.1090  174.8370  143.6070 C   0  0  2  0  0  3  0  0  0  0  0  0
  190.8470  176.8680  145.1350 C   0  0  0  0  0  3  0  0  0  0  0  0
  187.8810  175.6660  146.8690 O   0  0  0  0  0  0  0  0  0  0  0  0
  189.2130  175.5870  146.4550 C   0  0  2  0  0  3  0  0  0  0  0  0
  188.6350  177.7560  145.9500 C   0  0  0  0  0  2  0  0  0  0  0  0
  193.7180  174.1220  141.6200 N   0  0  0  0  0  0  0  0  0  0  0  0
  189.3960  176.6130  145.3720 C   0  0  1  0  0  3  0  0  0  0  0  0
  189.6910  174.1600  146.1370 C   0  0  0  0  0  2  0  0  0  0  0  0
  195.2700  175.8360  145.7630 C   0  0  0  0  0  2  0  0  0  0  0  0
  186.2100  177.2380  146.1840 C   0  0  0  0  0  1  0  0  0  0  0  0
  193.1850  176.1550  147.0440 C   0  0  0  0  0  1  0  0  0  0  0  0
  195.5500  174.1500  143.2760 C   0  0  0  0  0  2  0  0  0  0  0  0
  196.0390  174.5150  145.7500 C   0  0  0  0  0  2  0  0  0  0  0  0
  187.5820  177.0470  146.8010 C   0  0  1  0  0  3  0  0  0  0  0  0
  193.1250  176.3170  144.5160 C   0  0  1  0  0  3  0  0  0  0  0  0
  191.3910  174.9990  142.1110 C   0  0  0  0  0  2  0  0  0  0  0  0
  194.1230  175.0550  140.5710 C   0  0  0  0  0  1  0  0  0  0  0  0
  192.2710  173.8810  141.5220 C   0  0  2  0  0  3  0  0  0  0  0  0
  189.7200  174.6560  143.7330 O   0  0  0  0  0  0  0  0  0  0  0  0
  195.5910  173.5310  144.6660 C   0  0  0  0  0  2  0  0  0  0  0  0
  193.9010  176.0690  143.2150 C   0  0  0  0  0  2  0  0  0  0  0  0
  189.4820  173.6630  144.6980 C   0  0  0  0  0  2  0  0  0  0  0  0
  191.8970  172.4860  142.0220 C   0  0  0  0  0  2  0  0  0  0  0  0
  190.9370  171.7870  141.0700 C   0  0  1  0  0  3  0  0  0  0  0  0
  191.3020  170.3200  141.0030 C   0  0  0  0  0  1  0  0  0  0  0  0
  189.5030  171.9140  141.5590 C   0  0  0  0  0  2  0  0  0  0  0  0
  188.7240  172.8820  140.6900 C   0  0  0  0  0  1  0  0  0  0  0  0
  1 18  1  0  0  0  0
  1  5  2  0  0  0  0
  2 12  1  0  0  0  0
  2 14  1  1  0  0  0
  3 24  1  6  0  0  0
  3 15  1  0  0  0  0
  4 19  1  6  0  0  0
  4 22  1  0  0  0  0
  4  1  1  0  0  0  0
  7 11  1  6  0  0  0
  7  6  1  0  0  0  0
  8 17  1  0  0  0  0
  9  3  1  0  0  0  0
 10  5  1  1  0  0  0
 10  8  1  0  0  0  0
 10  7  1  0  0  0  0
 15 23  1  0  0  0  0
 16 12  1  0  0  0  0
 17 13  1  6  0  0  0
 17  6  1  0  0  0  0
 18 24  1  6  0  0  0
 18  2  1  0  0  0  0
 20  9  1  0  0  0  0
 21  9  1  0  0  0  0
 21 26  1  1  0  0  0
 21 19  1  0  0  0  0
 22 25  1  0  0  0  0
 23 16  1  0  0  0  0
 25 11  1  0  0  0  0
 27 28  1  1  0  0  0
 27 29  1  0  0  0  0
 27 26  1  0  0  0  0
 30 29  1  0  0  0  0
M  END
>  <MODEL>
5

>  <REMARK>
 VINA RESULT:      -6.8      2.526      5.731
  Name = 
  3 active torsions:
  status: ('A' for Active; 'I' for Inactive)
    1  A    between atoms: C_7  and  C_10
    2  A    between atoms: C_7  and  C_15
    3  A    between atoms: C_10  and  C_25
                            x       y       z     vdW  Elec       q    Type
                         _______ _______ _______ _____ _____    ______ ____

>  <TORSDO>
F 3

$$$$
=
 OpenBabel11052417073D

 30 33  0  0  1  0  0  0  0  0999 V2000
  190.9210  175.2280  143.2100 C   0  0  0  0  0  0  0  0  0  0  0  0
  189.7710  176.2960  145.2260 C   0  0  1  0  0  3  0  0  0  0  0  0
  192.6930  175.9810  145.8070 C   0  0  1  0  0  3  0  0  0  0  0  0
  191.8480  174.0410  143.5490 C   0  0  2  0  0  3  0  0  0  0  0  0
  190.0240  175.2150  142.1980 C   0  0  0  0  0  3  0  0  0  0  0  0
  188.3240  172.1800  141.1280 O   0  0  0  0  0  0  0  0  0  0  0  0
  188.8190  173.0730  142.0810 C   0  0  2  0  0  3  0  0  0  0  0  0
  188.9650  174.2670  140.1190 C   0  0  0  0  0  2  0  0  0  0  0  0
  194.0620  175.4700  145.6290 N   0  0  0  0  0  0  0  0  0  0  0  0
  189.7470  174.0110  141.3610 C   0  0  1  0  0  3  0  0  0  0  0  0
  189.3700  172.4010  143.3490 C   0  0  0  0  0  2  0  0  0  0  0  0
  189.8040  177.4920  146.1710 C   0  0  0  0  0  2  0  0  0  0  0  0
  188.6750  172.2000  138.7590 C   0  0  0  0  0  1  0  0  0  0  0  0
  188.3750  176.1900  144.6370 C   0  0  0  0  0  1  0  0  0  0  0  0
  192.5250  176.6450  147.1640 C   0  0  0  0  0  2  0  0  0  0  0  0
  190.0550  177.0760  147.6210 C   0  0  0  0  0  2  0  0  0  0  0  0
  188.1700  172.9700  139.9650 C   0  0  1  0  0  3  0  0  0  0  0  0
  190.8440  176.4390  144.1240 C   0  0  1  0  0  3  0  0  0  0  0  0
  193.3170  174.4560  143.4290 C   0  0  0  0  0  2  0  0  0  0  0  0
  194.9820  176.4930  145.1370 C   0  0  0  0  0  1  0  0  0  0  0  0
  194.1130  174.3010  144.7370 C   0  0  2  0  0  3  0  0  0  0  0  0
  191.6720  172.9410  142.6900 O   0  0  0  0  0  0  0  0  0  0  0  0
  191.2460  176.1330  147.8130 C   0  0  0  0  0  2  0  0  0  0  0  0
  192.2080  176.8860  144.6650 C   0  0  0  0  0  2  0  0  0  0  0  0
  190.8530  171.9970  143.3320 C   0  0  0  0  0  2  0  0  0  0  0  0
  193.8050  173.0060  145.4880 C   0  0  0  0  0  2  0  0  0  0  0  0
  194.9420  172.0020  145.3630 C   0  0  1  0  0  3  0  0  0  0  0  0
  194.6030  171.0190  144.2630 C   0  0  0  0  0  1  0  0  0  0  0  0
  196.2440  172.7020  145.0100 C   0  0  0  0  0  2  0  0  0  0  0  0
  197.0100  173.0730  146.2660 C   0  0  0  0  0  1  0  0  0  0  0  0
  1  4  1  0  0  0  0
  1 18  1  0  0  0  0
  2 14  1  6  0  0  0
  2 12  1  0  0  0  0
  3 24  1  6  0  0  0
  3 15  1  0  0  0  0
  4 19  1  6  0  0  0
  5  1  2  0  0  0  0
  6  7  1  0  0  0  0
  7 11  1  1  0  0  0
  9  3  1  0  0  0  0
 10  8  1  6  0  0  0
 10  7  1  0  0  0  0
 10  5  1  0  0  0  0
 12 16  1  0  0  0  0
 15 23  1  0  0  0  0
 16 23  1  0  0  0  0
 17 13  1  6  0  0  0
 17  8  1  0  0  0  0
 17  6  1  0  0  0  0
 18 24  1  1  0  0  0
 18  2  1  0  0  0  0
 19 21  1  0  0  0  0
 20  9  1  0  0  0  0
 21 26  1  1  0  0  0
 21  9  1  0  0  0  0
 22 25  1  0  0  0  0
 22  4  1  0  0  0  0
 25 11  1  0  0  0  0
 27 28  1  6  0  0  0
 27 26  1  0  0  0  0
 29 27  1  0  0  0  0
 29 30  1  0  0  0  0
M  END
>  <MODEL>
6

>  <REMARK>
 VINA RESULT:      -6.8      2.746      5.752
  Name = 
  3 active torsions:
  status: ('A' for Active; 'I' for Inactive)
    1  A    between atoms: C_7  and  C_10
    2  A    between atoms: C_7  and  C_15
    3  A    between atoms: C_10  and  C_25
                            x       y       z     vdW  Elec       q    Type
                         _______ _______ _______ _____ _____    ______ ____

>  <TORSDO>
F 3

$$$$
=
 OpenBabel11052417073D

 30 33  0  0  1  0  0  0  0  0999 V2000
  191.1730  174.2520  145.1840 C   0  0  0  0  0  0  0  0  0  0  0  0
  190.9900  172.7030  143.1620 C   0  0  1  0  0  3  0  0  0  0  0  0
  193.8780  173.0650  143.8700 C   0  0  1  0  0  3  0  0  0  0  0  0
  192.2020  175.3920  145.0330 C   0  0  2  0  0  3  0  0  0  0  0  0
  189.9220  174.4280  145.6680 C   0  0  0  0  0  3  0  0  0  0  0  0
  188.0520  177.5120  145.1770 O   0  0  0  0  0  0  0  0  0  0  0  0
  188.8800  176.4650  144.7640 C   0  0  2  0  0  3  0  0  0  0  0  0
  188.0940  175.7380  146.8010 C   0  0  0  0  0  2  0  0  0  0  0  0
  195.0460  173.6860  144.5130 N   0  0  0  0  0  0  0  0  0  0  0  0
  189.3540  175.7660  146.0070 C   0  0  1  0  0  3  0  0  0  0  0  0
  189.9620  176.8790  143.7540 C   0  0  0  0  0  2  0  0  0  0  0  0
  191.3880  171.3340  142.6190 C   0  0  0  0  0  2  0  0  0  0  0  0
  187.3180  178.0290  147.3980 C   0  0  0  0  0  1  0  0  0  0  0  0
  189.4830  172.8460  143.0370 C   0  0  0  0  0  1  0  0  0  0  0  0
  194.3000  172.1130  142.7620 C   0  0  0  0  0  2  0  0  0  0  0  0
  192.2710  171.4400  141.3750 C   0  0  0  0  0  2  0  0  0  0  0  0
  187.3670  176.9850  146.2980 C   0  0  1  0  0  3  0  0  0  0  0  0
  191.4580  172.8690  144.6240 C   0  0  1  0  0  3  0  0  0  0  0  0
  193.4480  175.1060  145.8750 C   0  0  0  0  0  2  0  0  0  0  0  0
  195.6110  172.8540  145.5730 C   0  0  0  0  0  1  0  0  0  0  0  0
  194.7470  175.0220  145.0520 C   0  0  2  0  0  3  0  0  0  0  0  0
  191.7110  176.6390  145.4590 O   0  0  0  0  0  0  0  0  0  0  0  0
  193.4610  172.3910  141.5230 C   0  0  0  0  0  2  0  0  0  0  0  0
  192.9010  172.4010  144.8520 C   0  0  0  0  0  2  0  0  0  0  0  0
  191.3000  177.3690  144.3310 C   0  0  0  0  0  2  0  0  0  0  0  0
  194.8560  176.1010  143.9750 C   0  0  0  0  0  2  0  0  0  0  0  0
  195.1520  175.5010  142.6080 C   0  0  1  0  0  3  0  0  0  0  0  0
  194.1200  176.0080  141.6220 C   0  0  0  0  0  1  0  0  0  0  0  0
  196.5330  175.9130  142.1260 C   0  0  0  0  0  2  0  0  0  0  0  0
  197.1850  176.8610  143.1140 C   0  0  0  0  0  1  0  0  0  0  0  0
  1  5  2  0  0  0  0
  2 14  1  1  0  0  0
  2 18  1  0  0  0  0
  3 15  1  6  0  0  0
  3  9  1  0  0  0  0
  3 24  1  0  0  0  0
  4  1  1  0  0  0  0
  4 22  1  0  0  0  0
  4 19  1  1  0  0  0
  6 17  1  0  0  0  0
  7 11  1  1  0  0  0
  7  6  1  0  0  0  0
  7 10  1  0  0  0  0
  9 21  1  0  0  0  0
  9 20  1  0  0  0  0
 10  5  1  6  0  0  0
 10  8  1  0  0  0  0
 11 25  1  0  0  0  0
 12  2  1  0  0  0  0
 16 23  1  0  0  0  0
 16 12  1  0  0  0  0
 17  8  1  0  0  0  0
 17 13  1  1  0  0  0
 18 24  1  6  0  0  0
 18  1  1  0  0  0  0
 21 26  1  6  0  0  0
 21 19  1  0  0  0  0
 23 15  1  0  0  0  0
 25 22  1  0  0  0  0
 27 28  1  6  0  0  0
 27 26  1  0  0  0  0
 29 27  1  0  0  0  0
 29 30  1  0  0  0  0
M  END
>  <MODEL>
7

>  <REMARK>
 VINA RESULT:      -6.6      2.588      3.846
  Name = 
  3 active torsions:
  status: ('A' for Active; 'I' for Inactive)
    1  A    between atoms: C_7  and  C_10
    2  A    between atoms: C_7  and  C_15
    3  A    between atoms: C_10  and  C_25
                            x       y       z     vdW  Elec       q    Type
                         _______ _______ _______ _____ _____    ______ ____

>  <TORSDO>
F 3

$$$$
=
 OpenBabel11052417073D

 30 33  0  0  1  0  0  0  0  0999 V2000
  191.6530  174.7070  142.8310 C   0  0  0  0  0  0  0  0  0  0  0  0
  189.8470  175.3030  144.5360 C   0  0  1  0  0  3  0  0  0  0  0  0
  192.5450  175.7780  145.7490 C   0  0  1  0  0  3  0  0  0  0  0  0
  192.7820  173.8070  143.3760 C   0  0  2  0  0  3  0  0  0  0  0  0
  191.0340  174.5020  141.6470 C   0  0  0  0  0  3  0  0  0  0  0  0
  190.5270  171.1780  140.2530 O   0  0  0  0  0  0  0  0  0  0  0  0
  190.5360  172.1200  141.2850 C   0  0  2  0  0  3  0  0  0  0  0  0
  190.7540  173.4130  139.3930 C   0  0  0  0  0  2  0  0  0  0  0  0
  194.0070  175.6770  145.8800 N   0  0  0  0  0  0  0  0  0  0  0  0
  191.2930  173.3160  140.7790 C   0  0  1  0  0  3  0  0  0  0  0  0
  190.9700  171.5590  142.6480 C   0  0  0  0  0  2  0  0  0  0  0  0
  189.3390  176.4080  145.4560 C   0  0  0  0  0  2  0  0  0  0  0  0
  191.3550  171.4240  138.0200 C   0  0  0  0  0  1  0  0  0  0  0  0
  188.6960  174.8480  143.6560 C   0  0  0  0  0  1  0  0  0  0  0  0
  191.9110  176.2940  147.0300 C   0  0  0  0  0  2  0  0  0  0  0  0
  189.3820  175.9990  146.9290 C   0  0  0  0  0  2  0  0  0  0  0  0
  190.4090  171.9570  139.0780 C   0  0  1  0  0  3  0  0  0  0  0  0
  191.0450  175.7970  143.6960 C   0  0  1  0  0  3  0  0  0  0  0  0
  194.0650  174.6170  143.5780 C   0  0  0  0  0  2  0  0  0  0  0  0
  194.6840  176.9390  145.5950 C   0  0  0  0  0  1  0  0  0  0  0  0
  194.5750  174.6180  145.0310 C   0  0  2  0  0  3  0  0  0  0  0  0
  193.1120  172.7500  142.5080 O   0  0  0  0  0  0  0  0  0  0  0  0
  190.7210  175.4140  147.3850 C   0  0  0  0  0  2  0  0  0  0  0  0
  192.0800  176.5750  144.5210 C   0  0  0  0  0  2  0  0  0  0  0  0
  192.4750  171.5820  142.9610 C   0  0  0  0  0  2  0  0  0  0  0  0
  194.4910  173.2490  145.7050 C   0  0  0  0  0  2  0  0  0  0  0  0
  195.6790  172.3700  145.3380 C   0  0  1  0  0  3  0  0  0  0  0  0
  196.8990  172.8660  146.0860 C   0  0  0  0  0  1  0  0  0  0  0  0
  195.4200  170.9230  145.7280 C   0  0  0  0  0  2  0  0  0  0  0  0
  196.6940  170.2690  146.2290 C   0  0  0  0  0  1  0  0  0  0  0  0
  1  4  1  0  0  0  0
  1 18  1  0  0  0  0
  2 14  1  6  0  0  0
  2 12  1  0  0  0  0
  3 24  1  6  0  0  0
  3  9  1  0  0  0  0
  3 15  1  0  0  0  0
  4 19  1  6  0  0  0
  5  1  2  0  0  0  0
  6  7  1  0  0  0  0
  7 11  1  1  0  0  0
 10  8  1  6  0  0  0
 10  7  1  0  0  0  0
 10  5  1  0  0  0  0
 11 25  1  0  0  0  0
 12 16  1  0  0  0  0
 15 23  1  0  0  0  0
 16 23  1  0  0  0  0
 17 13  1  6  0  0  0
 17  8  1  0  0  0  0
 17  6  1  0  0  0  0
 18 24  1  1  0  0  0
 18  2  1  0  0  0  0
 19 21  1  0  0  0  0
 20  9  1  0  0  0  0
 21 26  1  1  0  0  0
 21  9  1  0  0  0  0
 22 25  1  0  0  0  0
 22  4  1  0  0  0  0
 27 26  1  0  0  0  0
 27 29  1  0  0  0  0
 27 28  1  1  0  0  0
 29 30  1  0  0  0  0
M  END
>  <MODEL>
8

>  <REMARK>
 VINA RESULT:      -6.5      3.171      6.338
  Name = 
  3 active torsions:
  status: ('A' for Active; 'I' for Inactive)
    1  A    between atoms: C_7  and  C_10
    2  A    between atoms: C_7  and  C_15
    3  A    between atoms: C_10  and  C_25
                            x       y       z     vdW  Elec       q    Type
                         _______ _______ _______ _____ _____    ______ ____

>  <TORSDO>
F 3

$$$$
=
 OpenBabel11052417073D

 30 33  0  0  1  0  0  0  0  0999 V2000
  191.1080  174.9310  143.8120 C   0  0  0  0  0  0  0  0  0  0  0  0
  189.7260  177.0700  143.6210 C   0  0  1  0  0  3  0  0  0  0  0  0
  188.4170  174.9020  142.0200 C   0  0  1  0  0  3  0  0  0  0  0  0
  191.4040  174.2320  142.4690 C   0  0  2  0  0  3  0  0  0  0  0  0
  192.0380  175.1400  144.7720 C   0  0  0  0  0  3  0  0  0  0  0  0
  195.5460  175.7290  144.0010 O   0  0  0  0  0  0  0  0  0  0  0  0
  194.1720  175.9020  143.8140 C   0  0  2  0  0  3  0  0  0  0  0  0
  194.2950  174.8310  145.8480 C   0  0  0  0  0  2  0  0  0  0  0  0
  188.3120  173.6130  141.3190 N   0  0  0  0  0  0  0  0  0  0  0  0
  193.4850  174.8190  144.5970 C   0  0  1  0  0  3  0  0  0  0  0  0
  193.7510  176.0610  142.3450 C   0  0  0  0  0  2  0  0  0  0  0  0
  188.3290  177.6540  143.8040 C   0  0  0  0  0  2  0  0  0  0  0  0
  196.6590  174.1660  145.4330 C   0  0  0  0  0  1  0  0  0  0  0  0
  190.7050  177.9170  144.4140 C   0  0  0  0  0  1  0  0  0  0  0  0
  187.2720  175.8290  141.6450 C   0  0  0  0  0  2  0  0  0  0  0  0
  187.7470  178.1840  142.4930 C   0  0  0  0  0  2  0  0  0  0  0  0
  195.6590  175.3030  145.3450 C   0  0  1  0  0  3  0  0  0  0  0  0
  189.7640  175.5910  144.0640 C   0  0  1  0  0  3  0  0  0  0  0  0
  190.5500  172.9700  142.3200 C   0  0  0  0  0  2  0  0  0  0  0  0
  187.4430  172.6660  142.0130 C   0  0  0  0  0  1  0  0  0  0  0  0
  189.6250  172.9900  141.0900 C   0  0  2  0  0  3  0  0  0  0  0  0
  192.7440  173.8220  142.3440 O   0  0  0  0  0  0  0  0  0  0  0  0
  187.8340  177.2050  141.3190 C   0  0  0  0  0  2  0  0  0  0  0  0
  188.5730  174.7750  143.5440 C   0  0  0  0  0  2  0  0  0  0  0  0
  193.4330  174.7720  141.5700 C   0  0  0  0  0  2  0  0  0  0  0  0
  190.2970  173.5380  139.8320 C   0  0  0  0  0  2  0  0  0  0  0  0
  190.2270  172.5450  138.6800 C   0  0  1  0  0  3  0  0  0  0  0  0
  190.2970  171.1420  139.2450 C   0  0  0  0  0  1  0  0  0  0  0  0
  188.9240  172.7000  137.9130 C   0  0  0  0  0  2  0  0  0  0  0  0
  188.5670  174.1660  137.7530 C   0  0  0  0  0  1  0  0  0  0  0  0
  1 18  1  0  0  0  0
  1  5  2  0  0  0  0
  2 12  1  0  0  0  0
  2 18  1  0  0  0  0
  2 14  1  1  0  0  0
  3 15  1  1  0  0  0
  3 24  1  0  0  0  0
  4 19  1  1  0  0  0
  4  1  1  0  0  0  0
  6 17  1  0  0  0  0
  7 11  1  6  0  0  0
  7  6  1  0  0  0  0
  7 10  1  0  0  0  0
  9 20  1  0  0  0  0
  9  3  1  0  0  0  0
 10  5  1  1  0  0  0
 10  8  1  0  0  0  0
 16 12  1  0  0  0  0
 17 13  1  6  0  0  0
 17  8  1  0  0  0  0
 18 24  1  6  0  0  0
 21 26  1  6  0  0  0
 21  9  1  0  0  0  0
 21 19  1  0  0  0  0
 22  4  1  0  0  0  0
 23 15  1  0  0  0  0
 23 16  1  0  0  0  0
 25 22  1  0  0  0  0
 25 11  1  0  0  0  0
 27 28  1  1  0  0  0
 27 26  1  0  0  0  0
 29 27  1  0  0  0  0
 30 29  1  0  0  0  0
M  END
>  <MODEL>
9

>  <REMARK>
 VINA RESULT:      -6.5      2.440      6.824
  Name = 
  3 active torsions:
  status: ('A' for Active; 'I' for Inactive)
    1  A    between atoms: C_7  and  C_10
    2  A    between atoms: C_7  and  C_15
    3  A    between atoms: C_10  and  C_25
                            x       y       z     vdW  Elec       q    Type
                         _______ _______ _______ _____ _____    ______ ____

>  <TORSDO>
F 3

$$$$
