=
 OpenBabel11052417393D

 25 29  0  0  1  0  0  0  0  0999 V2000
  190.3560  177.7220  144.2770 C   0  0  1  0  0  3  0  0  0  0  0  0
  189.0580  177.0910  144.1260 N   0  0  0  0  0  0  0  0  0  0  0  0
  191.5880  175.2670  143.6400 C   0  0  1  0  0  3  0  0  0  0  0  0
  191.1300  177.0260  145.4430 C   0  0  2  0  0  3  0  0  0  0  0  0
  187.1510  178.0680  143.0670 C   0  0  0  0  0  0  0  0  0  0  0  0
  190.6930  176.1730  142.7470 C   0  0  2  0  0  3  0  0  0  0  0  0
  193.9390  174.9550  143.8780 O   0  0  0  0  0  1  0  0  0  0  0  0
  192.5400  176.4400  145.1880 C   0  0  2  0  0  0  0  0  0  0  0  0
  188.2830  176.1150  141.9460 C   0  0  1  0  0  3  0  0  0  0  0  0
  187.1800  175.0790  142.1090 C   0  0  0  0  0  1  0  0  0  0  0  0
  187.8730  177.8930  144.1730 C   0  0  0  0  0  3  0  0  0  0  0  0
  191.0070  177.5190  143.0470 O   0  0  0  0  0  0  0  0  0  0  0  0
  192.9440  175.9330  143.7940 C   0  0  2  0  0  3  0  0  0  0  0  0
  187.7080  177.5320  141.7700 C   0  0  1  0  0  3  0  0  0  0  0  0
  191.3070  175.5500  145.1280 C   0  0  2  0  0  3  0  0  0  0  0  0
  186.7450  177.6260  140.5940 C   0  0  0  0  0  1  0  0  0  0  0  0
  189.2340  176.0130  143.1540 C   0  0  2  0  0  3  0  0  0  0  0  0
  193.3500  176.0320  146.4090 C   0  0  0  0  0  2  0  0  0  0  0  0
  194.3990  177.0860  146.7050 C   0  0  0  0  0  1  0  0  0  0  0  0
  185.9060  178.9010  143.1140 C   0  0  0  0  0  2  0  0  0  0  0  0
  184.7440  178.1230  143.7110 C   0  0  0  0  0  2  0  0  0  0  0  0
  184.6390  177.9190  146.2130 C   0  0  0  0  0  0  0  0  0  0  0  0
  185.2150  176.6550  146.1590 O   0  0  0  0  0  0  0  0  0  0  0  0
  184.3290  178.4160  147.3270 O   0  0  0  0  0  1  0  0  0  0  0  0
  184.4000  178.6580  145.0180 N   0  0  0  0  0  2  0  0  0  0  0  0
  1 12  1  6  0  0  0
  1  4  1  0  0  0  0
  2 11  1  0  0  0  0
  2  1  1  0  0  0  0
  3 13  1  0  0  0  0
  3 15  1  0  0  0  0
  5 20  1  0  0  0  0
  5 11  2  0  0  0  0
  6 12  1  0  0  0  0
  6 17  1  0  0  0  0
  6  3  1  0  0  0  0
  8  4  1  0  0  0  0
  8 18  1  0  0  0  0
  9 10  1  0  0  0  0
  9 17  1  0  0  0  0
 13  7  1  0  0  0  0
 13  8  1  0  0  0  0
 14  9  1  0  0  0  0
 14  5  1  0  0  0  0
 15  8  1  0  0  0  0
 15  4  1  0  0  0  0
 16 14  1  0  0  0  0
 17  2  1  0  0  0  0
 18 19  1  0  0  0  0
 20 21  1  0  0  0  0
 21 25  1  0  0  0  0
 22 24  1  0  0  0  0
 23 22  2  0  0  0  0
 25 22  1  0  0  0  0
M  END
>  <MODEL>
1

>  <REMARK>
 VINA RESULT:      -7.1      0.000      0.000
  Name = 
  4 active torsions:
  status: ('A' for Active; 'I' for Inactive)
    1  A    between atoms: C_6  and  C_15
    2  A    between atoms: C_8  and  C_11
    3  A    between atoms: C_15  and  C_25
    4  A    between atoms: N_21  and  C_25
                            x       y       z     vdW  Elec       q    Type
                         _______ _______ _______ _____ _____    ______ ____

>  <TORSDO>
F 4

$$$$
=
 OpenBabel11052417393D

 25 29  0  0  1  0  0  0  0  0999 V2000
  188.5650  176.9610  143.5460 C   0  0  1  0  0  3  0  0  0  0  0  0
  188.8190  175.7820  144.3550 N   0  0  0  0  0  0  0  0  0  0  0  0
  186.2130  177.4310  145.0300 C   0  0  1  0  0  3  0  0  0  0  0  0
  187.2220  176.7690  142.7710 C   0  0  2  0  0  3  0  0  0  0  0  0
  190.9500  175.1080  145.2010 C   0  0  0  0  0  0  0  0  0  0  0  0
  187.6930  177.4620  145.5070 C   0  0  2  0  0  3  0  0  0  0  0  0
  184.6350  179.0900  144.3680 O   0  0  0  0  0  1  0  0  0  0  0  0
  186.0980  177.8250  142.9060 C   0  0  2  0  0  0  0  0  0  0  0  0
  189.2030  175.9080  146.8320 C   0  0  1  0  0  3  0  0  0  0  0  0
  188.9340  174.5930  147.5500 C   0  0  0  0  0  1  0  0  0  0  0  0
  190.0590  175.0820  144.2100 C   0  0  0  0  0  3  0  0  0  0  0  0
  188.4700  178.0210  144.4660 O   0  0  0  0  0  0  0  0  0  0  0  0
  185.9540  178.6650  144.1850 C   0  0  2  0  0  3  0  0  0  0  0  0
  190.6700  176.0140  146.3750 C   0  0  1  0  0  3  0  0  0  0  0  0
  186.0860  176.5660  143.7600 C   0  0  2  0  0  3  0  0  0  0  0  0
  191.6500  175.8560  147.5300 C   0  0  0  0  0  1  0  0  0  0  0  0
  188.2120  176.0380  145.6590 C   0  0  2  0  0  3  0  0  0  0  0  0
  184.9400  177.7330  141.9240 C   0  0  0  0  0  2  0  0  0  0  0  0
  185.3400  178.3510  140.5990 C   0  0  0  0  0  1  0  0  0  0  0  0
  192.2470  174.3710  145.0570 C   0  0  0  0  0  2  0  0  0  0  0  0
  193.1420  175.0280  144.0180 C   0  0  0  0  0  2  0  0  0  0  0  0
  194.5620  176.5980  145.3720 C   0  0  0  0  0  0  0  0  0  0  0  0
  195.2820  175.5320  145.8990 O   0  0  0  0  0  1  0  0  0  0  0  0
  194.8480  177.7740  145.7160 O   0  0  0  0  0  0  0  0  0  0  0  0
  193.5050  176.3700  144.4440 N   0  0  0  0  0  2  0  0  0  0  0  0
  1  2  1  0  0  0  0
  1 12  1  1  0  0  0
  2 17  1  0  0  0  0
  3  6  1  0  0  0  0
  4  8  1  0  0  0  0
  4  1  1  0  0  0  0
  4 15  1  0  0  0  0
  5 14  1  0  0  0  0
  6 17  1  0  0  0  0
  8 15  1  0  0  0  0
  8 13  1  0  0  0  0
  9 10  1  0  0  0  0
 11  2  1  0  0  0  0
 11  5  2  0  0  0  0
 12  6  1  0  0  0  0
 13  7  1  0  0  0  0
 13  3  1  0  0  0  0
 14  9  1  0  0  0  0
 14 16  1  0  0  0  0
 15  3  1  0  0  0  0
 17  9  1  0  0  0  0
 18  8  1  0  0  0  0
 19 18  1  0  0  0  0
 20  5  1  0  0  0  0
 21 25  1  0  0  0  0
 21 20  1  0  0  0  0
 22 24  2  0  0  0  0
 22 23  1  0  0  0  0
 25 22  1  0  0  0  0
M  END
>  <MODEL>
2

>  <REMARK>
 VINA RESULT:      -7.0      2.184      7.234
  Name = 
  4 active torsions:
  status: ('A' for Active; 'I' for Inactive)
    1  A    between atoms: C_6  and  C_15
    2  A    between atoms: C_8  and  C_11
    3  A    between atoms: C_15  and  C_25
    4  A    between atoms: N_21  and  C_25
                            x       y       z     vdW  Elec       q    Type
                         _______ _______ _______ _____ _____    ______ ____

>  <TORSDO>
F 4

$$$$
=
 OpenBabel11052417393D

 25 29  0  0  1  0  0  0  0  0999 V2000
  189.1340  176.5500  144.4650 C   0  0  1  0  0  3  0  0  0  0  0  0
  188.4370  177.6680  145.0760 N   0  0  0  0  0  0  0  0  0  0  0  0
  190.5450  176.1570  146.8750 C   0  0  1  0  0  3  0  0  0  0  0  0
  190.6630  176.8670  144.4180 C   0  0  2  0  0  3  0  0  0  0  0  0
  186.1110  178.1600  144.8280 C   0  0  0  0  0  0  0  0  0  0  0  0
  189.0220  176.0070  146.5980 C   0  0  2  0  0  3  0  0  0  0  0  0
  192.3770  174.6370  147.0110 O   0  0  0  0  0  1  0  0  0  0  0  0
  191.6740  175.8790  145.0500 C   0  0  2  0  0  0  0  0  0  0  0  0
  186.9480  177.3920  147.0780 C   0  0  1  0  0  3  0  0  0  0  0  0
  186.7430  178.6830  147.8580 C   0  0  0  0  0  1  0  0  0  0  0  0
  187.3570  178.2940  144.3750 C   0  0  0  0  0  3  0  0  0  0  0  0
  188.8720  175.4530  145.3060 O   0  0  0  0  0  0  0  0  0  0  0  0
  191.2680  174.9860  146.2340 C   0  0  2  0  0  3  0  0  0  0  0  0
  185.8800  177.2150  145.9830 C   0  0  1  0  0  3  0  0  0  0  0  0
  191.1820  177.0910  145.8280 C   0  0  2  0  0  3  0  0  0  0  0  0
  184.4640  177.2520  146.5420 C   0  0  0  0  0  1  0  0  0  0  0  0
  188.3800  177.3850  146.5090 C   0  0  2  0  0  3  0  0  0  0  0  0
  193.1450  176.0950  144.7310 C   0  0  0  0  0  2  0  0  0  0  0  0
  193.5850  175.1240  143.6530 C   0  0  0  0  0  1  0  0  0  0  0  0
  184.9790  178.8190  144.1010 C   0  0  0  0  0  2  0  0  0  0  0  0
  184.4200  177.9150  143.0140 C   0  0  0  0  0  2  0  0  0  0  0  0
  185.9970  177.5710  141.0870 C   0  0  0  0  0  0  0  0  0  0  0  0
  186.5470  176.4530  141.7040 O   0  0  0  0  0  1  0  0  0  0  0  0
  186.4270  177.9370  139.9630 O   0  0  0  0  0  0  0  0  0  0  0  0
  184.9480  178.3040  141.7170 N   0  0  0  0  0  2  0  0  0  0  0  0
  1  2  1  0  0  0  0
  1 12  1  1  0  0  0
  2 17  1  0  0  0  0
  4  1  1  0  0  0  0
  4  8  1  0  0  0  0
  4 15  1  0  0  0  0
  5 14  1  0  0  0  0
  6  3  1  0  0  0  0
  8 15  1  0  0  0  0
  8 13  1  0  0  0  0
  9 10  1  0  0  0  0
 11  5  2  0  0  0  0
 11  2  1  0  0  0  0
 12  6  1  0  0  0  0
 13  3  1  0  0  0  0
 13  7  1  0  0  0  0
 14 16  1  0  0  0  0
 14  9  1  0  0  0  0
 15  3  1  0  0  0  0
 17  6  1  0  0  0  0
 17  9  1  0  0  0  0
 18  8  1  0  0  0  0
 19 18  1  0  0  0  0
 20  5  1  0  0  0  0
 21 20  1  0  0  0  0
 22 23  1  0  0  0  0
 22 25  1  0  0  0  0
 24 22  2  0  0  0  0
 25 21  1  0  0  0  0
M  END
>  <MODEL>
3

>  <REMARK>
 VINA RESULT:      -6.9      2.337      3.854
  Name = 
  4 active torsions:
  status: ('A' for Active; 'I' for Inactive)
    1  A    between atoms: C_6  and  C_15
    2  A    between atoms: C_8  and  C_11
    3  A    between atoms: C_15  and  C_25
    4  A    between atoms: N_21  and  C_25
                            x       y       z     vdW  Elec       q    Type
                         _______ _______ _______ _____ _____    ______ ____

>  <TORSDO>
F 4

$$$$
=
 OpenBabel11052417393D

 25 29  0  0  1  0  0  0  0  0999 V2000
  188.8810  177.5140  144.6130 C   0  0  1  0  0  3  0  0  0  0  0  0
  189.2080  176.1560  144.2170 N   0  0  0  0  0  0  0  0  0  0  0  0
  186.9870  176.4920  146.4350 C   0  0  1  0  0  3  0  0  0  0  0  0
  187.3830  177.7990  144.2700 C   0  0  2  0  0  3  0  0  0  0  0  0
  191.4080  175.3210  143.8000 C   0  0  0  0  0  0  0  0  0  0  0  0
  188.5340  176.3300  146.4380 C   0  0  2  0  0  3  0  0  0  0  0  0
  185.4530  177.9210  147.5700 O   0  0  0  0  0  1  0  0  0  0  0  0
  186.4200  178.2910  145.3770 C   0  0  2  0  0  0  0  0  0  0  0  0
  190.1640  174.4810  145.8250 C   0  0  1  0  0  3  0  0  0  0  0  0
  189.9510  173.0380  145.3870 C   0  0  0  0  0  1  0  0  0  0  0  0
  190.3140  175.9250  143.3380 C   0  0  0  0  0  3  0  0  0  0  0  0
  189.0960  177.5520  146.0030 O   0  0  0  0  0  0  0  0  0  0  0  0
  186.6510  177.9130  146.8490 C   0  0  2  0  0  3  0  0  0  0  0  0
  191.4880  175.0480  145.2830 C   0  0  1  0  0  3  0  0  0  0  0  0
  186.4930  176.8160  145.0120 C   0  0  2  0  0  3  0  0  0  0  0  0
  192.6910  174.2090  145.6960 C   0  0  0  0  0  1  0  0  0  0  0  0
  188.9440  175.3120  145.3820 C   0  0  2  0  0  3  0  0  0  0  0  0
  185.0630  178.8150  144.9320 C   0  0  0  0  0  2  0  0  0  0  0  0
  185.2280  180.1650  144.2630 C   0  0  0  0  0  1  0  0  0  0  0  0
  192.5650  175.0700  142.8810 C   0  0  0  0  0  2  0  0  0  0  0  0
  193.3730  176.3380  142.6540 C   0  0  0  0  0  2  0  0  0  0  0  0
  195.5670  176.2830  143.8800 C   0  0  0  0  0  0  0  0  0  0  0  0
  194.9720  176.8120  145.0190 O   0  0  0  0  0  1  0  0  0  0  0  0
  196.7960  176.0130  143.8870 O   0  0  0  0  0  0  0  0  0  0  0  0
  194.7960  176.0420  142.7050 N   0  0  0  0  0  2  0  0  0  0  0  0
  1 12  1  1  0  0  0
  2  1  1  0  0  0  0
  2 17  1  0  0  0  0
  3  6  1  0  0  0  0
  3 13  1  0  0  0  0
  4  1  1  0  0  0  0
  4 15  1  0  0  0  0
  4  8  1  0  0  0  0
  5 14  1  0  0  0  0
  8 13  1  0  0  0  0
 10  9  1  0  0  0  0
 11  5  2  0  0  0  0
 11  2  1  0  0  0  0
 12  6  1  0  0  0  0
 13  7  1  0  0  0  0
 14 16  1  0  0  0  0
 14  9  1  0  0  0  0
 15  8  1  0  0  0  0
 15  3  1  0  0  0  0
 17  9  1  0  0  0  0
 17  6  1  0  0  0  0
 18  8  1  0  0  0  0
 19 18  1  0  0  0  0
 20  5  1  0  0  0  0
 21 25  1  0  0  0  0
 21 20  1  0  0  0  0
 22 24  2  0  0  0  0
 22 23  1  0  0  0  0
 25 22  1  0  0  0  0
M  END
>  <MODEL>
4

>  <REMARK>
 VINA RESULT:      -6.8      2.302      7.263
  Name = 
  4 active torsions:
  status: ('A' for Active; 'I' for Inactive)
    1  A    between atoms: C_6  and  C_15
    2  A    between atoms: C_8  and  C_11
    3  A    between atoms: C_15  and  C_25
    4  A    between atoms: N_21  and  C_25
                            x       y       z     vdW  Elec       q    Type
                         _______ _______ _______ _____ _____    ______ ____

>  <TORSDO>
F 4

$$$$
=
 OpenBabel11052417393D

 25 29  0  0  1  0  0  0  0  0999 V2000
  192.8670  175.2900  143.9630 C   0  0  1  0  0  3  0  0  0  0  0  0
  192.0910  176.1530  144.8350 N   0  0  0  0  0  0  0  0  0  0  0  0
  194.9940  175.3920  145.8120 C   0  0  1  0  0  3  0  0  0  0  0  0
  194.1440  176.0560  143.4900 C   0  0  2  0  0  3  0  0  0  0  0  0
  189.7640  175.9080  145.3220 C   0  0  0  0  0  0  0  0  0  0  0  0
  193.5750  174.7790  145.9870 C   0  0  2  0  0  3  0  0  0  0  0  0
  197.1440  174.5060  145.2860 O   0  0  0  0  0  1  0  0  0  0  0  0
  195.5440  175.4360  143.7200 C   0  0  2  0  0  0  0  0  0  0  0  0
  191.4330  175.4750  147.1610 C   0  0  1  0  0  3  0  0  0  0  0  0
  191.1020  176.6570  148.0610 C   0  0  0  0  0  1  0  0  0  0  0  0
  190.7150  176.4070  144.5330 C   0  0  0  0  0  3  0  0  0  0  0  0
  193.2100  174.1810  144.7580 O   0  0  0  0  0  0  0  0  0  0  0  0
  195.8010  174.4850  144.9000 C   0  0  2  0  0  3  0  0  0  0  0  0
  190.1860  174.9600  146.4190 C   0  0  1  0  0  3  0  0  0  0  0  0
  194.9770  176.4560  144.6970 C   0  0  2  0  0  3  0  0  0  0  0  0
  189.0620  174.5740  147.3720 C   0  0  0  0  0  1  0  0  0  0  0  0
  192.5580  175.8940  146.1950 C   0  0  2  0  0  3  0  0  0  0  0  0
  196.7150  176.0840  142.9980 C   0  0  0  0  0  2  0  0  0  0  0  0
  197.0770  175.2690  141.7720 C   0  0  0  0  0  1  0  0  0  0  0  0
  188.3230  176.1770  145.0140 C   0  0  0  0  0  2  0  0  0  0  0  0
  187.8990  177.5500  145.5130 C   0  0  0  0  0  2  0  0  0  0  0  0
  186.0210  179.0760  144.8330 C   0  0  0  0  0  0  0  0  0  0  0  0
  185.6570  179.2600  146.1620 O   0  0  0  0  0  1  0  0  0  0  0  0
  185.3740  179.6560  143.9240 O   0  0  0  0  0  0  0  0  0  0  0  0
  187.1230  178.2380  144.4930 N   0  0  0  0  0  2  0  0  0  0  0  0
  1 12  1  1  0  0  0
  1  2  1  0  0  0  0
  2 17  1  0  0  0  0
  3  6  1  0  0  0  0
  4  8  1  0  0  0  0
  4  1  1  0  0  0  0
  4 15  1  0  0  0  0
  5 14  1  0  0  0  0
  6 17  1  0  0  0  0
  8 15  1  0  0  0  0
  8 13  1  0  0  0  0
  9 10  1  0  0  0  0
 11  2  1  0  0  0  0
 11  5  2  0  0  0  0
 12  6  1  0  0  0  0
 13  7  1  0  0  0  0
 13  3  1  0  0  0  0
 14  9  1  0  0  0  0
 14 16  1  0  0  0  0
 15  3  1  0  0  0  0
 17  9  1  0  0  0  0
 18  8  1  0  0  0  0
 19 18  1  0  0  0  0
 20  5  1  0  0  0  0
 20 21  1  0  0  0  0
 22 23  1  0  0  0  0
 24 22  2  0  0  0  0
 25 22  1  0  0  0  0
 25 21  1  0  0  0  0
M  END
>  <MODEL>
5

>  <REMARK>
 VINA RESULT:      -6.7      2.474      4.467
  Name = 
  4 active torsions:
  status: ('A' for Active; 'I' for Inactive)
    1  A    between atoms: C_6  and  C_15
    2  A    between atoms: C_8  and  C_11
    3  A    between atoms: C_15  and  C_25
    4  A    between atoms: N_21  and  C_25
                            x       y       z     vdW  Elec       q    Type
                         _______ _______ _______ _____ _____    ______ ____

>  <TORSDO>
F 4

$$$$
=
 OpenBabel11052417393D

 25 29  0  0  1  0  0  0  0  0999 V2000
  192.8400  175.5600  144.1520 C   0  0  1  0  0  3  0  0  0  0  0  0
  192.0860  176.3390  145.1190 N   0  0  0  0  0  0  0  0  0  0  0  0
  194.9620  175.3820  146.0010 C   0  0  1  0  0  3  0  0  0  0  0  0
  194.1410  176.3380  143.7720 C   0  0  2  0  0  3  0  0  0  0  0  0
  189.7520  176.1090  145.5740 C   0  0  0  0  0  0  0  0  0  0  0  0
  193.5250  174.7970  146.1020 C   0  0  2  0  0  3  0  0  0  0  0  0
  197.0870  174.4990  145.3750 O   0  0  0  0  0  1  0  0  0  0  0  0
  195.5200  175.6540  143.9280 C   0  0  2  0  0  0  0  0  0  0  0  0
  191.4000  175.4140  147.3490 C   0  0  1  0  0  3  0  0  0  0  0  0
  191.1010  176.4930  148.3810 C   0  0  0  0  0  1  0  0  0  0  0  0
  190.7200  176.6670  144.8480 C   0  0  0  0  0  3  0  0  0  0  0  0
  193.1470  174.3570  144.8130 O   0  0  0  0  0  0  0  0  0  0  0  0
  195.7450  174.5640  144.9890 C   0  0  2  0  0  3  0  0  0  0  0  0
  190.1410  175.0270  146.5530 C   0  0  1  0  0  3  0  0  0  0  0  0
  194.9800  176.5690  145.0180 C   0  0  2  0  0  3  0  0  0  0  0  0
  189.0030  174.5670  147.4540 C   0  0  0  0  0  1  0  0  0  0  0  0
  192.5410  175.9090  146.4390 C   0  0  2  0  0  3  0  0  0  0  0  0
  196.7130  176.3460  143.2870 C   0  0  0  0  0  2  0  0  0  0  0  0
  197.0670  175.6580  141.9830 C   0  0  0  0  0  1  0  0  0  0  0  0
  188.3200  176.4550  145.2980 C   0  0  0  0  0  2  0  0  0  0  0  0
  188.1970  177.8380  144.6780 C   0  0  0  0  0  2  0  0  0  0  0  0
  187.9410  177.9810  142.1820 C   0  0  0  0  0  0  0  0  0  0  0  0
  189.2990  178.2400  142.0330 O   0  0  0  0  0  1  0  0  0  0  0  0
  187.2030  177.9210  141.1650 O   0  0  0  0  0  0  0  0  0  0  0  0
  187.3800  177.7790  143.4770 N   0  0  0  0  0  2  0  0  0  0  0  0
  1 12  1  1  0  0  0
  1  2  1  0  0  0  0
  2 17  1  0  0  0  0
  3  6  1  0  0  0  0
  4  8  1  0  0  0  0
  4  1  1  0  0  0  0
  4 15  1  0  0  0  0
  5 14  1  0  0  0  0
  6 17  1  0  0  0  0
  8 13  1  0  0  0  0
  8 15  1  0  0  0  0
  9 10  1  0  0  0  0
 11  2  1  0  0  0  0
 11  5  2  0  0  0  0
 12  6  1  0  0  0  0
 13  7  1  0  0  0  0
 13  3  1  0  0  0  0
 14  9  1  0  0  0  0
 14 16  1  0  0  0  0
 15  3  1  0  0  0  0
 17  9  1  0  0  0  0
 18  8  1  0  0  0  0
 19 18  1  0  0  0  0
 20  5  1  0  0  0  0
 21 20  1  0  0  0  0
 22 25  1  0  0  0  0
 23 22  1  0  0  0  0
 24 22  2  0  0  0  0
 25 21  1  0  0  0  0
M  END
>  <MODEL>
6

>  <REMARK>
 VINA RESULT:      -6.7      2.635      4.834
  Name = 
  4 active torsions:
  status: ('A' for Active; 'I' for Inactive)
    1  A    between atoms: C_6  and  C_15
    2  A    between atoms: C_8  and  C_11
    3  A    between atoms: C_15  and  C_25
    4  A    between atoms: N_21  and  C_25
                            x       y       z     vdW  Elec       q    Type
                         _______ _______ _______ _____ _____    ______ ____

>  <TORSDO>
F 4

$$$$
=
 OpenBabel11052417393D

 25 29  0  0  1  0  0  0  0  0999 V2000
  188.2660  176.7960  143.3490 C   0  0  1  0  0  3  0  0  0  0  0  0
  188.5460  175.6550  144.2010 N   0  0  0  0  0  0  0  0  0  0  0  0
  186.3410  177.6740  145.2130 C   0  0  1  0  0  3  0  0  0  0  0  0
  186.7780  176.7260  142.8750 C   0  0  2  0  0  3  0  0  0  0  0  0
  190.7160  174.7710  144.6730 C   0  0  0  0  0  0  0  0  0  0  0  0
  187.8810  177.5450  145.3850 C   0  0  2  0  0  3  0  0  0  0  0  0
  184.8580  179.4740  144.7180 O   0  0  0  0  0  1  0  0  0  0  0  0
  185.8340  177.9270  143.1260 C   0  0  2  0  0  0  0  0  0  0  0  0
  189.4470  175.9060  146.5310 C   0  0  1  0  0  3  0  0  0  0  0  0
  189.1840  174.6920  147.4120 C   0  0  0  0  0  1  0  0  0  0  0  0
  189.6420  174.7900  143.8840 C   0  0  0  0  0  3  0  0  0  0  0  0
  188.4840  177.9220  144.1630 O   0  0  0  0  0  0  0  0  0  0  0  0
  186.0540  178.8680  144.3210 C   0  0  2  0  0  3  0  0  0  0  0  0
  190.7890  175.7870  145.7870 C   0  0  1  0  0  3  0  0  0  0  0  0
  185.8560  176.7450  144.0830 C   0  0  2  0  0  3  0  0  0  0  0  0
  191.9630  175.5840  146.7360 C   0  0  0  0  0  1  0  0  0  0  0  0
  188.2560  176.0800  145.5690 C   0  0  2  0  0  3  0  0  0  0  0  0
  184.4950  177.9170  142.4040 C   0  0  0  0  0  2  0  0  0  0  0  0
  184.6750  178.4060  140.9810 C   0  0  0  0  0  1  0  0  0  0  0  0
  191.8620  173.8610  144.3490 C   0  0  0  0  0  2  0  0  0  0  0  0
  191.4500  172.4000  144.4420 C   0  0  0  0  0  2  0  0  0  0  0  0
  190.3710  171.3800  142.4150 C   0  0  0  0  0  0  0  0  0  0  0  0
  189.1060  171.5970  142.9480 O   0  0  0  0  0  1  0  0  0  0  0  0
  190.4870  170.8370  141.2860 O   0  0  0  0  0  0  0  0  0  0  0  0
  191.5380  171.7690  143.1360 N   0  0  0  0  0  2  0  0  0  0  0  0
  1 12  1  1  0  0  0
  1  2  1  0  0  0  0
  2 17  1  0  0  0  0
  3  6  1  0  0  0  0
  4  8  1  0  0  0  0
  4  1  1  0  0  0  0
  4 15  1  0  0  0  0
  5 14  1  0  0  0  0
  6 17  1  0  0  0  0
  8 15  1  0  0  0  0
  8 13  1  0  0  0  0
  9 10  1  0  0  0  0
 11  2  1  0  0  0  0
 11  5  2  0  0  0  0
 12  6  1  0  0  0  0
 13  7  1  0  0  0  0
 13  3  1  0  0  0  0
 14  9  1  0  0  0  0
 14 16  1  0  0  0  0
 15  3  1  0  0  0  0
 17  9  1  0  0  0  0
 18  8  1  0  0  0  0
 19 18  1  0  0  0  0
 20 21  1  0  0  0  0
 20  5  1  0  0  0  0
 22 23  1  0  0  0  0
 22 25  1  0  0  0  0
 24 22  2  0  0  0  0
 25 21  1  0  0  0  0
M  END
>  <MODEL>
7

>  <REMARK>
 VINA RESULT:      -6.7      2.850      7.152
  Name = 
  4 active torsions:
  status: ('A' for Active; 'I' for Inactive)
    1  A    between atoms: C_6  and  C_15
    2  A    between atoms: C_8  and  C_11
    3  A    between atoms: C_15  and  C_25
    4  A    between atoms: N_21  and  C_25
                            x       y       z     vdW  Elec       q    Type
                         _______ _______ _______ _____ _____    ______ ____

>  <TORSDO>
F 4

$$$$
=
 OpenBabel11052417393D

 25 29  0  0  1  0  0  0  0  0999 V2000
  188.8500  177.5030  144.5290 C   0  0  1  0  0  3  0  0  0  0  0  0
  189.1620  176.1350  144.1570 N   0  0  0  0  0  0  0  0  0  0  0  0
  187.0430  176.5300  146.4640 C   0  0  1  0  0  3  0  0  0  0  0  0
  187.3370  177.7770  144.2470 C   0  0  2  0  0  3  0  0  0  0  0  0
  191.3420  175.2900  143.6630 C   0  0  0  0  0  0  0  0  0  0  0  0
  188.5890  176.3700  146.4010 C   0  0  2  0  0  3  0  0  0  0  0  0
  185.5600  177.9900  147.6280 O   0  0  0  0  0  1  0  0  0  0  0  0
  186.4250  178.2990  145.3830 C   0  0  2  0  0  0  0  0  0  0  0  0
  190.1940  174.5060  145.7650 C   0  0  1  0  0  3  0  0  0  0  0  0
  189.9640  173.0520  145.3780 C   0  0  0  0  0  1  0  0  0  0  0  0
  190.2260  175.8800  143.2350 C   0  0  0  0  0  3  0  0  0  0  0  0
  189.1280  177.5800  145.9060 O   0  0  0  0  0  0  0  0  0  0  0  0
  186.7240  177.9630  146.8530 C   0  0  2  0  0  3  0  0  0  0  0  0
  191.4910  175.0590  145.1470 C   0  0  1  0  0  3  0  0  0  0  0  0
  186.4840  176.8140  145.0560 C   0  0  2  0  0  3  0  0  0  0  0  0
  192.7130  174.2330  145.5280 C   0  0  0  0  0  1  0  0  0  0  0  0
  188.9530  175.3240  145.3550 C   0  0  2  0  0  3  0  0  0  0  0  0
  185.0480  178.8090  144.9860 C   0  0  0  0  0  2  0  0  0  0  0  0
  185.1790  180.1400  144.2730 C   0  0  0  0  0  1  0  0  0  0  0  0
  192.4560  175.0150  142.6990 C   0  0  0  0  0  2  0  0  0  0  0  0
  191.9890  174.1270  141.5570 C   0  0  0  0  0  2  0  0  0  0  0  0
  190.3390  172.2490  141.8100 C   0  0  0  0  0  0  0  0  0  0  0  0
  189.3910  172.9490  141.0730 O   0  0  0  0  0  0  0  0  0  0  0  0
  190.0590  171.1070  142.2600 O   0  0  0  0  0  1  0  0  0  0  0  0
  191.6240  172.8120  142.0590 N   0  0  0  0  0  2  0  0  0  0  0  0
  1 12  1  1  0  0  0
  2  1  1  0  0  0  0
  2 17  1  0  0  0  0
  3 13  1  0  0  0  0
  4  1  1  0  0  0  0
  4 15  1  0  0  0  0
  4  8  1  0  0  0  0
  5 14  1  0  0  0  0
  6  3  1  0  0  0  0
  8 13  1  0  0  0  0
 10  9  1  0  0  0  0
 11  5  2  0  0  0  0
 11  2  1  0  0  0  0
 12  6  1  0  0  0  0
 13  7  1  0  0  0  0
 14 16  1  0  0  0  0
 14  9  1  0  0  0  0
 15  8  1  0  0  0  0
 15  3  1  0  0  0  0
 17  9  1  0  0  0  0
 17  6  1  0  0  0  0
 18  8  1  0  0  0  0
 19 18  1  0  0  0  0
 20  5  1  0  0  0  0
 21 25  1  0  0  0  0
 21 20  1  0  0  0  0
 22 25  1  0  0  0  0
 22 24  1  0  0  0  0
 23 22  2  0  0  0  0
M  END
>  <MODEL>
8

>  <REMARK>
 VINA RESULT:      -6.6      2.691      6.745
  Name = 
  4 active torsions:
  status: ('A' for Active; 'I' for Inactive)
    1  A    between atoms: C_6  and  C_15
    2  A    between atoms: C_8  and  C_11
    3  A    between atoms: C_15  and  C_25
    4  A    between atoms: N_21  and  C_25
                            x       y       z     vdW  Elec       q    Type
                         _______ _______ _______ _____ _____    ______ ____

>  <TORSDO>
F 4

$$$$
=
 OpenBabel11052417393D

 25 29  0  0  1  0  0  0  0  0999 V2000
  190.2680  177.2150  143.2260 C   0  0  1  0  0  3  0  0  0  0  0  0
  191.1120  176.1720  143.7810 N   0  0  0  0  0  0  0  0  0  0  0  0
  188.4150  176.7750  145.3060 C   0  0  1  0  0  3  0  0  0  0  0  0
  188.9000  176.5920  142.7990 C   0  0  2  0  0  3  0  0  0  0  0  0
  193.4930  176.2600  143.9630 C   0  0  0  0  0  0  0  0  0  0  0  0
  189.8740  177.3070  145.3930 C   0  0  2  0  0  3  0  0  0  0  0  0
  186.2610  177.7980  145.2920 O   0  0  0  0  0  1  0  0  0  0  0  0
  187.5800  177.1800  143.3520 C   0  0  2  0  0  0  0  0  0  0  0  0
  192.1200  176.3360  146.0750 C   0  0  1  0  0  3  0  0  0  0  0  0
  192.5110  174.9850  146.6570 C   0  0  0  0  0  1  0  0  0  0  0  0
  192.4180  175.9580  143.2360 C   0  0  0  0  0  3  0  0  0  0  0  0
  190.0960  178.1400  144.2720 O   0  0  0  0  0  0  0  0  0  0  0  0
  187.5380  177.8700  144.7260 C   0  0  2  0  0  3  0  0  0  0  0  0
  193.2770  176.9670  145.2790 C   0  0  1  0  0  3  0  0  0  0  0  0
  188.2240  175.9670  144.0080 C   0  0  2  0  0  3  0  0  0  0  0  0
  194.5400  177.1210  146.1170 C   0  0  0  0  0  1  0  0  0  0  0  0
  190.8510  176.1520  145.2190 C   0  0  2  0  0  3  0  0  0  0  0  0
  186.2880  176.7230  142.6930 C   0  0  0  0  0  2  0  0  0  0  0  0
  185.8110  177.7760  141.7130 C   0  0  0  0  0  1  0  0  0  0  0  0
  194.8630  176.0300  143.3990 C   0  0  0  0  0  2  0  0  0  0  0  0
  195.2760  174.5730  143.5320 C   0  0  0  0  0  2  0  0  0  0  0  0
  196.1590  173.4890  145.6200 C   0  0  0  0  0  0  0  0  0  0  0  0
  195.0370  172.6720  145.7000 O   0  0  0  0  0  0  0  0  0  0  0  0
  197.0630  173.3940  146.4900 O   0  0  0  0  0  1  0  0  0  0  0  0
  196.2950  174.4310  144.5590 N   0  0  0  0  0  2  0  0  0  0  0  0
  1  2  1  0  0  0  0
  1 12  1  1  0  0  0
  2 17  1  0  0  0  0
  3  6  1  0  0  0  0
  4  1  1  0  0  0  0
  4  8  1  0  0  0  0
  4 15  1  0  0  0  0
  5 14  1  0  0  0  0
  8 15  1  0  0  0  0
  8 13  1  0  0  0  0
  9 10  1  0  0  0  0
 11  2  1  0  0  0  0
 11  5  2  0  0  0  0
 12  6  1  0  0  0  0
 13  7  1  0  0  0  0
 13  3  1  0  0  0  0
 14  9  1  0  0  0  0
 14 16  1  0  0  0  0
 15  3  1  0  0  0  0
 17  6  1  0  0  0  0
 17  9  1  0  0  0  0
 18  8  1  0  0  0  0
 19 18  1  0  0  0  0
 20 21  1  0  0  0  0
 20  5  1  0  0  0  0
 21 25  1  0  0  0  0
 22 23  2  0  0  0  0
 22 24  1  0  0  0  0
 25 22  1  0  0  0  0
M  END
>  <MODEL>
9

>  <REMARK>
 VINA RESULT:      -6.5      2.415      7.665
  Name = 
  4 active torsions:
  status: ('A' for Active; 'I' for Inactive)
    1  A    between atoms: C_6  and  C_15
    2  A    between atoms: C_8  and  C_11
    3  A    between atoms: C_15  and  C_25
    4  A    between atoms: N_21  and  C_25
                            x       y       z     vdW  Elec       q    Type
                         _______ _______ _______ _____ _____    ______ ____

>  <TORSDO>
F 4

$$$$
