=
 OpenBabel11052419123D

 32 37  0  0  1  0  0  0  0  0999 V2000
  189.3240  175.0390  144.8670 C   0  0  0  0  0  0  0  0  0  0  0  0
  187.7100  176.6780  144.0450 C   0  0  0  0  0  0  0  0  0  0  0  0
  189.9990  174.4530  145.9480 C   0  0  0  0  0  3  0  0  0  0  0  0
  188.3650  176.0410  145.1120 C   0  0  0  0  0  0  0  0  0  0  0  0
  186.7340  177.6550  144.3220 C   0  0  0  0  0  0  0  0  0  0  0  0
  186.4370  177.2880  139.2470 C   0  0  0  0  0  2  0  0  0  0  0  0
  188.1200  176.3780  142.6130 C   0  0  1  0  0  3  0  0  0  0  0  0
  185.3930  178.5060  140.8640 C   0  0  0  0  0  2  0  0  0  0  0  0
  186.4950  178.1260  141.8680 C   0  0  1  0  0  3  0  0  0  0  0  0
  188.0540  176.4120  146.4350 C   0  0  0  0  0  0  0  0  0  0  0  0
  186.0380  178.2940  143.2410 N   0  0  0  0  0  2  0  0  0  0  0  0
  187.1010  177.3520  146.6700 N   0  0  0  0  0  0  0  0  0  0  0  0
  188.7290  175.8150  147.5030 C   0  0  0  0  0  3  0  0  0  0  0  0
  188.5710  174.9210  142.4870 C   0  0  0  0  0  2  0  0  0  0  0  0
  189.5690  174.6140  143.5150 N   0  0  0  0  0  0  0  0  0  0  0  0
  186.9790  176.6910  141.6410 C   0  0  1  0  0  3  0  0  0  0  0  0
  186.4270  177.9640  145.6580 C   0  0  0  0  0  0  0  0  0  0  0  0
  189.7040  174.8430  147.2590 C   0  0  0  0  0  3  0  0  0  0  0  0
  185.1960  177.5130  139.8750 O   0  0  0  0  0  0  0  0  0  0  0  0
  187.3810  176.5060  140.1740 C   0  0  0  0  0  2  0  0  0  0  0  0
  191.5000  173.4830  140.9540 N   0  0  0  0  0  0  0  0  0  0  0  0
  191.5830  173.6470  139.5120 C   0  0  0  0  0  1  0  0  0  0  0  0
  190.9960  172.3370  141.6230 C   0  0  0  0  0  0  0  0  0  0  0  0
  190.8360  173.9780  143.1510 C   0  0  1  0  0  3  0  0  0  0  0  0
  190.6260  172.5690  142.8340 N   0  0  0  0  0  0  0  0  0  0  0  0
  191.4000  174.6030  141.8700 C   0  0  1  0  0  3  0  0  0  0  0  0
  192.7800  175.1700  142.1480 C   0  0  0  0  0  1  0  0  0  0  0  0
  190.0960  170.7940  139.9080 O   0  0  0  0  0  0  0  0  0  0  0  0
  190.8980  170.9960  141.0240 C   0  0  0  0  0  0  0  0  0  0  0  0
  191.5260  170.0240  141.5190 O   0  0  0  0  0  1  0  0  0  0  0  0
  185.4000  178.9960  145.9880 C   0  0  0  0  0  2  0  0  0  0  0  0
  184.1120  178.3250  146.4230 C   0  0  0  0  0  1  0  0  0  0  0  0
  1  4  2  0  0  0  0
  1  3  1  0  0  0  0
  2  5  2  0  0  0  0
  2  4  1  0  0  0  0
  3 18  2  0  0  0  0
  4 10  1  0  0  0  0
  5 17  1  0  0  0  0
  6 19  1  0  0  0  0
  6 20  1  0  0  0  0
  7 14  1  1  0  0  0
  7  2  1  0  0  0  0
  9  8  1  6  0  0  0
  9 11  1  0  0  0  0
 10 12  1  0  0  0  0
 10 13  2  0  0  0  0
 11  5  1  0  0  0  0
 14 15  1  0  0  0  0
 15  1  1  0  0  0  0
 16 20  1  6  0  0  0
 16  9  1  0  0  0  0
 16  7  1  0  0  0  0
 17 31  1  0  0  0  0
 17 12  2  0  0  0  0
 18 13  1  0  0  0  0
 19  8  1  0  0  0  0
 21 23  1  0  0  0  0
 21 26  1  0  0  0  0
 22 21  1  0  0  0  0
 23 25  2  0  0  0  0
 24 15  1  6  0  0  0
 25 24  1  0  0  0  0
 26 27  1  1  0  0  0
 26 24  1  0  0  0  0
 28 29  2  0  0  0  0
 29 30  1  0  0  0  0
 29 23  1  0  0  0  0
 31 32  1  0  0  0  0
M  END
>  <MODEL>
1

>  <REMARK>
 VINA RESULT:      -7.8      0.000      0.000
  Name = 
  3 active torsions:
  status: ('A' for Active; 'I' for Inactive)
    1  A    between atoms: C_13  and  C_29
    2  A    between atoms: C_15  and  C_19
    3  A    between atoms: C_16  and  N_27
                            x       y       z     vdW  Elec       q    Type
                         _______ _______ _______ _____ _____    ______ ____

>  <TORSDO>
F 3

$$$$
=
 OpenBabel11052419123D

 32 37  0  0  1  0  0  0  0  0999 V2000
  187.2180  176.9870  141.4540 C   0  0  0  0  0  0  0  0  0  0  0  0
  185.6020  177.7040  143.1380 C   0  0  0  0  0  0  0  0  0  0  0  0
  187.5190  176.7280  140.1080 C   0  0  0  0  0  3  0  0  0  0  0  0
  185.9450  177.4810  141.7940 C   0  0  0  0  0  0  0  0  0  0  0  0
  184.3310  178.2270  143.4470 C   0  0  0  0  0  0  0  0  0  0  0  0
  186.5490  178.0950  148.0340 C   0  0  0  0  0  2  0  0  0  0  0  0
  186.5600  177.2970  144.2450 C   0  0  1  0  0  3  0  0  0  0  0  0
  184.5200  178.7270  147.2140 C   0  0  0  0  0  2  0  0  0  0  0  0
  184.8160  177.9880  145.8980 C   0  0  1  0  0  3  0  0  0  0  0  0
  185.0010  177.7580  140.7850 C   0  0  0  0  0  0  0  0  0  0  0  0
  183.9780  178.4840  144.8140 N   0  0  0  0  0  2  0  0  0  0  0  0
  183.7860  178.2700  141.1150 N   0  0  0  0  0  0  0  0  0  0  0  0
  185.3160  177.5010  139.4490 C   0  0  0  0  0  3  0  0  0  0  0  0
  188.0080  177.4610  143.7770 C   0  0  0  0  0  2  0  0  0  0  0  0
  188.1980  176.7890  142.4890 N   0  0  0  0  0  0  0  0  0  0  0  0
  186.2950  178.1020  145.5210 C   0  0  1  0  0  3  0  0  0  0  0  0
  183.4370  178.5260  142.4050 C   0  0  0  0  0  0  0  0  0  0  0  0
  186.5690  176.9810  139.1120 C   0  0  0  0  0  3  0  0  0  0  0  0
  185.6940  179.1990  147.8460 O   0  0  0  0  0  0  0  0  0  0  0  0
  187.1670  177.6530  146.6980 C   0  0  0  0  0  2  0  0  0  0  0  0
  190.0680  174.3330  143.9140 N   0  0  0  0  0  0  0  0  0  0  0  0
  189.9770  173.4280  145.0490 C   0  0  0  0  0  1  0  0  0  0  0  0
  190.8920  175.4880  143.8490 C   0  0  0  0  0  0  0  0  0  0  0  0
  189.3070  175.8560  142.2960 C   0  0  1  0  0  3  0  0  0  0  0  0
  190.5070  176.3440  142.9680 N   0  0  0  0  0  0  0  0  0  0  0  0
  188.9930  174.5080  142.9560 C   0  0  1  0  0  3  0  0  0  0  0  0
  189.0460  173.4080  141.9120 C   0  0  0  0  0  1  0  0  0  0  0  0
  191.9920  176.5360  145.8040 O   0  0  0  0  0  1  0  0  0  0  0  0
  192.0800  175.7150  144.6870 C   0  0  0  0  0  0  0  0  0  0  0  0
  193.1830  175.1820  144.3960 O   0  0  0  0  0  0  0  0  0  0  0  0
  182.0810  179.0780  142.6940 C   0  0  0  0  0  2  0  0  0  0  0  0
  181.1230  178.7170  141.5750 C   0  0  0  0  0  1  0  0  0  0  0  0
  1  4  1  0  0  0  0
  1 15  1  0  0  0  0
  2  5  1  0  0  0  0
  2  7  1  0  0  0  0
  3  1  2  0  0  0  0
  4  2  2  0  0  0  0
  5 11  1  0  0  0  0
  7 14  1  6  0  0  0
  7 16  1  0  0  0  0
  8 19  1  0  0  0  0
  9  8  1  1  0  0  0
 10 12  2  0  0  0  0
 10  4  1  0  0  0  0
 11  9  1  0  0  0  0
 12 17  1  0  0  0  0
 13 10  1  0  0  0  0
 15 14  1  0  0  0  0
 16  9  1  0  0  0  0
 16 20  1  1  0  0  0
 17 31  1  0  0  0  0
 17  5  2  0  0  0  0
 18 13  2  0  0  0  0
 18  3  1  0  0  0  0
 19  6  1  0  0  0  0
 20  6  1  0  0  0  0
 21 22  1  0  0  0  0
 23 21  1  0  0  0  0
 23 29  1  0  0  0  0
 24 15  1  1  0  0  0
 24 26  1  0  0  0  0
 24 25  1  0  0  0  0
 25 23  2  0  0  0  0
 26 27  1  6  0  0  0
 26 21  1  0  0  0  0
 29 28  1  0  0  0  0
 30 29  2  0  0  0  0
 32 31  1  0  0  0  0
M  END
>  <MODEL>
2

>  <REMARK>
 VINA RESULT:      -7.7      2.919      5.487
  Name = 
  3 active torsions:
  status: ('A' for Active; 'I' for Inactive)
    1  A    between atoms: C_13  and  C_29
    2  A    between atoms: C_15  and  C_19
    3  A    between atoms: C_16  and  N_27
                            x       y       z     vdW  Elec       q    Type
                         _______ _______ _______ _____ _____    ______ ____

>  <TORSDO>
F 3

$$$$
=
 OpenBabel11052419123D

 32 37  0  0  1  0  0  0  0  0999 V2000
  190.8550  175.8540  145.8050 C   0  0  0  0  0  0  0  0  0  0  0  0
  189.5330  175.4250  143.7970 C   0  0  0  0  0  0  0  0  0  0  0  0
  190.9950  176.5160  147.0340 C   0  0  0  0  0  3  0  0  0  0  0  0
  189.6800  176.0380  145.0520 C   0  0  0  0  0  0  0  0  0  0  0  0
  188.3350  175.6030  143.0790 C   0  0  0  0  0  0  0  0  0  0  0  0
  190.8410  172.2920  140.1230 C   0  0  0  0  0  2  0  0  0  0  0  0
  190.6940  174.6560  143.1860 C   0  0  1  0  0  3  0  0  0  0  0  0
  188.8230  173.3470  140.0540 C   0  0  0  0  0  2  0  0  0  0  0  0
  189.2940  174.3290  141.1400 C   0  0  1  0  0  3  0  0  0  0  0  0
  188.6370  176.8420  145.5540 C   0  0  0  0  0  0  0  0  0  0  0  0
  188.1620  174.9600  141.8080 N   0  0  0  0  0  2  0  0  0  0  0  0
  187.4890  176.9880  144.8410 N   0  0  0  0  0  0  0  0  0  0  0  0
  188.7880  177.4910  146.7820 C   0  0  0  0  0  3  0  0  0  0  0  0
  191.5190  173.9840  144.2860 C   0  0  0  0  0  2  0  0  0  0  0  0
  191.8740  174.9640  145.3160 N   0  0  0  0  0  0  0  0  0  0  0  0
  190.1920  173.6310  142.1650 C   0  0  1  0  0  3  0  0  0  0  0  0
  187.3050  176.3800  143.6370 C   0  0  0  0  0  0  0  0  0  0  0  0
  189.9670  177.3340  147.5170 C   0  0  0  0  0  3  0  0  0  0  0  0
  189.4480  172.0820  140.1590 O   0  0  0  0  0  0  0  0  0  0  0  0
  191.3330  172.9040  141.4440 C   0  0  0  0  0  2  0  0  0  0  0  0
  195.0850  175.5200  144.3450 N   0  0  0  0  0  0  0  0  0  0  0  0
  195.7860  176.0460  143.1850 C   0  0  0  0  0  1  0  0  0  0  0  0
  194.9970  174.1480  144.6990 C   0  0  0  0  0  0  0  0  0  0  0  0
  193.2600  175.1010  145.7620 C   0  0  1  0  0  3  0  0  0  0  0  0
  194.0090  173.8810  145.4800 N   0  0  0  0  0  0  0  0  0  0  0  0
  193.9700  176.2060  144.9710 C   0  0  1  0  0  3  0  0  0  0  0  0
  194.4850  177.2640  145.9290 C   0  0  0  0  0  1  0  0  0  0  0  0
  197.0980  172.8620  144.9510 O   0  0  0  0  0  1  0  0  0  0  0  0
  195.9290  173.1050  144.2410 C   0  0  0  0  0  0  0  0  0  0  0  0
  195.6840  172.4350  143.2030 O   0  0  0  0  0  0  0  0  0  0  0  0
  186.0230  176.5930  142.9040 C   0  0  0  0  0  2  0  0  0  0  0  0
  185.2200  177.6930  143.5720 C   0  0  0  0  0  1  0  0  0  0  0  0
  1  3  1  0  0  0  0
  2  4  1  0  0  0  0
  3 18  2  0  0  0  0
  4 10  1  0  0  0  0
  4  1  2  0  0  0  0
  5 17  1  0  0  0  0
  5  2  2  0  0  0  0
  6 19  1  0  0  0  0
  6 20  1  0  0  0  0
  7  2  1  0  0  0  0
  7 14  1  1  0  0  0
  8 19  1  0  0  0  0
  9  8  1  6  0  0  0
  9 11  1  0  0  0  0
  9 16  1  0  0  0  0
 10 13  2  0  0  0  0
 11  5  1  0  0  0  0
 12 10  1  0  0  0  0
 13 18  1  0  0  0  0
 14 15  1  0  0  0  0
 15  1  1  0  0  0  0
 16 20  1  6  0  0  0
 16  7  1  0  0  0  0
 17 12  2  0  0  0  0
 21 23  1  0  0  0  0
 21 26  1  0  0  0  0
 22 21  1  0  0  0  0
 23 25  2  0  0  0  0
 24 15  1  6  0  0  0
 25 24  1  0  0  0  0
 26 24  1  0  0  0  0
 26 27  1  1  0  0  0
 29 23  1  0  0  0  0
 29 28  1  0  0  0  0
 30 29  2  0  0  0  0
 31 32  1  0  0  0  0
 31 17  1  0  0  0  0
M  END
>  <MODEL>
3

>  <REMARK>
 VINA RESULT:      -7.4      2.905      4.472
  Name = 
  3 active torsions:
  status: ('A' for Active; 'I' for Inactive)
    1  A    between atoms: C_13  and  C_29
    2  A    between atoms: C_15  and  C_19
    3  A    between atoms: C_16  and  N_27
                            x       y       z     vdW  Elec       q    Type
                         _______ _______ _______ _____ _____    ______ ____

>  <TORSDO>
F 3

$$$$
=
 OpenBabel11052419123D

 32 37  0  0  1  0  0  0  0  0999 V2000
  187.9530  176.3850  145.5340 C   0  0  0  0  0  0  0  0  0  0  0  0
  187.4020  176.4160  143.1550 C   0  0  0  0  0  0  0  0  0  0  0  0
  187.7260  176.8770  146.8280 C   0  0  0  0  0  3  0  0  0  0  0  0
  187.1640  176.8570  144.4680 C   0  0  0  0  0  0  0  0  0  0  0  0
  186.5780  176.8830  142.1130 C   0  0  0  0  0  0  0  0  0  0  0  0
  189.5250  173.5070  139.6850 C   0  0  0  0  0  2  0  0  0  0  0  0
  188.5930  175.5200  142.8580 C   0  0  1  0  0  3  0  0  0  0  0  0
  187.8260  174.9090  139.1080 C   0  0  0  0  0  2  0  0  0  0  0  0
  187.9970  175.6700  140.4340 C   0  0  1  0  0  3  0  0  0  0  0  0
  186.1260  177.7780  144.7100 C   0  0  0  0  0  0  0  0  0  0  0  0
  186.7940  176.4200  140.7710 N   0  0  0  0  0  2  0  0  0  0  0  0
  185.3420  178.2030  143.6840 N   0  0  0  0  0  0  0  0  0  0  0  0
  185.9060  178.2550  146.0050 C   0  0  0  0  0  3  0  0  0  0  0  0
  188.8690  174.5980  144.0470 C   0  0  0  0  0  2  0  0  0  0  0  0
  188.9530  175.3830  145.2820 N   0  0  0  0  0  0  0  0  0  0  0  0
  188.3650  174.7160  141.5750 C   0  0  1  0  0  3  0  0  0  0  0  0
  185.5280  177.7690  142.4070 C   0  0  0  0  0  0  0  0  0  0  0  0
  186.7090  177.8100  147.0600 C   0  0  0  0  0  3  0  0  0  0  0  0
  188.1990  173.5480  139.2120 O   0  0  0  0  0  0  0  0  0  0  0  0
  189.5830  173.8760  141.1750 C   0  0  0  0  0  2  0  0  0  0  0  0
  192.2810  175.9230  145.7240 N   0  0  0  0  0  0  0  0  0  0  0  0
  193.3270  176.7480  145.1410 C   0  0  0  0  0  1  0  0  0  0  0  0
  192.1190  174.5290  145.5080 C   0  0  0  0  0  0  0  0  0  0  0  0
  190.0900  175.2190  146.1880 C   0  0  1  0  0  3  0  0  0  0  0  0
  190.9290  174.1060  145.7570 N   0  0  0  0  0  0  0  0  0  0  0  0
  190.9960  176.4540  146.1380 C   0  0  1  0  0  3  0  0  0  0  0  0
  191.1080  177.0580  147.5250 C   0  0  0  0  0  1  0  0  0  0  0  0
  194.3760  173.5430  145.7610 O   0  0  0  0  0  1  0  0  0  0  0  0
  193.1860  173.6250  145.0500 C   0  0  0  0  0  0  0  0  0  0  0  0
  193.0360  172.9280  144.0120 O   0  0  0  0  0  0  0  0  0  0  0  0
  184.6370  178.2870  141.3270 C   0  0  0  0  0  2  0  0  0  0  0  0
  183.1950  178.2810  141.7980 C   0  0  0  0  0  1  0  0  0  0  0  0
  1  3  1  0  0  0  0
  2  4  1  0  0  0  0
  3 18  2  0  0  0  0
  4 10  1  0  0  0  0
  4  1  2  0  0  0  0
  5 17  1  0  0  0  0
  5  2  2  0  0  0  0
  6 20  1  0  0  0  0
  7  2  1  0  0  0  0
  7 14  1  1  0  0  0
  8 19  1  0  0  0  0
  9  8  1  6  0  0  0
  9 11  1  0  0  0  0
  9 16  1  0  0  0  0
 10 13  2  0  0  0  0
 11  5  1  0  0  0  0
 12 10  1  0  0  0  0
 13 18  1  0  0  0  0
 14 15  1  0  0  0  0
 15  1  1  0  0  0  0
 16 20  1  6  0  0  0
 16  7  1  0  0  0  0
 17 12  2  0  0  0  0
 19  6  1  0  0  0  0
 21 26  1  0  0  0  0
 22 21  1  0  0  0  0
 23 21  1  0  0  0  0
 23 25  2  0  0  0  0
 24 15  1  6  0  0  0
 25 24  1  0  0  0  0
 26 24  1  0  0  0  0
 26 27  1  1  0  0  0
 29 23  1  0  0  0  0
 29 28  1  0  0  0  0
 30 29  2  0  0  0  0
 31 32  1  0  0  0  0
 31 17  1  0  0  0  0
M  END
>  <MODEL>
4

>  <REMARK>
 VINA RESULT:      -7.4      2.311      4.086
  Name = 
  3 active torsions:
  status: ('A' for Active; 'I' for Inactive)
    1  A    between atoms: C_13  and  C_29
    2  A    between atoms: C_15  and  C_19
    3  A    between atoms: C_16  and  N_27
                            x       y       z     vdW  Elec       q    Type
                         _______ _______ _______ _____ _____    ______ ____

>  <TORSDO>
F 3

$$$$
=
 OpenBabel11052419123D

 32 37  0  0  1  0  0  0  0  0999 V2000
  189.1150  175.7870  145.2810 C   0  0  0  0  0  0  0  0  0  0  0  0
  188.2930  175.7620  142.9810 C   0  0  0  0  0  0  0  0  0  0  0  0
  189.0550  176.3280  146.5740 C   0  0  0  0  0  3  0  0  0  0  0  0
  188.2230  176.2520  144.2960 C   0  0  0  0  0  0  0  0  0  0  0  0
  187.3680  176.2230  142.0240 C   0  0  0  0  0  0  0  0  0  0  0  0
  189.9100  172.6720  139.3950 C   0  0  0  0  0  2  0  0  0  0  0  0
  189.4140  174.8170  142.5810 C   0  0  1  0  0  3  0  0  0  0  0  0
  188.1980  174.1130  138.9680 C   0  0  0  0  0  2  0  0  0  0  0  0
  188.5450  174.9090  140.2380 C   0  0  1  0  0  3  0  0  0  0  0  0
  187.2480  177.2150  144.6230 C   0  0  0  0  0  0  0  0  0  0  0  0
  187.4120  175.7100  140.6850 N   0  0  0  0  0  2  0  0  0  0  0  0
  186.3640  177.6340  143.6790 N   0  0  0  0  0  0  0  0  0  0  0  0
  187.1950  177.7410  145.9170 C   0  0  0  0  0  3  0  0  0  0  0  0
  189.7980  173.9230  143.7630 C   0  0  0  0  0  2  0  0  0  0  0  0
  190.0490  174.7440  144.9510 N   0  0  0  0  0  0  0  0  0  0  0  0
  189.0140  173.9810  141.3620 C   0  0  1  0  0  3  0  0  0  0  0  0
  186.3870  177.1540  142.4060 C   0  0  0  0  0  0  0  0  0  0  0  0
  188.1010  177.3030  146.8870 C   0  0  0  0  0  3  0  0  0  0  0  0
  188.5390  172.7440  139.0770 O   0  0  0  0  0  0  0  0  0  0  0  0
  190.1510  173.0870  140.8550 C   0  0  0  0  0  2  0  0  0  0  0  0
  193.4400  174.9930  144.9130 N   0  0  0  0  0  0  0  0  0  0  0  0
  194.4660  175.6370  144.1090 C   0  0  0  0  0  1  0  0  0  0  0  0
  193.1320  173.6070  144.8950 C   0  0  0  0  0  0  0  0  0  0  0  0
  191.2770  174.5710  145.7250 C   0  0  1  0  0  3  0  0  0  0  0  0
  191.9540  173.3370  145.3390 N   0  0  0  0  0  0  0  0  0  0  0  0
  192.2720  175.6950  145.4110 C   0  0  1  0  0  3  0  0  0  0  0  0
  192.6180  176.4370  146.6870 C   0  0  0  0  0  1  0  0  0  0  0  0
  194.0680  172.2000  143.0850 O   0  0  0  0  0  0  0  0  0  0  0  0
  194.0470  172.5540  144.4280 C   0  0  0  0  0  0  0  0  0  0  0  0
  194.8080  171.9590  145.2360 O   0  0  0  0  0  1  0  0  0  0  0  0
  185.3930  177.6670  141.4180 C   0  0  0  0  0  2  0  0  0  0  0  0
  184.1580  178.1720  142.1400 C   0  0  0  0  0  1  0  0  0  0  0  0
  1  3  1  0  0  0  0
  2  4  1  0  0  0  0
  3 18  2  0  0  0  0
  4 10  1  0  0  0  0
  4  1  2  0  0  0  0
  5 17  1  0  0  0  0
  5  2  2  0  0  0  0
  6 20  1  0  0  0  0
  7  2  1  0  0  0  0
  7 14  1  1  0  0  0
  8 19  1  0  0  0  0
  9  8  1  6  0  0  0
  9 11  1  0  0  0  0
  9 16  1  0  0  0  0
 10 13  2  0  0  0  0
 11  5  1  0  0  0  0
 12 10  1  0  0  0  0
 13 18  1  0  0  0  0
 14 15  1  0  0  0  0
 15  1  1  0  0  0  0
 16 20  1  6  0  0  0
 16  7  1  0  0  0  0
 17 12  2  0  0  0  0
 19  6  1  0  0  0  0
 21 26  1  0  0  0  0
 22 21  1  0  0  0  0
 23 21  1  0  0  0  0
 23 25  2  0  0  0  0
 24 15  1  6  0  0  0
 25 24  1  0  0  0  0
 26 24  1  0  0  0  0
 26 27  1  1  0  0  0
 28 29  2  0  0  0  0
 29 23  1  0  0  0  0
 29 30  1  0  0  0  0
 31 32  1  0  0  0  0
 31 17  1  0  0  0  0
M  END
>  <MODEL>
5

>  <REMARK>
 VINA RESULT:      -7.2      2.328      3.864
  Name = 
  3 active torsions:
  status: ('A' for Active; 'I' for Inactive)
    1  A    between atoms: C_13  and  C_29
    2  A    between atoms: C_15  and  C_19
    3  A    between atoms: C_16  and  N_27
                            x       y       z     vdW  Elec       q    Type
                         _______ _______ _______ _____ _____    ______ ____

>  <TORSDO>
F 3

$$$$
=
 OpenBabel11052419123D

 32 37  0  0  1  0  0  0  0  0999 V2000
  191.3240  175.7970  144.7250 C   0  0  0  0  0  0  0  0  0  0  0  0
  191.1960  173.8610  143.2430 C   0  0  0  0  0  0  0  0  0  0  0  0
  191.8960  176.4200  145.8440 C   0  0  0  0  0  3  0  0  0  0  0  0
  191.7840  174.5270  144.3310 C   0  0  0  0  0  0  0  0  0  0  0  0
  191.6980  172.6040  142.8520 C   0  0  0  0  0  0  0  0  0  0  0  0
  188.2160  173.5070  139.2410 C   0  0  0  0  0  2  0  0  0  0  0  0
  189.9750  174.4530  142.5580 C   0  0  1  0  0  3  0  0  0  0  0  0
  189.6820  171.8300  139.7190 C   0  0  0  0  0  2  0  0  0  0  0  0
  189.8780  172.4000  141.1350 C   0  0  1  0  0  3  0  0  0  0  0  0
  192.8440  173.9110  145.0270 C   0  0  0  0  0  0  0  0  0  0  0  0
  191.1230  171.9250  141.7250 N   0  0  0  0  0  2  0  0  0  0  0  0
  193.3110  172.7010  144.6200 N   0  0  0  0  0  0  0  0  0  0  0  0
  193.4080  174.5450  146.1360 C   0  0  0  0  0  3  0  0  0  0  0  0
  190.0430  175.9810  142.5860 C   0  0  0  0  0  2  0  0  0  0  0  0
  190.2990  176.4470  143.9530 N   0  0  0  0  0  0  0  0  0  0  0  0
  189.8450  173.9300  141.1250 C   0  0  1  0  0  3  0  0  0  0  0  0
  192.7820  172.0460  143.5510 C   0  0  0  0  0  0  0  0  0  0  0  0
  192.9310  175.7930  146.5480 C   0  0  0  0  0  3  0  0  0  0  0  0
  189.3600  172.8320  138.7720 O   0  0  0  0  0  0  0  0  0  0  0  0
  188.5690  174.4170  140.4290 C   0  0  0  0  0  2  0  0  0  0  0  0
  187.1490  177.2750  144.9310 N   0  0  0  0  0  0  0  0  0  0  0  0
  185.8950  176.5980  145.2180 C   0  0  0  0  0  1  0  0  0  0  0  0
  187.4250  178.0300  143.7600 C   0  0  0  0  0  0  0  0  0  0  0  0
  189.4570  177.4820  144.5520 C   0  0  1  0  0  3  0  0  0  0  0  0
  188.6830  178.1680  143.5230 N   0  0  0  0  0  0  0  0  0  0  0  0
  188.4200  176.8530  145.4890 C   0  0  1  0  0  3  0  0  0  0  0  0
  188.5870  177.4220  146.8850 C   0  0  0  0  0  1  0  0  0  0  0  0
  186.3550  178.2670  141.5390 O   0  0  0  0  0  0  0  0  0  0  0  0
  186.4000  178.6170  142.8830 C   0  0  0  0  0  0  0  0  0  0  0  0
  185.5650  179.4440  143.3340 O   0  0  0  0  0  1  0  0  0  0  0  0
  193.3380  170.7150  143.1670 C   0  0  0  0  0  2  0  0  0  0  0  0
  193.0670  169.7050  144.2650 C   0  0  0  0  0  1  0  0  0  0  0  0
  1  3  1  0  0  0  0
  2  4  1  0  0  0  0
  3 18  2  0  0  0  0
  4  1  2  0  0  0  0
  4 10  1  0  0  0  0
  5  2  2  0  0  0  0
  5 17  1  0  0  0  0
  6 20  1  0  0  0  0
  7 14  1  6  0  0  0
  7  2  1  0  0  0  0
  9  8  1  6  0  0  0
  9 11  1  0  0  0  0
 10 13  2  0  0  0  0
 11  5  1  0  0  0  0
 12 10  1  0  0  0  0
 13 18  1  0  0  0  0
 14 15  1  0  0  0  0
 15  1  1  0  0  0  0
 16 20  1  1  0  0  0
 16  9  1  0  0  0  0
 16  7  1  0  0  0  0
 17 12  2  0  0  0  0
 19  6  1  0  0  0  0
 19  8  1  0  0  0  0
 21 22  1  0  0  0  0
 21 26  1  0  0  0  0
 23 21  1  0  0  0  0
 24 15  1  6  0  0  0
 24 26  1  0  0  0  0
 25 23  2  0  0  0  0
 25 24  1  0  0  0  0
 26 27  1  1  0  0  0
 28 29  2  0  0  0  0
 29 30  1  0  0  0  0
 29 23  1  0  0  0  0
 31 17  1  0  0  0  0
 31 32  1  0  0  0  0
M  END
>  <MODEL>
6

>  <REMARK>
 VINA RESULT:      -7.1      2.326      6.758
  Name = 
  3 active torsions:
  status: ('A' for Active; 'I' for Inactive)
    1  A    between atoms: C_13  and  C_29
    2  A    between atoms: C_15  and  C_19
    3  A    between atoms: C_16  and  N_27
                            x       y       z     vdW  Elec       q    Type
                         _______ _______ _______ _____ _____    ______ ____

>  <TORSDO>
F 3

$$$$
=
 OpenBabel11052419123D

 32 37  0  0  1  0  0  0  0  0999 V2000
  188.1210  176.3190  141.7850 C   0  0  0  0  0  0  0  0  0  0  0  0
  188.2220  176.8440  144.1680 C   0  0  0  0  0  0  0  0  0  0  0  0
  187.4440  176.4150  140.5600 C   0  0  0  0  0  3  0  0  0  0  0  0
  187.5910  176.9640  142.9180 C   0  0  0  0  0  0  0  0  0  0  0  0
  187.6860  177.5260  145.2780 C   0  0  0  0  0  0  0  0  0  0  0  0
  191.9400  175.5170  147.2390 C   0  0  0  0  0  2  0  0  0  0  0  0
  189.4130  175.9150  144.3320 C   0  0  1  0  0  3  0  0  0  0  0  0
  190.2330  176.8120  148.0130 C   0  0  0  0  0  2  0  0  0  0  0  0
  189.3950  176.4550  146.7730 C   0  0  1  0  0  3  0  0  0  0  0  0
  186.4190  177.7390  142.8070 C   0  0  0  0  0  0  0  0  0  0  0  0
  188.3360  177.4330  146.5540 N   0  0  0  0  0  2  0  0  0  0  0  0
  185.9310  178.3920  143.8960 N   0  0  0  0  0  0  0  0  0  0  0  0
  185.7600  177.8320  141.5790 C   0  0  0  0  0  3  0  0  0  0  0  0
  190.2350  175.8780  143.0420 C   0  0  0  0  0  2  0  0  0  0  0  0
  189.3620  175.6000  141.8980 N   0  0  0  0  0  0  0  0  0  0  0  0
  190.2750  176.3370  145.5260 C   0  0  1  0  0  3  0  0  0  0  0  0
  186.5390  178.3200  145.1120 C   0  0  0  0  0  0  0  0  0  0  0  0
  186.2680  177.1650  140.4600 C   0  0  0  0  0  3  0  0  0  0  0  0
  191.6240  176.7910  147.7500 O   0  0  0  0  0  0  0  0  0  0  0  0
  191.4310  175.3680  145.7960 C   0  0  0  0  0  2  0  0  0  0  0  0
  190.1560  172.3140  141.5370 N   0  0  0  0  0  0  0  0  0  0  0  0
  190.0670  171.0900  142.3170 C   0  0  0  0  0  1  0  0  0  0  0  0
  191.3460  173.0500  141.2980 C   0  0  0  0  0  0  0  0  0  0  0  0
  189.6990  174.5410  140.9480 C   0  0  1  0  0  3  0  0  0  0  0  0
  191.1340  174.2760  140.9680 N   0  0  0  0  0  0  0  0  0  0  0  0
  189.0380  173.2210  141.3610 C   0  0  1  0  0  3  0  0  0  0  0  0
  188.1430  172.7290  140.2390 C   0  0  0  0  0  1  0  0  0  0  0  0
  193.4990  172.8130  142.4990 O   0  0  0  0  0  1  0  0  0  0  0  0
  192.7060  172.4980  141.4030 C   0  0  0  0  0  0  0  0  0  0  0  0
  193.1660  171.7480  140.5020 O   0  0  0  0  0  0  0  0  0  0  0  0
  185.9410  179.0540  146.2660 C   0  0  0  0  0  2  0  0  0  0  0  0
  184.5290  178.5620  146.5180 C   0  0  0  0  0  1  0  0  0  0  0  0
  1 15  1  0  0  0  0
  1  4  1  0  0  0  0
  2  7  1  0  0  0  0
  2  5  1  0  0  0  0
  3  1  2  0  0  0  0
  4  2  2  0  0  0  0
  5 11  1  0  0  0  0
  6 19  1  0  0  0  0
  7 14  1  6  0  0  0
  7 16  1  0  0  0  0
  9  8  1  1  0  0  0
 10  4  1  0  0  0  0
 10 12  2  0  0  0  0
 11  9  1  0  0  0  0
 12 17  1  0  0  0  0
 13 10  1  0  0  0  0
 15 14  1  0  0  0  0
 16 20  1  1  0  0  0
 16  9  1  0  0  0  0
 17  5  2  0  0  0  0
 17 31  1  0  0  0  0
 18  3  1  0  0  0  0
 18 13  2  0  0  0  0
 19  8  1  0  0  0  0
 20  6  1  0  0  0  0
 21 22  1  0  0  0  0
 23 29  1  0  0  0  0
 23 21  1  0  0  0  0
 24 25  1  0  0  0  0
 24 26  1  0  0  0  0
 24 15  1  1  0  0  0
 25 23  2  0  0  0  0
 26 27  1  6  0  0  0
 26 21  1  0  0  0  0
 29 28  1  0  0  0  0
 30 29  2  0  0  0  0
 31 32  1  0  0  0  0
M  END
>  <MODEL>
7

>  <REMARK>
 VINA RESULT:      -7.1      2.278      4.766
  Name = 
  3 active torsions:
  status: ('A' for Active; 'I' for Inactive)
    1  A    between atoms: C_13  and  C_29
    2  A    between atoms: C_15  and  C_19
    3  A    between atoms: C_16  and  N_27
                            x       y       z     vdW  Elec       q    Type
                         _______ _______ _______ _____ _____    ______ ____

>  <TORSDO>
F 3

$$$$
=
 OpenBabel11052419123D

 32 37  0  0  1  0  0  0  0  0999 V2000
  189.7560  175.5180  144.5410 C   0  0  0  0  0  0  0  0  0  0  0  0
  187.6260  176.6570  144.1840 C   0  0  0  0  0  0  0  0  0  0  0  0
  190.6860  174.9570  145.4290 C   0  0  0  0  0  3  0  0  0  0  0  0
  188.5520  176.0470  145.0450 C   0  0  0  0  0  0  0  0  0  0  0  0
  186.4170  177.1510  144.7120 C   0  0  0  0  0  0  0  0  0  0  0  0
  185.7630  177.9160  139.7160 C   0  0  0  0  0  2  0  0  0  0  0  0
  187.9700  176.8620  142.7180 C   0  0  1  0  0  3  0  0  0  0  0  0
  184.5430  178.2890  141.6020 C   0  0  0  0  0  2  0  0  0  0  0  0
  185.8010  178.0800  142.4630 C   0  0  1  0  0  3  0  0  0  0  0  0
  188.2670  175.9670  146.4230 C   0  0  0  0  0  0  0  0  0  0  0  0
  185.4500  177.7530  143.8390 N   0  0  0  0  0  2  0  0  0  0  0  0
  187.0880  176.4450  146.9010 N   0  0  0  0  0  0  0  0  0  0  0  0
  189.2000  175.4000  147.2950 C   0  0  0  0  0  3  0  0  0  0  0  0
  188.8540  175.7180  142.2190 C   0  0  0  0  0  2  0  0  0  0  0  0
  189.9930  175.5330  143.1220 N   0  0  0  0  0  0  0  0  0  0  0  0
  186.7000  176.9900  141.8720 C   0  0  1  0  0  3  0  0  0  0  0  0
  186.1570  177.0130  146.0860 C   0  0  0  0  0  0  0  0  0  0  0  0
  190.4090  174.9020  146.7990 C   0  0  0  0  0  3  0  0  0  0  0  0
  184.5840  177.5530  140.3950 O   0  0  0  0  0  0  0  0  0  0  0  0
  186.9960  177.3040  140.4010 C   0  0  0  0  0  2  0  0  0  0  0  0
  193.1360  174.3340  143.6220 N   0  0  0  0  0  0  0  0  0  0  0  0
  193.7860  173.3110  144.4260 C   0  0  0  0  0  1  0  0  0  0  0  0
  193.1870  175.7310  143.8730 C   0  0  0  0  0  0  0  0  0  0  0  0
  191.3560  175.4690  142.5940 C   0  0  1  0  0  3  0  0  0  0  0  0
  192.2280  176.3870  143.3200 N   0  0  0  0  0  0  0  0  0  0  0  0
  191.9530  174.0760  142.8230 C   0  0  1  0  0  3  0  0  0  0  0  0
  192.3520  173.4700  141.4900 C   0  0  0  0  0  1  0  0  0  0  0  0
  195.5120  176.5290  144.1720 O   0  0  0  0  0  0  0  0  0  0  0  0
  194.2240  176.3980  144.6760 C   0  0  0  0  0  0  0  0  0  0  0  0
  193.9590  176.8460  145.8230 O   0  0  0  0  0  1  0  0  0  0  0  0
  184.8890  177.5270  146.6810 C   0  0  0  0  0  2  0  0  0  0  0  0
  185.1880  178.6660  147.6370 C   0  0  0  0  0  1  0  0  0  0  0  0
  1  4  2  0  0  0  0
  1  3  1  0  0  0  0
  2  5  2  0  0  0  0
  2  4  1  0  0  0  0
  3 18  2  0  0  0  0
  4 10  1  0  0  0  0
  5 17  1  0  0  0  0
  6 19  1  0  0  0  0
  6 20  1  0  0  0  0
  7 14  1  6  0  0  0
  7  2  1  0  0  0  0
  9  8  1  6  0  0  0
  9 11  1  0  0  0  0
 10 12  1  0  0  0  0
 10 13  2  0  0  0  0
 11  5  1  0  0  0  0
 14 15  1  0  0  0  0
 15  1  1  0  0  0  0
 16 20  1  6  0  0  0
 16  9  1  0  0  0  0
 16  7  1  0  0  0  0
 17 31  1  0  0  0  0
 17 12  2  0  0  0  0
 18 13  1  0  0  0  0
 19  8  1  0  0  0  0
 21 23  1  0  0  0  0
 21 22  1  0  0  0  0
 23 29  1  0  0  0  0
 24 26  1  0  0  0  0
 24 15  1  1  0  0  0
 24 25  1  0  0  0  0
 25 23  2  0  0  0  0
 26 27  1  6  0  0  0
 26 21  1  0  0  0  0
 28 29  2  0  0  0  0
 29 30  1  0  0  0  0
 31 32  1  0  0  0  0
M  END
>  <MODEL>
8

>  <REMARK>
 VINA RESULT:      -7.0      2.514      3.115
  Name = 
  3 active torsions:
  status: ('A' for Active; 'I' for Inactive)
    1  A    between atoms: C_13  and  C_29
    2  A    between atoms: C_15  and  C_19
    3  A    between atoms: C_16  and  N_27
                            x       y       z     vdW  Elec       q    Type
                         _______ _______ _______ _____ _____    ______ ____

>  <TORSDO>
F 3

$$$$
=
 OpenBabel11052419123D

 32 37  0  0  1  0  0  0  0  0999 V2000
  188.7320  174.9460  141.9900 C   0  0  0  0  0  0  0  0  0  0  0  0
  190.7620  175.2710  143.3070 C   0  0  0  0  0  0  0  0  0  0  0  0
  188.1250  174.5020  140.8050 C   0  0  0  0  0  3  0  0  0  0  0  0
  190.1220  174.7930  142.1520 C   0  0  0  0  0  0  0  0  0  0  0  0
  192.1490  175.0770  143.4560 C   0  0  0  0  0  0  0  0  0  0  0  0
  190.9030  177.1790  147.9290 C   0  0  0  0  0  2  0  0  0  0  0  0
  189.9780  176.0670  144.3370 C   0  0  1  0  0  3  0  0  0  0  0  0
  192.8160  176.4210  146.9530 C   0  0  0  0  0  2  0  0  0  0  0  0
  192.1190  176.4120  145.5820 C   0  0  1  0  0  3  0  0  0  0  0  0
  190.8850  174.1560  141.1530 C   0  0  0  0  0  0  0  0  0  0  0  0
  192.8110  175.5370  144.6440 N   0  0  0  0  0  2  0  0  0  0  0  0
  192.2200  173.9770  141.3290 N   0  0  0  0  0  0  0  0  0  0  0  0
  190.2660  173.7140  139.9810 C   0  0  0  0  0  3  0  0  0  0  0  0
  188.5330  175.5680  144.4020 C   0  0  0  0  0  2  0  0  0  0  0  0
  187.9570  175.5230  143.0550 N   0  0  0  0  0  0  0  0  0  0  0  0
  190.6510  175.9960  145.7110 C   0  0  1  0  0  3  0  0  0  0  0  0
  192.8630  174.4010  142.4520 C   0  0  0  0  0  0  0  0  0  0  0  0
  188.8900  173.8930  139.8050 C   0  0  0  0  0  3  0  0  0  0  0  0
  191.9140  176.2020  148.0210 O   0  0  0  0  0  0  0  0  0  0  0  0
  189.9550  176.8710  146.7590 C   0  0  0  0  0  2  0  0  0  0  0  0
  186.1130  178.3690  143.2980 N   0  0  0  0  0  0  0  0  0  0  0  0
  186.3420  179.7880  143.5200 C   0  0  0  0  0  1  0  0  0  0  0  0
  185.5920  177.4610  144.2580 C   0  0  0  0  0  0  0  0  0  0  0  0
  186.6620  176.1450  142.7820 C   0  0  1  0  0  3  0  0  0  0  0  0
  185.8690  176.2310  144.0050 N   0  0  0  0  0  0  0  0  0  0  0  0
  186.8510  177.5940  142.3190 C   0  0  1  0  0  3  0  0  0  0  0  0
  186.2340  177.7720  140.9450 C   0  0  0  0  0  1  0  0  0  0  0  0
  183.6970  178.6820  145.2840 O   0  0  0  0  0  0  0  0  0  0  0  0
  184.8020  177.8530  145.4360 C   0  0  0  0  0  0  0  0  0  0  0  0
  185.1220  177.4540  146.5860 O   0  0  0  0  0  1  0  0  0  0  0  0
  194.3340  174.1810  142.5730 C   0  0  0  0  0  2  0  0  0  0  0  0
  195.0810  175.1810  141.7120 C   0  0  0  0  0  1  0  0  0  0  0  0
  1  4  1  0  0  0  0
  1 15  1  0  0  0  0
  2  5  1  0  0  0  0
  2  7  1  0  0  0  0
  3  1  2  0  0  0  0
  4  2  2  0  0  0  0
  5 11  1  0  0  0  0
  6 19  1  0  0  0  0
  7 14  1  1  0  0  0
  7 16  1  0  0  0  0
  8 19  1  0  0  0  0
  9 16  1  0  0  0  0
  9  8  1  1  0  0  0
 10 12  2  0  0  0  0
 10  4  1  0  0  0  0
 11  9  1  0  0  0  0
 12 17  1  0  0  0  0
 13 10  1  0  0  0  0
 15 14  1  0  0  0  0
 16 20  1  1  0  0  0
 17 31  1  0  0  0  0
 17  5  2  0  0  0  0
 18 13  2  0  0  0  0
 18  3  1  0  0  0  0
 20  6  1  0  0  0  0
 21 22  1  0  0  0  0
 21 23  1  0  0  0  0
 23 29  1  0  0  0  0
 24 15  1  1  0  0  0
 24 25  1  0  0  0  0
 25 23  2  0  0  0  0
 26 27  1  6  0  0  0
 26 24  1  0  0  0  0
 26 21  1  0  0  0  0
 28 29  2  0  0  0  0
 29 30  1  0  0  0  0
 32 31  1  0  0  0  0
M  END
>  <MODEL>
9

>  <REMARK>
 VINA RESULT:      -6.8      3.006      7.632
  Name = 
  3 active torsions:
  status: ('A' for Active; 'I' for Inactive)
    1  A    between atoms: C_13  and  C_29
    2  A    between atoms: C_15  and  C_19
    3  A    between atoms: C_16  and  N_27
                            x       y       z     vdW  Elec       q    Type
                         _______ _______ _______ _____ _____    ______ ____

>  <TORSDO>
F 3

$$$$
