=
 OpenBabel11052420133D

 37 38  0  0  1  0  0  0  0  0999 V2000
  191.5500  174.5080  145.6360 C   0  0  0  0  0  2  0  0  0  0  0  0
  191.0070  176.9300  143.8770 C   0  0  0  0  0  2  0  0  0  0  0  0
  190.2480  176.9430  146.7810 C   0  0  2  0  0  3  0  0  0  0  0  0
  191.3930  174.4120  144.1190 C   0  0  1  0  0  3  0  0  0  0  0  0
  190.2020  174.4520  146.3410 C   0  0  0  0  0  2  0  0  0  0  0  0
  190.5010  175.5270  143.5340 C   0  0  2  0  0  3  0  0  0  0  0  0
  189.8930  177.8150  144.4370 C   0  0  0  0  0  2  0  0  0  0  0  0
  190.0980  175.5530  147.3950 C   0  0  0  0  0  2  0  0  0  0  0  0
  190.3070  178.0160  147.8580 C   0  0  0  0  0  1  0  0  0  0  0  0
  189.2180  177.2030  145.6640 C   0  0  2  0  0  3  0  0  0  0  0  0
  186.6910  177.7700  145.3520 C   0  0  2  0  0  3  0  0  0  0  0  0
  186.9050  177.2720  146.7740 C   0  0  1  0  0  0  0  0  0  0  0  0
  187.1210  175.8990  146.9400 O   0  0  0  0  0  1  0  0  0  0  0  0
  186.7560  176.6380  144.3280 C   0  0  0  0  0  1  0  0  0  0  0  0
  188.0160  178.0600  146.0980 C   0  0  1  0  0  3  0  0  0  0  0  0
  184.5820  178.6500  147.2460 S   0  0  0  0  0  1  0  0  0  0  0  0
  186.1630  178.0110  147.8730 C   0  0  0  0  0  2  0  0  0  0  0  0
  192.7450  174.3480  143.4790 C   0  0  0  0  0  0  0  0  0  0  0  0
  193.1460  173.2580  142.9890 O   0  0  0  0  0  0  0  0  0  0  0  0
  193.5560  175.4860  143.4470 O   0  0  0  0  0  0  0  0  0  0  0  0
  195.7170  176.2470  142.6740 C   0  0  0  0  0  1  0  0  0  0  0  0
  194.9540  175.4450  143.7170 C   0  0  1  0  0  3  0  0  0  0  0  0
  195.2550  175.9790  145.1190 C   0  0  1  0  0  3  0  0  0  0  0  0
  194.2980  177.0850  145.5540 C   0  0  0  0  0  1  0  0  0  0  0  0
  195.8160  173.5410  145.5700 C   0  0  0  0  0  1  0  0  0  0  0  0
  195.3550  174.8650  146.1610 C   0  0  0  0  0  2  0  0  0  0  0  0
  190.3160  175.3600  142.0280 C   0  0  0  0  0  2  0  0  0  0  0  0
  188.9760  174.7210  141.7050 C   0  0  1  0  0  3  0  0  0  0  0  0
  188.0680  175.7160  141.1190 C   0  0  0  0  0  0  0  0  0  0  0  0
  187.3340  176.5360  140.6280 C   0  0  0  0  0  0  0  0  0  0  0  0
  186.4480  177.5320  140.0260 C   0  0  0  0  0  2  0  0  0  0  0  0
  184.5920  178.2700  141.7970 C   0  0  0  0  0  3  0  0  0  0  0  0
  185.4290  177.9360  140.9980 C   0  0  0  0  0  0  0  0  0  0  0  0
  189.1800  173.6520  140.7890 O   0  0  0  0  0  0  0  0  0  0  0  0
  190.6460  171.9060  140.3970 O   0  0  0  0  0  0  0  0  0  0  0  0
  189.8030  172.4560  141.1550 C   0  0  0  0  0  0  0  0  0  0  0  0
  189.4640  171.8240  142.4560 C   0  0  0  0  0  1  0  0  0  0  0  0
  1  5  1  0  0  0  0
  2  7  1  0  0  0  0
  3  8  1  0  0  0  0
  3  9  1  1  0  0  0
  4 18  1  6  0  0  0
  4  1  1  0  0  0  0
  5  8  1  0  0  0  0
  6 27  1  6  0  0  0
  6  2  1  0  0  0  0
  6  4  1  0  0  0  0
 10  7  1  6  0  0  0
 10  3  1  0  0  0  0
 11 14  1  6  0  0  0
 11 15  1  0  0  0  0
 11 12  1  0  0  0  0
 12 13  1  1  0  0  0
 12 17  1  0  0  0  0
 15 10  1  6  0  0  0
 15 12  1  0  0  0  0
 16 17  1  0  0  0  0
 19 18  2  0  0  0  0
 20 18  1  0  0  0  0
 20 22  1  0  0  0  0
 22 21  1  6  0  0  0
 22 23  1  0  0  0  0
 23 24  1  1  0  0  0
 23 26  1  0  0  0  0
 25 26  1  0  0  0  0
 28 29  1  6  0  0  0
 28 27  1  0  0  0  0
 30 29  3  0  0  0  0
 31 30  1  0  0  0  0
 31 33  1  0  0  0  0
 33 32  3  0  0  0  0
 34 36  1  0  0  0  0
 34 28  1  0  0  0  0
 35 36  2  0  0  0  0
 36 37  1  0  0  0  0
M  END
>  <MODEL>
1

>  <REMARK>
 VINA RESULT:      -6.0      0.000      0.000
  Name = 
  14 active torsions:
  status: ('A' for Active; 'I' for Inactive)
    1  A    between atoms: C_2  and  C_19
    2  A    between atoms: C_2  and  C_35
    3  A    between atoms: C_4  and  O_13
    4  A    between atoms: C_4  and  C_20
    5  A    between atoms: C_4  and  C_22
    6  A    between atoms: C_5  and  C_23
    7  A    between atoms: O_6  and  C_31
    8  A    between atoms: O_6  and  C_35
    9  A    between atoms: O_13  and  C_16
   10  A    between atoms: C_14  and  C_31
   11  A    between atoms: C_22  and  C_28
   12  A    between atoms: C_25  and  C_32
   13  A    between atoms: C_26  and  C_36
   14  A    between atoms: C_30  and  C_32
                            x       y       z     vdW  Elec       q    Type
                         _______ _______ _______ _____ _____    ______ ____

>  <TORSDO>
F 14

$$$$
=
 OpenBabel11052420133D

 37 38  0  0  1  0  0  0  0  0999 V2000
  190.7640  176.9180  145.4030 C   0  0  0  0  0  2  0  0  0  0  0  0
  190.6230  173.9840  144.6130 C   0  0  0  0  0  2  0  0  0  0  0  0
  193.2690  175.3190  145.0860 C   0  0  2  0  0  3  0  0  0  0  0  0
  189.5810  176.3200  144.6410 C   0  0  1  0  0  3  0  0  0  0  0  0
  191.8810  177.3380  144.4580 C   0  0  0  0  0  2  0  0  0  0  0  0
  189.9710  175.0950  143.7880 C   0  0  2  0  0  3  0  0  0  0  0  0
  191.9240  173.4910  143.9770 C   0  0  0  0  0  2  0  0  0  0  0  0
  193.2330  176.8400  144.9650 C   0  0  0  0  0  2  0  0  0  0  0  0
  194.5580  174.8500  145.7450 C   0  0  0  0  0  1  0  0  0  0  0  0
  192.9320  174.6180  143.7550 C   0  0  2  0  0  3  0  0  0  0  0  0
  193.9440  173.8780  141.4680 C   0  0  2  0  0  3  0  0  0  0  0  0
  194.7210  175.0850  141.9740 C   0  0  1  0  0  0  0  0  0  0  0  0
  194.0840  176.3300  141.8920 O   0  0  0  0  0  1  0  0  0  0  0  0
  192.5600  174.2600  140.9440 C   0  0  0  0  0  1  0  0  0  0  0  0
  194.1580  174.0970  142.9850 C   0  0  1  0  0  3  0  0  0  0  0  0
  197.0280  176.1570  142.9960 S   0  0  0  0  0  1  0  0  0  0  0  0
  196.2270  175.0460  141.8010 C   0  0  0  0  0  2  0  0  0  0  0  0
  188.4630  176.0360  145.5960 C   0  0  0  0  0  0  0  0  0  0  0  0
  188.6820  175.3160  146.6070 O   0  0  0  0  0  0  0  0  0  0  0  0
  187.1880  176.5520  145.3500 O   0  0  0  0  0  0  0  0  0  0  0  0
  186.9360  177.9920  147.2760 C   0  0  0  0  0  1  0  0  0  0  0  0
  186.2960  176.9320  146.3930 C   0  0  1  0  0  3  0  0  0  0  0  0
  184.9750  177.4510  145.8190 C   0  0  1  0  0  3  0  0  0  0  0  0
  184.3140  178.5050  146.7010 C   0  0  0  0  0  1  0  0  0  0  0  0
  185.3490  179.4180  144.2520 C   0  0  0  0  0  1  0  0  0  0  0  0
  185.1110  177.9200  144.3700 C   0  0  0  0  0  2  0  0  0  0  0  0
  188.7800  174.5670  142.9930 C   0  0  0  0  0  2  0  0  0  0  0  0
  188.6370  175.2920  141.6670 C   0  0  1  0  0  3  0  0  0  0  0  0
  188.6650  174.3310  140.5570 C   0  0  0  0  0  0  0  0  0  0  0  0
  188.7040  173.5400  139.6480 C   0  0  0  0  0  0  0  0  0  0  0  0
  188.7580  172.5790  138.5470 C   0  0  0  0  0  2  0  0  0  0  0  0
  190.6980  170.8020  139.0060 C   0  0  0  0  0  3  0  0  0  0  0  0
  189.8230  171.6040  138.7970 C   0  0  0  0  0  0  0  0  0  0  0  0
  187.4060  176.0060  141.6580 O   0  0  0  0  0  0  0  0  0  0  0  0
  186.3100  177.9080  140.9290 O   0  0  0  0  0  0  0  0  0  0  0  0
  187.3370  177.3840  141.4370 C   0  0  0  0  0  0  0  0  0  0  0  0
  188.4920  178.2420  141.8050 C   0  0  0  0  0  1  0  0  0  0  0  0
  3  9  1  6  0  0  0
  4  1  1  0  0  0  0
  4 18  1  1  0  0  0
  5  8  1  0  0  0  0
  5  1  1  0  0  0  0
  6 27  1  1  0  0  0
  6  2  1  0  0  0  0
  6  4  1  0  0  0  0
  7  2  1  0  0  0  0
  8  3  1  0  0  0  0
 10  7  1  1  0  0  0
 10  3  1  0  0  0  0
 11 14  1  1  0  0  0
 11 12  1  0  0  0  0
 11 15  1  0  0  0  0
 12 13  1  6  0  0  0
 12 15  1  0  0  0  0
 15 10  1  1  0  0  0
 17 12  1  0  0  0  0
 17 16  1  0  0  0  0
 18 19  2  0  0  0  0
 20 18  1  0  0  0  0
 20 22  1  0  0  0  0
 22 21  1  6  0  0  0
 23 22  1  0  0  0  0
 23 24  1  1  0  0  0
 25 26  1  0  0  0  0
 26 23  1  0  0  0  0
 28 29  1  6  0  0  0
 28 27  1  0  0  0  0
 30 29  3  0  0  0  0
 31 33  1  0  0  0  0
 31 30  1  0  0  0  0
 33 32  3  0  0  0  0
 34 28  1  0  0  0  0
 35 36  2  0  0  0  0
 36 34  1  0  0  0  0
 36 37  1  0  0  0  0
M  END
>  <MODEL>
2

>  <REMARK>
 VINA RESULT:      -6.0      2.941      7.274
  Name = 
  14 active torsions:
  status: ('A' for Active; 'I' for Inactive)
    1  A    between atoms: C_2  and  C_19
    2  A    between atoms: C_2  and  C_35
    3  A    between atoms: C_4  and  O_13
    4  A    between atoms: C_4  and  C_20
    5  A    between atoms: C_4  and  C_22
    6  A    between atoms: C_5  and  C_23
    7  A    between atoms: O_6  and  C_31
    8  A    between atoms: O_6  and  C_35
    9  A    between atoms: O_13  and  C_16
   10  A    between atoms: C_14  and  C_31
   11  A    between atoms: C_22  and  C_28
   12  A    between atoms: C_25  and  C_32
   13  A    between atoms: C_26  and  C_36
   14  A    between atoms: C_30  and  C_32
                            x       y       z     vdW  Elec       q    Type
                         _______ _______ _______ _____ _____    ______ ____

>  <TORSDO>
F 14

$$$$
=
 OpenBabel11052420133D

 37 38  0  0  1  0  0  0  0  0999 V2000
  189.3000  177.7040  143.5210 C   0  0  0  0  0  2  0  0  0  0  0  0
  189.3220  174.6970  143.9810 C   0  0  0  0  0  2  0  0  0  0  0  0
  191.6910  176.3800  144.7300 C   0  0  2  0  0  3  0  0  0  0  0  0
  188.4310  176.7350  142.7170 C   0  0  1  0  0  3  0  0  0  0  0  0
  190.6910  177.8360  142.9190 C   0  0  0  0  0  2  0  0  0  0  0  0
  189.0430  175.3220  142.6130 C   0  0  2  0  0  3  0  0  0  0  0  0
  190.7410  174.1340  144.0710 C   0  0  0  0  0  2  0  0  0  0  0  0
  191.7610  177.7200  144.0020 C   0  0  0  0  0  2  0  0  0  0  0  0
  192.6510  176.3440  145.9100 C   0  0  0  0  0  1  0  0  0  0  0  0
  191.8090  175.1840  143.7650 C   0  0  2  0  0  3  0  0  0  0  0  0
  193.6350  173.9690  142.3520 C   0  0  2  0  0  3  0  0  0  0  0  0
  194.2110  175.2810  142.8640 C   0  0  1  0  0  0  0  0  0  0  0  0
  193.7610  176.4560  142.2490 O   0  0  0  0  0  1  0  0  0  0  0  0
  192.6330  174.1820  141.2180 C   0  0  0  0  0  1  0  0  0  0  0  0
  193.2040  174.5350  143.7260 C   0  0  1  0  0  3  0  0  0  0  0  0
  195.7340  174.3680  144.9520 S   0  0  0  0  0  1  0  0  0  0  0  0
  195.6430  175.2460  143.3650 C   0  0  0  0  0  2  0  0  0  0  0  0
  187.0410  176.7310  143.2730 C   0  0  0  0  0  0  0  0  0  0  0  0
  186.0600  176.7930  142.4840 O   0  0  0  0  0  0  0  0  0  0  0  0
  186.8430  176.6780  144.6550 O   0  0  0  0  0  0  0  0  0  0  0  0
  184.8200  177.5350  145.6660 C   0  0  0  0  0  1  0  0  0  0  0  0
  186.2990  177.7650  145.3980 C   0  0  1  0  0  3  0  0  0  0  0  0
  187.0520  177.9550  146.7170 C   0  0  1  0  0  3  0  0  0  0  0  0
  186.1260  178.0370  147.9250 C   0  0  0  0  0  1  0  0  0  0  0  0
  189.5000  177.5450  147.2650 C   0  0  0  0  0  1  0  0  0  0  0  0
  188.1590  176.9190  146.9130 C   0  0  0  0  0  2  0  0  0  0  0  0
  188.1810  174.4040  141.7510 C   0  0  0  0  0  2  0  0  0  0  0  0
  188.9870  173.7970  140.6150 C   0  0  1  0  0  3  0  0  0  0  0  0
  189.6240  172.5490  141.0560 C   0  0  0  0  0  0  0  0  0  0  0  0
  190.1600  171.5320  141.4170 C   0  0  0  0  0  0  0  0  0  0  0  0
  190.8170  170.3010  141.8580 C   0  0  0  0  0  2  0  0  0  0  0  0
  192.4560  170.8400  143.8960 C   0  0  0  0  0  3  0  0  0  0  0  0
  191.7160  170.5970  142.9770 C   0  0  0  0  0  0  0  0  0  0  0  0
  188.1210  173.5380  139.5170 O   0  0  0  0  0  0  0  0  0  0  0  0
  187.4520  175.0430  137.8930 O   0  0  0  0  0  0  0  0  0  0  0  0
  188.2700  174.1640  138.2770 C   0  0  0  0  0  0  0  0  0  0  0  0
  189.4070  173.7860  137.4000 C   0  0  0  0  0  1  0  0  0  0  0  0
  2  7  1  0  0  0  0
  3  9  1  1  0  0  0
  4 18  1  1  0  0  0
  4  1  1  0  0  0  0
  5  1  1  0  0  0  0
  5  8  1  0  0  0  0
  6 27  1  1  0  0  0
  6  4  1  0  0  0  0
  6  2  1  0  0  0  0
  8  3  1  0  0  0  0
 10  7  1  1  0  0  0
 10  3  1  0  0  0  0
 11 14  1  6  0  0  0
 11 12  1  0  0  0  0
 11 15  1  0  0  0  0
 12 13  1  6  0  0  0
 12 17  1  0  0  0  0
 12 15  1  0  0  0  0
 15 10  1  6  0  0  0
 17 16  1  0  0  0  0
 18 20  1  0  0  0  0
 19 18  2  0  0  0  0
 20 22  1  0  0  0  0
 22 21  1  1  0  0  0
 22 23  1  0  0  0  0
 23 26  1  0  0  0  0
 23 24  1  1  0  0  0
 26 25  1  0  0  0  0
 28 29  1  1  0  0  0
 28 27  1  0  0  0  0
 29 30  3  0  0  0  0
 30 31  1  0  0  0  0
 31 33  1  0  0  0  0
 33 32  3  0  0  0  0
 34 28  1  0  0  0  0
 35 36  2  0  0  0  0
 36 34  1  0  0  0  0
 37 36  1  0  0  0  0
M  END
>  <MODEL>
3

>  <REMARK>
 VINA RESULT:      -6.0      2.769      6.880
  Name = 
  14 active torsions:
  status: ('A' for Active; 'I' for Inactive)
    1  A    between atoms: C_2  and  C_19
    2  A    between atoms: C_2  and  C_35
    3  A    between atoms: C_4  and  O_13
    4  A    between atoms: C_4  and  C_20
    5  A    between atoms: C_4  and  C_22
    6  A    between atoms: C_5  and  C_23
    7  A    between atoms: O_6  and  C_31
    8  A    between atoms: O_6  and  C_35
    9  A    between atoms: O_13  and  C_16
   10  A    between atoms: C_14  and  C_31
   11  A    between atoms: C_22  and  C_28
   12  A    between atoms: C_25  and  C_32
   13  A    between atoms: C_26  and  C_36
   14  A    between atoms: C_30  and  C_32
                            x       y       z     vdW  Elec       q    Type
                         _______ _______ _______ _____ _____    ______ ____

>  <TORSDO>
F 14

$$$$
=
 OpenBabel11052420133D

 37 38  0  0  1  0  0  0  0  0999 V2000
  188.0610  175.6440  140.9160 C   0  0  0  0  0  2  0  0  0  0  0  0
  190.2890  176.4470  142.8260 C   0  0  0  0  0  2  0  0  0  0  0  0
  190.6270  174.1120  140.9700 C   0  0  2  0  0  3  0  0  0  0  0  0
  187.8050  176.4140  142.2120 C   0  0  1  0  0  3  0  0  0  0  0  0
  188.1040  174.1430  141.1590 C   0  0  0  0  0  2  0  0  0  0  0  0
  188.8660  176.1370  143.2970 C   0  0  2  0  0  3  0  0  0  0  0  0
  191.2480  175.2920  143.1160 C   0  0  0  0  0  2  0  0  0  0  0  0
  189.3140  173.5180  140.4660 C   0  0  0  0  0  2  0  0  0  0  0  0
  191.8080  173.6020  140.1580 C   0  0  0  0  0  1  0  0  0  0  0  0
  190.7830  173.9740  142.4970 C   0  0  2  0  0  3  0  0  0  0  0  0
  191.3240  172.1450  144.2780 C   0  0  2  0  0  3  0  0  0  0  0  0
  191.0250  171.4590  142.9530 C   0  0  1  0  0  0  0  0  0  0  0  0
  189.6860  171.4200  142.5450 O   0  0  0  0  0  1  0  0  0  0  0  0
  190.0600  172.6870  144.9450 C   0  0  0  0  0  1  0  0  0  0  0  0
  191.7030  172.8200  142.9380 C   0  0  1  0  0  3  0  0  0  0  0  0
  191.6820  169.8560  140.8280 S   0  0  0  0  0  1  0  0  0  0  0  0
  191.9150  170.2890  142.5770 C   0  0  0  0  0  2  0  0  0  0  0  0
  187.6500  177.8720  141.9050 C   0  0  0  0  0  0  0  0  0  0  0  0
  188.6730  178.5620  141.6500 O   0  0  0  0  0  0  0  0  0  0  0  0
  186.3810  178.4560  141.9230 O   0  0  0  0  0  0  0  0  0  0  0  0
  185.6190  179.6460  143.8860 C   0  0  0  0  0  1  0  0  0  0  0  0
  185.5130  178.3800  143.0500 C   0  0  1  0  0  3  0  0  0  0  0  0
  184.0640  178.1600  142.6080 C   0  0  1  0  0  3  0  0  0  0  0  0
  183.0690  179.0220  143.3770 C   0  0  0  0  0  1  0  0  0  0  0  0
  182.4510  178.0670  140.6450 C   0  0  0  0  0  1  0  0  0  0  0  0
  183.8870  178.2900  141.0950 C   0  0  0  0  0  2  0  0  0  0  0  0
  188.5420  176.8710  144.5940 C   0  0  0  0  0  2  0  0  0  0  0  0
  188.7220  175.9650  145.8010 C   0  0  1  0  0  3  0  0  0  0  0  0
  190.1310  175.9460  146.2140 C   0  0  0  0  0  0  0  0  0  0  0  0
  191.2860  175.9430  146.5600 C   0  0  0  0  0  0  0  0  0  0  0  0
  192.6850  175.9450  146.9870 C   0  0  0  0  0  2  0  0  0  0  0  0
  194.0990  174.2950  145.4350 C   0  0  0  0  0  3  0  0  0  0  0  0
  193.4600  175.0390  146.1340 C   0  0  0  0  0  0  0  0  0  0  0  0
  187.9110  176.4440  146.8660 O   0  0  0  0  0  0  0  0  0  0  0  0
  186.7930  178.4700  146.8860 O   0  0  0  0  0  0  0  0  0  0  0  0
  186.7760  177.2310  146.6540 C   0  0  0  0  0  0  0  0  0  0  0  0
  185.5310  176.5970  146.1480 C   0  0  0  0  0  1  0  0  0  0  0  0
  1  5  1  0  0  0  0
  1  4  1  0  0  0  0
  2  7  1  0  0  0  0
  2  6  1  0  0  0  0
  3  9  1  6  0  0  0
  3 10  1  0  0  0  0
  4 18  1  6  0  0  0
  4  6  1  0  0  0  0
  6 27  1  1  0  0  0
  8  3  1  0  0  0  0
  8  5  1  0  0  0  0
 10  7  1  6  0  0  0
 11 14  1  6  0  0  0
 12 13  1  6  0  0  0
 12 11  1  0  0  0  0
 15 10  1  6  0  0  0
 15 12  1  0  0  0  0
 15 11  1  0  0  0  0
 16 17  1  0  0  0  0
 17 12  1  0  0  0  0
 18 20  1  0  0  0  0
 19 18  2  0  0  0  0
 20 22  1  0  0  0  0
 22 21  1  6  0  0  0
 23 22  1  0  0  0  0
 23 24  1  1  0  0  0
 25 26  1  0  0  0  0
 26 23  1  0  0  0  0
 28 27  1  6  0  0  0
 28 29  1  0  0  0  0
 28 34  1  0  0  0  0
 29 30  3  0  0  0  0
 30 31  1  0  0  0  0
 32 33  3  0  0  0  0
 33 31  1  0  0  0  0
 36 34  1  0  0  0  0
 36 35  2  0  0  0  0
 37 36  1  0  0  0  0
M  END
>  <MODEL>
4

>  <REMARK>
 VINA RESULT:      -5.8      3.003      8.294
  Name = 
  14 active torsions:
  status: ('A' for Active; 'I' for Inactive)
    1  A    between atoms: C_2  and  C_19
    2  A    between atoms: C_2  and  C_35
    3  A    between atoms: C_4  and  O_13
    4  A    between atoms: C_4  and  C_20
    5  A    between atoms: C_4  and  C_22
    6  A    between atoms: C_5  and  C_23
    7  A    between atoms: O_6  and  C_31
    8  A    between atoms: O_6  and  C_35
    9  A    between atoms: O_13  and  C_16
   10  A    between atoms: C_14  and  C_31
   11  A    between atoms: C_22  and  C_28
   12  A    between atoms: C_25  and  C_32
   13  A    between atoms: C_26  and  C_36
   14  A    between atoms: C_30  and  C_32
                            x       y       z     vdW  Elec       q    Type
                         _______ _______ _______ _____ _____    ______ ____

>  <TORSDO>
F 14

$$$$
=
 OpenBabel11052420133D

 37 38  0  0  1  0  0  0  0  0999 V2000
  190.2210  173.5380  143.3940 C   0  0  0  0  0  2  0  0  0  0  0  0
  191.6230  176.0650  142.4460 C   0  0  0  0  0  2  0  0  0  0  0  0
  193.1760  173.5440  142.9390 C   0  0  2  0  0  3  0  0  0  0  0  0
  189.6570  174.9380  143.6330 C   0  0  1  0  0  3  0  0  0  0  0  0
  191.2100  173.1420  144.4810 C   0  0  0  0  0  2  0  0  0  0  0  0
  190.7510  176.0240  143.7020 C   0  0  2  0  0  3  0  0  0  0  0  0
  193.1140  176.0650  142.7880 C   0  0  0  0  0  2  0  0  0  0  0  0
  192.4790  172.5520  143.8680 C   0  0  0  0  0  2  0  0  0  0  0  0
  194.3410  172.8900  142.2120 C   0  0  0  0  0  1  0  0  0  0  0  0
  193.5180  174.8690  143.6500 C   0  0  2  0  0  3  0  0  0  0  0  0
  195.2840  176.1110  145.1140 C   0  0  2  0  0  3  0  0  0  0  0  0
  195.2340  174.6530  145.5470 C   0  0  1  0  0  0  0  0  0  0  0  0
  194.1190  174.2500  146.2920 O   0  0  0  0  0  1  0  0  0  0  0  0
  194.0630  176.8970  145.5880 C   0  0  0  0  0  1  0  0  0  0  0  0
  194.9890  174.9930  144.0850 C   0  0  1  0  0  3  0  0  0  0  0  0
  196.4220  172.1840  145.6390 S   0  0  0  0  0  1  0  0  0  0  0  0
  196.5630  173.9840  145.8410 C   0  0  0  0  0  2  0  0  0  0  0  0
  188.6030  175.2340  142.6110 C   0  0  0  0  0  0  0  0  0  0  0  0
  188.7750  174.8620  141.4190 O   0  0  0  0  0  0  0  0  0  0  0  0
  187.4510  175.9330  142.9810 O   0  0  0  0  0  0  0  0  0  0  0  0
  186.6010  177.1800  141.0910 C   0  0  0  0  0  1  0  0  0  0  0  0
  187.1580  177.2430  142.5050 C   0  0  1  0  0  3  0  0  0  0  0  0
  186.1680  177.9520  143.4310 C   0  0  1  0  0  3  0  0  0  0  0  0
  186.3240  179.4690  143.4230 C   0  0  0  0  0  1  0  0  0  0  0  0
  183.7420  178.6870  143.2280 C   0  0  0  0  0  1  0  0  0  0  0  0
  184.7220  177.5230  143.1790 C   0  0  0  0  0  2  0  0  0  0  0  0
  190.1550  177.3970  144.0050 C   0  0  0  0  0  2  0  0  0  0  0  0
  190.0850  177.6490  145.5020 C   0  0  1  0  0  3  0  0  0  0  0  0
  188.7650  177.2660  146.0190 C   0  0  0  0  0  0  0  0  0  0  0  0
  187.6810  176.9400  146.4340 C   0  0  0  0  0  0  0  0  0  0  0  0
  186.3680  176.5360  146.9360 C   0  0  0  0  0  2  0  0  0  0  0  0
  184.7080  178.6270  146.8820 C   0  0  0  0  0  3  0  0  0  0  0  0
  185.4560  177.6830  146.9060 C   0  0  0  0  0  0  0  0  0  0  0  0
  191.0980  176.8890  146.1490 O   0  0  0  0  0  0  0  0  0  0  0  0
  191.0620  177.4980  148.3800 O   0  0  0  0  0  0  0  0  0  0  0  0
  191.0560  176.5850  147.5120 C   0  0  0  0  0  0  0  0  0  0  0  0
  191.0060  175.1640  147.9430 C   0  0  0  0  0  1  0  0  0  0  0  0
  1  4  1  0  0  0  0
  1  5  1  0  0  0  0
  2  7  1  0  0  0  0
  2  6  1  0  0  0  0
  3  9  1  1  0  0  0
  3 10  1  0  0  0  0
  3  8  1  0  0  0  0
  4 18  1  6  0  0  0
  4  6  1  0  0  0  0
  6 27  1  6  0  0  0
  8  5  1  0  0  0  0
 10  7  1  6  0  0  0
 11 12  1  0  0  0  0
 11 14  1  1  0  0  0
 12 17  1  0  0  0  0
 12 13  1  1  0  0  0
 15 10  1  1  0  0  0
 15 11  1  0  0  0  0
 15 12  1  0  0  0  0
 16 17  1  0  0  0  0
 18 20  1  0  0  0  0
 19 18  2  0  0  0  0
 22 21  1  6  0  0  0
 22 20  1  0  0  0  0
 22 23  1  0  0  0  0
 23 24  1  6  0  0  0
 26 25  1  0  0  0  0
 26 23  1  0  0  0  0
 28 27  1  6  0  0  0
 28 29  1  0  0  0  0
 28 34  1  0  0  0  0
 29 30  3  0  0  0  0
 30 31  1  0  0  0  0
 32 33  3  0  0  0  0
 33 31  1  0  0  0  0
 34 36  1  0  0  0  0
 36 37  1  0  0  0  0
 36 35  2  0  0  0  0
M  END
>  <MODEL>
5

>  <REMARK>
 VINA RESULT:      -5.8      2.860      7.323
  Name = 
  14 active torsions:
  status: ('A' for Active; 'I' for Inactive)
    1  A    between atoms: C_2  and  C_19
    2  A    between atoms: C_2  and  C_35
    3  A    between atoms: C_4  and  O_13
    4  A    between atoms: C_4  and  C_20
    5  A    between atoms: C_4  and  C_22
    6  A    between atoms: C_5  and  C_23
    7  A    between atoms: O_6  and  C_31
    8  A    between atoms: O_6  and  C_35
    9  A    between atoms: O_13  and  C_16
   10  A    between atoms: C_14  and  C_31
   11  A    between atoms: C_22  and  C_28
   12  A    between atoms: C_25  and  C_32
   13  A    between atoms: C_26  and  C_36
   14  A    between atoms: C_30  and  C_32
                            x       y       z     vdW  Elec       q    Type
                         _______ _______ _______ _____ _____    ______ ____

>  <TORSDO>
F 14

$$$$
=
 OpenBabel11052420133D

 37 38  0  0  1  0  0  0  0  0999 V2000
  191.9950  176.3350  146.8100 C   0  0  0  0  0  2  0  0  0  0  0  0
  191.0790  174.7890  144.3550 C   0  0  0  0  0  2  0  0  0  0  0  0
  193.7880  174.3020  145.5500 C   0  0  2  0  0  3  0  0  0  0  0  0
  190.9320  176.8630  145.8460 C   0  0  1  0  0  3  0  0  0  0  0  0
  193.3990  176.6760  146.3330 C   0  0  0  0  0  2  0  0  0  0  0  0
  191.0950  176.3180  144.4120 C   0  0  2  0  0  3  0  0  0  0  0  0
  192.2530  174.2380  143.5450 C   0  0  0  0  0  2  0  0  0  0  0  0
  194.3080  175.4520  146.4100 C   0  0  0  0  0  2  0  0  0  0  0  0
  194.6100  173.0400  145.7650 C   0  0  0  0  0  1  0  0  0  0  0  0
  193.6060  174.7120  144.0760 C   0  0  2  0  0  3  0  0  0  0  0  0
  194.9440  175.1060  141.8710 C   0  0  2  0  0  3  0  0  0  0  0  0
  195.9010  175.2270  143.0480 C   0  0  1  0  0  0  0  0  0  0  0  0
  195.8100  176.3880  143.8250 O   0  0  0  0  0  1  0  0  0  0  0  0
  194.0230  176.3190  141.7490 C   0  0  0  0  0  1  0  0  0  0  0  0
  194.7400  174.2490  143.1440 C   0  0  1  0  0  3  0  0  0  0  0  0
  197.6630  174.4000  141.1180 S   0  0  0  0  0  1  0  0  0  0  0  0
  197.2690  174.5920  142.8810 C   0  0  0  0  0  2  0  0  0  0  0  0
  189.5700  176.6110  146.4160 C   0  0  0  0  0  0  0  0  0  0  0  0
  189.2860  175.4640  146.8550 O   0  0  0  0  0  0  0  0  0  0  0  0
  188.6230  177.6380  146.4380 O   0  0  0  0  0  0  0  0  0  0  0  0
  187.2940  178.6670  148.1780 C   0  0  0  0  0  1  0  0  0  0  0  0
  187.3980  177.5420  147.1590 C   0  0  1  0  0  3  0  0  0  0  0  0
  186.2010  177.5800  146.2070 C   0  0  1  0  0  3  0  0  0  0  0  0
  185.1670  176.5000  146.5060 C   0  0  0  0  0  1  0  0  0  0  0  0
  184.0660  178.9220  145.8840 C   0  0  0  0  0  1  0  0  0  0  0  0
  185.5690  178.9690  146.1170 C   0  0  0  0  0  2  0  0  0  0  0  0
  190.0580  176.9170  143.4660 C   0  0  0  0  0  2  0  0  0  0  0  0
  189.0850  175.8600  142.9730 C   0  0  1  0  0  3  0  0  0  0  0  0
  187.7240  176.4080  142.9200 C   0  0  0  0  0  0  0  0  0  0  0  0
  186.6050  176.8540  142.8630 C   0  0  0  0  0  0  0  0  0  0  0  0
  185.2470  177.3910  142.7850 C   0  0  0  0  0  2  0  0  0  0  0  0
  184.7760  178.2920  140.3170 C   0  0  0  0  0  3  0  0  0  0  0  0
  184.9900  177.8850  141.4300 C   0  0  0  0  0  0  0  0  0  0  0  0
  189.4850  175.4290  141.6780 O   0  0  0  0  0  0  0  0  0  0  0  0
  189.6120  173.7860  140.0540 O   0  0  0  0  0  0  0  0  0  0  0  0
  189.2650  174.1290  141.2160 C   0  0  0  0  0  0  0  0  0  0  0  0
  188.6100  173.1370  142.1080 C   0  0  0  0  0  1  0  0  0  0  0  0
  2  6  1  0  0  0  0
  3  9  1  6  0  0  0
  3  8  1  0  0  0  0
  4 18  1  1  0  0  0
  4  1  1  0  0  0  0
  5  8  1  0  0  0  0
  5  1  1  0  0  0  0
  6 27  1  6  0  0  0
  6  4  1  0  0  0  0
  7  2  1  0  0  0  0
 10  7  1  6  0  0  0
 10  3  1  0  0  0  0
 11 14  1  1  0  0  0
 11 12  1  0  0  0  0
 11 15  1  0  0  0  0
 12 15  1  0  0  0  0
 12 13  1  1  0  0  0
 15 10  1  1  0  0  0
 16 17  1  0  0  0  0
 17 12  1  0  0  0  0
 18 20  1  0  0  0  0
 18 19  2  0  0  0  0
 20 22  1  0  0  0  0
 22 21  1  1  0  0  0
 23 24  1  1  0  0  0
 23 22  1  0  0  0  0
 25 26  1  0  0  0  0
 26 23  1  0  0  0  0
 28 29  1  6  0  0  0
 28 27  1  0  0  0  0
 30 29  3  0  0  0  0
 31 30  1  0  0  0  0
 32 33  3  0  0  0  0
 33 31  1  0  0  0  0
 34 28  1  0  0  0  0
 35 36  2  0  0  0  0
 36 34  1  0  0  0  0
 36 37  1  0  0  0  0
M  END
>  <MODEL>
6

>  <REMARK>
 VINA RESULT:      -5.8      2.943      6.832
  Name = 
  14 active torsions:
  status: ('A' for Active; 'I' for Inactive)
    1  A    between atoms: C_2  and  C_19
    2  A    between atoms: C_2  and  C_35
    3  A    between atoms: C_4  and  O_13
    4  A    between atoms: C_4  and  C_20
    5  A    between atoms: C_4  and  C_22
    6  A    between atoms: C_5  and  C_23
    7  A    between atoms: O_6  and  C_31
    8  A    between atoms: O_6  and  C_35
    9  A    between atoms: O_13  and  C_16
   10  A    between atoms: C_14  and  C_31
   11  A    between atoms: C_22  and  C_28
   12  A    between atoms: C_25  and  C_32
   13  A    between atoms: C_26  and  C_36
   14  A    between atoms: C_30  and  C_32
                            x       y       z     vdW  Elec       q    Type
                         _______ _______ _______ _____ _____    ______ ____

>  <TORSDO>
F 14

$$$$
=
 OpenBabel11052420133D

 37 38  0  0  1  0  0  0  0  0999 V2000
  190.9260  174.9440  146.6080 C   0  0  0  0  0  2  0  0  0  0  0  0
  191.4240  177.4250  144.9190 C   0  0  0  0  0  2  0  0  0  0  0  0
  188.8040  177.0300  146.3270 C   0  0  2  0  0  3  0  0  0  0  0  0
  191.9450  174.9810  145.4680 C   0  0  1  0  0  3  0  0  0  0  0  0
  189.5300  174.6170  146.0980 C   0  0  0  0  0  2  0  0  0  0  0  0
  191.5850  176.0050  144.3720 C   0  0  2  0  0  3  0  0  0  0  0  0
  190.1240  178.0740  144.4430 C   0  0  0  0  0  2  0  0  0  0  0  0
  188.5010  175.5780  146.6890 C   0  0  0  0  0  2  0  0  0  0  0  0
  187.8700  177.9840  147.0560 C   0  0  0  0  0  1  0  0  0  0  0  0
  188.8900  177.2460  144.8040 C   0  0  2  0  0  3  0  0  0  0  0  0
  187.5790  177.8580  142.6320 C   0  0  2  0  0  3  0  0  0  0  0  0
  186.7480  176.8710  143.4390 C   0  0  1  0  0  0  0  0  0  0  0  0
  187.1730  175.5360  143.4420 O   0  0  0  0  0  1  0  0  0  0  0  0
  188.7700  177.1870  141.9490 C   0  0  0  0  0  1  0  0  0  0  0  0
  187.6270  177.8670  144.1790 C   0  0  1  0  0  3  0  0  0  0  0  0
  184.7310  178.1800  142.1230 S   0  0  0  0  0  1  0  0  0  0  0  0
  185.2570  177.1400  143.5170 C   0  0  0  0  0  2  0  0  0  0  0  0
  193.3180  175.1840  146.0310 C   0  0  0  0  0  0  0  0  0  0  0  0
  193.5270  176.1470  146.8170 O   0  0  0  0  0  0  0  0  0  0  0  0
  194.3550  174.3210  145.6670 O   0  0  0  0  0  0  0  0  0  0  0  0
  196.6430  173.6820  146.1190 C   0  0  0  0  0  1  0  0  0  0  0  0
  195.7100  174.7460  145.5610 C   0  0  1  0  0  3  0  0  0  0  0  0
  196.0730  175.0560  144.1070 C   0  0  1  0  0  3  0  0  0  0  0  0
  196.1200  176.5510  143.8100 C   0  0  0  0  0  1  0  0  0  0  0  0
  197.3870  174.0920  142.1560 C   0  0  0  0  0  1  0  0  0  0  0  0
  197.3470  174.3410  143.6570 C   0  0  0  0  0  2  0  0  0  0  0  0
  192.5890  175.9660  143.2230 C   0  0  0  0  0  2  0  0  0  0  0  0
  192.2390  174.8780  142.2210 C   0  0  1  0  0  3  0  0  0  0  0  0
  193.0920  173.7020  142.4330 C   0  0  0  0  0  0  0  0  0  0  0  0
  193.8020  172.7420  142.5980 C   0  0  0  0  0  0  0  0  0  0  0  0
  194.6710  171.5820  142.7960 C   0  0  0  0  0  2  0  0  0  0  0  0
  194.5010  170.7540  145.3290 C   0  0  0  0  0  3  0  0  0  0  0  0
  194.5770  171.1270  144.1860 C   0  0  0  0  0  0  0  0  0  0  0  0
  190.8720  174.5210  142.3820 O   0  0  0  0  0  0  0  0  0  0  0  0
  190.5140  173.7810  140.2190 O   0  0  0  0  0  0  0  0  0  0  0  0
  190.1740  173.7700  141.4330 C   0  0  0  0  0  0  0  0  0  0  0  0
  189.0140  172.9470  141.8620 C   0  0  0  0  0  1  0  0  0  0  0  0
  3  8  1  0  0  0  0
  3  9  1  6  0  0  0
  4 18  1  1  0  0  0
  4  1  1  0  0  0  0
  5  1  1  0  0  0  0
  5  8  1  0  0  0  0
  6 27  1  6  0  0  0
  6  2  1  0  0  0  0
  6  4  1  0  0  0  0
  7  2  1  0  0  0  0
 10  7  1  1  0  0  0
 10  3  1  0  0  0  0
 11 14  1  6  0  0  0
 11 12  1  0  0  0  0
 11 15  1  0  0  0  0
 12 13  1  6  0  0  0
 12 17  1  0  0  0  0
 12 15  1  0  0  0  0
 15 10  1  6  0  0  0
 16 17  1  0  0  0  0
 18 19  2  0  0  0  0
 20 18  1  0  0  0  0
 22 20  1  0  0  0  0
 22 21  1  6  0  0  0
 23 24  1  1  0  0  0
 23 22  1  0  0  0  0
 25 26  1  0  0  0  0
 26 23  1  0  0  0  0
 28 34  1  0  0  0  0
 28 29  1  1  0  0  0
 28 27  1  0  0  0  0
 29 30  3  0  0  0  0
 30 31  1  0  0  0  0
 31 33  1  0  0  0  0
 33 32  3  0  0  0  0
 35 36  2  0  0  0  0
 36 37  1  0  0  0  0
 36 34  1  0  0  0  0
M  END
>  <MODEL>
7

>  <REMARK>
 VINA RESULT:      -5.7      2.069      4.502
  Name = 
  14 active torsions:
  status: ('A' for Active; 'I' for Inactive)
    1  A    between atoms: C_2  and  C_19
    2  A    between atoms: C_2  and  C_35
    3  A    between atoms: C_4  and  O_13
    4  A    between atoms: C_4  and  C_20
    5  A    between atoms: C_4  and  C_22
    6  A    between atoms: C_5  and  C_23
    7  A    between atoms: O_6  and  C_31
    8  A    between atoms: O_6  and  C_35
    9  A    between atoms: O_13  and  C_16
   10  A    between atoms: C_14  and  C_31
   11  A    between atoms: C_22  and  C_28
   12  A    between atoms: C_25  and  C_32
   13  A    between atoms: C_26  and  C_36
   14  A    between atoms: C_30  and  C_32
                            x       y       z     vdW  Elec       q    Type
                         _______ _______ _______ _____ _____    ______ ____

>  <TORSDO>
F 14

$$$$
=
 OpenBabel11052420133D

 37 38  0  0  1  0  0  0  0  0999 V2000
  190.4880  177.2650  144.9200 C   0  0  0  0  0  2  0  0  0  0  0  0
  190.5050  174.2280  145.0840 C   0  0  0  0  0  2  0  0  0  0  0  0
  193.0350  175.7970  145.4620 C   0  0  2  0  0  3  0  0  0  0  0  0
  189.4370  176.3920  144.2340 C   0  0  1  0  0  3  0  0  0  0  0  0
  191.7250  177.4370  144.0500 C   0  0  0  0  0  2  0  0  0  0  0  0
  189.9650  174.9890  143.8710 C   0  0  2  0  0  3  0  0  0  0  0  0
  191.8910  173.6400  144.8150 C   0  0  0  0  0  2  0  0  0  0  0  0
  192.9950  177.2020  144.8650 C   0  0  0  0  0  2  0  0  0  0  0  0
  194.2200  175.6330  146.4020 C   0  0  0  0  0  1  0  0  0  0  0  0
  192.9050  174.7010  144.3870 C   0  0  2  0  0  3  0  0  0  0  0  0
  194.3370  173.5770  142.5180 C   0  0  2  0  0  3  0  0  0  0  0  0
  195.0500  174.8380  142.9830 C   0  0  1  0  0  0  0  0  0  0  0  0
  194.5100  176.0630  142.5710 O   0  0  0  0  0  1  0  0  0  0  0  0
  193.1150  173.8900  141.6540 C   0  0  0  0  0  1  0  0  0  0  0  0
  194.2370  174.0400  143.9910 C   0  0  1  0  0  3  0  0  0  0  0  0
  197.2910  176.4080  143.1470 S   0  0  0  0  0  1  0  0  0  0  0  0
  196.5550  174.7470  143.1480 C   0  0  0  0  0  2  0  0  0  0  0  0
  188.1960  176.3520  145.0710 C   0  0  0  0  0  0  0  0  0  0  0  0
  188.2960  176.1940  146.3180 O   0  0  0  0  0  0  0  0  0  0  0  0
  186.9430  176.4700  144.4650 O   0  0  0  0  0  0  0  0  0  0  0  0
  185.4840  177.3350  142.7410 C   0  0  0  0  0  1  0  0  0  0  0  0
  186.5100  177.6620  143.8160 C   0  0  1  0  0  3  0  0  0  0  0  0
  185.9210  178.6500  144.8240 C   0  0  1  0  0  3  0  0  0  0  0  0
  185.2930  179.8730  144.1640 C   0  0  0  0  0  1  0  0  0  0  0  0
  185.3150  178.2700  147.2640 C   0  0  0  0  0  1  0  0  0  0  0  0
  184.9660  177.9790  145.8120 C   0  0  0  0  0  2  0  0  0  0  0  0
  188.9090  174.1710  143.1310 C   0  0  0  0  0  2  0  0  0  0  0  0
  189.4460  173.6410  141.8120 C   0  0  1  0  0  3  0  0  0  0  0  0
  190.0680  172.3250  142.0100 C   0  0  0  0  0  0  0  0  0  0  0  0
  190.5850  171.2470  142.1590 C   0  0  0  0  0  0  0  0  0  0  0  0
  191.2180  169.9400  142.3340 C   0  0  0  0  0  2  0  0  0  0  0  0
  193.3810  170.1900  143.8780 C   0  0  0  0  0  3  0  0  0  0  0  0
  192.4040  170.0770  143.1820 C   0  0  0  0  0  0  0  0  0  0  0  0
  188.3750  173.5370  140.8830 O   0  0  0  0  0  0  0  0  0  0  0  0
  187.8430  172.2850  139.0120 O   0  0  0  0  0  0  0  0  0  0  0  0
  188.5680  173.1630  139.5510 C   0  0  0  0  0  0  0  0  0  0  0  0
  189.6470  173.8100  138.7600 C   0  0  0  0  0  1  0  0  0  0  0  0
  3  9  1  6  0  0  0
  4  1  1  0  0  0  0
  4 18  1  1  0  0  0
  5  8  1  0  0  0  0
  5  1  1  0  0  0  0
  6 27  1  1  0  0  0
  6  4  1  0  0  0  0
  6  2  1  0  0  0  0
  7  2  1  0  0  0  0
  8  3  1  0  0  0  0
 10  7  1  1  0  0  0
 10  3  1  0  0  0  0
 11 14  1  6  0  0  0
 11 12  1  0  0  0  0
 11 15  1  0  0  0  0
 12 13  1  6  0  0  0
 12 17  1  0  0  0  0
 12 15  1  0  0  0  0
 15 10  1  6  0  0  0
 16 17  1  0  0  0  0
 18 19  2  0  0  0  0
 20 18  1  0  0  0  0
 22 21  1  6  0  0  0
 22 20  1  0  0  0  0
 22 23  1  0  0  0  0
 23 24  1  6  0  0  0
 23 26  1  0  0  0  0
 26 25  1  0  0  0  0
 28 29  1  1  0  0  0
 28 27  1  0  0  0  0
 29 30  3  0  0  0  0
 30 31  1  0  0  0  0
 31 33  1  0  0  0  0
 33 32  3  0  0  0  0
 34 28  1  0  0  0  0
 35 36  2  0  0  0  0
 36 34  1  0  0  0  0
 37 36  1  0  0  0  0
M  END
>  <MODEL>
8

>  <REMARK>
 VINA RESULT:      -5.7      2.878      7.355
  Name = 
  14 active torsions:
  status: ('A' for Active; 'I' for Inactive)
    1  A    between atoms: C_2  and  C_19
    2  A    between atoms: C_2  and  C_35
    3  A    between atoms: C_4  and  O_13
    4  A    between atoms: C_4  and  C_20
    5  A    between atoms: C_4  and  C_22
    6  A    between atoms: C_5  and  C_23
    7  A    between atoms: O_6  and  C_31
    8  A    between atoms: O_6  and  C_35
    9  A    between atoms: O_13  and  C_16
   10  A    between atoms: C_14  and  C_31
   11  A    between atoms: C_22  and  C_28
   12  A    between atoms: C_25  and  C_32
   13  A    between atoms: C_26  and  C_36
   14  A    between atoms: C_30  and  C_32
                            x       y       z     vdW  Elec       q    Type
                         _______ _______ _______ _____ _____    ______ ____

>  <TORSDO>
F 14

$$$$
=
 OpenBabel11052420133D

 37 38  0  0  1  0  0  0  0  0999 V2000
  191.7270  174.7400  142.8220 C   0  0  0  0  0  2  0  0  0  0  0  0
  188.7300  174.2180  142.7540 C   0  0  0  0  0  2  0  0  0  0  0  0
  190.6550  172.2700  141.5250 C   0  0  2  0  0  3  0  0  0  0  0  0
  190.6880  175.8580  142.9130 C   0  0  1  0  0  3  0  0  0  0  0  0
  192.0370  174.3830  141.3750 C   0  0  0  0  0  2  0  0  0  0  0  0
  189.3590  175.5040  142.2130 C   0  0  2  0  0  3  0  0  0  0  0  0
  188.3330  173.2620  141.6280 C   0  0  0  0  0  2  0  0  0  0  0  0
  192.0140  172.8690  141.1760 C   0  0  0  0  0  2  0  0  0  0  0  0
  190.6960  170.7500  141.4800 C   0  0  0  0  0  1  0  0  0  0  0  0
  189.5090  172.9100  140.7170 C   0  0  2  0  0  3  0  0  0  0  0  0
  188.2910  172.8500  138.4100 C   0  0  2  0  0  3  0  0  0  0  0  0
  189.7280  172.3890  138.2120 C   0  0  1  0  0  0  0  0  0  0  0  0
  190.7230  173.3730  138.2590 O   0  0  0  0  0  1  0  0  0  0  0  0
  188.1940  174.3590  138.6330 C   0  0  0  0  0  1  0  0  0  0  0  0
  189.0270  172.0660  139.5230 C   0  0  1  0  0  3  0  0  0  0  0  0
  189.7250  171.7180  135.5540 S   0  0  0  0  0  1  0  0  0  0  0  0
  189.9420  171.2080  137.2840 C   0  0  0  0  0  2  0  0  0  0  0  0
  190.5060  176.2570  144.3450 C   0  0  0  0  0  0  0  0  0  0  0  0
  190.4730  177.4810  144.6460 O   0  0  0  0  0  0  0  0  0  0  0  0
  190.3960  175.2760  145.3330 O   0  0  0  0  0  0  0  0  0  0  0  0
  189.0640  174.5490  147.2170 C   0  0  0  0  0  1  0  0  0  0  0  0
  190.0520  175.5760  146.6820 C   0  0  1  0  0  3  0  0  0  0  0  0
  191.2990  175.6180  147.5670 C   0  0  1  0  0  3  0  0  0  0  0  0
  192.5330  175.0350  146.8870 C   0  0  0  0  0  1  0  0  0  0  0  0
  190.3430  177.9170  148.0820 C   0  0  0  0  0  1  0  0  0  0  0  0
  191.5640  177.0120  148.1380 C   0  0  0  0  0  2  0  0  0  0  0  0
  188.3720  176.6670  142.2690 C   0  0  0  0  0  2  0  0  0  0  0  0
  187.0530  176.2420  142.8910 C   0  0  1  0  0  3  0  0  0  0  0  0
  186.9850  176.6850  144.2890 C   0  0  0  0  0  0  0  0  0  0  0  0
  186.9150  177.0460  145.4370 C   0  0  0  0  0  0  0  0  0  0  0  0
  186.8220  177.4790  146.8310 C   0  0  0  0  0  2  0  0  0  0  0  0
  184.4440  178.6140  147.2600 C   0  0  0  0  0  3  0  0  0  0  0  0
  185.5170  178.1030  147.0670 C   0  0  0  0  0  0  0  0  0  0  0  0
  185.9840  176.8140  142.1480 O   0  0  0  0  0  0  0  0  0  0  0  0
  186.2140  179.1110  142.3010 O   0  0  0  0  0  0  0  0  0  0  0  0
  185.4820  178.0910  142.4130 C   0  0  0  0  0  0  0  0  0  0  0  0
  184.0660  178.2470  142.8330 C   0  0  0  0  0  1  0  0  0  0  0  0
  1  4  1  0  0  0  0
  3  9  1  6  0  0  0
  4 18  1  1  0  0  0
  5  1  1  0  0  0  0
  6 27  1  1  0  0  0
  6  2  1  0  0  0  0
  6  4  1  0  0  0  0
  7  2  1  0  0  0  0
  8  5  1  0  0  0  0
  8  3  1  0  0  0  0
 10  3  1  0  0  0  0
 10  7  1  1  0  0  0
 11 14  1  1  0  0  0
 11 15  1  0  0  0  0
 12 13  1  1  0  0  0
 12 11  1  0  0  0  0
 12 15  1  0  0  0  0
 15 10  1  1  0  0  0
 16 17  1  0  0  0  0
 17 12  1  0  0  0  0
 18 19  2  0  0  0  0
 18 20  1  0  0  0  0
 20 22  1  0  0  0  0
 22 21  1  1  0  0  0
 22 23  1  0  0  0  0
 23 24  1  6  0  0  0
 23 26  1  0  0  0  0
 25 26  1  0  0  0  0
 28 27  1  6  0  0  0
 28 29  1  0  0  0  0
 29 30  3  0  0  0  0
 30 31  1  0  0  0  0
 31 33  1  0  0  0  0
 33 32  3  0  0  0  0
 34 36  1  0  0  0  0
 34 28  1  0  0  0  0
 35 36  2  0  0  0  0
 36 37  1  0  0  0  0
M  END
>  <MODEL>
9

>  <REMARK>
 VINA RESULT:      -5.7      3.257      6.867
  Name = 
  14 active torsions:
  status: ('A' for Active; 'I' for Inactive)
    1  A    between atoms: C_2  and  C_19
    2  A    between atoms: C_2  and  C_35
    3  A    between atoms: C_4  and  O_13
    4  A    between atoms: C_4  and  C_20
    5  A    between atoms: C_4  and  C_22
    6  A    between atoms: C_5  and  C_23
    7  A    between atoms: O_6  and  C_31
    8  A    between atoms: O_6  and  C_35
    9  A    between atoms: O_13  and  C_16
   10  A    between atoms: C_14  and  C_31
   11  A    between atoms: C_22  and  C_28
   12  A    between atoms: C_25  and  C_32
   13  A    between atoms: C_26  and  C_36
   14  A    between atoms: C_30  and  C_32
                            x       y       z     vdW  Elec       q    Type
                         _______ _______ _______ _____ _____    ______ ____

>  <TORSDO>
F 14

$$$$
