=
 OpenBabel11052421273D

 32 37  0  0  1  0  0  0  0  0999 V2000
  196.1640  176.4480  143.8050 C   0  0  0  0  0  0  0  0  0  0  0  0
  193.9800  173.5550  143.9500 O   0  0  0  0  0  0  0  0  0  0  0  0
  190.1150  176.5170  144.8710 C   0  0  0  0  0  3  0  0  0  0  0  0
  187.7100  172.6320  141.0180 C   0  0  0  0  0  2  0  0  0  0  0  0
  188.2510  173.7360  140.1110 C   0  0  0  0  0  2  0  0  0  0  0  0
  191.9660  175.0560  145.6890 C   0  0  0  0  0  0  0  0  0  0  0  0
  190.6100  173.5100  144.2480 C   0  0  0  0  0  3  0  0  0  0  0  0
  195.6720  175.2250  143.3740 C   0  0  0  0  0  3  0  0  0  0  0  0
  193.0080  172.9950  144.8310 C   0  0  0  0  0  2  0  0  0  0  0  0
  188.5300  172.5740  142.3030 C   0  0  0  0  0  2  0  0  0  0  0  0
  189.6260  174.3150  143.8280 C   0  0  0  0  0  0  0  0  0  0  0  0
  188.6370  173.9090  142.8860 N   0  0  0  0  0  0  0  0  0  0  0  0
  188.6750  176.2440  142.9270 N   0  0  0  0  0  0  0  0  0  0  0  0
  195.3450  176.9720  145.1760 S   0  0  0  0  0  0  0  0  0  0  0  0
  194.3270  175.6370  145.2500 C   0  0  0  0  0  0  0  0  0  0  0  0
  197.2180  177.1630  143.1720 N   0  0  0  0  0  1  0  0  0  0  0  0
  191.8320  173.9120  144.9810 C   0  0  0  0  0  0  0  0  0  0  0  0
  193.2860  175.4250  146.3030 C   0  0  0  0  0  2  0  0  0  0  0  0
  194.6370  174.7670  144.1990 C   0  0  0  0  0  0  0  0  0  0  0  0
  188.2500  175.1270  140.7710 C   0  0  0  0  0  2  0  0  0  0  0  0
  188.0210  175.0990  142.2890 C   0  0  1  0  0  3  0  0  0  0  0  0
  190.8040  175.9220  146.0530 C   0  0  0  0  0  2  0  0  0  0  0  0
  189.5830  175.7610  143.9130 C   0  0  0  0  0  0  0  0  0  0  0  0
  188.1820  177.6150  142.8370 C   0  0  0  0  0  2  0  0  0  0  0  0
  186.8020  178.2740  144.8130 C   0  0  0  0  0  2  0  0  0  0  0  0
  185.4590  178.7320  145.3190 C   0  0  0  0  0  0  0  0  0  0  0  0
  185.9060  178.6190  142.4980 C   0  0  2  0  0  3  0  0  0  0  0  0
  184.4760  178.6230  143.0310 C   0  0  0  0  0  2  0  0  0  0  0  0
  184.4260  178.9430  144.4980 C   0  0  0  0  0  3  0  0  0  0  0  0
  185.3120  179.0090  146.6700 O   0  0  0  0  0  1  0  0  0  0  0  0
  185.8960  178.1390  141.1870 O   0  0  0  0  0  1  0  0  0  0  0  0
  186.7630  177.7180  143.3860 C   0  0  1  0  0  3  0  0  0  0  0  0
  1 14  1  0  0  0  0
  2 19  1  0  0  0  0
  2  9  1  0  0  0  0
  3 22  1  0  0  0  0
  4 10  1  0  0  0  0
  5 20  1  0  0  0  0
  5  4  1  0  0  0  0
  6 22  1  0  0  0  0
  6 18  1  0  0  0  0
  7 17  1  0  0  0  0
  8  1  2  0  0  0  0
  8 19  1  0  0  0  0
  9 17  1  0  0  0  0
 10 12  1  0  0  0  0
 11 23  1  0  0  0  0
 11  7  2  0  0  0  0
 12 11  1  0  0  0  0
 13 23  1  0  0  0  0
 14 15  1  0  0  0  0
 15 18  1  0  0  0  0
 16  1  1  0  0  0  0
 17  6  2  0  0  0  0
 19 15  2  0  0  0  0
 21 20  1  6  0  0  0
 21 12  1  0  0  0  0
 21 13  1  0  0  0  0
 23  3  2  0  0  0  0
 24 13  1  0  0  0  0
 25 26  1  0  0  0  0
 26 30  1  0  0  0  0
 27 31  1  6  0  0  0
 27 28  1  0  0  0  0
 27 32  1  0  0  0  0
 28 29  1  0  0  0  0
 29 26  2  0  0  0  0
 32 24  1  6  0  0  0
 32 25  1  0  0  0  0
M  END
>  <MODEL>
1

>  <REMARK>
 VINA RESULT:      -8.4      0.000      0.000
  Name = 
  2 active torsions:
  status: ('A' for Active; 'I' for Inactive)
    1  A    between atoms: N_16  and  C_27
    2  A    between atoms: C_27  and  C_32
                            x       y       z     vdW  Elec       q    Type
                         _______ _______ _______ _____ _____    ______ ____

>  <TORSDO>
F 2

$$$$
=
 OpenBabel11052421273D

 32 37  0  0  1  0  0  0  0  0999 V2000
  190.2260  172.1270  140.7080 C   0  0  0  0  0  0  0  0  0  0  0  0
  190.3980  173.2700  144.1460 O   0  0  0  0  0  0  0  0  0  0  0  0
  189.1580  177.8420  142.6920 C   0  0  0  0  0  3  0  0  0  0  0  0
  185.9020  177.2850  147.6730 C   0  0  0  0  0  2  0  0  0  0  0  0
  184.9690  176.7610  146.5830 C   0  0  0  0  0  2  0  0  0  0  0  0
  190.9020  176.1480  143.2550 C   0  0  0  0  0  0  0  0  0  0  0  0
  189.5580  176.3110  145.3690 C   0  0  0  0  0  3  0  0  0  0  0  0
  189.9970  172.0370  142.0730 C   0  0  0  0  0  3  0  0  0  0  0  0
  191.0200  174.3130  144.8940 C   0  0  0  0  0  2  0  0  0  0  0  0
  187.3540  177.0730  147.2520 C   0  0  0  0  0  2  0  0  0  0  0  0
  188.6370  177.2250  145.0420 C   0  0  0  0  0  0  0  0  0  0  0  0
  187.5630  177.5920  145.9030 N   0  0  0  0  0  0  0  0  0  0  0  0
  186.9930  178.2350  143.7310 N   0  0  0  0  0  0  0  0  0  0  0  0
  191.0550  173.5410  140.3340 S   0  0  0  0  0  0  0  0  0  0  0  0
  191.1370  174.0800  141.9240 C   0  0  0  0  0  0  0  0  0  0  0  0
  189.8150  171.1560  139.7530 N   0  0  0  0  0  1  0  0  0  0  0  0
  190.5210  175.6560  144.4550 C   0  0  0  0  0  0  0  0  0  0  0  0
  191.8000  175.3510  142.3530 C   0  0  0  0  0  2  0  0  0  0  0  0
  190.5200  173.1410  142.7570 C   0  0  0  0  0  0  0  0  0  0  0  0
  185.1970  177.4210  145.2100 C   0  0  0  0  0  2  0  0  0  0  0  0
  186.5020  178.2240  145.1110 C   0  0  1  0  0  3  0  0  0  0  0  0
  190.6160  177.5510  142.8290 C   0  0  0  0  0  2  0  0  0  0  0  0
  188.3160  177.7060  143.7130 C   0  0  0  0  0  0  0  0  0  0  0  0
  186.3840  179.0150  142.6590 C   0  0  0  0  0  2  0  0  0  0  0  0
  183.9260  178.7240  142.3160 C   0  0  0  0  0  2  0  0  0  0  0  0
  182.8270  178.2270  141.4130 C   0  0  0  0  0  0  0  0  0  0  0  0
  185.5070  178.2830  140.4220 C   0  0  2  0  0  3  0  0  0  0  0  0
  184.4760  177.3870  139.7440 C   0  0  0  0  0  2  0  0  0  0  0  0
  183.0810  177.6740  140.2240 C   0  0  0  0  0  3  0  0  0  0  0  0
  181.5080  178.4130  141.8010 O   0  0  0  0  0  1  0  0  0  0  0  0
  186.7850  177.8440  140.0720 O   0  0  0  0  0  1  0  0  0  0  0  0
  185.3150  178.2010  141.9360 C   0  0  1  0  0  3  0  0  0  0  0  0
  1  8  2  0  0  0  0
  2  9  1  0  0  0  0
  3 22  1  0  0  0  0
  3 23  2  0  0  0  0
  5  4  1  0  0  0  0
  6 17  2  0  0  0  0
  8 19  1  0  0  0  0
 10  4  1  0  0  0  0
 11  7  2  0  0  0  0
 11 12  1  0  0  0  0
 12 10  1  0  0  0  0
 13 21  1  0  0  0  0
 14  1  1  0  0  0  0
 14 15  1  0  0  0  0
 15 18  1  0  0  0  0
 15 19  2  0  0  0  0
 16  1  1  0  0  0  0
 17  9  1  0  0  0  0
 17  7  1  0  0  0  0
 18  6  1  0  0  0  0
 19  2  1  0  0  0  0
 20  5  1  0  0  0  0
 21 20  1  6  0  0  0
 21 12  1  0  0  0  0
 22  6  1  0  0  0  0
 23 13  1  0  0  0  0
 23 11  1  0  0  0  0
 24 13  1  0  0  0  0
 26 30  1  0  0  0  0
 26 25  1  0  0  0  0
 27 31  1  1  0  0  0
 27 32  1  0  0  0  0
 28 29  1  0  0  0  0
 28 27  1  0  0  0  0
 29 26  2  0  0  0  0
 32 25  1  0  0  0  0
 32 24  1  1  0  0  0
M  END
>  <MODEL>
2

>  <REMARK>
 VINA RESULT:      -7.8      3.389      4.983
  Name = 
  2 active torsions:
  status: ('A' for Active; 'I' for Inactive)
    1  A    between atoms: N_16  and  C_27
    2  A    between atoms: C_27  and  C_32
                            x       y       z     vdW  Elec       q    Type
                         _______ _______ _______ _____ _____    ______ ____

>  <TORSDO>
F 2

$$$$
=
 OpenBabel11052421273D

 32 37  0  0  1  0  0  0  0  0999 V2000
  185.3320  178.3250  146.3780 C   0  0  0  0  0  0  0  0  0  0  0  0
  185.8060  176.0190  143.6190 O   0  0  0  0  0  0  0  0  0  0  0  0
  190.5540  177.3950  143.2810 C   0  0  0  0  0  3  0  0  0  0  0  0
  191.0010  171.4830  142.5250 C   0  0  0  0  0  2  0  0  0  0  0  0
  191.1320  171.6550  144.0380 C   0  0  0  0  0  2  0  0  0  0  0  0
  188.1750  177.6330  142.5640 C   0  0  0  0  0  0  0  0  0  0  0  0
  188.6940  175.2330  142.0410 C   0  0  0  0  0  3  0  0  0  0  0  0
  185.1900  177.1150  145.7170 C   0  0  0  0  0  3  0  0  0  0  0  0
  186.3180  176.0390  142.2880 C   0  0  0  0  0  2  0  0  0  0  0  0
  190.1740  172.6280  141.9470 C   0  0  0  0  0  2  0  0  0  0  0  0
  189.9710  175.1350  142.4300 C   0  0  0  0  0  0  0  0  0  0  0  0
  190.6950  173.9080  142.4210 N   0  0  0  0  0  0  0  0  0  0  0  0
  191.8030  175.3850  143.8520 N   0  0  0  0  0  0  0  0  0  0  0  0
  186.2090  179.4160  145.4470 S   0  0  0  0  0  0  0  0  0  0  0  0
  186.4360  178.3530  144.1640 C   0  0  0  0  0  0  0  0  0  0  0  0
  184.8080  178.6070  147.6700 N   0  0  0  0  0  1  0  0  0  0  0  0
  187.7790  176.3720  142.2830 C   0  0  0  0  0  0  0  0  0  0  0  0
  187.1670  178.6930  142.9040 C   0  0  0  0  0  2  0  0  0  0  0  0
  185.8110  177.1380  144.4620 C   0  0  0  0  0  0  0  0  0  0  0  0
  191.7700  172.9940  144.4500 C   0  0  0  0  0  2  0  0  0  0  0  0
  191.8530  174.0240  143.3140 C   0  0  1  0  0  3  0  0  0  0  0  0
  189.5850  178.0960  142.3880 C   0  0  0  0  0  2  0  0  0  0  0  0
  190.7110  176.0740  143.2480 C   0  0  0  0  0  0  0  0  0  0  0  0
  192.9080  176.0200  144.5620 C   0  0  0  0  0  2  0  0  0  0  0  0
  194.6130  176.4150  142.7790 C   0  0  0  0  0  2  0  0  0  0  0  0
  196.0530  176.2800  142.3570 C   0  0  0  0  0  0  0  0  0  0  0  0
  195.3450  175.6710  145.0580 C   0  0  2  0  0  3  0  0  0  0  0  0
  196.6470  175.1220  144.4830 C   0  0  0  0  0  2  0  0  0  0  0  0
  196.9800  175.7450  143.1570 C   0  0  0  0  0  3  0  0  0  0  0  0
  196.4400  176.7910  141.1270 O   0  0  0  0  0  1  0  0  0  0  0  0
  195.0020  174.9260  146.1880 O   0  0  0  0  0  1  0  0  0  0  0  0
  194.2490  175.5620  143.9980 C   0  0  1  0  0  3  0  0  0  0  0  0
  1 16  1  0  0  0  0
  2 19  1  0  0  0  0
  4  5  1  0  0  0  0
  5 20  1  0  0  0  0
  6 18  1  0  0  0  0
  7 17  1  0  0  0  0
  7 11  2  0  0  0  0
  8  1  2  0  0  0  0
  9  2  1  0  0  0  0
 10 12  1  0  0  0  0
 10  4  1  0  0  0  0
 11 23  1  0  0  0  0
 12 11  1  0  0  0  0
 12 21  1  0  0  0  0
 13 24  1  0  0  0  0
 14  1  1  0  0  0  0
 15 19  2  0  0  0  0
 15 14  1  0  0  0  0
 17  9  1  0  0  0  0
 17  6  2  0  0  0  0
 18 15  1  0  0  0  0
 19  8  1  0  0  0  0
 21 13  1  0  0  0  0
 21 20  1  1  0  0  0
 22  6  1  0  0  0  0
 22  3  1  0  0  0  0
 23  3  2  0  0  0  0
 23 13  1  0  0  0  0
 25 32  1  0  0  0  0
 26 25  1  0  0  0  0
 26 29  2  0  0  0  0
 27 31  1  1  0  0  0
 28 27  1  0  0  0  0
 29 28  1  0  0  0  0
 30 26  1  0  0  0  0
 32 24  1  1  0  0  0
 32 27  1  0  0  0  0
M  END
>  <MODEL>
3

>  <REMARK>
 VINA RESULT:      -7.1      2.779      8.037
  Name = 
  2 active torsions:
  status: ('A' for Active; 'I' for Inactive)
    1  A    between atoms: N_16  and  C_27
    2  A    between atoms: C_27  and  C_32
                            x       y       z     vdW  Elec       q    Type
                         _______ _______ _______ _____ _____    ______ ____

>  <TORSDO>
F 2

$$$$
=
 OpenBabel11052421273D

 32 37  0  0  1  0  0  0  0  0999 V2000
  187.2750  177.3760  141.5560 C   0  0  0  0  0  0  0  0  0  0  0  0
  189.8820  178.1550  143.9550 O   0  0  0  0  0  0  0  0  0  0  0  0
  190.2020  173.3610  145.1680 C   0  0  0  0  0  3  0  0  0  0  0  0
  195.9720  174.9140  145.0350 C   0  0  0  0  0  2  0  0  0  0  0  0
  195.6970  174.4610  143.6020 C   0  0  0  0  0  2  0  0  0  0  0  0
  189.2640  175.6380  145.5720 C   0  0  0  0  0  0  0  0  0  0  0  0
  191.7410  175.9940  145.7770 C   0  0  0  0  0  3  0  0  0  0  0  0
  188.4320  178.0040  141.9910 C   0  0  0  0  0  3  0  0  0  0  0  0
  190.1710  177.9160  145.3310 C   0  0  0  0  0  2  0  0  0  0  0  0
  194.6840  175.4370  145.6650 C   0  0  0  0  0  2  0  0  0  0  0  0
  192.2170  174.7620  145.5610 C   0  0  0  0  0  0  0  0  0  0  0  0
  193.6080  174.4670  145.4770 N   0  0  0  0  0  0  0  0  0  0  0  0
  192.4420  172.7140  144.4670 N   0  0  0  0  0  0  0  0  0  0  0  0
  186.6410  176.3910  142.7610 S   0  0  0  0  0  0  0  0  0  0  0  0
  187.8460  176.7440  143.8790 C   0  0  0  0  0  0  0  0  0  0  0  0
  186.7020  177.5410  140.2640 N   0  0  0  0  0  1  0  0  0  0  0  0
  190.3450  176.4500  145.5930 C   0  0  0  0  0  0  0  0  0  0  0  0
  187.9010  176.1880  145.2670 C   0  0  0  0  0  2  0  0  0  0  0  0
  188.7470  177.6490  143.3080 C   0  0  0  0  0  0  0  0  0  0  0  0
  194.6100  173.3760  143.4990 C   0  0  0  0  0  2  0  0  0  0  0  0
  193.7910  173.1870  144.7840 C   0  0  1  0  0  3  0  0  0  0  0  0
  189.3170  174.2120  146.0160 C   0  0  0  0  0  2  0  0  0  0  0  0
  191.4960  173.6300  145.0130 C   0  0  0  0  0  0  0  0  0  0  0  0
  192.1400  171.3560  144.0270 C   0  0  0  0  0  2  0  0  0  0  0  0
  193.2010  170.3760  141.9880 C   0  0  0  0  0  2  0  0  0  0  0  0
  193.0280  169.9620  140.5500 C   0  0  0  0  0  0  0  0  0  0  0  0
  190.7220  170.7430  142.0470 C   0  0  2  0  0  3  0  0  0  0  0  0
  190.6700  170.7670  140.5220 C   0  0  0  0  0  2  0  0  0  0  0  0
  191.8630  170.0890  139.9100 C   0  0  0  0  0  3  0  0  0  0  0  0
  194.0950  169.3660  139.8930 O   0  0  0  0  0  1  0  0  0  0  0  0
  189.6910  171.5410  142.5460 O   0  0  0  0  0  1  0  0  0  0  0  0
  192.0780  171.2800  142.5050 C   0  0  1  0  0  3  0  0  0  0  0  0
  1  8  2  0  0  0  0
  1 14  1  0  0  0  0
  2  9  1  0  0  0  0
  3 22  1  0  0  0  0
  4 10  1  0  0  0  0
  5  4  1  0  0  0  0
  6 17  2  0  0  0  0
  6 22  1  0  0  0  0
  8 19  1  0  0  0  0
  9 17  1  0  0  0  0
 11  7  2  0  0  0  0
 12 11  1  0  0  0  0
 12 10  1  0  0  0  0
 13 21  1  0  0  0  0
 13 23  1  0  0  0  0
 14 15  1  0  0  0  0
 15 18  1  0  0  0  0
 16  1  1  0  0  0  0
 17  7  1  0  0  0  0
 18  6  1  0  0  0  0
 19 15  2  0  0  0  0
 19  2  1  0  0  0  0
 20  5  1  0  0  0  0
 21 20  1  6  0  0  0
 21 12  1  0  0  0  0
 23  3  2  0  0  0  0
 23 11  1  0  0  0  0
 24 13  1  0  0  0  0
 25 32  1  0  0  0  0
 26 25  1  0  0  0  0
 27 32  1  0  0  0  0
 27 31  1  1  0  0  0
 28 27  1  0  0  0  0
 29 28  1  0  0  0  0
 29 26  2  0  0  0  0
 30 26  1  0  0  0  0
 32 24  1  1  0  0  0
M  END
>  <MODEL>
4

>  <REMARK>
 VINA RESULT:      -7.0      3.298      7.879
  Name = 
  2 active torsions:
  status: ('A' for Active; 'I' for Inactive)
    1  A    between atoms: N_16  and  C_27
    2  A    between atoms: C_27  and  C_32
                            x       y       z     vdW  Elec       q    Type
                         _______ _______ _______ _____ _____    ______ ____

>  <TORSDO>
F 2

$$$$
=
 OpenBabel11052421273D

 32 37  0  0  1  0  0  0  0  0999 V2000
  193.5440  172.8840  138.1190 C   0  0  0  0  0  0  0  0  0  0  0  0
  190.1130  173.9470  138.6180 O   0  0  0  0  0  0  0  0  0  0  0  0
  190.3410  172.4750  143.3430 C   0  0  0  0  0  3  0  0  0  0  0  0
  187.3760  177.6380  143.8760 C   0  0  0  0  0  2  0  0  0  0  0  0
  188.8390  178.0580  144.0090 C   0  0  0  0  0  2  0  0  0  0  0  0
  189.7640  172.0170  140.9590 C   0  0  0  0  0  0  0  0  0  0  0  0
  188.3620  174.0240  141.5120 C   0  0  0  0  0  3  0  0  0  0  0  0
  192.4690  173.7500  137.9930 C   0  0  0  0  0  3  0  0  0  0  0  0
  188.8920  173.4100  139.1240 C   0  0  0  0  0  2  0  0  0  0  0  0
  187.2790  176.3710  143.0300 C   0  0  0  0  0  2  0  0  0  0  0  0
  188.6860  174.2450  142.7910 C   0  0  0  0  0  0  0  0  0  0  0  0
  188.2090  175.3630  143.5340 N   0  0  0  0  0  0  0  0  0  0  0  0
  190.1000  174.5320  144.6240 N   0  0  0  0  0  0  0  0  0  0  0  0
  193.1050  171.5060  138.9760 S   0  0  0  0  0  0  0  0  0  0  0  0
  191.5130  171.9920  139.2150 C   0  0  0  0  0  0  0  0  0  0  0  0
  194.8440  173.1270  137.5940 N   0  0  0  0  0  1  0  0  0  0  0  0
  189.0190  173.0790  140.5810 C   0  0  0  0  0  0  0  0  0  0  0  0
  190.4820  171.1830  139.9360 C   0  0  0  0  0  2  0  0  0  0  0  0
  191.3210  173.2380  138.6090 C   0  0  0  0  0  0  0  0  0  0  0  0
  189.7350  176.9690  144.6280 C   0  0  0  0  0  2  0  0  0  0  0  0
  189.0810  175.5820  144.6930 C   0  0  1  0  0  3  0  0  0  0  0  0
  189.7820  171.5000  142.3610 C   0  0  0  0  0  2  0  0  0  0  0  0
  189.8040  173.6800  143.5200 C   0  0  0  0  0  0  0  0  0  0  0  0
  191.0030  174.2020  145.7220 C   0  0  0  0  0  2  0  0  0  0  0  0
  192.7150  175.9310  146.2930 C   0  0  0  0  0  2  0  0  0  0  0  0
  194.1760  176.2930  146.3380 C   0  0  0  0  0  0  0  0  0  0  0  0
  193.4410  173.6030  145.7120 C   0  0  2  0  0  3  0  0  0  0  0  0
  194.8270  174.1110  145.3240 C   0  0  0  0  0  2  0  0  0  0  0  0
  195.1310  175.4430  145.9510 C   0  0  0  0  0  3  0  0  0  0  0  0
  194.5430  177.5240  146.8630 O   0  0  0  0  0  1  0  0  0  0  0  0
  193.1520  172.4650  144.9580 O   0  0  0  0  0  1  0  0  0  0  0  0
  192.4150  174.7000  145.4310 C   0  0  1  0  0  3  0  0  0  0  0  0
  1 14  1  0  0  0  0
  2  9  1  0  0  0  0
  3 23  2  0  0  0  0
  4  5  1  0  0  0  0
  5 20  1  0  0  0  0
  6 22  1  0  0  0  0
  7 11  2  0  0  0  0
  8  1  2  0  0  0  0
  8 19  1  0  0  0  0
  9 17  1  0  0  0  0
 10 12  1  0  0  0  0
 10  4  1  0  0  0  0
 11 23  1  0  0  0  0
 11 12  1  0  0  0  0
 12 21  1  0  0  0  0
 13 21  1  0  0  0  0
 13 24  1  0  0  0  0
 14 15  1  0  0  0  0
 15 18  1  0  0  0  0
 16  1  1  0  0  0  0
 17  6  2  0  0  0  0
 17  7  1  0  0  0  0
 18  6  1  0  0  0  0
 19  2  1  0  0  0  0
 19 15  2  0  0  0  0
 21 20  1  6  0  0  0
 22  3  1  0  0  0  0
 23 13  1  0  0  0  0
 25 26  1  0  0  0  0
 26 30  1  0  0  0  0
 27 31  1  6  0  0  0
 28 27  1  0  0  0  0
 28 29  1  0  0  0  0
 29 26  2  0  0  0  0
 32 27  1  0  0  0  0
 32 24  1  1  0  0  0
 32 25  1  0  0  0  0
M  END
>  <MODEL>
5

>  <REMARK>
 VINA RESULT:      -6.9      3.230      6.800
  Name = 
  2 active torsions:
  status: ('A' for Active; 'I' for Inactive)
    1  A    between atoms: N_16  and  C_27
    2  A    between atoms: C_27  and  C_32
                            x       y       z     vdW  Elec       q    Type
                         _______ _______ _______ _____ _____    ______ ____

>  <TORSDO>
F 2

$$$$
=
 OpenBabel11052421273D

 32 37  0  0  1  0  0  0  0  0999 V2000
  185.0900  178.3770  146.4000 C   0  0  0  0  0  0  0  0  0  0  0  0
  185.1490  176.7070  143.1810 O   0  0  0  0  0  0  0  0  0  0  0  0
  190.0340  177.4770  142.8680 C   0  0  0  0  0  3  0  0  0  0  0  0
  189.6060  171.8800  140.8150 C   0  0  0  0  0  2  0  0  0  0  0  0
  189.8030  171.6880  142.3180 C   0  0  0  0  0  2  0  0  0  0  0  0
  187.6950  178.1850  142.3640 C   0  0  0  0  0  0  0  0  0  0  0  0
  187.8480  175.9160  141.3000 C   0  0  0  0  0  3  0  0  0  0  0  0
  184.7570  177.3760  145.5000 C   0  0  0  0  0  3  0  0  0  0  0  0
  185.6210  176.9570  141.8580 C   0  0  0  0  0  2  0  0  0  0  0  0
  188.9360  173.2250  140.5520 C   0  0  0  0  0  2  0  0  0  0  0  0
  189.1090  175.5640  141.5800 C   0  0  0  0  0  0  0  0  0  0  0  0
  189.6490  174.2850  141.2610 N   0  0  0  0  0  0  0  0  0  0  0  0
  190.9970  175.2410  142.9110 N   0  0  0  0  0  0  0  0  0  0  0  0
  186.0880  179.5220  145.6780 S   0  0  0  0  0  0  0  0  0  0  0  0
  186.1230  178.7540  144.1830 C   0  0  0  0  0  0  0  0  0  0  0  0
  184.6490  178.4300  147.7510 N   0  0  0  0  0  1  0  0  0  0  0  0
  187.1140  177.0840  141.8380 C   0  0  0  0  0  0  0  0  0  0  0  0
  186.8600  179.2670  142.9860 C   0  0  0  0  0  2  0  0  0  0  0  0
  185.3390  177.5970  144.2460 C   0  0  0  0  0  0  0  0  0  0  0  0
  190.6380  172.8040  142.9740 C   0  0  0  0  0  2  0  0  0  0  0  0
  190.8360  174.0410  142.0870 C   0  0  1  0  0  3  0  0  0  0  0  0
  189.1510  178.4830  142.2090 C   0  0  0  0  0  2  0  0  0  0  0  0
  189.9990  176.1880  142.5390 C   0  0  0  0  0  0  0  0  0  0  0  0
  192.2020  175.5470  143.6760 C   0  0  0  0  0  2  0  0  0  0  0  0
  190.7380  175.1000  145.6510 C   0  0  0  0  0  2  0  0  0  0  0  0
  190.5510  175.2330  147.1400 C   0  0  0  0  0  0  0  0  0  0  0  0
  193.0750  175.9370  145.9980 C   0  0  2  0  0  3  0  0  0  0  0  0
  192.6980  176.4770  147.3740 C   0  0  0  0  0  2  0  0  0  0  0  0
  191.4700  175.8070  147.9220 C   0  0  0  0  0  3  0  0  0  0  0  0
  189.4210  174.6800  147.7240 O   0  0  0  0  0  1  0  0  0  0  0  0
  194.1030  176.7210  145.4720 O   0  0  0  0  0  1  0  0  0  0  0  0
  191.8470  175.9960  145.0900 C   0  0  1  0  0  3  0  0  0  0  0  0
  1 16  1  0  0  0  0
  2 19  1  0  0  0  0
  4  5  1  0  0  0  0
  5 20  1  0  0  0  0
  6 18  1  0  0  0  0
  7 11  2  0  0  0  0
  7 17  1  0  0  0  0
  8  1  2  0  0  0  0
  9  2  1  0  0  0  0
 10  4  1  0  0  0  0
 10 12  1  0  0  0  0
 11 23  1  0  0  0  0
 12 11  1  0  0  0  0
 12 21  1  0  0  0  0
 13 24  1  0  0  0  0
 14  1  1  0  0  0  0
 15 19  2  0  0  0  0
 15 14  1  0  0  0  0
 17  9  1  0  0  0  0
 17  6  2  0  0  0  0
 18 15  1  0  0  0  0
 19  8  1  0  0  0  0
 21 13  1  0  0  0  0
 21 20  1  1  0  0  0
 22  6  1  0  0  0  0
 22  3  1  0  0  0  0
 23  3  2  0  0  0  0
 23 13  1  0  0  0  0
 25 26  1  0  0  0  0
 26 30  1  0  0  0  0
 26 29  2  0  0  0  0
 27 31  1  6  0  0  0
 27 28  1  0  0  0  0
 28 29  1  0  0  0  0
 32 24  1  6  0  0  0
 32 25  1  0  0  0  0
 32 27  1  0  0  0  0
M  END
>  <MODEL>
6

>  <REMARK>
 VINA RESULT:      -6.9      2.872      7.106
  Name = 
  2 active torsions:
  status: ('A' for Active; 'I' for Inactive)
    1  A    between atoms: N_16  and  C_27
    2  A    between atoms: C_27  and  C_32
                            x       y       z     vdW  Elec       q    Type
                         _______ _______ _______ _____ _____    ______ ____

>  <TORSDO>
F 2

$$$$
=
 OpenBabel11052421273D

 32 37  0  0  1  0  0  0  0  0999 V2000
  196.6530  170.2380  142.9720 C   0  0  0  0  0  0  0  0  0  0  0  0
  196.4540  172.4530  145.8380 O   0  0  0  0  0  0  0  0  0  0  0  0
  194.3200  175.9200  143.0130 C   0  0  0  0  0  3  0  0  0  0  0  0
  191.0820  176.3450  148.0190 C   0  0  0  0  0  2  0  0  0  0  0  0
  190.3220  175.3060  147.1960 C   0  0  0  0  0  2  0  0  0  0  0  0
  196.3640  174.9170  144.0350 C   0  0  0  0  0  0  0  0  0  0  0  0
  194.9410  175.4740  146.0270 C   0  0  0  0  0  3  0  0  0  0  0  0
  196.4000  170.5530  144.2990 C   0  0  0  0  0  3  0  0  0  0  0  0
  196.8130  173.7910  146.1790 C   0  0  0  0  0  2  0  0  0  0  0  0
  192.5600  176.3220  147.6380 C   0  0  0  0  0  2  0  0  0  0  0  0
  193.8580  176.0110  145.4530 C   0  0  0  0  0  0  0  0  0  0  0  0
  192.7010  176.4020  146.1860 N   0  0  0  0  0  0  0  0  0  0  0  0
  192.0840  176.1610  143.9460 N   0  0  0  0  0  0  0  0  0  0  0  0
  197.1740  171.5930  142.1250 S   0  0  0  0  0  0  0  0  0  0  0  0
  197.0830  172.6280  143.4470 C   0  0  0  0  0  0  0  0  0  0  0  0
  196.4940  168.9440  142.4040 N   0  0  0  0  0  1  0  0  0  0  0  0
  196.0540  174.7770  145.3430 C   0  0  0  0  0  0  0  0  0  0  0  0
  197.4430  174.0800  143.4110 C   0  0  0  0  0  2  0  0  0  0  0  0
  196.6510  171.9050  144.5640 C   0  0  0  0  0  0  0  0  0  0  0  0
  190.4530  175.5120  145.6760 C   0  0  0  0  0  2  0  0  0  0  0  0
  191.5580  176.4970  145.2710 C   0  0  1  0  0  3  0  0  0  0  0  0
  195.8000  176.0080  143.1830 C   0  0  0  0  0  2  0  0  0  0  0  0
  193.4900  175.9500  144.0530 C   0  0  0  0  0  0  0  0  0  0  0  0
  191.3620  176.3970  142.7010 C   0  0  0  0  0  2  0  0  0  0  0  0
  189.1810  177.6070  142.5480 C   0  0  0  0  0  2  0  0  0  0  0  0
  187.6860  177.5000  142.3990 C   0  0  0  0  0  0  0  0  0  0  0  0
  189.2750  175.1480  142.0750 C   0  0  2  0  0  3  0  0  0  0  0  0
  187.7890  175.0100  142.3880 C   0  0  0  0  0  2  0  0  0  0  0  0
  187.0670  176.3230  142.2700 C   0  0  0  0  0  3  0  0  0  0  0  0
  186.9360  178.6660  142.3250 O   0  0  0  0  0  1  0  0  0  0  0  0
  189.9130  173.9440  142.3790 O   0  0  0  0  0  1  0  0  0  0  0  0
  189.8560  176.2830  142.9180 C   0  0  1  0  0  3  0  0  0  0  0  0
  1  8  2  0  0  0  0
  2  9  1  0  0  0  0
  3 22  1  0  0  0  0
  3 23  2  0  0  0  0
  5  4  1  0  0  0  0
  6 17  2  0  0  0  0
  8 19  1  0  0  0  0
 10  4  1  0  0  0  0
 11  7  2  0  0  0  0
 11 12  1  0  0  0  0
 12 10  1  0  0  0  0
 13 23  1  0  0  0  0
 13 21  1  0  0  0  0
 14  1  1  0  0  0  0
 14 15  1  0  0  0  0
 15 19  2  0  0  0  0
 16  1  1  0  0  0  0
 17  7  1  0  0  0  0
 17  9  1  0  0  0  0
 18 15  1  0  0  0  0
 18  6  1  0  0  0  0
 19  2  1  0  0  0  0
 20  5  1  0  0  0  0
 21 20  1  1  0  0  0
 21 12  1  0  0  0  0
 22  6  1  0  0  0  0
 23 11  1  0  0  0  0
 24 13  1  0  0  0  0
 25 32  1  0  0  0  0
 26 25  1  0  0  0  0
 27 31  1  1  0  0  0
 27 28  1  0  0  0  0
 27 32  1  0  0  0  0
 29 28  1  0  0  0  0
 29 26  2  0  0  0  0
 30 26  1  0  0  0  0
 32 24  1  6  0  0  0
M  END
>  <MODEL>
7

>  <REMARK>
 VINA RESULT:      -6.8      3.031      5.251
  Name = 
  2 active torsions:
  status: ('A' for Active; 'I' for Inactive)
    1  A    between atoms: N_16  and  C_27
    2  A    between atoms: C_27  and  C_32
                            x       y       z     vdW  Elec       q    Type
                         _______ _______ _______ _____ _____    ______ ____

>  <TORSDO>
F 2

$$$$
=
 OpenBabel11052421273D

 32 37  0  0  1  0  0  0  0  0999 V2000
  185.7790  177.7500  144.5320 C   0  0  0  0  0  0  0  0  0  0  0  0
  189.3010  178.1190  145.3150 O   0  0  0  0  0  0  0  0  0  0  0  0
  189.9390  173.2370  144.7600 C   0  0  0  0  0  3  0  0  0  0  0  0
  194.8370  175.3630  142.0730 C   0  0  0  0  0  2  0  0  0  0  0  0
  193.8180  175.2880  140.9370 C   0  0  0  0  0  2  0  0  0  0  0  0
  189.4920  175.2090  146.2230 C   0  0  0  0  0  0  0  0  0  0  0  0
  191.7160  175.7530  145.1910 C   0  0  0  0  0  3  0  0  0  0  0  0
  187.0240  178.3550  144.4540 C   0  0  0  0  0  3  0  0  0  0  0  0
  190.2620  177.5480  146.2010 C   0  0  0  0  0  2  0  0  0  0  0  0
  194.1130  175.5580  143.4020 C   0  0  0  0  0  2  0  0  0  0  0  0
  191.9320  174.6820  144.4180 C   0  0  0  0  0  0  0  0  0  0  0  0
  193.0470  174.5680  143.5390 N   0  0  0  0  0  0  0  0  0  0  0  0
  191.4240  173.0410  142.8400 N   0  0  0  0  0  0  0  0  0  0  0  0
  185.8260  176.4150  145.5530 S   0  0  0  0  0  0  0  0  0  0  0  0
  187.4580  176.5760  145.9200 C   0  0  0  0  0  0  0  0  0  0  0  0
  184.6180  178.1970  143.8410 N   0  0  0  0  0  1  0  0  0  0  0  0
  190.4640  176.0930  145.9040 C   0  0  0  0  0  0  0  0  0  0  0  0
  188.2090  175.6750  146.8470 C   0  0  0  0  0  2  0  0  0  0  0  0
  187.9690  177.6910  145.2460 C   0  0  0  0  0  0  0  0  0  0  0  0
  192.7810  174.1630  141.1160 C   0  0  0  0  0  2  0  0  0  0  0  0
  192.7600  173.5500  142.5230 C   0  0  1  0  0  3  0  0  0  0  0  0
  189.6900  173.7290  146.1460 C   0  0  0  0  0  2  0  0  0  0  0  0
  190.9670  173.6710  144.0340 C   0  0  0  0  0  0  0  0  0  0  0  0
  190.8560  171.8290  142.2590 C   0  0  0  0  0  2  0  0  0  0  0  0
  189.3670  173.6400  141.3950 C   0  0  0  0  0  2  0  0  0  0  0  0
  188.5660  174.1690  140.2350 C   0  0  0  0  0  0  0  0  0  0  0  0
  190.2720  171.9140  139.8180 C   0  0  2  0  0  3  0  0  0  0  0  0
  189.1330  172.1830  138.8390 C   0  0  0  0  0  2  0  0  0  0  0  0
  188.5110  173.5330  139.0610 C   0  0  0  0  0  3  0  0  0  0  0  0
  187.9220  175.3910  140.3690 O   0  0  0  0  0  1  0  0  0  0  0  0
  190.6800  170.5870  139.6810 O   0  0  0  0  0  1  0  0  0  0  0  0
  189.7740  172.1710  141.2400 C   0  0  1  0  0  3  0  0  0  0  0  0
  1 14  1  0  0  0  0
  2  9  1  0  0  0  0
  3 22  1  0  0  0  0
  4 10  1  0  0  0  0
  5 20  1  0  0  0  0
  5  4  1  0  0  0  0
  6 18  1  0  0  0  0
  7 17  1  0  0  0  0
  8  1  2  0  0  0  0
  8 19  1  0  0  0  0
 10 12  1  0  0  0  0
 11  7  2  0  0  0  0
 12 11  1  0  0  0  0
 13 23  1  0  0  0  0
 14 15  1  0  0  0  0
 15 18  1  0  0  0  0
 16  1  1  0  0  0  0
 17  9  1  0  0  0  0
 17  6  2  0  0  0  0
 19  2  1  0  0  0  0
 19 15  2  0  0  0  0
 21 20  1  6  0  0  0
 21 13  1  0  0  0  0
 21 12  1  0  0  0  0
 22  6  1  0  0  0  0
 23 11  1  0  0  0  0
 23  3  2  0  0  0  0
 24 13  1  0  0  0  0
 26 30  1  0  0  0  0
 26 25  1  0  0  0  0
 27 31  1  1  0  0  0
 27 32  1  0  0  0  0
 28 29  1  0  0  0  0
 28 27  1  0  0  0  0
 29 26  2  0  0  0  0
 32 25  1  0  0  0  0
 32 24  1  1  0  0  0
M  END
>  <MODEL>
8

>  <REMARK>
 VINA RESULT:      -6.8      3.038      6.779
  Name = 
  2 active torsions:
  status: ('A' for Active; 'I' for Inactive)
    1  A    between atoms: N_16  and  C_27
    2  A    between atoms: C_27  and  C_32
                            x       y       z     vdW  Elec       q    Type
                         _______ _______ _______ _____ _____    ______ ____

>  <TORSDO>
F 2

$$$$
=
 OpenBabel11052421273D

 32 37  0  0  1  0  0  0  0  0999 V2000
  191.2850  173.8510  135.7280 C   0  0  0  0  0  0  0  0  0  0  0  0
  188.4830  173.2810  137.9600 O   0  0  0  0  0  0  0  0  0  0  0  0
  191.3500  174.3850  141.8470 C   0  0  0  0  0  3  0  0  0  0  0  0
  186.2710  177.1710  143.3200 C   0  0  0  0  0  2  0  0  0  0  0  0
  187.0410  178.2350  142.5390 C   0  0  0  0  0  2  0  0  0  0  0  0
  190.3550  172.6970  140.3010 C   0  0  0  0  0  0  0  0  0  0  0  0
  188.3420  173.8190  141.2970 C   0  0  0  0  0  3  0  0  0  0  0  0
  189.9620  173.9520  136.1310 C   0  0  0  0  0  3  0  0  0  0  0  0
  188.1920  172.5290  139.1360 C   0  0  0  0  0  2  0  0  0  0  0  0
  186.6920  175.7820  142.8500 C   0  0  0  0  0  2  0  0  0  0  0  0
  188.9020  174.7120  142.1210 C   0  0  0  0  0  0  0  0  0  0  0  0
  188.1500  175.6740  142.8540 N   0  0  0  0  0  0  0  0  0  0  0  0
  190.3630  176.4130  142.7630 N   0  0  0  0  0  0  0  0  0  0  0  0
  192.1860  172.9810  136.8490 S   0  0  0  0  0  0  0  0  0  0  0  0
  190.8940  172.7140  137.8900 C   0  0  0  0  0  0  0  0  0  0  0  0
  191.8100  174.4090  134.5290 N   0  0  0  0  0  1  0  0  0  0  0  0
  189.0360  172.9890  140.2860 C   0  0  0  0  0  0  0  0  0  0  0  0
  190.9840  171.9390  139.1670 C   0  0  0  0  0  2  0  0  0  0  0  0
  189.7450  173.3010  137.3520 C   0  0  0  0  0  0  0  0  0  0  0  0
  188.5700  178.1020  142.6660 C   0  0  0  0  0  2  0  0  0  0  0  0
  189.0350  176.7680  143.2680 C   0  0  1  0  0  3  0  0  0  0  0  0
  191.2230  172.9410  141.4930 C   0  0  0  0  0  2  0  0  0  0  0  0
  190.2890  175.1320  142.1440 C   0  0  0  0  0  0  0  0  0  0  0  0
  191.5950  177.0760  143.1790 C   0  0  0  0  0  2  0  0  0  0  0  0
  193.8370  176.1490  143.7740 C   0  0  0  0  0  2  0  0  0  0  0  0
  194.7360  175.6210  144.8610 C   0  0  0  0  0  0  0  0  0  0  0  0
  192.2330  176.7900  145.5900 C   0  0  2  0  0  3  0  0  0  0  0  0
  192.9370  175.8550  146.5690 C   0  0  0  0  0  2  0  0  0  0  0  0
  194.3410  175.5430  146.1350 C   0  0  0  0  0  3  0  0  0  0  0  0
  196.0390  175.2680  144.5380 O   0  0  0  0  0  1  0  0  0  0  0  0
  190.8880  176.8900  145.9510 O   0  0  0  0  0  1  0  0  0  0  0  0
  192.3610  176.2170  144.1790 C   0  0  1  0  0  3  0  0  0  0  0  0
  1  8  2  0  0  0  0
  1 14  1  0  0  0  0
  2  9  1  0  0  0  0
  3 23  2  0  0  0  0
  5 20  1  0  0  0  0
  5  4  1  0  0  0  0
  6 22  1  0  0  0  0
  7 11  2  0  0  0  0
  8 19  1  0  0  0  0
  9 17  1  0  0  0  0
 10 12  1  0  0  0  0
 10  4  1  0  0  0  0
 11 23  1  0  0  0  0
 11 12  1  0  0  0  0
 12 21  1  0  0  0  0
 13 24  1  0  0  0  0
 13 21  1  0  0  0  0
 14 15  1  0  0  0  0
 15 18  1  0  0  0  0
 16  1  1  0  0  0  0
 17  6  2  0  0  0  0
 17  7  1  0  0  0  0
 18  6  1  0  0  0  0
 19 15  2  0  0  0  0
 19  2  1  0  0  0  0
 21 20  1  6  0  0  0
 22  3  1  0  0  0  0
 23 13  1  0  0  0  0
 25 32  1  0  0  0  0
 25 26  1  0  0  0  0
 26 29  2  0  0  0  0
 27 31  1  1  0  0  0
 27 28  1  0  0  0  0
 29 28  1  0  0  0  0
 30 26  1  0  0  0  0
 32 24  1  6  0  0  0
 32 27  1  0  0  0  0
M  END
>  <MODEL>
9

>  <REMARK>
 VINA RESULT:      -6.7      3.476      7.054
  Name = 
  2 active torsions:
  status: ('A' for Active; 'I' for Inactive)
    1  A    between atoms: N_16  and  C_27
    2  A    between atoms: C_27  and  C_32
                            x       y       z     vdW  Elec       q    Type
                         _______ _______ _______ _____ _____    ______ ____

>  <TORSDO>
F 2

$$$$
