=
 OpenBabel11052420593D

 43 47  0  0  1  0  0  0  0  0999 V2000
  184.8750  178.0560  146.4830 C   0  0  0  0  0  0  0  0  0  0  0  0
  188.5870  175.7520  143.9230 C   0  0  0  0  0  0  0  0  0  0  0  0
  190.7120  175.5730  145.7130 C   0  0  0  0  0  0  0  0  0  0  0  0
  186.2000  176.9850  144.7620 C   0  0  0  0  0  0  0  0  0  0  0  0
  185.9340  177.9290  147.3840 C   0  0  0  0  0  3  0  0  0  0  0  0
  183.7160  178.6360  146.8780 F   0  0  0  0  0  0  0  0  0  0  0  0
  187.2780  176.8500  145.6720 C   0  0  0  0  0  0  0  0  0  0  0  0
  185.0070  177.5860  145.1740 C   0  0  0  0  0  3  0  0  0  0  0  0
  187.1310  177.3290  146.9820 C   0  0  0  0  0  3  0  0  0  0  0  0
  189.5350  176.1360  146.0960 N   0  0  0  0  0  0  0  0  0  0  0  0
  188.4740  176.2420  145.2480 C   0  0  0  0  0  0  0  0  0  0  0  0
  187.5130  175.9150  143.0350 C   0  0  0  0  0  3  0  0  0  0  0  0
  189.7930  175.1430  143.5190 C   0  0  0  0  0  0  0  0  0  0  0  0
  190.8610  175.0810  144.4160 C   0  0  0  0  0  3  0  0  0  0  0  0
  186.3280  176.5230  143.4530 C   0  0  0  0  0  3  0  0  0  0  0  0
  191.8650  175.5040  146.6590 C   0  0  2  0  0  3  0  0  0  0  0  0
  191.3660  175.3140  148.0830 C   0  0  0  0  0  1  0  0  0  0  0  0
  192.7150  176.7680  146.5400 C   0  0  0  0  0  2  0  0  0  0  0  0
  194.2170  176.4830  146.5110 C   0  0  2  0  0  3  0  0  0  0  0  0
  194.8820  177.4240  145.7240 O   0  0  0  0  0  1  0  0  0  0  0  0
  194.5360  175.0770  146.0200 C   0  0  0  0  0  2  0  0  0  0  0  0
  195.1580  175.1160  144.6270 C   0  0  1  0  0  3  0  0  0  0  0  0
  196.4630  174.3270  144.6100 C   0  0  0  0  0  2  0  0  0  0  0  0
  196.7780  172.2740  145.9760 C   0  0  0  0  0  1  0  0  0  0  0  0
  196.7900  173.7890  145.9930 C   0  0  0  0  0  2  0  0  0  0  0  0
  194.2000  174.5770  143.5590 C   0  0  2  0  0  3  0  0  0  0  0  0
  194.1290  173.0790  143.5670 C   0  0  0  0  0  0  0  0  0  0  0  0
  193.2200  171.0430  144.5220 C   0  0  0  0  0  3  0  0  0  0  0  0
  194.8030  170.9150  142.6940 C   0  0  0  0  0  3  0  0  0  0  0  0
  193.9720  170.2820  143.6220 C   0  0  0  0  0  3  0  0  0  0  0  0
  194.8840  172.3120  142.6670 C   0  0  0  0  0  3  0  0  0  0  0  0
  193.2990  172.4390  144.4960 C   0  0  0  0  0  3  0  0  0  0  0  0
  194.5260  175.0550  142.2830 O   0  0  0  0  0  0  0  0  0  0  0  0
  193.4840  175.7730  141.9190 O   0  0  0  0  0  1  0  0  0  0  0  0
  189.9900  174.6320  142.1940 N   0  0  0  0  0  2  0  0  0  0  0  0
  191.8670  171.8160  140.5860 C   0  0  0  0  0  3  0  0  0  0  0  0
  191.2960  170.7100  141.2360 C   0  0  0  0  0  0  0  0  0  0  0  0
  189.8820  172.2130  142.5120 C   0  0  0  0  0  3  0  0  0  0  0  0
  191.4470  173.1120  140.9010 C   0  0  0  0  0  3  0  0  0  0  0  0
  190.4600  173.3160  141.8750 C   0  0  0  0  0  0  0  0  0  0  0  0
  190.3020  170.9170  142.1970 C   0  0  0  0  0  3  0  0  0  0  0  0
  191.6940  169.4030  140.9440 O   0  0  0  0  0  0  0  0  0  0  0  0
  190.8180  168.2890  141.0690 C   0  0  0  0  0  1  0  0  0  0  0  0
  1  6  1  0  0  0  0
  1  5  1  0  0  0  0
  2 11  1  0  0  0  0
  3 10  1  0  0  0  0
  3 16  1  0  0  0  0
  4  8  1  0  0  0  0
  4  7  2  0  0  0  0
  7  9  1  0  0  0  0
  8  1  2  0  0  0  0
  9  5  2  0  0  0  0
 11  7  1  0  0  0  0
 11 10  2  0  0  0  0
 12 15  2  0  0  0  0
 12  2  1  0  0  0  0
 13  2  2  0  0  0  0
 13 14  1  0  0  0  0
 14  3  2  0  0  0  0
 15  4  1  0  0  0  0
 16 17  1  1  0  0  0
 18 16  1  0  0  0  0
 19 20  1  6  0  0  0
 19 18  1  0  0  0  0
 21 19  1  0  0  0  0
 22 23  1  1  0  0  0
 22 21  1  0  0  0  0
 23 25  1  0  0  0  0
 24 25  1  0  0  0  0
 26 33  1  6  0  0  0
 26 27  1  0  0  0  0
 26 22  1  0  0  0  0
 27 32  1  0  0  0  0
 29 30  2  0  0  0  0
 30 28  1  0  0  0  0
 31 29  1  0  0  0  0
 31 27  2  0  0  0  0
 32 28  2  0  0  0  0
 34 33  1  0  0  0  0
 35 13  1  0  0  0  0
 36 39  2  0  0  0  0
 36 37  1  0  0  0  0
 37 41  2  0  0  0  0
 39 40  1  0  0  0  0
 40 35  1  0  0  0  0
 40 38  2  0  0  0  0
 41 38  1  0  0  0  0
 42 43  1  0  0  0  0
 42 37  1  0  0  0  0
M  END
>  <MODEL>
1

>  <REMARK>
 VINA RESULT:      -7.2      0.000      0.000
  Name = 
  13 active torsions:
  status: ('A' for Active; 'I' for Inactive)
    1  A    between atoms: N_1  and  C_34
    2  A    between atoms: N_1  and  C_35
    3  A    between atoms: C_2  and  C_6
    4  A    between atoms: C_2  and  C_13
    5  A    between atoms: C_3  and  C_4
    6  A    between atoms: C_3  and  C_12
    7  A    between atoms: C_4  and  C_15
    8  A    between atoms: C_4  and  C_22
    9  A    between atoms: C_6  and  C_12
   10  A    between atoms: C_11  and  C_22
   11  A    between atoms: O_14  and  C_22
   12  A    between atoms: C_15  and  C_42
   13  A    between atoms: C_19  and  O_25
                            x       y       z     vdW  Elec       q    Type
                         _______ _______ _______ _____ _____    ______ ____

>  <TORSDO>
F 13

$$$$
=
 OpenBabel11052420593D

 43 47  0  0  1  0  0  0  0  0999 V2000
  190.6050  170.2540  137.4820 C   0  0  0  0  0  0  0  0  0  0  0  0
  188.7100  174.0810  140.2020 C   0  0  0  0  0  0  0  0  0  0  0  0
  189.5380  173.6050  142.8180 C   0  0  0  0  0  0  0  0  0  0  0  0
  189.4360  172.2530  138.1900 C   0  0  0  0  0  0  0  0  0  0  0  0
  191.0460  170.0440  138.7910 C   0  0  0  0  0  3  0  0  0  0  0  0
  190.9590  169.3890  136.5010 F   0  0  0  0  0  0  0  0  0  0  0  0
  189.8810  172.0480  139.5180 C   0  0  0  0  0  0  0  0  0  0  0  0
  189.8010  171.3570  137.1820 C   0  0  0  0  0  3  0  0  0  0  0  0
  190.6870  170.9350  139.8060 C   0  0  0  0  0  3  0  0  0  0  0  0
  189.8970  172.7570  141.8170 N   0  0  0  0  0  0  0  0  0  0  0  0
  189.5100  172.9570  140.5260 C   0  0  0  0  0  0  0  0  0  0  0  0
  188.2640  174.2530  138.8840 C   0  0  0  0  0  3  0  0  0  0  0  0
  188.3500  174.9830  141.2270 C   0  0  0  0  0  0  0  0  0  0  0  0
  188.7510  174.7220  142.5380 C   0  0  0  0  0  3  0  0  0  0  0  0
  188.6280  173.3490  137.8850 C   0  0  0  0  0  3  0  0  0  0  0  0
  189.9530  173.3350  144.2260 C   0  0  2  0  0  3  0  0  0  0  0  0
  189.5480  171.9280  144.6350 C   0  0  0  0  0  1  0  0  0  0  0  0
  189.3390  174.3760  145.1600 C   0  0  0  0  0  2  0  0  0  0  0  0
  190.0340  174.4510  146.5200 C   0  0  2  0  0  3  0  0  0  0  0  0
  189.1060  174.6830  147.5360 O   0  0  0  0  0  1  0  0  0  0  0  0
  191.1260  175.5120  146.5610 C   0  0  0  0  0  2  0  0  0  0  0  0
  191.2580  176.2080  145.2090 C   0  0  1  0  0  3  0  0  0  0  0  0
  190.7300  177.6360  145.2960 C   0  0  0  0  0  2  0  0  0  0  0  0
  190.1720  178.0810  142.9150 C   0  0  0  0  0  1  0  0  0  0  0  0
  189.6030  177.8600  144.3020 C   0  0  0  0  0  2  0  0  0  0  0  0
  192.7060  176.2090  144.7060 C   0  0  2  0  0  3  0  0  0  0  0  0
  192.9180  175.2320  143.5890 C   0  0  0  0  0  0  0  0  0  0  0  0
  193.6230  173.0310  142.8530 C   0  0  0  0  0  3  0  0  0  0  0  0
  192.8430  174.6520  141.2310 C   0  0  0  0  0  3  0  0  0  0  0  0
  193.3370  173.3790  141.5290 C   0  0  0  0  0  3  0  0  0  0  0  0
  192.6360  175.5780  142.2590 C   0  0  0  0  0  3  0  0  0  0  0  0
  193.4160  173.9560  143.8810 C   0  0  0  0  0  3  0  0  0  0  0  0
  193.6150  175.9830  145.7480 O   0  0  0  0  0  0  0  0  0  0  0  0
  194.6000  176.8270  145.5220 O   0  0  0  0  0  1  0  0  0  0  0  0
  187.5360  176.1380  140.9830 N   0  0  0  0  0  2  0  0  0  0  0  0
  186.0580  178.9860  142.9160 C   0  0  0  0  0  3  0  0  0  0  0  0
  185.5120  178.3060  144.0170 C   0  0  0  0  0  0  0  0  0  0  0  0
  186.3030  176.2080  143.0890 C   0  0  0  0  0  3  0  0  0  0  0  0
  186.7200  178.2790  141.9090 C   0  0  0  0  0  3  0  0  0  0  0  0
  186.8350  176.8830  141.9850 C   0  0  0  0  0  0  0  0  0  0  0  0
  185.6400  176.9160  144.0960 C   0  0  0  0  0  3  0  0  0  0  0  0
  184.8430  178.9830  145.0390 O   0  0  0  0  0  0  0  0  0  0  0  0
  184.3010  178.3190  146.1730 C   0  0  0  0  0  1  0  0  0  0  0  0
  1  5  1  0  0  0  0
  2 11  1  0  0  0  0
  2 13  1  0  0  0  0
  3 16  1  0  0  0  0
  4  7  1  0  0  0  0
  5  9  2  0  0  0  0
  6  1  1  0  0  0  0
  7  9  1  0  0  0  0
  7 11  2  0  0  0  0
  8  1  2  0  0  0  0
  8  4  1  0  0  0  0
 10  3  2  0  0  0  0
 11 10  1  0  0  0  0
 12  2  2  0  0  0  0
 13 14  2  0  0  0  0
 14  3  1  0  0  0  0
 15  4  2  0  0  0  0
 15 12  1  0  0  0  0
 16 17  1  1  0  0  0
 16 18  1  0  0  0  0
 18 19  1  0  0  0  0
 19 21  1  0  0  0  0
 19 20  1  1  0  0  0
 22 23  1  1  0  0  0
 22 21  1  0  0  0  0
 24 25  1  0  0  0  0
 25 23  1  0  0  0  0
 26 22  1  0  0  0  0
 26 33  1  1  0  0  0
 27 32  1  0  0  0  0
 27 26  1  0  0  0  0
 28 32  2  0  0  0  0
 29 30  2  0  0  0  0
 29 31  1  0  0  0  0
 30 28  1  0  0  0  0
 31 27  2  0  0  0  0
 34 33  1  0  0  0  0
 35 13  1  0  0  0  0
 35 40  1  0  0  0  0
 36 37  1  0  0  0  0
 37 41  2  0  0  0  0
 37 42  1  0  0  0  0
 38 41  1  0  0  0  0
 39 40  1  0  0  0  0
 39 36  2  0  0  0  0
 40 38  2  0  0  0  0
 42 43  1  0  0  0  0
M  END
>  <MODEL>
2

>  <REMARK>
 VINA RESULT:      -6.8      3.676      7.285
  Name = 
  13 active torsions:
  status: ('A' for Active; 'I' for Inactive)
    1  A    between atoms: N_1  and  C_34
    2  A    between atoms: N_1  and  C_35
    3  A    between atoms: C_2  and  C_6
    4  A    between atoms: C_2  and  C_13
    5  A    between atoms: C_3  and  C_4
    6  A    between atoms: C_3  and  C_12
    7  A    between atoms: C_4  and  C_15
    8  A    between atoms: C_4  and  C_22
    9  A    between atoms: C_6  and  C_12
   10  A    between atoms: C_11  and  C_22
   11  A    between atoms: O_14  and  C_22
   12  A    between atoms: C_15  and  C_42
   13  A    between atoms: C_19  and  O_25
                            x       y       z     vdW  Elec       q    Type
                         _______ _______ _______ _____ _____    ______ ____

>  <TORSDO>
F 13

$$$$
=
 OpenBabel11052420593D

 43 47  0  0  1  0  0  0  0  0999 V2000
  184.4500  178.4940  145.3470 C   0  0  0  0  0  0  0  0  0  0  0  0
  188.7830  175.8780  145.4970 C   0  0  0  0  0  0  0  0  0  0  0  0
  189.1770  174.9590  142.8970 C   0  0  0  0  0  0  0  0  0  0  0  0
  186.4860  177.3990  146.0700 C   0  0  0  0  0  0  0  0  0  0  0  0
  184.6750  178.0580  144.0390 C   0  0  0  0  0  3  0  0  0  0  0  0
  183.3550  179.2370  145.6340 F   0  0  0  0  0  0  0  0  0  0  0  0
  186.7220  176.9560  144.7450 C   0  0  0  0  0  0  0  0  0  0  0  0
  185.3530  178.1630  146.3610 C   0  0  0  0  0  3  0  0  0  0  0  0
  185.8050  177.2930  143.7370 C   0  0  0  0  0  3  0  0  0  0  0  0
  188.0920  175.7210  143.2020 N   0  0  0  0  0  0  0  0  0  0  0  0
  187.8660  176.1880  144.4610 C   0  0  0  0  0  0  0  0  0  0  0  0
  188.5180  176.3100  146.8040 C   0  0  0  0  0  3  0  0  0  0  0  0
  189.9260  175.1090  145.1910 C   0  0  0  0  0  0  0  0  0  0  0  0
  190.1010  174.6330  143.8900 C   0  0  0  0  0  3  0  0  0  0  0  0
  187.3800  177.0680  147.0880 C   0  0  0  0  0  3  0  0  0  0  0  0
  189.3740  174.4370  141.5130 C   0  0  2  0  0  3  0  0  0  0  0  0
  188.3120  174.9990  140.5820 C   0  0  0  0  0  1  0  0  0  0  0  0
  189.3460  172.9100  141.5200 C   0  0  0  0  0  2  0  0  0  0  0  0
  190.2900  172.2840  140.4930 C   0  0  2  0  0  3  0  0  0  0  0  0
  189.5760  171.8100  139.3920 O   0  0  0  0  0  1  0  0  0  0  0  0
  191.1380  171.1660  141.0840 C   0  0  0  0  0  2  0  0  0  0  0  0
  192.0590  171.7030  142.1770 C   0  0  1  0  0  3  0  0  0  0  0  0
  192.0960  170.7370  143.3570 C   0  0  0  0  0  2  0  0  0  0  0  0
  193.9160  170.0430  144.9010 C   0  0  0  0  0  1  0  0  0  0  0  0
  193.4500  170.0560  143.4590 C   0  0  0  0  0  2  0  0  0  0  0  0
  193.4790  171.9540  141.6550 C   0  0  2  0  0  3  0  0  0  0  0  0
  193.8940  173.3860  141.8120 C   0  0  0  0  0  0  0  0  0  0  0  0
  195.6650  175.0400  141.9330 C   0  0  0  0  0  3  0  0  0  0  0  0
  193.3530  175.7310  142.1410 C   0  0  0  0  0  3  0  0  0  0  0  0
  194.7140  176.0490  142.1110 C   0  0  0  0  0  3  0  0  0  0  0  0
  192.9430  174.4020  141.9940 C   0  0  0  0  0  3  0  0  0  0  0  0
  195.2560  173.7110  141.7860 C   0  0  0  0  0  3  0  0  0  0  0  0
  193.6230  171.5340  140.3270 O   0  0  0  0  0  0  0  0  0  0  0  0
  194.6480  170.7090  140.3460 O   0  0  0  0  0  1  0  0  0  0  0  0
  190.8950  174.7450  146.1830 N   0  0  0  0  0  2  0  0  0  0  0  0
  194.4050  176.0320  145.9430 C   0  0  0  0  0  3  0  0  0  0  0  0
  195.0950  174.8610  145.5890 C   0  0  0  0  0  0  0  0  0  0  0  0
  193.0020  173.6350  145.6440 C   0  0  0  0  0  3  0  0  0  0  0  0
  193.0230  176.0010  146.1480 C   0  0  0  0  0  3  0  0  0  0  0  0
  192.3160  174.7970  146.0100 C   0  0  0  0  0  0  0  0  0  0  0  0
  194.3850  173.6660  145.4390 C   0  0  0  0  0  3  0  0  0  0  0  0
  196.4760  174.8580  145.3780 O   0  0  0  0  0  0  0  0  0  0  0  0
  197.2150  173.6650  145.1480 C   0  0  0  0  0  1  0  0  0  0  0  0
  1  6  1  0  0  0  0
  1  8  1  0  0  0  0
  2 12  1  0  0  0  0
  3 10  2  0  0  0  0
  3 14  1  0  0  0  0
  4  8  2  0  0  0  0
  4 15  1  0  0  0  0
  5  1  2  0  0  0  0
  7  4  1  0  0  0  0
  9  5  1  0  0  0  0
  9  7  2  0  0  0  0
 10 11  1  0  0  0  0
 11  7  1  0  0  0  0
 11  2  2  0  0  0  0
 12 15  2  0  0  0  0
 13  2  1  0  0  0  0
 13 35  1  0  0  0  0
 14 13  2  0  0  0  0
 16 17  1  6  0  0  0
 16 18  1  0  0  0  0
 16  3  1  0  0  0  0
 19 20  1  6  0  0  0
 19 21  1  0  0  0  0
 19 18  1  0  0  0  0
 22 21  1  6  0  0  0
 22 23  1  0  0  0  0
 23 25  1  0  0  0  0
 25 24  1  0  0  0  0
 26 33  1  6  0  0  0
 26 27  1  0  0  0  0
 26 22  1  0  0  0  0
 27 31  1  0  0  0  0
 28 30  2  0  0  0  0
 30 29  1  0  0  0  0
 31 29  2  0  0  0  0
 32 27  2  0  0  0  0
 32 28  1  0  0  0  0
 33 34  1  0  0  0  0
 36 39  1  0  0  0  0
 37 36  2  0  0  0  0
 38 40  1  0  0  0  0
 40 39  2  0  0  0  0
 40 35  1  0  0  0  0
 41 37  1  0  0  0  0
 41 38  2  0  0  0  0
 42 37  1  0  0  0  0
 43 42  1  0  0  0  0
M  END
>  <MODEL>
3

>  <REMARK>
 VINA RESULT:      -6.7      1.705      5.147
  Name = 
  13 active torsions:
  status: ('A' for Active; 'I' for Inactive)
    1  A    between atoms: N_1  and  C_34
    2  A    between atoms: N_1  and  C_35
    3  A    between atoms: C_2  and  C_6
    4  A    between atoms: C_2  and  C_13
    5  A    between atoms: C_3  and  C_4
    6  A    between atoms: C_3  and  C_12
    7  A    between atoms: C_4  and  C_15
    8  A    between atoms: C_4  and  C_22
    9  A    between atoms: C_6  and  C_12
   10  A    between atoms: C_11  and  C_22
   11  A    between atoms: O_14  and  C_22
   12  A    between atoms: C_15  and  C_42
   13  A    between atoms: C_19  and  O_25
                            x       y       z     vdW  Elec       q    Type
                         _______ _______ _______ _____ _____    ______ ____

>  <TORSDO>
F 13

$$$$
=
 OpenBabel11052420593D

 43 47  0  0  1  0  0  0  0  0999 V2000
  184.7610  178.1660  146.4720 C   0  0  0  0  0  0  0  0  0  0  0  0
  188.2710  175.9010  143.6100 C   0  0  0  0  0  0  0  0  0  0  0  0
  190.4590  175.5250  145.2910 C   0  0  0  0  0  0  0  0  0  0  0  0
  185.9720  177.1630  144.6300 C   0  0  0  0  0  0  0  0  0  0  0  0
  185.8510  177.9400  147.3170 C   0  0  0  0  0  3  0  0  0  0  0  0
  183.6430  178.7600  146.9540 F   0  0  0  0  0  0  0  0  0  0  0  0
  187.0790  176.9280  145.4810 C   0  0  0  0  0  0  0  0  0  0  0  0
  184.8210  177.7790  145.1300 C   0  0  0  0  0  3  0  0  0  0  0  0
  187.0050  177.3240  146.8250 C   0  0  0  0  0  3  0  0  0  0  0  0
  189.3220  176.1050  145.7600 N   0  0  0  0  0  0  0  0  0  0  0  0
  188.2320  176.3060  144.9670 C   0  0  0  0  0  0  0  0  0  0  0  0
  187.1690  176.1620  142.7820 C   0  0  0  0  0  3  0  0  0  0  0  0
  189.4350  175.2760  143.1150 C   0  0  0  0  0  0  0  0  0  0  0  0
  190.5350  175.1150  143.9600 C   0  0  0  0  0  3  0  0  0  0  0  0
  186.0280  176.7840  143.2890 C   0  0  0  0  0  3  0  0  0  0  0  0
  191.6460  175.3510  146.1800 C   0  0  2  0  0  3  0  0  0  0  0  0
  191.3720  175.9550  147.5480 C   0  0  0  0  0  1  0  0  0  0  0  0
  192.8780  175.9850  145.5370 C   0  0  0  0  0  2  0  0  0  0  0  0
  194.0690  176.0890  146.4900 C   0  0  2  0  0  3  0  0  0  0  0  0
  194.5350  177.4030  146.5540 O   0  0  0  0  0  1  0  0  0  0  0  0
  195.2070  175.1520  146.1080 C   0  0  0  0  0  2  0  0  0  0  0  0
  194.9870  174.5700  144.7140 C   0  0  1  0  0  3  0  0  0  0  0  0
  195.6720  175.4390  143.6660 C   0  0  0  0  0  2  0  0  0  0  0  0
  195.8400  174.6690  141.3080 C   0  0  0  0  0  1  0  0  0  0  0  0
  194.9520  175.3490  142.3310 C   0  0  0  0  0  2  0  0  0  0  0  0
  195.4880  173.1250  144.6130 C   0  0  2  0  0  3  0  0  0  0  0  0
  194.3810  172.1620  144.3020 C   0  0  0  0  0  0  0  0  0  0  0  0
  193.6760  170.0080  143.4400 C   0  0  0  0  0  3  0  0  0  0  0  0
  192.0240  171.5780  144.2580 C   0  0  0  0  0  3  0  0  0  0  0  0
  192.3420  170.3370  143.6990 C   0  0  0  0  0  3  0  0  0  0  0  0
  193.0410  172.4900  144.5580 C   0  0  0  0  0  3  0  0  0  0  0  0
  194.6930  170.9180  143.7390 C   0  0  0  0  0  3  0  0  0  0  0  0
  196.1800  172.7360  145.7670 O   0  0  0  0  0  0  0  0  0  0  0  0
  197.4160  172.5280  145.3620 O   0  0  0  0  0  1  0  0  0  0  0  0
  189.5570  174.8470  141.7520 N   0  0  0  0  0  2  0  0  0  0  0  0
  190.5940  171.4100  140.6810 C   0  0  0  0  0  3  0  0  0  0  0  0
  191.9720  171.5980  140.4810 C   0  0  0  0  0  0  0  0  0  0  0  0
  191.7260  173.9280  141.1130 C   0  0  0  0  0  3  0  0  0  0  0  0
  189.7910  172.4770  141.0930 C   0  0  0  0  0  3  0  0  0  0  0  0
  190.3520  173.7450  141.3000 C   0  0  0  0  0  0  0  0  0  0  0  0
  192.5310  172.8600  140.7010 C   0  0  0  0  0  3  0  0  0  0  0  0
  192.8020  170.5530  140.0690 O   0  0  0  0  0  0  0  0  0  0  0  0
  192.3340  169.2210  139.9020 C   0  0  0  0  0  1  0  0  0  0  0  0
  1  6  1  0  0  0  0
  1  5  1  0  0  0  0
  2 11  1  0  0  0  0
  3 10  1  0  0  0  0
  3 16  1  0  0  0  0
  4  8  1  0  0  0  0
  4  7  2  0  0  0  0
  7  9  1  0  0  0  0
  8  1  2  0  0  0  0
  9  5  2  0  0  0  0
 11  7  1  0  0  0  0
 11 10  2  0  0  0  0
 12 15  2  0  0  0  0
 12  2  1  0  0  0  0
 13  2  2  0  0  0  0
 13 14  1  0  0  0  0
 14  3  2  0  0  0  0
 15  4  1  0  0  0  0
 16 17  1  1  0  0  0
 18 16  1  0  0  0  0
 18 19  1  0  0  0  0
 19 20  1  6  0  0  0
 21 19  1  0  0  0  0
 22 23  1  6  0  0  0
 22 21  1  0  0  0  0
 24 25  1  0  0  0  0
 25 23  1  0  0  0  0
 26 22  1  0  0  0  0
 26 33  1  1  0  0  0
 27 31  1  0  0  0  0
 27 26  1  0  0  0  0
 28 30  2  0  0  0  0
 28 32  1  0  0  0  0
 29 31  2  0  0  0  0
 30 29  1  0  0  0  0
 32 27  2  0  0  0  0
 34 33  1  0  0  0  0
 35 13  1  0  0  0  0
 36 39  1  0  0  0  0
 37 36  2  0  0  0  0
 37 41  1  0  0  0  0
 38 40  1  0  0  0  0
 39 40  2  0  0  0  0
 40 35  1  0  0  0  0
 41 38  2  0  0  0  0
 42 37  1  0  0  0  0
 43 42  1  0  0  0  0
M  END
>  <MODEL>
4

>  <REMARK>
 VINA RESULT:      -6.7      1.429      2.068
  Name = 
  13 active torsions:
  status: ('A' for Active; 'I' for Inactive)
    1  A    between atoms: N_1  and  C_34
    2  A    between atoms: N_1  and  C_35
    3  A    between atoms: C_2  and  C_6
    4  A    between atoms: C_2  and  C_13
    5  A    between atoms: C_3  and  C_4
    6  A    between atoms: C_3  and  C_12
    7  A    between atoms: C_4  and  C_15
    8  A    between atoms: C_4  and  C_22
    9  A    between atoms: C_6  and  C_12
   10  A    between atoms: C_11  and  C_22
   11  A    between atoms: O_14  and  C_22
   12  A    between atoms: C_15  and  C_42
   13  A    between atoms: C_19  and  O_25
                            x       y       z     vdW  Elec       q    Type
                         _______ _______ _______ _____ _____    ______ ____

>  <TORSDO>
F 13

$$$$
=
 OpenBabel11052420593D

 43 47  0  0  1  0  0  0  0  0999 V2000
  190.5850  170.3140  136.3300 C   0  0  0  0  0  0  0  0  0  0  0  0
  189.0530  173.7900  139.6780 C   0  0  0  0  0  0  0  0  0  0  0  0
  190.1750  173.0150  142.1070 C   0  0  0  0  0  0  0  0  0  0  0  0
  189.5250  172.2120  137.3960 C   0  0  0  0  0  0  0  0  0  0  0  0
  191.1730  169.9540  137.5450 C   0  0  0  0  0  3  0  0  0  0  0  0
  190.8140  169.5710  135.2210 F   0  0  0  0  0  0  0  0  0  0  0  0
  190.1190  171.8550  138.6310 C   0  0  0  0  0  0  0  0  0  0  0  0
  189.7610  171.4410  136.2550 C   0  0  0  0  0  3  0  0  0  0  0  0
  190.9410  170.7190  138.6920 C   0  0  0  0  0  3  0  0  0  0  0  0
  190.4070  172.2910  140.9790 N   0  0  0  0  0  0  0  0  0  0  0  0
  189.8750  172.6390  139.7740 C   0  0  0  0  0  0  0  0  0  0  0  0
  188.4600  174.1120  138.4490 C   0  0  0  0  0  3  0  0  0  0  0  0
  188.8240  174.5640  140.8350 C   0  0  0  0  0  0  0  0  0  0  0  0
  189.3710  174.1540  142.0520 C   0  0  0  0  0  3  0  0  0  0  0  0
  188.6970  173.3320  137.3170 C   0  0  0  0  0  3  0  0  0  0  0  0
  190.7470  172.5850  143.4170 C   0  0  2  0  0  3  0  0  0  0  0  0
  189.6830  172.6420  144.5010 C   0  0  0  0  0  1  0  0  0  0  0  0
  191.9450  173.4620  143.7760 C   0  0  0  0  0  2  0  0  0  0  0  0
  192.6100  174.1040  142.5580 C   0  0  2  0  0  3  0  0  0  0  0  0
  193.8170  173.4690  142.2630 O   0  0  0  0  0  1  0  0  0  0  0  0
  192.8380  175.5990  142.7370 C   0  0  0  0  0  2  0  0  0  0  0  0
  192.9510  175.9580  144.2160 C   0  0  1  0  0  3  0  0  0  0  0  0
  194.3090  176.5900  144.5030 C   0  0  0  0  0  2  0  0  0  0  0  0
  194.8820  174.4850  145.6950 C   0  0  0  0  0  1  0  0  0  0  0  0
  194.9290  175.9990  145.7570 C   0  0  0  0  0  2  0  0  0  0  0  0
  191.8250  176.8970  144.6630 C   0  0  2  0  0  3  0  0  0  0  0  0
  190.8980  176.2430  145.6440 C   0  0  0  0  0  0  0  0  0  0  0  0
  188.6400  175.6410  146.2920 C   0  0  0  0  0  3  0  0  0  0  0  0
  190.5040  175.0370  147.7150 C   0  0  0  0  0  3  0  0  0  0  0  0
  189.1310  175.0380  147.4550 C   0  0  0  0  0  3  0  0  0  0  0  0
  191.3870  175.6400  146.8130 C   0  0  0  0  0  3  0  0  0  0  0  0
  189.5210  176.2430  145.3890 C   0  0  0  0  0  3  0  0  0  0  0  0
  191.1150  177.4110  143.5700 O   0  0  0  0  0  0  0  0  0  0  0  0
  191.2900  178.7140  143.6400 O   0  0  0  0  0  1  0  0  0  0  0  0
  187.9980  175.7360  140.8230 N   0  0  0  0  0  2  0  0  0  0  0  0
  186.0560  176.4650  143.9430 C   0  0  0  0  0  3  0  0  0  0  0  0
  186.4680  177.7810  144.2120 C   0  0  0  0  0  0  0  0  0  0  0  0
  187.8880  177.7180  142.2460 C   0  0  0  0  0  3  0  0  0  0  0  0
  186.5610  175.7820  142.8340 C   0  0  0  0  0  3  0  0  0  0  0  0
  187.4890  176.4030  141.9850 C   0  0  0  0  0  0  0  0  0  0  0  0
  187.3830  178.4010  143.3570 C   0  0  0  0  0  3  0  0  0  0  0  0
  185.9830  178.4900  145.3140 O   0  0  0  0  0  0  0  0  0  0  0  0
  185.3030  179.7330  145.1870 C   0  0  0  0  0  1  0  0  0  0  0  0
  1  5  1  0  0  0  0
  2 11  1  0  0  0  0
  2 13  1  0  0  0  0
  3 16  1  0  0  0  0
  4  7  1  0  0  0  0
  5  9  2  0  0  0  0
  6  1  1  0  0  0  0
  7  9  1  0  0  0  0
  7 11  2  0  0  0  0
  8  1  2  0  0  0  0
  8  4  1  0  0  0  0
 10  3  2  0  0  0  0
 11 10  1  0  0  0  0
 12  2  2  0  0  0  0
 13 14  2  0  0  0  0
 14  3  1  0  0  0  0
 15  4  2  0  0  0  0
 15 12  1  0  0  0  0
 16 18  1  0  0  0  0
 16 17  1  1  0  0  0
 19 20  1  1  0  0  0
 19 21  1  0  0  0  0
 19 18  1  0  0  0  0
 22 21  1  6  0  0  0
 22 23  1  0  0  0  0
 22 26  1  0  0  0  0
 23 25  1  0  0  0  0
 24 25  1  0  0  0  0
 26 33  1  6  0  0  0
 26 27  1  0  0  0  0
 27 31  1  0  0  0  0
 28 30  2  0  0  0  0
 30 29  1  0  0  0  0
 31 29  2  0  0  0  0
 32 27  2  0  0  0  0
 32 28  1  0  0  0  0
 33 34  1  0  0  0  0
 35 13  1  0  0  0  0
 35 40  1  0  0  0  0
 36 37  1  0  0  0  0
 37 42  1  0  0  0  0
 38 41  1  0  0  0  0
 39 36  2  0  0  0  0
 40 38  2  0  0  0  0
 40 39  1  0  0  0  0
 41 37  2  0  0  0  0
 43 42  1  0  0  0  0
M  END
>  <MODEL>
5

>  <REMARK>
 VINA RESULT:      -6.5      3.691      7.480
  Name = 
  13 active torsions:
  status: ('A' for Active; 'I' for Inactive)
    1  A    between atoms: N_1  and  C_34
    2  A    between atoms: N_1  and  C_35
    3  A    between atoms: C_2  and  C_6
    4  A    between atoms: C_2  and  C_13
    5  A    between atoms: C_3  and  C_4
    6  A    between atoms: C_3  and  C_12
    7  A    between atoms: C_4  and  C_15
    8  A    between atoms: C_4  and  C_22
    9  A    between atoms: C_6  and  C_12
   10  A    between atoms: C_11  and  C_22
   11  A    between atoms: O_14  and  C_22
   12  A    between atoms: C_15  and  C_42
   13  A    between atoms: C_19  and  O_25
                            x       y       z     vdW  Elec       q    Type
                         _______ _______ _______ _____ _____    ______ ____

>  <TORSDO>
F 13

$$$$
=
 OpenBabel11052420593D

 43 47  0  0  1  0  0  0  0  0999 V2000
  196.4440  175.3740  140.6690 C   0  0  0  0  0  0  0  0  0  0  0  0
  192.8070  174.7400  144.1350 C   0  0  0  0  0  0  0  0  0  0  0  0
  191.1450  172.7580  143.1030 C   0  0  0  0  0  0  0  0  0  0  0  0
  195.0340  175.5700  142.6290 C   0  0  0  0  0  0  0  0  0  0  0  0
  195.6240  174.3550  140.1770 C   0  0  0  0  0  3  0  0  0  0  0  0
  197.5260  175.7740  139.9610 F   0  0  0  0  0  0  0  0  0  0  0  0
  194.2010  174.5360  142.1380 C   0  0  0  0  0  0  0  0  0  0  0  0
  196.1490  175.9820  141.8930 C   0  0  0  0  0  3  0  0  0  0  0  0
  194.5070  173.9370  140.9060 C   0  0  0  0  0  3  0  0  0  0  0  0
  192.2460  173.1620  142.4140 N   0  0  0  0  0  0  0  0  0  0  0  0
  193.0810  174.1280  142.8870 C   0  0  0  0  0  0  0  0  0  0  0  0
  193.6350  175.7760  144.5920 C   0  0  0  0  0  3  0  0  0  0  0  0
  191.6810  174.3150  144.8730 C   0  0  0  0  0  0  0  0  0  0  0  0
  190.8420  173.3380  144.3350 C   0  0  0  0  0  3  0  0  0  0  0  0
  194.7420  176.1850  143.8470 C   0  0  0  0  0  3  0  0  0  0  0  0
  190.2340  171.7190  142.5380 C   0  0  2  0  0  3  0  0  0  0  0  0
  191.0420  170.5660  141.9640 C   0  0  0  0  0  1  0  0  0  0  0  0
  189.3300  172.3390  141.4740 C   0  0  0  0  0  2  0  0  0  0  0  0
  188.4500  173.4670  142.0140 C   0  0  2  0  0  3  0  0  0  0  0  0
  187.1110  173.0760  142.0440 O   0  0  0  0  0  1  0  0  0  0  0  0
  188.5970  174.7560  141.2160 C   0  0  0  0  0  2  0  0  0  0  0  0
  188.5340  175.9740  142.1350 C   0  0  1  0  0  3  0  0  0  0  0  0
  189.9390  176.4950  142.4150 C   0  0  0  0  0  2  0  0  0  0  0  0
  191.2760  178.2820  143.5110 C   0  0  0  0  0  1  0  0  0  0  0  0
  189.9030  177.6510  143.4010 C   0  0  0  0  0  2  0  0  0  0  0  0
  187.6640  177.0890  141.5450 C   0  0  2  0  0  3  0  0  0  0  0  0
  186.7080  177.6540  142.5530 C   0  0  0  0  0  0  0  0  0  0  0  0
  184.8950  177.3060  144.1260 C   0  0  0  0  0  3  0  0  0  0  0  0
  185.8050  179.5280  143.8070 C   0  0  0  0  0  3  0  0  0  0  0  0
  184.8990  178.6700  144.4370 C   0  0  0  0  0  3  0  0  0  0  0  0
  186.7070  179.0220  142.8650 C   0  0  0  0  0  3  0  0  0  0  0  0
  185.7960  176.7990  143.1850 C   0  0  0  0  0  3  0  0  0  0  0  0
  186.9850  176.6630  140.3960 O   0  0  0  0  0  0  0  0  0  0  0  0
  186.6670  177.7740  139.7640 O   0  0  0  0  0  1  0  0  0  0  0  0
  191.3300  174.8900  146.1380 N   0  0  0  0  0  2  0  0  0  0  0  0
  189.3340  177.8510  147.2710 C   0  0  0  0  0  3  0  0  0  0  0  0
  188.0470  177.4820  146.8480 C   0  0  0  0  0  0  0  0  0  0  0  0
  188.9530  175.4160  145.9560 C   0  0  0  0  0  3  0  0  0  0  0  0
  190.4220  177.0070  147.0350 C   0  0  0  0  0  3  0  0  0  0  0  0
  190.2370  175.7890  146.3650 C   0  0  0  0  0  0  0  0  0  0  0  0
  187.8640  176.2610  146.1920 C   0  0  0  0  0  3  0  0  0  0  0  0
  186.9390  178.3050  147.0680 O   0  0  0  0  0  0  0  0  0  0  0  0
  186.5380  178.7200  148.3680 C   0  0  0  0  0  1  0  0  0  0  0  0
  1  8  1  0  0  0  0
  2 12  1  0  0  0  0
  2 13  1  0  0  0  0
  3 14  1  0  0  0  0
  4 15  1  0  0  0  0
  5  1  2  0  0  0  0
  5  9  1  0  0  0  0
  6  1  1  0  0  0  0
  7  4  1  0  0  0  0
  7 11  1  0  0  0  0
  8  4  2  0  0  0  0
  9  7  2  0  0  0  0
 10 11  1  0  0  0  0
 10  3  2  0  0  0  0
 11  2  2  0  0  0  0
 13 35  1  0  0  0  0
 14 13  2  0  0  0  0
 15 12  2  0  0  0  0
 16 17  1  6  0  0  0
 16  3  1  0  0  0  0
 18 19  1  0  0  0  0
 18 16  1  0  0  0  0
 19 20  1  6  0  0  0
 21 19  1  0  0  0  0
 22 21  1  6  0  0  0
 22 23  1  0  0  0  0
 23 25  1  0  0  0  0
 25 24  1  0  0  0  0
 26 33  1  6  0  0  0
 26 22  1  0  0  0  0
 26 27  1  0  0  0  0
 27 31  2  0  0  0  0
 27 32  1  0  0  0  0
 28 30  1  0  0  0  0
 29 30  2  0  0  0  0
 31 29  1  0  0  0  0
 32 28  2  0  0  0  0
 34 33  1  0  0  0  0
 35 40  1  0  0  0  0
 37 42  1  0  0  0  0
 37 36  2  0  0  0  0
 38 41  2  0  0  0  0
 38 40  1  0  0  0  0
 39 36  1  0  0  0  0
 40 39  2  0  0  0  0
 41 37  1  0  0  0  0
 42 43  1  0  0  0  0
M  END
>  <MODEL>
6

>  <REMARK>
 VINA RESULT:      -6.5      3.811      8.783
  Name = 
  13 active torsions:
  status: ('A' for Active; 'I' for Inactive)
    1  A    between atoms: N_1  and  C_34
    2  A    between atoms: N_1  and  C_35
    3  A    between atoms: C_2  and  C_6
    4  A    between atoms: C_2  and  C_13
    5  A    between atoms: C_3  and  C_4
    6  A    between atoms: C_3  and  C_12
    7  A    between atoms: C_4  and  C_15
    8  A    between atoms: C_4  and  C_22
    9  A    between atoms: C_6  and  C_12
   10  A    between atoms: C_11  and  C_22
   11  A    between atoms: O_14  and  C_22
   12  A    between atoms: C_15  and  C_42
   13  A    between atoms: C_19  and  O_25
                            x       y       z     vdW  Elec       q    Type
                         _______ _______ _______ _____ _____    ______ ____

>  <TORSDO>
F 13

$$$$
=
 OpenBabel11052420593D

 43 47  0  0  1  0  0  0  0  0999 V2000
  185.0290  178.2670  147.1160 C   0  0  0  0  0  0  0  0  0  0  0  0
  187.5380  176.5390  143.0710 C   0  0  0  0  0  0  0  0  0  0  0  0
  190.2320  176.9380  143.6520 C   0  0  0  0  0  0  0  0  0  0  0  0
  185.6070  177.3390  144.9550 C   0  0  0  0  0  0  0  0  0  0  0  0
  186.3850  178.4300  147.4130 C   0  0  0  0  0  3  0  0  0  0  0  0
  184.0900  178.6360  148.0190 F   0  0  0  0  0  0  0  0  0  0  0  0
  186.9820  177.4980  145.2500 C   0  0  0  0  0  0  0  0  0  0  0  0
  184.6400  177.7240  145.8890 C   0  0  0  0  0  3  0  0  0  0  0  0
  187.3580  178.0480  146.4850 C   0  0  0  0  0  3  0  0  0  0  0  0
  189.2750  177.2860  144.5530 N   0  0  0  0  0  0  0  0  0  0  0  0
  187.9480  177.1070  144.3030 C   0  0  0  0  0  0  0  0  0  0  0  0
  186.1690  176.4090  142.7940 C   0  0  0  0  0  3  0  0  0  0  0  0
  188.5210  176.1500  142.1370 C   0  0  0  0  0  0  0  0  0  0  0  0
  189.8670  176.3770  142.4280 C   0  0  0  0  0  3  0  0  0  0  0  0
  185.2110  176.8020  143.7300 C   0  0  0  0  0  3  0  0  0  0  0  0
  191.6760  177.1800  143.9460 C   0  0  2  0  0  3  0  0  0  0  0  0
  191.9890  178.6650  143.8590 C   0  0  0  0  0  1  0  0  0  0  0  0
  192.5470  176.3770  142.9810 C   0  0  0  0  0  2  0  0  0  0  0  0
  193.9240  176.0380  143.5530 C   0  0  2  0  0  3  0  0  0  0  0  0
  194.9280  176.7060  142.8490 O   0  0  0  0  0  1  0  0  0  0  0  0
  194.2020  174.5410  143.5600 C   0  0  0  0  0  2  0  0  0  0  0  0
  192.8990  173.7480  143.6230 C   0  0  1  0  0  3  0  0  0  0  0  0
  192.9030  172.6450  142.5700 C   0  0  0  0  0  2  0  0  0  0  0  0
  193.3620  173.3530  140.2310 C   0  0  0  0  0  1  0  0  0  0  0  0
  193.9850  172.8890  141.5320 C   0  0  0  0  0  2  0  0  0  0  0  0
  192.6620  173.1500  145.0140 C   0  0  2  0  0  3  0  0  0  0  0  0
  191.6700  173.9450  145.8100 C   0  0  0  0  0  0  0  0  0  0  0  0
  189.3600  174.4450  146.3540 C   0  0  0  0  0  3  0  0  0  0  0  0
  191.1470  175.6510  147.4570 C   0  0  0  0  0  3  0  0  0  0  0  0
  189.7820  175.4140  147.2700 C   0  0  0  0  0  3  0  0  0  0  0  0
  192.0890  174.9200  146.7270 C   0  0  0  0  0  3  0  0  0  0  0  0
  190.3010  173.7130  145.6250 C   0  0  0  0  0  3  0  0  0  0  0  0
  193.8600  172.9940  145.7220 O   0  0  0  0  0  0  0  0  0  0  0  0
  194.1630  171.7190  145.5900 O   0  0  0  0  0  1  0  0  0  0  0  0
  188.1890  175.5770  140.8650 N   0  0  0  0  0  2  0  0  0  0  0  0
  189.9620  172.2840  140.6440 C   0  0  0  0  0  3  0  0  0  0  0  0
  189.5780  171.8600  139.3620 C   0  0  0  0  0  0  0  0  0  0  0  0
  188.2770  173.8920  139.1010 C   0  0  0  0  0  3  0  0  0  0  0  0
  189.5030  173.5040  141.1500 C   0  0  0  0  0  3  0  0  0  0  0  0
  188.6470  174.3080  140.3830 C   0  0  0  0  0  0  0  0  0  0  0  0
  188.7360  172.6720  138.5950 C   0  0  0  0  0  3  0  0  0  0  0  0
  190.0190  170.6470  138.8280 O   0  0  0  0  0  0  0  0  0  0  0  0
  189.6940  170.2260  137.5080 C   0  0  0  0  0  1  0  0  0  0  0  0
  1  5  1  0  0  0  0
  1  6  1  0  0  0  0
  2 11  1  0  0  0  0
  3 16  1  0  0  0  0
  3 10  1  0  0  0  0
  4  7  2  0  0  0  0
  4  8  1  0  0  0  0
  7  9  1  0  0  0  0
  8  1  2  0  0  0  0
  9  5  2  0  0  0  0
 11 10  2  0  0  0  0
 11  7  1  0  0  0  0
 12  2  1  0  0  0  0
 12 15  2  0  0  0  0
 13 14  1  0  0  0  0
 13  2  2  0  0  0  0
 14  3  2  0  0  0  0
 15  4  1  0  0  0  0
 16 17  1  6  0  0  0
 18 19  1  0  0  0  0
 18 16  1  0  0  0  0
 19 20  1  6  0  0  0
 19 21  1  0  0  0  0
 21 22  1  0  0  0  0
 22 23  1  6  0  0  0
 22 26  1  0  0  0  0
 24 25  1  0  0  0  0
 25 23  1  0  0  0  0
 26 33  1  1  0  0  0
 26 27  1  0  0  0  0
 27 31  1  0  0  0  0
 28 30  2  0  0  0  0
 30 29  1  0  0  0  0
 31 29  2  0  0  0  0
 32 27  2  0  0  0  0
 32 28  1  0  0  0  0
 34 33  1  0  0  0  0
 35 13  1  0  0  0  0
 36 39  1  0  0  0  0
 37 36  2  0  0  0  0
 38 40  1  0  0  0  0
 40 35  1  0  0  0  0
 40 39  2  0  0  0  0
 41 38  2  0  0  0  0
 41 37  1  0  0  0  0
 42 37  1  0  0  0  0
 43 42  1  0  0  0  0
M  END
>  <MODEL>
7

>  <REMARK>
 VINA RESULT:      -6.4      2.099      3.599
  Name = 
  13 active torsions:
  status: ('A' for Active; 'I' for Inactive)
    1  A    between atoms: N_1  and  C_34
    2  A    between atoms: N_1  and  C_35
    3  A    between atoms: C_2  and  C_6
    4  A    between atoms: C_2  and  C_13
    5  A    between atoms: C_3  and  C_4
    6  A    between atoms: C_3  and  C_12
    7  A    between atoms: C_4  and  C_15
    8  A    between atoms: C_4  and  C_22
    9  A    between atoms: C_6  and  C_12
   10  A    between atoms: C_11  and  C_22
   11  A    between atoms: O_14  and  C_22
   12  A    between atoms: C_15  and  C_42
   13  A    between atoms: C_19  and  O_25
                            x       y       z     vdW  Elec       q    Type
                         _______ _______ _______ _____ _____    ______ ____

>  <TORSDO>
F 13

$$$$
=
 OpenBabel11052420593D

 43 47  0  0  1  0  0  0  0  0999 V2000
  185.2600  178.5960  144.7700 C   0  0  0  0  0  0  0  0  0  0  0  0
  188.6650  175.0140  143.6690 C   0  0  0  0  0  0  0  0  0  0  0  0
  190.7080  175.3440  145.5330 C   0  0  0  0  0  0  0  0  0  0  0  0
  186.4580  176.7580  143.7450 C   0  0  0  0  0  0  0  0  0  0  0  0
  186.2730  178.7310  145.7230 C   0  0  0  0  0  3  0  0  0  0  0  0
  184.1860  179.4210  144.8030 F   0  0  0  0  0  0  0  0  0  0  0  0
  187.4870  176.8860  144.7100 C   0  0  0  0  0  0  0  0  0  0  0  0
  185.3530  177.6120  143.7820 C   0  0  0  0  0  3  0  0  0  0  0  0
  187.3820  177.8800  145.6950 C   0  0  0  0  0  3  0  0  0  0  0  0
  189.6130  176.1510  145.5610 N   0  0  0  0  0  0  0  0  0  0  0  0
  188.5950  176.0190  144.6650 C   0  0  0  0  0  0  0  0  0  0  0  0
  187.6440  174.9190  142.7130 C   0  0  0  0  0  3  0  0  0  0  0  0
  189.7830  174.1540  143.6440 C   0  0  0  0  0  0  0  0  0  0  0  0
  190.8120  174.3430  144.5670 C   0  0  0  0  0  3  0  0  0  0  0  0
  186.5470  175.7810  142.7530 C   0  0  0  0  0  3  0  0  0  0  0  0
  191.8200  175.5380  146.5100 C   0  0  2  0  0  3  0  0  0  0  0  0
  191.2600  175.7860  147.9020 C   0  0  0  0  0  1  0  0  0  0  0  0
  192.7120  176.6950  146.0630 C   0  0  0  0  0  2  0  0  0  0  0  0
  194.1640  176.5480  146.5200 C   0  0  2  0  0  3  0  0  0  0  0  0
  194.9480  177.5820  146.0080 O   0  0  0  0  0  1  0  0  0  0  0  0
  194.7630  175.2010  146.1370 C   0  0  0  0  0  2  0  0  0  0  0  0
  195.5550  175.3100  144.8360 C   0  0  1  0  0  3  0  0  0  0  0  0
  196.7790  174.4020  144.8870 C   0  0  0  0  0  2  0  0  0  0  0  0
  196.8250  172.1200  145.8720 C   0  0  0  0  0  1  0  0  0  0  0  0
  196.8100  173.6040  146.1800 C   0  0  0  0  0  2  0  0  0  0  0  0
  194.6940  174.9690  143.6140 C   0  0  2  0  0  3  0  0  0  0  0  0
  194.4810  173.4920  143.4660 C   0  0  0  0  0  0  0  0  0  0  0  0
  193.3800  171.4620  144.2080 C   0  0  0  0  0  3  0  0  0  0  0  0
  194.9530  171.3770  142.3680 C   0  0  0  0  0  3  0  0  0  0  0  0
  194.0610  170.7310  143.2290 C   0  0  0  0  0  3  0  0  0  0  0  0
  195.1650  172.7550  142.4870 C   0  0  0  0  0  3  0  0  0  0  0  0
  193.5910  172.8390  144.3280 C   0  0  0  0  0  3  0  0  0  0  0  0
  195.2240  175.5180  142.4390 O   0  0  0  0  0  0  0  0  0  0  0  0
  195.7560  176.6620  142.8150 O   0  0  0  0  0  1  0  0  0  0  0  0
  189.9330  173.1180  142.6630 N   0  0  0  0  0  2  0  0  0  0  0  0
  192.6320  174.1770  140.2910 C   0  0  0  0  0  3  0  0  0  0  0  0
  192.8440  172.9850  139.5790 C   0  0  0  0  0  0  0  0  0  0  0  0
  191.1390  171.9020  140.9230 C   0  0  0  0  0  3  0  0  0  0  0  0
  191.6810  174.2270  141.3130 C   0  0  0  0  0  3  0  0  0  0  0  0
  190.9370  173.0840  141.6410 C   0  0  0  0  0  0  0  0  0  0  0  0
  192.0910  171.8520  139.9000 C   0  0  0  0  0  3  0  0  0  0  0  0
  193.7880  172.9020  138.5520 O   0  0  0  0  0  0  0  0  0  0  0  0
  195.1090  172.4180  138.7620 C   0  0  0  0  0  1  0  0  0  0  0  0
  1  6  1  0  0  0  0
  1  5  1  0  0  0  0
  2 11  1  0  0  0  0
  3 10  1  0  0  0  0
  3 16  1  0  0  0  0
  4  8  1  0  0  0  0
  4  7  2  0  0  0  0
  7  9  1  0  0  0  0
  8  1  2  0  0  0  0
  9  5  2  0  0  0  0
 11  7  1  0  0  0  0
 11 10  2  0  0  0  0
 12 15  2  0  0  0  0
 12  2  1  0  0  0  0
 13  2  2  0  0  0  0
 13 14  1  0  0  0  0
 14  3  2  0  0  0  0
 15  4  1  0  0  0  0
 16 17  1  1  0  0  0
 18 16  1  0  0  0  0
 18 19  1  0  0  0  0
 19 20  1  6  0  0  0
 21 19  1  0  0  0  0
 22 23  1  1  0  0  0
 22 21  1  0  0  0  0
 23 25  1  0  0  0  0
 24 25  1  0  0  0  0
 26 33  1  6  0  0  0
 26 22  1  0  0  0  0
 27 26  1  0  0  0  0
 27 32  1  0  0  0  0
 28 32  2  0  0  0  0
 29 31  1  0  0  0  0
 29 30  2  0  0  0  0
 30 28  1  0  0  0  0
 31 27  2  0  0  0  0
 33 34  1  0  0  0  0
 35 13  1  0  0  0  0
 36 39  1  0  0  0  0
 37 41  1  0  0  0  0
 37 36  2  0  0  0  0
 38 40  1  0  0  0  0
 39 40  2  0  0  0  0
 40 35  1  0  0  0  0
 41 38  2  0  0  0  0
 42 43  1  0  0  0  0
 42 37  1  0  0  0  0
M  END
>  <MODEL>
8

>  <REMARK>
 VINA RESULT:      -6.4      1.329      1.752
  Name = 
  13 active torsions:
  status: ('A' for Active; 'I' for Inactive)
    1  A    between atoms: N_1  and  C_34
    2  A    between atoms: N_1  and  C_35
    3  A    between atoms: C_2  and  C_6
    4  A    between atoms: C_2  and  C_13
    5  A    between atoms: C_3  and  C_4
    6  A    between atoms: C_3  and  C_12
    7  A    between atoms: C_4  and  C_15
    8  A    between atoms: C_4  and  C_22
    9  A    between atoms: C_6  and  C_12
   10  A    between atoms: C_11  and  C_22
   11  A    between atoms: O_14  and  C_22
   12  A    between atoms: C_15  and  C_42
   13  A    between atoms: C_19  and  O_25
                            x       y       z     vdW  Elec       q    Type
                         _______ _______ _______ _____ _____    ______ ____

>  <TORSDO>
F 13

$$$$
=
 OpenBabel11052420593D

 43 47  0  0  1  0  0  0  0  0999 V2000
  184.5520  178.4870  145.5730 C   0  0  0  0  0  0  0  0  0  0  0  0
  188.9730  176.0220  145.4230 C   0  0  0  0  0  0  0  0  0  0  0  0
  189.2090  175.0950  142.8080 C   0  0  0  0  0  0  0  0  0  0  0  0
  186.6720  177.4690  146.1520 C   0  0  0  0  0  0  0  0  0  0  0  0
  184.6970  178.0490  144.2540 C   0  0  0  0  0  3  0  0  0  0  0  0
  183.4560  179.1960  145.9340 F   0  0  0  0  0  0  0  0  0  0  0  0
  186.8270  177.0230  144.8170 C   0  0  0  0  0  0  0  0  0  0  0  0
  185.5370  178.1970  146.5210 C   0  0  0  0  0  3  0  0  0  0  0  0
  185.8280  177.3200  143.8760 C   0  0  0  0  0  3  0  0  0  0  0  0
  188.1240  175.8220  143.1850 N   0  0  0  0  0  0  0  0  0  0  0  0
  187.9740  176.2920  144.4550 C   0  0  0  0  0  0  0  0  0  0  0  0
  188.7880  176.4560  146.7440 C   0  0  0  0  0  3  0  0  0  0  0  0
  190.1160  175.2900  145.0400 C   0  0  0  0  0  0  0  0  0  0  0  0
  190.2130  174.8090  143.7330 C   0  0  0  0  0  3  0  0  0  0  0  0
  187.6490  177.1770  147.1040 C   0  0  0  0  0  3  0  0  0  0  0  0
  189.3240  174.5690  141.4150 C   0  0  2  0  0  3  0  0  0  0  0  0
  188.1710  175.0760  140.5640 C   0  0  0  0  0  1  0  0  0  0  0  0
  189.3610  173.0420  141.4350 C   0  0  0  0  0  2  0  0  0  0  0  0
  190.1170  172.4410  140.2500 C   0  0  2  0  0  3  0  0  0  0  0  0
  190.3560  171.0820  140.4550 O   0  0  0  0  0  1  0  0  0  0  0  0
  191.4280  173.1630  139.9670 C   0  0  0  0  0  2  0  0  0  0  0  0
  192.6080  172.3980  140.5600 C   0  0  1  0  0  3  0  0  0  0  0  0
  193.7690  172.3700  139.5710 C   0  0  0  0  0  2  0  0  0  0  0  0
  194.5520  174.1440  138.0150 C   0  0  0  0  0  1  0  0  0  0  0  0
  193.4360  173.1650  138.3210 C   0  0  0  0  0  2  0  0  0  0  0  0
  193.0640  172.9980  141.8950 C   0  0  2  0  0  3  0  0  0  0  0  0
  194.0770  174.0880  141.7090 C   0  0  0  0  0  0  0  0  0  0  0  0
  196.3950  174.7540  141.4480 C   0  0  0  0  0  3  0  0  0  0  0  0
  194.6510  176.4350  141.4620 C   0  0  0  0  0  3  0  0  0  0  0  0
  196.0030  176.0950  141.3700 C   0  0  0  0  0  3  0  0  0  0  0  0
  193.6890  175.4340  141.6340 C   0  0  0  0  0  3  0  0  0  0  0  0
  195.4340  173.7530  141.6190 C   0  0  0  0  0  3  0  0  0  0  0  0
  193.5440  172.0130  142.7680 O   0  0  0  0  0  0  0  0  0  0  0  0
  192.7320  170.9900  142.5960 O   0  0  0  0  0  1  0  0  0  0  0  0
  191.1670  174.9680  145.9610 N   0  0  0  0  0  2  0  0  0  0  0  0
  194.5240  176.3950  145.1090 C   0  0  0  0  0  3  0  0  0  0  0  0
  195.3110  175.2320  145.0910 C   0  0  0  0  0  0  0  0  0  0  0  0
  193.3510  173.9190  145.6570 C   0  0  0  0  0  3  0  0  0  0  0  0
  193.1600  176.3180  145.4020 C   0  0  0  0  0  3  0  0  0  0  0  0
  192.5690  175.0790  145.6890 C   0  0  0  0  0  0  0  0  0  0  0  0
  194.7160  173.9970  145.3640 C   0  0  0  0  0  3  0  0  0  0  0  0
  196.6780  175.2760  144.8020 O   0  0  0  0  0  0  0  0  0  0  0  0
  197.5460  174.1720  145.0290 C   0  0  0  0  0  1  0  0  0  0  0  0
  1  6  1  0  0  0  0
  1  8  1  0  0  0  0
  2 12  1  0  0  0  0
  3 10  2  0  0  0  0
  3 14  1  0  0  0  0
  4  8  2  0  0  0  0
  4 15  1  0  0  0  0
  5  1  2  0  0  0  0
  7  4  1  0  0  0  0
  9  5  1  0  0  0  0
  9  7  2  0  0  0  0
 10 11  1  0  0  0  0
 11  7  1  0  0  0  0
 11  2  2  0  0  0  0
 12 15  2  0  0  0  0
 13  2  1  0  0  0  0
 13 35  1  0  0  0  0
 14 13  2  0  0  0  0
 16 17  1  6  0  0  0
 16 18  1  0  0  0  0
 16  3  1  0  0  0  0
 19 20  1  1  0  0  0
 19 18  1  0  0  0  0
 21 19  1  0  0  0  0
 21 22  1  0  0  0  0
 22 23  1  6  0  0  0
 22 26  1  0  0  0  0
 24 25  1  0  0  0  0
 25 23  1  0  0  0  0
 26 33  1  1  0  0  0
 27 26  1  0  0  0  0
 28 32  1  0  0  0  0
 29 31  2  0  0  0  0
 30 28  2  0  0  0  0
 30 29  1  0  0  0  0
 31 27  1  0  0  0  0
 32 27  2  0  0  0  0
 34 33  1  0  0  0  0
 36 39  1  0  0  0  0
 37 36  2  0  0  0  0
 37 41  1  0  0  0  0
 38 40  1  0  0  0  0
 39 40  2  0  0  0  0
 40 35  1  0  0  0  0
 41 38  2  0  0  0  0
 42 43  1  0  0  0  0
 42 37  1  0  0  0  0
M  END
>  <MODEL>
9

>  <REMARK>
 VINA RESULT:      -6.3      1.940      5.388
  Name = 
  13 active torsions:
  status: ('A' for Active; 'I' for Inactive)
    1  A    between atoms: N_1  and  C_34
    2  A    between atoms: N_1  and  C_35
    3  A    between atoms: C_2  and  C_6
    4  A    between atoms: C_2  and  C_13
    5  A    between atoms: C_3  and  C_4
    6  A    between atoms: C_3  and  C_12
    7  A    between atoms: C_4  and  C_15
    8  A    between atoms: C_4  and  C_22
    9  A    between atoms: C_6  and  C_12
   10  A    between atoms: C_11  and  C_22
   11  A    between atoms: O_14  and  C_22
   12  A    between atoms: C_15  and  C_42
   13  A    between atoms: C_19  and  O_25
                            x       y       z     vdW  Elec       q    Type
                         _______ _______ _______ _____ _____    ______ ____

>  <TORSDO>
F 13

$$$$
