=
 OpenBabel11052421333D

 32 36  0  0  1  0  0  0  0  0999 V2000
  190.9390  175.8980  144.3680 C   0  0  1  0  0  3  0  0  0  0  0  0
  187.1820  177.5840  141.5500 C   0  0  0  0  0  3  0  0  0  0  0  0
  187.2920  176.4680  140.7180 C   0  0  0  0  0  3  0  0  0  0  0  0
  192.4980  174.1100  143.3500 C   0  0  1  0  0  3  0  0  0  0  0  0
  192.0080  172.7280  143.4050 N   0  0  0  0  0  0  0  0  0  0  0  0
  193.8320  172.1970  145.1140 C   0  0  0  0  0  1  0  0  0  0  0  0
  188.0450  177.7340  142.6390 C   0  0  0  0  0  3  0  0  0  0  0  0
  189.9060  176.9090  144.0600 N   0  0  0  0  0  0  0  0  0  0  0  0
  189.1480  175.6540  142.0530 C   0  0  0  0  0  0  0  0  0  0  0  0
  190.1840  174.6540  142.3410 C   0  0  0  0  0  0  0  0  0  0  0  0
  192.2650  170.5940  144.3600 O   0  0  0  0  0  0  0  0  0  0  0  0
  192.6670  171.7850  144.2770 C   0  0  0  0  0  0  0  0  0  0  0  0
  188.2700  175.5040  140.9710 C   0  0  0  0  0  3  0  0  0  0  0  0
  189.0360  176.7740  142.9060 C   0  0  0  0  0  0  0  0  0  0  0  0
  189.9960  173.3640  142.0540 C   0  0  0  0  0  3  0  0  0  0  0  0
  193.5480  174.2430  142.2610 C   0  0  0  0  0  1  0  0  0  0  0  0
  190.7470  171.1120  142.1850 N   0  0  0  0  0  2  0  0  0  0  0  0
  191.3800  175.1410  143.1100 C   0  0  1  0  0  3  0  0  0  0  0  0
  190.9360  172.3450  142.5190 C   0  0  0  0  0  0  0  0  0  0  0  0
  192.6030  176.1380  146.3170 C   0  0  0  0  0  0  0  0  0  0  0  0
  193.6160  176.7280  146.7720 O   0  0  0  0  0  0  0  0  0  0  0  0
  191.9690  175.0580  147.1250 C   0  0  0  0  0  1  0  0  0  0  0  0
  192.0910  176.5150  145.0310 N   0  0  0  0  0  2  0  0  0  0  0  0
  189.5640  177.8640  145.1130 C   0  0  0  0  0  2  0  0  0  0  0  0
  188.9560  177.1410  146.3000 C   0  0  0  0  0  2  0  0  0  0  0  0
  187.5850  176.7760  145.9960 N   0  0  0  0  0  2  0  0  0  0  0  0
  185.0920  178.7690  144.9840 C   0  0  1  0  0  3  0  0  0  0  0  0
  186.7820  177.9700  146.1890 C   0  0  2  0  0  3  0  0  0  0  0  0
  185.9260  177.8670  147.7590 S   0  0  0  0  0  0  0  0  0  0  0  0
  184.4550  178.1820  143.7390 C   0  0  0  0  0  1  0  0  0  0  0  0
  184.1760  178.6180  146.1130 C   0  0  0  0  0  2  0  0  0  0  0  0
  185.3520  177.6350  145.9960 C   0  0  1  0  0  0  0  0  0  0  0  0
  1 23  1  6  0  0  0
  2  7  1  0  0  0  0
  3 13  1  0  0  0  0
  3  2  2  0  0  0  0
  4 16  1  6  0  0  0
  4  5  1  0  0  0  0
  5 12  1  0  0  0  0
  7 14  2  0  0  0  0
  8  1  1  0  0  0  0
  8 24  1  0  0  0  0
  9 10  1  0  0  0  0
  9 14  1  0  0  0  0
 12 11  2  0  0  0  0
 12  6  1  0  0  0  0
 13  9  2  0  0  0  0
 14  8  1  0  0  0  0
 15 10  2  0  0  0  0
 15 19  1  0  0  0  0
 17 19  2  0  0  0  0
 18 10  1  1  0  0  0
 18  4  1  0  0  0  0
 18  1  1  0  0  0  0
 19  5  1  0  0  0  0
 20 21  2  0  0  0  0
 20 22  1  0  0  0  0
 23 20  1  0  0  0  0
 24 25  1  0  0  0  0
 26 25  1  0  0  0  0
 27 30  1  6  0  0  0
 27 32  1  0  0  0  0
 27 31  1  0  0  0  0
 28 26  1  1  0  0  0
 28 29  1  0  0  0  0
 32 31  1  6  0  0  0
 32 28  1  0  0  0  0
 32 29  1  0  0  0  0
M  END
>  <MODEL>
1

>  <REMARK>
 VINA RESULT:      -7.5      0.000      0.000
  Name = 
  5 active torsions:
  status: ('A' for Active; 'I' for Inactive)
    1  A    between atoms: C_2  and  N_12
    2  A    between atoms: C_3  and  N_28
    3  A    between atoms: C_9  and  N_14
    4  A    between atoms: C_9  and  C_21
    5  A    between atoms: N_12  and  C_21
                            x       y       z     vdW  Elec       q    Type
                         _______ _______ _______ _____ _____    ______ ____

>  <TORSDO>
F 5

$$$$
=
 OpenBabel11052421333D

 32 36  0  0  1  0  0  0  0  0999 V2000
  191.1360  175.0010  142.6570 C   0  0  1  0  0  3  0  0  0  0  0  0
  189.5900  175.1480  147.3990 C   0  0  0  0  0  3  0  0  0  0  0  0
  190.9110  175.2600  147.8360 C   0  0  0  0  0  3  0  0  0  0  0  0
  193.6130  174.4220  142.2160 C   0  0  1  0  0  3  0  0  0  0  0  0
  194.5630  175.5310  142.3560 N   0  0  0  0  0  0  0  0  0  0  0  0
  194.9300  175.4770  139.8280 C   0  0  0  0  0  1  0  0  0  0  0  0
  189.3110  175.0450  146.0330 C   0  0  0  0  0  3  0  0  0  0  0  0
  190.0570  174.9800  143.6660 N   0  0  0  0  0  0  0  0  0  0  0  0
  191.6840  175.1490  145.5380 C   0  0  0  0  0  0  0  0  0  0  0  0
  192.7620  175.1520  144.5430 C   0  0  0  0  0  0  0  0  0  0  0  0
  196.0240  177.0120  141.2570 O   0  0  0  0  0  0  0  0  0  0  0  0
  195.2120  176.0510  141.1770 C   0  0  0  0  0  0  0  0  0  0  0  0
  191.9550  175.2640  146.9090 C   0  0  0  0  0  3  0  0  0  0  0  0
  190.3500  175.0460  145.0860 C   0  0  0  0  0  0  0  0  0  0  0  0
  193.8900  175.8350  144.7510 C   0  0  0  0  0  3  0  0  0  0  0  0
  194.3400  173.0970  142.3570 C   0  0  0  0  0  1  0  0  0  0  0  0
  195.9760  176.6320  143.9320 N   0  0  0  0  0  2  0  0  0  0  0  0
  192.4580  174.4810  143.2320 C   0  0  1  0  0  3  0  0  0  0  0  0
  194.8760  176.0020  143.6830 C   0  0  0  0  0  0  0  0  0  0  0  0
  190.4740  172.8290  141.4450 C   0  0  0  0  0  0  0  0  0  0  0  0
  190.1290  172.2880  140.3630 O   0  0  0  0  0  0  0  0  0  0  0  0
  190.5760  171.9910  142.6740 C   0  0  0  0  0  1  0  0  0  0  0  0
  190.7520  174.2360  141.4680 N   0  0  0  0  0  2  0  0  0  0  0  0
  188.6930  175.2220  143.1990 C   0  0  0  0  0  2  0  0  0  0  0  0
  188.5660  176.6340  142.6600 C   0  0  0  0  0  2  0  0  0  0  0  0
  188.0990  177.5170  143.7140 N   0  0  0  0  0  2  0  0  0  0  0  0
  185.7360  176.7910  145.9730 C   0  0  1  0  0  3  0  0  0  0  0  0
  186.7330  177.1230  144.0130 C   0  0  2  0  0  3  0  0  0  0  0  0
  185.6030  178.3600  143.3790 S   0  0  0  0  0  0  0  0  0  0  0  0
  186.3130  176.9420  147.3670 C   0  0  0  0  0  1  0  0  0  0  0  0
  184.8000  177.8830  145.7170 C   0  0  0  0  0  2  0  0  0  0  0  0
  186.2070  177.9740  145.1050 C   0  0  1  0  0  0  0  0  0  0  0  0
  1 23  1  6  0  0  0
  1 18  1  0  0  0  0
  1  8  1  0  0  0  0
  2  3  1  0  0  0  0
  4  5  1  0  0  0  0
  4 16  1  1  0  0  0
  4 18  1  0  0  0  0
  5 19  1  0  0  0  0
  6 12  1  0  0  0  0
  7  2  2  0  0  0  0
  8 14  1  0  0  0  0
  9 13  1  0  0  0  0
 10 15  2  0  0  0  0
 10  9  1  0  0  0  0
 12 11  2  0  0  0  0
 12  5  1  0  0  0  0
 13  3  2  0  0  0  0
 14  9  2  0  0  0  0
 14  7  1  0  0  0  0
 18 10  1  1  0  0  0
 19 17  2  0  0  0  0
 19 15  1  0  0  0  0
 20 23  1  0  0  0  0
 20 22  1  0  0  0  0
 21 20  2  0  0  0  0
 24  8  1  0  0  0  0
 25 24  1  0  0  0  0
 25 26  1  0  0  0  0
 27 30  1  1  0  0  0
 28 26  1  6  0  0  0
 28 32  1  0  0  0  0
 29 28  1  0  0  0  0
 29 32  1  0  0  0  0
 31 27  1  0  0  0  0
 32 31  1  1  0  0  0
 32 27  1  0  0  0  0
M  END
>  <MODEL>
2

>  <REMARK>
 VINA RESULT:      -7.4      2.413      4.854
  Name = 
  5 active torsions:
  status: ('A' for Active; 'I' for Inactive)
    1  A    between atoms: C_2  and  N_12
    2  A    between atoms: C_3  and  N_28
    3  A    between atoms: C_9  and  N_14
    4  A    between atoms: C_9  and  C_21
    5  A    between atoms: N_12  and  C_21
                            x       y       z     vdW  Elec       q    Type
                         _______ _______ _______ _____ _____    ______ ____

>  <TORSDO>
F 5

$$$$
=
 OpenBabel11052421333D

 32 36  0  0  1  0  0  0  0  0999 V2000
  190.8470  174.6990  143.4860 C   0  0  1  0  0  3  0  0  0  0  0  0
  187.4840  177.0940  146.2890 C   0  0  0  0  0  3  0  0  0  0  0  0
  188.5030  177.5860  147.1070 C   0  0  0  0  0  3  0  0  0  0  0  0
  193.1880  174.2980  144.4950 C   0  0  1  0  0  3  0  0  0  0  0  0
  194.1200  175.4280  144.4180 N   0  0  0  0  0  0  0  0  0  0  0  0
  195.5040  174.1130  142.7200 C   0  0  0  0  0  1  0  0  0  0  0  0
  187.7940  176.2610  145.2110 C   0  0  0  0  0  3  0  0  0  0  0  0
  189.4500  175.0690  143.7960 N   0  0  0  0  0  0  0  0  0  0  0  0
  190.1480  176.3940  145.7800 C   0  0  0  0  0  0  0  0  0  0  0  0
  191.5360  176.0160  145.4890 C   0  0  0  0  0  0  0  0  0  0  0  0
  196.0760  176.2930  143.4380 O   0  0  0  0  0  0  0  0  0  0  0  0
  195.2620  175.3360  143.5410 C   0  0  0  0  0  0  0  0  0  0  0  0
  189.8310  177.2400  146.8520 C   0  0  0  0  0  3  0  0  0  0  0  0
  189.1250  175.9010  144.9400 C   0  0  0  0  0  0  0  0  0  0  0  0
  192.5470  176.8460  145.7580 C   0  0  0  0  0  3  0  0  0  0  0  0
  193.6210  173.3460  145.5960 C   0  0  0  0  0  1  0  0  0  0  0  0
  194.8640  177.3590  145.6060 N   0  0  0  0  0  2  0  0  0  0  0  0
  191.7310  174.7290  144.7380 C   0  0  1  0  0  3  0  0  0  0  0  0
  193.9020  176.5570  145.2890 C   0  0  0  0  0  0  0  0  0  0  0  0
  191.5680  173.1020  141.6010 C   0  0  0  0  0  0  0  0  0  0  0  0
  191.5710  171.9250  141.1590 O   0  0  0  0  0  0  0  0  0  0  0  0
  192.2610  174.1690  140.8230 C   0  0  0  0  0  1  0  0  0  0  0  0
  190.9060  173.3850  142.8410 N   0  0  0  0  0  2  0  0  0  0  0  0
  188.4490  174.8550  142.7530 C   0  0  0  0  0  2  0  0  0  0  0  0
  188.7360  175.7470  141.5590 C   0  0  0  0  0  2  0  0  0  0  0  0
  188.1090  177.0410  141.7570 N   0  0  0  0  0  2  0  0  0  0  0  0
  184.9640  177.5760  142.7740 C   0  0  1  0  0  3  0  0  0  0  0  0
  186.6820  176.8460  141.5660 C   0  0  2  0  0  3  0  0  0  0  0  0
  186.1870  177.5550  139.9970 S   0  0  0  0  0  0  0  0  0  0  0  0
  184.9800  178.4410  144.0200 C   0  0  0  0  0  1  0  0  0  0  0  0
  184.4650  178.3620  141.6480 C   0  0  0  0  0  2  0  0  0  0  0  0
  185.9820  178.1360  141.7620 C   0  0  1  0  0  0  0  0  0  0  0  0
  1 23  1  1  0  0  0
  1  8  1  0  0  0  0
  1 18  1  0  0  0  0
  2  3  1  0  0  0  0
  4 18  1  0  0  0  0
  4 16  1  1  0  0  0
  5  4  1  0  0  0  0
  5 19  1  0  0  0  0
  6 12  1  0  0  0  0
  7  2  2  0  0  0  0
  8 14  1  0  0  0  0
  9 13  1  0  0  0  0
 10 15  2  0  0  0  0
 10  9  1  0  0  0  0
 11 12  2  0  0  0  0
 12  5  1  0  0  0  0
 13  3  2  0  0  0  0
 14  7  1  0  0  0  0
 14  9  2  0  0  0  0
 18 10  1  6  0  0  0
 19 17  2  0  0  0  0
 19 15  1  0  0  0  0
 20 23  1  0  0  0  0
 21 20  2  0  0  0  0
 22 20  1  0  0  0  0
 24  8  1  0  0  0  0
 25 26  1  0  0  0  0
 25 24  1  0  0  0  0
 27 30  1  1  0  0  0
 28 26  1  6  0  0  0
 28 32  1  0  0  0  0
 29 28  1  0  0  0  0
 29 32  1  0  0  0  0
 31 27  1  0  0  0  0
 32 31  1  1  0  0  0
 32 27  1  0  0  0  0
M  END
>  <MODEL>
3

>  <REMARK>
 VINA RESULT:      -7.2      2.306      4.788
  Name = 
  5 active torsions:
  status: ('A' for Active; 'I' for Inactive)
    1  A    between atoms: C_2  and  N_12
    2  A    between atoms: C_3  and  N_28
    3  A    between atoms: C_9  and  N_14
    4  A    between atoms: C_9  and  C_21
    5  A    between atoms: N_12  and  C_21
                            x       y       z     vdW  Elec       q    Type
                         _______ _______ _______ _____ _____    ______ ____

>  <TORSDO>
F 5

$$$$
=
 OpenBabel11052421333D

 32 36  0  0  1  0  0  0  0  0999 V2000
  191.9450  173.6580  142.9340 C   0  0  1  0  0  3  0  0  0  0  0  0
  189.6950  174.9210  147.2060 C   0  0  0  0  0  3  0  0  0  0  0  0
  190.8780  175.5010  147.6680 C   0  0  0  0  0  3  0  0  0  0  0  0
  194.5250  173.6210  142.8980 C   0  0  1  0  0  3  0  0  0  0  0  0
  195.1810  174.9200  142.7100 N   0  0  0  0  0  0  0  0  0  0  0  0
  195.9340  174.1520  140.3920 C   0  0  0  0  0  1  0  0  0  0  0  0
  189.6570  174.3170  145.9460 C   0  0  0  0  0  3  0  0  0  0  0  0
  190.7540  173.6880  143.8090 N   0  0  0  0  0  0  0  0  0  0  0  0
  191.9990  174.8580  145.6140 C   0  0  0  0  0  0  0  0  0  0  0  0
  193.1910  174.8170  144.7580 C   0  0  0  0  0  0  0  0  0  0  0  0
  196.4380  176.2900  141.2680 O   0  0  0  0  0  0  0  0  0  0  0  0
  195.8750  175.1810  141.4710 C   0  0  0  0  0  0  0  0  0  0  0  0
  192.0250  175.4740  146.8730 C   0  0  0  0  0  3  0  0  0  0  0  0
  190.8040  174.2780  145.1340 C   0  0  0  0  0  0  0  0  0  0  0  0
  194.0990  175.7950  144.7930 C   0  0  0  0  0  3  0  0  0  0  0  0
  195.4920  172.6440  143.5440 C   0  0  0  0  0  1  0  0  0  0  0  0
  196.0640  176.7910  143.8970 N   0  0  0  0  0  2  0  0  0  0  0  0
  193.2430  173.7070  143.7460 C   0  0  1  0  0  3  0  0  0  0  0  0
  195.1770  175.8560  143.8060 C   0  0  0  0  0  0  0  0  0  0  0  0
  192.0090  172.5080  140.6320 C   0  0  0  0  0  0  0  0  0  0  0  0
  192.0030  171.4240  139.9940 O   0  0  0  0  0  0  0  0  0  0  0  0
  192.1140  173.7910  139.8800 C   0  0  0  0  0  1  0  0  0  0  0  0
  191.9220  172.4790  142.0630 N   0  0  0  0  0  2  0  0  0  0  0  0
  189.4580  173.4090  143.1920 C   0  0  0  0  0  2  0  0  0  0  0  0
  189.0270  174.5790  142.3280 C   0  0  0  0  0  2  0  0  0  0  0  0
  187.5830  174.7230  142.3900 N   0  0  0  0  0  2  0  0  0  0  0  0
  186.4570  177.1620  144.3890 C   0  0  1  0  0  3  0  0  0  0  0  0
  187.3130  176.1320  142.6140 C   0  0  2  0  0  3  0  0  0  0  0  0
  188.8450  177.0560  142.5200 S   0  0  0  0  0  0  0  0  0  0  0  0
  186.0180  176.5630  145.7120 C   0  0  0  0  0  1  0  0  0  0  0  0
  187.6930  177.9160  144.5870 C   0  0  0  0  0  2  0  0  0  0  0  0
  187.7890  176.5140  143.9630 C   0  0  1  0  0  0  0  0  0  0  0  0
  1 23  1  1  0  0  0
  1 18  1  0  0  0  0
  1  8  1  0  0  0  0
  2  3  1  0  0  0  0
  4 16  1  1  0  0  0
  4 18  1  0  0  0  0
  5  4  1  0  0  0  0
  5 19  1  0  0  0  0
  6 12  1  0  0  0  0
  7  2  2  0  0  0  0
  8 14  1  0  0  0  0
  9 13  1  0  0  0  0
 10 15  2  0  0  0  0
 10  9  1  0  0  0  0
 11 12  2  0  0  0  0
 12  5  1  0  0  0  0
 13  3  2  0  0  0  0
 14  9  2  0  0  0  0
 14  7  1  0  0  0  0
 18 10  1  6  0  0  0
 19 17  2  0  0  0  0
 19 15  1  0  0  0  0
 20 23  1  0  0  0  0
 21 20  2  0  0  0  0
 22 20  1  0  0  0  0
 24  8  1  0  0  0  0
 25 26  1  0  0  0  0
 25 24  1  0  0  0  0
 27 31  1  0  0  0  0
 27 30  1  1  0  0  0
 28 26  1  1  0  0  0
 28 32  1  0  0  0  0
 29 28  1  0  0  0  0
 29 32  1  0  0  0  0
 32 27  1  0  0  0  0
 32 31  1  1  0  0  0
M  END
>  <MODEL>
4

>  <REMARK>
 VINA RESULT:      -7.0      2.708      5.270
  Name = 
  5 active torsions:
  status: ('A' for Active; 'I' for Inactive)
    1  A    between atoms: C_2  and  N_12
    2  A    between atoms: C_3  and  N_28
    3  A    between atoms: C_9  and  N_14
    4  A    between atoms: C_9  and  C_21
    5  A    between atoms: N_12  and  C_21
                            x       y       z     vdW  Elec       q    Type
                         _______ _______ _______ _____ _____    ______ ____

>  <TORSDO>
F 5

$$$$
=
 OpenBabel11052421333D

 32 36  0  0  1  0  0  0  0  0999 V2000
  191.9000  175.4440  144.4240 C   0  0  1  0  0  3  0  0  0  0  0  0
  187.4450  174.9160  142.2390 C   0  0  0  0  0  3  0  0  0  0  0  0
  187.7690  173.6080  141.8730 C   0  0  0  0  0  3  0  0  0  0  0  0
  193.7660  173.7850  143.7690 C   0  0  1  0  0  3  0  0  0  0  0  0
  193.7320  172.4840  144.4460 N   0  0  0  0  0  0  0  0  0  0  0  0
  195.8560  173.1370  145.7080 C   0  0  0  0  0  1  0  0  0  0  0  0
  188.3690  175.6950  142.9410 C   0  0  0  0  0  3  0  0  0  0  0  0
  190.5760  175.9770  144.0430 N   0  0  0  0  0  0  0  0  0  0  0  0
  189.9560  173.8610  142.8950 C   0  0  0  0  0  0  0  0  0  0  0  0
  191.2770  173.3310  143.2540 C   0  0  0  0  0  0  0  0  0  0  0  0
  194.7590  171.0640  146.0160 O   0  0  0  0  0  0  0  0  0  0  0  0
  194.7640  172.1660  145.4040 C   0  0  0  0  0  0  0  0  0  0  0  0
  189.0190  173.0810  142.2020 C   0  0  0  0  0  3  0  0  0  0  0  0
  189.6330  175.1810  143.2790 C   0  0  0  0  0  0  0  0  0  0  0  0
  191.4500  172.0320  143.5150 C   0  0  0  0  0  3  0  0  0  0  0  0
  194.5580  173.6750  142.4780 C   0  0  0  0  0  1  0  0  0  0  0  0
  192.8610  170.2710  144.2630 N   0  0  0  0  0  2  0  0  0  0  0  0
  192.3660  174.3450  143.4620 C   0  0  1  0  0  3  0  0  0  0  0  0
  192.7120  171.5390  144.0640 C   0  0  0  0  0  0  0  0  0  0  0  0
  193.7280  176.7930  145.6350 C   0  0  0  0  0  0  0  0  0  0  0  0
  194.5620  177.7320  145.5720 O   0  0  0  0  0  0  0  0  0  0  0  0
  193.6390  175.9850  146.8850 C   0  0  0  0  0  1  0  0  0  0  0  0
  192.8920  176.5190  144.5020 N   0  0  0  0  0  2  0  0  0  0  0  0
  190.1140  177.1850  144.7240 C   0  0  0  0  0  2  0  0  0  0  0  0
  189.7850  176.8770  146.1730 C   0  0  0  0  0  2  0  0  0  0  0  0
  188.4220  176.3850  146.2670 N   0  0  0  0  0  2  0  0  0  0  0  0
  186.3160  178.6660  145.0110 C   0  0  1  0  0  3  0  0  0  0  0  0
  187.5720  177.5460  146.4650 C   0  0  2  0  0  3  0  0  0  0  0  0
  186.2780  177.1460  147.6380 S   0  0  0  0  0  0  0  0  0  0  0  0
  186.1060  178.3940  143.5340 C   0  0  0  0  0  1  0  0  0  0  0  0
  185.1020  178.3170  145.7450 C   0  0  0  0  0  2  0  0  0  0  0  0
  186.2790  177.3290  145.7780 C   0  0  1  0  0  0  0  0  0  0  0  0
  1 23  1  6  0  0  0
  2  7  1  0  0  0  0
  3 13  1  0  0  0  0
  3  2  2  0  0  0  0
  4 16  1  6  0  0  0
  4  5  1  0  0  0  0
  5 12  1  0  0  0  0
  7 14  2  0  0  0  0
  8  1  1  0  0  0  0
  8 24  1  0  0  0  0
  9 10  1  0  0  0  0
  9 14  1  0  0  0  0
 10 15  2  0  0  0  0
 12  6  1  0  0  0  0
 12 11  2  0  0  0  0
 13  9  2  0  0  0  0
 14  8  1  0  0  0  0
 15 19  1  0  0  0  0
 18 10  1  1  0  0  0
 18  4  1  0  0  0  0
 18  1  1  0  0  0  0
 19 17  2  0  0  0  0
 19  5  1  0  0  0  0
 20 22  1  0  0  0  0
 21 20  2  0  0  0  0
 23 20  1  0  0  0  0
 24 25  1  0  0  0  0
 25 26  1  0  0  0  0
 27 30  1  6  0  0  0
 27 31  1  0  0  0  0
 27 32  1  0  0  0  0
 28 26  1  6  0  0  0
 28 29  1  0  0  0  0
 32 31  1  6  0  0  0
 32 28  1  0  0  0  0
 32 29  1  0  0  0  0
M  END
>  <MODEL>
5

>  <REMARK>
 VINA RESULT:      -7.0      1.501      1.899
  Name = 
  5 active torsions:
  status: ('A' for Active; 'I' for Inactive)
    1  A    between atoms: C_2  and  N_12
    2  A    between atoms: C_3  and  N_28
    3  A    between atoms: C_9  and  N_14
    4  A    between atoms: C_9  and  C_21
    5  A    between atoms: N_12  and  C_21
                            x       y       z     vdW  Elec       q    Type
                         _______ _______ _______ _____ _____    ______ ____

>  <TORSDO>
F 5

$$$$
=
 OpenBabel11052421333D

 32 36  0  0  1  0  0  0  0  0999 V2000
  189.7100  175.6420  143.3390 C   0  0  1  0  0  3  0  0  0  0  0  0
  193.5370  176.0630  146.5130 C   0  0  0  0  0  3  0  0  0  0  0  0
  194.2660  175.1300  145.7730 C   0  0  0  0  0  3  0  0  0  0  0  0
  189.6320  173.5590  141.8170 C   0  0  1  0  0  3  0  0  0  0  0  0
  190.4610  173.6190  140.6080 N   0  0  0  0  0  0  0  0  0  0  0  0
  188.3270  173.7370  139.2060 C   0  0  0  0  0  1  0  0  0  0  0  0
  192.2440  176.4160  146.1160 C   0  0  0  0  0  3  0  0  0  0  0  0
  190.3320  176.2290  144.5440 N   0  0  0  0  0  0  0  0  0  0  0  0
  192.3980  174.8820  144.2430 C   0  0  0  0  0  0  0  0  0  0  0  0
  191.7810  174.2810  143.0540 C   0  0  0  0  0  0  0  0  0  0  0  0
  190.4950  173.7750  138.2600 O   0  0  0  0  0  0  0  0  0  0  0  0
  189.8150  173.7080  139.3200 C   0  0  0  0  0  0  0  0  0  0  0  0
  193.7000  174.5430  144.6390 C   0  0  0  0  0  3  0  0  0  0  0  0
  191.6590  175.8330  144.9790 C   0  0  0  0  0  0  0  0  0  0  0  0
  192.5200  173.9130  142.0050 C   0  0  0  0  0  3  0  0  0  0  0  0
  189.3320  172.1120  142.1660 C   0  0  0  0  0  1  0  0  0  0  0  0
  192.6360  173.1100  139.7700 N   0  0  0  0  0  2  0  0  0  0  0  0
  190.2780  174.2530  143.0290 C   0  0  1  0  0  3  0  0  0  0  0  0
  191.8910  173.5020  140.7500 C   0  0  0  0  0  0  0  0  0  0  0  0
  187.3120  176.1780  142.5730 C   0  0  0  0  0  0  0  0  0  0  0  0
  186.0800  176.0410  142.7880 O   0  0  0  0  0  0  0  0  0  0  0  0
  187.7570  176.9480  141.3750 C   0  0  0  0  0  1  0  0  0  0  0  0
  188.2520  175.5870  143.4790 N   0  0  0  0  0  2  0  0  0  0  0  0
  189.7250  177.4400  145.0930 C   0  0  0  0  0  2  0  0  0  0  0  0
  189.1150  177.1510  146.4530 C   0  0  0  0  0  2  0  0  0  0  0  0
  187.7210  176.7790  146.2910 N   0  0  0  0  0  2  0  0  0  0  0  0
  185.9240  179.3920  145.2150 C   0  0  1  0  0  3  0  0  0  0  0  0
  186.9360  177.9640  146.5870 C   0  0  2  0  0  3  0  0  0  0  0  0
  185.4980  177.5020  147.5500 S   0  0  0  0  0  0  0  0  0  0  0  0
  185.8570  179.3640  143.7000 C   0  0  0  0  0  1  0  0  0  0  0  0
  184.6160  179.0400  145.7630 C   0  0  0  0  0  2  0  0  0  0  0  0
  185.7130  177.9630  145.7520 C   0  0  1  0  0  0  0  0  0  0  0  0
  1 23  1  1  0  0  0
  1  8  1  0  0  0  0
  3  2  2  0  0  0  0
  4 16  1  1  0  0  0
  4 18  1  0  0  0  0
  5 19  1  0  0  0  0
  5  4  1  0  0  0  0
  6 12  1  0  0  0  0
  7  2  1  0  0  0  0
  8 14  1  0  0  0  0
  8 24  1  0  0  0  0
  9 13  2  0  0  0  0
  9 14  1  0  0  0  0
 10  9  1  0  0  0  0
 11 12  2  0  0  0  0
 12  5  1  0  0  0  0
 13  3  1  0  0  0  0
 14  7  2  0  0  0  0
 15 10  2  0  0  0  0
 17 19  2  0  0  0  0
 18 10  1  6  0  0  0
 18  1  1  0  0  0  0
 19 15  1  0  0  0  0
 20 21  2  0  0  0  0
 20 23  1  0  0  0  0
 22 20  1  0  0  0  0
 24 25  1  0  0  0  0
 26 25  1  0  0  0  0
 27 30  1  6  0  0  0
 27 32  1  0  0  0  0
 27 31  1  0  0  0  0
 28 26  1  6  0  0  0
 28 29  1  0  0  0  0
 32 31  1  6  0  0  0
 32 28  1  0  0  0  0
 32 29  1  0  0  0  0
M  END
>  <MODEL>
6

>  <REMARK>
 VINA RESULT:      -7.0      2.466      4.587
  Name = 
  5 active torsions:
  status: ('A' for Active; 'I' for Inactive)
    1  A    between atoms: C_2  and  N_12
    2  A    between atoms: C_3  and  N_28
    3  A    between atoms: C_9  and  N_14
    4  A    between atoms: C_9  and  C_21
    5  A    between atoms: N_12  and  C_21
                            x       y       z     vdW  Elec       q    Type
                         _______ _______ _______ _____ _____    ______ ____

>  <TORSDO>
F 5

$$$$
=
 OpenBabel11052421333D

 32 36  0  0  1  0  0  0  0  0999 V2000
  190.8190  174.7370  143.0660 C   0  0  1  0  0  3  0  0  0  0  0  0
  195.0220  175.0390  145.7380 C   0  0  0  0  0  3  0  0  0  0  0  0
  194.4680  176.0610  146.5110 C   0  0  0  0  0  3  0  0  0  0  0  0
  189.1900  176.7370  143.1530 C   0  0  1  0  0  3  0  0  0  0  0  0
  188.2960  176.7840  144.3150 N   0  0  0  0  0  0  0  0  0  0  0  0
  186.3290  176.2780  142.7640 C   0  0  0  0  0  1  0  0  0  0  0  0
  194.2820  174.4670  144.7000 C   0  0  0  0  0  3  0  0  0  0  0  0
  192.1960  174.2920  143.3640 N   0  0  0  0  0  0  0  0  0  0  0  0
  192.4310  175.9560  145.1960 C   0  0  0  0  0  0  0  0  0  0  0  0
  191.0700  176.4150  144.8940 C   0  0  0  0  0  0  0  0  0  0  0  0
  186.0870  176.5740  145.0990 O   0  0  0  0  0  0  0  0  0  0  0  0
  186.8840  176.5560  144.1220 C   0  0  0  0  0  0  0  0  0  0  0  0
  193.1760  176.5160  146.2440 C   0  0  0  0  0  3  0  0  0  0  0  0
  192.9800  174.9140  144.4150 C   0  0  0  0  0  0  0  0  0  0  0  0
  190.2680  176.8730  145.8590 C   0  0  0  0  0  3  0  0  0  0  0  0
  189.3220  178.1230  142.5470 C   0  0  0  0  0  1  0  0  0  0  0  0
  188.1170  177.6250  146.5410 N   0  0  0  0  0  2  0  0  0  0  0  0
  190.5910  176.1920  143.4880 C   0  0  1  0  0  3  0  0  0  0  0  0
  188.8540  177.1400  145.5960 C   0  0  0  0  0  0  0  0  0  0  0  0
  189.3730  173.8410  141.1330 C   0  0  0  0  0  0  0  0  0  0  0  0
  189.2010  173.7730  139.8900 O   0  0  0  0  0  0  0  0  0  0  0  0
  188.3880  173.1830  142.0390 C   0  0  0  0  0  1  0  0  0  0  0  0
  190.5080  174.5530  141.6460 N   0  0  0  0  0  2  0  0  0  0  0  0
  192.6270  173.0120  142.8050 C   0  0  0  0  0  2  0  0  0  0  0  0
  191.8420  171.8750  143.4320 C   0  0  0  0  0  2  0  0  0  0  0  0
  192.5340  171.4020  144.6160 N   0  0  0  0  0  2  0  0  0  0  0  0
  195.8140  170.7480  144.7890 C   0  0  1  0  0  3  0  0  0  0  0  0
  193.6850  170.6470  144.1530 C   0  0  2  0  0  3  0  0  0  0  0  0
  193.4240  168.9040  144.4740 S   0  0  0  0  0  0  0  0  0  0  0  0
  196.4440  171.6240  145.8550 C   0  0  0  0  0  1  0  0  0  0  0  0
  195.7700  169.3670  145.2630 C   0  0  0  0  0  2  0  0  0  0  0  0
  194.4760  170.1960  145.3210 C   0  0  1  0  0  0  0  0  0  0  0  0
  1 23  1  6  0  0  0
  1  8  1  0  0  0  0
  1 18  1  0  0  0  0
  2  3  1  0  0  0  0
  4 16  1  1  0  0  0
  4 18  1  0  0  0  0
  4  5  1  0  0  0  0
  5 19  1  0  0  0  0
  6 12  1  0  0  0  0
  7  2  2  0  0  0  0
  8 14  1  0  0  0  0
  9 13  1  0  0  0  0
 10  9  1  0  0  0  0
 10 15  2  0  0  0  0
 12  5  1  0  0  0  0
 12 11  2  0  0  0  0
 13  3  2  0  0  0  0
 14  7  1  0  0  0  0
 14  9  2  0  0  0  0
 18 10  1  1  0  0  0
 19 15  1  0  0  0  0
 19 17  2  0  0  0  0
 20 23  1  0  0  0  0
 20 22  1  0  0  0  0
 21 20  2  0  0  0  0
 24  8  1  0  0  0  0
 24 25  1  0  0  0  0
 25 26  1  0  0  0  0
 27 31  1  0  0  0  0
 27 32  1  0  0  0  0
 27 30  1  1  0  0  0
 28 29  1  0  0  0  0
 28 26  1  1  0  0  0
 28 32  1  0  0  0  0
 29 32  1  0  0  0  0
 32 31  1  1  0  0  0
M  END
>  <MODEL>
7

>  <REMARK>
 VINA RESULT:      -6.7      3.320      8.042
  Name = 
  5 active torsions:
  status: ('A' for Active; 'I' for Inactive)
    1  A    between atoms: C_2  and  N_12
    2  A    between atoms: C_3  and  N_28
    3  A    between atoms: C_9  and  N_14
    4  A    between atoms: C_9  and  C_21
    5  A    between atoms: N_12  and  C_21
                            x       y       z     vdW  Elec       q    Type
                         _______ _______ _______ _____ _____    ______ ____

>  <TORSDO>
F 5

$$$$
=
 OpenBabel11052421333D

 32 36  0  0  1  0  0  0  0  0999 V2000
  190.3890  174.8400  143.1440 C   0  0  1  0  0  3  0  0  0  0  0  0
  194.6890  174.9020  145.6760 C   0  0  0  0  0  3  0  0  0  0  0  0
  194.1960  175.9080  146.5080 C   0  0  0  0  0  3  0  0  0  0  0  0
  188.8320  176.8870  143.3670 C   0  0  1  0  0  3  0  0  0  0  0  0
  187.9800  176.9150  144.5610 N   0  0  0  0  0  0  0  0  0  0  0  0
  185.9460  176.5350  143.0620 C   0  0  0  0  0  1  0  0  0  0  0  0
  193.8950  174.3960  144.6430 C   0  0  0  0  0  3  0  0  0  0  0  0
  191.7610  174.3410  143.3760 N   0  0  0  0  0  0  0  0  0  0  0  0
  192.1130  175.9210  145.2620 C   0  0  0  0  0  0  0  0  0  0  0  0
  190.7580  176.4350  145.0270 C   0  0  0  0  0  0  0  0  0  0  0  0
  185.7940  176.7450  145.4130 O   0  0  0  0  0  0  0  0  0  0  0  0
  186.5560  176.7400  144.4090 C   0  0  0  0  0  0  0  0  0  0  0  0
  192.9110  176.4150  146.3040 C   0  0  0  0  0  3  0  0  0  0  0  0
  192.6000  174.8950  144.4220 C   0  0  0  0  0  0  0  0  0  0  0  0
  190.0050  176.8790  146.0360 C   0  0  0  0  0  3  0  0  0  0  0  0
  188.9890  178.2910  142.8110 C   0  0  0  0  0  1  0  0  0  0  0  0
  187.9050  177.6710  146.8220 N   0  0  0  0  0  2  0  0  0  0  0  0
  190.2240  176.2850  143.6300 C   0  0  1  0  0  3  0  0  0  0  0  0
  188.5930  177.2020  145.8340 C   0  0  0  0  0  0  0  0  0  0  0  0
  188.9500  173.9250  141.2160 C   0  0  0  0  0  0  0  0  0  0  0  0
  188.7190  173.9260  139.9800 O   0  0  0  0  0  0  0  0  0  0  0  0
  188.0950  173.0960  142.1130 C   0  0  0  0  0  1  0  0  0  0  0  0
  190.0240  174.7250  141.7300 N   0  0  0  0  0  2  0  0  0  0  0  0
  192.1300  173.0710  142.7520 C   0  0  0  0  0  2  0  0  0  0  0  0
  191.4550  171.9180  143.4720 C   0  0  0  0  0  2  0  0  0  0  0  0
  191.8620  170.6630  142.8660 N   0  0  0  0  0  2  0  0  0  0  0  0
  190.5960  170.9840  139.7830 C   0  0  1  0  0  3  0  0  0  0  0  0
  190.8420  170.3200  141.8910 C   0  0  2  0  0  3  0  0  0  0  0  0
  190.8800  168.5570  141.5810 S   0  0  0  0  0  0  0  0  0  0  0  0
  191.4810  171.9110  138.9720 C   0  0  0  0  0  1  0  0  0  0  0  0
  190.7600  169.6150  139.3000 C   0  0  0  0  0  2  0  0  0  0  0  0
  191.4870  170.0220  140.5920 C   0  0  1  0  0  0  0  0  0  0  0  0
  1 23  1  6  0  0  0
  1  8  1  0  0  0  0
  1 18  1  0  0  0  0
  2  3  1  0  0  0  0
  4 16  1  1  0  0  0
  4 18  1  0  0  0  0
  4  5  1  0  0  0  0
  5 19  1  0  0  0  0
  6 12  1  0  0  0  0
  7  2  2  0  0  0  0
  8 14  1  0  0  0  0
  9 13  1  0  0  0  0
 10  9  1  0  0  0  0
 10 15  2  0  0  0  0
 12  5  1  0  0  0  0
 12 11  2  0  0  0  0
 13  3  2  0  0  0  0
 14  7  1  0  0  0  0
 14  9  2  0  0  0  0
 18 10  1  1  0  0  0
 19 15  1  0  0  0  0
 19 17  2  0  0  0  0
 20 23  1  0  0  0  0
 20 22  1  0  0  0  0
 21 20  2  0  0  0  0
 24  8  1  0  0  0  0
 24 25  1  0  0  0  0
 26 25  1  0  0  0  0
 27 30  1  6  0  0  0
 27 32  1  0  0  0  0
 28 26  1  1  0  0  0
 29 28  1  0  0  0  0
 31 27  1  0  0  0  0
 32 31  1  6  0  0  0
 32 29  1  0  0  0  0
 32 28  1  0  0  0  0
M  END
>  <MODEL>
8

>  <REMARK>
 VINA RESULT:      -6.6      3.393      7.673
  Name = 
  5 active torsions:
  status: ('A' for Active; 'I' for Inactive)
    1  A    between atoms: C_2  and  N_12
    2  A    between atoms: C_3  and  N_28
    3  A    between atoms: C_9  and  N_14
    4  A    between atoms: C_9  and  C_21
    5  A    between atoms: N_12  and  C_21
                            x       y       z     vdW  Elec       q    Type
                         _______ _______ _______ _____ _____    ______ ____

>  <TORSDO>
F 5

$$$$
=
 OpenBabel11052421333D

 32 36  0  0  1  0  0  0  0  0999 V2000
  190.6420  175.6470  142.6180 C   0  0  1  0  0  3  0  0  0  0  0  0
  188.3650  172.7260  139.2740 C   0  0  0  0  0  3  0  0  0  0  0  0
  189.4030  171.7970  139.3650 C   0  0  0  0  0  3  0  0  0  0  0  0
  193.1580  175.2570  143.0420 C   0  0  1  0  0  3  0  0  0  0  0  0
  193.4890  174.1640  143.9640 N   0  0  0  0  0  0  0  0  0  0  0  0
  194.2880  175.8980  145.6610 C   0  0  0  0  0  1  0  0  0  0  0  0
  188.4080  173.8990  140.0320 C   0  0  0  0  0  3  0  0  0  0  0  0
  189.5180  175.3640  141.7010 N   0  0  0  0  0  0  0  0  0  0  0  0
  190.5450  173.2250  140.9610 C   0  0  0  0  0  0  0  0  0  0  0  0
  191.6730  173.5080  141.8560 C   0  0  0  0  0  0  0  0  0  0  0  0
  194.3290  173.5700  146.0800 O   0  0  0  0  0  0  0  0  0  0  0  0
  194.0460  174.4820  145.2570 C   0  0  0  0  0  0  0  0  0  0  0  0
  190.4880  172.0430  140.2080 C   0  0  0  0  0  3  0  0  0  0  0  0
  189.4930  174.1650  140.8840 C   0  0  0  0  0  0  0  0  0  0  0  0
  192.3330  172.5200  142.4660 C   0  0  0  0  0  3  0  0  0  0  0  0
  194.3510  175.5630  142.1560 C   0  0  0  0  0  1  0  0  0  0  0  0
  193.9730  171.8290  144.0430 N   0  0  0  0  0  2  0  0  0  0  0  0
  191.9310  174.9560  142.1620 C   0  0  1  0  0  3  0  0  0  0  0  0
  193.3210  172.8060  143.5060 C   0  0  0  0  0  0  0  0  0  0  0  0
  190.9160  177.8000  144.0020 C   0  0  0  0  0  0  0  0  0  0  0  0
  191.1230  179.0400  143.9940 O   0  0  0  0  0  0  0  0  0  0  0  0
  190.7530  177.1020  145.3100 C   0  0  0  0  0  1  0  0  0  0  0  0
  190.8490  177.0910  142.7570 N   0  0  0  0  0  2  0  0  0  0  0  0
  188.2930  176.1420  141.8760 C   0  0  0  0  0  2  0  0  0  0  0  0
  187.5620  175.6960  143.1280 C   0  0  0  0  0  2  0  0  0  0  0  0
  187.3720  176.8320  144.0110 N   0  0  0  0  0  2  0  0  0  0  0  0
  184.9250  177.6600  146.1420 C   0  0  1  0  0  3  0  0  0  0  0  0
  185.9570  176.8790  144.3330 C   0  0  2  0  0  3  0  0  0  0  0  0
  185.1010  177.8810  143.1210 S   0  0  0  0  0  0  0  0  0  0  0  0
  185.5300  178.3140  147.3700 C   0  0  0  0  0  1  0  0  0  0  0  0
  184.2320  178.6710  145.3480 C   0  0  0  0  0  2  0  0  0  0  0  0
  185.6240  178.2120  144.8840 C   0  0  1  0  0  0  0  0  0  0  0  0
  1 23  1  6  0  0  0
  2  3  2  0  0  0  0
  2  7  1  0  0  0  0
  3 13  1  0  0  0  0
  4 16  1  6  0  0  0
  4  5  1  0  0  0  0
  5 12  1  0  0  0  0
  7 14  2  0  0  0  0
  8 24  1  0  0  0  0
  8  1  1  0  0  0  0
  9 10  1  0  0  0  0
 10 15  2  0  0  0  0
 12  6  1  0  0  0  0
 12 11  2  0  0  0  0
 13  9  2  0  0  0  0
 14  9  1  0  0  0  0
 14  8  1  0  0  0  0
 15 19  1  0  0  0  0
 18 10  1  1  0  0  0
 18  1  1  0  0  0  0
 18  4  1  0  0  0  0
 19  5  1  0  0  0  0
 19 17  2  0  0  0  0
 20 22  1  0  0  0  0
 21 20  2  0  0  0  0
 23 20  1  0  0  0  0
 24 25  1  0  0  0  0
 25 26  1  0  0  0  0
 27 30  1  1  0  0  0
 28 26  1  6  0  0  0
 28 32  1  0  0  0  0
 29 28  1  0  0  0  0
 29 32  1  0  0  0  0
 31 27  1  0  0  0  0
 32 31  1  1  0  0  0
 32 27  1  0  0  0  0
M  END
>  <MODEL>
9

>  <REMARK>
 VINA RESULT:      -6.5      2.154      3.244
  Name = 
  5 active torsions:
  status: ('A' for Active; 'I' for Inactive)
    1  A    between atoms: C_2  and  N_12
    2  A    between atoms: C_3  and  N_28
    3  A    between atoms: C_9  and  N_14
    4  A    between atoms: C_9  and  C_21
    5  A    between atoms: N_12  and  C_21
                            x       y       z     vdW  Elec       q    Type
                         _______ _______ _______ _____ _____    ______ ____

>  <TORSDO>
F 5

$$$$
