=
 OpenBabel11052418013D

 28 31  0  0  1  0  0  0  0  0999 V2000
  188.0910  176.1770  142.4230 C   0  0  2  0  0  3  0  0  0  0  0  0
  187.0020  177.9560  143.8280 C   0  0  2  0  0  3  0  0  0  0  0  0
  186.7480  177.6230  141.3460 C   0  0  0  0  0  2  0  0  0  0  0  0
  186.6980  178.6420  142.4890 C   0  0  0  0  0  2  0  0  0  0  0  0
  188.0140  177.0170  141.3000 O   0  0  0  0  0  0  0  0  0  0  0  0
  188.2010  177.0060  143.7140 C   0  0  2  0  0  3  0  0  0  0  0  0
  186.0480  176.6780  145.6090 O   0  0  0  0  0  1  0  0  0  0  0  0
  185.7850  177.2010  144.3440 C   0  0  0  0  0  2  0  0  0  0  0  0
  189.1870  175.3010  142.2960 O   0  0  0  0  0  0  0  0  0  0  0  0
  188.9270  174.0990  142.9990 C   0  0  2  0  0  3  0  0  0  0  0  0
  189.3290  171.7340  142.7510 N   0  0  0  0  0  0  0  0  0  0  0  0
  190.0120  173.7140  143.9730 C   0  0  0  0  0  2  0  0  0  0  0  0
  187.3590  172.6700  141.9170 O   0  0  0  0  0  1  0  0  0  0  0  0
  188.7230  172.8930  142.1010 C   0  0  1  0  0  3  0  0  0  0  0  0
  190.3770  171.2520  141.8680 C   0  0  0  0  0  1  0  0  0  0  0  0
  189.9790  172.2000  143.9760 C   0  0  0  0  0  2  0  0  0  0  0  0
  189.5140  177.7850  143.7630 C   0  0  0  0  0  2  0  0  0  0  0  0
  192.1890  176.7600  143.3730 C   0  0  0  0  0  3  0  0  0  0  0  0
  192.4570  176.4690  145.9260 C   0  0  0  0  0  0  0  0  0  0  0  0
  190.3550  177.3240  144.9140 C   0  0  1  0  0  3  0  0  0  0  0  0
  194.1620  175.6520  144.2980 C   0  0  0  0  0  0  0  0  0  0  0  0
  191.6010  176.8400  144.7270 C   0  0  0  0  0  0  0  0  0  0  0  0
  190.2370  176.7300  147.3030 C   0  0  0  0  0  3  0  0  0  0  0  0
  193.7230  175.7410  145.5550 C   0  0  0  0  0  3  0  0  0  0  0  0
  191.4930  175.4600  147.0920 S   0  0  0  0  0  0  0  0  0  0  0  0
  195.3260  175.0070  144.0420 F   0  0  0  0  0  0  0  0  0  0  0  0
  193.3860  176.2100  143.1770 C   0  0  0  0  0  3  0  0  0  0  0  0
  189.7720  177.4290  146.2670 C   0  0  0  0  0  3  0  0  0  0  0  0
  1  9  1  6  0  0  0
  1  6  1  0  0  0  0
  2  8  1  6  0  0  0
  3  4  1  0  0  0  0
  4  2  1  0  0  0  0
  5  3  1  0  0  0  0
  5  1  1  0  0  0  0
  6 17  1  6  0  0  0
  6  2  1  0  0  0  0
  8  7  1  0  0  0  0
 10  9  1  6  0  0  0
 10 12  1  0  0  0  0
 11 16  1  0  0  0  0
 12 16  1  0  0  0  0
 14 13  1  1  0  0  0
 14 11  1  0  0  0  0
 14 10  1  0  0  0  0
 15 11  1  0  0  0  0
 18 22  1  0  0  0  0
 19 25  1  0  0  0  0
 20 17  1  1  0  0  0
 20 28  1  0  0  0  0
 21 24  2  0  0  0  0
 22 20  1  0  0  0  0
 22 19  2  0  0  0  0
 24 19  1  0  0  0  0
 25 23  1  0  0  0  0
 26 21  1  0  0  0  0
 27 18  2  0  0  0  0
 27 21  1  0  0  0  0
 28 23  2  0  0  0  0
M  END
>  <MODEL>
1

>  <REMARK>
 VINA RESULT:      -6.9      0.000      0.000
  Name = 
  5 active torsions:
  status: ('A' for Active; 'I' for Inactive)
    1  A    between atoms: C_1  and  O_2
    2  A    between atoms: O_2  and  C_3
    3  A    between atoms: C_10  and  C_17
    4  A    between atoms: C_16  and  C_20
    5  A    between atoms: C_17  and  C_27
                            x       y       z     vdW  Elec       q    Type
                         _______ _______ _______ _____ _____    ______ ____

>  <TORSDO>
F 5

$$$$
=
 OpenBabel11052418013D

 28 31  0  0  1  0  0  0  0  0999 V2000
  190.7750  174.3610  143.6480 C   0  0  2  0  0  3  0  0  0  0  0  0
  191.1540  176.5340  144.8570 C   0  0  2  0  0  3  0  0  0  0  0  0
  192.1400  174.2910  145.4340 C   0  0  0  0  0  2  0  0  0  0  0  0
  191.7180  175.6570  145.9840 C   0  0  0  0  0  2  0  0  0  0  0  0
  191.0410  173.6550  144.8340 O   0  0  0  0  0  0  0  0  0  0  0  0
  190.1870  175.7470  143.9630 C   0  0  2  0  0  3  0  0  0  0  0  0
  191.7520  177.6810  142.8470 O   0  0  0  0  0  1  0  0  0  0  0  0
  192.2740  177.1320  144.0170 C   0  0  0  0  0  2  0  0  0  0  0  0
  189.9000  173.6190  142.8310 O   0  0  0  0  0  0  0  0  0  0  0  0
  189.8610  174.1820  141.5320 C   0  0  2  0  0  3  0  0  0  0  0  0
  189.8360  173.4370  139.2380 N   0  0  0  0  0  0  0  0  0  0  0  0
  188.4670  174.3910  140.9970 C   0  0  0  0  0  2  0  0  0  0  0  0
  191.8720  173.8780  140.2920 O   0  0  0  0  0  1  0  0  0  0  0  0
  190.5920  173.3610  140.4850 C   0  0  1  0  0  3  0  0  0  0  0  0
  189.4290  172.0830  138.9060 C   0  0  0  0  0  1  0  0  0  0  0  0
  188.6170  174.2000  139.5030 C   0  0  0  0  0  2  0  0  0  0  0  0
  188.8140  175.6310  144.6210 C   0  0  0  0  0  2  0  0  0  0  0  0
  186.9450  176.7330  146.5330 C   0  0  0  0  0  3  0  0  0  0  0  0
  186.3330  178.6070  144.8640 C   0  0  0  0  0  0  0  0  0  0  0  0
  187.9740  176.8300  144.2990 C   0  0  1  0  0  3  0  0  0  0  0  0
  185.1240  178.2870  147.0230 C   0  0  0  0  0  0  0  0  0  0  0  0
  187.0990  177.3380  145.1920 C   0  0  0  0  0  0  0  0  0  0  0  0
  187.2340  178.2480  142.4250 C   0  0  0  0  0  3  0  0  0  0  0  0
  185.2420  178.9210  145.8530 C   0  0  0  0  0  3  0  0  0  0  0  0
  185.6270  178.4960  143.1920 S   0  0  0  0  0  0  0  0  0  0  0  0
  184.1340  178.6440  147.8770 F   0  0  0  0  0  0  0  0  0  0  0  0
  186.0260  177.1820  147.3860 C   0  0  0  0  0  3  0  0  0  0  0  0
  188.1500  177.4450  142.9680 C   0  0  0  0  0  3  0  0  0  0  0  0
  1  9  1  6  0  0  0
  1  6  1  0  0  0  0
  1  5  1  0  0  0  0
  2  8  1  6  0  0  0
  2  4  1  0  0  0  0
  3  4  1  0  0  0  0
  5  3  1  0  0  0  0
  6 17  1  1  0  0  0
  6  2  1  0  0  0  0
  7  8  1  0  0  0  0
 10  9  1  1  0  0  0
 11 16  1  0  0  0  0
 11 14  1  0  0  0  0
 12 10  1  0  0  0  0
 14 13  1  6  0  0  0
 14 10  1  0  0  0  0
 15 11  1  0  0  0  0
 16 12  1  0  0  0  0
 18 27  1  0  0  0  0
 19 22  1  0  0  0  0
 19 24  2  0  0  0  0
 20 17  1  1  0  0  0
 20 22  1  0  0  0  0
 21 27  2  0  0  0  0
 21 26  1  0  0  0  0
 22 18  2  0  0  0  0
 23 28  2  0  0  0  0
 23 25  1  0  0  0  0
 24 21  1  0  0  0  0
 25 19  1  0  0  0  0
 28 20  1  0  0  0  0
M  END
>  <MODEL>
2

>  <REMARK>
 VINA RESULT:      -6.9      3.542      5.927
  Name = 
  5 active torsions:
  status: ('A' for Active; 'I' for Inactive)
    1  A    between atoms: C_1  and  O_2
    2  A    between atoms: O_2  and  C_3
    3  A    between atoms: C_10  and  C_17
    4  A    between atoms: C_16  and  C_20
    5  A    between atoms: C_17  and  C_27
                            x       y       z     vdW  Elec       q    Type
                         _______ _______ _______ _____ _____    ______ ____

>  <TORSDO>
F 5

$$$$
=
 OpenBabel11052418013D

 28 31  0  0  1  0  0  0  0  0999 V2000
  191.1430  174.8490  145.2020 C   0  0  2  0  0  3  0  0  0  0  0  0
  192.7880  176.6970  144.7420 C   0  0  2  0  0  3  0  0  0  0  0  0
  192.9690  174.9170  146.5130 C   0  0  0  0  0  2  0  0  0  0  0  0
  193.3700  176.3410  146.1180 C   0  0  0  0  0  2  0  0  0  0  0  0
  191.5690  174.8040  146.5400 O   0  0  0  0  0  0  0  0  0  0  0  0
  191.3200  176.2650  144.6250 C   0  0  2  0  0  3  0  0  0  0  0  0
  193.0670  176.4160  142.3850 O   0  0  0  0  0  1  0  0  0  0  0  0
  193.6080  176.0710  143.6230 C   0  0  0  0  0  2  0  0  0  0  0  0
  189.8000  174.4350  145.1080 O   0  0  0  0  0  0  0  0  0  0  0  0
  189.6910  173.3580  144.1940 C   0  0  2  0  0  3  0  0  0  0  0  0
  190.2880  172.8550  141.9120 N   0  0  0  0  0  0  0  0  0  0  0  0
  190.8620  172.4090  144.2240 C   0  0  0  0  0  2  0  0  0  0  0  0
  188.1960  173.7780  142.3880 O   0  0  0  0  0  1  0  0  0  0  0  0
  189.5430  173.7930  142.7470 C   0  0  1  0  0  3  0  0  0  0  0  0
  191.3200  173.6200  141.2330 C   0  0  0  0  0  1  0  0  0  0  0  0
  190.9650  171.9100  142.7990 C   0  0  0  0  0  2  0  0  0  0  0  0
  190.4040  177.2670  145.3230 C   0  0  0  0  0  2  0  0  0  0  0  0
  187.7190  177.2640  146.3970 C   0  0  0  0  0  3  0  0  0  0  0  0
  186.7900  177.9730  144.0940 C   0  0  0  0  0  0  0  0  0  0  0  0
  189.2130  177.5740  144.4670 C   0  0  1  0  0  3  0  0  0  0  0  0
  185.3080  177.3670  146.0080 C   0  0  0  0  0  0  0  0  0  0  0  0
  187.9610  177.5660  144.9700 C   0  0  0  0  0  0  0  0  0  0  0  0
  188.5110  177.8210  142.1170 C   0  0  0  0  0  3  0  0  0  0  0  0
  185.4480  177.7000  144.7230 C   0  0  0  0  0  3  0  0  0  0  0  0
  186.8910  177.1310  142.4850 S   0  0  0  0  0  0  0  0  0  0  0  0
  184.0670  177.1660  146.5130 F   0  0  0  0  0  0  0  0  0  0  0  0
  186.4800  177.1780  146.8790 C   0  0  0  0  0  3  0  0  0  0  0  0
  189.4630  177.9000  143.0480 C   0  0  0  0  0  3  0  0  0  0  0  0
  1  9  1  1  0  0  0
  1  5  1  0  0  0  0
  2  8  1  6  0  0  0
  2  4  1  0  0  0  0
  3  5  1  0  0  0  0
  4  3  1  0  0  0  0
  6  2  1  0  0  0  0
  6  1  1  0  0  0  0
  6 17  1  1  0  0  0
  7  8  1  0  0  0  0
 10 12  1  0  0  0  0
 10  9  1  1  0  0  0
 11 14  1  0  0  0  0
 11 16  1  0  0  0  0
 14 13  1  6  0  0  0
 14 10  1  0  0  0  0
 15 11  1  0  0  0  0
 16 12  1  0  0  0  0
 18 27  1  0  0  0  0
 19 24  2  0  0  0  0
 19 22  1  0  0  0  0
 20 22  1  0  0  0  0
 20 17  1  1  0  0  0
 21 26  1  0  0  0  0
 21 27  2  0  0  0  0
 22 18  2  0  0  0  0
 23 25  1  0  0  0  0
 23 28  2  0  0  0  0
 24 21  1  0  0  0  0
 25 19  1  0  0  0  0
 28 20  1  0  0  0  0
M  END
>  <MODEL>
3

>  <REMARK>
 VINA RESULT:      -6.9      3.148      5.762
  Name = 
  5 active torsions:
  status: ('A' for Active; 'I' for Inactive)
    1  A    between atoms: C_1  and  O_2
    2  A    between atoms: O_2  and  C_3
    3  A    between atoms: C_10  and  C_17
    4  A    between atoms: C_16  and  C_20
    5  A    between atoms: C_17  and  C_27
                            x       y       z     vdW  Elec       q    Type
                         _______ _______ _______ _____ _____    ______ ____

>  <TORSDO>
F 5

$$$$
=
 OpenBabel11052418013D

 28 31  0  0  1  0  0  0  0  0999 V2000
  191.6620  176.0980  143.8030 C   0  0  2  0  0  3  0  0  0  0  0  0
  189.4560  174.9410  143.4520 C   0  0  2  0  0  3  0  0  0  0  0  0
  191.5000  174.7730  141.9930 C   0  0  0  0  0  2  0  0  0  0  0  0
  189.9720  174.6730  142.0310 C   0  0  0  0  0  2  0  0  0  0  0  0
  191.9070  176.0480  142.4200 O   0  0  0  0  0  0  0  0  0  0  0  0
  190.1500  176.1550  144.0830 C   0  0  2  0  0  3  0  0  0  0  0  0
  189.5750  174.0870  145.6820 O   0  0  0  0  0  1  0  0  0  0  0  0
  189.6370  173.7170  144.3390 C   0  0  0  0  0  2  0  0  0  0  0  0
  192.3180  177.2080  144.3690 O   0  0  0  0  0  0  0  0  0  0  0  0
  193.2960  176.7690  145.2940 C   0  0  2  0  0  3  0  0  0  0  0  0
  194.1630  174.6910  146.1610 N   0  0  0  0  0  0  0  0  0  0  0  0
  194.6590  176.5510  144.6860 C   0  0  0  0  0  2  0  0  0  0  0  0
  192.3870  175.7500  147.2450 O   0  0  0  0  0  1  0  0  0  0  0  0
  192.9390  175.4710  145.9960 C   0  0  1  0  0  3  0  0  0  0  0  0
  193.9770  173.4510  145.4280 C   0  0  0  0  0  1  0  0  0  0  0  0
  195.2470  175.4210  145.5030 C   0  0  0  0  0  2  0  0  0  0  0  0
  189.5390  177.4560  143.5660 C   0  0  0  0  0  2  0  0  0  0  0  0
  187.4240  177.7010  141.6100 C   0  0  0  0  0  3  0  0  0  0  0  0
  185.6640  177.6820  143.5000 C   0  0  0  0  0  0  0  0  0  0  0  0
  188.1000  177.5560  143.9710 C   0  0  1  0  0  3  0  0  0  0  0  0
  185.0660  178.1120  141.1160 C   0  0  0  0  0  0  0  0  0  0  0  0
  187.1160  177.6770  143.0550 C   0  0  0  0  0  0  0  0  0  0  0  0
  186.6440  177.9520  145.9200 C   0  0  0  0  0  3  0  0  0  0  0  0
  184.7020  178.0460  142.3990 C   0  0  0  0  0  3  0  0  0  0  0  0
  185.4440  178.8210  144.9010 S   0  0  0  0  0  0  0  0  0  0  0  0
  184.1390  178.4150  140.1750 F   0  0  0  0  0  0  0  0  0  0  0  0
  186.4640  177.8980  140.7080 C   0  0  0  0  0  3  0  0  0  0  0  0
  187.7960  177.5070  145.4160 C   0  0  0  0  0  3  0  0  0  0  0  0
  1  6  1  0  0  0  0
  1  9  1  6  0  0  0
  2  6  1  0  0  0  0
  2  8  1  1  0  0  0
  3  4  1  0  0  0  0
  3  5  1  0  0  0  0
  4  2  1  0  0  0  0
  5  1  1  0  0  0  0
  6 17  1  6  0  0  0
  8  7  1  0  0  0  0
 10  9  1  6  0  0  0
 10 14  1  0  0  0  0
 12 10  1  0  0  0  0
 12 16  1  0  0  0  0
 14 11  1  0  0  0  0
 14 13  1  1  0  0  0
 15 11  1  0  0  0  0
 16 11  1  0  0  0  0
 18 22  1  0  0  0  0
 19 25  1  0  0  0  0
 20 17  1  6  0  0  0
 20 28  1  0  0  0  0
 21 24  2  0  0  0  0
 22 19  2  0  0  0  0
 22 20  1  0  0  0  0
 24 19  1  0  0  0  0
 25 23  1  0  0  0  0
 26 21  1  0  0  0  0
 27 21  1  0  0  0  0
 27 18  2  0  0  0  0
 28 23  2  0  0  0  0
M  END
>  <MODEL>
4

>  <REMARK>
 VINA RESULT:      -6.7      3.624      6.096
  Name = 
  5 active torsions:
  status: ('A' for Active; 'I' for Inactive)
    1  A    between atoms: C_1  and  O_2
    2  A    between atoms: O_2  and  C_3
    3  A    between atoms: C_10  and  C_17
    4  A    between atoms: C_16  and  C_20
    5  A    between atoms: C_17  and  C_27
                            x       y       z     vdW  Elec       q    Type
                         _______ _______ _______ _____ _____    ______ ____

>  <TORSDO>
F 5

$$$$
=
 OpenBabel11052418013D

 28 31  0  0  1  0  0  0  0  0999 V2000
  187.4330  175.8140  142.3310 C   0  0  2  0  0  3  0  0  0  0  0  0
  186.2980  178.0320  142.6820 C   0  0  2  0  0  3  0  0  0  0  0  0
  186.9990  177.0230  140.4850 C   0  0  0  0  0  2  0  0  0  0  0  0
  186.7230  178.3280  141.2370 C   0  0  0  0  0  2  0  0  0  0  0  0
  188.0060  176.2960  141.1420 O   0  0  0  0  0  0  0  0  0  0  0  0
  187.1950  176.9650  143.3240 C   0  0  2  0  0  3  0  0  0  0  0  0
  184.0770  178.3510  141.8570 O   0  0  0  0  0  1  0  0  0  0  0  0
  184.8410  177.5950  142.7450 C   0  0  0  0  0  2  0  0  0  0  0  0
  188.2600  174.8250  142.8990 O   0  0  0  0  0  0  0  0  0  0  0  0
  189.0470  174.2190  141.8910 C   0  0  2  0  0  3  0  0  0  0  0  0
  190.8850  172.6660  141.7190 N   0  0  0  0  0  0  0  0  0  0  0  0
  188.4960  172.9080  141.3890 C   0  0  0  0  0  2  0  0  0  0  0  0
  191.3120  174.9570  141.8630 O   0  0  0  0  0  1  0  0  0  0  0  0
  190.4770  173.9350  142.3140 C   0  0  1  0  0  3  0  0  0  0  0  0
  191.1940  171.7640  142.8150 C   0  0  0  0  0  1  0  0  0  0  0  0
  189.7270  172.1110  141.0180 C   0  0  0  0  0  2  0  0  0  0  0  0
  188.5150  177.5780  143.7890 C   0  0  0  0  0  2  0  0  0  0  0  0
  191.2880  177.2030  144.5150 C   0  0  0  0  0  3  0  0  0  0  0  0
  190.5710  176.3600  146.8490 C   0  0  0  0  0  0  0  0  0  0  0  0
  188.9110  177.0200  145.1220 C   0  0  1  0  0  3  0  0  0  0  0  0
  192.9410  176.3000  146.0730 C   0  0  0  0  0  0  0  0  0  0  0  0
  190.2060  176.8410  145.4550 C   0  0  0  0  0  0  0  0  0  0  0  0
  188.0060  175.8550  147.0970 C   0  0  0  0  0  3  0  0  0  0  0  0
  192.0250  175.9970  146.9960 C   0  0  0  0  0  3  0  0  0  0  0  0
  189.5370  174.9360  147.3080 S   0  0  0  0  0  0  0  0  0  0  0  0
  194.2370  175.9690  146.2870 F   0  0  0  0  0  0  0  0  0  0  0  0
  192.5630  176.9540  144.8090 C   0  0  0  0  0  3  0  0  0  0  0  0
  187.8260  176.6830  146.0670 C   0  0  0  0  0  3  0  0  0  0  0  0
  1  9  1  1  0  0  0
  1  6  1  0  0  0  0
  2  8  1  6  0  0  0
  2  6  1  0  0  0  0
  3  5  1  0  0  0  0
  3  4  1  0  0  0  0
  4  2  1  0  0  0  0
  5  1  1  0  0  0  0
  6 17  1  6  0  0  0
  7  8  1  0  0  0  0
 10 14  1  0  0  0  0
 10  9  1  1  0  0  0
 11 14  1  0  0  0  0
 11 15  1  0  0  0  0
 12 10  1  0  0  0  0
 14 13  1  6  0  0  0
 16 12  1  0  0  0  0
 16 11  1  0  0  0  0
 18 27  2  0  0  0  0
 18 22  1  0  0  0  0
 19 24  1  0  0  0  0
 19 25  1  0  0  0  0
 20 17  1  1  0  0  0
 20 22  1  0  0  0  0
 20 28  1  0  0  0  0
 21 26  1  0  0  0  0
 21 24  2  0  0  0  0
 22 19  2  0  0  0  0
 23 25  1  0  0  0  0
 27 21  1  0  0  0  0
 28 23  2  0  0  0  0
M  END
>  <MODEL>
5

>  <REMARK>
 VINA RESULT:      -6.5      1.614      2.168
  Name = 
  5 active torsions:
  status: ('A' for Active; 'I' for Inactive)
    1  A    between atoms: C_1  and  O_2
    2  A    between atoms: O_2  and  C_3
    3  A    between atoms: C_10  and  C_17
    4  A    between atoms: C_16  and  C_20
    5  A    between atoms: C_17  and  C_27
                            x       y       z     vdW  Elec       q    Type
                         _______ _______ _______ _____ _____    ______ ____

>  <TORSDO>
F 5

$$$$
=
 OpenBabel11052418013D

 28 31  0  0  1  0  0  0  0  0999 V2000
  191.1100  174.6600  142.9420 C   0  0  2  0  0  3  0  0  0  0  0  0
  188.9760  173.3330  142.8130 C   0  0  2  0  0  3  0  0  0  0  0  0
  190.7410  173.5350  141.0300 C   0  0  0  0  0  2  0  0  0  0  0  0
  189.2560  173.2780  141.3050 C   0  0  0  0  0  2  0  0  0  0  0  0
  191.1130  174.7890  141.5420 O   0  0  0  0  0  0  0  0  0  0  0  0
  189.6700  174.5340  143.4700 C   0  0  2  0  0  3  0  0  0  0  0  0
  189.6570  172.2790  144.8470 O   0  0  0  0  0  1  0  0  0  0  0  0
  189.4060  172.0430  143.4960 C   0  0  0  0  0  2  0  0  0  0  0  0
  191.7640  175.7600  143.5290 O   0  0  0  0  0  0  0  0  0  0  0  0
  192.7970  175.3060  144.3840 C   0  0  2  0  0  3  0  0  0  0  0  0
  194.7320  176.1950  145.5170 N   0  0  0  0  0  0  0  0  0  0  0  0
  192.4650  175.4040  145.8520 C   0  0  0  0  0  2  0  0  0  0  0  0
  194.9530  175.3020  143.3710 O   0  0  0  0  0  1  0  0  0  0  0  0
  194.1130  176.0410  144.2030 C   0  0  1  0  0  3  0  0  0  0  0  0
  194.8510  177.6220  145.7630 C   0  0  0  0  0  1  0  0  0  0  0  0
  193.8020  175.6640  146.5130 C   0  0  0  0  0  2  0  0  0  0  0  0
  188.8760  175.8160  143.2290 C   0  0  0  0  0  2  0  0  0  0  0  0
  186.3300  177.1630  142.9840 C   0  0  0  0  0  3  0  0  0  0  0  0
  186.0030  177.0250  145.5430 C   0  0  0  0  0  0  0  0  0  0  0  0
  188.0450  176.1510  144.4300 C   0  0  1  0  0  3  0  0  0  0  0  0
  184.4430  178.2860  144.0580 C   0  0  0  0  0  0  0  0  0  0  0  0
  186.8590  176.7850  144.3120 C   0  0  0  0  0  0  0  0  0  0  0  0
  188.1370  176.3000  146.8880 C   0  0  0  0  0  3  0  0  0  0  0  0
  184.8280  177.9330  145.2870 C   0  0  0  0  0  3  0  0  0  0  0  0
  187.0190  177.7080  146.8870 S   0  0  0  0  0  0  0  0  0  0  0  0
  183.3580  179.0820  143.9030 F   0  0  0  0  0  0  0  0  0  0  0  0
  185.2000  177.8580  142.8700 C   0  0  0  0  0  3  0  0  0  0  0  0
  188.5670  175.7500  145.7520 C   0  0  0  0  0  3  0  0  0  0  0  0
  1  6  1  0  0  0  0
  1  9  1  1  0  0  0
  2  6  1  0  0  0  0
  2  8  1  1  0  0  0
  3  4  1  0  0  0  0
  3  5  1  0  0  0  0
  4  2  1  0  0  0  0
  5  1  1  0  0  0  0
  6 17  1  6  0  0  0
  8  7  1  0  0  0  0
 10  9  1  6  0  0  0
 10 12  1  0  0  0  0
 11 15  1  0  0  0  0
 11 16  1  0  0  0  0
 12 16  1  0  0  0  0
 14 13  1  6  0  0  0
 14 10  1  0  0  0  0
 14 11  1  0  0  0  0
 18 22  1  0  0  0  0
 19 25  1  0  0  0  0
 20 17  1  6  0  0  0
 20 28  1  0  0  0  0
 21 24  2  0  0  0  0
 22 20  1  0  0  0  0
 22 19  2  0  0  0  0
 24 19  1  0  0  0  0
 25 23  1  0  0  0  0
 26 21  1  0  0  0  0
 27 18  2  0  0  0  0
 27 21  1  0  0  0  0
 28 23  2  0  0  0  0
M  END
>  <MODEL>
6

>  <REMARK>
 VINA RESULT:      -6.5      3.574      6.208
  Name = 
  5 active torsions:
  status: ('A' for Active; 'I' for Inactive)
    1  A    between atoms: C_1  and  O_2
    2  A    between atoms: O_2  and  C_3
    3  A    between atoms: C_10  and  C_17
    4  A    between atoms: C_16  and  C_20
    5  A    between atoms: C_17  and  C_27
                            x       y       z     vdW  Elec       q    Type
                         _______ _______ _______ _____ _____    ______ ____

>  <TORSDO>
F 5

$$$$
=
 OpenBabel11052418013D

 28 31  0  0  1  0  0  0  0  0999 V2000
  189.8740  175.1090  146.1870 C   0  0  2  0  0  3  0  0  0  0  0  0
  189.5020  177.5850  145.9410 C   0  0  2  0  0  3  0  0  0  0  0  0
  190.8450  176.4280  147.7280 C   0  0  0  0  0  2  0  0  0  0  0  0
  190.0220  177.6720  147.3830 C   0  0  0  0  0  2  0  0  0  0  0  0
  190.0580  175.2750  147.5700 O   0  0  0  0  0  0  0  0  0  0  0  0
  188.9340  176.1930  145.6320 C   0  0  2  0  0  3  0  0  0  0  0  0
  190.1150  177.8040  143.6410 O   0  0  0  0  0  1  0  0  0  0  0  0
  190.5960  177.9350  144.9430 C   0  0  0  0  0  2  0  0  0  0  0  0
  189.3680  173.8220  145.9190 O   0  0  0  0  0  0  0  0  0  0  0  0
  190.1910  173.1690  144.9690 C   0  0  2  0  0  3  0  0  0  0  0  0
  190.7300  173.3360  142.6240 N   0  0  0  0  0  0  0  0  0  0  0  0
  191.5770  173.7520  144.8570 C   0  0  0  0  0  2  0  0  0  0  0  0
  188.9770  171.9570  143.3160 O   0  0  0  0  0  1  0  0  0  0  0  0
  189.6230  173.1680  143.5610 C   0  0  1  0  0  3  0  0  0  0  0  0
  190.4860  174.5700  141.8970 C   0  0  0  0  0  1  0  0  0  0  0  0
  191.9500  173.5330  143.4070 C   0  0  0  0  0  2  0  0  0  0  0  0
  187.5230  176.0470  146.1990 C   0  0  0  0  0  2  0  0  0  0  0  0
  187.1590  176.0840  143.3310 C   0  0  0  0  0  3  0  0  0  0  0  0
  185.4040  177.9640  143.5710 C   0  0  0  0  0  0  0  0  0  0  0  0
  186.5890  177.0140  145.5370 C   0  0  1  0  0  3  0  0  0  0  0  0
  186.2310  177.1800  141.3520 C   0  0  0  0  0  0  0  0  0  0  0  0
  186.4270  177.0330  144.1970 C   0  0  0  0  0  0  0  0  0  0  0  0
  185.2900  179.0670  145.9510 C   0  0  0  0  0  3  0  0  0  0  0  0
  185.4960  178.0330  142.0690 C   0  0  0  0  0  3  0  0  0  0  0  0
  185.5720  179.6360  144.2690 S   0  0  0  0  0  0  0  0  0  0  0  0
  186.2420  177.2820  140.0010 F   0  0  0  0  0  0  0  0  0  0  0  0
  187.0600  176.1530  142.0040 C   0  0  0  0  0  3  0  0  0  0  0  0
  185.8420  177.9430  146.4100 C   0  0  0  0  0  3  0  0  0  0  0  0
  1  9  1  1  0  0  0
  1  5  1  0  0  0  0
  2  8  1  6  0  0  0
  2  4  1  0  0  0  0
  4  3  1  0  0  0  0
  5  3  1  0  0  0  0
  6  2  1  0  0  0  0
  6  1  1  0  0  0  0
  6 17  1  1  0  0  0
  7  8  1  0  0  0  0
 10  9  1  1  0  0  0
 11 16  1  0  0  0  0
 11 14  1  0  0  0  0
 12 10  1  0  0  0  0
 14 13  1  6  0  0  0
 14 10  1  0  0  0  0
 15 11  1  0  0  0  0
 16 12  1  0  0  0  0
 18 22  1  0  0  0  0
 19 22  2  0  0  0  0
 19 25  1  0  0  0  0
 20 17  1  1  0  0  0
 20 28  1  0  0  0  0
 21 27  1  0  0  0  0
 21 24  2  0  0  0  0
 22 20  1  0  0  0  0
 23 28  2  0  0  0  0
 24 19  1  0  0  0  0
 25 23  1  0  0  0  0
 26 21  1  0  0  0  0
 27 18  2  0  0  0  0
M  END
>  <MODEL>
7

>  <REMARK>
 VINA RESULT:      -6.5      3.167      5.432
  Name = 
  5 active torsions:
  status: ('A' for Active; 'I' for Inactive)
    1  A    between atoms: C_1  and  O_2
    2  A    between atoms: O_2  and  C_3
    3  A    between atoms: C_10  and  C_17
    4  A    between atoms: C_16  and  C_20
    5  A    between atoms: C_17  and  C_27
                            x       y       z     vdW  Elec       q    Type
                         _______ _______ _______ _____ _____    ______ ____

>  <TORSDO>
F 5

$$$$
=
 OpenBabel11052418013D

 28 31  0  0  1  0  0  0  0  0999 V2000
  187.7820  176.2960  141.8540 C   0  0  2  0  0  3  0  0  0  0  0  0
  187.0200  177.7900  143.7290 C   0  0  2  0  0  3  0  0  0  0  0  0
  186.2080  177.8190  141.3470 C   0  0  0  0  0  2  0  0  0  0  0  0
  186.4080  178.6520  142.6160 C   0  0  0  0  0  2  0  0  0  0  0  0
  187.4380  177.2900  140.9220 O   0  0  0  0  0  0  0  0  0  0  0  0
  188.1740  176.9270  143.2010 C   0  0  2  0  0  3  0  0  0  0  0  0
  184.9570  177.6970  144.9330 O   0  0  0  0  0  1  0  0  0  0  0  0
  185.9650  176.9070  144.3800 C   0  0  0  0  0  2  0  0  0  0  0  0
  188.8310  175.5030  141.3480 O   0  0  0  0  0  0  0  0  0  0  0  0
  188.5520  174.1330  141.5740 C   0  0  2  0  0  3  0  0  0  0  0  0
  189.5570  171.9850  141.1350 N   0  0  0  0  0  0  0  0  0  0  0  0
  189.0940  173.6050  142.8790 C   0  0  0  0  0  2  0  0  0  0  0  0
  188.0710  172.9090  139.5890 O   0  0  0  0  0  1  0  0  0  0  0  0
  189.0870  173.2110  140.4950 C   0  0  1  0  0  3  0  0  0  0  0  0
  190.9790  171.8790  140.8550 C   0  0  0  0  0  1  0  0  0  0  0  0
  189.4150  172.1560  142.5810 C   0  0  0  0  0  2  0  0  0  0  0  0
  189.4530  177.7540  143.0750 C   0  0  0  0  0  2  0  0  0  0  0  0
  189.7870  177.4800  145.9330 C   0  0  0  0  0  3  0  0  0  0  0  0
  191.9110  176.0580  145.5560 C   0  0  0  0  0  0  0  0  0  0  0  0
  190.6150  177.0140  143.6640 C   0  0  1  0  0  3  0  0  0  0  0  0
  191.1830  176.8040  147.8230 C   0  0  0  0  0  0  0  0  0  0  0  0
  190.7710  176.8930  144.9990 C   0  0  0  0  0  0  0  0  0  0  0  0
  192.8170  176.0650  143.0920 C   0  0  0  0  0  3  0  0  0  0  0  0
  192.0850  176.2020  147.0450 C   0  0  0  0  0  3  0  0  0  0  0  0
  193.4660  176.4850  144.7160 S   0  0  0  0  0  0  0  0  0  0  0  0
  191.3920  176.8690  149.1600 F   0  0  0  0  0  0  0  0  0  0  0  0
  189.9800  177.4310  147.2500 C   0  0  0  0  0  3  0  0  0  0  0  0
  191.5820  176.4090  142.7250 C   0  0  0  0  0  3  0  0  0  0  0  0
  1  9  1  6  0  0  0
  1  6  1  0  0  0  0
  2  8  1  6  0  0  0
  3  4  1  0  0  0  0
  4  2  1  0  0  0  0
  5  3  1  0  0  0  0
  5  1  1  0  0  0  0
  6 17  1  6  0  0  0
  6  2  1  0  0  0  0
  8  7  1  0  0  0  0
 10  9  1  6  0  0  0
 10 12  1  0  0  0  0
 11 16  1  0  0  0  0
 14 13  1  6  0  0  0
 14 11  1  0  0  0  0
 14 10  1  0  0  0  0
 15 11  1  0  0  0  0
 16 12  1  0  0  0  0
 18 27  1  0  0  0  0
 19 24  2  0  0  0  0
 20 17  1  6  0  0  0
 20 22  1  0  0  0  0
 21 26  1  0  0  0  0
 22 19  1  0  0  0  0
 22 18  2  0  0  0  0
 23 25  1  0  0  0  0
 24 21  1  0  0  0  0
 25 19  1  0  0  0  0
 27 21  2  0  0  0  0
 28 23  2  0  0  0  0
 28 20  1  0  0  0  0
M  END
>  <MODEL>
8

>  <REMARK>
 VINA RESULT:      -6.3      1.779      2.650
  Name = 
  5 active torsions:
  status: ('A' for Active; 'I' for Inactive)
    1  A    between atoms: C_1  and  O_2
    2  A    between atoms: O_2  and  C_3
    3  A    between atoms: C_10  and  C_17
    4  A    between atoms: C_16  and  C_20
    5  A    between atoms: C_17  and  C_27
                            x       y       z     vdW  Elec       q    Type
                         _______ _______ _______ _____ _____    ______ ____

>  <TORSDO>
F 5

$$$$
=
 OpenBabel11052418013D

 28 31  0  0  1  0  0  0  0  0999 V2000
  190.4790  174.6010  144.9930 C   0  0  2  0  0  3  0  0  0  0  0  0
  190.0500  177.0760  144.8580 C   0  0  2  0  0  3  0  0  0  0  0  0
  190.6050  175.7490  146.9230 C   0  0  0  0  0  2  0  0  0  0  0  0
  189.9070  177.0020  146.3840 C   0  0  0  0  0  2  0  0  0  0  0  0
  190.0520  174.6010  146.3320 O   0  0  0  0  0  0  0  0  0  0  0  0
  189.7770  175.7170  144.2000 C   0  0  2  0  0  3  0  0  0  0  0  0
  191.4330  177.9640  143.1210 O   0  0  0  0  0  1  0  0  0  0  0  0
  191.4310  177.5800  144.4620 C   0  0  0  0  0  2  0  0  0  0  0  0
  190.2370  173.3430  144.4090 O   0  0  0  0  0  0  0  0  0  0  0  0
  191.4210  172.8570  143.8030 C   0  0  2  0  0  3  0  0  0  0  0  0
  193.2050  173.6770  142.4020 N   0  0  0  0  0  0  0  0  0  0  0  0
  192.6510  173.0000  144.6630 C   0  0  0  0  0  2  0  0  0  0  0  0
  191.3050  172.7320  141.4270 O   0  0  0  0  0  1  0  0  0  0  0  0
  191.7540  173.5260  142.4820 C   0  0  1  0  0  3  0  0  0  0  0  0
  193.4770  175.1020  142.3130 C   0  0  0  0  0  1  0  0  0  0  0  0
  193.7710  173.2100  143.6670 C   0  0  0  0  0  2  0  0  0  0  0  0
  188.2750  175.4600  144.0940 C   0  0  0  0  0  2  0  0  0  0  0  0
  186.1680  176.8430  145.5100 C   0  0  0  0  0  3  0  0  0  0  0  0
  185.9760  178.5460  143.5780 C   0  0  0  0  0  0  0  0  0  0  0  0
  187.5800  176.6500  143.5040 C   0  0  1  0  0  3  0  0  0  0  0  0
  184.3870  178.5170  145.5000 C   0  0  0  0  0  0  0  0  0  0  0  0
  186.5930  177.2890  144.1660 C   0  0  0  0  0  0  0  0  0  0  0  0
  187.2710  177.8820  141.3920 C   0  0  0  0  0  3  0  0  0  0  0  0
  184.7480  179.0120  144.3140 C   0  0  0  0  0  3  0  0  0  0  0  0
  185.5720  178.2800  141.8240 S   0  0  0  0  0  0  0  0  0  0  0  0
  183.2860  179.0060  146.1190 F   0  0  0  0  0  0  0  0  0  0  0  0
  185.1420  177.4220  146.1320 C   0  0  0  0  0  3  0  0  0  0  0  0
  188.0260  177.1060  142.1720 C   0  0  0  0  0  3  0  0  0  0  0  0
  1  9  1  6  0  0  0
  1  5  1  0  0  0  0
  2  8  1  1  0  0  0
  2  4  1  0  0  0  0
  4  3  1  0  0  0  0
  5  3  1  0  0  0  0
  6 17  1  1  0  0  0
  6  2  1  0  0  0  0
  6  1  1  0  0  0  0
  7  8  1  0  0  0  0
 10  9  1  1  0  0  0
 10 12  1  0  0  0  0
 11 14  1  0  0  0  0
 11 16  1  0  0  0  0
 14 13  1  6  0  0  0
 14 10  1  0  0  0  0
 15 11  1  0  0  0  0
 16 12  1  0  0  0  0
 18 27  1  0  0  0  0
 19 22  1  0  0  0  0
 19 24  2  0  0  0  0
 20 17  1  1  0  0  0
 20 22  1  0  0  0  0
 21 26  1  0  0  0  0
 21 27  2  0  0  0  0
 22 18  2  0  0  0  0
 23 25  1  0  0  0  0
 23 28  2  0  0  0  0
 24 21  1  0  0  0  0
 25 19  1  0  0  0  0
 28 20  1  0  0  0  0
M  END
>  <MODEL>
9

>  <REMARK>
 VINA RESULT:      -6.3      3.651      6.080
  Name = 
  5 active torsions:
  status: ('A' for Active; 'I' for Inactive)
    1  A    between atoms: C_1  and  O_2
    2  A    between atoms: O_2  and  C_3
    3  A    between atoms: C_10  and  C_17
    4  A    between atoms: C_16  and  C_20
    5  A    between atoms: C_17  and  C_27
                            x       y       z     vdW  Elec       q    Type
                         _______ _______ _______ _____ _____    ______ ____

>  <TORSDO>
F 5

$$$$
