=
 OpenBabel11052419373D

 55 59  0  0  1  0  0  0  0  0999 V2000
  191.2190  175.0330  142.7470 C   0  0  0  0  0  3  0  0  0  0  0  0
  189.4020  173.6960  141.0930 C   0  0  0  0  0  0  0  0  0  0  0  0
  189.1620  175.0210  141.4680 C   0  0  0  0  0  3  0  0  0  0  0  0
  191.4570  173.7060  142.3780 C   0  0  0  0  0  3  0  0  0  0  0  0
  190.0670  175.6890  142.2980 C   0  0  0  0  0  0  0  0  0  0  0  0
  190.5480  173.0380  141.5520 C   0  0  0  0  0  3  0  0  0  0  0  0
  188.4350  172.9950  140.2040 C   0  0  0  0  0  2  0  0  0  0  0  0
  189.1680  172.2550  139.0990 C   0  0  0  0  0  2  0  0  0  0  0  0
  190.1020  173.2110  138.3830 C   0  0  0  0  0  2  0  0  0  0  0  0
  191.4240  172.5180  138.0970 C   0  0  0  0  0  2  0  0  0  0  0  0
  192.4910  174.4320  139.1040 O   0  0  0  0  0  0  0  0  0  0  0  0
  192.5470  173.5360  138.0200 C   0  0  1  0  0  0  0  0  0  0  0  0
  193.5510  173.5000  139.1190 C   0  0  1  0  0  3  0  0  0  0  0  0
  196.2490  172.2830  138.8590 C   0  0  2  0  0  3  0  0  0  0  0  0
  194.6140  175.8470  140.6760 C   0  0  0  0  0  1  0  0  0  0  0  0
  194.8770  174.2070  138.7850 C   0  0  1  0  0  3  0  0  0  0  0  0
  197.9390  172.1380  142.2860 C   0  0  0  0  0  3  0  0  0  0  0  0
  196.6520  175.5970  139.5200 F   0  0  0  0  0  0  0  0  0  0  0  0
  195.5630  174.8770  139.9880 C   0  0  1  0  0  0  0  0  0  0  0  0
  195.3240  171.2380  138.8820 O   0  0  0  0  0  1  0  0  0  0  0  0
  197.6370  173.3120  142.8480 C   0  0  0  0  0  3  0  0  0  0  0  0
  196.9680  174.3950  142.0510 C   0  0  0  0  0  2  0  0  0  0  0  0
  196.6890  172.6510  140.2500 C   0  0  0  0  0  0  0  0  0  0  0  0
  196.0350  173.8060  140.9770 C   0  0  2  0  0  3  0  0  0  0  0  0
  197.5370  171.8460  140.8990 C   0  0  0  0  0  3  0  0  0  0  0  0
  195.7760  173.3700  138.0730 O   0  0  0  0  0  0  0  0  0  0  0  0
  193.1460  173.6090  135.6990 O   0  0  0  0  0  0  0  0  0  0  0  0
  192.8040  174.2530  136.7260 C   0  0  0  0  0  0  0  0  0  0  0  0
  192.7120  175.6380  136.6710 O   0  0  0  0  0  1  0  0  0  0  0  0
  189.8310  177.1120  142.6550 C   0  0  0  0  0  2  0  0  0  0  0  0
  190.2080  177.3360  144.0410 N   0  0  0  0  0  2  0  0  0  0  0  0
  189.0760  177.9680  144.6860 C   0  0  0  0  0  2  0  0  0  0  0  0
  187.9300  176.9760  144.7820 C   0  0  0  0  0  2  0  0  0  0  0  0
  187.7980  176.3440  146.1820 C   0  0  2  0  0  3  0  0  0  0  0  0
  186.7580  178.0250  147.5840 C   0  0  0  0  0  2  0  0  0  0  0  0
  184.6120  178.0090  146.4830 C   0  0  1  0  0  3  0  0  0  0  0  0
  186.5890  176.7300  146.9260 N   0  0  0  0  0  0  0  0  0  0  0  0
  185.4630  176.8580  146.0060 C   0  0  0  0  0  2  0  0  0  0  0  0
  185.4860  178.8230  147.4060 C   0  0  0  0  0  2  0  0  0  0  0  0
  184.0470  178.8440  145.3310 C   0  0  0  0  0  2  0  0  0  0  0  0
  185.2520  179.0690  143.1560 C   0  0  0  0  0  1  0  0  0  0  0  0
  185.1090  179.6210  144.5610 C   0  0  0  0  0  2  0  0  0  0  0  0
  188.9490  176.5590  146.9520 O   0  0  0  0  0  0  0  0  0  0  0  0
  189.5280  175.2940  147.1200 C   0  0  1  0  0  3  0  0  0  0  0  0
  189.4020  174.4630  145.8450 C   0  0  0  0  0  2  0  0  0  0  0  0
  189.7100  172.2100  144.8170 C   0  0  0  0  0  1  0  0  0  0  0  0
  189.4550  172.9640  146.1100 C   0  0  0  0  0  2  0  0  0  0  0  0
  190.9790  175.3560  147.6130 C   0  0  0  0  0  2  0  0  0  0  0  0
  191.9880  175.7070  146.5600 C   0  0  0  0  0  3  0  0  0  0  0  0
  193.2130  176.1110  146.8890 C   0  0  0  0  0  3  0  0  0  0  0  0
  194.9700  177.9040  145.8930 O   0  0  0  0  0  1  0  0  0  0  0  0
  193.6200  176.5400  144.1130 O   0  0  0  0  0  0  0  0  0  0  0  0
  194.3960  176.5320  145.6170 P   0  0  2  0  0  0  0  0  0  0  0  0
  195.1610  174.1930  145.1430 O   0  0  0  0  0  1  0  0  0  0  0  0
  195.6920  175.3540  145.5970 N   0  0  0  0  0  2  0  0  0  0  0  0
  2  3  2  0  0  0  0
  2  6  1  0  0  0  0
  3  5  1  0  0  0  0
  4  1  1  0  0  0  0
  5 30  1  0  0  0  0
  5  1  2  0  0  0  0
  6  4  2  0  0  0  0
  7  2  1  0  0  0  0
  8  7  1  0  0  0  0
  9  8  1  0  0  0  0
 10  9  1  0  0  0  0
 12 10  1  6  0  0  0
 12 11  1  0  0  0  0
 12 13  1  0  0  0  0
 13 11  1  1  0  0  0
 14 20  1  1  0  0  0
 14 23  1  0  0  0  0
 16 26  1  1  0  0  0
 16 13  1  0  0  0  0
 16 19  1  0  0  0  0
 17 21  2  0  0  0  0
 18 19  1  0  0  0  0
 19 15  1  1  0  0  0
 19 24  1  0  0  0  0
 22 21  1  0  0  0  0
 23 25  2  0  0  0  0
 23 24  1  0  0  0  0
 24 22  1  1  0  0  0
 25 17  1  0  0  0  0
 26 14  1  0  0  0  0
 27 28  2  0  0  0  0
 28 12  1  0  0  0  0
 29 28  1  0  0  0  0
 30 31  1  0  0  0  0
 31 32  1  0  0  0  0
 32 33  1  0  0  0  0
 34 33  1  6  0  0  0
 34 37  1  0  0  0  0
 34 43  1  0  0  0  0
 36 40  1  6  0  0  0
 36 39  1  0  0  0  0
 37 35  1  0  0  0  0
 38 36  1  0  0  0  0
 38 37  1  0  0  0  0
 39 35  1  0  0  0  0
 41 42  1  0  0  0  0
 42 40  1  0  0  0  0
 43 44  1  0  0  0  0
 44 45  1  6  0  0  0
 44 48  1  0  0  0  0
 45 47  1  0  0  0  0
 46 47  1  0  0  0  0
 49 50  2  0  0  0  0
 49 48  1  0  0  0  0
 53 52  2  6  0  0  0
 53 51  1  0  0  0  0
 53 50  1  0  0  0  0
 54 55  1  0  0  0  0
 55 53  1  0  0  0  0
M  END
>  <MODEL>
1

>  <REMARK>
 VINA RESULT:      -5.9      0.000      0.000
  Name = 
  23 active torsions:
  status: ('A' for Active; 'I' for Inactive)
    1  A    between atoms: C_2  and  N_28
    2  A    between atoms: C_2  and  C_44
    3  A    between atoms: C_6  and  C_46
    4  A    between atoms: C_10  and  C_32
    5  A    between atoms: C_10  and  C_47
    6  A    between atoms: C_15  and  C_23
    7  A    between atoms: C_16  and  C_17
    8  A    between atoms: C_16  and  C_26
    9  A    between atoms: C_17  and  C_23
   10  A    between atoms: C_17  and  O_36
   11  A    between atoms: N_19  and  P_40
   12  A    between atoms: C_20  and  C_22
   13  A    between atoms: C_22  and  C_35
   14  A    between atoms: C_27  and  C_54
   15  A    between atoms: N_28  and  C_49
   16  A    between atoms: C_33  and  C_49
   17  A    between atoms: C_33  and  C_52
   18  A    between atoms: N_34  and  C_52
   19  A    between atoms: C_35  and  C_43
   20  A    between atoms: O_36  and  C_52
   21  A    between atoms: P_40  and  C_45
   22  A    between atoms: C_43  and  C_51
   23  A    between atoms: C_51  and  C_54
                            x       y       z     vdW  Elec       q    Type
                         _______ _______ _______ _____ _____    ______ ____

>  <TORSDO>
F 23

$$$$
=
 OpenBabel11052419373D

 55 59  0  0  1  0  0  0  0  0999 V2000
  188.0530  178.2290  142.5920 C   0  0  0  0  0  3  0  0  0  0  0  0
  187.8920  175.4620  142.2150 C   0  0  0  0  0  0  0  0  0  0  0  0
  189.1400  176.0780  142.3560 C   0  0  0  0  0  3  0  0  0  0  0  0
  186.8050  177.6160  142.4450 C   0  0  0  0  0  3  0  0  0  0  0  0
  189.2210  177.4610  142.5400 C   0  0  0  0  0  0  0  0  0  0  0  0
  186.7250  176.2330  142.2560 C   0  0  0  0  0  3  0  0  0  0  0  0
  187.8160  173.9880  142.0250 C   0  0  0  0  0  2  0  0  0  0  0  0
  189.0190  173.3070  142.6540 C   0  0  0  0  0  2  0  0  0  0  0  0
  189.4080  172.0980  141.8240 C   0  0  0  0  0  2  0  0  0  0  0  0
  190.8470  172.2380  141.3580 C   0  0  0  0  0  2  0  0  0  0  0  0
  189.8610  172.2940  139.1590 O   0  0  0  0  0  0  0  0  0  0  0  0
  190.9700  171.8430  139.8990 C   0  0  1  0  0  0  0  0  0  0  0  0
  191.0850  172.9560  138.9170 C   0  0  1  0  0  3  0  0  0  0  0  0
  193.5360  173.9570  137.5710 C   0  0  2  0  0  3  0  0  0  0  0  0
  189.4860  173.0500  136.3680 C   0  0  0  0  0  1  0  0  0  0  0  0
  191.6480  172.5350  137.5480 C   0  0  1  0  0  3  0  0  0  0  0  0
  192.7100  177.0900  135.5400 C   0  0  0  0  0  3  0  0  0  0  0  0
  191.4860  172.6580  135.1860 F   0  0  0  0  0  0  0  0  0  0  0  0
  190.9950  173.2380  136.3450 C   0  0  1  0  0  0  0  0  0  0  0  0
  193.5790  174.4010  138.8930 O   0  0  0  0  0  1  0  0  0  0  0  0
  191.5370  176.8070  134.9670 C   0  0  0  0  0  3  0  0  0  0  0  0
  190.9570  175.4240  135.0480 C   0  0  0  0  0  2  0  0  0  0  0  0
  192.8080  174.9370  136.6920 C   0  0  0  0  0  0  0  0  0  0  0  0
  191.3440  174.7300  136.3670 C   0  0  2  0  0  3  0  0  0  0  0  0
  193.4150  176.0770  136.3440 C   0  0  0  0  0  3  0  0  0  0  0  0
  193.0640  172.6180  137.4930 O   0  0  0  0  0  0  0  0  0  0  0  0
  192.5180  170.0270  139.6480 O   0  0  0  0  0  1  0  0  0  0  0  0
  191.3270  170.4270  139.5470 C   0  0  0  0  0  0  0  0  0  0  0  0
  190.3510  169.5670  139.0600 O   0  0  0  0  0  0  0  0  0  0  0  0
  190.5470  178.1030  142.7370 C   0  0  0  0  0  2  0  0  0  0  0  0
  191.0480  177.7910  144.0660 N   0  0  0  0  0  2  0  0  0  0  0  0
  192.3290  177.1390  143.8880 C   0  0  0  0  0  2  0  0  0  0  0  0
  192.9890  176.9480  145.2430 C   0  0  0  0  0  2  0  0  0  0  0  0
  193.4020  175.4870  145.5080 C   0  0  2  0  0  3  0  0  0  0  0  0
  191.9870  175.4040  147.4730 C   0  0  0  0  0  2  0  0  0  0  0  0
  190.0430  174.4980  146.3710 C   0  0  1  0  0  3  0  0  0  0  0  0
  192.4290  174.6940  146.2740 N   0  0  0  0  0  0  0  0  0  0  0  0
  191.2430  174.4460  145.4580 C   0  0  0  0  0  2  0  0  0  0  0  0
  190.4930  175.2190  147.6180 C   0  0  0  0  0  2  0  0  0  0  0  0
  188.8320  175.1680  145.7180 C   0  0  0  0  0  2  0  0  0  0  0  0
  187.1090  176.9480  146.0240 C   0  0  0  0  0  1  0  0  0  0  0  0
  188.5650  176.5790  146.2290 C   0  0  0  0  0  2  0  0  0  0  0  0
  194.6760  175.4110  146.0890 O   0  0  0  0  0  0  0  0  0  0  0  0
  195.4390  174.6240  145.2170 C   0  0  1  0  0  3  0  0  0  0  0  0
  195.9080  175.4410  144.0150 C   0  0  0  0  0  2  0  0  0  0  0  0
  197.5530  175.4020  142.1380 C   0  0  0  0  0  1  0  0  0  0  0  0
  197.3460  175.1360  143.6180 C   0  0  0  0  0  2  0  0  0  0  0  0
  196.6110  173.9180  145.9110 C   0  0  0  0  0  2  0  0  0  0  0  0
  196.5530  172.4190  145.8740 C   0  0  0  0  0  3  0  0  0  0  0  0
  195.4030  171.7800  145.6700 C   0  0  0  0  0  3  0  0  0  0  0  0
  196.3580  169.4800  144.6260 O   0  0  0  0  0  0  0  0  0  0  0  0
  193.8050  169.4820  145.2000 O   0  0  0  0  0  1  0  0  0  0  0  0
  195.3570  169.9930  145.6380 P   0  0  2  0  0  0  0  0  0  0  0  0
  194.6210  168.8110  147.7200 O   0  0  0  0  0  1  0  0  0  0  0  0
  195.7550  169.3600  147.2220 N   0  0  0  0  0  2  0  0  0  0  0  0
  2  6  2  0  0  0  0
  2  3  1  0  0  0  0
  3  5  2  0  0  0  0
  4  1  2  0  0  0  0
  5  1  1  0  0  0  0
  5 30  1  0  0  0  0
  6  4  1  0  0  0  0
  7  2  1  0  0  0  0
  7  8  1  0  0  0  0
  9  8  1  0  0  0  0
 10  9  1  0  0  0  0
 11 12  1  0  0  0  0
 12 10  1  1  0  0  0
 13 11  1  6  0  0  0
 13 12  1  0  0  0  0
 14 20  1  1  0  0  0
 16 26  1  1  0  0  0
 16 13  1  0  0  0  0
 17 25  1  0  0  0  0
 18 19  1  0  0  0  0
 19 24  1  0  0  0  0
 19 15  1  1  0  0  0
 19 16  1  0  0  0  0
 21 22  1  0  0  0  0
 21 17  2  0  0  0  0
 23 14  1  0  0  0  0
 24 22  1  6  0  0  0
 24 23  1  0  0  0  0
 25 23  2  0  0  0  0
 26 14  1  0  0  0  0
 28 27  1  0  0  0  0
 28 12  1  0  0  0  0
 29 28  2  0  0  0  0
 30 31  1  0  0  0  0
 32 31  1  0  0  0  0
 32 33  1  0  0  0  0
 34 33  1  1  0  0  0
 34 43  1  0  0  0  0
 34 37  1  0  0  0  0
 35 39  1  0  0  0  0
 36 40  1  6  0  0  0
 36 39  1  0  0  0  0
 37 35  1  0  0  0  0
 38 37  1  0  0  0  0
 38 36  1  0  0  0  0
 40 42  1  0  0  0  0
 41 42  1  0  0  0  0
 44 45  1  6  0  0  0
 44 48  1  0  0  0  0
 44 43  1  0  0  0  0
 46 47  1  0  0  0  0
 47 45  1  0  0  0  0
 49 48  1  0  0  0  0
 50 49  2  0  0  0  0
 52 53  1  0  0  0  0
 53 51  2  6  0  0  0
 53 50  1  0  0  0  0
 53 55  1  0  0  0  0
 55 54  1  0  0  0  0
M  END
>  <MODEL>
2

>  <REMARK>
 VINA RESULT:      -5.9      2.879      5.781
  Name = 
  23 active torsions:
  status: ('A' for Active; 'I' for Inactive)
    1  A    between atoms: C_2  and  N_28
    2  A    between atoms: C_2  and  C_44
    3  A    between atoms: C_6  and  C_46
    4  A    between atoms: C_10  and  C_32
    5  A    between atoms: C_10  and  C_47
    6  A    between atoms: C_15  and  C_23
    7  A    between atoms: C_16  and  C_17
    8  A    between atoms: C_16  and  C_26
    9  A    between atoms: C_17  and  C_23
   10  A    between atoms: C_17  and  O_36
   11  A    between atoms: N_19  and  P_40
   12  A    between atoms: C_20  and  C_22
   13  A    between atoms: C_22  and  C_35
   14  A    between atoms: C_27  and  C_54
   15  A    between atoms: N_28  and  C_49
   16  A    between atoms: C_33  and  C_49
   17  A    between atoms: C_33  and  C_52
   18  A    between atoms: N_34  and  C_52
   19  A    between atoms: C_35  and  C_43
   20  A    between atoms: O_36  and  C_52
   21  A    between atoms: P_40  and  C_45
   22  A    between atoms: C_43  and  C_51
   23  A    between atoms: C_51  and  C_54
                            x       y       z     vdW  Elec       q    Type
                         _______ _______ _______ _____ _____    ______ ____

>  <TORSDO>
F 23

$$$$
=
 OpenBabel11052419373D

 55 59  0  0  1  0  0  0  0  0999 V2000
  190.2740  177.3300  147.7730 C   0  0  0  0  0  3  0  0  0  0  0  0
  190.7640  174.9310  146.4200 C   0  0  0  0  0  0  0  0  0  0  0  0
  189.5190  175.5550  146.3070 C   0  0  0  0  0  3  0  0  0  0  0  0
  191.5180  176.7030  147.8910 C   0  0  0  0  0  3  0  0  0  0  0  0
  189.2710  176.7510  146.9870 C   0  0  0  0  0  0  0  0  0  0  0  0
  191.7630  175.5040  147.2150 C   0  0  0  0  0  3  0  0  0  0  0  0
  191.0200  173.6600  145.6870 C   0  0  0  0  0  2  0  0  0  0  0  0
  189.7830  173.2300  144.9200 C   0  0  0  0  0  2  0  0  0  0  0  0
  190.0950  171.9820  144.1150 C   0  0  0  0  0  2  0  0  0  0  0  0
  191.6000  171.8090  144.0020 C   0  0  0  0  0  2  0  0  0  0  0  0
  191.7440  172.6330  141.7410 O   0  0  0  0  0  0  0  0  0  0  0  0
  191.9900  171.5190  142.5650 C   0  0  1  0  0  0  0  0  0  0  0  0
  193.0990  172.3360  142.0010 C   0  0  1  0  0  3  0  0  0  0  0  0
  195.9600  171.6430  141.5950 C   0  0  2  0  0  3  0  0  0  0  0  0
  192.8680  173.5570  139.2590 C   0  0  0  0  0  1  0  0  0  0  0  0
  193.7540  171.7310  140.7460 C   0  0  1  0  0  3  0  0  0  0  0  0
  197.8640  174.7030  140.3200 C   0  0  0  0  0  3  0  0  0  0  0  0
  194.5360  172.0590  138.5320 F   0  0  0  0  0  0  0  0  0  0  0  0
  194.0990  172.7530  139.6500 C   0  0  1  0  0  0  0  0  0  0  0  0
  195.7820  171.8860  142.9570 O   0  0  0  0  0  1  0  0  0  0  0  0
  197.0370  175.2550  139.4280 C   0  0  0  0  0  3  0  0  0  0  0  0
  195.7840  174.5440  139.0020 C   0  0  0  0  0  2  0  0  0  0  0  0
  196.2940  172.9100  140.8550 C   0  0  0  0  0  0  0  0  0  0  0  0
  195.2070  173.6880  140.1450 C   0  0  2  0  0  3  0  0  0  0  0  0
  197.5200  173.4290  140.9750 C   0  0  0  0  0  3  0  0  0  0  0  0
  194.8680  170.9060  141.0570 O   0  0  0  0  0  0  0  0  0  0  0  0
  192.0390  169.1410  142.2500 O   0  0  0  0  0  1  0  0  0  0  0  0
  191.5280  170.2440  141.9180 C   0  0  0  0  0  0  0  0  0  0  0  0
  190.5680  170.2840  140.9160 O   0  0  0  0  0  0  0  0  0  0  0  0
  187.9610  177.4350  146.8260 C   0  0  0  0  0  2  0  0  0  0  0  0
  187.0550  176.5800  146.0760 N   0  0  0  0  0  2  0  0  0  0  0  0
  186.4240  177.4150  145.0750 C   0  0  0  0  0  2  0  0  0  0  0  0
  186.3290  176.6510  143.7660 C   0  0  0  0  0  2  0  0  0  0  0  0
  187.0760  177.3450  142.6110 C   0  0  2  0  0  3  0  0  0  0  0  0
  186.0750  177.8720  140.4670 C   0  0  0  0  0  2  0  0  0  0  0  0
  183.9560  178.6300  141.3360 C   0  0  1  0  0  3  0  0  0  0  0  0
  186.2760  178.3140  141.8470 N   0  0  0  0  0  0  0  0  0  0  0  0
  184.9540  178.4490  142.4530 C   0  0  0  0  0  2  0  0  0  0  0  0
  184.6400  178.1480  140.0790 C   0  0  0  0  0  2  0  0  0  0  0  0
  182.6370  177.8990  141.5970 C   0  0  0  0  0  2  0  0  0  0  0  0
  180.8120  179.4190  140.8290 C   0  0  0  0  0  1  0  0  0  0  0  0
  181.5800  178.1470  140.5270 C   0  0  0  0  0  2  0  0  0  0  0  0
  187.6800  176.4130  141.7560 O   0  0  0  0  0  0  0  0  0  0  0  0
  188.7510  175.8770  142.4830 C   0  0  1  0  0  3  0  0  0  0  0  0
  189.3300  174.6520  141.7790 C   0  0  0  0  0  2  0  0  0  0  0  0
  188.5790  173.4660  139.7150 C   0  0  0  0  0  1  0  0  0  0  0  0
  188.2560  173.7600  141.1690 C   0  0  0  0  0  2  0  0  0  0  0  0
  189.8380  176.9100  142.8050 C   0  0  0  0  0  2  0  0  0  0  0  0
  191.2130  176.3410  142.9890 C   0  0  0  0  0  3  0  0  0  0  0  0
  192.1120  176.9480  143.7620 C   0  0  0  0  0  3  0  0  0  0  0  0
  193.6360  174.7950  144.3390 O   0  0  0  0  0  0  0  0  0  0  0  0
  194.5630  177.0920  145.1840 O   0  0  0  0  0  1  0  0  0  0  0  0
  193.7480  176.2560  143.9610 P   0  0  2  0  0  0  0  0  0  0  0  0
  195.9430  176.1790  142.7560 O   0  0  0  0  0  1  0  0  0  0  0  0
  194.6400  176.4000  142.4600 N   0  0  0  0  0  2  0  0  0  0  0  0
  1  4  1  0  0  0  0
  2  6  1  0  0  0  0
  3  2  2  0  0  0  0
  3  5  1  0  0  0  0
  5  1  2  0  0  0  0
  6  4  2  0  0  0  0
  7  2  1  0  0  0  0
  8  7  1  0  0  0  0
  9  8  1  0  0  0  0
 10  9  1  0  0  0  0
 11 12  1  0  0  0  0
 12 10  1  1  0  0  0
 13 11  1  6  0  0  0
 13 12  1  0  0  0  0
 14 20  1  1  0  0  0
 16 26  1  1  0  0  0
 16 13  1  0  0  0  0
 17 25  1  0  0  0  0
 18 19  1  0  0  0  0
 19 15  1  6  0  0  0
 19 24  1  0  0  0  0
 19 16  1  0  0  0  0
 21 17  2  0  0  0  0
 22 21  1  0  0  0  0
 23 25  2  0  0  0  0
 23 14  1  0  0  0  0
 24 22  1  6  0  0  0
 24 23  1  0  0  0  0
 26 14  1  0  0  0  0
 28 27  1  0  0  0  0
 28 12  1  0  0  0  0
 29 28  2  0  0  0  0
 30  5  1  0  0  0  0
 31 30  1  0  0  0  0
 32 31  1  0  0  0  0
 33 32  1  0  0  0  0
 34 33  1  1  0  0  0
 35 37  1  0  0  0  0
 36 40  1  1  0  0  0
 36 38  1  0  0  0  0
 37 38  1  0  0  0  0
 37 34  1  0  0  0  0
 39 35  1  0  0  0  0
 39 36  1  0  0  0  0
 42 41  1  0  0  0  0
 42 40  1  0  0  0  0
 43 44  1  0  0  0  0
 43 34  1  0  0  0  0
 44 45  1  6  0  0  0
 44 48  1  0  0  0  0
 46 47  1  0  0  0  0
 47 45  1  0  0  0  0
 48 49  1  0  0  0  0
 49 50  2  0  0  0  0
 50 53  1  0  0  0  0
 53 51  2  1  0  0  0
 53 52  1  0  0  0  0
 55 54  1  0  0  0  0
 55 53  1  0  0  0  0
M  END
>  <MODEL>
3

>  <REMARK>
 VINA RESULT:      -5.8      2.493      4.661
  Name = 
  23 active torsions:
  status: ('A' for Active; 'I' for Inactive)
    1  A    between atoms: C_2  and  N_28
    2  A    between atoms: C_2  and  C_44
    3  A    between atoms: C_6  and  C_46
    4  A    between atoms: C_10  and  C_32
    5  A    between atoms: C_10  and  C_47
    6  A    between atoms: C_15  and  C_23
    7  A    between atoms: C_16  and  C_17
    8  A    between atoms: C_16  and  C_26
    9  A    between atoms: C_17  and  C_23
   10  A    between atoms: C_17  and  O_36
   11  A    between atoms: N_19  and  P_40
   12  A    between atoms: C_20  and  C_22
   13  A    between atoms: C_22  and  C_35
   14  A    between atoms: C_27  and  C_54
   15  A    between atoms: N_28  and  C_49
   16  A    between atoms: C_33  and  C_49
   17  A    between atoms: C_33  and  C_52
   18  A    between atoms: N_34  and  C_52
   19  A    between atoms: C_35  and  C_43
   20  A    between atoms: O_36  and  C_52
   21  A    between atoms: P_40  and  C_45
   22  A    between atoms: C_43  and  C_51
   23  A    between atoms: C_51  and  C_54
                            x       y       z     vdW  Elec       q    Type
                         _______ _______ _______ _____ _____    ______ ____

>  <TORSDO>
F 23

$$$$
=
 OpenBabel11052419373D

 55 59  0  0  1  0  0  0  0  0999 V2000
  187.9370  178.0400  142.6800 C   0  0  0  0  0  3  0  0  0  0  0  0
  188.1130  175.2850  142.2280 C   0  0  0  0  0  0  0  0  0  0  0  0
  189.2760  176.0430  142.3870 C   0  0  0  0  0  3  0  0  0  0  0  0
  186.7730  177.2840  142.5150 C   0  0  0  0  0  3  0  0  0  0  0  0
  189.1900  177.4200  142.6090 C   0  0  0  0  0  0  0  0  0  0  0  0
  186.8610  175.9070  142.2880 C   0  0  0  0  0  3  0  0  0  0  0  0
  188.2150  173.8170  141.9990 C   0  0  0  0  0  2  0  0  0  0  0  0
  189.0570  173.1670  143.0820 C   0  0  0  0  0  2  0  0  0  0  0  0
  189.4480  171.7670  142.6470 C   0  0  0  0  0  2  0  0  0  0  0  0
  190.8400  171.4410  143.1610 C   0  0  0  0  0  2  0  0  0  0  0  0
  191.0190  169.6500  141.5570 O   0  0  0  0  0  0  0  0  0  0  0  0
  191.6670  170.7900  142.0690 C   0  0  1  0  0  0  0  0  0  0  0  0
  191.0700  170.7750  140.7050 C   0  0  1  0  0  3  0  0  0  0  0  0
  192.0950  172.7370  138.7240 C   0  0  2  0  0  3  0  0  0  0  0  0
  190.7370  168.6360  138.6130 C   0  0  0  0  0  1  0  0  0  0  0  0
  192.0850  170.5310  139.5740 C   0  0  1  0  0  3  0  0  0  0  0  0
  189.7490  172.8750  135.7070 C   0  0  0  0  0  3  0  0  0  0  0  0
  192.5230  169.6190  137.4300 F   0  0  0  0  0  0  0  0  0  0  0  0
  191.4830  169.9230  138.2960 C   0  0  1  0  0  0  0  0  0  0  0  0
  191.4290  173.4590  139.7150 O   0  0  0  0  0  1  0  0  0  0  0  0
  189.4310  171.5980  135.4820 C   0  0  0  0  0  3  0  0  0  0  0  0
  190.1300  170.4920  136.2200 C   0  0  0  0  0  2  0  0  0  0  0  0
  191.1510  172.3180  137.6290 C   0  0  0  0  0  0  0  0  0  0  0  0
  190.5390  170.9340  137.6380 C   0  0  2  0  0  3  0  0  0  0  0  0
  190.7250  173.2330  136.7510 C   0  0  0  0  0  3  0  0  0  0  0  0
  192.8650  171.6820  139.2850 O   0  0  0  0  0  0  0  0  0  0  0  0
  193.9230  171.4940  142.4770 O   0  0  0  0  0  1  0  0  0  0  0  0
  193.1270  170.5320  142.3040 C   0  0  0  0  0  0  0  0  0  0  0  0
  193.6130  169.2310  142.2840 O   0  0  0  0  0  0  0  0  0  0  0  0
  190.4290  178.2130  142.8240 C   0  0  0  0  0  2  0  0  0  0  0  0
  191.0260  177.8460  144.0970 N   0  0  0  0  0  2  0  0  0  0  0  0
  192.2760  177.1800  143.7970 C   0  0  0  0  0  2  0  0  0  0  0  0
  193.1190  177.0940  145.0570 C   0  0  0  0  0  2  0  0  0  0  0  0
  193.4970  175.6470  145.4300 C   0  0  2  0  0  3  0  0  0  0  0  0
  192.1640  175.9020  147.4380 C   0  0  0  0  0  2  0  0  0  0  0  0
  190.2100  174.7540  146.6160 C   0  0  1  0  0  3  0  0  0  0  0  0
  192.5820  174.9890  146.3750 N   0  0  0  0  0  0  0  0  0  0  0  0
  191.3740  174.5610  145.6760 C   0  0  0  0  0  2  0  0  0  0  0  0
  190.6850  175.7090  147.6840 C   0  0  0  0  0  2  0  0  0  0  0  0
  188.9520  175.2570  145.9040 C   0  0  0  0  0  2  0  0  0  0  0  0
  187.0460  176.8510  146.1510 C   0  0  0  0  0  1  0  0  0  0  0  0
  188.5430  176.6680  146.3120 C   0  0  0  0  0  2  0  0  0  0  0  0
  194.8220  175.5620  145.8760 O   0  0  0  0  0  0  0  0  0  0  0  0
  195.3850  174.4860  145.1770 C   0  0  1  0  0  3  0  0  0  0  0  0
  195.6940  174.8780  143.7340 C   0  0  0  0  0  2  0  0  0  0  0  0
  197.9400  175.6140  142.9290 C   0  0  0  0  0  1  0  0  0  0  0  0
  196.6670  176.0460  143.6340 C   0  0  0  0  0  2  0  0  0  0  0  0
  196.6120  173.8880  145.8760 C   0  0  0  0  0  2  0  0  0  0  0  0
  196.6970  172.3910  145.8280 C   0  0  0  0  0  3  0  0  0  0  0  0
  195.6030  171.6450  145.6900 C   0  0  0  0  0  3  0  0  0  0  0  0
  196.4620  169.4390  144.3910 O   0  0  0  0  0  0  0  0  0  0  0  0
  194.1720  169.1940  145.6340 O   0  0  0  0  0  1  0  0  0  0  0  0
  195.7270  169.8620  145.6430 P   0  0  2  0  0  0  0  0  0  0  0  0
  197.7870  168.8120  146.6080 O   0  0  0  0  0  1  0  0  0  0  0  0
  196.5990  169.2900  147.0500 N   0  0  0  0  0  2  0  0  0  0  0  0
  2  6  2  0  0  0  0
  2  3  1  0  0  0  0
  3  5  2  0  0  0  0
  4  1  2  0  0  0  0
  5  1  1  0  0  0  0
  5 30  1  0  0  0  0
  6  4  1  0  0  0  0
  7  2  1  0  0  0  0
  7  8  1  0  0  0  0
  9  8  1  0  0  0  0
  9 10  1  0  0  0  0
 11 12  1  0  0  0  0
 12 28  1  0  0  0  0
 12 10  1  1  0  0  0
 13 11  1  1  0  0  0
 13 12  1  0  0  0  0
 14 26  1  0  0  0  0
 14 20  1  1  0  0  0
 16 26  1  6  0  0  0
 16 13  1  0  0  0  0
 17 25  1  0  0  0  0
 18 19  1  0  0  0  0
 19 15  1  1  0  0  0
 19 16  1  0  0  0  0
 21 17  2  0  0  0  0
 21 22  1  0  0  0  0
 23 24  1  0  0  0  0
 23 14  1  0  0  0  0
 24 22  1  6  0  0  0
 24 19  1  0  0  0  0
 25 23  2  0  0  0  0
 28 27  1  0  0  0  0
 29 28  2  0  0  0  0
 30 31  1  0  0  0  0
 32 31  1  0  0  0  0
 32 33  1  0  0  0  0
 34 33  1  1  0  0  0
 34 43  1  0  0  0  0
 34 37  1  0  0  0  0
 35 39  1  0  0  0  0
 36 40  1  6  0  0  0
 36 39  1  0  0  0  0
 37 35  1  0  0  0  0
 38 37  1  0  0  0  0
 38 36  1  0  0  0  0
 40 42  1  0  0  0  0
 41 42  1  0  0  0  0
 44 45  1  6  0  0  0
 44 43  1  0  0  0  0
 44 48  1  0  0  0  0
 46 47  1  0  0  0  0
 47 45  1  0  0  0  0
 49 48  1  0  0  0  0
 50 49  2  0  0  0  0
 52 53  1  0  0  0  0
 53 51  2  6  0  0  0
 53 50  1  0  0  0  0
 53 55  1  0  0  0  0
 54 55  1  0  0  0  0
M  END
>  <MODEL>
4

>  <REMARK>
 VINA RESULT:      -5.8      3.087      6.175
  Name = 
  23 active torsions:
  status: ('A' for Active; 'I' for Inactive)
    1  A    between atoms: C_2  and  N_28
    2  A    between atoms: C_2  and  C_44
    3  A    between atoms: C_6  and  C_46
    4  A    between atoms: C_10  and  C_32
    5  A    between atoms: C_10  and  C_47
    6  A    between atoms: C_15  and  C_23
    7  A    between atoms: C_16  and  C_17
    8  A    between atoms: C_16  and  C_26
    9  A    between atoms: C_17  and  C_23
   10  A    between atoms: C_17  and  O_36
   11  A    between atoms: N_19  and  P_40
   12  A    between atoms: C_20  and  C_22
   13  A    between atoms: C_22  and  C_35
   14  A    between atoms: C_27  and  C_54
   15  A    between atoms: N_28  and  C_49
   16  A    between atoms: C_33  and  C_49
   17  A    between atoms: C_33  and  C_52
   18  A    between atoms: N_34  and  C_52
   19  A    between atoms: C_35  and  C_43
   20  A    between atoms: O_36  and  C_52
   21  A    between atoms: P_40  and  C_45
   22  A    between atoms: C_43  and  C_51
   23  A    between atoms: C_51  and  C_54
                            x       y       z     vdW  Elec       q    Type
                         _______ _______ _______ _____ _____    ______ ____

>  <TORSDO>
F 23

$$$$
=
 OpenBabel11052419373D

 55 59  0  0  1  0  0  0  0  0999 V2000
  188.6170  178.1510  142.0430 C   0  0  0  0  0  3  0  0  0  0  0  0
  188.3910  175.3700  142.2350 C   0  0  0  0  0  0  0  0  0  0  0  0
  189.5800  176.0020  142.6090 C   0  0  0  0  0  3  0  0  0  0  0  0
  187.4290  177.5200  141.6640 C   0  0  0  0  0  3  0  0  0  0  0  0
  189.6960  177.3910  142.5100 C   0  0  0  0  0  0  0  0  0  0  0  0
  187.3160  176.1290  141.7590 C   0  0  0  0  0  3  0  0  0  0  0  0
  188.2750  173.8900  142.3510 C   0  0  0  0  0  2  0  0  0  0  0  0
  189.5530  173.2180  141.8810 C   0  0  0  0  0  2  0  0  0  0  0  0
  189.5270  173.0830  140.3700 C   0  0  0  0  0  2  0  0  0  0  0  0
  190.3970  171.9120  139.9460 C   0  0  0  0  0  2  0  0  0  0  0  0
  191.3440  173.6470  138.5660 O   0  0  0  0  0  0  0  0  0  0  0  0
  191.1670  172.2560  138.6850 C   0  0  1  0  0  0  0  0  0  0  0  0
  192.4980  172.8960  138.8740 C   0  0  1  0  0  3  0  0  0  0  0  0
  195.1250  171.5260  138.6480 C   0  0  2  0  0  3  0  0  0  0  0  0
  193.4840  175.3190  137.3840 C   0  0  0  0  0  1  0  0  0  0  0  0
  193.4180  172.8170  137.6420 C   0  0  1  0  0  3  0  0  0  0  0  0
  197.9160  173.8860  139.7710 C   0  0  0  0  0  3  0  0  0  0  0  0
  194.9710  173.9080  136.2220 F   0  0  0  0  0  0  0  0  0  0  0  0
  194.3170  174.0470  137.4370 C   0  0  1  0  0  0  0  0  0  0  0  0
  194.5340  171.0950  139.8370 O   0  0  0  0  0  1  0  0  0  0  0  0
  197.5770  175.0660  139.2450 C   0  0  0  0  0  3  0  0  0  0  0  0
  196.4390  175.1730  138.2710 C   0  0  0  0  0  2  0  0  0  0  0  0
  195.9380  172.7730  138.8660 C   0  0  0  0  0  0  0  0  0  0  0  0
  195.3430  174.1330  138.5720 C   0  0  2  0  0  3  0  0  0  0  0  0
  197.1220  172.6790  139.4810 C   0  0  0  0  0  3  0  0  0  0  0  0
  194.1680  171.6120  137.5990 O   0  0  0  0  0  0  0  0  0  0  0  0
  190.9780  170.4210  137.1520 O   0  0  0  0  0  1  0  0  0  0  0  0
  190.7560  171.6400  137.3790 C   0  0  0  0  0  0  0  0  0  0  0  0
  190.1710  172.4270  136.3950 O   0  0  0  0  0  0  0  0  0  0  0  0
  190.9460  178.0620  142.9530 C   0  0  0  0  0  2  0  0  0  0  0  0
  191.4410  177.4210  144.1600 N   0  0  0  0  0  2  0  0  0  0  0  0
  192.7650  176.9200  143.8540 C   0  0  0  0  0  2  0  0  0  0  0  0
  193.6250  176.9710  145.1050 C   0  0  0  0  0  2  0  0  0  0  0  0
  193.8420  175.5850  145.7420 C   0  0  2  0  0  3  0  0  0  0  0  0
  192.3630  176.3930  147.4840 C   0  0  0  0  0  2  0  0  0  0  0  0
  190.4810  174.9990  146.9100 C   0  0  1  0  0  3  0  0  0  0  0  0
  192.8630  175.2150  146.7750 N   0  0  0  0  0  0  0  0  0  0  0  0
  191.7120  174.5650  146.1550 C   0  0  0  0  0  2  0  0  0  0  0  0
  190.8710  176.2420  147.6720 C   0  0  0  0  0  2  0  0  0  0  0  0
  189.2760  175.2310  145.9950 C   0  0  0  0  0  2  0  0  0  0  0  0
  187.2010  176.6180  146.0810 C   0  0  0  0  0  1  0  0  0  0  0  0
  188.7180  176.6480  146.0700 C   0  0  0  0  0  2  0  0  0  0  0  0
  195.1520  175.4390  146.2200 O   0  0  0  0  0  0  0  0  0  0  0  0
  195.7700  174.5330  145.3480 C   0  0  1  0  0  3  0  0  0  0  0  0
  196.4550  175.2650  144.1970 C   0  0  0  0  0  2  0  0  0  0  0  0
  195.0340  174.2540  142.4120 C   0  0  0  0  0  1  0  0  0  0  0  0
  196.4560  174.4620  142.9030 C   0  0  0  0  0  2  0  0  0  0  0  0
  196.7310  173.5710  146.0590 C   0  0  0  0  0  2  0  0  0  0  0  0
  196.3940  172.1180  145.9080 C   0  0  0  0  0  3  0  0  0  0  0  0
  195.2060  171.7320  145.4470 C   0  0  0  0  0  3  0  0  0  0  0  0
  195.7930  169.3510  144.3160 O   0  0  0  0  0  0  0  0  0  0  0  0
  193.2470  169.8210  144.6950 O   0  0  0  0  0  1  0  0  0  0  0  0
  194.8240  169.9930  145.2840 P   0  0  2  0  0  0  0  0  0  0  0  0
  196.0290  168.3870  146.7820 O   0  0  0  0  0  1  0  0  0  0  0  0
  194.9520  169.2070  146.8440 N   0  0  0  0  0  2  0  0  0  0  0  0
  1  5  1  0  0  0  0
  2  7  1  0  0  0  0
  2  3  1  0  0  0  0
  4  6  1  0  0  0  0
  4  1  2  0  0  0  0
  5  3  2  0  0  0  0
  5 30  1  0  0  0  0
  6  2  2  0  0  0  0
  8  7  1  0  0  0  0
  9  8  1  0  0  0  0
 10  9  1  0  0  0  0
 11 12  1  0  0  0  0
 12 13  1  0  0  0  0
 12 10  1  1  0  0  0
 13 11  1  6  0  0  0
 14 23  1  0  0  0  0
 14 20  1  1  0  0  0
 16 26  1  1  0  0  0
 16 13  1  0  0  0  0
 18 19  1  0  0  0  0
 19 15  1  6  0  0  0
 19 16  1  0  0  0  0
 19 24  1  0  0  0  0
 21 17  2  0  0  0  0
 22 21  1  0  0  0  0
 23 25  2  0  0  0  0
 24 22  1  6  0  0  0
 24 23  1  0  0  0  0
 25 17  1  0  0  0  0
 26 14  1  0  0  0  0
 27 28  1  0  0  0  0
 28 12  1  0  0  0  0
 29 28  2  0  0  0  0
 30 31  1  0  0  0  0
 32 31  1  0  0  0  0
 32 33  1  0  0  0  0
 34 33  1  1  0  0  0
 34 43  1  0  0  0  0
 34 37  1  0  0  0  0
 35 39  1  0  0  0  0
 36 40  1  6  0  0  0
 36 39  1  0  0  0  0
 37 35  1  0  0  0  0
 38 37  1  0  0  0  0
 38 36  1  0  0  0  0
 40 42  1  0  0  0  0
 42 41  1  0  0  0  0
 44 45  1  6  0  0  0
 44 48  1  0  0  0  0
 44 43  1  0  0  0  0
 46 47  1  0  0  0  0
 47 45  1  0  0  0  0
 49 48  1  0  0  0  0
 50 49  2  0  0  0  0
 52 53  1  0  0  0  0
 53 51  2  6  0  0  0
 53 50  1  0  0  0  0
 53 55  1  0  0  0  0
 54 55  1  0  0  0  0
M  END
>  <MODEL>
5

>  <REMARK>
 VINA RESULT:      -5.7      2.563      4.684
  Name = 
  23 active torsions:
  status: ('A' for Active; 'I' for Inactive)
    1  A    between atoms: C_2  and  N_28
    2  A    between atoms: C_2  and  C_44
    3  A    between atoms: C_6  and  C_46
    4  A    between atoms: C_10  and  C_32
    5  A    between atoms: C_10  and  C_47
    6  A    between atoms: C_15  and  C_23
    7  A    between atoms: C_16  and  C_17
    8  A    between atoms: C_16  and  C_26
    9  A    between atoms: C_17  and  C_23
   10  A    between atoms: C_17  and  O_36
   11  A    between atoms: N_19  and  P_40
   12  A    between atoms: C_20  and  C_22
   13  A    between atoms: C_22  and  C_35
   14  A    between atoms: C_27  and  C_54
   15  A    between atoms: N_28  and  C_49
   16  A    between atoms: C_33  and  C_49
   17  A    between atoms: C_33  and  C_52
   18  A    between atoms: N_34  and  C_52
   19  A    between atoms: C_35  and  C_43
   20  A    between atoms: O_36  and  C_52
   21  A    between atoms: P_40  and  C_45
   22  A    between atoms: C_43  and  C_51
   23  A    between atoms: C_51  and  C_54
                            x       y       z     vdW  Elec       q    Type
                         _______ _______ _______ _____ _____    ______ ____

>  <TORSDO>
F 23

$$$$
=
 OpenBabel11052419373D

 55 59  0  0  1  0  0  0  0  0999 V2000
  194.7160  175.3280  144.9660 C   0  0  0  0  0  3  0  0  0  0  0  0
  196.5020  175.1100  142.8240 C   0  0  0  0  0  0  0  0  0  0  0  0
  195.7490  174.0020  143.2220 C   0  0  0  0  0  3  0  0  0  0  0  0
  195.4720  176.4350  144.5730 C   0  0  0  0  0  3  0  0  0  0  0  0
  194.8590  174.1080  144.2950 C   0  0  0  0  0  0  0  0  0  0  0  0
  196.3660  176.3260  143.5030 C   0  0  0  0  0  3  0  0  0  0  0  0
  197.4420  174.9890  141.6770 C   0  0  0  0  0  2  0  0  0  0  0  0
  197.1280  176.0320  140.6190 C   0  0  0  0  0  2  0  0  0  0  0  0
  196.9280  175.3490  139.2790 C   0  0  0  0  0  2  0  0  0  0  0  0
  195.5450  174.7230  139.2240 C   0  0  0  0  0  2  0  0  0  0  0  0
  195.7070  172.4630  138.4010 O   0  0  0  0  0  0  0  0  0  0  0  0
  195.4340  173.7930  138.0310 C   0  0  1  0  0  0  0  0  0  0  0  0
  194.3620  172.7610  138.0910 C   0  0  1  0  0  3  0  0  0  0  0  0
  191.7700  172.9630  136.6540 C   0  0  2  0  0  3  0  0  0  0  0  0
  194.6450  169.8340  137.4450 C   0  0  0  0  0  1  0  0  0  0  0  0
  193.9920  172.1560  136.7250 C   0  0  1  0  0  3  0  0  0  0  0  0
  189.4330  170.1620  137.8000 C   0  0  0  0  0  3  0  0  0  0  0  0
  193.4150  170.2270  135.4740 F   0  0  0  0  0  0  0  0  0  0  0  0
  193.5700  170.6770  136.7760 C   0  0  1  0  0  0  0  0  0  0  0  0
  191.7390  173.8910  137.6950 O   0  0  0  0  0  1  0  0  0  0  0  0
  190.2250  169.0900  137.8830 C   0  0  0  0  0  3  0  0  0  0  0  0
  191.6370  169.1370  137.3730 C   0  0  0  0  0  2  0  0  0  0  0  0
  191.2690  171.6190  137.1070 C   0  0  0  0  0  0  0  0  0  0  0  0
  192.2440  170.5440  137.5330 C   0  0  2  0  0  3  0  0  0  0  0  0
  189.9560  171.4430  137.2930 C   0  0  0  0  0  3  0  0  0  0  0  0
  193.0440  172.9430  136.0200 O   0  0  0  0  0  0  0  0  0  0  0  0
  195.6740  175.0920  136.0290 O   0  0  0  0  0  0  0  0  0  0  0  0
  196.1210  174.1570  136.7460 C   0  0  0  0  0  0  0  0  0  0  0  0
  197.2250  173.4310  136.3200 O   0  0  0  0  0  1  0  0  0  0  0  0
  194.0270  172.9390  144.6830 C   0  0  0  0  0  2  0  0  0  0  0  0
  192.8280  172.9000  143.8620 N   0  0  0  0  0  2  0  0  0  0  0  0
  192.0620  171.7490  144.2930 C   0  0  0  0  0  2  0  0  0  0  0  0
  190.6530  172.1870  144.6510 C   0  0  0  0  0  2  0  0  0  0  0  0
  190.4350  173.7040  144.4890 C   0  0  2  0  0  3  0  0  0  0  0  0
  191.1390  175.6570  145.7390 C   0  0  0  0  0  2  0  0  0  0  0  0
  188.9560  176.2470  146.5750 C   0  0  1  0  0  3  0  0  0  0  0  0
  190.3110  174.4520  145.7490 N   0  0  0  0  0  0  0  0  0  0  0  0
  188.9280  174.8820  145.9330 C   0  0  0  0  0  2  0  0  0  0  0  0
  190.3450  176.7910  146.3460 C   0  0  0  0  0  2  0  0  0  0  0  0
  187.8690  177.1780  146.0320 C   0  0  0  0  0  2  0  0  0  0  0  0
  186.0160  177.5900  147.6540 C   0  0  0  0  0  1  0  0  0  0  0  0
  186.4580  176.7800  146.4510 C   0  0  0  0  0  2  0  0  0  0  0  0
  189.3580  173.9800  143.6360 O   0  0  0  0  0  0  0  0  0  0  0  0
  189.9330  174.4130  142.4340 C   0  0  1  0  0  3  0  0  0  0  0  0
  189.2560  173.7500  141.2360 C   0  0  0  0  0  2  0  0  0  0  0  0
  191.1260  172.1670  140.7610 C   0  0  0  0  0  1  0  0  0  0  0  0
  189.6450  172.2860  141.0740 C   0  0  0  0  0  2  0  0  0  0  0  0
  189.9600  175.9400  142.2950 C   0  0  0  0  0  2  0  0  0  0  0  0
  188.6570  176.6220  142.5850 C   0  0  0  0  0  3  0  0  0  0  0  0
  187.8130  176.9390  141.6040 C   0  0  0  0  0  3  0  0  0  0  0  0
  186.5480  179.1250  142.5600 O   0  0  0  0  0  0  0  0  0  0  0  0
  185.3980  176.8350  143.0920 O   0  0  0  0  0  1  0  0  0  0  0  0
  186.2680  177.7590  141.9730 P   0  0  2  0  0  0  0  0  0  0  0  0
  186.1030  177.5030  139.4860 O   0  0  0  0  0  1  0  0  0  0  0  0
  185.3260  177.9390  140.5070 N   0  0  0  0  0  2  0  0  0  0  0  0
  2  3  2  0  0  0  0
  2  6  1  0  0  0  0
  3  5  1  0  0  0  0
  4  1  1  0  0  0  0
  5 30  1  0  0  0  0
  5  1  2  0  0  0  0
  6  4  2  0  0  0  0
  7  2  1  0  0  0  0
  8  7  1  0  0  0  0
  9  8  1  0  0  0  0
 10  9  1  0  0  0  0
 12 13  1  0  0  0  0
 12 11  1  0  0  0  0
 12 10  1  1  0  0  0
 13 11  1  1  0  0  0
 14 23  1  0  0  0  0
 14 20  1  1  0  0  0
 16 26  1  1  0  0  0
 16 19  1  0  0  0  0
 16 13  1  0  0  0  0
 17 21  2  0  0  0  0
 18 19  1  0  0  0  0
 19 15  1  1  0  0  0
 19 24  1  0  0  0  0
 22 21  1  0  0  0  0
 23 25  2  0  0  0  0
 23 24  1  0  0  0  0
 24 22  1  6  0  0  0
 25 17  1  0  0  0  0
 26 14  1  0  0  0  0
 27 28  2  0  0  0  0
 28 12  1  0  0  0  0
 29 28  1  0  0  0  0
 31 32  1  0  0  0  0
 31 30  1  0  0  0  0
 32 33  1  0  0  0  0
 34 33  1  1  0  0  0
 34 37  1  0  0  0  0
 35 37  1  0  0  0  0
 35 39  1  0  0  0  0
 36 40  1  6  0  0  0
 37 38  1  0  0  0  0
 38 36  1  0  0  0  0
 39 36  1  0  0  0  0
 40 42  1  0  0  0  0
 42 41  1  0  0  0  0
 43 34  1  0  0  0  0
 44 45  1  6  0  0  0
 44 43  1  0  0  0  0
 46 47  1  0  0  0  0
 47 45  1  0  0  0  0
 48 44  1  0  0  0  0
 48 49  1  0  0  0  0
 50 53  1  0  0  0  0
 50 49  2  0  0  0  0
 53 51  2  1  0  0  0
 53 52  1  0  0  0  0
 54 55  1  0  0  0  0
 55 53  1  0  0  0  0
M  END
>  <MODEL>
6

>  <REMARK>
 VINA RESULT:      -5.5      3.056      6.341
  Name = 
  23 active torsions:
  status: ('A' for Active; 'I' for Inactive)
    1  A    between atoms: C_2  and  N_28
    2  A    between atoms: C_2  and  C_44
    3  A    between atoms: C_6  and  C_46
    4  A    between atoms: C_10  and  C_32
    5  A    between atoms: C_10  and  C_47
    6  A    between atoms: C_15  and  C_23
    7  A    between atoms: C_16  and  C_17
    8  A    between atoms: C_16  and  C_26
    9  A    between atoms: C_17  and  C_23
   10  A    between atoms: C_17  and  O_36
   11  A    between atoms: N_19  and  P_40
   12  A    between atoms: C_20  and  C_22
   13  A    between atoms: C_22  and  C_35
   14  A    between atoms: C_27  and  C_54
   15  A    between atoms: N_28  and  C_49
   16  A    between atoms: C_33  and  C_49
   17  A    between atoms: C_33  and  C_52
   18  A    between atoms: N_34  and  C_52
   19  A    between atoms: C_35  and  C_43
   20  A    between atoms: O_36  and  C_52
   21  A    between atoms: P_40  and  C_45
   22  A    between atoms: C_43  and  C_51
   23  A    between atoms: C_51  and  C_54
                            x       y       z     vdW  Elec       q    Type
                         _______ _______ _______ _____ _____    ______ ____

>  <TORSDO>
F 23

$$$$
=
 OpenBabel11052419373D

 55 59  0  0  1  0  0  0  0  0999 V2000
  189.6540  177.8840  147.8650 C   0  0  0  0  0  3  0  0  0  0  0  0
  190.4300  175.5290  146.5710 C   0  0  0  0  0  0  0  0  0  0  0  0
  189.0860  175.9120  146.5790 C   0  0  0  0  0  3  0  0  0  0  0  0
  190.9980  177.4990  147.8630 C   0  0  0  0  0  3  0  0  0  0  0  0
  188.6960  177.0860  147.2290 C   0  0  0  0  0  0  0  0  0  0  0  0
  191.3850  176.3220  147.2160 C   0  0  0  0  0  3  0  0  0  0  0  0
  190.8360  174.2800  145.8700 C   0  0  0  0  0  2  0  0  0  0  0  0
  191.9730  174.5570  144.9040 C   0  0  0  0  0  2  0  0  0  0  0  0
  193.1770  173.7140  145.2830 C   0  0  0  0  0  2  0  0  0  0  0  0
  194.4520  174.5040  145.0410 C   0  0  0  0  0  2  0  0  0  0  0  0
  194.9390  172.5120  143.7730 O   0  0  0  0  0  0  0  0  0  0  0  0
  195.5180  173.6110  144.4340 C   0  0  1  0  0  0  0  0  0  0  0  0
  195.5230  173.4990  142.9490 C   0  0  1  0  0  3  0  0  0  0  0  0
  197.5960  175.0380  141.4790 C   0  0  2  0  0  3  0  0  0  0  0  0
  195.6800  171.1910  141.0230 C   0  0  0  0  0  1  0  0  0  0  0  0
  196.8450  172.9760  142.3610 C   0  0  1  0  0  3  0  0  0  0  0  0
  196.7320  175.1430  137.7560 C   0  0  0  0  0  3  0  0  0  0  0  0
  197.9360  171.7560  140.6450 F   0  0  0  0  0  0  0  0  0  0  0  0
  196.7100  172.3090  140.9810 C   0  0  1  0  0  0  0  0  0  0  0  0
  196.7300  175.9630  142.0640 O   0  0  0  0  0  1  0  0  0  0  0  0
  196.3060  173.9060  137.4850 C   0  0  0  0  0  3  0  0  0  0  0  0
  196.4350  172.8100  138.5030 C   0  0  0  0  0  2  0  0  0  0  0  0
  197.1140  174.6280  140.1140 C   0  0  0  0  0  0  0  0  0  0  0  0
  196.3110  173.3580  139.9370 C   0  0  2  0  0  3  0  0  0  0  0  0
  197.2520  175.4810  139.0920 C   0  0  0  0  0  3  0  0  0  0  0  0
  197.8700  173.9590  142.3650 O   0  0  0  0  0  0  0  0  0  0  0  0
  196.7160  172.0540  145.8100 O   0  0  0  0  0  1  0  0  0  0  0  0
  196.6920  173.1930  145.2710 C   0  0  0  0  0  0  0  0  0  0  0  0
  197.7370  174.0800  145.4920 O   0  0  0  0  0  0  0  0  0  0  0  0
  187.2720  177.5130  147.1940 C   0  0  0  0  0  2  0  0  0  0  0  0
  186.5350  176.6730  146.2640 N   0  0  0  0  0  2  0  0  0  0  0  0
  185.8370  177.5620  145.3600 C   0  0  0  0  0  2  0  0  0  0  0  0
  185.4990  176.8170  144.0800 C   0  0  0  0  0  2  0  0  0  0  0  0
  186.2770  177.3390  142.8570 C   0  0  2  0  0  3  0  0  0  0  0  0
  185.5320  177.9640  140.6370 C   0  0  0  0  0  2  0  0  0  0  0  0
  183.3220  178.6800  141.2840 C   0  0  1  0  0  3  0  0  0  0  0  0
  185.5670  178.3420  142.0490 N   0  0  0  0  0  0  0  0  0  0  0  0
  184.1830  178.4490  142.5010 C   0  0  0  0  0  2  0  0  0  0  0  0
  184.1510  178.2570  140.0960 C   0  0  0  0  0  2  0  0  0  0  0  0
  181.9860  177.9380  141.3540 C   0  0  0  0  0  2  0  0  0  0  0  0
  180.2210  179.6990  141.2300 C   0  0  0  0  0  1  0  0  0  0  0  0
  180.8950  178.5610  140.4900 C   0  0  0  0  0  2  0  0  0  0  0  0
  186.7380  176.2870  142.0540 O   0  0  0  0  0  0  0  0  0  0  0  0
  188.1180  176.2170  142.2840 C   0  0  1  0  0  3  0  0  0  0  0  0
  188.6030  177.4370  143.0640 C   0  0  0  0  0  2  0  0  0  0  0  0
  190.7530  178.1960  144.0800 C   0  0  0  0  0  1  0  0  0  0  0  0
  190.0660  177.7660  142.7960 C   0  0  0  0  0  2  0  0  0  0  0  0
  188.5530  174.9070  142.9540 C   0  0  0  0  0  2  0  0  0  0  0  0
  189.0850  173.8660  142.0150 C   0  0  0  0  0  3  0  0  0  0  0  0
  189.4020  174.1710  140.7580 C   0  0  0  0  0  3  0  0  0  0  0  0
  190.0230  171.5730  140.3600 O   0  0  0  0  0  1  0  0  0  0  0  0
  191.6090  173.3020  139.2000 O   0  0  0  0  0  0  0  0  0  0  0  0
  190.0270  172.9110  139.6540 P   0  0  2  0  0  0  0  0  0  0  0  0
  189.6030  171.9300  137.3880 O   0  0  0  0  0  1  0  0  0  0  0  0
  189.0170  172.8180  138.2260 N   0  0  0  0  0  2  0  0  0  0  0  0
  2  3  2  0  0  0  0
  2  6  1  0  0  0  0
  3  5  1  0  0  0  0
  4  1  1  0  0  0  0
  5  1  2  0  0  0  0
  6  4  2  0  0  0  0
  7  2  1  0  0  0  0
  8  9  1  0  0  0  0
  8  7  1  0  0  0  0
 10  9  1  0  0  0  0
 11 12  1  0  0  0  0
 12 10  1  1  0  0  0
 12 28  1  0  0  0  0
 13 11  1  1  0  0  0
 13 12  1  0  0  0  0
 14 20  1  1  0  0  0
 14 26  1  0  0  0  0
 16 26  1  6  0  0  0
 16 13  1  0  0  0  0
 17 25  1  0  0  0  0
 18 19  1  0  0  0  0
 19 15  1  1  0  0  0
 19 16  1  0  0  0  0
 21 17  2  0  0  0  0
 21 22  1  0  0  0  0
 23 14  1  0  0  0  0
 24 22  1  6  0  0  0
 24 23  1  0  0  0  0
 24 19  1  0  0  0  0
 25 23  2  0  0  0  0
 28 29  2  0  0  0  0
 28 27  1  0  0  0  0
 30  5  1  0  0  0  0
 31 30  1  0  0  0  0
 32 31  1  0  0  0  0
 33 32  1  0  0  0  0
 34 33  1  1  0  0  0
 35 37  1  0  0  0  0
 36 40  1  1  0  0  0
 36 38  1  0  0  0  0
 37 38  1  0  0  0  0
 37 34  1  0  0  0  0
 39 35  1  0  0  0  0
 39 36  1  0  0  0  0
 42 41  1  0  0  0  0
 42 40  1  0  0  0  0
 43 44  1  0  0  0  0
 43 34  1  0  0  0  0
 44 48  1  1  0  0  0
 44 45  1  0  0  0  0
 47 45  1  0  0  0  0
 47 46  1  0  0  0  0
 49 48  1  0  0  0  0
 50 49  2  0  0  0  0
 53 52  2  6  0  0  0
 53 51  1  0  0  0  0
 53 50  1  0  0  0  0
 54 55  1  0  0  0  0
 55 53  1  0  0  0  0
M  END
>  <MODEL>
7

>  <REMARK>
 VINA RESULT:      -5.4      2.967      6.147
  Name = 
  23 active torsions:
  status: ('A' for Active; 'I' for Inactive)
    1  A    between atoms: C_2  and  N_28
    2  A    between atoms: C_2  and  C_44
    3  A    between atoms: C_6  and  C_46
    4  A    between atoms: C_10  and  C_32
    5  A    between atoms: C_10  and  C_47
    6  A    between atoms: C_15  and  C_23
    7  A    between atoms: C_16  and  C_17
    8  A    between atoms: C_16  and  C_26
    9  A    between atoms: C_17  and  C_23
   10  A    between atoms: C_17  and  O_36
   11  A    between atoms: N_19  and  P_40
   12  A    between atoms: C_20  and  C_22
   13  A    between atoms: C_22  and  C_35
   14  A    between atoms: C_27  and  C_54
   15  A    between atoms: N_28  and  C_49
   16  A    between atoms: C_33  and  C_49
   17  A    between atoms: C_33  and  C_52
   18  A    between atoms: N_34  and  C_52
   19  A    between atoms: C_35  and  C_43
   20  A    between atoms: O_36  and  C_52
   21  A    between atoms: P_40  and  C_45
   22  A    between atoms: C_43  and  C_51
   23  A    between atoms: C_51  and  C_54
                            x       y       z     vdW  Elec       q    Type
                         _______ _______ _______ _____ _____    ______ ____

>  <TORSDO>
F 23

$$$$
=
 OpenBabel11052419373D

 55 59  0  0  1  0  0  0  0  0999 V2000
  194.5920  174.6950  145.8970 C   0  0  0  0  0  3  0  0  0  0  0  0
  196.1400  176.0180  143.9790 C   0  0  0  0  0  0  0  0  0  0  0  0
  194.9020  176.5430  144.3620 C   0  0  0  0  0  3  0  0  0  0  0  0
  195.8270  174.1660  145.5110 C   0  0  0  0  0  3  0  0  0  0  0  0
  194.1260  175.8800  145.3170 C   0  0  0  0  0  0  0  0  0  0  0  0
  196.6000  174.8270  144.5520 C   0  0  0  0  0  3  0  0  0  0  0  0
  196.9620  176.7350  142.9660 C   0  0  0  0  0  2  0  0  0  0  0  0
  197.5550  175.7530  141.9710 C   0  0  0  0  0  2  0  0  0  0  0  0
  196.9680  176.0090  140.5960 C   0  0  0  0  0  2  0  0  0  0  0  0
  195.6190  175.3190  140.4790 C   0  0  0  0  0  2  0  0  0  0  0  0
  195.2350  172.9440  140.3230 O   0  0  0  0  0  0  0  0  0  0  0  0
  195.7400  174.0640  139.6360 C   0  0  1  0  0  0  0  0  0  0  0  0
  194.4650  173.4090  139.2350 C   0  0  1  0  0  3  0  0  0  0  0  0
  193.0610  173.5320  136.6190 C   0  0  2  0  0  3  0  0  0  0  0  0
  194.0580  170.4340  139.4640 C   0  0  0  0  0  1  0  0  0  0  0  0
  194.6000  172.4410  138.0450 C   0  0  1  0  0  3  0  0  0  0  0  0
  189.6990  171.7270  136.8700 C   0  0  0  0  0  3  0  0  0  0  0  0
  194.0850  170.3240  137.1100 F   0  0  0  0  0  0  0  0  0  0  0  0
  193.7530  171.1620  138.1630 C   0  0  1  0  0  0  0  0  0  0  0  0
  192.8490  174.7530  137.2610 O   0  0  0  0  0  1  0  0  0  0  0  0
  189.9690  170.6330  137.5860 C   0  0  0  0  0  3  0  0  0  0  0  0
  191.3860  170.2660  137.9230 C   0  0  0  0  0  2  0  0  0  0  0  0
  192.0040  172.5290  136.9950 C   0  0  0  0  0  0  0  0  0  0  0  0
  192.2650  171.5200  138.0920 C   0  0  2  0  0  3  0  0  0  0  0  0
  190.7780  172.6490  136.4740 C   0  0  0  0  0  3  0  0  0  0  0  0
  194.3990  173.0840  136.7950 O   0  0  0  0  0  0  0  0  0  0  0  0
  197.8210  172.8850  139.4450 O   0  0  0  0  0  1  0  0  0  0  0  0
  197.0450  173.7520  138.9610 C   0  0  0  0  0  0  0  0  0  0  0  0
  197.4240  174.4560  137.8260 O   0  0  0  0  0  0  0  0  0  0  0  0
  192.8320  176.4670  145.7540 C   0  0  0  0  0  2  0  0  0  0  0  0
  192.3590  175.7740  146.9410 N   0  0  0  0  0  2  0  0  0  0  0  0
  191.0760  176.3530  147.2810 C   0  0  0  0  0  2  0  0  0  0  0  0
  190.0410  175.2480  147.4040 C   0  0  0  0  0  2  0  0  0  0  0  0
  189.2300  175.0390  146.1100 C   0  0  2  0  0  3  0  0  0  0  0  0
  189.8710  172.8990  145.1700 C   0  0  0  0  0  2  0  0  0  0  0  0
  189.4070  173.4630  142.8710 C   0  0  1  0  0  3  0  0  0  0  0  0
  189.9510  174.3530  145.0280 N   0  0  0  0  0  0  0  0  0  0  0  0
  189.3520  174.6940  143.7410 C   0  0  0  0  0  2  0  0  0  0  0  0
  189.6240  172.2970  143.8050 C   0  0  0  0  0  2  0  0  0  0  0  0
  188.1550  173.2910  142.0080 C   0  0  0  0  0  2  0  0  0  0  0  0
  189.9100  173.3040  140.2320 C   0  0  0  0  0  1  0  0  0  0  0  0
  188.4590  172.9920  140.5440 C   0  0  0  0  0  2  0  0  0  0  0  0
  188.6720  176.2410  145.6540 O   0  0  0  0  0  0  0  0  0  0  0  0
  187.3560  176.2500  146.1350 C   0  0  1  0  0  3  0  0  0  0  0  0
  187.1870  177.2890  147.2410 C   0  0  0  0  0  2  0  0  0  0  0  0
  186.0420  179.4170  147.8660 C   0  0  0  0  0  1  0  0  0  0  0  0
  186.6460  178.6160  146.7260 C   0  0  0  0  0  2  0  0  0  0  0  0
  186.3100  176.4280  145.0280 C   0  0  0  0  0  2  0  0  0  0  0  0
  186.8410  176.9940  143.7450 C   0  0  0  0  0  3  0  0  0  0  0  0
  186.3350  176.6270  142.5690 C   0  0  0  0  0  3  0  0  0  0  0  0
  187.4150  176.1850  140.1340 O   0  0  0  0  0  0  0  0  0  0  0  0
  188.3280  178.2800  141.4080 O   0  0  0  0  0  1  0  0  0  0  0  0
  186.9900  177.3090  141.0520 P   0  0  2  0  0  0  0  0  0  0  0  0
  184.5660  177.8590  140.7340 O   0  0  0  0  0  1  0  0  0  0  0  0
  185.7630  178.2760  140.2570 N   0  0  0  0  0  2  0  0  0  0  0  0
  2  3  2  0  0  0  0
  2  6  1  0  0  0  0
  3  5  1  0  0  0  0
  4  1  1  0  0  0  0
  5 30  1  0  0  0  0
  5  1  2  0  0  0  0
  6  4  2  0  0  0  0
  7  2  1  0  0  0  0
  8  7  1  0  0  0  0
  9  8  1  0  0  0  0
 10  9  1  0  0  0  0
 12 11  1  0  0  0  0
 12 10  1  1  0  0  0
 13 12  1  0  0  0  0
 13 11  1  1  0  0  0
 14 26  1  0  0  0  0
 14 23  1  0  0  0  0
 14 20  1  1  0  0  0
 16 26  1  6  0  0  0
 16 19  1  0  0  0  0
 16 13  1  0  0  0  0
 17 21  2  0  0  0  0
 18 19  1  0  0  0  0
 19 15  1  1  0  0  0
 21 22  1  0  0  0  0
 23 24  1  0  0  0  0
 24 22  1  6  0  0  0
 24 19  1  0  0  0  0
 25 17  1  0  0  0  0
 25 23  2  0  0  0  0
 28 27  1  0  0  0  0
 28 12  1  0  0  0  0
 29 28  2  0  0  0  0
 30 31  1  0  0  0  0
 31 32  1  0  0  0  0
 32 33  1  0  0  0  0
 34 33  1  1  0  0  0
 36 40  1  1  0  0  0
 36 38  1  0  0  0  0
 36 39  1  0  0  0  0
 37 35  1  0  0  0  0
 37 34  1  0  0  0  0
 38 37  1  0  0  0  0
 39 35  1  0  0  0  0
 41 42  1  0  0  0  0
 42 40  1  0  0  0  0
 43 34  1  0  0  0  0
 43 44  1  0  0  0  0
 44 48  1  6  0  0  0
 44 45  1  0  0  0  0
 47 45  1  0  0  0  0
 47 46  1  0  0  0  0
 49 48  1  0  0  0  0
 50 49  2  0  0  0  0
 53 51  2  6  0  0  0
 53 52  1  0  0  0  0
 53 50  1  0  0  0  0
 55 54  1  0  0  0  0
 55 53  1  0  0  0  0
M  END
>  <MODEL>
8

>  <REMARK>
 VINA RESULT:      -5.4      2.859      6.562
  Name = 
  23 active torsions:
  status: ('A' for Active; 'I' for Inactive)
    1  A    between atoms: C_2  and  N_28
    2  A    between atoms: C_2  and  C_44
    3  A    between atoms: C_6  and  C_46
    4  A    between atoms: C_10  and  C_32
    5  A    between atoms: C_10  and  C_47
    6  A    between atoms: C_15  and  C_23
    7  A    between atoms: C_16  and  C_17
    8  A    between atoms: C_16  and  C_26
    9  A    between atoms: C_17  and  C_23
   10  A    between atoms: C_17  and  O_36
   11  A    between atoms: N_19  and  P_40
   12  A    between atoms: C_20  and  C_22
   13  A    between atoms: C_22  and  C_35
   14  A    between atoms: C_27  and  C_54
   15  A    between atoms: N_28  and  C_49
   16  A    between atoms: C_33  and  C_49
   17  A    between atoms: C_33  and  C_52
   18  A    between atoms: N_34  and  C_52
   19  A    between atoms: C_35  and  C_43
   20  A    between atoms: O_36  and  C_52
   21  A    between atoms: P_40  and  C_45
   22  A    between atoms: C_43  and  C_51
   23  A    between atoms: C_51  and  C_54
                            x       y       z     vdW  Elec       q    Type
                         _______ _______ _______ _____ _____    ______ ____

>  <TORSDO>
F 23

$$$$
=
 OpenBabel11052419373D

 55 59  0  0  1  0  0  0  0  0999 V2000
  185.1260  177.5110  145.6340 C   0  0  0  0  0  3  0  0  0  0  0  0
  187.8640  177.3730  146.1890 C   0  0  0  0  0  0  0  0  0  0  0  0
  187.4060  177.1940  144.8810 C   0  0  0  0  0  3  0  0  0  0  0  0
  185.5820  177.6850  146.9430 C   0  0  0  0  0  3  0  0  0  0  0  0
  186.0380  177.2580  144.6020 C   0  0  0  0  0  0  0  0  0  0  0  0
  186.9510  177.6150  147.2210 C   0  0  0  0  0  3  0  0  0  0  0  0
  189.3240  177.3090  146.4740 C   0  0  0  0  0  2  0  0  0  0  0  0
  190.1250  177.5720  145.2120 C   0  0  0  0  0  2  0  0  0  0  0  0
  191.1850  176.5000  145.0510 C   0  0  0  0  0  2  0  0  0  0  0  0
  192.2970  177.0090  144.1490 C   0  0  0  0  0  2  0  0  0  0  0  0
  193.6920  175.1320  144.7350 O   0  0  0  0  0  0  0  0  0  0  0  0
  193.6460  176.5360  144.6560 C   0  0  1  0  0  0  0  0  0  0  0  0
  194.4630  175.7250  143.7120 C   0  0  1  0  0  3  0  0  0  0  0  0
  196.7730  176.6640  142.0970 C   0  0  2  0  0  3  0  0  0  0  0  0
  195.8620  173.1690  144.4710 C   0  0  0  0  0  1  0  0  0  0  0  0
  195.9570  175.6520  144.0730 C   0  0  1  0  0  3  0  0  0  0  0  0
  197.8830  173.9010  139.6980 C   0  0  0  0  0  3  0  0  0  0  0  0
  197.9080  174.3230  144.2910 F   0  0  0  0  0  0  0  0  0  0  0  0
  196.6190  174.2940  143.7820 C   0  0  1  0  0  0  0  0  0  0  0  0
  195.6190  177.1890  141.5140 O   0  0  0  0  0  1  0  0  0  0  0  0
  197.8140  172.7860  140.4310 C   0  0  0  0  0  3  0  0  0  0  0  0
  197.5580  172.8540  141.9090 C   0  0  0  0  0  2  0  0  0  0  0  0
  197.0970  175.3050  141.5370 C   0  0  0  0  0  0  0  0  0  0  0  0
  196.6630  174.0540  142.2690 C   0  0  2  0  0  3  0  0  0  0  0  0
  197.6150  175.2150  140.3070 C   0  0  0  0  0  3  0  0  0  0  0  0
  196.7040  176.7240  143.5160 O   0  0  0  0  0  0  0  0  0  0  0  0
  194.0160  176.6890  147.0220 O   0  0  0  0  0  1  0  0  0  0  0  0
  194.2380  177.1740  145.8800 C   0  0  0  0  0  0  0  0  0  0  0  0
  194.9950  178.3330  145.7600 O   0  0  0  0  0  0  0  0  0  0  0  0
  185.5610  177.1140  143.2020 C   0  0  0  0  0  2  0  0  0  0  0  0
  186.2780  176.0280  142.5530 N   0  0  0  0  0  2  0  0  0  0  0  0
  187.6000  176.5280  142.2380 C   0  0  0  0  0  2  0  0  0  0  0  0
  188.0390  175.9780  140.8920 C   0  0  0  0  0  2  0  0  0  0  0  0
  188.5590  174.5300  140.9760 C   0  0  2  0  0  3  0  0  0  0  0  0
  188.4590  172.6340  142.4820 C   0  0  0  0  0  2  0  0  0  0  0  0
  190.6350  172.9550  143.4690 C   0  0  1  0  0  3  0  0  0  0  0  0
  188.8250  174.0420  142.3380 N   0  0  0  0  0  0  0  0  0  0  0  0
  190.2520  174.1490  142.6300 C   0  0  0  0  0  2  0  0  0  0  0  0
  189.5380  171.9360  143.2790 C   0  0  0  0  0  2  0  0  0  0  0  0
  192.0140  172.3970  143.1090 C   0  0  0  0  0  2  0  0  0  0  0  0
  193.3790  171.9410  141.0690 C   0  0  0  0  0  1  0  0  0  0  0  0
  192.6000  172.9930  141.8340 C   0  0  0  0  0  2  0  0  0  0  0  0
  189.6750  174.3370  140.1500 O   0  0  0  0  0  0  0  0  0  0  0  0
  189.2160  173.5630  139.0760 C   0  0  1  0  0  3  0  0  0  0  0  0
  187.8210  174.0060  138.6420 C   0  0  0  0  0  2  0  0  0  0  0  0
  187.4840  175.9650  137.1330 C   0  0  0  0  0  1  0  0  0  0  0  0
  187.7750  174.4760  137.1940 C   0  0  0  0  0  2  0  0  0  0  0  0
  190.1930  173.5330  137.8930 C   0  0  0  0  0  2  0  0  0  0  0  0
  191.6150  173.8580  138.2420 C   0  0  0  0  0  3  0  0  0  0  0  0
  192.5250  174.0710  137.2930 C   0  0  0  0  0  3  0  0  0  0  0  0
  195.0160  173.1690  137.8130 O   0  0  0  0  0  0  0  0  0  0  0  0
  194.2410  175.2230  139.2370 O   0  0  0  0  0  1  0  0  0  0  0  0
  194.2160  174.4500  137.7330 P   0  0  2  0  0  0  0  0  0  0  0  0
  194.3210  175.2060  135.3470 O   0  0  0  0  0  1  0  0  0  0  0  0
  194.9220  175.5020  136.5240 N   0  0  0  0  0  2  0  0  0  0  0  0
  1  4  1  0  0  0  0
  2  7  1  0  0  0  0
  2  6  1  0  0  0  0
  3  2  2  0  0  0  0
  4  6  2  0  0  0  0
  5  3  1  0  0  0  0
  5  1  2  0  0  0  0
  8  7  1  0  0  0  0
  9  8  1  0  0  0  0
 10  9  1  0  0  0  0
 12 10  1  6  0  0  0
 12 11  1  0  0  0  0
 12 28  1  0  0  0  0
 13 16  1  0  0  0  0
 13 12  1  0  0  0  0
 13 11  1  1  0  0  0
 14 20  1  6  0  0  0
 14 26  1  0  0  0  0
 16 26  1  6  0  0  0
 17 25  1  0  0  0  0
 17 21  2  0  0  0  0
 19 16  1  0  0  0  0
 19 18  1  0  0  0  0
 19 15  1  1  0  0  0
 21 22  1  0  0  0  0
 23 14  1  0  0  0  0
 23 24  1  0  0  0  0
 24 22  1  1  0  0  0
 24 19  1  0  0  0  0
 25 23  2  0  0  0  0
 28 27  1  0  0  0  0
 29 28  2  0  0  0  0
 30  5  1  0  0  0  0
 31 30  1  0  0  0  0
 32 31  1  0  0  0  0
 33 32  1  0  0  0  0
 34 33  1  1  0  0  0
 34 37  1  0  0  0  0
 35 39  1  0  0  0  0
 36 40  1  6  0  0  0
 37 35  1  0  0  0  0
 37 38  1  0  0  0  0
 38 36  1  0  0  0  0
 39 36  1  0  0  0  0
 41 42  1  0  0  0  0
 42 40  1  0  0  0  0
 43 34  1  0  0  0  0
 44 48  1  6  0  0  0
 44 43  1  0  0  0  0
 45 44  1  0  0  0  0
 46 47  1  0  0  0  0
 47 45  1  0  0  0  0
 48 49  1  0  0  0  0
 50 53  1  0  0  0  0
 50 49  2  0  0  0  0
 53 51  2  1  0  0  0
 53 52  1  0  0  0  0
 54 55  1  0  0  0  0
 55 53  1  0  0  0  0
M  END
>  <MODEL>
9

>  <REMARK>
 VINA RESULT:      -5.4      2.665      7.251
  Name = 
  23 active torsions:
  status: ('A' for Active; 'I' for Inactive)
    1  A    between atoms: C_2  and  N_28
    2  A    between atoms: C_2  and  C_44
    3  A    between atoms: C_6  and  C_46
    4  A    between atoms: C_10  and  C_32
    5  A    between atoms: C_10  and  C_47
    6  A    between atoms: C_15  and  C_23
    7  A    between atoms: C_16  and  C_17
    8  A    between atoms: C_16  and  C_26
    9  A    between atoms: C_17  and  C_23
   10  A    between atoms: C_17  and  O_36
   11  A    between atoms: N_19  and  P_40
   12  A    between atoms: C_20  and  C_22
   13  A    between atoms: C_22  and  C_35
   14  A    between atoms: C_27  and  C_54
   15  A    between atoms: N_28  and  C_49
   16  A    between atoms: C_33  and  C_49
   17  A    between atoms: C_33  and  C_52
   18  A    between atoms: N_34  and  C_52
   19  A    between atoms: C_35  and  C_43
   20  A    between atoms: O_36  and  C_52
   21  A    between atoms: P_40  and  C_45
   22  A    between atoms: C_43  and  C_51
   23  A    between atoms: C_51  and  C_54
                            x       y       z     vdW  Elec       q    Type
                         _______ _______ _______ _____ _____    ______ ____

>  <TORSDO>
F 23

$$$$
