=
 OpenBabel11052417263D

 25 27  0  0  0  0  0  0  0  0999 V2000
  189.2030  175.5690  143.5270 C   0  0  0  0  0  0  0  0  0  0  0  0
  188.2650  176.4820  143.0050 C   0  0  0  0  0  0  0  0  0  0  0  0
  189.3160  174.4970  141.4080 C   0  0  0  0  0  3  0  0  0  0  0  0
  188.4120  175.3670  140.8910 N   0  0  0  0  0  0  0  0  0  0  0  0
  186.9310  177.2480  141.1480 C   0  0  0  0  0  0  0  0  0  0  0  0
  186.4760  177.1670  139.7310 C   0  0  0  0  0  1  0  0  0  0  0  0
  187.7080  177.4550  143.7730 N   0  0  0  0  0  0  0  0  0  0  0  0
  189.7000  174.6020  142.7070 N   0  0  0  0  0  0  0  0  0  0  0  0
  186.4070  178.2060  141.9590 N   0  0  0  0  0  0  0  0  0  0  0  0
  186.7900  178.3160  143.2580 C   0  0  0  0  0  0  0  0  0  0  0  0
  187.8780  176.3520  141.6600 C   0  0  0  0  0  0  0  0  0  0  0  0
  189.6740  175.6350  144.9350 C   0  0  0  0  0  0  0  0  0  0  0  0
  190.5080  175.7790  147.5910 C   0  0  0  0  0  3  0  0  0  0  0  0
  190.7760  176.4280  145.3190 C   0  0  0  0  0  0  0  0  0  0  0  0
  191.1600  176.4740  146.6230 N   0  0  0  0  0  0  0  0  0  0  0  0
  189.4100  174.9860  147.2610 C   0  0  0  0  0  3  0  0  0  0  0  0
  191.5250  177.1610  144.3530 N   0  0  0  0  0  1  0  0  0  0  0  0
  188.9960  174.9190  145.9320 C   0  0  0  0  0  3  0  0  0  0  0  0
  186.1800  179.3610  144.1280 C   0  0  0  0  0  2  0  0  0  0  0  0
  184.9760  178.8110  144.8370 C   0  0  0  0  0  0  0  0  0  0  0  0
  183.9070  178.7990  144.2430 O   0  0  0  0  0  0  0  0  0  0  0  0
  183.6920  178.2910  146.8880 C   0  0  0  0  0  1  0  0  0  0  0  0
  185.5340  176.7910  146.2390 C   0  0  0  0  0  1  0  0  0  0  0  0
  186.0330  179.0530  147.0660 C   0  0  0  0  0  1  0  0  0  0  0  0
  185.0600  178.2370  146.2360 C   0  0  0  0  0  0  0  0  0  0  0  0
  1 12  1  0  0  0  0
  2  1  1  0  0  0  0
  2  7  1  0  0  0  0
  3  8  1  0  0  0  0
  4  3  2  0  0  0  0
  4 11  1  0  0  0  0
  5 11  1  0  0  0  0
  5  9  2  0  0  0  0
  6  5  1  0  0  0  0
  8  1  2  0  0  0  0
  9 10  1  0  0  0  0
 10  7  2  0  0  0  0
 10 19  1  0  0  0  0
 11  2  2  0  0  0  0
 12 14  2  0  0  0  0
 12 18  1  0  0  0  0
 14 15  1  0  0  0  0
 15 13  2  0  0  0  0
 16 13  1  0  0  0  0
 17 14  1  0  0  0  0
 18 16  2  0  0  0  0
 19 20  1  0  0  0  0
 20 25  1  0  0  0  0
 21 20  2  0  0  0  0
 25 23  1  0  0  0  0
 25 22  1  0  0  0  0
 25 24  1  0  0  0  0
M  END
>  <MODEL>
1

>  <REMARK>
 VINA RESULT:      -7.1      0.000      0.000
  Name = 
  4 active torsions:
  status: ('A' for Active; 'I' for Inactive)
    1  A    between atoms: C_1  and  C_5
    2  A    between atoms: C_6  and  C_15
    3  A    between atoms: C_6  and  C_23
    4  A    between atoms: C_15  and  C_21
                            x       y       z     vdW  Elec       q    Type
                         _______ _______ _______ _____ _____    ______ ____

>  <TORSDO>
F 4

$$$$
=
 OpenBabel11052417263D

 25 27  0  0  0  0  0  0  0  0999 V2000
  187.6650  176.1770  141.9720 C   0  0  0  0  0  0  0  0  0  0  0  0
  187.3180  176.9100  143.1250 C   0  0  0  0  0  0  0  0  0  0  0  0
  186.4260  177.7110  140.6430 C   0  0  0  0  0  3  0  0  0  0  0  0
  186.0820  178.4270  141.7440 N   0  0  0  0  0  0  0  0  0  0  0  0
  186.1480  178.7660  144.1270 C   0  0  0  0  0  0  0  0  0  0  0  0
  185.2920  179.9820  144.0430 C   0  0  0  0  0  1  0  0  0  0  0  0
  187.7190  176.5270  144.3660 N   0  0  0  0  0  0  0  0  0  0  0  0
  187.2050  176.6040  140.7630 N   0  0  0  0  0  0  0  0  0  0  0  0
  186.5790  178.3400  145.3440 N   0  0  0  0  0  0  0  0  0  0  0  0
  187.3600  177.2350  145.4690 C   0  0  0  0  0  0  0  0  0  0  0  0
  186.5080  178.0490  142.9780 C   0  0  0  0  0  0  0  0  0  0  0  0
  188.5210  174.9650  142.0320 C   0  0  0  0  0  0  0  0  0  0  0  0
  190.0990  172.6720  142.1900 C   0  0  0  0  0  3  0  0  0  0  0  0
  189.9150  175.0430  142.2370 C   0  0  0  0  0  0  0  0  0  0  0  0
  190.6580  173.9050  142.3050 N   0  0  0  0  0  0  0  0  0  0  0  0
  188.7260  172.5440  141.9920 C   0  0  0  0  0  3  0  0  0  0  0  0
  190.5730  176.3030  142.3370 N   0  0  0  0  0  1  0  0  0  0  0  0
  187.9410  173.6930  141.9170 C   0  0  0  0  0  3  0  0  0  0  0  0
  187.7960  176.7810  146.8200 C   0  0  0  0  0  2  0  0  0  0  0  0
  189.2930  176.6780  146.8770 C   0  0  0  0  0  0  0  0  0  0  0  0
  189.9490  177.7080  146.8060 O   0  0  0  0  0  0  0  0  0  0  0  0
  189.0120  174.3160  147.5640 C   0  0  0  0  0  1  0  0  0  0  0  0
  190.6150  174.8390  145.7690 C   0  0  0  0  0  1  0  0  0  0  0  0
  191.1120  175.5040  148.0840 C   0  0  0  0  0  1  0  0  0  0  0  0
  190.0010  175.3520  147.0630 C   0  0  0  0  0  0  0  0  0  0  0  0
  1 12  1  0  0  0  0
  1  2  1  0  0  0  0
  2  7  1  0  0  0  0
  3  8  1  0  0  0  0
  3  4  2  0  0  0  0
  4 11  1  0  0  0  0
  5  9  2  0  0  0  0
  6  5  1  0  0  0  0
  7 10  2  0  0  0  0
  8  1  2  0  0  0  0
  9 10  1  0  0  0  0
 10 19  1  0  0  0  0
 11  2  2  0  0  0  0
 11  5  1  0  0  0  0
 12 14  1  0  0  0  0
 13 15  1  0  0  0  0
 14 15  2  0  0  0  0
 14 17  1  0  0  0  0
 16 13  2  0  0  0  0
 18 16  1  0  0  0  0
 18 12  2  0  0  0  0
 19 20  1  0  0  0  0
 20 25  1  0  0  0  0
 21 20  2  0  0  0  0
 23 25  1  0  0  0  0
 25 22  1  0  0  0  0
 25 24  1  0  0  0  0
M  END
>  <MODEL>
2

>  <REMARK>
 VINA RESULT:      -7.0      2.209      4.478
  Name = 
  4 active torsions:
  status: ('A' for Active; 'I' for Inactive)
    1  A    between atoms: C_1  and  C_5
    2  A    between atoms: C_6  and  C_15
    3  A    between atoms: C_6  and  C_23
    4  A    between atoms: C_15  and  C_21
                            x       y       z     vdW  Elec       q    Type
                         _______ _______ _______ _____ _____    ______ ____

>  <TORSDO>
F 4

$$$$
=
 OpenBabel11052417263D

 25 27  0  0  0  0  0  0  0  0999 V2000
  190.1780  176.8070  143.3570 C   0  0  0  0  0  0  0  0  0  0  0  0
  189.8950  176.7070  144.7340 C   0  0  0  0  0  0  0  0  0  0  0  0
  192.5020  176.8560  143.8540 C   0  0  0  0  0  3  0  0  0  0  0  0
  192.2470  176.7610  145.1840 N   0  0  0  0  0  0  0  0  0  0  0  0
  190.6850  176.6080  147.0110 C   0  0  0  0  0  0  0  0  0  0  0  0
  191.7760  176.5860  148.0260 C   0  0  0  0  0  1  0  0  0  0  0  0
  188.6210  176.6580  145.2030 N   0  0  0  0  0  0  0  0  0  0  0  0
  191.4790  176.8790  142.9600 N   0  0  0  0  0  0  0  0  0  0  0  0
  189.3920  176.5600  147.4260 N   0  0  0  0  0  0  0  0  0  0  0  0
  188.3650  176.5800  146.5360 C   0  0  0  0  0  0  0  0  0  0  0  0
  190.9690  176.6890  145.6410 C   0  0  0  0  0  0  0  0  0  0  0  0
  189.1070  176.8270  142.3280 C   0  0  0  0  0  0  0  0  0  0  0  0
  187.0610  176.8810  140.4350 C   0  0  0  0  0  3  0  0  0  0  0  0
  188.6920  175.6560  141.6570 C   0  0  0  0  0  0  0  0  0  0  0  0
  187.6930  175.7180  140.7360 N   0  0  0  0  0  0  0  0  0  0  0  0
  187.4310  178.0630  141.0750 C   0  0  0  0  0  3  0  0  0  0  0  0
  189.3310  174.4060  141.9010 N   0  0  0  0  0  1  0  0  0  0  0  0
  188.4530  178.0290  142.0220 C   0  0  0  0  0  3  0  0  0  0  0  0
  186.9570  176.5490  147.0230 C   0  0  0  0  0  2  0  0  0  0  0  0
  186.3050  177.8860  146.8190 C   0  0  0  0  0  0  0  0  0  0  0  0
  186.5310  178.7730  147.6300 O   0  0  0  0  0  0  0  0  0  0  0  0
  185.9660  179.3700  144.8670 C   0  0  0  0  0  1  0  0  0  0  0  0
  185.3450  176.9960  144.6640 C   0  0  0  0  0  1  0  0  0  0  0  0
  184.0130  178.4900  146.0930 C   0  0  0  0  0  1  0  0  0  0  0  0
  185.4200  178.1740  145.6230 C   0  0  0  0  0  0  0  0  0  0  0  0
  1  2  1  0  0  0  0
  2  7  1  0  0  0  0
  2 11  2  0  0  0  0
  3  4  2  0  0  0  0
  4 11  1  0  0  0  0
  5  9  2  0  0  0  0
  5  6  1  0  0  0  0
  7 10  2  0  0  0  0
  8  1  2  0  0  0  0
  8  3  1  0  0  0  0
 10 19  1  0  0  0  0
 10  9  1  0  0  0  0
 11  5  1  0  0  0  0
 12  1  1  0  0  0  0
 13 15  2  0  0  0  0
 13 16  1  0  0  0  0
 14 17  1  0  0  0  0
 14 12  2  0  0  0  0
 15 14  1  0  0  0  0
 16 18  2  0  0  0  0
 18 12  1  0  0  0  0
 20 19  1  0  0  0  0
 20 21  2  0  0  0  0
 22 25  1  0  0  0  0
 23 25  1  0  0  0  0
 25 24  1  0  0  0  0
 25 20  1  0  0  0  0
M  END
>  <MODEL>
3

>  <REMARK>
 VINA RESULT:      -6.9      1.637      4.902
  Name = 
  4 active torsions:
  status: ('A' for Active; 'I' for Inactive)
    1  A    between atoms: C_1  and  C_5
    2  A    between atoms: C_6  and  C_15
    3  A    between atoms: C_6  and  C_23
    4  A    between atoms: C_15  and  C_21
                            x       y       z     vdW  Elec       q    Type
                         _______ _______ _______ _____ _____    ______ ____

>  <TORSDO>
F 4

$$$$
=
 OpenBabel11052417263D

 25 27  0  0  0  0  0  0  0  0999 V2000
  187.4870  177.5240  144.7680 C   0  0  0  0  0  0  0  0  0  0  0  0
  187.2600  177.1740  143.4230 C   0  0  0  0  0  0  0  0  0  0  0  0
  185.8560  179.2440  144.5790 C   0  0  0  0  0  3  0  0  0  0  0  0
  185.6280  178.9200  143.2800 N   0  0  0  0  0  0  0  0  0  0  0  0
  186.1000  177.5670  141.3450 C   0  0  0  0  0  0  0  0  0  0  0  0
  185.1080  178.3010  140.5100 C   0  0  0  0  0  1  0  0  0  0  0  0
  187.9540  176.1760  142.8150 N   0  0  0  0  0  0  0  0  0  0  0  0
  186.7740  178.5530  145.3050 N   0  0  0  0  0  0  0  0  0  0  0  0
  186.8190  176.5580  140.7870 N   0  0  0  0  0  0  0  0  0  0  0  0
  187.7360  175.8630  141.5100 C   0  0  0  0  0  0  0  0  0  0  0  0
  186.3100  177.9050  142.6890 C   0  0  0  0  0  0  0  0  0  0  0  0
  188.4670  176.8040  145.6210 C   0  0  0  0  0  0  0  0  0  0  0  0
  190.2810  175.4710  147.2660 C   0  0  0  0  0  3  0  0  0  0  0  0
  189.8440  177.1160  145.6040 C   0  0  0  0  0  0  0  0  0  0  0  0
  190.7030  176.4430  146.4180 N   0  0  0  0  0  0  0  0  0  0  0  0
  188.9300  175.1310  147.3220 C   0  0  0  0  0  3  0  0  0  0  0  0
  190.3620  178.1040  144.7190 N   0  0  0  0  0  1  0  0  0  0  0  0
  188.0270  175.8030  146.4990 C   0  0  0  0  0  3  0  0  0  0  0  0
  188.5270  174.7770  140.8630 C   0  0  0  0  0  2  0  0  0  0  0  0
  188.5420  173.5540  141.7320 C   0  0  0  0  0  0  0  0  0  0  0  0
  187.5130  172.9010  141.8340 O   0  0  0  0  0  0  0  0  0  0  0  0
  191.0040  173.7780  141.8410 C   0  0  0  0  0  1  0  0  0  0  0  0
  189.7630  173.3960  143.9330 C   0  0  0  0  0  1  0  0  0  0  0  0
  189.9520  171.5890  142.2750 C   0  0  0  0  0  1  0  0  0  0  0  0
  189.7950  173.0880  142.4430 C   0  0  0  0  0  0  0  0  0  0  0  0
  1  8  1  0  0  0  0
  1 12  1  0  0  0  0
  2  1  2  0  0  0  0
  3  8  2  0  0  0  0
  4  3  1  0  0  0  0
  5 11  1  0  0  0  0
  6  5  1  0  0  0  0
  7  2  1  0  0  0  0
  9  5  2  0  0  0  0
  9 10  1  0  0  0  0
 10  7  2  0  0  0  0
 11  4  2  0  0  0  0
 11  2  1  0  0  0  0
 12 18  1  0  0  0  0
 13 16  1  0  0  0  0
 14 12  2  0  0  0  0
 14 15  1  0  0  0  0
 15 13  2  0  0  0  0
 17 14  1  0  0  0  0
 18 16  2  0  0  0  0
 19 10  1  0  0  0  0
 19 20  1  0  0  0  0
 20 21  2  0  0  0  0
 20 25  1  0  0  0  0
 22 25  1  0  0  0  0
 24 25  1  0  0  0  0
 25 23  1  0  0  0  0
M  END
>  <MODEL>
4

>  <REMARK>
 VINA RESULT:      -6.8      2.189      4.821
  Name = 
  4 active torsions:
  status: ('A' for Active; 'I' for Inactive)
    1  A    between atoms: C_1  and  C_5
    2  A    between atoms: C_6  and  C_15
    3  A    between atoms: C_6  and  C_23
    4  A    between atoms: C_15  and  C_21
                            x       y       z     vdW  Elec       q    Type
                         _______ _______ _______ _____ _____    ______ ____

>  <TORSDO>
F 4

$$$$
=
 OpenBabel11052417263D

 25 27  0  0  0  0  0  0  0  0999 V2000
  185.1780  177.8760  143.5550 C   0  0  0  0  0  0  0  0  0  0  0  0
  186.1570  177.4160  142.6520 C   0  0  0  0  0  0  0  0  0  0  0  0
  183.7010  178.2640  141.7320 C   0  0  0  0  0  3  0  0  0  0  0  0
  184.6350  177.8260  140.8490 N   0  0  0  0  0  0  0  0  0  0  0  0
  186.8350  176.9660  140.3810 C   0  0  0  0  0  0  0  0  0  0  0  0
  186.5790  176.9300  138.9140 C   0  0  0  0  0  1  0  0  0  0  0  0
  187.3870  177.0160  143.0690 N   0  0  0  0  0  0  0  0  0  0  0  0
  183.9760  178.2870  143.0630 N   0  0  0  0  0  0  0  0  0  0  0  0
  188.0480  176.5750  140.8530 N   0  0  0  0  0  0  0  0  0  0  0  0
  188.3260  176.5930  142.1830 C   0  0  0  0  0  0  0  0  0  0  0  0
  185.8530  177.4060  141.2790 C   0  0  0  0  0  0  0  0  0  0  0  0
  185.4100  177.9160  145.0210 C   0  0  0  0  0  0  0  0  0  0  0  0
  185.7940  177.9680  147.7820 C   0  0  0  0  0  3  0  0  0  0  0  0
  185.5400  179.1330  145.7240 C   0  0  0  0  0  0  0  0  0  0  0  0
  185.7310  179.1240  147.0720 N   0  0  0  0  0  0  0  0  0  0  0  0
  185.6650  176.7420  147.1330 C   0  0  0  0  0  3  0  0  0  0  0  0
  185.5140  180.3830  145.0400 N   0  0  0  0  0  1  0  0  0  0  0  0
  185.4700  176.7220  145.7530 C   0  0  0  0  0  3  0  0  0  0  0  0
  189.6740  176.1800  142.6670 C   0  0  0  0  0  2  0  0  0  0  0  0
  190.1020  177.0430  143.8170 C   0  0  0  0  0  0  0  0  0  0  0  0
  190.4330  178.1980  143.5860 O   0  0  0  0  0  0  0  0  0  0  0  0
  191.5050  176.5650  145.8000 C   0  0  0  0  0  1  0  0  0  0  0  0
  189.2110  177.3890  146.1510 C   0  0  0  0  0  1  0  0  0  0  0  0
  189.5740  175.1160  145.2850 C   0  0  0  0  0  1  0  0  0  0  0  0
  190.0930  176.5410  145.2460 C   0  0  0  0  0  0  0  0  0  0  0  0
  1 12  1  0  0  0  0
  2  7  1  0  0  0  0
  2  1  2  0  0  0  0
  3  8  2  0  0  0  0
  4 11  2  0  0  0  0
  4  3  1  0  0  0  0
  5  9  2  0  0  0  0
  5 11  1  0  0  0  0
  6  5  1  0  0  0  0
  8  1  1  0  0  0  0
  9 10  1  0  0  0  0
 10 19  1  0  0  0  0
 10  7  2  0  0  0  0
 11  2  1  0  0  0  0
 12 14  2  0  0  0  0
 12 18  1  0  0  0  0
 14 15  1  0  0  0  0
 15 13  2  0  0  0  0
 16 13  1  0  0  0  0
 17 14  1  0  0  0  0
 18 16  2  0  0  0  0
 19 20  1  0  0  0  0
 20 25  1  0  0  0  0
 21 20  2  0  0  0  0
 25 24  1  0  0  0  0
 25 22  1  0  0  0  0
 25 23  1  0  0  0  0
M  END
>  <MODEL>
5

>  <REMARK>
 VINA RESULT:      -6.7      2.353      4.898
  Name = 
  4 active torsions:
  status: ('A' for Active; 'I' for Inactive)
    1  A    between atoms: C_1  and  C_5
    2  A    between atoms: C_6  and  C_15
    3  A    between atoms: C_6  and  C_23
    4  A    between atoms: C_15  and  C_21
                            x       y       z     vdW  Elec       q    Type
                         _______ _______ _______ _____ _____    ______ ____

>  <TORSDO>
F 4

$$$$
=
 OpenBabel11052417263D

 25 27  0  0  0  0  0  0  0  0999 V2000
  187.9660  176.0630  141.9080 C   0  0  0  0  0  0  0  0  0  0  0  0
  187.5160  176.7460  143.0550 C   0  0  0  0  0  0  0  0  0  0  0  0
  186.6730  177.5240  140.5500 C   0  0  0  0  0  3  0  0  0  0  0  0
  186.2300  178.1920  141.6460 N   0  0  0  0  0  0  0  0  0  0  0  0
  186.1680  178.4910  144.0340 C   0  0  0  0  0  0  0  0  0  0  0  0
  185.2270  179.6410  143.9310 C   0  0  0  0  0  1  0  0  0  0  0  0
  187.8910  176.3710  144.3070 N   0  0  0  0  0  0  0  0  0  0  0  0
  187.5270  176.4770  140.6870 N   0  0  0  0  0  0  0  0  0  0  0  0
  186.5770  178.0760  145.2620 N   0  0  0  0  0  0  0  0  0  0  0  0
  187.4330  177.0300  145.4040 C   0  0  0  0  0  0  0  0  0  0  0  0
  186.6290  177.8240  142.8910 C   0  0  0  0  0  0  0  0  0  0  0  0
  188.9070  174.9170  141.9870 C   0  0  0  0  0  0  0  0  0  0  0  0
  190.6960  172.7800  142.0850 C   0  0  0  0  0  3  0  0  0  0  0  0
  188.4570  173.5790  142.0030 C   0  0  0  0  0  0  0  0  0  0  0  0
  189.3570  172.5590  142.0550 N   0  0  0  0  0  0  0  0  0  0  0  0
  191.1890  174.0840  142.0650 C   0  0  0  0  0  3  0  0  0  0  0  0
  187.0660  173.2730  142.0040 N   0  0  0  0  0  1  0  0  0  0  0  0
  190.2900  175.1480  142.0130 C   0  0  0  0  0  3  0  0  0  0  0  0
  187.8440  176.5840  146.7660 C   0  0  0  0  0  2  0  0  0  0  0  0
  189.3150  176.8080  146.9650 C   0  0  0  0  0  0  0  0  0  0  0  0
  189.6910  177.9150  147.3230 O   0  0  0  0  0  0  0  0  0  0  0  0
  189.6060  174.3820  146.5690 C   0  0  0  0  0  1  0  0  0  0  0  0
  191.2380  175.9400  145.5830 C   0  0  0  0  0  1  0  0  0  0  0  0
  191.2000  175.5880  148.0170 C   0  0  0  0  0  1  0  0  0  0  0  0
  190.3290  175.6980  146.7790 C   0  0  0  0  0  0  0  0  0  0  0  0
  1 12  1  0  0  0  0
  1  2  1  0  0  0  0
  2  7  1  0  0  0  0
  3  8  1  0  0  0  0
  3  4  2  0  0  0  0
  4 11  1  0  0  0  0
  5  9  2  0  0  0  0
  6  5  1  0  0  0  0
  7 10  2  0  0  0  0
  8  1  2  0  0  0  0
  9 10  1  0  0  0  0
 10 19  1  0  0  0  0
 11  2  2  0  0  0  0
 11  5  1  0  0  0  0
 12 14  2  0  0  0  0
 12 18  1  0  0  0  0
 14 17  1  0  0  0  0
 14 15  1  0  0  0  0
 15 13  2  0  0  0  0
 16 13  1  0  0  0  0
 18 16  2  0  0  0  0
 19 20  1  0  0  0  0
 20 21  2  0  0  0  0
 22 25  1  0  0  0  0
 23 25  1  0  0  0  0
 25 20  1  0  0  0  0
 25 24  1  0  0  0  0
M  END
>  <MODEL>
6

>  <REMARK>
 VINA RESULT:      -6.6      2.270      4.716
  Name = 
  4 active torsions:
  status: ('A' for Active; 'I' for Inactive)
    1  A    between atoms: C_1  and  C_5
    2  A    between atoms: C_6  and  C_15
    3  A    between atoms: C_6  and  C_23
    4  A    between atoms: C_15  and  C_21
                            x       y       z     vdW  Elec       q    Type
                         _______ _______ _______ _____ _____    ______ ____

>  <TORSDO>
F 4

$$$$
=
 OpenBabel11052417263D

 25 27  0  0  0  0  0  0  0  0999 V2000
  189.9700  173.5600  144.0690 C   0  0  0  0  0  0  0  0  0  0  0  0
  189.4510  174.2970  142.9860 C   0  0  0  0  0  0  0  0  0  0  0  0
  189.7880  171.5700  142.7800 C   0  0  0  0  0  3  0  0  0  0  0  0
  189.2860  172.2660  141.7290 N   0  0  0  0  0  0  0  0  0  0  0  0
  188.5750  174.3430  140.7390 C   0  0  0  0  0  0  0  0  0  0  0  0
  188.1900  173.6780  139.4630 C   0  0  0  0  0  1  0  0  0  0  0  0
  189.2470  175.6390  143.0640 N   0  0  0  0  0  0  0  0  0  0  0  0
  190.1220  172.2130  143.9300 N   0  0  0  0  0  0  0  0  0  0  0  0
  188.3940  175.6840  140.8690 N   0  0  0  0  0  0  0  0  0  0  0  0
  188.7280  176.3320  142.0160 C   0  0  0  0  0  0  0  0  0  0  0  0
  189.1080  173.6110  141.8080 C   0  0  0  0  0  0  0  0  0  0  0  0
  190.3640  174.2020  145.3490 C   0  0  0  0  0  0  0  0  0  0  0  0
  191.0680  175.4500  147.7400 C   0  0  0  0  0  3  0  0  0  0  0  0
  191.6810  174.6510  145.5860 C   0  0  0  0  0  0  0  0  0  0  0  0
  191.9920  175.2530  146.7660 N   0  0  0  0  0  0  0  0  0  0  0  0
  189.7520  175.0300  147.5500 C   0  0  0  0  0  3  0  0  0  0  0  0
  192.7100  174.4500  144.6200 N   0  0  0  0  0  1  0  0  0  0  0  0
  189.4050  174.4090  146.3510 C   0  0  0  0  0  3  0  0  0  0  0  0
  188.4960  177.7990  142.1360 C   0  0  0  0  0  2  0  0  0  0  0  0
  187.0510  178.0750  142.4340 C   0  0  0  0  0  0  0  0  0  0  0  0
  186.2940  178.2860  141.4960 O   0  0  0  0  0  0  0  0  0  0  0  0
  185.6360  176.8260  144.0350 C   0  0  0  0  0  1  0  0  0  0  0  0
  187.6070  178.0270  144.8930 C   0  0  0  0  0  1  0  0  0  0  0  0
  185.6590  179.2940  144.0850 C   0  0  0  0  0  1  0  0  0  0  0  0
  186.5030  178.0560  143.8460 C   0  0  0  0  0  0  0  0  0  0  0  0
  1 12  1  0  0  0  0
  2  7  1  0  0  0  0
  2  1  2  0  0  0  0
  3  8  2  0  0  0  0
  4 11  2  0  0  0  0
  4  3  1  0  0  0  0
  5  9  2  0  0  0  0
  5 11  1  0  0  0  0
  6  5  1  0  0  0  0
  8  1  1  0  0  0  0
  9 10  1  0  0  0  0
 10 19  1  0  0  0  0
 10  7  2  0  0  0  0
 11  2  1  0  0  0  0
 12 14  2  0  0  0  0
 12 18  1  0  0  0  0
 14 15  1  0  0  0  0
 15 13  2  0  0  0  0
 16 13  1  0  0  0  0
 17 14  1  0  0  0  0
 18 16  2  0  0  0  0
 19 20  1  0  0  0  0
 20 25  1  0  0  0  0
 21 20  2  0  0  0  0
 25 22  1  0  0  0  0
 25 24  1  0  0  0  0
 25 23  1  0  0  0  0
M  END
>  <MODEL>
7

>  <REMARK>
 VINA RESULT:      -6.6      2.015      2.801
  Name = 
  4 active torsions:
  status: ('A' for Active; 'I' for Inactive)
    1  A    between atoms: C_1  and  C_5
    2  A    between atoms: C_6  and  C_15
    3  A    between atoms: C_6  and  C_23
    4  A    between atoms: C_15  and  C_21
                            x       y       z     vdW  Elec       q    Type
                         _______ _______ _______ _____ _____    ______ ____

>  <TORSDO>
F 4

$$$$
=
 OpenBabel11052417263D

 25 27  0  0  0  0  0  0  0  0999 V2000
  186.4210  177.3070  143.1800 C   0  0  0  0  0  0  0  0  0  0  0  0
  187.3650  176.3010  142.8930 C   0  0  0  0  0  0  0  0  0  0  0  0
  185.9800  177.5360  140.8550 C   0  0  0  0  0  3  0  0  0  0  0  0
  186.8880  176.5690  140.5620 N   0  0  0  0  0  0  0  0  0  0  0  0
  188.5370  174.9620  141.2650 C   0  0  0  0  0  0  0  0  0  0  0  0
  188.8180  174.5410  139.8640 C   0  0  0  0  0  1  0  0  0  0  0  0
  188.0840  175.6920  143.8720 N   0  0  0  0  0  0  0  0  0  0  0  0
  185.7570  177.8950  142.1460 N   0  0  0  0  0  0  0  0  0  0  0  0
  189.2260  174.3820  142.2830 N   0  0  0  0  0  0  0  0  0  0  0  0
  189.0040  174.7360  143.5760 C   0  0  0  0  0  0  0  0  0  0  0  0
  187.5840  175.9490  141.5500 C   0  0  0  0  0  0  0  0  0  0  0  0
  186.1220  177.7400  144.5690 C   0  0  0  0  0  0  0  0  0  0  0  0
  185.5130  178.5190  147.1760 C   0  0  0  0  0  3  0  0  0  0  0  0
  185.8550  179.0880  144.8920 C   0  0  0  0  0  0  0  0  0  0  0  0
  185.5650  179.4360  146.1750 N   0  0  0  0  0  0  0  0  0  0  0  0
  185.7630  177.1750  146.9050 C   0  0  0  0  0  3  0  0  0  0  0  0
  185.9210  180.1070  143.8990 N   0  0  0  0  0  1  0  0  0  0  0  0
  186.0650  176.7910  145.6000 C   0  0  0  0  0  3  0  0  0  0  0  0
  189.7930  174.0990  144.6680 C   0  0  0  0  0  2  0  0  0  0  0  0
  190.5470  175.1410  145.4430 C   0  0  0  0  0  0  0  0  0  0  0  0
  191.5340  175.6460  144.9270 O   0  0  0  0  0  0  0  0  0  0  0  0
  191.2450  175.4780  147.7940 C   0  0  0  0  0  1  0  0  0  0  0  0
  189.6360  177.0570  146.8040 C   0  0  0  0  0  1  0  0  0  0  0  0
  188.9410  174.7490  147.2900 C   0  0  0  0  0  1  0  0  0  0  0  0
  190.0970  175.6070  146.8110 C   0  0  0  0  0  0  0  0  0  0  0  0
  1 12  1  0  0  0  0
  2  1  1  0  0  0  0
  2  7  1  0  0  0  0
  3  8  1  0  0  0  0
  4  3  2  0  0  0  0
  4 11  1  0  0  0  0
  5 11  1  0  0  0  0
  5  9  2  0  0  0  0
  6  5  1  0  0  0  0
  8  1  2  0  0  0  0
  9 10  1  0  0  0  0
 10  7  2  0  0  0  0
 10 19  1  0  0  0  0
 11  2  2  0  0  0  0
 12 14  2  0  0  0  0
 12 18  1  0  0  0  0
 14 15  1  0  0  0  0
 15 13  2  0  0  0  0
 16 13  1  0  0  0  0
 17 14  1  0  0  0  0
 18 16  2  0  0  0  0
 19 20  1  0  0  0  0
 20 25  1  0  0  0  0
 21 20  2  0  0  0  0
 23 25  1  0  0  0  0
 25 24  1  0  0  0  0
 25 22  1  0  0  0  0
M  END
>  <MODEL>
8

>  <REMARK>
 VINA RESULT:      -6.5      2.264      4.966
  Name = 
  4 active torsions:
  status: ('A' for Active; 'I' for Inactive)
    1  A    between atoms: C_1  and  C_5
    2  A    between atoms: C_6  and  C_15
    3  A    between atoms: C_6  and  C_23
    4  A    between atoms: C_15  and  C_21
                            x       y       z     vdW  Elec       q    Type
                         _______ _______ _______ _____ _____    ______ ____

>  <TORSDO>
F 4

$$$$
=
 OpenBabel11052417263D

 25 27  0  0  0  0  0  0  0  0999 V2000
  191.4070  174.2890  144.5430 C   0  0  0  0  0  0  0  0  0  0  0  0
  190.7740  175.3180  145.2680 C   0  0  0  0  0  0  0  0  0  0  0  0
  193.1440  174.2360  146.1650 C   0  0  0  0  0  3  0  0  0  0  0  0
  192.5480  175.2280  146.8740 N   0  0  0  0  0  0  0  0  0  0  0  0
  190.7590  176.8150  147.1590 C   0  0  0  0  0  0  0  0  0  0  0  0
  191.3480  177.3500  148.4190 C   0  0  0  0  0  1  0  0  0  0  0  0
  189.6190  175.8910  144.8390 N   0  0  0  0  0  0  0  0  0  0  0  0
  192.5780  173.7790  145.0180 N   0  0  0  0  0  0  0  0  0  0  0  0
  189.6030  177.3510  146.6870 N   0  0  0  0  0  0  0  0  0  0  0  0
  189.0310  176.8960  145.5410 C   0  0  0  0  0  0  0  0  0  0  0  0
  191.3800  175.7790  146.4490 C   0  0  0  0  0  0  0  0  0  0  0  0
  190.8360  173.7370  143.2870 C   0  0  0  0  0  0  0  0  0  0  0  0
  189.7410  172.7520  140.9200 C   0  0  0  0  0  3  0  0  0  0  0  0
  189.9020  172.6790  143.2920 C   0  0  0  0  0  0  0  0  0  0  0  0
  189.3890  172.2190  142.1190 N   0  0  0  0  0  0  0  0  0  0  0  0
  190.6560  173.8020  140.8650 C   0  0  0  0  0  3  0  0  0  0  0  0
  189.5090  172.0530  144.5100 N   0  0  0  0  0  1  0  0  0  0  0  0
  191.1990  174.2920  142.0520 C   0  0  0  0  0  3  0  0  0  0  0  0
  187.7760  177.5210  145.0370 C   0  0  0  0  0  2  0  0  0  0  0  0
  186.6840  177.3970  146.0600 C   0  0  0  0  0  0  0  0  0  0  0  0
  186.6230  176.3710  146.7220 O   0  0  0  0  0  0  0  0  0  0  0  0
  184.3130  177.9290  146.5340 C   0  0  0  0  0  1  0  0  0  0  0  0
  186.0620  179.3340  147.5490 C   0  0  0  0  0  1  0  0  0  0  0  0
  185.6540  179.4500  145.1270 C   0  0  0  0  0  1  0  0  0  0  0  0
  185.6960  178.5150  146.3210 C   0  0  0  0  0  0  0  0  0  0  0  0
  1  8  2  0  0  0  0
  1  2  1  0  0  0  0
  2 11  2  0  0  0  0
  3  4  2  0  0  0  0
  5  6  1  0  0  0  0
  7  2  1  0  0  0  0
  7 10  2  0  0  0  0
  8  3  1  0  0  0  0
  9  5  2  0  0  0  0
 10  9  1  0  0  0  0
 11  4  1  0  0  0  0
 11  5  1  0  0  0  0
 12 14  1  0  0  0  0
 12  1  1  0  0  0  0
 13 15  1  0  0  0  0
 14 17  1  0  0  0  0
 15 14  2  0  0  0  0
 16 13  2  0  0  0  0
 16 18  1  0  0  0  0
 18 12  2  0  0  0  0
 19 10  1  0  0  0  0
 19 20  1  0  0  0  0
 20 25  1  0  0  0  0
 20 21  2  0  0  0  0
 24 25  1  0  0  0  0
 25 22  1  0  0  0  0
 25 23  1  0  0  0  0
M  END
>  <MODEL>
9

>  <REMARK>
 VINA RESULT:      -6.3      2.631      5.005
  Name = 
  4 active torsions:
  status: ('A' for Active; 'I' for Inactive)
    1  A    between atoms: C_1  and  C_5
    2  A    between atoms: C_6  and  C_15
    3  A    between atoms: C_6  and  C_23
    4  A    between atoms: C_15  and  C_21
                            x       y       z     vdW  Elec       q    Type
                         _______ _______ _______ _____ _____    ______ ____

>  <TORSDO>
F 4

$$$$
