=
 OpenBabel11052418283D

 27 30  0  0  0  0  0  0  0  0999 V2000
  187.9920  177.4150  144.6180 N   0  0  0  0  0  0  0  0  0  0  0  0
  188.3620  175.3670  143.2930 C   0  0  0  0  0  3  0  0  0  0  0  0
  188.1330  174.7460  139.6830 N   0  0  0  0  0  0  0  0  0  0  0  0
  188.4470  172.7710  138.3400 N   0  0  0  0  0  1  0  0  0  0  0  0
  187.7690  177.4230  142.1570 C   0  0  0  0  0  3  0  0  0  0  0  0
  188.6930  173.3400  142.0030 C   0  0  0  0  0  3  0  0  0  0  0  0
  188.7130  172.6940  140.7650 C   0  0  0  0  0  3  0  0  0  0  0  0
  188.3890  174.7000  142.0670 C   0  0  0  0  0  0  0  0  0  0  0  0
  188.4290  173.4200  139.6060 C   0  0  0  0  0  0  0  0  0  0  0  0
  188.1070  175.4000  140.8750 C   0  0  0  0  0  0  0  0  0  0  0  0
  188.0570  176.7350  143.3470 C   0  0  0  0  0  0  0  0  0  0  0  0
  187.7960  176.7600  140.9270 C   0  0  0  0  0  3  0  0  0  0  0  0
  184.2490  178.1560  146.5200 C   0  0  0  0  0  3  0  0  0  0  0  0
  186.7280  177.6690  145.2770 C   0  0  0  0  0  0  0  0  0  0  0  0
  186.1480  176.7090  146.1260 C   0  0  0  0  0  3  0  0  0  0  0  0
  184.9190  176.9510  146.7450 C   0  0  0  0  0  3  0  0  0  0  0  0
  184.8070  179.1150  145.6730 C   0  0  0  0  0  3  0  0  0  0  0  0
  186.0350  178.8720  145.0540 C   0  0  0  0  0  3  0  0  0  0  0  0
  189.2180  177.9930  145.1790 C   0  0  0  0  0  2  0  0  0  0  0  0
  191.5130  177.9140  143.0320 Cl  0  0  0  0  0  0  0  0  0  0  0  0
  192.2820  175.0210  145.7220 C   0  0  0  0  0  0  0  0  0  0  0  0
  193.5240  173.8140  145.9670 Cl  0  0  0  0  0  0  0  0  0  0  0  0
  190.2920  176.9570  145.3310 C   0  0  0  0  0  0  0  0  0  0  0  0
  192.3570  175.8900  144.6300 C   0  0  0  0  0  3  0  0  0  0  0  0
  191.2150  175.1180  146.6170 C   0  0  0  0  0  3  0  0  0  0  0  0
  190.2250  176.0820  146.4210 C   0  0  0  0  0  3  0  0  0  0  0  0
  191.3700  176.8570  144.4270 C   0  0  0  0  0  0  0  0  0  0  0  0
  1 19  1  0  0  0  0
  1 14  1  0  0  0  0
  2 11  1  0  0  0  0
  3 10  1  0  0  0  0
  4  9  1  0  0  0  0
  5 11  2  0  0  0  0
  6  8  1  0  0  0  0
  7  6  2  0  0  0  0
  8  2  2  0  0  0  0
  9  3  2  0  0  0  0
  9  7  1  0  0  0  0
 10 12  2  0  0  0  0
 10  8  1  0  0  0  0
 11  1  1  0  0  0  0
 12  5  1  0  0  0  0
 13 16  1  0  0  0  0
 14 15  1  0  0  0  0
 15 16  2  0  0  0  0
 17 13  2  0  0  0  0
 18 14  2  0  0  0  0
 18 17  1  0  0  0  0
 19 23  1  0  0  0  0
 20 27  1  0  0  0  0
 21 22  1  0  0  0  0
 21 25  1  0  0  0  0
 23 26  1  0  0  0  0
 24 21  2  0  0  0  0
 26 25  2  0  0  0  0
 27 24  1  0  0  0  0
 27 23  2  0  0  0  0
M  END
>  <MODEL>
1

>  <REMARK>
 VINA RESULT:      -7.5      0.000      0.000
  Name = 
  4 active torsions:
  status: ('A' for Active; 'I' for Inactive)
    1  A    between atoms: C_1  and  N_15
    2  A    between atoms: C_1  and  C_18
    3  A    between atoms: C_9  and  N_15
    4  A    between atoms: N_15  and  C_19
                            x       y       z     vdW  Elec       q    Type
                         _______ _______ _______ _____ _____    ______ ____

>  <TORSDO>
F 4

$$$$
=
 OpenBabel11052418283D

 27 30  0  0  0  0  0  0  0  0999 V2000
  189.1390  176.2500  145.0010 N   0  0  0  0  0  0  0  0  0  0  0  0
  189.4810  174.7940  143.0390 C   0  0  0  0  0  3  0  0  0  0  0  0
  190.3810  171.2450  142.7870 N   0  0  0  0  0  0  0  0  0  0  0  0
  190.7610  169.7830  140.9110 N   0  0  0  0  0  1  0  0  0  0  0  0
  189.7120  173.8610  145.2630 C   0  0  0  0  0  3  0  0  0  0  0  0
  189.8490  173.3790  141.1030 C   0  0  0  0  0  3  0  0  0  0  0  0
  190.1690  172.1270  140.5740 C   0  0  0  0  0  3  0  0  0  0  0  0
  189.7980  173.5520  142.4860 C   0  0  0  0  0  0  0  0  0  0  0  0
  190.4340  171.0630  141.4400 C   0  0  0  0  0  0  0  0  0  0  0  0
  190.0720  172.4540  143.3290 C   0  0  0  0  0  0  0  0  0  0  0  0
  189.4290  174.9570  144.4310 C   0  0  0  0  0  0  0  0  0  0  0  0
  190.0290  172.6150  144.7150 C   0  0  0  0  0  3  0  0  0  0  0  0
  185.2370  177.1840  146.4420 C   0  0  0  0  0  3  0  0  0  0  0  0
  187.8190  176.5800  145.4950 C   0  0  0  0  0  0  0  0  0  0  0  0
  187.5310  176.5470  146.8720 C   0  0  0  0  0  3  0  0  0  0  0  0
  186.2500  176.8500  147.3420 C   0  0  0  0  0  3  0  0  0  0  0  0
  185.5040  177.2130  145.0710 C   0  0  0  0  0  3  0  0  0  0  0  0
  186.7840  176.9100  144.6030 C   0  0  0  0  0  3  0  0  0  0  0  0
  190.1620  177.2990  144.9410 C   0  0  0  0  0  2  0  0  0  0  0  0
  190.9570  176.6060  147.9020 Cl  0  0  0  0  0  0  0  0  0  0  0  0
  194.0930  175.6650  145.5620 C   0  0  0  0  0  0  0  0  0  0  0  0
  195.6910  174.9910  145.7920 Cl  0  0  0  0  0  0  0  0  0  0  0  0
  191.5320  176.7440  145.1920 C   0  0  0  0  0  0  0  0  0  0  0  0
  193.2480  175.8510  146.6590 C   0  0  0  0  0  3  0  0  0  0  0  0
  193.6620  176.0190  144.2820 C   0  0  0  0  0  3  0  0  0  0  0  0
  192.3860  176.5560  144.0990 C   0  0  0  0  0  3  0  0  0  0  0  0
  191.9700  176.3870  146.4840 C   0  0  0  0  0  0  0  0  0  0  0  0
  1 14  1  0  0  0  0
  2 11  1  0  0  0  0
  3 10  1  0  0  0  0
  4  9  1  0  0  0  0
  6  8  1  0  0  0  0
  7  6  2  0  0  0  0
  7  9  1  0  0  0  0
  8  2  2  0  0  0  0
  8 10  1  0  0  0  0
  9  3  2  0  0  0  0
 10 12  2  0  0  0  0
 11  1  1  0  0  0  0
 11  5  2  0  0  0  0
 12  5  1  0  0  0  0
 13 16  1  0  0  0  0
 14 15  1  0  0  0  0
 15 16  2  0  0  0  0
 17 13  2  0  0  0  0
 18 17  1  0  0  0  0
 18 14  2  0  0  0  0
 19  1  1  0  0  0  0
 19 23  1  0  0  0  0
 21 22  1  0  0  0  0
 21 24  1  0  0  0  0
 23 27  1  0  0  0  0
 25 21  2  0  0  0  0
 26 25  1  0  0  0  0
 26 23  2  0  0  0  0
 27 24  2  0  0  0  0
 27 20  1  0  0  0  0
M  END
>  <MODEL>
2

>  <REMARK>
 VINA RESULT:      -7.4      2.319      3.041
  Name = 
  4 active torsions:
  status: ('A' for Active; 'I' for Inactive)
    1  A    between atoms: C_1  and  N_15
    2  A    between atoms: C_1  and  C_18
    3  A    between atoms: C_9  and  N_15
    4  A    between atoms: N_15  and  C_19
                            x       y       z     vdW  Elec       q    Type
                         _______ _______ _______ _____ _____    ______ ____

>  <TORSDO>
F 4

$$$$
=
 OpenBabel11052418283D

 27 30  0  0  0  0  0  0  0  0999 V2000
  190.5510  175.3200  145.6120 N   0  0  0  0  0  0  0  0  0  0  0  0
  188.2380  176.0530  146.0580 C   0  0  0  0  0  3  0  0  0  0  0  0
  186.1610  178.6180  144.4540 N   0  0  0  0  0  0  0  0  0  0  0  0
  183.9190  179.3990  144.8640 N   0  0  0  0  0  1  0  0  0  0  0  0
  189.4830  177.0880  144.2560 C   0  0  0  0  0  3  0  0  0  0  0  0
  185.9750  176.7900  146.5270 C   0  0  0  0  0  3  0  0  0  0  0  0
  184.8990  177.6270  146.2270 C   0  0  0  0  0  3  0  0  0  0  0  0
  187.1480  176.8780  145.7760 C   0  0  0  0  0  0  0  0  0  0  0  0
  185.0110  178.5430  145.1770 C   0  0  0  0  0  0  0  0  0  0  0  0
  187.2240  177.8150  144.7240 C   0  0  0  0  0  0  0  0  0  0  0  0
  189.4120  176.1470  145.2960 C   0  0  0  0  0  0  0  0  0  0  0  0
  188.3940  177.9160  143.9690 C   0  0  0  0  0  3  0  0  0  0  0  0
  194.5210  176.8710  145.7020 C   0  0  0  0  0  3  0  0  0  0  0  0
  191.8950  175.8600  145.6360 C   0  0  0  0  0  0  0  0  0  0  0  0
  192.6400  176.0030  144.4520 C   0  0  0  0  0  3  0  0  0  0  0  0
  193.9430  176.5080  144.4840 C   0  0  0  0  0  3  0  0  0  0  0  0
  193.7980  176.7270  146.8870 C   0  0  0  0  0  3  0  0  0  0  0  0
  192.4960  176.2220  146.8540 C   0  0  0  0  0  3  0  0  0  0  0  0
  190.3600  173.8740  145.7630 C   0  0  0  0  0  2  0  0  0  0  0  0
  193.0630  172.4550  145.0130 Cl  0  0  0  0  0  0  0  0  0  0  0  0
  190.4940  171.8330  141.9780 C   0  0  0  0  0  0  0  0  0  0  0  0
  190.5250  170.9990  140.4400 Cl  0  0  0  0  0  0  0  0  0  0  0  0
  190.4440  173.1680  144.4430 C   0  0  0  0  0  0  0  0  0  0  0  0
  191.6250  171.8270  142.7990 C   0  0  0  0  0  3  0  0  0  0  0  0
  189.3400  172.5060  142.3860 C   0  0  0  0  0  3  0  0  0  0  0  0
  189.3170  173.1700  143.6140 C   0  0  0  0  0  3  0  0  0  0  0  0
  191.6080  172.4900  144.0290 C   0  0  0  0  0  0  0  0  0  0  0  0
  1 14  1  0  0  0  0
  1 19  1  0  0  0  0
  3 10  2  0  0  0  0
  3  9  1  0  0  0  0
  4  9  1  0  0  0  0
  5 11  1  0  0  0  0
  7  6  1  0  0  0  0
  8  2  1  0  0  0  0
  8  6  2  0  0  0  0
  9  7  2  0  0  0  0
 10  8  1  0  0  0  0
 11  1  1  0  0  0  0
 11  2  2  0  0  0  0
 12  5  2  0  0  0  0
 12 10  1  0  0  0  0
 13 17  1  0  0  0  0
 14 18  1  0  0  0  0
 15 16  1  0  0  0  0
 15 14  2  0  0  0  0
 16 13  2  0  0  0  0
 18 17  2  0  0  0  0
 21 25  2  0  0  0  0
 21 24  1  0  0  0  0
 22 21  1  0  0  0  0
 23 19  1  0  0  0  0
 24 27  2  0  0  0  0
 25 26  1  0  0  0  0
 26 23  2  0  0  0  0
 27 23  1  0  0  0  0
 27 20  1  0  0  0  0
M  END
>  <MODEL>
3

>  <REMARK>
 VINA RESULT:      -7.2      2.834      6.242
  Name = 
  4 active torsions:
  status: ('A' for Active; 'I' for Inactive)
    1  A    between atoms: C_1  and  N_15
    2  A    between atoms: C_1  and  C_18
    3  A    between atoms: C_9  and  N_15
    4  A    between atoms: N_15  and  C_19
                            x       y       z     vdW  Elec       q    Type
                         _______ _______ _______ _____ _____    ______ ____

>  <TORSDO>
F 4

$$$$
=
 OpenBabel11052418283D

 27 30  0  0  0  0  0  0  0  0999 V2000
  190.9610  175.7030  144.2140 N   0  0  0  0  0  0  0  0  0  0  0  0
  188.8780  177.0190  144.3410 C   0  0  0  0  0  3  0  0  0  0  0  0
  186.2070  177.0840  146.8580 N   0  0  0  0  0  0  0  0  0  0  0  0
  184.1430  178.3150  147.0200 N   0  0  0  0  0  1  0  0  0  0  0  0
  189.4170  175.4760  146.1300 C   0  0  0  0  0  3  0  0  0  0  0  0
  186.8150  178.2920  144.4400 C   0  0  0  0  0  3  0  0  0  0  0  0
  185.6330  178.6130  145.1100 C   0  0  0  0  0  3  0  0  0  0  0  0
  187.6910  177.3580  144.9940 C   0  0  0  0  0  0  0  0  0  0  0  0
  185.3440  177.9940  146.3290 C   0  0  0  0  0  0  0  0  0  0  0  0
  187.3650  176.7530  146.2260 C   0  0  0  0  0  0  0  0  0  0  0  0
  189.7530  176.0800  144.9070 C   0  0  0  0  0  0  0  0  0  0  0  0
  188.2300  175.8120  146.7870 C   0  0  0  0  0  3  0  0  0  0  0  0
  194.7650  175.6820  146.1390 C   0  0  0  0  0  3  0  0  0  0  0  0
  192.2470  175.7040  144.8790 C   0  0  0  0  0  0  0  0  0  0  0  0
  193.0590  176.8530  144.8850 C   0  0  0  0  0  3  0  0  0  0  0  0
  194.3070  176.8430  145.5130 C   0  0  0  0  0  3  0  0  0  0  0  0
  193.9750  174.5300  146.1350 C   0  0  0  0  0  3  0  0  0  0  0  0
  192.7270  174.5410  145.5070 C   0  0  0  0  0  3  0  0  0  0  0  0
  190.9040  175.4580  142.7690 C   0  0  0  0  0  2  0  0  0  0  0  0
  193.6230  174.1530  141.8840 Cl  0  0  0  0  0  0  0  0  0  0  0  0
  190.8540  171.2340  141.9530 C   0  0  0  0  0  0  0  0  0  0  0  0
  190.8150  169.5130  141.6380 Cl  0  0  0  0  0  0  0  0  0  0  0  0
  190.9150  173.9900  142.4610 C   0  0  0  0  0  0  0  0  0  0  0  0
  192.0520  171.9420  141.8230 C   0  0  0  0  0  3  0  0  0  0  0  0
  189.6880  171.9010  142.3350 C   0  0  0  0  0  3  0  0  0  0  0  0
  189.7200  173.2730  142.5880 C   0  0  0  0  0  3  0  0  0  0  0  0
  192.0910  173.3160  142.0740 C   0  0  0  0  0  0  0  0  0  0  0  0
  1 14  1  0  0  0  0
  1 11  1  0  0  0  0
  2 11  2  0  0  0  0
  2  8  1  0  0  0  0
  5 12  2  0  0  0  0
  6  8  2  0  0  0  0
  6  7  1  0  0  0  0
  7  9  2  0  0  0  0
  8 10  1  0  0  0  0
  9  3  1  0  0  0  0
  9  4  1  0  0  0  0
 10 12  1  0  0  0  0
 10  3  2  0  0  0  0
 11  5  1  0  0  0  0
 14 15  2  0  0  0  0
 14 18  1  0  0  0  0
 15 16  1  0  0  0  0
 16 13  2  0  0  0  0
 17 13  1  0  0  0  0
 18 17  2  0  0  0  0
 19  1  1  0  0  0  0
 20 27  1  0  0  0  0
 21 25  1  0  0  0  0
 22 21  1  0  0  0  0
 23 26  1  0  0  0  0
 23 19  1  0  0  0  0
 24 21  2  0  0  0  0
 24 27  1  0  0  0  0
 25 26  2  0  0  0  0
 27 23  2  0  0  0  0
M  END
>  <MODEL>
4

>  <REMARK>
 VINA RESULT:      -7.1      2.696      6.577
  Name = 
  4 active torsions:
  status: ('A' for Active; 'I' for Inactive)
    1  A    between atoms: C_1  and  N_15
    2  A    between atoms: C_1  and  C_18
    3  A    between atoms: C_9  and  N_15
    4  A    between atoms: N_15  and  C_19
                            x       y       z     vdW  Elec       q    Type
                         _______ _______ _______ _____ _____    ______ ____

>  <TORSDO>
F 4

$$$$
=
 OpenBabel11052418283D

 27 30  0  0  0  0  0  0  0  0999 V2000
  189.1260  177.0780  143.9330 N   0  0  0  0  0  0  0  0  0  0  0  0
  187.3010  177.5240  142.3340 C   0  0  0  0  0  3  0  0  0  0  0  0
  183.7440  178.2570  142.8650 N   0  0  0  0  0  0  0  0  0  0  0  0
  181.9150  178.6660  141.3520 N   0  0  0  0  0  1  0  0  0  0  0  0
  186.8340  177.5730  144.7110 C   0  0  0  0  0  3  0  0  0  0  0  0
  185.5070  177.9270  140.7530 C   0  0  0  0  0  3  0  0  0  0  0  0
  184.1610  178.2120  140.5110 C   0  0  0  0  0  3  0  0  0  0  0  0
  185.9610  177.8090  142.0670 C   0  0  0  0  0  0  0  0  0  0  0  0
  183.2880  178.3750  141.5890 C   0  0  0  0  0  0  0  0  0  0  0  0
  185.0500  177.9800  143.1300 C   0  0  0  0  0  0  0  0  0  0  0  0
  187.7500  177.4100  143.6590 C   0  0  0  0  0  0  0  0  0  0  0  0
  185.4910  177.8590  144.4480 C   0  0  0  0  0  3  0  0  0  0  0  0
  190.2620  175.3100  147.6430 C   0  0  0  0  0  3  0  0  0  0  0  0
  189.5230  176.4700  145.1860 C   0  0  0  0  0  0  0  0  0  0  0  0
  189.2630  175.1130  145.4490 C   0  0  0  0  0  3  0  0  0  0  0  0
  189.6320  174.5360  146.6660 C   0  0  0  0  0  3  0  0  0  0  0  0
  190.5190  176.6610  147.4020 C   0  0  0  0  0  3  0  0  0  0  0  0
  190.1500  177.2370  146.1850 C   0  0  0  0  0  3  0  0  0  0  0  0
  190.1620  177.5010  142.9850 C   0  0  0  0  0  2  0  0  0  0  0  0
  189.4980  174.7410  141.6350 Cl  0  0  0  0  0  0  0  0  0  0  0  0
  193.3810  174.6620  142.6870 C   0  0  0  0  0  0  0  0  0  0  0  0
  194.7060  173.5250  142.5640 Cl  0  0  0  0  0  0  0  0  0  0  0  0
  191.2590  176.4830  142.8820 C   0  0  0  0  0  0  0  0  0  0  0  0
  192.1220  174.3240  142.1840 C   0  0  0  0  0  3  0  0  0  0  0  0
  193.5810  175.9060  143.2870 C   0  0  0  0  0  3  0  0  0  0  0  0
  192.5230  176.8120  143.3830 C   0  0  0  0  0  3  0  0  0  0  0  0
  191.0590  175.2260  142.2760 C   0  0  0  0  0  0  0  0  0  0  0  0
  1 14  1  0  0  0  0
  2 11  1  0  0  0  0
  3 10  1  0  0  0  0
  4  9  1  0  0  0  0
  6  8  1  0  0  0  0
  7  6  2  0  0  0  0
  7  9  1  0  0  0  0
  8  2  2  0  0  0  0
  8 10  1  0  0  0  0
  9  3  2  0  0  0  0
 10 12  2  0  0  0  0
 11  1  1  0  0  0  0
 11  5  2  0  0  0  0
 12  5  1  0  0  0  0
 14 15  2  0  0  0  0
 14 18  1  0  0  0  0
 15 16  1  0  0  0  0
 16 13  2  0  0  0  0
 17 13  1  0  0  0  0
 18 17  2  0  0  0  0
 19  1  1  0  0  0  0
 20 27  1  0  0  0  0
 21 25  1  0  0  0  0
 22 21  1  0  0  0  0
 23 19  1  0  0  0  0
 23 26  1  0  0  0  0
 24 27  1  0  0  0  0
 24 21  2  0  0  0  0
 25 26  2  0  0  0  0
 27 23  2  0  0  0  0
M  END
>  <MODEL>
5

>  <REMARK>
 VINA RESULT:      -7.1      2.790      4.708
  Name = 
  4 active torsions:
  status: ('A' for Active; 'I' for Inactive)
    1  A    between atoms: C_1  and  N_15
    2  A    between atoms: C_1  and  C_18
    3  A    between atoms: C_9  and  N_15
    4  A    between atoms: N_15  and  C_19
                            x       y       z     vdW  Elec       q    Type
                         _______ _______ _______ _____ _____    ______ ____

>  <TORSDO>
F 4

$$$$
=
 OpenBabel11052418283D

 27 30  0  0  0  0  0  0  0  0999 V2000
  190.6460  174.8360  145.3190 N   0  0  0  0  0  0  0  0  0  0  0  0
  188.8710  176.4200  144.6670 C   0  0  0  0  0  3  0  0  0  0  0  0
  185.8450  177.5210  146.4280 N   0  0  0  0  0  0  0  0  0  0  0  0
  184.0640  179.0310  145.8330 N   0  0  0  0  0  1  0  0  0  0  0  0
  188.7610  175.3420  146.8340 C   0  0  0  0  0  3  0  0  0  0  0  0
  187.1120  177.9520  144.0020 C   0  0  0  0  0  3  0  0  0  0  0  0
  185.9110  178.6020  144.2950 C   0  0  0  0  0  3  0  0  0  0  0  0
  187.6720  177.0830  144.9380 C   0  0  0  0  0  0  0  0  0  0  0  0
  185.2870  178.3720  145.5250 C   0  0  0  0  0  0  0  0  0  0  0  0
  187.0130  176.8750  146.1680 C   0  0  0  0  0  0  0  0  0  0  0  0
  189.4280  175.5490  145.6150 C   0  0  0  0  0  0  0  0  0  0  0  0
  187.5610  176.0040  147.1100 C   0  0  0  0  0  3  0  0  0  0  0  0
  194.4440  176.7370  145.6930 C   0  0  0  0  0  3  0  0  0  0  0  0
  191.9430  175.4700  145.4400 C   0  0  0  0  0  0  0  0  0  0  0  0
  192.8630  175.0570  146.4210 C   0  0  0  0  0  3  0  0  0  0  0  0
  194.1060  175.6830  146.5440 C   0  0  0  0  0  3  0  0  0  0  0  0
  193.5380  177.1650  144.7200 C   0  0  0  0  0  3  0  0  0  0  0  0
  192.2970  176.5380  144.5970 C   0  0  0  0  0  3  0  0  0  0  0  0
  190.5600  173.4910  144.7410 C   0  0  0  0  0  2  0  0  0  0  0  0
  193.1480  173.4640  142.9570 Cl  0  0  0  0  0  0  0  0  0  0  0  0
  189.9790  173.5960  140.4800 C   0  0  0  0  0  0  0  0  0  0  0  0
  189.7220  173.6270  138.7490 Cl  0  0  0  0  0  0  0  0  0  0  0  0
  190.3920  173.5440  143.2520 C   0  0  0  0  0  0  0  0  0  0  0  0
  191.2780  173.5450  140.9920 C   0  0  0  0  0  3  0  0  0  0  0  0
  188.8870  173.6220  141.3490 C   0  0  0  0  0  3  0  0  0  0  0  0
  189.0940  173.5960  142.7300 C   0  0  0  0  0  3  0  0  0  0  0  0
  191.4930  173.5180  142.3720 C   0  0  0  0  0  0  0  0  0  0  0  0
  1 14  1  0  0  0  0
  1 11  1  0  0  0  0
  2  8  2  0  0  0  0
  2 11  1  0  0  0  0
  5 12  1  0  0  0  0
  6  7  2  0  0  0  0
  6  8  1  0  0  0  0
  7  9  1  0  0  0  0
  8 10  1  0  0  0  0
  9  4  1  0  0  0  0
  9  3  2  0  0  0  0
 10  3  1  0  0  0  0
 10 12  2  0  0  0  0
 11  5  2  0  0  0  0
 13 16  1  0  0  0  0
 14 15  1  0  0  0  0
 15 16  2  0  0  0  0
 17 13  2  0  0  0  0
 18 17  1  0  0  0  0
 18 14  2  0  0  0  0
 19  1  1  0  0  0  0
 21 24  2  0  0  0  0
 21 25  1  0  0  0  0
 22 21  1  0  0  0  0
 23 19  1  0  0  0  0
 24 27  1  0  0  0  0
 25 26  2  0  0  0  0
 26 23  1  0  0  0  0
 27 20  1  0  0  0  0
 27 23  2  0  0  0  0
M  END
>  <MODEL>
6

>  <REMARK>
 VINA RESULT:      -7.1      2.638      6.428
  Name = 
  4 active torsions:
  status: ('A' for Active; 'I' for Inactive)
    1  A    between atoms: C_1  and  N_15
    2  A    between atoms: C_1  and  C_18
    3  A    between atoms: C_9  and  N_15
    4  A    between atoms: N_15  and  C_19
                            x       y       z     vdW  Elec       q    Type
                         _______ _______ _______ _____ _____    ______ ____

>  <TORSDO>
F 4

$$$$
=
 OpenBabel11052418283D

 27 30  0  0  0  0  0  0  0  0999 V2000
  190.9090  174.0630  144.5650 N   0  0  0  0  0  0  0  0  0  0  0  0
  189.2060  175.8470  144.5610 C   0  0  0  0  0  3  0  0  0  0  0  0
  186.8890  176.9860  147.1700 N   0  0  0  0  0  0  0  0  0  0  0  0
  185.1870  178.6910  147.2150 N   0  0  0  0  0  1  0  0  0  0  0  0
  189.5560  174.5470  146.5760 C   0  0  0  0  0  3  0  0  0  0  0  0
  187.5090  177.5800  144.5360 C   0  0  0  0  0  3  0  0  0  0  0  0
  186.5060  178.2890  145.2000 C   0  0  0  0  0  3  0  0  0  0  0  0
  188.1990  176.5700  145.2050 C   0  0  0  0  0  0  0  0  0  0  0  0
  186.2070  177.9750  146.5290 C   0  0  0  0  0  0  0  0  0  0  0  0
  187.8700  176.2810  146.5460 C   0  0  0  0  0  0  0  0  0  0  0  0
  189.8960  174.8350  145.2430 C   0  0  0  0  0  0  0  0  0  0  0  0
  188.5500  175.2690  147.2250 C   0  0  0  0  0  3  0  0  0  0  0  0
  190.1720  172.3650  140.7250 C   0  0  0  0  0  3  0  0  0  0  0  0
  190.6740  173.4860  143.2590 C   0  0  0  0  0  0  0  0  0  0  0  0
  190.8910  174.2310  142.0860 C   0  0  0  0  0  3  0  0  0  0  0  0
  190.6450  173.6750  140.8290 C   0  0  0  0  0  3  0  0  0  0  0  0
  189.9420  171.6140  141.8800 C   0  0  0  0  0  3  0  0  0  0  0  0
  190.1880  172.1720  143.1360 C   0  0  0  0  0  3  0  0  0  0  0  0
  192.1480  173.7330  145.2790 C   0  0  0  0  0  2  0  0  0  0  0  0
  192.7000  176.4320  146.7940 Cl  0  0  0  0  0  0  0  0  0  0  0  0
  195.4810  176.0810  143.9060 C   0  0  0  0  0  0  0  0  0  0  0  0
  196.8470  177.0160  143.3400 Cl  0  0  0  0  0  0  0  0  0  0  0  0
  193.2920  174.5830  144.8130 C   0  0  0  0  0  0  0  0  0  0  0  0
  194.7180  176.5400  144.9830 C   0  0  0  0  0  3  0  0  0  0  0  0
  195.1510  174.8770  143.2810 C   0  0  0  0  0  3  0  0  0  0  0  0
  194.0610  174.1320  143.7340 C   0  0  0  0  0  3  0  0  0  0  0  0
  193.6260  175.8000  145.4420 C   0  0  0  0  0  0  0  0  0  0  0  0
  1 11  1  0  0  0  0
  1 19  1  0  0  0  0
  2  8  2  0  0  0  0
  2 11  1  0  0  0  0
  5 12  1  0  0  0  0
  6  7  2  0  0  0  0
  6  8  1  0  0  0  0
  7  9  1  0  0  0  0
  8 10  1  0  0  0  0
  9  3  2  0  0  0  0
  9  4  1  0  0  0  0
 10  3  1  0  0  0  0
 10 12  2  0  0  0  0
 11  5  2  0  0  0  0
 13 16  2  0  0  0  0
 13 17  1  0  0  0  0
 14  1  1  0  0  0  0
 15 14  2  0  0  0  0
 16 15  1  0  0  0  0
 17 18  2  0  0  0  0
 18 14  1  0  0  0  0
 21 24  1  0  0  0  0
 22 21  1  0  0  0  0
 23 19  1  0  0  0  0
 23 27  1  0  0  0  0
 24 27  2  0  0  0  0
 25 26  1  0  0  0  0
 25 21  2  0  0  0  0
 26 23  2  0  0  0  0
 27 20  1  0  0  0  0
M  END
>  <MODEL>
7

>  <REMARK>
 VINA RESULT:      -7.1      2.722      6.350
  Name = 
  4 active torsions:
  status: ('A' for Active; 'I' for Inactive)
    1  A    between atoms: C_1  and  N_15
    2  A    between atoms: C_1  and  C_18
    3  A    between atoms: C_9  and  N_15
    4  A    between atoms: N_15  and  C_19
                            x       y       z     vdW  Elec       q    Type
                         _______ _______ _______ _____ _____    ______ ____

>  <TORSDO>
F 4

$$$$
=
 OpenBabel11052418283D

 27 30  0  0  0  0  0  0  0  0999 V2000
  191.0590  175.8110  144.1470 N   0  0  0  0  0  0  0  0  0  0  0  0
  188.9700  177.1040  144.3600 C   0  0  0  0  0  3  0  0  0  0  0  0
  186.3600  177.0760  146.9410 N   0  0  0  0  0  0  0  0  0  0  0  0
  184.2900  178.2840  147.1870 N   0  0  0  0  0  1  0  0  0  0  0  0
  189.5640  175.5170  146.0920 C   0  0  0  0  0  3  0  0  0  0  0  0
  186.9000  178.3560  144.5440 C   0  0  0  0  0  3  0  0  0  0  0  0
  185.7320  178.6480  145.2510 C   0  0  0  0  0  3  0  0  0  0  0  0
  187.7960  177.4140  145.0500 C   0  0  0  0  0  0  0  0  0  0  0  0
  185.4770  177.9920  146.4590 C   0  0  0  0  0  0  0  0  0  0  0  0
  187.5050  176.7720  146.2720 C   0  0  0  0  0  0  0  0  0  0  0  0
  189.8660  176.1580  144.8790 C   0  0  0  0  0  0  0  0  0  0  0  0
  188.3910  175.8240  146.7870 C   0  0  0  0  0  3  0  0  0  0  0  0
  194.8090  175.3990  146.1340 C   0  0  0  0  0  3  0  0  0  0  0  0
  192.3380  175.6640  144.8100 C   0  0  0  0  0  0  0  0  0  0  0  0
  192.7800  174.4080  145.2630 C   0  0  0  0  0  3  0  0  0  0  0  0
  194.0080  174.2750  145.9180 C   0  0  0  0  0  3  0  0  0  0  0  0
  194.3800  176.6540  145.6990 C   0  0  0  0  0  3  0  0  0  0  0  0
  193.1530  176.7860  145.0450 C   0  0  0  0  0  3  0  0  0  0  0  0
  191.0030  175.7520  142.6820 C   0  0  0  0  0  2  0  0  0  0  0  0
  188.1600  174.4440  142.3860 Cl  0  0  0  0  0  0  0  0  0  0  0  0
  190.8720  171.7060  141.2250 C   0  0  0  0  0  0  0  0  0  0  0  0
  190.8380  170.0650  140.6200 Cl  0  0  0  0  0  0  0  0  0  0  0  0
  190.9250  174.3370  142.1930 C   0  0  0  0  0  0  0  0  0  0  0  0
  189.6760  172.3630  141.5290 C   0  0  0  0  0  3  0  0  0  0  0  0
  192.0920  172.3610  141.4040 C   0  0  0  0  0  3  0  0  0  0  0  0
  192.1170  173.6710  141.8860 C   0  0  0  0  0  3  0  0  0  0  0  0
  189.6940  173.6740  142.0120 C   0  0  0  0  0  0  0  0  0  0  0  0
  1 14  1  0  0  0  0
  1 11  1  0  0  0  0
  2 11  2  0  0  0  0
  2  8  1  0  0  0  0
  5 12  2  0  0  0  0
  6  8  2  0  0  0  0
  6  7  1  0  0  0  0
  7  9  2  0  0  0  0
  8 10  1  0  0  0  0
  9  3  1  0  0  0  0
  9  4  1  0  0  0  0
 10 12  1  0  0  0  0
 10  3  2  0  0  0  0
 11  5  1  0  0  0  0
 14 18  2  0  0  0  0
 14 15  1  0  0  0  0
 15 16  2  0  0  0  0
 16 13  1  0  0  0  0
 17 13  2  0  0  0  0
 18 17  1  0  0  0  0
 19  1  1  0  0  0  0
 21 25  2  0  0  0  0
 21 24  1  0  0  0  0
 22 21  1  0  0  0  0
 23 19  1  0  0  0  0
 24 27  2  0  0  0  0
 25 26  1  0  0  0  0
 26 23  2  0  0  0  0
 27 23  1  0  0  0  0
 27 20  1  0  0  0  0
M  END
>  <MODEL>
8

>  <REMARK>
 VINA RESULT:      -7.0      2.825      6.643
  Name = 
  4 active torsions:
  status: ('A' for Active; 'I' for Inactive)
    1  A    between atoms: C_1  and  N_15
    2  A    between atoms: C_1  and  C_18
    3  A    between atoms: C_9  and  N_15
    4  A    between atoms: N_15  and  C_19
                            x       y       z     vdW  Elec       q    Type
                         _______ _______ _______ _____ _____    ______ ____

>  <TORSDO>
F 4

$$$$
=
 OpenBabel11052418283D

 27 30  0  0  0  0  0  0  0  0999 V2000
  190.1290  174.6780  144.9020 N   0  0  0  0  0  0  0  0  0  0  0  0
  188.1780  176.0460  144.2620 C   0  0  0  0  0  3  0  0  0  0  0  0
  185.6210  177.7130  146.2990 N   0  0  0  0  0  0  0  0  0  0  0  0
  183.6820  179.0280  145.7350 N   0  0  0  0  0  1  0  0  0  0  0  0
  188.6450  175.6690  146.6100 C   0  0  0  0  0  3  0  0  0  0  0  0
  186.2430  177.3600  143.6220 C   0  0  0  0  0  3  0  0  0  0  0  0
  185.1200  178.1040  143.9930 C   0  0  0  0  0  3  0  0  0  0  0  0
  187.0520  176.7950  144.6080 C   0  0  0  0  0  0  0  0  0  0  0  0
  184.8230  178.2710  145.3480 C   0  0  0  0  0  0  0  0  0  0  0  0
  186.7200  176.9850  145.9660 C   0  0  0  0  0  0  0  0  0  0  0  0
  188.9870  175.4830  145.2610 C   0  0  0  0  0  0  0  0  0  0  0  0
  187.5180  176.4190  146.9610 C   0  0  0  0  0  3  0  0  0  0  0  0
  190.1800  172.4330  141.2780 C   0  0  0  0  0  3  0  0  0  0  0  0
  190.1610  173.9150  143.6720 C   0  0  0  0  0  0  0  0  0  0  0  0
  190.6280  174.4870  142.4750 C   0  0  0  0  0  3  0  0  0  0  0  0
  190.6400  173.7520  141.2870 C   0  0  0  0  0  3  0  0  0  0  0  0
  189.7050  171.8530  142.4550 C   0  0  0  0  0  3  0  0  0  0  0  0
  189.6930  172.5890  143.6420 C   0  0  0  0  0  3  0  0  0  0  0  0
  191.2160  174.5130  145.8730 C   0  0  0  0  0  2  0  0  0  0  0  0
  193.3070  172.3860  144.8800 Cl  0  0  0  0  0  0  0  0  0  0  0  0
  194.9110  176.0260  144.2720 C   0  0  0  0  0  0  0  0  0  0  0  0
  196.4030  176.6610  143.6140 Cl  0  0  0  0  0  0  0  0  0  0  0  0
  192.5210  175.0080  145.3260 C   0  0  0  0  0  0  0  0  0  0  0  0
  194.7000  174.6450  144.3180 C   0  0  0  0  0  3  0  0  0  0  0  0
  193.9320  176.8970  144.7530 C   0  0  0  0  0  3  0  0  0  0  0  0
  192.7420  176.3890  145.2770 C   0  0  0  0  0  3  0  0  0  0  0  0
  193.5110  174.1290  144.8410 C   0  0  0  0  0  0  0  0  0  0  0  0
  1 11  1  0  0  0  0
  1 19  1  0  0  0  0
  2  8  2  0  0  0  0
  2 11  1  0  0  0  0
  5 12  1  0  0  0  0
  6  7  2  0  0  0  0
  6  8  1  0  0  0  0
  7  9  1  0  0  0  0
  8 10  1  0  0  0  0
  9  4  1  0  0  0  0
  9  3  2  0  0  0  0
 10  3  1  0  0  0  0
 10 12  2  0  0  0  0
 11  5  2  0  0  0  0
 13 16  2  0  0  0  0
 13 17  1  0  0  0  0
 14  1  1  0  0  0  0
 15 14  2  0  0  0  0
 16 15  1  0  0  0  0
 17 18  2  0  0  0  0
 18 14  1  0  0  0  0
 21 24  2  0  0  0  0
 21 25  1  0  0  0  0
 22 21  1  0  0  0  0
 23 19  1  0  0  0  0
 24 27  1  0  0  0  0
 25 26  2  0  0  0  0
 26 23  1  0  0  0  0
 27 20  1  0  0  0  0
 27 23  2  0  0  0  0
M  END
>  <MODEL>
9

>  <REMARK>
 VINA RESULT:      -6.9      2.649      5.956
  Name = 
  4 active torsions:
  status: ('A' for Active; 'I' for Inactive)
    1  A    between atoms: C_1  and  N_15
    2  A    between atoms: C_1  and  C_18
    3  A    between atoms: C_9  and  N_15
    4  A    between atoms: N_15  and  C_19
                            x       y       z     vdW  Elec       q    Type
                         _______ _______ _______ _____ _____    ______ ____

>  <TORSDO>
F 4

$$$$
