=
 OpenBabel11052417273D

 25 27  0  0  1  0  0  0  0  0999 V2000
  187.5690  177.3290  146.7620 C   0  0  1  0  0  3  0  0  0  0  0  0
  187.3440  178.0170  145.4070 C   0  0  1  0  0  3  0  0  0  0  0  0
  185.0570  176.8750  146.5730 C   0  0  0  0  0  2  0  0  0  0  0  0
  184.9410  178.3800  146.3370 C   0  0  0  0  0  2  0  0  0  0  0  0
  185.6260  179.3990  144.1450 C   0  0  0  0  0  0  0  0  0  0  0  0
  185.1550  180.5170  144.0180 O   0  0  0  0  0  0  0  0  0  0  0  0
  187.2360  177.0000  144.2630 C   0  0  0  0  0  2  0  0  0  0  0  0
  186.3680  176.5200  147.2830 C   0  0  0  0  0  2  0  0  0  0  0  0
  185.6590  178.4700  142.9710 C   0  0  0  0  0  2  0  0  0  0  0  0
  186.9820  177.7090  142.9360 C   0  0  2  0  0  3  0  0  0  0  0  0
  186.1010  178.9380  145.4940 C   0  0  2  0  0  3  0  0  0  0  0  0
  188.8900  176.6210  146.8840 C   0  0  0  0  0  0  0  0  0  0  0  0
  191.2870  175.1760  147.0950 C   0  0  0  0  0  3  0  0  0  0  0  0
  190.0090  177.1910  147.5280 C   0  0  0  0  0  0  0  0  0  0  0  0
  191.2000  176.4650  147.6270 C   0  0  0  0  0  3  0  0  0  0  0  0
  190.1810  174.6080  146.4610 C   0  0  0  0  0  3  0  0  0  0  0  0
  189.9540  178.4700  148.0680 O   0  0  0  0  0  1  0  0  0  0  0  0
  188.9870  175.3270  146.3590 C   0  0  0  0  0  3  0  0  0  0  0  0
  187.0270  176.7300  141.7670 C   0  0  0  0  0  2  0  0  0  0  0  0
  187.1540  175.2800  142.2250 C   0  0  0  0  0  2  0  0  0  0  0  0
  188.4850  174.6970  141.7830 C   0  0  1  0  0  3  0  0  0  0  0  0
  189.4200  174.8790  142.7850 F   0  0  0  0  0  0  0  0  0  0  0  0
  188.3500  173.2400  141.4850 C   0  0  0  0  0  0  0  0  0  0  0  0
  188.4680  172.3010  142.5010 O   0  0  0  0  0  1  0  0  0  0  0  0
  188.1140  172.8630  140.3080 O   0  0  0  0  0  0  0  0  0  0  0  0
  1 12  1  6  0  0  0
  1  8  1  0  0  0  0
  2  7  1  6  0  0  0
  2 11  1  0  0  0  0
  2  1  1  0  0  0  0
  3  8  1  0  0  0  0
  4  3  1  0  0  0  0
  5 11  1  0  0  0  0
  6  5  2  0  0  0  0
  9  5  1  0  0  0  0
 10 19  1  6  0  0  0
 10  9  1  0  0  0  0
 10  7  1  0  0  0  0
 11  4  1  6  0  0  0
 12 14  1  0  0  0  0
 13 15  1  0  0  0  0
 14 15  2  0  0  0  0
 14 17  1  0  0  0  0
 16 13  2  0  0  0  0
 18 16  1  0  0  0  0
 18 12  2  0  0  0  0
 19 20  1  0  0  0  0
 21 20  1  0  0  0  0
 21 22  1  1  0  0  0
 23 21  1  0  0  0  0
 23 24  1  0  0  0  0
 25 23  2  0  0  0  0
M  END
>  <MODEL>
1

>  <REMARK>
 VINA RESULT:      -7.4      0.000      0.000
  Name = 
  5 active torsions:
  status: ('A' for Active; 'I' for Inactive)
    1  A    between atoms: C_1  and  C_5
    2  A    between atoms: C_2  and  C_21
    3  A    between atoms: C_6  and  C_15
    4  A    between atoms: C_6  and  C_23
    5  A    between atoms: C_15  and  C_21
                            x       y       z     vdW  Elec       q    Type
                         _______ _______ _______ _____ _____    ______ ____

>  <TORSDO>
F 5

$$$$
=
 OpenBabel11052417273D

 25 27  0  0  1  0  0  0  0  0999 V2000
  187.8480  176.5020  141.9400 C   0  0  1  0  0  3  0  0  0  0  0  0
  188.7560  177.1260  143.0110 C   0  0  1  0  0  3  0  0  0  0  0  0
  188.9820  174.3410  142.7130 C   0  0  0  0  0  2  0  0  0  0  0  0
  190.2860  175.0950  142.4580 C   0  0  0  0  0  2  0  0  0  0  0  0
  191.0690  176.8880  144.0350 C   0  0  0  0  0  0  0  0  0  0  0  0
  192.2540  177.1260  143.8690 O   0  0  0  0  0  0  0  0  0  0  0  0
  188.2030  176.9030  144.4250 C   0  0  0  0  0  2  0  0  0  0  0  0
  187.8170  174.9630  141.9370 C   0  0  0  0  0  2  0  0  0  0  0  0
  190.5100  176.8320  145.4230 C   0  0  0  0  0  2  0  0  0  0  0  0
  189.1410  177.5040  145.4680 C   0  0  2  0  0  3  0  0  0  0  0  0
  190.1970  176.5800  142.8500 C   0  0  2  0  0  3  0  0  0  0  0  0
  186.4960  177.1480  141.8230 C   0  0  0  0  0  0  0  0  0  0  0  0
  183.9320  178.2860  141.7240 C   0  0  0  0  0  3  0  0  0  0  0  0
  185.9810  177.6360  140.6030 C   0  0  0  0  0  0  0  0  0  0  0  0
  184.7030  178.2020  140.5620 C   0  0  0  0  0  3  0  0  0  0  0  0
  184.4360  177.8000  142.9320 C   0  0  0  0  0  3  0  0  0  0  0  0
  186.7240  177.5670  139.4300 O   0  0  0  0  0  1  0  0  0  0  0  0
  185.7110  177.2320  142.9800 C   0  0  0  0  0  3  0  0  0  0  0  0
  188.5330  177.4300  146.8660 C   0  0  0  0  0  2  0  0  0  0  0  0
  187.1350  176.8200  146.8630 C   0  0  0  0  0  2  0  0  0  0  0  0
  186.1520  177.7400  147.5670 C   0  0  1  0  0  3  0  0  0  0  0  0
  186.8490  178.6880  148.2910 F   0  0  0  0  0  0  0  0  0  0  0  0
  185.2640  178.4200  146.5780 C   0  0  0  0  0  0  0  0  0  0  0  0
  185.7610  179.4370  145.7720 O   0  0  0  0  0  0  0  0  0  0  0  0
  184.0640  178.0610  146.4640 O   0  0  0  0  0  1  0  0  0  0  0  0
  1 12  1  1  0  0  0
  1  2  1  0  0  0  0
  2  7  1  1  0  0  0
  4  3  1  0  0  0  0
  5  9  1  0  0  0  0
  6  5  2  0  0  0  0
  7 10  1  0  0  0  0
  8  1  1  0  0  0  0
  8  3  1  0  0  0  0
  9 10  1  0  0  0  0
 10 19  1  1  0  0  0
 11  4  1  1  0  0  0
 11  2  1  0  0  0  0
 11  5  1  0  0  0  0
 12 18  1  0  0  0  0
 13 16  1  0  0  0  0
 14 12  2  0  0  0  0
 15 14  1  0  0  0  0
 15 13  2  0  0  0  0
 16 18  2  0  0  0  0
 17 14  1  0  0  0  0
 20 19  1  0  0  0  0
 20 21  1  0  0  0  0
 21 22  1  6  0  0  0
 23 21  1  0  0  0  0
 24 23  2  0  0  0  0
 25 23  1  0  0  0  0
M  END
>  <MODEL>
2

>  <REMARK>
 VINA RESULT:      -7.3      2.784      6.765
  Name = 
  5 active torsions:
  status: ('A' for Active; 'I' for Inactive)
    1  A    between atoms: C_1  and  C_5
    2  A    between atoms: C_2  and  C_21
    3  A    between atoms: C_6  and  C_15
    4  A    between atoms: C_6  and  C_23
    5  A    between atoms: C_15  and  C_21
                            x       y       z     vdW  Elec       q    Type
                         _______ _______ _______ _____ _____    ______ ____

>  <TORSDO>
F 5

$$$$
=
 OpenBabel11052417273D

 25 27  0  0  1  0  0  0  0  0999 V2000
  188.8510  177.2460  145.8520 C   0  0  1  0  0  3  0  0  0  0  0  0
  188.4760  177.1630  144.3640 C   0  0  1  0  0  3  0  0  0  0  0  0
  186.3340  176.8990  146.1620 C   0  0  0  0  0  2  0  0  0  0  0  0
  186.1910  178.0810  145.2040 C   0  0  0  0  0  2  0  0  0  0  0  0
  186.6280  177.8080  142.7450 C   0  0  0  0  0  0  0  0  0  0  0  0
  186.1440  178.7310  142.1120 O   0  0  0  0  0  0  0  0  0  0  0  0
  188.2440  175.7140  143.9160 C   0  0  0  0  0  2  0  0  0  0  0  0
  187.7150  176.8810  146.8240 C   0  0  0  0  0  2  0  0  0  0  0  0
  186.5320  176.4120  142.2120 C   0  0  0  0  0  2  0  0  0  0  0  0
  187.8430  175.6660  142.4440 C   0  0  2  0  0  3  0  0  0  0  0  0
  187.2500  178.0680  144.0880 C   0  0  2  0  0  3  0  0  0  0  0  0
  190.1780  176.6250  146.1900 C   0  0  0  0  0  0  0  0  0  0  0  0
  192.6070  175.4450  146.9540 C   0  0  0  0  0  3  0  0  0  0  0  0
  191.3610  176.9040  145.4730 C   0  0  0  0  0  0  0  0  0  0  0  0
  192.5660  176.3110  145.8590 C   0  0  0  0  0  3  0  0  0  0  0  0
  191.4400  175.1710  147.6700 C   0  0  0  0  0  3  0  0  0  0  0  0
  191.3520  177.7610  144.3780 O   0  0  0  0  0  1  0  0  0  0  0  0
  190.2320  175.7610  147.2900 C   0  0  0  0  0  3  0  0  0  0  0  0
  187.7600  174.2280  141.9390 C   0  0  0  0  0  2  0  0  0  0  0  0
  189.1100  173.5180  141.9770 C   0  0  0  0  0  2  0  0  0  0  0  0
  189.0470  172.3050  142.8890 C   0  0  1  0  0  3  0  0  0  0  0  0
  189.5750  171.2100  142.2320 F   0  0  0  0  0  0  0  0  0  0  0  0
  189.8150  172.5500  144.1460 C   0  0  0  0  0  0  0  0  0  0  0  0
  190.8890  173.4310  144.1530 O   0  0  0  0  0  0  0  0  0  0  0  0
  189.4780  171.9650  145.2080 O   0  0  0  0  0  1  0  0  0  0  0  0
  1 12  1  6  0  0  0
  1  8  1  0  0  0  0
  2  7  1  1  0  0  0
  2  1  1  0  0  0  0
  3  8  1  0  0  0  0
  4  3  1  0  0  0  0
  5 11  1  0  0  0  0
  6  5  2  0  0  0  0
  9 10  1  0  0  0  0
  9  5  1  0  0  0  0
 10 19  1  1  0  0  0
 10  7  1  0  0  0  0
 11  2  1  0  0  0  0
 11  4  1  1  0  0  0
 12 18  1  0  0  0  0
 13 16  1  0  0  0  0
 14 15  1  0  0  0  0
 14 12  2  0  0  0  0
 15 13  2  0  0  0  0
 17 14  1  0  0  0  0
 18 16  2  0  0  0  0
 19 20  1  0  0  0  0
 20 21  1  0  0  0  0
 21 22  1  6  0  0  0
 21 23  1  0  0  0  0
 23 24  2  0  0  0  0
 23 25  1  0  0  0  0
M  END
>  <MODEL>
3

>  <REMARK>
 VINA RESULT:      -6.9      1.966      2.543
  Name = 
  5 active torsions:
  status: ('A' for Active; 'I' for Inactive)
    1  A    between atoms: C_1  and  C_5
    2  A    between atoms: C_2  and  C_21
    3  A    between atoms: C_6  and  C_15
    4  A    between atoms: C_6  and  C_23
    5  A    between atoms: C_15  and  C_21
                            x       y       z     vdW  Elec       q    Type
                         _______ _______ _______ _____ _____    ______ ____

>  <TORSDO>
F 5

$$$$
=
 OpenBabel11052417273D

 25 27  0  0  1  0  0  0  0  0999 V2000
  185.4980  177.5580  144.3560 C   0  0  1  0  0  3  0  0  0  0  0  0
  186.8500  176.9260  144.7220 C   0  0  1  0  0  3  0  0  0  0  0  0
  185.9180  178.8900  146.5020 C   0  0  0  0  0  2  0  0  0  0  0  0
  186.1240  177.5210  147.1490 C   0  0  0  0  0  2  0  0  0  0  0  0
  188.2220  176.2010  146.7330 C   0  0  0  0  0  0  0  0  0  0  0  0
  188.3610  175.3290  147.5740 O   0  0  0  0  0  0  0  0  0  0  0  0
  188.0240  177.8460  144.3630 C   0  0  0  0  0  2  0  0  0  0  0  0
  185.1050  178.7780  145.2070 C   0  0  0  0  0  2  0  0  0  0  0  0
  189.4120  176.9870  146.2750 C   0  0  0  0  0  2  0  0  0  0  0  0
  189.3500  177.2070  144.7660 C   0  0  2  0  0  3  0  0  0  0  0  0
  186.8490  176.5310  146.2190 C   0  0  2  0  0  3  0  0  0  0  0  0
  185.2800  177.7380  142.8790 C   0  0  0  0  0  0  0  0  0  0  0  0
  185.0120  178.0750  140.1060 C   0  0  0  0  0  3  0  0  0  0  0  0
  184.0950  178.2850  142.3410 C   0  0  0  0  0  0  0  0  0  0  0  0
  183.9700  178.4490  140.9580 C   0  0  0  0  0  3  0  0  0  0  0  0
  186.1870  177.5390  140.6360 C   0  0  0  0  0  3  0  0  0  0  0  0
  183.0410  178.6660  143.1620 O   0  0  0  0  0  1  0  0  0  0  0  0
  186.3200  177.3730  142.0170 C   0  0  0  0  0  3  0  0  0  0  0  0
  190.5350  178.0350  144.2780 C   0  0  0  0  0  2  0  0  0  0  0  0
  191.3330  177.3250  143.1880 C   0  0  0  0  0  2  0  0  0  0  0  0
  192.5550  176.6450  143.7800 C   0  0  1  0  0  3  0  0  0  0  0  0
  192.7950  177.1520  145.0430 F   0  0  0  0  0  0  0  0  0  0  0  0
  192.3480  175.1690  143.8670 C   0  0  0  0  0  0  0  0  0  0  0  0
  191.7580  174.6070  144.9920 O   0  0  0  0  0  1  0  0  0  0  0  0
  192.6970  174.4320  142.9090 O   0  0  0  0  0  0  0  0  0  0  0  0
  1 12  1  6  0  0  0
  1  2  1  0  0  0  0
  1  8  1  0  0  0  0
  2  7  1  1  0  0  0
  2 11  1  0  0  0  0
  3  4  1  0  0  0  0
  5  6  2  0  0  0  0
  7 10  1  0  0  0  0
  8  3  1  0  0  0  0
  9  5  1  0  0  0  0
 10 19  1  1  0  0  0
 10  9  1  0  0  0  0
 11  5  1  0  0  0  0
 11  4  1  1  0  0  0
 13 16  2  0  0  0  0
 13 15  1  0  0  0  0
 14 12  1  0  0  0  0
 14 17  1  0  0  0  0
 15 14  2  0  0  0  0
 16 18  1  0  0  0  0
 18 12  2  0  0  0  0
 20 21  1  0  0  0  0
 20 19  1  0  0  0  0
 21 23  1  0  0  0  0
 21 22  1  1  0  0  0
 23 24  1  0  0  0  0
 25 23  2  0  0  0  0
M  END
>  <MODEL>
4

>  <REMARK>
 VINA RESULT:      -6.8      2.688      5.538
  Name = 
  5 active torsions:
  status: ('A' for Active; 'I' for Inactive)
    1  A    between atoms: C_1  and  C_5
    2  A    between atoms: C_2  and  C_21
    3  A    between atoms: C_6  and  C_15
    4  A    between atoms: C_6  and  C_23
    5  A    between atoms: C_15  and  C_21
                            x       y       z     vdW  Elec       q    Type
                         _______ _______ _______ _____ _____    ______ ____

>  <TORSDO>
F 5

$$$$
=
 OpenBabel11052417273D

 25 27  0  0  1  0  0  0  0  0999 V2000
  189.2850  177.5080  144.7800 C   0  0  1  0  0  3  0  0  0  0  0  0
  189.9170  176.2560  145.4060 C   0  0  1  0  0  3  0  0  0  0  0  0
  191.1760  177.2060  143.0810 C   0  0  0  0  0  2  0  0  0  0  0  0
  192.0880  177.1770  144.3060 C   0  0  0  0  0  2  0  0  0  0  0  0
  192.1730  175.1590  145.8020 C   0  0  0  0  0  0  0  0  0  0  0  0
  193.1740  175.1770  146.5000 O   0  0  0  0  0  0  0  0  0  0  0  0
  189.5300  174.9820  144.6430 C   0  0  0  0  0  2  0  0  0  0  0  0
  189.8400  177.8880  143.3960 C   0  0  0  0  0  2  0  0  0  0  0  0
  191.7170  173.8700  145.1920 C   0  0  0  0  0  2  0  0  0  0  0  0
  190.1960  173.7590  145.2680 C   0  0  2  0  0  3  0  0  0  0  0  0
  191.4510  176.4420  145.4990 C   0  0  2  0  0  3  0  0  0  0  0  0
  187.7850  177.5600  144.8790 C   0  0  0  0  0  0  0  0  0  0  0  0
  184.9820  177.6950  144.9280 C   0  0  0  0  0  3  0  0  0  0  0  0
  187.1030  177.7270  146.1030 C   0  0  0  0  0  0  0  0  0  0  0  0
  185.7060  177.7920  146.1190 C   0  0  0  0  0  3  0  0  0  0  0  0
  185.6540  177.5350  143.7150 C   0  0  0  0  0  3  0  0  0  0  0  0
  187.7950  177.8270  147.3040 O   0  0  0  0  0  1  0  0  0  0  0  0
  187.0500  177.4700  143.6910 C   0  0  0  0  0  3  0  0  0  0  0  0
  189.7020  172.4680  144.6220 C   0  0  0  0  0  2  0  0  0  0  0  0
  190.4060  172.1700  143.3020 C   0  0  0  0  0  2  0  0  0  0  0  0
  189.4090  172.1650  142.1560 C   0  0  1  0  0  3  0  0  0  0  0  0
  188.1250  172.1670  142.6670 F   0  0  0  0  0  0  0  0  0  0  0  0
  189.6020  173.3610  141.2840 C   0  0  0  0  0  0  0  0  0  0  0  0
  188.6250  173.7250  140.3660 O   0  0  0  0  0  0  0  0  0  0  0  0
  190.6480  174.0520  141.3920 O   0  0  0  0  0  1  0  0  0  0  0  0
  1 12  1  6  0  0  0
  1  2  1  0  0  0  0
  2  7  1  6  0  0  0
  2 11  1  0  0  0  0
  3  8  1  0  0  0  0
  3  4  1  0  0  0  0
  5  6  2  0  0  0  0
  7 10  1  0  0  0  0
  8  1  1  0  0  0  0
  9 10  1  0  0  0  0
  9  5  1  0  0  0  0
 10 19  1  6  0  0  0
 11  4  1  6  0  0  0
 11  5  1  0  0  0  0
 12 14  1  0  0  0  0
 13 15  1  0  0  0  0
 14 15  2  0  0  0  0
 14 17  1  0  0  0  0
 16 13  2  0  0  0  0
 18 16  1  0  0  0  0
 18 12  2  0  0  0  0
 20 19  1  0  0  0  0
 21 22  1  1  0  0  0
 21 20  1  0  0  0  0
 23 25  1  0  0  0  0
 23 21  1  0  0  0  0
 24 23  2  0  0  0  0
M  END
>  <MODEL>
5

>  <REMARK>
 VINA RESULT:      -6.8      2.332      5.296
  Name = 
  5 active torsions:
  status: ('A' for Active; 'I' for Inactive)
    1  A    between atoms: C_1  and  C_5
    2  A    between atoms: C_2  and  C_21
    3  A    between atoms: C_6  and  C_15
    4  A    between atoms: C_6  and  C_23
    5  A    between atoms: C_15  and  C_21
                            x       y       z     vdW  Elec       q    Type
                         _______ _______ _______ _____ _____    ______ ____

>  <TORSDO>
F 5

$$$$
=
 OpenBabel11052417273D

 25 27  0  0  1  0  0  0  0  0999 V2000
  191.7140  175.6200  145.8510 C   0  0  1  0  0  3  0  0  0  0  0  0
  190.6360  176.6990  145.6680 C   0  0  1  0  0  3  0  0  0  0  0  0
  189.6770  174.0720  145.9380 C   0  0  0  0  0  2  0  0  0  0  0  0
  189.1690  175.0270  147.0170 C   0  0  0  0  0  2  0  0  0  0  0  0
  188.2840  177.3000  146.4150 C   0  0  0  0  0  0  0  0  0  0  0  0
  187.6240  177.7660  147.3290 O   0  0  0  0  0  0  0  0  0  0  0  0
  190.0920  176.7220  144.2340 C   0  0  0  0  0  2  0  0  0  0  0  0
  191.1980  174.1720  145.7760 C   0  0  0  0  0  2  0  0  0  0  0  0
  187.8180  177.4700  145.0020 C   0  0  0  0  0  2  0  0  0  0  0  0
  189.0020  177.7800  144.0900 C   0  0  2  0  0  3  0  0  0  0  0  0
  189.5160  176.4960  146.7190 C   0  0  2  0  0  3  0  0  0  0  0  0
  192.9750  175.8680  145.0710 C   0  0  0  0  0  0  0  0  0  0  0  0
  195.2960  176.2200  143.5310 C   0  0  0  0  0  3  0  0  0  0  0  0
  194.0870  176.5540  145.6060 C   0  0  0  0  0  0  0  0  0  0  0  0
  195.2380  176.7260  144.8320 C   0  0  0  0  0  3  0  0  0  0  0  0
  194.2000  175.5360  143.0000 C   0  0  0  0  0  3  0  0  0  0  0  0
  194.0600  177.0690  146.8970 O   0  0  0  0  0  1  0  0  0  0  0  0
  193.0460  175.3600  143.7680 C   0  0  0  0  0  3  0  0  0  0  0  0
  188.5580  177.9250  142.6370 C   0  0  0  0  0  2  0  0  0  0  0  0
  187.3140  177.1010  142.3220 C   0  0  0  0  0  2  0  0  0  0  0  0
  186.1180  178.0090  142.0920 C   0  0  1  0  0  3  0  0  0  0  0  0
  186.4310  179.2910  142.5040 F   0  0  0  0  0  0  0  0  0  0  0  0
  185.7400  178.0280  140.6480 C   0  0  0  0  0  0  0  0  0  0  0  0
  186.5800  177.4670  139.6940 O   0  0  0  0  0  0  0  0  0  0  0  0
  184.6470  178.5430  140.2940 O   0  0  0  0  0  1  0  0  0  0  0  0
  1 12  1  6  0  0  0
  2  7  1  6  0  0  0
  2  1  1  0  0  0  0
  2 11  1  0  0  0  0
  3  4  1  0  0  0  0
  5 11  1  0  0  0  0
  5  6  2  0  0  0  0
  8  1  1  0  0  0  0
  8  3  1  0  0  0  0
  9  5  1  0  0  0  0
 10 19  1  6  0  0  0
 10  7  1  0  0  0  0
 10  9  1  0  0  0  0
 11  4  1  6  0  0  0
 12 14  1  0  0  0  0
 13 15  1  0  0  0  0
 14 17  1  0  0  0  0
 15 14  2  0  0  0  0
 16 13  2  0  0  0  0
 16 18  1  0  0  0  0
 18 12  2  0  0  0  0
 20 19  1  0  0  0  0
 21 20  1  0  0  0  0
 21 22  1  6  0  0  0
 23 21  1  0  0  0  0
 24 23  2  0  0  0  0
 25 23  1  0  0  0  0
M  END
>  <MODEL>
6

>  <REMARK>
 VINA RESULT:      -6.7      3.100      4.653
  Name = 
  5 active torsions:
  status: ('A' for Active; 'I' for Inactive)
    1  A    between atoms: C_1  and  C_5
    2  A    between atoms: C_2  and  C_21
    3  A    between atoms: C_6  and  C_15
    4  A    between atoms: C_6  and  C_23
    5  A    between atoms: C_15  and  C_21
                            x       y       z     vdW  Elec       q    Type
                         _______ _______ _______ _____ _____    ______ ____

>  <TORSDO>
F 5

$$$$
=
 OpenBabel11052417273D

 25 27  0  0  1  0  0  0  0  0999 V2000
  189.3020  177.0470  145.2590 C   0  0  1  0  0  3  0  0  0  0  0  0
  189.7270  175.5790  145.1030 C   0  0  1  0  0  3  0  0  0  0  0  0
  191.2480  177.4340  143.6400 C   0  0  0  0  0  2  0  0  0  0  0  0
  192.0660  176.6240  144.6450 C   0  0  0  0  0  2  0  0  0  0  0  0
  191.7950  174.1320  144.8180 C   0  0  0  0  0  0  0  0  0  0  0  0
  192.7410  173.6300  145.4020 O   0  0  0  0  0  0  0  0  0  0  0  0
  189.2330  174.9810  143.7800 C   0  0  0  0  0  2  0  0  0  0  0  0
  189.9920  178.0240  144.2900 C   0  0  0  0  0  2  0  0  0  0  0  0
  191.2200  173.4490  143.6150 C   0  0  0  0  0  2  0  0  0  0  0  0
  189.6960  173.5330  143.6390 C   0  0  2  0  0  3  0  0  0  0  0  0
  191.2640  175.4650  145.2630 C   0  0  2  0  0  3  0  0  0  0  0  0
  187.8190  177.2510  145.3890 C   0  0  0  0  0  0  0  0  0  0  0  0
  185.0610  177.7490  145.5550 C   0  0  0  0  0  3  0  0  0  0  0  0
  187.0560  176.6890  146.4360 C   0  0  0  0  0  0  0  0  0  0  0  0
  185.6830  176.9410  146.5100 C   0  0  0  0  0  3  0  0  0  0  0  0
  185.8130  178.3110  144.5210 C   0  0  0  0  0  3  0  0  0  0  0  0
  187.6460  175.8810  147.4010 O   0  0  0  0  0  1  0  0  0  0  0  0
  187.1860  178.0640  144.4410 C   0  0  0  0  0  3  0  0  0  0  0  0
  189.0850  172.8740  142.4060 C   0  0  0  0  0  2  0  0  0  0  0  0
  188.3020  173.8600  141.5450 C   0  0  0  0  0  2  0  0  0  0  0  0
  189.0540  174.1580  140.2590 C   0  0  1  0  0  3  0  0  0  0  0  0
  190.3120  173.5890  140.3220 F   0  0  0  0  0  0  0  0  0  0  0  0
  188.3190  173.6140  139.0790 C   0  0  0  0  0  0  0  0  0  0  0  0
  187.9070  174.4610  138.0570 O   0  0  0  0  0  0  0  0  0  0  0  0
  188.0840  172.3800  139.0030 O   0  0  0  0  0  1  0  0  0  0  0  0
  1 12  1  6  0  0  0
  2  7  1  6  0  0  0
  2  1  1  0  0  0  0
  2 11  1  0  0  0  0
  3  8  1  0  0  0  0
  3  4  1  0  0  0  0
  5 11  1  0  0  0  0
  5  6  2  0  0  0  0
  8  1  1  0  0  0  0
  9 10  1  0  0  0  0
  9  5  1  0  0  0  0
 10 19  1  6  0  0  0
 10  7  1  0  0  0  0
 11  4  1  6  0  0  0
 12 14  1  0  0  0  0
 13 15  1  0  0  0  0
 14 15  2  0  0  0  0
 14 17  1  0  0  0  0
 16 13  2  0  0  0  0
 18 16  1  0  0  0  0
 18 12  2  0  0  0  0
 20 19  1  0  0  0  0
 21 22  1  1  0  0  0
 21 20  1  0  0  0  0
 23 21  1  0  0  0  0
 24 23  2  0  0  0  0
 25 23  1  0  0  0  0
M  END
>  <MODEL>
7

>  <REMARK>
 VINA RESULT:      -6.7      2.401      5.184
  Name = 
  5 active torsions:
  status: ('A' for Active; 'I' for Inactive)
    1  A    between atoms: C_1  and  C_5
    2  A    between atoms: C_2  and  C_21
    3  A    between atoms: C_6  and  C_15
    4  A    between atoms: C_6  and  C_23
    5  A    between atoms: C_15  and  C_21
                            x       y       z     vdW  Elec       q    Type
                         _______ _______ _______ _____ _____    ______ ____

>  <TORSDO>
F 5

$$$$
=
 OpenBabel11052417273D

 25 27  0  0  1  0  0  0  0  0999 V2000
  187.8040  178.1660  144.2900 C   0  0  1  0  0  3  0  0  0  0  0  0
  188.9830  177.3740  144.8780 C   0  0  1  0  0  3  0  0  0  0  0  0
  188.8450  177.4240  142.0720 C   0  0  0  0  0  2  0  0  0  0  0  0
  190.1350  178.0180  142.6360 C   0  0  0  0  0  2  0  0  0  0  0  0
  191.4240  176.8300  144.4360 C   0  0  0  0  0  0  0  0  0  0  0  0
  192.5630  177.2590  144.5110 O   0  0  0  0  0  0  0  0  0  0  0  0
  188.7290  175.8620  144.8370 C   0  0  0  0  0  2  0  0  0  0  0  0
  187.6110  178.0030  142.7720 C   0  0  0  0  0  2  0  0  0  0  0  0
  191.1760  175.3580  144.5590 C   0  0  0  0  0  2  0  0  0  0  0  0
  189.9280  175.1020  145.3980 C   0  0  2  0  0  3  0  0  0  0  0  0
  190.2890  177.7720  144.1470 C   0  0  2  0  0  3  0  0  0  0  0  0
  186.5340  178.0670  145.0880 C   0  0  0  0  0  0  0  0  0  0  0  0
  184.1830  177.7430  146.5870 C   0  0  0  0  0  3  0  0  0  0  0  0
  185.5080  179.0340  145.0190 C   0  0  0  0  0  0  0  0  0  0  0  0
  184.3400  178.8650  145.7700 C   0  0  0  0  0  3  0  0  0  0  0  0
  185.1930  176.7820  146.6540 C   0  0  0  0  0  3  0  0  0  0  0  0
  185.6350  180.1610  144.2160 O   0  0  0  0  0  1  0  0  0  0  0  0
  186.3620  176.9430  145.9050 C   0  0  0  0  0  3  0  0  0  0  0  0
  189.6330  173.6080  145.5100 C   0  0  0  0  0  2  0  0  0  0  0  0
  190.6320  172.7570  144.7320 C   0  0  0  0  0  2  0  0  0  0  0  0
  189.9420  172.0430  143.5840 C   0  0  1  0  0  3  0  0  0  0  0  0
  188.6870  172.5900  143.3910 F   0  0  0  0  0  0  0  0  0  0  0  0
  190.7390  172.1680  142.3280 C   0  0  0  0  0  0  0  0  0  0  0  0
  190.1290  172.0080  141.0900 O   0  0  0  0  0  0  0  0  0  0  0  0
  191.9670  172.4350  142.3910 O   0  0  0  0  0  1  0  0  0  0  0  0
  1  2  1  0  0  0  0
  1 12  1  1  0  0  0
  2  7  1  6  0  0  0
  3  4  1  0  0  0  0
  3  8  1  0  0  0  0
  5  6  2  0  0  0  0
  5  9  1  0  0  0  0
  7 10  1  0  0  0  0
  8  1  1  0  0  0  0
  9 10  1  0  0  0  0
 10 19  1  6  0  0  0
 11  4  1  6  0  0  0
 11  5  1  0  0  0  0
 11  2  1  0  0  0  0
 12 18  1  0  0  0  0
 13 16  1  0  0  0  0
 14 12  2  0  0  0  0
 14 15  1  0  0  0  0
 15 13  2  0  0  0  0
 17 14  1  0  0  0  0
 18 16  2  0  0  0  0
 20 19  1  0  0  0  0
 21 22  1  6  0  0  0
 21 20  1  0  0  0  0
 23 25  1  0  0  0  0
 23 21  1  0  0  0  0
 24 23  2  0  0  0  0
M  END
>  <MODEL>
8

>  <REMARK>
 VINA RESULT:      -6.6      2.220      5.062
  Name = 
  5 active torsions:
  status: ('A' for Active; 'I' for Inactive)
    1  A    between atoms: C_1  and  C_5
    2  A    between atoms: C_2  and  C_21
    3  A    between atoms: C_6  and  C_15
    4  A    between atoms: C_6  and  C_23
    5  A    between atoms: C_15  and  C_21
                            x       y       z     vdW  Elec       q    Type
                         _______ _______ _______ _____ _____    ______ ____

>  <TORSDO>
F 5

$$$$
=
 OpenBabel11052417273D

 25 27  0  0  1  0  0  0  0  0999 V2000
  186.0220  177.3850  143.1830 C   0  0  1  0  0  3  0  0  0  0  0  0
  186.1430  177.2070  144.7050 C   0  0  1  0  0  3  0  0  0  0  0  0
  185.7940  179.8530  143.8250 C   0  0  0  0  0  2  0  0  0  0  0  0
  184.6910  179.3660  144.7640 C   0  0  0  0  0  2  0  0  0  0  0  0
  185.2500  178.1470  146.8890 C   0  0  0  0  0  0  0  0  0  0  0  0
  184.2980  178.1450  147.6520 O   0  0  0  0  0  0  0  0  0  0  0  0
  187.5390  177.5880  145.2130 C   0  0  0  0  0  2  0  0  0  0  0  0
  186.0550  178.8460  142.7000 C   0  0  0  0  0  2  0  0  0  0  0  0
  186.6310  178.3630  147.4260 C   0  0  0  0  0  2  0  0  0  0  0  0
  187.6190  177.4320  146.7290 C   0  0  2  0  0  3  0  0  0  0  0  0
  185.0210  178.0090  145.4100 C   0  0  2  0  0  3  0  0  0  0  0  0
  186.8840  176.4500  142.3810 C   0  0  0  0  0  0  0  0  0  0  0  0
  188.5700  174.6810  141.0000 C   0  0  0  0  0  3  0  0  0  0  0  0
  186.9870  176.5180  140.9750 C   0  0  0  0  0  0  0  0  0  0  0  0
  187.8280  175.6320  140.2950 C   0  0  0  0  0  3  0  0  0  0  0  0
  188.4740  174.6150  142.3910 C   0  0  0  0  0  3  0  0  0  0  0  0
  186.2620  177.4530  140.2460 O   0  0  0  0  0  1  0  0  0  0  0  0
  187.6360  175.4970  143.0780 C   0  0  0  0  0  3  0  0  0  0  0  0
  189.0420  177.6560  147.2350 C   0  0  0  0  0  2  0  0  0  0  0  0
  190.0960  177.2680  146.2010 C   0  0  0  0  0  2  0  0  0  0  0  0
  190.8630  176.0400  146.6580 C   0  0  1  0  0  3  0  0  0  0  0  0
  190.6730  175.8600  148.0160 F   0  0  0  0  0  0  0  0  0  0  0  0
  190.4000  174.8250  145.9240 C   0  0  0  0  0  0  0  0  0  0  0  0
  191.1700  174.2860  144.9010 O   0  0  0  0  0  0  0  0  0  0  0  0
  189.3130  174.2770  146.2440 O   0  0  0  0  0  1  0  0  0  0  0  0
  1 12  1  6  0  0  0
  1  2  1  0  0  0  0
  2  7  1  1  0  0  0
  2 11  1  0  0  0  0
  3  4  1  0  0  0  0
  5  9  1  0  0  0  0
  5  6  2  0  0  0  0
  7 10  1  0  0  0  0
  8  1  1  0  0  0  0
  8  3  1  0  0  0  0
 10 19  1  1  0  0  0
 10  9  1  0  0  0  0
 11  4  1  6  0  0  0
 11  5  1  0  0  0  0
 12 18  1  0  0  0  0
 13 16  1  0  0  0  0
 14 12  2  0  0  0  0
 15 14  1  0  0  0  0
 15 13  2  0  0  0  0
 16 18  2  0  0  0  0
 17 14  1  0  0  0  0
 20 21  1  0  0  0  0
 20 19  1  0  0  0  0
 21 22  1  1  0  0  0
 23 25  1  0  0  0  0
 23 21  1  0  0  0  0
 24 23  2  0  0  0  0
M  END
>  <MODEL>
9

>  <REMARK>
 VINA RESULT:      -6.6      2.319      5.038
  Name = 
  5 active torsions:
  status: ('A' for Active; 'I' for Inactive)
    1  A    between atoms: C_1  and  C_5
    2  A    between atoms: C_2  and  C_21
    3  A    between atoms: C_6  and  C_15
    4  A    between atoms: C_6  and  C_23
    5  A    between atoms: C_15  and  C_21
                            x       y       z     vdW  Elec       q    Type
                         _______ _______ _______ _____ _____    ______ ____

>  <TORSDO>
F 5

$$$$
