=
 OpenBabel11052418453D

 34 39  0  0  1  0  0  0  0  0999 V2000
  190.8490  172.7860  140.1140 C   0  0  0  0  0  0  0  0  0  0  0  0
  188.5390  173.3770  140.7680 C   0  0  0  0  0  0  0  0  0  0  0  0
  190.5870  174.5480  141.7700 C   0  0  0  0  0  0  0  0  0  0  0  0
  190.3600  176.1000  143.7070 C   0  0  2  0  0  3  0  0  0  0  0  0
  188.9560  172.2460  138.5780 C   0  0  0  0  0  2  0  0  0  0  0  0
  188.0480  172.6370  139.6480 N   0  0  0  0  0  2  0  0  0  0  0  0
  188.8040  176.3300  141.8010 C   0  0  0  0  0  2  0  0  0  0  0  0
  190.0000  173.6040  140.8900 C   0  0  0  0  0  0  0  0  0  0  0  0
  189.3330  177.5090  144.2030 S   0  0  0  0  0  0  0  0  0  0  0  0
  190.2810  171.7630  139.1670 C   0  0  0  0  0  2  0  0  0  0  0  0
  191.9860  174.5550  141.9430 C   0  0  0  0  0  0  0  0  0  0  0  0
  192.1950  172.8430  140.2840 N   0  0  0  0  0  0  0  0  0  0  0  0
  187.7390  173.7330  141.6730 O   0  0  0  0  0  0  0  0  0  0  0  0
  191.7890  176.5620  143.4470 C   0  0  0  0  0  2  0  0  0  0  0  0
  192.5790  175.4580  142.9060 N   0  0  0  0  0  0  0  0  0  0  0  0
  188.6780  177.6630  142.5140 C   0  0  2  0  0  3  0  0  0  0  0  0
  189.8170  175.5360  142.4790 N   0  0  0  0  0  0  0  0  0  0  0  0
  192.7700  173.6900  141.1740 C   0  0  0  0  0  3  0  0  0  0  0  0
  194.2510  176.1400  145.7160 C   0  0  2  0  0  3  0  0  0  0  0  0
  195.2310  175.0260  146.0990 C   0  0  0  0  0  2  0  0  0  0  0  0
  193.9200  175.2770  143.4630 C   0  0  1  0  0  3  0  0  0  0  0  0
  195.3250  173.9300  145.0320 C   0  0  0  0  0  2  0  0  0  0  0  0
  194.3210  176.4350  144.2840 N   0  0  0  0  0  2  0  0  0  0  0  0
  194.0880  173.9100  144.1450 C   0  0  0  0  0  2  0  0  0  0  0  0
  194.5590  177.3890  146.5120 C   0  0  0  0  0  1  0  0  0  0  0  0
  187.2400  178.1720  142.4980 C   0  0  0  0  0  2  0  0  0  0  0  0
  186.3310  177.2250  143.1360 N   0  0  0  0  0  2  0  0  0  0  0  0
  184.3750  179.2160  143.2760 F   0  0  0  0  0  0  0  0  0  0  0  0
  185.6380  177.4960  144.3580 C   0  0  0  0  0  0  0  0  0  0  0  0
  184.6650  178.5040  144.3940 C   0  0  0  0  0  0  0  0  0  0  0  0
  184.2700  178.0550  146.7410 C   0  0  0  0  0  3  0  0  0  0  0  0
  185.2410  177.0510  146.7140 C   0  0  0  0  0  3  0  0  0  0  0  0
  185.9250  176.7730  145.5270 C   0  0  0  0  0  3  0  0  0  0  0  0
  183.9830  178.7810  145.5830 C   0  0  0  0  0  3  0  0  0  0  0  0
  1 12  2  0  0  0  0
  1  8  1  0  0  0  0
  2  8  1  0  0  0  0
  2 13  2  0  0  0  0
  3 11  1  0  0  0  0
  3 17  1  0  0  0  0
  4 14  1  6  0  0  0
  4  9  1  0  0  0  0
  5 10  1  0  0  0  0
  5  6  1  0  0  0  0
  6  2  1  0  0  0  0
  7 17  1  0  0  0  0
  7 16  1  0  0  0  0
  8  3  2  0  0  0  0
 10  1  1  0  0  0  0
 11 15  1  0  0  0  0
 12 18  1  0  0  0  0
 15 14  1  0  0  0  0
 16 26  1  1  0  0  0
 16  9  1  0  0  0  0
 17  4  1  0  0  0  0
 18 11  2  0  0  0  0
 19 20  1  0  0  0  0
 19 25  1  1  0  0  0
 21 15  1  1  0  0  0
 21 24  1  0  0  0  0
 21 23  1  0  0  0  0
 22 20  1  0  0  0  0
 23 19  1  0  0  0  0
 24 22  1  0  0  0  0
 26 27  1  0  0  0  0
 27 29  1  0  0  0  0
 28 30  1  0  0  0  0
 29 30  2  0  0  0  0
 29 33  1  0  0  0  0
 30 34  1  0  0  0  0
 32 31  1  0  0  0  0
 33 32  2  0  0  0  0
 34 31  2  0  0  0  0
M  END
>  <MODEL>
1

>  <REMARK>
 VINA RESULT:      -8.4      0.000      0.000
  Name = 
  4 active torsions:
  status: ('A' for Active; 'I' for Inactive)
    1  A    between atoms: N_3  and  C_13
    2  A    between atoms: N_3  and  C_17
    3  A    between atoms: C_12  and  N_28
    4  A    between atoms: C_17  and  C_29
                            x       y       z     vdW  Elec       q    Type
                         _______ _______ _______ _____ _____    ______ ____

>  <TORSDO>
F 4

$$$$
=
 OpenBabel11052418453D

 34 39  0  0  1  0  0  0  0  0999 V2000
  191.0000  172.9340  140.2620 C   0  0  0  0  0  0  0  0  0  0  0  0
  189.0880  174.1020  141.3070 C   0  0  0  0  0  0  0  0  0  0  0  0
  191.3330  173.8090  142.5070 C   0  0  0  0  0  0  0  0  0  0  0  0
  191.5850  174.3850  144.9190 C   0  0  2  0  0  3  0  0  0  0  0  0
  189.2050  173.8950  138.8170 C   0  0  0  0  0  2  0  0  0  0  0  0
  188.4420  174.1530  140.0320 N   0  0  0  0  0  2  0  0  0  0  0  0
  190.4460  175.9850  143.4200 C   0  0  0  0  0  2  0  0  0  0  0  0
  190.4950  173.6370  141.3770 C   0  0  0  0  0  0  0  0  0  0  0  0
  191.1860  175.7560  146.0350 S   0  0  0  0  0  0  0  0  0  0  0  0
  190.1530  172.7170  139.0380 C   0  0  0  0  0  2  0  0  0  0  0  0
  192.5890  173.1700  142.5410 C   0  0  0  0  0  0  0  0  0  0  0  0
  192.2290  172.3590  140.3180 N   0  0  0  0  0  0  0  0  0  0  0  0
  188.4240  174.3550  142.3470 O   0  0  0  0  0  0  0  0  0  0  0  0
  193.0950  174.2800  144.7400 C   0  0  0  0  0  2  0  0  0  0  0  0
  193.4090  173.2730  143.7290 N   0  0  0  0  0  0  0  0  0  0  0  0
  190.8120  176.8360  144.6210 C   0  0  2  0  0  3  0  0  0  0  0  0
  190.9750  174.6460  143.6230 N   0  0  0  0  0  0  0  0  0  0  0  0
  193.0160  172.4530  141.4190 C   0  0  0  0  0  3  0  0  0  0  0  0
  196.4350  173.3330  145.1400 C   0  0  2  0  0  3  0  0  0  0  0  0
  196.7190  172.0780  145.9710 C   0  0  0  0  0  2  0  0  0  0  0  0
  194.4980  172.3480  144.0400 C   0  0  1  0  0  3  0  0  0  0  0  0
  195.6130  171.0230  145.8440 C   0  0  0  0  0  2  0  0  0  0  0  0
  195.8150  172.9890  143.8590 N   0  0  0  0  0  2  0  0  0  0  0  0
  194.3000  171.6470  145.3930 C   0  0  0  0  0  2  0  0  0  0  0  0
  197.7240  174.0880  144.8980 C   0  0  0  0  0  1  0  0  0  0  0  0
  189.7190  177.8500  144.9430 C   0  0  0  0  0  2  0  0  0  0  0  0
  188.4330  177.4430  144.3860 N   0  0  0  0  0  2  0  0  0  0  0  0
  187.6560  175.8030  146.5110 F   0  0  0  0  0  0  0  0  0  0  0  0
  187.1830  177.6410  145.0540 C   0  0  0  0  0  0  0  0  0  0  0  0
  186.8240  176.7980  146.1140 C   0  0  0  0  0  0  0  0  0  0  0  0
  184.7370  178.0010  146.3770 C   0  0  0  0  0  3  0  0  0  0  0  0
  185.0880  178.8420  145.3180 C   0  0  0  0  0  3  0  0  0  0  0  0
  186.3060  178.6630  144.6570 C   0  0  0  0  0  3  0  0  0  0  0  0
  185.6040  176.9800  146.7730 C   0  0  0  0  0  3  0  0  0  0  0  0
  1 12  2  0  0  0  0
  1  8  1  0  0  0  0
  2  8  1  0  0  0  0
  2 13  2  0  0  0  0
  3 11  1  0  0  0  0
  3 17  1  0  0  0  0
  4 14  1  6  0  0  0
  4  9  1  0  0  0  0
  5 10  1  0  0  0  0
  5  6  1  0  0  0  0
  6  2  1  0  0  0  0
  7 17  1  0  0  0  0
  7 16  1  0  0  0  0
  8  3  2  0  0  0  0
 10  1  1  0  0  0  0
 11 15  1  0  0  0  0
 12 18  1  0  0  0  0
 15 14  1  0  0  0  0
 16 26  1  1  0  0  0
 16  9  1  0  0  0  0
 17  4  1  0  0  0  0
 18 11  2  0  0  0  0
 19 25  1  6  0  0  0
 19 20  1  0  0  0  0
 21 15  1  1  0  0  0
 21 24  1  0  0  0  0
 22 20  1  0  0  0  0
 23 21  1  0  0  0  0
 23 19  1  0  0  0  0
 24 22  1  0  0  0  0
 27 26  1  0  0  0  0
 27 29  1  0  0  0  0
 29 30  1  0  0  0  0
 30 28  1  0  0  0  0
 30 34  2  0  0  0  0
 31 34  1  0  0  0  0
 32 31  2  0  0  0  0
 33 29  2  0  0  0  0
 33 32  1  0  0  0  0
M  END
>  <MODEL>
2

>  <REMARK>
 VINA RESULT:      -8.3      2.033      2.620
  Name = 
  4 active torsions:
  status: ('A' for Active; 'I' for Inactive)
    1  A    between atoms: N_3  and  C_13
    2  A    between atoms: N_3  and  C_17
    3  A    between atoms: C_12  and  N_28
    4  A    between atoms: C_17  and  C_29
                            x       y       z     vdW  Elec       q    Type
                         _______ _______ _______ _____ _____    ______ ____

>  <TORSDO>
F 4

$$$$
=
 OpenBabel11052418453D

 34 39  0  0  1  0  0  0  0  0999 V2000
  189.5400  174.0690  140.8160 C   0  0  0  0  0  0  0  0  0  0  0  0
  191.8970  174.3380  141.5130 C   0  0  0  0  0  0  0  0  0  0  0  0
  189.9420  175.1600  142.9520 C   0  0  0  0  0  0  0  0  0  0  0  0
  190.3350  176.5800  144.9630 C   0  0  2  0  0  3  0  0  0  0  0  0
  191.2910  172.5780  139.8440 C   0  0  0  0  0  2  0  0  0  0  0  0
  192.2890  173.4210  140.4890 N   0  0  0  0  0  2  0  0  0  0  0  0
  191.7150  174.5560  144.6400 C   0  0  0  0  0  2  0  0  0  0  0  0
  190.4510  174.5190  141.7950 C   0  0  0  0  0  0  0  0  0  0  0  0
  191.3980  176.5880  146.4310 S   0  0  0  0  0  0  0  0  0  0  0  0
  190.0260  173.3880  139.5660 C   0  0  0  0  0  2  0  0  0  0  0  0
  188.5640  175.4440  143.0360 C   0  0  0  0  0  0  0  0  0  0  0  0
  188.2140  174.3320  140.9450 N   0  0  0  0  0  0  0  0  0  0  0  0
  192.7730  175.0410  142.0820 O   0  0  0  0  0  0  0  0  0  0  0  0
  188.8870  176.3290  145.3680 C   0  0  0  0  0  2  0  0  0  0  0  0
  188.0560  176.1760  144.1760 N   0  0  0  0  0  0  0  0  0  0  0  0
  191.9000  174.8700  146.1120 C   0  0  2  0  0  3  0  0  0  0  0  0
  190.7690  175.5070  144.0790 N   0  0  0  0  0  0  0  0  0  0  0  0
  187.7170  175.0070  142.0120 C   0  0  0  0  0  3  0  0  0  0  0  0
  186.2720  178.1570  146.1880 C   0  0  2  0  0  3  0  0  0  0  0  0
  185.5170  179.2450  145.4200 C   0  0  0  0  0  2  0  0  0  0  0  0
  186.7700  176.8740  144.1790 C   0  0  1  0  0  3  0  0  0  0  0  0
  185.6350  179.0850  143.9000 C   0  0  0  0  0  2  0  0  0  0  0  0
  186.1550  176.8600  145.5200 N   0  0  0  0  0  2  0  0  0  0  0  0
  186.8580  178.2610  143.5220 C   0  0  0  0  0  2  0  0  0  0  0  0
  185.7310  178.0580  147.5980 C   0  0  0  0  0  1  0  0  0  0  0  0
  193.3290  174.5930  146.5690 C   0  0  0  0  0  2  0  0  0  0  0  0
  194.2760  175.5120  145.9430 N   0  0  0  0  0  2  0  0  0  0  0  0
  195.1880  176.6050  143.5390 F   0  0  0  0  0  0  0  0  0  0  0  0
  195.5170  175.0950  145.3660 C   0  0  0  0  0  0  0  0  0  0  0  0
  195.9420  175.6620  144.1570 C   0  0  0  0  0  0  0  0  0  0  0  0
  197.9410  174.2930  144.2060 C   0  0  0  0  0  3  0  0  0  0  0  0
  197.5210  173.7210  145.4090 C   0  0  0  0  0  3  0  0  0  0  0  0
  196.3120  174.1190  145.9870 C   0  0  0  0  0  3  0  0  0  0  0  0
  197.1520  175.2620  143.5800 C   0  0  0  0  0  3  0  0  0  0  0  0
  1 12  2  0  0  0  0
  1  8  1  0  0  0  0
  2  8  1  0  0  0  0
  2 13  2  0  0  0  0
  3 11  1  0  0  0  0
  3 17  1  0  0  0  0
  4 14  1  1  0  0  0
  4  9  1  0  0  0  0
  5  6  1  0  0  0  0
  6  2  1  0  0  0  0
  7 16  1  0  0  0  0
  8  3  2  0  0  0  0
 10  5  1  0  0  0  0
 10  1  1  0  0  0  0
 11 15  1  0  0  0  0
 12 18  1  0  0  0  0
 15 21  1  0  0  0  0
 15 14  1  0  0  0  0
 16  9  1  0  0  0  0
 16 26  1  6  0  0  0
 17  7  1  0  0  0  0
 17  4  1  0  0  0  0
 18 11  2  0  0  0  0
 19 25  1  1  0  0  0
 20 19  1  0  0  0  0
 21 24  1  1  0  0  0
 21 23  1  0  0  0  0
 22 20  1  0  0  0  0
 23 19  1  0  0  0  0
 24 22  1  0  0  0  0
 27 26  1  0  0  0  0
 28 30  1  0  0  0  0
 29 27  1  0  0  0  0
 29 33  1  0  0  0  0
 30 29  2  0  0  0  0
 31 32  1  0  0  0  0
 32 33  2  0  0  0  0
 34 30  1  0  0  0  0
 34 31  2  0  0  0  0
M  END
>  <MODEL>
3

>  <REMARK>
 VINA RESULT:      -8.3      2.736      7.658
  Name = 
  4 active torsions:
  status: ('A' for Active; 'I' for Inactive)
    1  A    between atoms: N_3  and  C_13
    2  A    between atoms: N_3  and  C_17
    3  A    between atoms: C_12  and  N_28
    4  A    between atoms: C_17  and  C_29
                            x       y       z     vdW  Elec       q    Type
                         _______ _______ _______ _____ _____    ______ ____

>  <TORSDO>
F 4

$$$$
=
 OpenBabel11052418453D

 34 39  0  0  1  0  0  0  0  0999 V2000
  187.3020  177.8040  144.5150 C   0  0  0  0  0  0  0  0  0  0  0  0
  187.1160  177.6270  142.0550 C   0  0  0  0  0  0  0  0  0  0  0  0
  188.8910  176.3480  143.3890 C   0  0  0  0  0  0  0  0  0  0  0  0
  190.7360  175.1320  142.2350 C   0  0  2  0  0  3  0  0  0  0  0  0
  185.1400  178.3680  143.3980 C   0  0  0  0  0  2  0  0  0  0  0  0
  185.8350  178.2590  142.1220 N   0  0  0  0  0  2  0  0  0  0  0  0
  188.4210  174.8440  141.4210 C   0  0  0  0  0  2  0  0  0  0  0  0
  187.7810  177.2260  143.3200 C   0  0  0  0  0  0  0  0  0  0  0  0
  190.9420  173.9600  140.8680 S   0  0  0  0  0  0  0  0  0  0  0  0
  186.1290  178.7470  144.4990 C   0  0  0  0  0  2  0  0  0  0  0  0
  189.5630  176.1770  144.6160 C   0  0  0  0  0  0  0  0  0  0  0  0
  187.9550  177.5910  145.6860 N   0  0  0  0  0  0  0  0  0  0  0  0
  187.6930  177.5150  140.9420 O   0  0  0  0  0  0  0  0  0  0  0  0
  191.0560  174.4510  143.5600 C   0  0  0  0  0  2  0  0  0  0  0  0
  190.7490  175.3500  144.6700 N   0  0  0  0  0  0  0  0  0  0  0  0
  189.1500  173.6550  140.8220 C   0  0  2  0  0  3  0  0  0  0  0  0
  189.3520  175.5830  142.2600 N   0  0  0  0  0  0  0  0  0  0  0  0
  189.0620  176.8110  145.7580 C   0  0  0  0  0  3  0  0  0  0  0  0
  193.8370  174.2620  145.3310 C   0  0  2  0  0  3  0  0  0  0  0  0
  194.6700  175.2940  146.0980 C   0  0  0  0  0  2  0  0  0  0  0  0
  191.7390  175.4270  145.7450 C   0  0  1  0  0  3  0  0  0  0  0  0
  193.8520  176.5220  146.5130 C   0  0  0  0  0  2  0  0  0  0  0  0
  192.4840  174.1610  145.8800 N   0  0  0  0  0  2  0  0  0  0  0  0
  192.6150  176.6860  145.6410 C   0  0  0  0  0  2  0  0  0  0  0  0
  194.5160  172.9110  145.3890 C   0  0  0  0  0  1  0  0  0  0  0  0
  188.6530  173.3460  139.4130 C   0  0  0  0  0  2  0  0  0  0  0  0
  187.8170  174.4240  138.8950 N   0  0  0  0  0  2  0  0  0  0  0  0
  186.0540  176.3810  137.9580 F   0  0  0  0  0  0  0  0  0  0  0  0
  187.9030  174.9160  137.5540 C   0  0  0  0  0  0  0  0  0  0  0  0
  187.0010  175.8960  137.1170 C   0  0  0  0  0  0  0  0  0  0  0  0
  188.0430  175.8940  134.9290 C   0  0  0  0  0  3  0  0  0  0  0  0
  188.9430  174.9150  135.3580 C   0  0  0  0  0  3  0  0  0  0  0  0
  188.8730  174.4260  136.6660 C   0  0  0  0  0  3  0  0  0  0  0  0
  187.0730  176.3830  135.8080 C   0  0  0  0  0  3  0  0  0  0  0  0
  1 12  1  0  0  0  0
  2  6  1  0  0  0  0
  2  8  1  0  0  0  0
  3 11  2  0  0  0  0
  4 17  1  0  0  0  0
  4 14  1  1  0  0  0
  5 10  1  0  0  0  0
  6  5  1  0  0  0  0
  7 17  1  0  0  0  0
  8  3  1  0  0  0  0
  8  1  2  0  0  0  0
  9  4  1  0  0  0  0
 10  1  1  0  0  0  0
 11 15  1  0  0  0  0
 11 18  1  0  0  0  0
 12 18  2  0  0  0  0
 13  2  2  0  0  0  0
 14 15  1  0  0  0  0
 16 26  1  6  0  0  0
 16  9  1  0  0  0  0
 16  7  1  0  0  0  0
 17  3  1  0  0  0  0
 19 25  1  1  0  0  0
 19 23  1  0  0  0  0
 19 20  1  0  0  0  0
 20 22  1  0  0  0  0
 21 15  1  6  0  0  0
 21 23  1  0  0  0  0
 24 21  1  0  0  0  0
 24 22  1  0  0  0  0
 27 26  1  0  0  0  0
 29 27  1  0  0  0  0
 30 29  1  0  0  0  0
 30 28  1  0  0  0  0
 31 32  2  0  0  0  0
 31 34  1  0  0  0  0
 32 33  1  0  0  0  0
 33 29  2  0  0  0  0
 34 30  2  0  0  0  0
M  END
>  <MODEL>
4

>  <REMARK>
 VINA RESULT:      -8.2      2.784      6.268
  Name = 
  4 active torsions:
  status: ('A' for Active; 'I' for Inactive)
    1  A    between atoms: N_3  and  C_13
    2  A    between atoms: N_3  and  C_17
    3  A    between atoms: C_12  and  N_28
    4  A    between atoms: C_17  and  C_29
                            x       y       z     vdW  Elec       q    Type
                         _______ _______ _______ _____ _____    ______ ____

>  <TORSDO>
F 4

$$$$
=
 OpenBabel11052418453D

 34 39  0  0  1  0  0  0  0  0999 V2000
  185.5080  177.8380  143.7010 C   0  0  0  0  0  0  0  0  0  0  0  0
  186.1790  177.7750  141.3220 C   0  0  0  0  0  0  0  0  0  0  0  0
  187.5170  176.5820  143.1530 C   0  0  0  0  0  0  0  0  0  0  0  0
  189.7510  175.5870  142.6700 C   0  0  2  0  0  3  0  0  0  0  0  0
  183.8050  178.2760  141.9290 C   0  0  0  0  0  2  0  0  0  0  0  0
  184.8960  178.2930  140.9620 N   0  0  0  0  0  2  0  0  0  0  0  0
  187.8840  175.1480  141.1130 C   0  0  0  0  0  2  0  0  0  0  0  0
  186.4150  177.3660  142.7290 C   0  0  0  0  0  0  0  0  0  0  0  0
  190.5170  174.5090  141.4310 S   0  0  0  0  0  0  0  0  0  0  0  0
  184.3240  178.6790  143.3080 C   0  0  0  0  0  2  0  0  0  0  0  0
  187.7500  176.4050  144.5320 C   0  0  0  0  0  0  0  0  0  0  0  0
  185.7470  177.6210  145.0200 N   0  0  0  0  0  0  0  0  0  0  0  0
  187.1050  177.7690  140.4690 O   0  0  0  0  0  0  0  0  0  0  0  0
  189.6710  174.8670  144.0110 C   0  0  0  0  0  2  0  0  0  0  0  0
  188.9230  175.6780  144.9690 N   0  0  0  0  0  0  0  0  0  0  0  0
  188.8830  174.0570  140.7730 C   0  0  2  0  0  3  0  0  0  0  0  0
  188.4020  175.9180  142.2320 N   0  0  0  0  0  0  0  0  0  0  0  0
  186.8350  176.9340  145.4490 C   0  0  0  0  0  3  0  0  0  0  0  0
  191.9100  175.6820  146.4620 C   0  0  2  0  0  3  0  0  0  0  0  0
  191.9730  176.6560  147.6430 C   0  0  0  0  0  2  0  0  0  0  0  0
  189.4810  175.7830  146.3170 C   0  0  1  0  0  3  0  0  0  0  0  0
  190.6140  177.2920  147.9570 C   0  0  0  0  0  2  0  0  0  0  0  0
  190.6630  174.9150  146.4770 N   0  0  0  0  0  2  0  0  0  0  0  0
  189.6860  177.2430  146.7520 C   0  0  0  0  0  2  0  0  0  0  0  0
  193.0920  174.7390  146.5130 C   0  0  0  0  0  1  0  0  0  0  0  0
  188.9220  173.7810  139.2730 C   0  0  0  0  0  2  0  0  0  0  0  0
  187.8190  174.4400  138.5810 N   0  0  0  0  0  2  0  0  0  0  0  0
  186.0040  176.3490  137.6460 F   0  0  0  0  0  0  0  0  0  0  0  0
  187.9210  174.9700  137.2560 C   0  0  0  0  0  0  0  0  0  0  0  0
  186.9920  175.9240  136.8180 C   0  0  0  0  0  0  0  0  0  0  0  0
  188.0910  176.0210  134.6620 C   0  0  0  0  0  3  0  0  0  0  0  0
  189.0180  175.0680  135.0900 C   0  0  0  0  0  3  0  0  0  0  0  0
  188.9330  174.5420  136.3830 C   0  0  0  0  0  3  0  0  0  0  0  0
  187.0790  176.4480  135.5250 C   0  0  0  0  0  3  0  0  0  0  0  0
  1 12  1  0  0  0  0
  2  8  1  0  0  0  0
  3 11  2  0  0  0  0
  4 14  1  1  0  0  0
  5 10  1  0  0  0  0
  6  2  1  0  0  0  0
  6  5  1  0  0  0  0
  7 17  1  0  0  0  0
  8  3  1  0  0  0  0
  8  1  2  0  0  0  0
  9  4  1  0  0  0  0
 10  1  1  0  0  0  0
 11 15  1  0  0  0  0
 11 18  1  0  0  0  0
 12 18  2  0  0  0  0
 13  2  2  0  0  0  0
 14 15  1  0  0  0  0
 16 26  1  6  0  0  0
 16  7  1  0  0  0  0
 16  9  1  0  0  0  0
 17  4  1  0  0  0  0
 17  3  1  0  0  0  0
 19 23  1  0  0  0  0
 19 25  1  1  0  0  0
 19 20  1  0  0  0  0
 20 22  1  0  0  0  0
 21 15  1  6  0  0  0
 21 23  1  0  0  0  0
 21 24  1  0  0  0  0
 24 22  1  0  0  0  0
 27 26  1  0  0  0  0
 29 27  1  0  0  0  0
 30 29  1  0  0  0  0
 30 28  1  0  0  0  0
 31 32  2  0  0  0  0
 31 34  1  0  0  0  0
 32 33  1  0  0  0  0
 33 29  2  0  0  0  0
 34 30  2  0  0  0  0
M  END
>  <MODEL>
5

>  <REMARK>
 VINA RESULT:      -8.1      3.109      6.746
  Name = 
  4 active torsions:
  status: ('A' for Active; 'I' for Inactive)
    1  A    between atoms: N_3  and  C_13
    2  A    between atoms: N_3  and  C_17
    3  A    between atoms: C_12  and  N_28
    4  A    between atoms: C_17  and  C_29
                            x       y       z     vdW  Elec       q    Type
                         _______ _______ _______ _____ _____    ______ ____

>  <TORSDO>
F 4

$$$$
=
 OpenBabel11052418453D

 34 39  0  0  1  0  0  0  0  0999 V2000
  186.9980  177.3040  146.6060 C   0  0  0  0  0  0  0  0  0  0  0  0
  185.6970  179.0260  145.4000 C   0  0  0  0  0  0  0  0  0  0  0  0
  187.1270  177.2850  144.1780 C   0  0  0  0  0  0  0  0  0  0  0  0
  187.5480  177.4610  141.7270 C   0  0  2  0  0  3  0  0  0  0  0  0
  185.0500  178.3890  147.7310 C   0  0  0  0  0  2  0  0  0  0  0  0
  184.9910  179.3170  146.6090 N   0  0  0  0  0  2  0  0  0  0  0  0
  185.2430  177.7490  142.5680 C   0  0  0  0  0  2  0  0  0  0  0  0
  186.6010  177.8500  145.3670 C   0  0  0  0  0  0  0  0  0  0  0  0
  186.6030  177.7300  140.2040 S   0  0  0  0  0  0  0  0  0  0  0  0
  186.4760  177.8680  147.9000 C   0  0  0  0  0  2  0  0  0  0  0  0
  188.1200  176.2890  144.2650 C   0  0  0  0  0  0  0  0  0  0  0  0
  187.9340  176.3210  146.6510 N   0  0  0  0  0  0  0  0  0  0  0  0
  185.6150  179.8220  144.4280 O   0  0  0  0  0  0  0  0  0  0  0  0
  188.0860  176.0350  141.7630 C   0  0  0  0  0  2  0  0  0  0  0  0
  188.7200  175.7730  143.0530 N   0  0  0  0  0  0  0  0  0  0  0  0
  185.0400  177.4610  141.0930 C   0  0  2  0  0  3  0  0  0  0  0  0
  186.6630  177.6580  142.8670 N   0  0  0  0  0  0  0  0  0  0  0  0
  188.5000  175.8180  145.5260 C   0  0  0  0  0  3  0  0  0  0  0  0
  190.4580  173.7910  141.0030 C   0  0  2  0  0  3  0  0  0  0  0  0
  191.9620  174.0800  141.0460 C   0  0  0  0  0  2  0  0  0  0  0  0
  190.0040  175.0740  143.0230 C   0  0  1  0  0  3  0  0  0  0  0  0
  192.3360  175.1040  142.1230 C   0  0  0  0  0  2  0  0  0  0  0  0
  189.8870  173.7660  142.3500 N   0  0  0  0  0  2  0  0  0  0  0  0
  191.1430  175.9670  142.5070 C   0  0  0  0  0  2  0  0  0  0  0  0
  190.2110  172.4660  140.3160 C   0  0  0  0  0  1  0  0  0  0  0  0
  183.8970  178.2890  140.5130 C   0  0  0  0  0  2  0  0  0  0  0  0
  182.8650  178.5470  141.5120 N   0  0  0  0  0  2  0  0  0  0  0  0
  181.0290  179.7730  143.2260 F   0  0  0  0  0  0  0  0  0  0  0  0
  181.4640  178.5420  141.2210 C   0  0  0  0  0  0  0  0  0  0  0  0
  180.5710  179.1640  142.1040 C   0  0  0  0  0  0  0  0  0  0  0  0
  178.7120  178.5420  140.6800 C   0  0  0  0  0  3  0  0  0  0  0  0
  179.5960  177.9170  139.7980 C   0  0  0  0  0  3  0  0  0  0  0  0
  180.9680  177.9150  140.0670 C   0  0  0  0  0  3  0  0  0  0  0  0
  179.1990  179.1640  141.8330 C   0  0  0  0  0  3  0  0  0  0  0  0
  1 12  1  0  0  0  0
  1 10  1  0  0  0  0
  2  6  1  0  0  0  0
  3 11  2  0  0  0  0
  3  8  1  0  0  0  0
  4 14  1  6  0  0  0
  4 17  1  0  0  0  0
  5 10  1  0  0  0  0
  6  5  1  0  0  0  0
  7 17  1  0  0  0  0
  8  2  1  0  0  0  0
  8  1  2  0  0  0  0
  9 16  1  0  0  0  0
  9  4  1  0  0  0  0
 11 18  1  0  0  0  0
 13  2  2  0  0  0  0
 14 15  1  0  0  0  0
 15 11  1  0  0  0  0
 16 26  1  6  0  0  0
 16  7  1  0  0  0  0
 17  3  1  0  0  0  0
 18 12  2  0  0  0  0
 19 25  1  1  0  0  0
 19 20  1  0  0  0  0
 19 23  1  0  0  0  0
 20 22  1  0  0  0  0
 21 24  1  6  0  0  0
 21 15  1  0  0  0  0
 22 24  1  0  0  0  0
 23 21  1  0  0  0  0
 26 27  1  0  0  0  0
 29 27  1  0  0  0  0
 29 30  1  0  0  0  0
 30 28  1  0  0  0  0
 31 34  1  0  0  0  0
 32 33  1  0  0  0  0
 32 31  2  0  0  0  0
 33 29  2  0  0  0  0
 34 30  2  0  0  0  0
M  END
>  <MODEL>
6

>  <REMARK>
 VINA RESULT:      -8.1      3.463      6.545
  Name = 
  4 active torsions:
  status: ('A' for Active; 'I' for Inactive)
    1  A    between atoms: N_3  and  C_13
    2  A    between atoms: N_3  and  C_17
    3  A    between atoms: C_12  and  N_28
    4  A    between atoms: C_17  and  C_29
                            x       y       z     vdW  Elec       q    Type
                         _______ _______ _______ _____ _____    ______ ____

>  <TORSDO>
F 4

$$$$
=
 OpenBabel11052418453D

 34 39  0  0  1  0  0  0  0  0999 V2000
  191.9140  174.6530  145.6080 C   0  0  0  0  0  0  0  0  0  0  0  0
  190.4920  176.6710  145.4750 C   0  0  0  0  0  0  0  0  0  0  0  0
  190.5250  174.8960  143.6270 C   0  0  0  0  0  0  0  0  0  0  0  0
  189.3830  175.2910  141.4470 C   0  0  2  0  0  3  0  0  0  0  0  0
  191.3020  175.8690  147.7010 C   0  0  0  0  0  2  0  0  0  0  0  0
  190.7410  176.9190  146.8610 N   0  0  0  0  0  2  0  0  0  0  0  0
  188.1760  175.8080  143.5400 C   0  0  0  0  0  2  0  0  0  0  0  0
  190.9520  175.3890  144.8860 C   0  0  0  0  0  0  0  0  0  0  0  0
  187.7740  175.8660  140.8430 S   0  0  0  0  0  0  0  0  0  0  0  0
  192.4080  175.1330  146.9460 C   0  0  0  0  0  2  0  0  0  0  0  0
  191.1590  173.7650  143.0760 C   0  0  0  0  0  0  0  0  0  0  0  0
  192.4820  173.5480  145.0600 N   0  0  0  0  0  0  0  0  0  0  0  0
  189.9810  177.5780  144.7670 O   0  0  0  0  0  0  0  0  0  0  0  0
  189.5570  173.8090  141.1380 C   0  0  0  0  0  2  0  0  0  0  0  0
  190.7860  173.3110  141.7540 N   0  0  0  0  0  0  0  0  0  0  0  0
  187.0650  175.7240  142.5110 C   0  0  2  0  0  3  0  0  0  0  0  0
  189.4350  175.4800  142.8900 N   0  0  0  0  0  0  0  0  0  0  0  0
  192.1370  173.1020  143.8260 C   0  0  0  0  0  3  0  0  0  0  0  0
  190.5990  171.6130  138.8840 C   0  0  2  0  0  3  0  0  0  0  0  0
  191.9150  171.6400  138.1010 C   0  0  0  0  0  2  0  0  0  0  0  0
  191.6270  172.4430  140.9300 C   0  0  1  0  0  3  0  0  0  0  0  0
  193.0520  172.3120  138.8800 C   0  0  0  0  0  2  0  0  0  0  0  0
  190.8370  171.3640  140.3070 N   0  0  0  0  0  2  0  0  0  0  0  0
  192.5130  173.2400  139.9590 C   0  0  0  0  0  2  0  0  0  0  0  0
  189.6910  170.5410  138.3210 C   0  0  0  0  0  1  0  0  0  0  0  0
  185.9830  176.7680  142.7680 C   0  0  0  0  0  2  0  0  0  0  0  0
  186.4440  177.7950  143.6970 N   0  0  0  0  0  2  0  0  0  0  0  0
  183.8620  178.7990  144.0700 F   0  0  0  0  0  0  0  0  0  0  0  0
  185.9030  177.9740  145.0100 C   0  0  0  0  0  0  0  0  0  0  0  0
  184.6060  178.4830  145.1600 C   0  0  0  0  0  0  0  0  0  0  0  0
  184.8190  178.3430  147.5700 C   0  0  0  0  0  3  0  0  0  0  0  0
  186.1140  177.8390  147.4260 C   0  0  0  0  0  3  0  0  0  0  0  0
  186.6560  177.6560  146.1510 C   0  0  0  0  0  3  0  0  0  0  0  0
  184.0670  178.6660  146.4370 C   0  0  0  0  0  3  0  0  0  0  0  0
  1 10  1  0  0  0  0
  2  6  1  0  0  0  0
  3  8  1  0  0  0  0
  4 14  1  1  0  0  0
  4 17  1  0  0  0  0
  6  5  1  0  0  0  0
  8  2  1  0  0  0  0
  8  1  2  0  0  0  0
  9  4  1  0  0  0  0
  9 16  1  0  0  0  0
 10  5  1  0  0  0  0
 11  3  2  0  0  0  0
 11 18  1  0  0  0  0
 12  1  1  0  0  0  0
 13  2  2  0  0  0  0
 14 15  1  0  0  0  0
 15 11  1  0  0  0  0
 16 26  1  1  0  0  0
 16  7  1  0  0  0  0
 17  7  1  0  0  0  0
 17  3  1  0  0  0  0
 18 12  2  0  0  0  0
 19 25  1  6  0  0  0
 19 23  1  0  0  0  0
 20 22  1  0  0  0  0
 20 19  1  0  0  0  0
 21 24  1  6  0  0  0
 21 15  1  0  0  0  0
 22 24  1  0  0  0  0
 23 21  1  0  0  0  0
 26 27  1  0  0  0  0
 27 29  1  0  0  0  0
 28 30  1  0  0  0  0
 29 30  2  0  0  0  0
 29 33  1  0  0  0  0
 30 34  1  0  0  0  0
 32 31  1  0  0  0  0
 33 32  2  0  0  0  0
 34 31  2  0  0  0  0
M  END
>  <MODEL>
7

>  <REMARK>
 VINA RESULT:      -8.0      2.211      5.233
  Name = 
  4 active torsions:
  status: ('A' for Active; 'I' for Inactive)
    1  A    between atoms: N_3  and  C_13
    2  A    between atoms: N_3  and  C_17
    3  A    between atoms: C_12  and  N_28
    4  A    between atoms: C_17  and  C_29
                            x       y       z     vdW  Elec       q    Type
                         _______ _______ _______ _____ _____    ______ ____

>  <TORSDO>
F 4

$$$$
=
 OpenBabel11052418453D

 34 39  0  0  1  0  0  0  0  0999 V2000
  191.8170  173.9490  141.2470 C   0  0  0  0  0  0  0  0  0  0  0  0
  189.8820  173.2470  142.6170 C   0  0  0  0  0  0  0  0  0  0  0  0
  191.7730  174.6980  143.5600 C   0  0  0  0  0  0  0  0  0  0  0  0
  191.9240  175.1830  146.0010 C   0  0  2  0  0  3  0  0  0  0  0  0
  189.6880  173.2850  140.1240 C   0  0  0  0  0  2  0  0  0  0  0  0
  189.2050  172.8410  141.4250 N   0  0  0  0  0  2  0  0  0  0  0  0
  189.7450  175.4350  144.8630 C   0  0  0  0  0  2  0  0  0  0  0  0
  191.1580  173.9940  142.4940 C   0  0  0  0  0  0  0  0  0  0  0  0
  190.8430  175.7500  147.3400 S   0  0  0  0  0  0  0  0  0  0  0  0
  191.2140  173.2120  140.0820 C   0  0  0  0  0  2  0  0  0  0  0  0
  193.0710  175.2170  143.3890 C   0  0  0  0  0  0  0  0  0  0  0  0
  193.0560  174.4890  141.1090 N   0  0  0  0  0  0  0  0  0  0  0  0
  189.4380  172.8800  143.7360 O   0  0  0  0  0  0  0  0  0  0  0  0
  192.9600  176.2530  145.6780 C   0  0  0  0  0  2  0  0  0  0  0  0
  193.7350  175.8590  144.5030 N   0  0  0  0  0  0  0  0  0  0  0  0
  189.5620  176.2310  146.1420 C   0  0  2  0  0  3  0  0  0  0  0  0
  191.1120  174.9420  144.8160 N   0  0  0  0  0  0  0  0  0  0  0  0
  193.6890  175.1040  142.1390 C   0  0  0  0  0  3  0  0  0  0  0  0
  196.5310  174.0350  144.4070 C   0  0  2  0  0  3  0  0  0  0  0  0
  197.6660  174.7420  143.6610 C   0  0  0  0  0  2  0  0  0  0  0  0
  195.1830  176.0560  144.5760 C   0  0  1  0  0  3  0  0  0  0  0  0
  197.3060  176.1780  143.2610 C   0  0  0  0  0  2  0  0  0  0  0  0
  195.8380  174.9560  145.3090 N   0  0  0  0  0  2  0  0  0  0  0  0
  195.7980  176.3760  143.2040 C   0  0  0  0  0  2  0  0  0  0  0  0
  197.0850  172.8670  145.1930 C   0  0  0  0  0  1  0  0  0  0  0  0
  188.1540  176.0680  146.7070 C   0  0  0  0  0  2  0  0  0  0  0  0
  187.5470  177.3620  147.0060 N   0  0  0  0  0  2  0  0  0  0  0  0
  187.8170  178.3280  144.3970 F   0  0  0  0  0  0  0  0  0  0  0  0
  186.4250  177.8910  146.2940 C   0  0  0  0  0  0  0  0  0  0  0  0
  186.5960  178.3700  144.9880 C   0  0  0  0  0  0  0  0  0  0  0  0
  184.2450  178.9420  144.8780 C   0  0  0  0  0  3  0  0  0  0  0  0
  184.0680  178.4700  146.1810 C   0  0  0  0  0  3  0  0  0  0  0  0
  185.1540  177.9470  146.8880 C   0  0  0  0  0  3  0  0  0  0  0  0
  185.5080  178.8930  144.2830 C   0  0  0  0  0  3  0  0  0  0  0  0
  1  8  1  0  0  0  0
  2 13  2  0  0  0  0
  3 17  1  0  0  0  0
  4 14  1  6  0  0  0
  4  9  1  0  0  0  0
  5  6  1  0  0  0  0
  6  2  1  0  0  0  0
  7 16  1  0  0  0  0
  8  2  1  0  0  0  0
  8  3  2  0  0  0  0
 10  5  1  0  0  0  0
 10  1  1  0  0  0  0
 11  3  1  0  0  0  0
 11 15  1  0  0  0  0
 12  1  2  0  0  0  0
 12 18  1  0  0  0  0
 15 21  1  0  0  0  0
 15 14  1  0  0  0  0
 16 26  1  1  0  0  0
 16  9  1  0  0  0  0
 17  7  1  0  0  0  0
 17  4  1  0  0  0  0
 18 11  2  0  0  0  0
 19 25  1  1  0  0  0
 19 23  1  0  0  0  0
 20 19  1  0  0  0  0
 21 24  1  6  0  0  0
 21 23  1  0  0  0  0
 22 20  1  0  0  0  0
 24 22  1  0  0  0  0
 26 27  1  0  0  0  0
 28 30  1  0  0  0  0
 29 33  1  0  0  0  0
 29 27  1  0  0  0  0
 30 29  2  0  0  0  0
 31 32  1  0  0  0  0
 32 33  2  0  0  0  0
 34 31  2  0  0  0  0
 34 30  1  0  0  0  0
M  END
>  <MODEL>
8

>  <REMARK>
 VINA RESULT:      -8.0      2.097      2.863
  Name = 
  4 active torsions:
  status: ('A' for Active; 'I' for Inactive)
    1  A    between atoms: N_3  and  C_13
    2  A    between atoms: N_3  and  C_17
    3  A    between atoms: C_12  and  N_28
    4  A    between atoms: C_17  and  C_29
                            x       y       z     vdW  Elec       q    Type
                         _______ _______ _______ _____ _____    ______ ____

>  <TORSDO>
F 4

$$$$
=
 OpenBabel11052418453D

 34 39  0  0  1  0  0  0  0  0999 V2000
  187.2780  177.4740  145.6190 C   0  0  0  0  0  0  0  0  0  0  0  0
  186.7100  177.2780  143.2200 C   0  0  0  0  0  0  0  0  0  0  0  0
  188.7610  176.1260  144.2390 C   0  0  0  0  0  0  0  0  0  0  0  0
  190.4730  175.0370  142.7930 C   0  0  2  0  0  3  0  0  0  0  0  0
  184.9320  177.8860  144.8700 C   0  0  0  0  0  2  0  0  0  0  0  0
  185.4170  177.8210  143.4970 N   0  0  0  0  0  2  0  0  0  0  0  0
  188.0820  174.5880  142.3610 C   0  0  0  0  0  2  0  0  0  0  0  0
  187.5960  176.9260  144.3580 C   0  0  0  0  0  0  0  0  0  0  0  0
  190.5340  173.8770  141.4010 S   0  0  0  0  0  0  0  0  0  0  0  0
  186.0580  178.3350  145.8000 C   0  0  0  0  0  2  0  0  0  0  0  0
  189.6310  176.0060  145.3410 C   0  0  0  0  0  0  0  0  0  0  0  0
  188.1250  177.3100  146.6680 N   0  0  0  0  0  0  0  0  0  0  0  0
  187.1070  177.2020  142.0280 O   0  0  0  0  0  0  0  0  0  0  0  0
  191.0480  174.3830  144.0430 C   0  0  0  0  0  2  0  0  0  0  0  0
  190.8640  175.2620  145.1960 N   0  0  0  0  0  0  0  0  0  0  0  0
  188.7830  173.4510  141.6430 C   0  0  2  0  0  3  0  0  0  0  0  0
  189.0840  175.3920  143.0440 N   0  0  0  0  0  0  0  0  0  0  0  0
  189.2800  176.6070  146.5540 C   0  0  0  0  0  3  0  0  0  0  0  0
  194.0510  174.2840  145.4000 C   0  0  2  0  0  3  0  0  0  0  0  0
  194.9600  175.3690  145.9890 C   0  0  0  0  0  2  0  0  0  0  0  0
  192.0070  175.4090  146.0970 C   0  0  1  0  0  3  0  0  0  0  0  0
  194.1770  176.5910  146.4820 C   0  0  0  0  0  2  0  0  0  0  0  0
  192.8050  174.1700  146.1600 N   0  0  0  0  0  2  0  0  0  0  0  0
  192.8140  176.6860  145.8110 C   0  0  0  0  0  2  0  0  0  0  0  0
  194.7750  172.9560  145.4000 C   0  0  0  0  0  1  0  0  0  0  0  0
  188.0880  173.1040  140.3300 C   0  0  0  0  0  2  0  0  0  0  0  0
  188.9500  173.3750  139.1830 N   0  0  0  0  0  2  0  0  0  0  0  0
  188.9920  173.9480  136.4480 F   0  0  0  0  0  0  0  0  0  0  0  0
  189.3260  172.3810  138.2250 C   0  0  0  0  0  0  0  0  0  0  0  0
  189.3330  172.7020  136.8610 C   0  0  0  0  0  0  0  0  0  0  0  0
  190.0520  170.4510  136.3240 C   0  0  0  0  0  3  0  0  0  0  0  0
  190.0430  170.1230  137.6820 C   0  0  0  0  0  3  0  0  0  0  0  0
  189.6800  171.0840  138.6310 C   0  0  0  0  0  3  0  0  0  0  0  0
  189.6960  171.7380  135.9140 C   0  0  0  0  0  3  0  0  0  0  0  0
  1 10  1  0  0  0  0
  1 12  1  0  0  0  0
  2  6  1  0  0  0  0
  2  8  1  0  0  0  0
  3  8  1  0  0  0  0
  3 11  2  0  0  0  0
  4 17  1  0  0  0  0
  4 14  1  1  0  0  0
  5 10  1  0  0  0  0
  6  5  1  0  0  0  0
  7 17  1  0  0  0  0
  8  1  2  0  0  0  0
  9 16  1  0  0  0  0
  9  4  1  0  0  0  0
 11 18  1  0  0  0  0
 13  2  2  0  0  0  0
 14 15  1  0  0  0  0
 15 11  1  0  0  0  0
 16 26  1  6  0  0  0
 16  7  1  0  0  0  0
 17  3  1  0  0  0  0
 18 12  2  0  0  0  0
 19 25  1  1  0  0  0
 19 20  1  0  0  0  0
 19 23  1  0  0  0  0
 20 22  1  0  0  0  0
 21 15  1  6  0  0  0
 21 23  1  0  0  0  0
 24 21  1  0  0  0  0
 24 22  1  0  0  0  0
 27 26  1  0  0  0  0
 28 30  1  0  0  0  0
 29 33  1  0  0  0  0
 29 27  1  0  0  0  0
 30 29  2  0  0  0  0
 31 32  1  0  0  0  0
 32 33  2  0  0  0  0
 34 31  2  0  0  0  0
 34 30  1  0  0  0  0
M  END
>  <MODEL>
9

>  <REMARK>
 VINA RESULT:      -8.0      2.687      6.938
  Name = 
  4 active torsions:
  status: ('A' for Active; 'I' for Inactive)
    1  A    between atoms: N_3  and  C_13
    2  A    between atoms: N_3  and  C_17
    3  A    between atoms: C_12  and  N_28
    4  A    between atoms: C_17  and  C_29
                            x       y       z     vdW  Elec       q    Type
                         _______ _______ _______ _____ _____    ______ ____

>  <TORSDO>
F 4

$$$$
