=
 OpenBabel11052421213D

 43 48  0  0  1  0  0  0  0  0999 V2000
  185.6050  178.9130  145.6410 C   0  0  0  0  0  2  0  0  0  0  0  0
  189.6430  176.7320  144.7160 C   0  0  1  0  0  3  0  0  0  0  0  0
  188.4970  174.7140  143.6760 C   0  0  0  0  0  2  0  0  0  0  0  0
  186.7160  176.6870  145.1890 C   0  0  2  0  0  3  0  0  0  0  0  0
  186.0550  178.9830  143.1030 C   0  0  0  0  0  2  0  0  0  0  0  0
  185.4260  179.6630  144.3190 C   0  0  0  0  0  2  0  0  0  0  0  0
  187.3010  176.9280  143.7770 C   0  0  1  0  0  3  0  0  0  0  0  0
  185.4010  177.4080  145.4990 C   0  0  0  0  0  2  0  0  0  0  0  0
  187.4280  178.4060  143.4050 C   0  0  0  0  0  2  0  0  0  0  0  0
  189.8530  174.0220  143.5800 C   0  0  1  0  0  3  0  0  0  0  0  0
  188.6620  176.2370  143.6340 C   0  0  1  0  0  3  0  0  0  0  0  0
  189.0400  176.7430  146.1050 C   0  0  0  0  0  3  0  0  0  0  0  0
  190.9830  175.9840  144.6340 C   0  0  2  0  0  3  0  0  0  0  0  0
  190.7750  174.4720  144.7150 C   0  0  0  0  0  2  0  0  0  0  0  0
  187.7170  176.7780  146.3160 C   0  0  0  0  0  3  0  0  0  0  0  0
  189.6710  172.5340  143.5630 C   0  0  0  0  0  0  0  0  0  0  0  0
  189.8320  171.7970  142.3490 N   0  0  0  0  0  2  0  0  0  0  0  0
  189.3150  171.9280  144.6090 O   0  0  0  0  0  0  0  0  0  0  0  0
  189.6360  171.6410  139.9270 C   0  0  0  0  0  2  0  0  0  0  0  0
  189.3850  172.5320  138.8030 N   0  0  0  0  0  2  0  0  0  0  0  0
  191.3970  173.7910  138.2470 C   0  0  0  0  0  2  0  0  0  0  0  0
  190.2160  172.4280  141.0950 C   0  0  2  0  0  3  0  0  0  0  0  0
  190.5620  172.5510  137.9440 C   0  0  2  0  0  3  0  0  0  0  0  0
  191.6110  172.4580  140.9980 O   0  0  0  0  0  0  0  0  0  0  0  0
  191.9210  173.6930  140.4150 C   0  0  2  0  0  3  0  0  0  0  0  0
  192.4370  173.4840  139.1320 O   0  0  0  0  0  0  0  0  0  0  0  0
  190.1110  172.6060  136.4990 C   0  0  0  0  0  1  0  0  0  0  0  0
  192.9260  174.4550  141.2800 C   0  0  0  0  0  2  0  0  0  0  0  0
  193.8580  173.5420  142.0090 C   0  0  0  0  0  0  0  0  0  0  0  0
  194.3320  172.1120  143.9070 C   0  0  0  0  0  3  0  0  0  0  0  0
  196.0230  172.4690  142.2080 C   0  0  0  0  0  3  0  0  0  0  0  0
  195.6150  171.8730  143.4060 C   0  0  0  0  0  3  0  0  0  0  0  0
  195.1440  173.3000  141.5090 C   0  0  0  0  0  3  0  0  0  0  0  0
  193.4550  172.9480  143.2110 C   0  0  0  0  0  3  0  0  0  0  0  0
  191.9650  176.4670  145.6970 C   0  0  0  0  0  2  0  0  0  0  0  0
  195.2400  176.2490  143.8090 C   0  0  0  0  0  3  0  0  0  0  0  0
  195.9850  175.3960  144.6290 C   0  0  0  0  0  0  0  0  0  0  0  0
  194.1080  175.2580  146.1650 C   0  0  0  0  0  3  0  0  0  0  0  0
  193.9340  176.6060  144.1600 C   0  0  0  0  0  3  0  0  0  0  0  0
  193.3660  176.1090  145.3370 C   0  0  0  0  0  0  0  0  0  0  0  0
  195.4130  174.9040  145.8140 C   0  0  0  0  0  3  0  0  0  0  0  0
  197.9130  175.5960  143.0940 C   0  0  0  0  0  1  0  0  0  0  0  0
  197.2900  175.0650  144.2540 O   0  0  0  0  0  0  0  0  0  0  0  0
  2 12  1  1  0  0  0
  4  8  1  1  0  0  0
  4 15  1  0  0  0  0
  5  9  1  0  0  0  0
  5  6  1  0  0  0  0
  6  1  1  0  0  0  0
  7  9  1  1  0  0  0
  7  4  1  0  0  0  0
  8  1  1  0  0  0  0
 10 16  1  1  0  0  0
 10  3  1  0  0  0  0
 10 14  1  0  0  0  0
 11  3  1  1  0  0  0
 11  7  1  0  0  0  0
 11  2  1  0  0  0  0
 12 15  2  0  0  0  0
 13 14  1  0  0  0  0
 13  2  1  0  0  0  0
 13 35  1  1  0  0  0
 16 18  2  0  0  0  0
 17 16  1  0  0  0  0
 19 22  1  0  0  0  0
 20 19  1  0  0  0  0
 21 26  1  0  0  0  0
 22 17  1  1  0  0  0
 23 27  1  6  0  0  0
 23 21  1  0  0  0  0
 23 20  1  0  0  0  0
 24 22  1  0  0  0  0
 25 24  1  0  0  0  0
 25 28  1  1  0  0  0
 26 25  1  0  0  0  0
 28 29  1  0  0  0  0
 29 34  1  0  0  0  0
 31 32  2  0  0  0  0
 32 30  1  0  0  0  0
 33 29  2  0  0  0  0
 33 31  1  0  0  0  0
 34 30  2  0  0  0  0
 36 39  2  0  0  0  0
 36 37  1  0  0  0  0
 37 41  2  0  0  0  0
 39 40  1  0  0  0  0
 40 35  1  0  0  0  0
 40 38  2  0  0  0  0
 41 38  1  0  0  0  0
 42 43  1  0  0  0  0
 43 37  1  0  0  0  0
M  END
>  <MODEL>
1

>  <REMARK>
 VINA RESULT:      -8.1      0.000      0.000
  Name = 
  7 active torsions:
  status: ('A' for Active; 'I' for Inactive)
    1  A    between atoms: C_1  and  C_34
    2  A    between atoms: C_1  and  C_35
    3  A    between atoms: C_2  and  C_27
    4  A    between atoms: N_6  and  C_12
    5  A    between atoms: C_11  and  C_14
    6  A    between atoms: C_14  and  C_22
    7  A    between atoms: C_19  and  O_37
                            x       y       z     vdW  Elec       q    Type
                         _______ _______ _______ _____ _____    ______ ____

>  <TORSDO>
F 7

$$$$
=
 OpenBabel11052421213D

 43 48  0  0  1  0  0  0  0  0999 V2000
  190.9470  171.9070  136.3530 C   0  0  0  0  0  2  0  0  0  0  0  0
  189.8940  173.7090  140.5440 C   0  0  1  0  0  3  0  0  0  0  0  0
  191.9180  172.6650  141.6760 C   0  0  0  0  0  2  0  0  0  0  0  0
  191.2590  171.6910  138.8530 C   0  0  2  0  0  3  0  0  0  0  0  0
  192.5980  173.8100  136.9070 C   0  0  0  0  0  2  0  0  0  0  0  0
  191.8500  173.0260  135.8280 C   0  0  0  0  0  2  0  0  0  0  0  0
  191.9250  173.0470  139.1870 C   0  0  1  0  0  3  0  0  0  0  0  0
  191.5930  171.1050  137.4780 C   0  0  0  0  0  2  0  0  0  0  0  0
  191.7240  174.1170  138.1130 C   0  0  0  0  0  2  0  0  0  0  0  0
  191.3890  173.1540  143.0210 C   0  0  1  0  0  3  0  0  0  0  0  0
  191.4310  173.5700  140.5400 C   0  0  1  0  0  3  0  0  0  0  0  0
  189.1860  172.4860  139.9980 C   0  0  0  0  0  3  0  0  0  0  0  0
  189.3800  174.1510  141.9230 C   0  0  2  0  0  3  0  0  0  0  0  0
  189.8600  173.2020  143.0200 C   0  0  0  0  0  2  0  0  0  0  0  0
  189.7900  171.6050  139.1890 C   0  0  0  0  0  3  0  0  0  0  0  0
  191.9220  172.2950  144.1270 C   0  0  0  0  0  0  0  0  0  0  0  0
  193.0060  172.7490  144.9420 N   0  0  0  0  0  2  0  0  0  0  0  0
  191.4580  171.1370  144.3090 O   0  0  0  0  0  0  0  0  0  0  0  0
  194.8910  173.9360  143.9610 C   0  0  0  0  0  2  0  0  0  0  0  0
  195.1260  175.1630  143.2120 N   0  0  0  0  0  2  0  0  0  0  0  0
  195.0870  177.0920  144.7010 C   0  0  0  0  0  2  0  0  0  0  0  0
  193.6120  174.0620  144.7780 C   0  0  2  0  0  3  0  0  0  0  0  0
  195.9610  176.0500  144.0100 C   0  0  2  0  0  3  0  0  0  0  0  0
  193.9050  174.5990  146.0350 O   0  0  0  0  0  0  0  0  0  0  0  0
  193.6100  175.9650  145.9380 C   0  0  2  0  0  3  0  0  0  0  0  0
  194.7960  176.7030  146.0130 O   0  0  0  0  0  0  0  0  0  0  0  0
  196.9340  176.7610  143.0920 C   0  0  0  0  0  1  0  0  0  0  0  0
  192.6470  176.3830  147.0510 C   0  0  0  0  0  2  0  0  0  0  0  0
  191.2160  176.1650  146.6780 C   0  0  0  0  0  0  0  0  0  0  0  0
  189.1340  174.9620  146.9740 C   0  0  0  0  0  3  0  0  0  0  0  0
  189.3010  176.6960  145.2890 C   0  0  0  0  0  3  0  0  0  0  0  0
  188.5530  175.7170  145.9510 C   0  0  0  0  0  3  0  0  0  0  0  0
  190.6310  176.9220  145.6540 C   0  0  0  0  0  3  0  0  0  0  0  0
  190.4650  175.1830  147.3350 C   0  0  0  0  0  3  0  0  0  0  0  0
  187.8620  174.2960  141.9390 C   0  0  0  0  0  2  0  0  0  0  0  0
  185.9410  177.2230  143.3810 C   0  0  0  0  0  3  0  0  0  0  0  0
  186.6620  178.3120  142.8780 C   0  0  0  0  0  0  0  0  0  0  0  0
  188.1850  176.7750  141.7760 C   0  0  0  0  0  3  0  0  0  0  0  0
  186.3370  175.9150  143.0840 C   0  0  0  0  0  3  0  0  0  0  0  0
  187.4580  175.6900  142.2790 C   0  0  0  0  0  0  0  0  0  0  0  0
  187.7910  178.0800  142.0750 C   0  0  0  0  0  3  0  0  0  0  0  0
  185.2480  179.8720  144.1760 C   0  0  0  0  0  1  0  0  0  0  0  0
  186.2450  179.6070  143.1990 O   0  0  0  0  0  0  0  0  0  0  0  0
  1  8  1  0  0  0  0
  2 12  1  1  0  0  0
  2 13  1  0  0  0  0
  3 10  1  0  0  0  0
  4  8  1  6  0  0  0
  4  7  1  0  0  0  0
  4 15  1  0  0  0  0
  5  9  1  0  0  0  0
  6  1  1  0  0  0  0
  6  5  1  0  0  0  0
  7  9  1  6  0  0  0
  7 11  1  0  0  0  0
 10 16  1  1  0  0  0
 11  2  1  0  0  0  0
 11  3  1  1  0  0  0
 13 35  1  6  0  0  0
 13 14  1  0  0  0  0
 14 10  1  0  0  0  0
 15 12  2  0  0  0  0
 16 18  2  0  0  0  0
 16 17  1  0  0  0  0
 19 22  1  0  0  0  0
 20 19  1  0  0  0  0
 20 23  1  0  0  0  0
 21 26  1  0  0  0  0
 22 17  1  1  0  0  0
 22 24  1  0  0  0  0
 23 27  1  6  0  0  0
 23 21  1  0  0  0  0
 25 26  1  0  0  0  0
 25 24  1  0  0  0  0
 25 28  1  1  0  0  0
 29 28  1  0  0  0  0
 29 34  1  0  0  0  0
 30 34  2  0  0  0  0
 31 33  1  0  0  0  0
 31 32  2  0  0  0  0
 32 30  1  0  0  0  0
 33 29  2  0  0  0  0
 35 40  1  0  0  0  0
 37 43  1  0  0  0  0
 37 36  2  0  0  0  0
 38 41  2  0  0  0  0
 38 40  1  0  0  0  0
 39 36  1  0  0  0  0
 40 39  2  0  0  0  0
 41 37  1  0  0  0  0
 43 42  1  0  0  0  0
M  END
>  <MODEL>
2

>  <REMARK>
 VINA RESULT:      -7.8      2.369      7.915
  Name = 
  7 active torsions:
  status: ('A' for Active; 'I' for Inactive)
    1  A    between atoms: C_1  and  C_34
    2  A    between atoms: C_1  and  C_35
    3  A    between atoms: C_2  and  C_27
    4  A    between atoms: N_6  and  C_12
    5  A    between atoms: C_11  and  C_14
    6  A    between atoms: C_14  and  C_22
    7  A    between atoms: C_19  and  O_37
                            x       y       z     vdW  Elec       q    Type
                         _______ _______ _______ _____ _____    ______ ____

>  <TORSDO>
F 7

$$$$
=
 OpenBabel11052421213D

 43 48  0  0  1  0  0  0  0  0999 V2000
  196.8160  171.2880  146.1400 C   0  0  0  0  0  2  0  0  0  0  0  0
  193.9230  174.3380  144.0790 C   0  0  1  0  0  3  0  0  0  0  0  0
  194.3670  173.4250  141.7470 C   0  0  0  0  0  2  0  0  0  0  0  0
  196.2210  172.4670  143.9830 C   0  0  2  0  0  3  0  0  0  0  0  0
  194.6860  170.0590  145.3640 C   0  0  0  0  0  2  0  0  0  0  0  0
  195.8320  170.1400  146.3730 C   0  0  0  0  0  2  0  0  0  0  0  0
  194.7710  171.9740  143.7660 C   0  0  1  0  0  3  0  0  0  0  0  0
  197.1670  171.4760  144.6670 C   0  0  0  0  0  2  0  0  0  0  0  0
  194.1080  171.4250  145.0300 C   0  0  0  0  0  2  0  0  0  0  0  0
  193.5410  174.5690  141.1660 C   0  0  1  0  0  3  0  0  0  0  0  0
  193.9070  173.0920  143.1700 C   0  0  1  0  0  3  0  0  0  0  0  0
  195.3160  174.7320  144.5230 C   0  0  0  0  0  3  0  0  0  0  0  0
  193.1290  175.4940  143.4500 C   0  0  2  0  0  3  0  0  0  0  0  0
  193.6440  175.8160  142.0470 C   0  0  0  0  0  2  0  0  0  0  0  0
  196.3410  173.8680  144.5310 C   0  0  0  0  0  3  0  0  0  0  0  0
  193.9640  174.8440  139.7550 C   0  0  0  0  0  0  0  0  0  0  0  0
  193.3720  174.1280  138.6680 N   0  0  0  0  0  2  0  0  0  0  0  0
  194.8880  175.6670  139.5200 O   0  0  0  0  0  0  0  0  0  0  0  0
  192.3430  172.1360  137.7180 C   0  0  0  0  0  2  0  0  0  0  0  0
  191.8540  170.8450  138.1830 N   0  0  0  0  0  2  0  0  0  0  0  0
  189.6710  171.0900  139.2380 C   0  0  0  0  0  2  0  0  0  0  0  0
  192.3180  173.1440  138.8600 C   0  0  2  0  0  3  0  0  0  0  0  0
  190.4190  170.7720  137.9470 C   0  0  2  0  0  3  0  0  0  0  0  0
  191.0780  173.7900  138.8920 O   0  0  0  0  0  0  0  0  0  0  0  0
  190.3320  173.1260  139.8730 C   0  0  2  0  0  3  0  0  0  0  0  0
  189.2790  172.4330  139.2660 O   0  0  0  0  0  0  0  0  0  0  0  0
  190.0660  169.3650  137.5120 C   0  0  0  0  0  1  0  0  0  0  0  0
  189.7960  174.1220  140.9020 C   0  0  0  0  0  2  0  0  0  0  0  0
  189.9590  173.6360  142.3060 C   0  0  0  0  0  0  0  0  0  0  0  0
  190.6690  171.9150  143.8570 C   0  0  0  0  0  3  0  0  0  0  0  0
  189.6400  173.9460  144.6890 C   0  0  0  0  0  3  0  0  0  0  0  0
  190.2210  172.6960  144.9280 C   0  0  0  0  0  3  0  0  0  0  0  0
  189.5120  174.4160  143.3800 C   0  0  0  0  0  3  0  0  0  0  0  0
  190.5350  172.3830  142.5480 C   0  0  0  0  0  3  0  0  0  0  0  0
  193.1330  176.7320  144.3400 C   0  0  0  0  0  2  0  0  0  0  0  0
  189.5540  177.7350  145.0620 C   0  0  0  0  0  3  0  0  0  0  0  0
  189.3830  177.2590  146.3660 C   0  0  0  0  0  0  0  0  0  0  0  0
  191.6600  176.4160  146.3410 C   0  0  0  0  0  3  0  0  0  0  0  0
  190.7720  177.5550  144.3980 C   0  0  0  0  0  3  0  0  0  0  0  0
  191.8270  176.8980  145.0380 C   0  0  0  0  0  0  0  0  0  0  0  0
  190.4430  176.5940  147.0030 C   0  0  0  0  0  3  0  0  0  0  0  0
  186.9640  176.7900  146.5800 C   0  0  0  0  0  1  0  0  0  0  0  0
  188.1510  177.4480  146.9990 O   0  0  0  0  0  0  0  0  0  0  0  0
  1  6  1  0  0  0  0
  2 12  1  6  0  0  0
  4 15  1  1  0  0  0
  4  8  1  0  0  0  0
  5  6  1  0  0  0  0
  7  4  1  0  0  0  0
  7  9  1  1  0  0  0
  8  1  1  0  0  0  0
  9  5  1  0  0  0  0
 10 16  1  6  0  0  0
 10  3  1  0  0  0  0
 10 14  1  0  0  0  0
 11  3  1  6  0  0  0
 11  7  1  0  0  0  0
 11  2  1  0  0  0  0
 12 15  2  0  0  0  0
 13  2  1  0  0  0  0
 13 35  1  1  0  0  0
 14 13  1  0  0  0  0
 17 16  1  0  0  0  0
 18 16  2  0  0  0  0
 19 20  1  0  0  0  0
 19 22  1  0  0  0  0
 21 26  1  0  0  0  0
 22 17  1  6  0  0  0
 22 24  1  0  0  0  0
 23 27  1  1  0  0  0
 23 20  1  0  0  0  0
 23 21  1  0  0  0  0
 24 25  1  0  0  0  0
 25 28  1  1  0  0  0
 26 25  1  0  0  0  0
 28 29  1  0  0  0  0
 29 34  2  0  0  0  0
 29 33  1  0  0  0  0
 30 32  2  0  0  0  0
 31 32  1  0  0  0  0
 33 31  2  0  0  0  0
 34 30  1  0  0  0  0
 35 40  1  0  0  0  0
 36 37  1  0  0  0  0
 37 43  1  0  0  0  0
 37 41  2  0  0  0  0
 38 41  1  0  0  0  0
 39 40  1  0  0  0  0
 39 36  2  0  0  0  0
 40 38  2  0  0  0  0
 42 43  1  0  0  0  0
M  END
>  <MODEL>
3

>  <REMARK>
 VINA RESULT:      -7.7      2.230      6.886
  Name = 
  7 active torsions:
  status: ('A' for Active; 'I' for Inactive)
    1  A    between atoms: C_1  and  C_34
    2  A    between atoms: C_1  and  C_35
    3  A    between atoms: C_2  and  C_27
    4  A    between atoms: N_6  and  C_12
    5  A    between atoms: C_11  and  C_14
    6  A    between atoms: C_14  and  C_22
    7  A    between atoms: C_19  and  O_37
                            x       y       z     vdW  Elec       q    Type
                         _______ _______ _______ _____ _____    ______ ____

>  <TORSDO>
F 7

$$$$
=
 OpenBabel11052421213D

 43 48  0  0  1  0  0  0  0  0999 V2000
  185.5390  178.7640  145.8250 C   0  0  0  0  0  2  0  0  0  0  0  0
  189.6140  176.6880  144.8220 C   0  0  1  0  0  3  0  0  0  0  0  0
  188.4990  174.6410  143.8030 C   0  0  0  0  0  2  0  0  0  0  0  0
  186.6980  176.5680  145.3510 C   0  0  2  0  0  3  0  0  0  0  0  0
  185.9390  178.8460  143.2790 C   0  0  0  0  0  2  0  0  0  0  0  0
  185.3160  179.5100  144.5070 C   0  0  0  0  0  2  0  0  0  0  0  0
  187.2500  176.8240  143.9290 C   0  0  1  0  0  3  0  0  0  0  0  0
  185.3710  177.2540  145.6860 C   0  0  0  0  0  2  0  0  0  0  0  0
  187.3320  178.3040  143.5550 C   0  0  0  0  0  2  0  0  0  0  0  0
  189.8710  173.9830  143.6810 C   0  0  1  0  0  3  0  0  0  0  0  0
  188.6240  176.1680  143.7580 C   0  0  1  0  0  3  0  0  0  0  0  0
  189.0370  176.6830  146.2230 C   0  0  0  0  0  3  0  0  0  0  0  0
  190.9700  175.9740  144.7150 C   0  0  2  0  0  3  0  0  0  0  0  0
  190.8030  174.4570  144.7980 C   0  0  0  0  0  2  0  0  0  0  0  0
  187.7170  176.6850  146.4580 C   0  0  0  0  0  3  0  0  0  0  0  0
  189.7270  172.4920  143.6670 C   0  0  0  0  0  0  0  0  0  0  0  0
  189.9860  171.7490  142.4730 N   0  0  0  0  0  2  0  0  0  0  0  0
  189.3170  171.8860  144.6930 O   0  0  0  0  0  0  0  0  0  0  0  0
  190.0660  171.5030  140.0530 C   0  0  0  0  0  2  0  0  0  0  0  0
  189.8500  172.3300  138.8740 N   0  0  0  0  0  2  0  0  0  0  0  0
  191.7750  173.7710  138.4780 C   0  0  0  0  0  2  0  0  0  0  0  0
  190.4380  172.3790  141.2420 C   0  0  2  0  0  3  0  0  0  0  0  0
  191.1030  172.4440  138.1410 C   0  0  2  0  0  3  0  0  0  0  0  0
  191.8250  172.5490  141.2880 O   0  0  0  0  0  0  0  0  0  0  0  0
  192.0720  173.7910  140.6910 C   0  0  2  0  0  3  0  0  0  0  0  0
  192.7400  173.5980  139.4770 O   0  0  0  0  0  0  0  0  0  0  0  0
  190.8060  172.4100  136.6560 C   0  0  0  0  0  1  0  0  0  0  0  0
  192.8990  174.6770  141.6240 C   0  0  0  0  0  2  0  0  0  0  0  0
  194.3560  174.6500  141.2920 C   0  0  0  0  0  0  0  0  0  0  0  0
  196.5160  173.5610  141.4270 C   0  0  0  0  0  3  0  0  0  0  0  0
  196.3050  175.6940  140.2980 C   0  0  0  0  0  3  0  0  0  0  0  0
  197.0940  174.6190  140.7190 C   0  0  0  0  0  3  0  0  0  0  0  0
  194.9370  175.7090  140.5810 C   0  0  0  0  0  3  0  0  0  0  0  0
  195.1490  173.5780  141.7170 C   0  0  0  0  0  3  0  0  0  0  0  0
  191.9590  176.4820  145.7580 C   0  0  0  0  0  2  0  0  0  0  0  0
  195.2340  174.5810  145.7750 C   0  0  0  0  0  3  0  0  0  0  0  0
  195.9890  175.3080  144.8500 C   0  0  0  0  0  0  0  0  0  0  0  0
  194.1020  176.7940  144.4980 C   0  0  0  0  0  3  0  0  0  0  0  0
  193.9180  174.9560  146.0650 C   0  0  0  0  0  3  0  0  0  0  0  0
  193.3520  176.0650  145.4280 C   0  0  0  0  0  0  0  0  0  0  0  0
  195.4140  176.4170  144.2080 C   0  0  0  0  0  3  0  0  0  0  0  0
  197.7370  173.5610  144.7410 C   0  0  0  0  0  1  0  0  0  0  0  0
  197.2990  174.9020  144.5770 O   0  0  0  0  0  0  0  0  0  0  0  0
  2 12  1  1  0  0  0
  4  8  1  1  0  0  0
  4 15  1  0  0  0  0
  5  9  1  0  0  0  0
  5  6  1  0  0  0  0
  6  1  1  0  0  0  0
  7  9  1  1  0  0  0
  7  4  1  0  0  0  0
  8  1  1  0  0  0  0
 10 16  1  1  0  0  0
 10  3  1  0  0  0  0
 10 14  1  0  0  0  0
 11  3  1  1  0  0  0
 11  7  1  0  0  0  0
 11  2  1  0  0  0  0
 12 15  2  0  0  0  0
 13 14  1  0  0  0  0
 13  2  1  0  0  0  0
 13 35  1  1  0  0  0
 16 18  2  0  0  0  0
 17 16  1  0  0  0  0
 19 22  1  0  0  0  0
 20 19  1  0  0  0  0
 21 26  1  0  0  0  0
 22 24  1  0  0  0  0
 22 17  1  1  0  0  0
 23 27  1  6  0  0  0
 23 21  1  0  0  0  0
 23 20  1  0  0  0  0
 25 24  1  0  0  0  0
 25 28  1  1  0  0  0
 26 25  1  0  0  0  0
 29 28  1  0  0  0  0
 29 34  1  0  0  0  0
 30 34  2  0  0  0  0
 31 33  1  0  0  0  0
 31 32  2  0  0  0  0
 32 30  1  0  0  0  0
 33 29  2  0  0  0  0
 36 39  1  0  0  0  0
 37 36  2  0  0  0  0
 38 40  1  0  0  0  0
 40 35  1  0  0  0  0
 40 39  2  0  0  0  0
 41 38  2  0  0  0  0
 41 37  1  0  0  0  0
 43 42  1  0  0  0  0
 43 37  1  0  0  0  0
M  END
>  <MODEL>
4

>  <REMARK>
 VINA RESULT:      -7.7      0.903      1.457
  Name = 
  7 active torsions:
  status: ('A' for Active; 'I' for Inactive)
    1  A    between atoms: C_1  and  C_34
    2  A    between atoms: C_1  and  C_35
    3  A    between atoms: C_2  and  C_27
    4  A    between atoms: N_6  and  C_12
    5  A    between atoms: C_11  and  C_14
    6  A    between atoms: C_14  and  C_22
    7  A    between atoms: C_19  and  O_37
                            x       y       z     vdW  Elec       q    Type
                         _______ _______ _______ _____ _____    ______ ____

>  <TORSDO>
F 7

$$$$
=
 OpenBabel11052421213D

 43 48  0  0  1  0  0  0  0  0999 V2000
  185.5120  178.8800  145.3480 C   0  0  0  0  0  2  0  0  0  0  0  0
  189.5160  176.7940  144.1070 C   0  0  1  0  0  3  0  0  0  0  0  0
  188.3350  174.8130  143.0340 C   0  0  0  0  0  2  0  0  0  0  0  0
  186.6190  176.6910  144.7320 C   0  0  2  0  0  3  0  0  0  0  0  0
  185.8250  179.0750  142.7960 C   0  0  0  0  0  2  0  0  0  0  0  0
  185.2560  179.6890  144.0750 C   0  0  0  0  0  2  0  0  0  0  0  0
  187.1250  177.0060  143.3050 C   0  0  1  0  0  3  0  0  0  0  0  0
  185.3150  177.3810  145.1450 C   0  0  0  0  0  2  0  0  0  0  0  0
  187.2180  178.5010  142.9970 C   0  0  0  0  0  2  0  0  0  0  0  0
  189.6900  174.1420  142.8340 C   0  0  1  0  0  3  0  0  0  0  0  0
  188.4830  176.3380  143.0560 C   0  0  1  0  0  3  0  0  0  0  0  0
  188.9880  176.7320  145.5250 C   0  0  0  0  0  3  0  0  0  0  0  0
  190.8570  176.0670  143.9190 C   0  0  2  0  0  3  0  0  0  0  0  0
  190.6680  174.5500  143.9380 C   0  0  0  0  0  2  0  0  0  0  0  0
  187.6780  176.7410  145.8070 C   0  0  0  0  0  3  0  0  0  0  0  0
  189.5220  172.6560  142.7560 C   0  0  0  0  0  0  0  0  0  0  0  0
  190.3920  171.8680  141.9380 N   0  0  0  0  0  2  0  0  0  0  0  0
  188.5720  172.0930  143.3640 O   0  0  0  0  0  0  0  0  0  0  0  0
  190.9770  173.0020  139.8650 C   0  0  0  0  0  2  0  0  0  0  0  0
  191.8000  174.1280  139.4430 N   0  0  0  0  0  2  0  0  0  0  0  0
  194.1530  173.4950  139.3970 C   0  0  0  0  0  2  0  0  0  0  0  0
  191.4940  172.4460  141.1860 C   0  0  2  0  0  3  0  0  0  0  0  0
  192.8690  173.6350  138.5860 C   0  0  2  0  0  3  0  0  0  0  0  0
  192.4560  171.4610  140.9390 O   0  0  0  0  0  0  0  0  0  0  0  0
  193.6940  172.1010  141.0800 C   0  0  2  0  0  3  0  0  0  0  0  0
  194.3220  172.1750  139.8320 O   0  0  0  0  0  0  0  0  0  0  0  0
  193.1020  174.6350  137.4720 C   0  0  0  0  0  1  0  0  0  0  0  0
  194.5740  171.3480  142.0790 C   0  0  0  0  0  2  0  0  0  0  0  0
  194.7390  172.0910  143.3650 C   0  0  0  0  0  0  0  0  0  0  0  0
  196.1770  173.1510  145.0020 C   0  0  0  0  0  3  0  0  0  0  0  0
  193.7860  173.0470  145.3790 C   0  0  0  0  0  3  0  0  0  0  0  0
  195.0630  173.4350  145.7970 C   0  0  0  0  0  3  0  0  0  0  0  0
  193.6240  172.3780  144.1630 C   0  0  0  0  0  3  0  0  0  0  0  0
  196.0170  172.4760  143.7900 C   0  0  0  0  0  3  0  0  0  0  0  0
  191.8890  176.5100  144.9490 C   0  0  0  0  0  2  0  0  0  0  0  0
  194.7670  175.9750  142.5480 C   0  0  0  0  0  3  0  0  0  0  0  0
  195.8590  176.3940  143.3150 C   0  0  0  0  0  0  0  0  0  0  0  0
  194.3540  176.9130  145.1480 C   0  0  0  0  0  3  0  0  0  0  0  0
  193.4730  176.0210  143.0750 C   0  0  0  0  0  3  0  0  0  0  0  0
  193.2650  176.4880  144.3770 C   0  0  0  0  0  0  0  0  0  0  0  0
  195.6450  176.8680  144.6190 C   0  0  0  0  0  3  0  0  0  0  0  0
  197.6260  175.2060  142.0550 C   0  0  0  0  0  1  0  0  0  0  0  0
  197.1390  176.3420  142.7550 O   0  0  0  0  0  0  0  0  0  0  0  0
  2 12  1  1  0  0  0
  4  8  1  1  0  0  0
  4 15  1  0  0  0  0
  5  9  1  0  0  0  0
  5  6  1  0  0  0  0
  6  1  1  0  0  0  0
  7  9  1  1  0  0  0
  7  4  1  0  0  0  0
  8  1  1  0  0  0  0
 10 16  1  1  0  0  0
 10  3  1  0  0  0  0
 10 14  1  0  0  0  0
 11  3  1  1  0  0  0
 11  7  1  0  0  0  0
 11  2  1  0  0  0  0
 12 15  2  0  0  0  0
 13 14  1  0  0  0  0
 13  2  1  0  0  0  0
 13 35  1  1  0  0  0
 16 18  2  0  0  0  0
 17 16  1  0  0  0  0
 19 22  1  0  0  0  0
 20 19  1  0  0  0  0
 21 26  1  0  0  0  0
 22 17  1  6  0  0  0
 23 27  1  6  0  0  0
 23 21  1  0  0  0  0
 23 20  1  0  0  0  0
 24 25  1  0  0  0  0
 24 22  1  0  0  0  0
 25 28  1  1  0  0  0
 26 25  1  0  0  0  0
 28 29  1  0  0  0  0
 29 34  2  0  0  0  0
 29 33  1  0  0  0  0
 30 32  2  0  0  0  0
 31 32  1  0  0  0  0
 33 31  2  0  0  0  0
 34 30  1  0  0  0  0
 36 39  2  0  0  0  0
 36 37  1  0  0  0  0
 37 41  2  0  0  0  0
 39 40  1  0  0  0  0
 40 35  1  0  0  0  0
 40 38  2  0  0  0  0
 41 38  1  0  0  0  0
 42 43  1  0  0  0  0
 43 37  1  0  0  0  0
M  END
>  <MODEL>
5

>  <REMARK>
 VINA RESULT:      -7.4      1.396      1.884
  Name = 
  7 active torsions:
  status: ('A' for Active; 'I' for Inactive)
    1  A    between atoms: C_1  and  C_34
    2  A    between atoms: C_1  and  C_35
    3  A    between atoms: C_2  and  C_27
    4  A    between atoms: N_6  and  C_12
    5  A    between atoms: C_11  and  C_14
    6  A    between atoms: C_14  and  C_22
    7  A    between atoms: C_19  and  O_37
                            x       y       z     vdW  Elec       q    Type
                         _______ _______ _______ _____ _____    ______ ____

>  <TORSDO>
F 7

$$$$
=
 OpenBabel11052421213D

 43 48  0  0  1  0  0  0  0  0999 V2000
  197.1530  169.7010  146.4910 C   0  0  0  0  0  2  0  0  0  0  0  0
  193.9300  172.8780  145.2890 C   0  0  1  0  0  3  0  0  0  0  0  0
  194.5950  172.8540  142.8330 C   0  0  0  0  0  2  0  0  0  0  0  0
  196.4790  171.4460  144.7890 C   0  0  2  0  0  3  0  0  0  0  0  0
  195.2560  168.5450  145.1810 C   0  0  0  0  0  2  0  0  0  0  0  0
  196.3370  168.4280  146.2560 C   0  0  0  0  0  2  0  0  0  0  0  0
  195.1250  170.8770  144.3010 C   0  0  1  0  0  3  0  0  0  0  0  0
  197.5310  170.4090  145.1930 C   0  0  0  0  0  2  0  0  0  0  0  0
  194.5000  169.8620  145.2580 C   0  0  0  0  0  2  0  0  0  0  0  0
  193.6350  174.0140  142.5860 C   0  0  1  0  0  3  0  0  0  0  0  0
  194.1320  172.0130  144.0270 C   0  0  1  0  0  3  0  0  0  0  0  0
  195.2330  173.2720  145.9530 C   0  0  0  0  0  3  0  0  0  0  0  0
  193.0030  174.0700  145.0020 C   0  0  2  0  0  3  0  0  0  0  0  0
  193.5200  174.9000  143.8280 C   0  0  0  0  0  2  0  0  0  0  0  0
  196.3720  172.5890  145.7680 C   0  0  0  0  0  3  0  0  0  0  0  0
  194.0690  174.7920  141.3810 C   0  0  0  0  0  0  0  0  0  0  0  0
  193.4510  174.5680  140.1110 N   0  0  0  0  0  2  0  0  0  0  0  0
  195.0240  175.6100  141.4650 O   0  0  0  0  0  0  0  0  0  0  0  0
  192.1740  173.3380  138.4430 C   0  0  0  0  0  2  0  0  0  0  0  0
  191.6530  171.9900  138.2570 N   0  0  0  0  0  2  0  0  0  0  0  0
  189.6370  171.6640  139.5880 C   0  0  0  0  0  2  0  0  0  0  0  0
  192.3590  173.6230  139.9270 C   0  0  2  0  0  3  0  0  0  0  0  0
  190.1980  172.0470  138.2220 C   0  0  2  0  0  3  0  0  0  0  0  0
  191.1830  174.1640  140.4550 O   0  0  0  0  0  0  0  0  0  0  0  0
  190.5160  173.0920  141.0620 C   0  0  2  0  0  3  0  0  0  0  0  0
  189.3490  172.8060  140.3440 O   0  0  0  0  0  0  0  0  0  0  0  0
  189.6950  171.0580  137.1920 C   0  0  0  0  0  1  0  0  0  0  0  0
  190.1820  173.4260  142.5170 C   0  0  0  0  0  2  0  0  0  0  0  0
  189.5850  174.7880  142.6670 C   0  0  0  0  0  0  0  0  0  0  0  0
  187.6330  176.2170  142.8020 C   0  0  0  0  0  3  0  0  0  0  0  0
  189.8520  177.1880  142.8750 C   0  0  0  0  0  3  0  0  0  0  0  0
  188.4620  177.3390  142.8960 C   0  0  0  0  0  3  0  0  0  0  0  0
  190.4130  175.9140  142.7630 C   0  0  0  0  0  3  0  0  0  0  0  0
  188.1940  174.9430  142.6840 C   0  0  0  0  0  3  0  0  0  0  0  0
  192.7920  174.9320  146.2420 C   0  0  0  0  0  2  0  0  0  0  0  0
  189.0070  174.9010  146.3500 C   0  0  0  0  0  3  0  0  0  0  0  0
  188.7160  176.2630  146.4780 C   0  0  0  0  0  0  0  0  0  0  0  0
  191.0930  176.7580  146.4740 C   0  0  0  0  0  3  0  0  0  0  0  0
  190.3350  174.4660  146.2830 C   0  0  0  0  0  3  0  0  0  0  0  0
  191.3790  175.3940  146.3420 C   0  0  0  0  0  0  0  0  0  0  0  0
  189.7680  177.1910  146.5440 C   0  0  0  0  0  3  0  0  0  0  0  0
  186.9750  177.8800  147.1680 C   0  0  0  0  0  1  0  0  0  0  0  0
  187.3790  176.6660  146.5500 O   0  0  0  0  0  0  0  0  0  0  0  0
  2 12  1  6  0  0  0
  4  8  1  1  0  0  0
  4 15  1  0  0  0  0
  5  9  1  0  0  0  0
  5  6  1  0  0  0  0
  6  1  1  0  0  0  0
  7  4  1  0  0  0  0
  7  9  1  1  0  0  0
  8  1  1  0  0  0  0
 10 16  1  6  0  0  0
 10  3  1  0  0  0  0
 10 14  1  0  0  0  0
 11  3  1  6  0  0  0
 11  7  1  0  0  0  0
 11  2  1  0  0  0  0
 13  2  1  0  0  0  0
 13 35  1  1  0  0  0
 14 13  1  0  0  0  0
 15 12  2  0  0  0  0
 16 18  2  0  0  0  0
 17 16  1  0  0  0  0
 19 22  1  0  0  0  0
 20 19  1  0  0  0  0
 21 26  1  0  0  0  0
 22 17  1  6  0  0  0
 22 24  1  0  0  0  0
 23 27  1  6  0  0  0
 23 20  1  0  0  0  0
 23 21  1  0  0  0  0
 24 25  1  0  0  0  0
 25 28  1  1  0  0  0
 26 25  1  0  0  0  0
 28 29  1  0  0  0  0
 29 34  2  0  0  0  0
 29 33  1  0  0  0  0
 30 32  2  0  0  0  0
 31 32  1  0  0  0  0
 33 31  2  0  0  0  0
 34 30  1  0  0  0  0
 35 40  1  0  0  0  0
 36 37  1  0  0  0  0
 37 41  2  0  0  0  0
 37 43  1  0  0  0  0
 38 41  1  0  0  0  0
 39 40  1  0  0  0  0
 39 36  2  0  0  0  0
 40 38  2  0  0  0  0
 43 42  1  0  0  0  0
M  END
>  <MODEL>
6

>  <REMARK>
 VINA RESULT:      -7.2      2.209      7.476
  Name = 
  7 active torsions:
  status: ('A' for Active; 'I' for Inactive)
    1  A    between atoms: C_1  and  C_34
    2  A    between atoms: C_1  and  C_35
    3  A    between atoms: C_2  and  C_27
    4  A    between atoms: N_6  and  C_12
    5  A    between atoms: C_11  and  C_14
    6  A    between atoms: C_14  and  C_22
    7  A    between atoms: C_19  and  O_37
                            x       y       z     vdW  Elec       q    Type
                         _______ _______ _______ _____ _____    ______ ____

>  <TORSDO>
F 7

$$$$
=
 OpenBabel11052421213D

 43 48  0  0  1  0  0  0  0  0999 V2000
  184.1120  178.8450  145.1250 C   0  0  0  0  0  2  0  0  0  0  0  0
  187.6060  176.0640  143.7190 C   0  0  1  0  0  3  0  0  0  0  0  0
  189.4070  177.5570  144.7190 C   0  0  0  0  0  2  0  0  0  0  0  0
  186.5770  178.7090  144.5780 C   0  0  2  0  0  3  0  0  0  0  0  0
  185.1010  177.6140  147.1640 C   0  0  0  0  0  2  0  0  0  0  0  0
  183.8710  178.2490  146.5140 C   0  0  0  0  0  2  0  0  0  0  0  0
  187.0520  177.6560  145.6070 C   0  0  1  0  0  3  0  0  0  0  0  0
  185.4270  179.6130  145.0310 C   0  0  0  0  0  2  0  0  0  0  0  0
  185.9230  176.7980  146.1800 C   0  0  0  0  0  2  0  0  0  0  0  0
  190.4670  176.6750  144.0660 C   0  0  1  0  0  3  0  0  0  0  0  0
  188.1300  176.7540  144.9950 C   0  0  1  0  0  3  0  0  0  0  0  0
  186.9120  177.0180  142.7700 C   0  0  0  0  0  3  0  0  0  0  0  0
  188.7060  175.2240  143.0500 C   0  0  2  0  0  3  0  0  0  0  0  0
  189.9460  176.0710  142.7620 C   0  0  0  0  0  2  0  0  0  0  0  0
  186.3980  178.1890  143.1720 C   0  0  0  0  0  3  0  0  0  0  0  0
  191.7280  177.4580  143.8570 C   0  0  0  0  0  0  0  0  0  0  0  0
  192.9850  176.7880  143.7240 N   0  0  0  0  0  2  0  0  0  0  0  0
  191.6980  178.7180  143.8550 O   0  0  0  0  0  0  0  0  0  0  0  0
  193.8720  174.9030  144.9830 C   0  0  0  0  0  2  0  0  0  0  0  0
  193.4330  173.5780  145.4000 N   0  0  0  0  0  2  0  0  0  0  0  0
  193.5820  172.0070  143.5430 C   0  0  0  0  0  2  0  0  0  0  0  0
  193.1050  175.3380  143.7420 C   0  0  2  0  0  3  0  0  0  0  0  0
  194.2850  172.5790  144.7690 C   0  0  2  0  0  3  0  0  0  0  0  0
  193.7820  174.9140  142.5940 O   0  0  0  0  0  0  0  0  0  0  0  0
  193.1440  173.7330  142.1960 C   0  0  2  0  0  3  0  0  0  0  0  0
  194.0130  172.6520  142.3780 O   0  0  0  0  0  0  0  0  0  0  0  0
  194.5360  171.4580  145.7570 C   0  0  0  0  0  1  0  0  0  0  0  0
  192.7070  173.8290  140.7330 C   0  0  0  0  0  2  0  0  0  0  0  0
  193.8650  173.7880  139.7890 C   0  0  0  0  0  0  0  0  0  0  0  0
  195.7160  174.9030  138.6940 C   0  0  0  0  0  3  0  0  0  0  0  0
  195.2180  172.5890  138.1740 C   0  0  0  0  0  3  0  0  0  0  0  0
  196.0010  173.7330  137.9840 C   0  0  0  0  0  3  0  0  0  0  0  0
  194.1530  172.6160  139.0770 C   0  0  0  0  0  3  0  0  0  0  0  0
  194.6470  174.9320  139.5930 C   0  0  0  0  0  3  0  0  0  0  0  0
  188.2000  174.5330  141.7900 C   0  0  0  0  0  2  0  0  0  0  0  0
  190.0810  171.2960  142.3560 C   0  0  0  0  0  3  0  0  0  0  0  0
  190.4080  170.9240  141.0480 C   0  0  0  0  0  0  0  0  0  0  0  0
  189.2700  172.9020  140.2180 C   0  0  0  0  0  3  0  0  0  0  0  0
  189.3540  172.4660  142.5980 C   0  0  0  0  0  3  0  0  0  0  0  0
  188.9500  173.2710  141.5290 C   0  0  0  0  0  0  0  0  0  0  0  0
  189.9950  171.7330  139.9770 C   0  0  0  0  0  3  0  0  0  0  0  0
  190.9520  168.5850  141.6400 C   0  0  0  0  0  1  0  0  0  0  0  0
  191.1290  169.7450  140.8390 O   0  0  0  0  0  0  0  0  0  0  0  0
  1  6  1  0  0  0  0
  2 12  1  6  0  0  0
  2 11  1  0  0  0  0
  4 15  1  6  0  0  0
  4  8  1  0  0  0  0
  4  7  1  0  0  0  0
  6  5  1  0  0  0  0
  7  9  1  6  0  0  0
  8  1  1  0  0  0  0
  9  5  1  0  0  0  0
 10 16  1  6  0  0  0
 10  3  1  0  0  0  0
 11  3  1  6  0  0  0
 11  7  1  0  0  0  0
 12 15  2  0  0  0  0
 13 35  1  6  0  0  0
 13  2  1  0  0  0  0
 14 13  1  0  0  0  0
 14 10  1  0  0  0  0
 17 16  1  0  0  0  0
 18 16  2  0  0  0  0
 19 20  1  0  0  0  0
 21 23  1  0  0  0  0
 22 17  1  6  0  0  0
 22 19  1  0  0  0  0
 23 20  1  0  0  0  0
 23 27  1  1  0  0  0
 24 22  1  0  0  0  0
 25 28  1  6  0  0  0
 25 26  1  0  0  0  0
 25 24  1  0  0  0  0
 26 21  1  0  0  0  0
 29 28  1  0  0  0  0
 30 34  2  0  0  0  0
 31 33  1  0  0  0  0
 32 31  2  0  0  0  0
 32 30  1  0  0  0  0
 33 29  2  0  0  0  0
 34 29  1  0  0  0  0
 36 39  1  0  0  0  0
 37 36  2  0  0  0  0
 38 40  1  0  0  0  0
 40 35  1  0  0  0  0
 40 39  2  0  0  0  0
 41 38  2  0  0  0  0
 41 37  1  0  0  0  0
 43 37  1  0  0  0  0
 43 42  1  0  0  0  0
M  END
>  <MODEL>
7

>  <REMARK>
 VINA RESULT:      -7.2      2.435      5.468
  Name = 
  7 active torsions:
  status: ('A' for Active; 'I' for Inactive)
    1  A    between atoms: C_1  and  C_34
    2  A    between atoms: C_1  and  C_35
    3  A    between atoms: C_2  and  C_27
    4  A    between atoms: N_6  and  C_12
    5  A    between atoms: C_11  and  C_14
    6  A    between atoms: C_14  and  C_22
    7  A    between atoms: C_19  and  O_37
                            x       y       z     vdW  Elec       q    Type
                         _______ _______ _______ _____ _____    ______ ____

>  <TORSDO>
F 7

$$$$
=
 OpenBabel11052421213D

 43 48  0  0  1  0  0  0  0  0999 V2000
  189.7230  170.9540  138.4180 C   0  0  0  0  0  2  0  0  0  0  0  0
  190.8550  172.6910  142.6160 C   0  0  1  0  0  3  0  0  0  0  0  0
  193.3310  172.1800  142.3340 C   0  0  0  0  0  2  0  0  0  0  0  0
  191.4230  170.9410  140.2900 C   0  0  2  0  0  3  0  0  0  0  0  0
  190.9530  173.2000  138.1130 C   0  0  0  0  0  2  0  0  0  0  0  0
  189.9140  172.2160  137.5740 C   0  0  0  0  0  2  0  0  0  0  0  0
  191.8570  172.4260  140.3070 C   0  0  1  0  0  3  0  0  0  0  0  0
  191.0420  170.3730  138.9200 C   0  0  0  0  0  2  0  0  0  0  0  0
  190.8660  173.3680  139.6220 C   0  0  0  0  0  2  0  0  0  0  0  0
  193.5610  172.6090  143.7800 C   0  0  1  0  0  3  0  0  0  0  0  0
  192.1110  172.8960  141.7440 C   0  0  1  0  0  3  0  0  0  0  0  0
  190.2410  171.3160  142.4590 C   0  0  0  0  0  3  0  0  0  0  0  0
  191.1260  173.0790  144.0780 C   0  0  2  0  0  3  0  0  0  0  0  0
  192.3270  172.3170  144.6370 C   0  0  0  0  0  2  0  0  0  0  0  0
  190.4550  170.5500  141.3800 C   0  0  0  0  0  3  0  0  0  0  0  0
  194.7900  171.9460  144.3240 C   0  0  0  0  0  0  0  0  0  0  0  0
  196.0820  172.2770  143.8080 N   0  0  0  0  0  2  0  0  0  0  0  0
  194.6890  171.0470  145.2010 O   0  0  0  0  0  0  0  0  0  0  0  0
  196.9300  172.6500  141.5570 C   0  0  0  0  0  2  0  0  0  0  0  0
  196.5220  173.3570  140.3500 N   0  0  0  0  0  2  0  0  0  0  0  0
  196.9550  175.7440  140.5730 C   0  0  0  0  0  2  0  0  0  0  0  0
  196.2780  173.2850  142.7780 C   0  0  2  0  0  3  0  0  0  0  0  0
  197.4900  174.4080  140.0690 C   0  0  2  0  0  3  0  0  0  0  0  0
  197.0980  174.3040  143.2740 O   0  0  0  0  0  0  0  0  0  0  0  0
  196.5720  175.4950  142.7590 C   0  0  2  0  0  3  0  0  0  0  0  0
  197.4740  176.0410  141.8390 O   0  0  0  0  0  0  0  0  0  0  0  0
  197.6930  174.4970  138.5710 C   0  0  0  0  0  1  0  0  0  0  0  0
  196.2910  176.4880  143.8880 C   0  0  0  0  0  2  0  0  0  0  0  0
  194.9800  176.2330  144.5580 C   0  0  0  0  0  0  0  0  0  0  0  0
  192.5580  176.2680  144.5040 C   0  0  0  0  0  3  0  0  0  0  0  0
  193.7140  175.5590  146.5120 C   0  0  0  0  0  3  0  0  0  0  0  0
  192.5220  175.8070  145.8240 C   0  0  0  0  0  3  0  0  0  0  0  0
  194.9410  175.7690  145.8800 C   0  0  0  0  0  3  0  0  0  0  0  0
  193.7850  176.4840  143.8730 C   0  0  0  0  0  3  0  0  0  0  0  0
  189.8910  172.8850  144.9510 C   0  0  0  0  0  2  0  0  0  0  0  0
  188.4730  176.3960  144.9770 C   0  0  0  0  0  3  0  0  0  0  0  0
  188.4240  176.6720  146.3470 C   0  0  0  0  0  0  0  0  0  0  0  0
  189.3140  174.4620  146.8110 C   0  0  0  0  0  3  0  0  0  0  0  0
  188.9410  175.1590  144.5220 C   0  0  0  0  0  3  0  0  0  0  0  0
  189.3650  174.1920  145.4380 C   0  0  0  0  0  0  0  0  0  0  0  0
  188.8440  175.6960  147.2640 C   0  0  0  0  0  3  0  0  0  0  0  0
  186.6110  178.1090  147.2250 C   0  0  0  0  0  1  0  0  0  0  0  0
  187.9430  177.9150  146.7700 O   0  0  0  0  0  0  0  0  0  0  0  0
  1  8  1  0  0  0  0
  2 12  1  1  0  0  0
  2 13  1  0  0  0  0
  3 10  1  0  0  0  0
  4  8  1  6  0  0  0
  4  7  1  0  0  0  0
  4 15  1  0  0  0  0
  5  9  1  0  0  0  0
  6  5  1  0  0  0  0
  6  1  1  0  0  0  0
  7  9  1  1  0  0  0
  7 11  1  0  0  0  0
 10 16  1  1  0  0  0
 10 14  1  0  0  0  0
 11  3  1  1  0  0  0
 11  2  1  0  0  0  0
 13 14  1  0  0  0  0
 13 35  1  1  0  0  0
 15 12  2  0  0  0  0
 16 18  2  0  0  0  0
 17 16  1  0  0  0  0
 19 22  1  0  0  0  0
 20 19  1  0  0  0  0
 21 26  1  0  0  0  0
 22 24  1  0  0  0  0
 22 17  1  1  0  0  0
 23 27  1  6  0  0  0
 23 20  1  0  0  0  0
 23 21  1  0  0  0  0
 25 24  1  0  0  0  0
 25 28  1  1  0  0  0
 26 25  1  0  0  0  0
 28 29  1  0  0  0  0
 29 33  1  0  0  0  0
 30 32  2  0  0  0  0
 32 31  1  0  0  0  0
 33 31  2  0  0  0  0
 34 30  1  0  0  0  0
 34 29  2  0  0  0  0
 35 40  1  0  0  0  0
 36 37  1  0  0  0  0
 37 43  1  0  0  0  0
 37 41  2  0  0  0  0
 38 41  1  0  0  0  0
 39 36  2  0  0  0  0
 39 40  1  0  0  0  0
 40 38  2  0  0  0  0
 43 42  1  0  0  0  0
M  END
>  <MODEL>
8

>  <REMARK>
 VINA RESULT:      -6.9      2.602      6.901
  Name = 
  7 active torsions:
  status: ('A' for Active; 'I' for Inactive)
    1  A    between atoms: C_1  and  C_34
    2  A    between atoms: C_1  and  C_35
    3  A    between atoms: C_2  and  C_27
    4  A    between atoms: N_6  and  C_12
    5  A    between atoms: C_11  and  C_14
    6  A    between atoms: C_14  and  C_22
    7  A    between atoms: C_19  and  O_37
                            x       y       z     vdW  Elec       q    Type
                         _______ _______ _______ _____ _____    ______ ____

>  <TORSDO>
F 7

$$$$
=
 OpenBabel11052421213D

 43 48  0  0  1  0  0  0  0  0999 V2000
  184.2860  178.7630  145.3370 C   0  0  0  0  0  2  0  0  0  0  0  0
  187.4140  175.7860  143.5280 C   0  0  1  0  0  3  0  0  0  0  0  0
  189.3890  177.3060  144.0370 C   0  0  0  0  0  2  0  0  0  0  0  0
  186.5980  178.5180  144.3430 C   0  0  2  0  0  3  0  0  0  0  0  0
  185.6350  177.6730  147.2450 C   0  0  0  0  0  2  0  0  0  0  0  0
  184.3100  178.2860  146.7910 C   0  0  0  0  0  2  0  0  0  0  0  0
  187.2500  177.5380  145.3470 C   0  0  1  0  0  3  0  0  0  0  0  0
  185.5660  179.4860  144.9300 C   0  0  0  0  0  2  0  0  0  0  0  0
  186.2440  176.7590  146.1940 C   0  0  0  0  0  2  0  0  0  0  0  0
  190.2950  176.3480  143.2700 C   0  0  1  0  0  3  0  0  0  0  0  0
  188.1810  176.5630  144.6180 C   0  0  1  0  0  3  0  0  0  0  0  0
  186.5610  176.6800  142.6520 C   0  0  0  0  0  3  0  0  0  0  0  0
  188.3560  174.8680  142.7330 C   0  0  2  0  0  3  0  0  0  0  0  0
  189.5260  175.6550  142.1440 C   0  0  0  0  0  2  0  0  0  0  0  0
  186.1470  177.8920  143.0460 C   0  0  0  0  0  3  0  0  0  0  0  0
  191.5000  177.0770  142.7590 C   0  0  0  0  0  0  0  0  0  0  0  0
  192.7710  176.4250  142.6960 N   0  0  0  0  0  2  0  0  0  0  0  0
  191.4150  178.2920  142.4370 O   0  0  0  0  0  0  0  0  0  0  0  0
  192.5500  174.1290  141.9170 C   0  0  0  0  0  2  0  0  0  0  0  0
  193.3230  172.8950  141.9540 N   0  0  0  0  0  2  0  0  0  0  0  0
  193.1410  171.8400  144.1440 C   0  0  0  0  0  2  0  0  0  0  0  0
  192.9560  175.0320  143.0740 C   0  0  2  0  0  3  0  0  0  0  0  0
  192.5880  171.9010  142.7240 C   0  0  2  0  0  3  0  0  0  0  0  0
  192.1700  174.7460  144.1950 O   0  0  0  0  0  0  0  0  0  0  0  0
  192.9460  173.8960  144.9920 C   0  0  2  0  0  3  0  0  0  0  0  0
  192.3690  172.6220  145.0110 O   0  0  0  0  0  0  0  0  0  0  0  0
  192.7680  170.5460  142.0710 C   0  0  0  0  0  1  0  0  0  0  0  0
  193.0620  174.4530  146.4120 C   0  0  0  0  0  2  0  0  0  0  0  0
  191.8340  175.1920  146.8360 C   0  0  0  0  0  0  0  0  0  0  0  0
  190.7860  177.2190  147.6520 C   0  0  0  0  0  3  0  0  0  0  0  0
  189.4520  175.2280  147.2870 C   0  0  0  0  0  3  0  0  0  0  0  0
  189.5490  176.5670  147.6800 C   0  0  0  0  0  3  0  0  0  0  0  0
  190.5930  174.5430  146.8630 C   0  0  0  0  0  3  0  0  0  0  0  0
  191.9280  176.5310  147.2350 C   0  0  0  0  0  3  0  0  0  0  0  0
  187.6090  174.0910  141.6540 C   0  0  0  0  0  2  0  0  0  0  0  0
  190.2760  171.9970  139.9700 C   0  0  0  0  0  3  0  0  0  0  0  0
  190.3540  172.5970  138.7090 C   0  0  0  0  0  0  0  0  0  0  0  0
  188.6200  174.1640  139.3630 C   0  0  0  0  0  3  0  0  0  0  0  0
  189.3760  172.4760  140.9260 C   0  0  0  0  0  3  0  0  0  0  0  0
  188.5480  173.5620  140.6250 C   0  0  0  0  0  0  0  0  0  0  0  0
  189.5170  173.6830  138.4080 C   0  0  0  0  0  3  0  0  0  0  0  0
  192.3730  171.2860  138.1370 C   0  0  0  0  0  1  0  0  0  0  0  0
  191.2590  172.0890  137.7720 O   0  0  0  0  0  0  0  0  0  0  0  0
  1  6  1  0  0  0  0
  2 12  1  6  0  0  0
  2 11  1  0  0  0  0
  4 15  1  6  0  0  0
  4  8  1  0  0  0  0
  4  7  1  0  0  0  0
  6  5  1  0  0  0  0
  7  9  1  6  0  0  0
  8  1  1  0  0  0  0
  9  5  1  0  0  0  0
 10 16  1  6  0  0  0
 10  3  1  0  0  0  0
 11  3  1  6  0  0  0
 11  7  1  0  0  0  0
 12 15  2  0  0  0  0
 13 35  1  6  0  0  0
 13  2  1  0  0  0  0
 14 13  1  0  0  0  0
 14 10  1  0  0  0  0
 17 16  1  0  0  0  0
 18 16  2  0  0  0  0
 19 20  1  0  0  0  0
 19 22  1  0  0  0  0
 20 23  1  0  0  0  0
 21 26  1  0  0  0  0
 22 17  1  6  0  0  0
 22 24  1  0  0  0  0
 23 27  1  6  0  0  0
 23 21  1  0  0  0  0
 24 25  1  0  0  0  0
 25 26  1  0  0  0  0
 25 28  1  1  0  0  0
 28 29  1  0  0  0  0
 29 33  2  0  0  0  0
 29 34  1  0  0  0  0
 30 32  1  0  0  0  0
 31 32  2  0  0  0  0
 33 31  1  0  0  0  0
 34 30  2  0  0  0  0
 36 39  1  0  0  0  0
 37 36  2  0  0  0  0
 38 40  1  0  0  0  0
 40 39  2  0  0  0  0
 40 35  1  0  0  0  0
 41 37  1  0  0  0  0
 41 38  2  0  0  0  0
 43 42  1  0  0  0  0
 43 37  1  0  0  0  0
M  END
>  <MODEL>
9

>  <REMARK>
 VINA RESULT:      -6.9      2.327      5.764
  Name = 
  7 active torsions:
  status: ('A' for Active; 'I' for Inactive)
    1  A    between atoms: C_1  and  C_34
    2  A    between atoms: C_1  and  C_35
    3  A    between atoms: C_2  and  C_27
    4  A    between atoms: N_6  and  C_12
    5  A    between atoms: C_11  and  C_14
    6  A    between atoms: C_14  and  C_22
    7  A    between atoms: C_19  and  O_37
                            x       y       z     vdW  Elec       q    Type
                         _______ _______ _______ _____ _____    ______ ____

>  <TORSDO>
F 7

$$$$
