=
 OpenBabel11052417323D

 25 27  0  0  1  0  0  0  0  0999 V2000
  187.5210  175.9310  143.5650 C   0  0  2  0  0  3  0  0  0  0  0  0
  188.5800  174.6170  141.6950 C   0  0  0  0  0  0  0  0  0  0  0  0
  188.4850  173.5180  140.6990 C   0  0  0  0  0  1  0  0  0  0  0  0
  188.8120  176.7030  143.5620 C   0  0  0  0  0  3  0  0  0  0  0  0
  189.7090  175.2330  141.8730 N   0  0  0  0  0  0  0  0  0  0  0  0
  189.8350  176.3350  142.7840 C   0  0  0  0  0  0  0  0  0  0  0  0
  187.4180  175.0250  142.4210 N   0  0  0  0  0  2  0  0  0  0  0  0
  186.3740  176.8350  143.6120 N   0  0  0  0  0  0  0  0  0  0  0  0
  185.8340  177.3310  144.8270 C   0  0  0  0  0  0  0  0  0  0  0  0
  184.6210  178.4200  147.0490 C   0  0  0  0  0  3  0  0  0  0  0  0
  184.7170  178.1120  144.6740 C   0  0  0  0  0  0  0  0  0  0  0  0
  184.0830  178.6760  145.7800 C   0  0  0  0  0  3  0  0  0  0  0  0
  185.7320  177.6380  147.1820 N   0  0  0  0  0  0  0  0  0  0  0  0
  185.6540  177.3110  142.4270 C   0  0  1  0  0  3  0  0  0  0  0  0
  184.1970  178.3020  142.9830 S   0  0  0  0  0  0  0  0  0  0  0  0
  186.3520  177.0880  146.1000 C   0  0  0  0  0  3  0  0  0  0  0  0
  186.5620  178.1760  141.5660 C   0  0  0  0  0  2  0  0  0  0  0  0
  186.6540  177.6070  140.1650 C   0  0  0  0  0  1  0  0  0  0  0  0
  191.1150  177.0880  142.8540 C   0  0  0  0  0  2  0  0  0  0  0  0
  191.3580  177.5710  144.2790 C   0  0  0  0  0  2  0  0  0  0  0  0
  192.1760  176.5720  145.0950 C   0  0  2  0  0  3  0  0  0  0  0  0
  191.6210  176.4490  146.4350 N   0  0  0  0  0  1  0  0  0  0  0  0
  193.6570  176.9510  145.1550 C   0  0  2  0  0  3  0  0  0  0  0  0
  194.3830  176.2000  144.2300 O   0  0  0  0  0  1  0  0  0  0  0  0
  194.2170  176.6930  146.5430 C   0  0  0  0  0  1  0  0  0  0  0  0
  1  4  1  6  0  0  0
  1  8  1  0  0  0  0
  2  5  2  0  0  0  0
  2  7  1  0  0  0  0
  3  2  1  0  0  0  0
  5  6  1  0  0  0  0
  6 19  1  0  0  0  0
  6  4  2  0  0  0  0
  7  1  1  0  0  0  0
  8  9  1  0  0  0  0
  9 16  1  0  0  0  0
 10 13  1  0  0  0  0
 11  9  2  0  0  0  0
 11 12  1  0  0  0  0
 12 10  2  0  0  0  0
 14 17  1  6  0  0  0
 14 15  1  0  0  0  0
 14  8  1  0  0  0  0
 15 11  1  0  0  0  0
 16 13  2  0  0  0  0
 18 17  1  0  0  0  0
 19 20  1  0  0  0  0
 20 21  1  0  0  0  0
 21 23  1  0  0  0  0
 21 22  1  1  0  0  0
 23 25  1  1  0  0  0
 24 23  1  0  0  0  0
M  END
>  <MODEL>
1

>  <REMARK>
 VINA RESULT:      -6.7      0.000      0.000
  Name = 
  6 active torsions:
  status: ('A' for Active; 'I' for Inactive)
    1  A    between atoms: N_1  and  C_3
    2  A    between atoms: C_2  and  C_21
    3  A    between atoms: C_4  and  C_18
    4  A    between atoms: C_6  and  C_15
    5  A    between atoms: C_6  and  C_23
    6  A    between atoms: C_15  and  C_21
                            x       y       z     vdW  Elec       q    Type
                         _______ _______ _______ _____ _____    ______ ____

>  <TORSDO>
F 6

$$$$
=
 OpenBabel11052417323D

 25 27  0  0  1  0  0  0  0  0999 V2000
  188.0220  176.0480  144.1550 C   0  0  2  0  0  3  0  0  0  0  0  0
  189.4630  174.9870  142.3820 C   0  0  0  0  0  0  0  0  0  0  0  0
  189.6150  173.9820  141.2980 C   0  0  0  0  0  1  0  0  0  0  0  0
  189.2310  176.9000  144.4260 C   0  0  0  0  0  3  0  0  0  0  0  0
  190.4970  175.6560  142.7930 N   0  0  0  0  0  0  0  0  0  0  0  0
  190.3900  176.6740  143.8000 C   0  0  0  0  0  0  0  0  0  0  0  0
  188.1730  175.2480  142.9390 N   0  0  0  0  0  2  0  0  0  0  0  0
  186.8130  176.8670  144.0870 N   0  0  0  0  0  0  0  0  0  0  0  0
  186.1470  177.3540  145.2410 C   0  0  0  0  0  0  0  0  0  0  0  0
  184.6910  178.4080  147.3300 C   0  0  0  0  0  3  0  0  0  0  0  0
  184.9930  178.0460  144.9800 C   0  0  0  0  0  0  0  0  0  0  0  0
  184.2360  178.5910  146.0170 C   0  0  0  0  0  3  0  0  0  0  0  0
  185.8410  177.7140  147.5710 N   0  0  0  0  0  0  0  0  0  0  0  0
  186.1550  177.2580  142.8360 C   0  0  1  0  0  3  0  0  0  0  0  0
  184.5920  178.1530  143.2490 S   0  0  0  0  0  0  0  0  0  0  0  0
  186.5810  177.1830  146.5560 C   0  0  0  0  0  3  0  0  0  0  0  0
  187.0630  178.1640  142.0190 C   0  0  0  0  0  2  0  0  0  0  0  0
  187.1630  177.6590  140.5940 C   0  0  0  0  0  1  0  0  0  0  0  0
  191.5780  177.5000  144.1400 C   0  0  0  0  0  2  0  0  0  0  0  0
  192.7060  176.6080  144.6440 C   0  0  0  0  0  2  0  0  0  0  0  0
  192.7620  176.5560  146.1700 C   0  0  2  0  0  3  0  0  0  0  0  0
  194.1070  176.8660  146.6310 N   0  0  0  0  0  1  0  0  0  0  0  0
  192.2990  175.2050  146.7200 C   0  0  2  0  0  3  0  0  0  0  0  0
  192.0740  174.3120  145.6720 O   0  0  0  0  0  1  0  0  0  0  0  0
  191.0130  175.3660  147.5110 C   0  0  0  0  0  1  0  0  0  0  0  0
  1  8  1  6  0  0  0
  1  4  1  0  0  0  0
  2  5  2  0  0  0  0
  2  7  1  0  0  0  0
  3  2  1  0  0  0  0
  5  6  1  0  0  0  0
  6 19  1  0  0  0  0
  6  4  2  0  0  0  0
  7  1  1  0  0  0  0
  8  9  1  0  0  0  0
  9 16  1  0  0  0  0
 10 13  1  0  0  0  0
 11  9  2  0  0  0  0
 11 12  1  0  0  0  0
 12 10  2  0  0  0  0
 14 17  1  1  0  0  0
 14 15  1  0  0  0  0
 14  8  1  0  0  0  0
 15 11  1  0  0  0  0
 16 13  2  0  0  0  0
 18 17  1  0  0  0  0
 19 20  1  0  0  0  0
 20 21  1  0  0  0  0
 21 22  1  6  0  0  0
 21 23  1  0  0  0  0
 23 25  1  6  0  0  0
 24 23  1  0  0  0  0
M  END
>  <MODEL>
2

>  <REMARK>
 VINA RESULT:      -6.7      1.330      1.496
  Name = 
  6 active torsions:
  status: ('A' for Active; 'I' for Inactive)
    1  A    between atoms: N_1  and  C_3
    2  A    between atoms: C_2  and  C_21
    3  A    between atoms: C_4  and  C_18
    4  A    between atoms: C_6  and  C_15
    5  A    between atoms: C_6  and  C_23
    6  A    between atoms: C_15  and  C_21
                            x       y       z     vdW  Elec       q    Type
                         _______ _______ _______ _____ _____    ______ ____

>  <TORSDO>
F 6

$$$$
=
 OpenBabel11052417323D

 25 27  0  0  1  0  0  0  0  0999 V2000
  190.2590  175.7070  143.1810 C   0  0  2  0  0  3  0  0  0  0  0  0
  188.4240  174.2900  142.1970 C   0  0  0  0  0  0  0  0  0  0  0  0
  187.8520  172.9420  141.9470 C   0  0  0  0  0  1  0  0  0  0  0  0
  189.4630  176.8620  142.6400 C   0  0  0  0  0  3  0  0  0  0  0  0
  187.8920  175.3330  141.6350 N   0  0  0  0  0  0  0  0  0  0  0  0
  188.3770  176.6600  141.8890 C   0  0  0  0  0  0  0  0  0  0  0  0
  189.5270  174.4430  143.0930 N   0  0  0  0  0  2  0  0  0  0  0  0
  190.6810  175.9640  144.5580 N   0  0  0  0  0  0  0  0  0  0  0  0
  192.0330  176.1950  144.9180 C   0  0  0  0  0  0  0  0  0  0  0  0
  194.5820  176.6720  145.8520 C   0  0  0  0  0  3  0  0  0  0  0  0
  192.2430  176.3490  146.2640 C   0  0  0  0  0  0  0  0  0  0  0  0
  193.5210  176.5920  146.7650 C   0  0  0  0  0  3  0  0  0  0  0  0
  194.3540  176.5130  144.5160 N   0  0  0  0  0  0  0  0  0  0  0  0
  189.7670  175.9950  145.7040 C   0  0  1  0  0  3  0  0  0  0  0  0
  190.7650  176.2030  147.2450 S   0  0  0  0  0  0  0  0  0  0  0  0
  193.1040  176.2770  144.0270 C   0  0  0  0  0  3  0  0  0  0  0  0
  188.7870  177.1500  145.5690 C   0  0  0  0  0  2  0  0  0  0  0  0
  187.3660  176.6560  145.7530 C   0  0  0  0  0  1  0  0  0  0  0  0
  187.6510  177.8280  141.3230 C   0  0  0  0  0  2  0  0  0  0  0  0
  186.8480  178.5230  142.4170 C   0  0  0  0  0  2  0  0  0  0  0  0
  185.4710  177.8920  142.6110 C   0  0  2  0  0  3  0  0  0  0  0  0
  184.6760  178.0450  141.4020 N   0  0  0  0  0  1  0  0  0  0  0  0
  184.7350  178.4730  143.8210 C   0  0  2  0  0  3  0  0  0  0  0  0
  183.4430  178.8580  143.4570 O   0  0  0  0  0  1  0  0  0  0  0  0
  185.4740  179.6840  144.3610 C   0  0  0  0  0  1  0  0  0  0  0  0
  1  4  1  1  0  0  0
  1  8  1  0  0  0  0
  2  7  1  0  0  0  0
  3  2  1  0  0  0  0
  5  6  1  0  0  0  0
  5  2  2  0  0  0  0
  6  4  2  0  0  0  0
  7  1  1  0  0  0  0
  8  9  1  0  0  0  0
  8 14  1  0  0  0  0
  9 11  1  0  0  0  0
 10 12  1  0  0  0  0
 11 12  2  0  0  0  0
 11 15  1  0  0  0  0
 13 10  2  0  0  0  0
 14 17  1  6  0  0  0
 14 15  1  0  0  0  0
 16 13  1  0  0  0  0
 16  9  2  0  0  0  0
 17 18  1  0  0  0  0
 19  6  1  0  0  0  0
 19 20  1  0  0  0  0
 20 21  1  0  0  0  0
 21 22  1  6  0  0  0
 21 23  1  0  0  0  0
 23 25  1  6  0  0  0
 24 23  1  0  0  0  0
M  END
>  <MODEL>
3

>  <REMARK>
 VINA RESULT:      -6.6      3.364      6.622
  Name = 
  6 active torsions:
  status: ('A' for Active; 'I' for Inactive)
    1  A    between atoms: N_1  and  C_3
    2  A    between atoms: C_2  and  C_21
    3  A    between atoms: C_4  and  C_18
    4  A    between atoms: C_6  and  C_15
    5  A    between atoms: C_6  and  C_23
    6  A    between atoms: C_15  and  C_21
                            x       y       z     vdW  Elec       q    Type
                         _______ _______ _______ _____ _____    ______ ____

>  <TORSDO>
F 6

$$$$
=
 OpenBabel11052417323D

 25 27  0  0  1  0  0  0  0  0999 V2000
  190.7750  176.8690  144.2400 C   0  0  2  0  0  3  0  0  0  0  0  0
  188.7910  177.6390  142.8920 C   0  0  0  0  0  0  0  0  0  0  0  0
  188.2220  178.0410  141.5800 C   0  0  0  0  0  1  0  0  0  0  0  0
  189.8170  176.8910  145.3980 C   0  0  0  0  0  3  0  0  0  0  0  0
  188.0850  177.7780  143.9730 N   0  0  0  0  0  0  0  0  0  0  0  0
  188.5710  177.3550  145.2550 C   0  0  0  0  0  0  0  0  0  0  0  0
  190.0950  177.0570  142.9580 N   0  0  0  0  0  2  0  0  0  0  0  0
  191.5550  175.6320  144.2330 N   0  0  0  0  0  0  0  0  0  0  0  0
  192.8150  175.5140  144.8730 C   0  0  0  0  0  0  0  0  0  0  0  0
  195.2680  175.0480  146.0410 C   0  0  0  0  0  3  0  0  0  0  0  0
  193.4270  174.2990  144.7020 C   0  0  0  0  0  0  0  0  0  0  0  0
  194.6670  174.0350  145.2810 C   0  0  0  0  0  3  0  0  0  0  0  0
  194.6450  176.2520  146.2000 N   0  0  0  0  0  0  0  0  0  0  0  0
  191.1340  174.3990  143.5610 C   0  0  1  0  0  3  0  0  0  0  0  0
  192.4990  173.1610  143.6960 S   0  0  0  0  0  0  0  0  0  0  0  0
  193.4320  176.5090  145.6340 C   0  0  0  0  0  3  0  0  0  0  0  0
  189.8750  173.8450  144.2090 C   0  0  0  0  0  2  0  0  0  0  0  0
  190.1190  172.4360  144.7110 C   0  0  0  0  0  1  0  0  0  0  0  0
  187.6730  177.4160  146.4390 C   0  0  0  0  0  2  0  0  0  0  0  0
  186.2230  177.2440  146.0020 C   0  0  0  0  0  2  0  0  0  0  0  0
  185.4180  178.5330  146.1550 C   0  0  2  0  0  3  0  0  0  0  0  0
  184.4830  178.4110  147.2630 N   0  0  0  0  0  1  0  0  0  0  0  0
  184.6830  178.9110  144.8660 C   0  0  2  0  0  3  0  0  0  0  0  0
  184.6340  177.8150  144.0020 O   0  0  0  0  0  1  0  0  0  0  0  0
  185.3930  180.0560  144.1650 C   0  0  0  0  0  1  0  0  0  0  0  0
  1  8  1  6  0  0  0
  1  4  1  0  0  0  0
  2  7  1  0  0  0  0
  2  5  2  0  0  0  0
  3  2  1  0  0  0  0
  5  6  1  0  0  0  0
  6  4  2  0  0  0  0
  6 19  1  0  0  0  0
  7  1  1  0  0  0  0
  8  9  1  0  0  0  0
  9 16  1  0  0  0  0
 10 13  1  0  0  0  0
 11  9  2  0  0  0  0
 11 12  1  0  0  0  0
 12 10  2  0  0  0  0
 14 15  1  0  0  0  0
 14 17  1  1  0  0  0
 14  8  1  0  0  0  0
 15 11  1  0  0  0  0
 16 13  2  0  0  0  0
 17 18  1  0  0  0  0
 20 21  1  0  0  0  0
 20 19  1  0  0  0  0
 21 22  1  1  0  0  0
 23 25  1  6  0  0  0
 23 21  1  0  0  0  0
 24 23  1  0  0  0  0
M  END
>  <MODEL>
4

>  <REMARK>
 VINA RESULT:      -6.5      3.420      7.252
  Name = 
  6 active torsions:
  status: ('A' for Active; 'I' for Inactive)
    1  A    between atoms: N_1  and  C_3
    2  A    between atoms: C_2  and  C_21
    3  A    between atoms: C_4  and  C_18
    4  A    between atoms: C_6  and  C_15
    5  A    between atoms: C_6  and  C_23
    6  A    between atoms: C_15  and  C_21
                            x       y       z     vdW  Elec       q    Type
                         _______ _______ _______ _____ _____    ______ ____

>  <TORSDO>
F 6

$$$$
=
 OpenBabel11052417323D

 25 27  0  0  1  0  0  0  0  0999 V2000
  189.3000  176.7730  144.6070 C   0  0  2  0  0  3  0  0  0  0  0  0
  190.5830  176.2120  146.7010 C   0  0  0  0  0  0  0  0  0  0  0  0
  191.3090  176.6750  147.9120 C   0  0  0  0  0  1  0  0  0  0  0  0
  189.2230  175.2830  144.4260 C   0  0  0  0  0  3  0  0  0  0  0  0
  190.6000  174.9540  146.3790 N   0  0  0  0  0  0  0  0  0  0  0  0
  189.8690  174.4520  145.2490 C   0  0  0  0  0  0  0  0  0  0  0  0
  189.8280  177.1420  145.9210 N   0  0  0  0  0  2  0  0  0  0  0  0
  187.9950  177.3940  144.3830 N   0  0  0  0  0  0  0  0  0  0  0  0
  187.4270  177.5450  143.0920 C   0  0  0  0  0  0  0  0  0  0  0  0
  186.1270  177.9450  140.6950 C   0  0  0  0  0  3  0  0  0  0  0  0
  186.2290  178.2110  143.0740 C   0  0  0  0  0  0  0  0  0  0  0  0
  185.5480  178.4270  141.8770 C   0  0  0  0  0  3  0  0  0  0  0  0
  187.3220  177.2860  140.7310 N   0  0  0  0  0  0  0  0  0  0  0  0
  187.1480  177.9330  145.4500 C   0  0  1  0  0  3  0  0  0  0  0  0
  185.6780  178.7450  144.6800 S   0  0  0  0  0  0  0  0  0  0  0  0
  187.9860  177.0750  141.9030 C   0  0  0  0  0  3  0  0  0  0  0  0
  186.6900  176.8200  146.3790 C   0  0  0  0  0  2  0  0  0  0  0  0
  185.1760  176.7770  146.4410 C   0  0  0  0  0  1  0  0  0  0  0  0
  189.8170  172.9870  145.0010 C   0  0  0  0  0  2  0  0  0  0  0  0
  190.5720  172.6490  143.7220 C   0  0  0  0  0  2  0  0  0  0  0  0
  189.7330  171.8100  142.7600 C   0  0  2  0  0  3  0  0  0  0  0  0
  190.4970  170.6600  142.3010 N   0  0  0  0  0  1  0  0  0  0  0  0
  189.2230  172.6300  141.5720 C   0  0  2  0  0  3  0  0  0  0  0  0
  190.0170  173.7640  141.3960 O   0  0  0  0  0  1  0  0  0  0  0  0
  187.7880  173.0670  141.8030 C   0  0  0  0  0  1  0  0  0  0  0  0
  1  8  1  1  0  0  0
  1  7  1  0  0  0  0
  2  3  1  0  0  0  0
  4  1  1  0  0  0  0
  4  6  2  0  0  0  0
  5  2  2  0  0  0  0
  6  5  1  0  0  0  0
  7  2  1  0  0  0  0
  8 14  1  0  0  0  0
  9  8  1  0  0  0  0
 10 13  2  0  0  0  0
 10 12  1  0  0  0  0
 11  9  1  0  0  0  0
 11 15  1  0  0  0  0
 12 11  2  0  0  0  0
 13 16  1  0  0  0  0
 14 17  1  1  0  0  0
 15 14  1  0  0  0  0
 16  9  2  0  0  0  0
 17 18  1  0  0  0  0
 19  6  1  0  0  0  0
 20 19  1  0  0  0  0
 21 22  1  6  0  0  0
 21 20  1  0  0  0  0
 23 25  1  1  0  0  0
 23 21  1  0  0  0  0
 24 23  1  0  0  0  0
M  END
>  <MODEL>
5

>  <REMARK>
 VINA RESULT:      -6.4      2.522      5.221
  Name = 
  6 active torsions:
  status: ('A' for Active; 'I' for Inactive)
    1  A    between atoms: N_1  and  C_3
    2  A    between atoms: C_2  and  C_21
    3  A    between atoms: C_4  and  C_18
    4  A    between atoms: C_6  and  C_15
    5  A    between atoms: C_6  and  C_23
    6  A    between atoms: C_15  and  C_21
                            x       y       z     vdW  Elec       q    Type
                         _______ _______ _______ _____ _____    ______ ____

>  <TORSDO>
F 6

$$$$
=
 OpenBabel11052417323D

 25 27  0  0  1  0  0  0  0  0999 V2000
  189.1760  177.2250  144.1350 C   0  0  2  0  0  3  0  0  0  0  0  0
  191.6030  176.6040  144.3980 C   0  0  0  0  0  0  0  0  0  0  0  0
  192.9740  176.9820  144.8280 C   0  0  0  0  0  1  0  0  0  0  0  0
  189.0310  175.8410  143.5660 C   0  0  0  0  0  3  0  0  0  0  0  0
  191.4100  175.4940  143.7530 N   0  0  0  0  0  0  0  0  0  0  0  0
  190.0980  175.0620  143.3640 C   0  0  0  0  0  0  0  0  0  0  0  0
  190.4930  177.4390  144.7360 N   0  0  0  0  0  2  0  0  0  0  0  0
  188.1160  177.5040  145.1020 N   0  0  0  0  0  0  0  0  0  0  0  0
  186.9020  178.1470  144.7500 C   0  0  0  0  0  0  0  0  0  0  0  0
  184.4740  179.3720  144.3010 C   0  0  0  0  0  3  0  0  0  0  0  0
  186.0580  178.3840  145.8040 C   0  0  0  0  0  0  0  0  0  0  0  0
  184.8240  179.0010  145.6070 C   0  0  0  0  0  3  0  0  0  0  0  0
  185.3280  179.1300  143.2640 N   0  0  0  0  0  0  0  0  0  0  0  0
  188.1960  177.1690  146.5270 C   0  0  1  0  0  3  0  0  0  0  0  0
  186.6990  177.8440  147.3740 S   0  0  0  0  0  0  0  0  0  0  0  0
  186.5340  178.5260  143.4570 C   0  0  0  0  0  3  0  0  0  0  0  0
  188.2550  175.6610  146.7150 C   0  0  0  0  0  2  0  0  0  0  0  0
  189.5960  175.2560  147.2930 C   0  0  0  0  0  1  0  0  0  0  0  0
  189.9190  173.7220  142.7440 C   0  0  0  0  0  2  0  0  0  0  0  0
  189.7470  173.8650  141.2370 C   0  0  0  0  0  2  0  0  0  0  0  0
  188.3280  173.5250  140.7830 C   0  0  2  0  0  3  0  0  0  0  0  0
  187.6330  172.7870  141.8270 N   0  0  0  0  0  1  0  0  0  0  0  0
  188.3150  172.7420  139.4670 C   0  0  2  0  0  3  0  0  0  0  0  0
  189.4170  171.8880  139.4050 O   0  0  0  0  0  1  0  0  0  0  0  0
  188.3650  173.6910  138.2830 C   0  0  0  0  0  1  0  0  0  0  0  0
  1  4  1  1  0  0  0
  1  7  1  0  0  0  0
  1  8  1  0  0  0  0
  2  7  1  0  0  0  0
  2  3  1  0  0  0  0
  5  2  2  0  0  0  0
  6  4  2  0  0  0  0
  6  5  1  0  0  0  0
  8 14  1  0  0  0  0
  9  8  1  0  0  0  0
  9 11  1  0  0  0  0
 10 12  1  0  0  0  0
 11 15  1  0  0  0  0
 12 11  2  0  0  0  0
 13 16  1  0  0  0  0
 13 10  2  0  0  0  0
 14 17  1  6  0  0  0
 14 15  1  0  0  0  0
 16  9  2  0  0  0  0
 17 18  1  0  0  0  0
 19  6  1  0  0  0  0
 20 19  1  0  0  0  0
 21 20  1  0  0  0  0
 21 22  1  1  0  0  0
 23 25  1  6  0  0  0
 23 21  1  0  0  0  0
 24 23  1  0  0  0  0
M  END
>  <MODEL>
6

>  <REMARK>
 VINA RESULT:      -6.4      2.627      5.249
  Name = 
  6 active torsions:
  status: ('A' for Active; 'I' for Inactive)
    1  A    between atoms: N_1  and  C_3
    2  A    between atoms: C_2  and  C_21
    3  A    between atoms: C_4  and  C_18
    4  A    between atoms: C_6  and  C_15
    5  A    between atoms: C_6  and  C_23
    6  A    between atoms: C_15  and  C_21
                            x       y       z     vdW  Elec       q    Type
                         _______ _______ _______ _____ _____    ______ ____

>  <TORSDO>
F 6

$$$$
=
 OpenBabel11052417323D

 25 27  0  0  1  0  0  0  0  0999 V2000
  189.1410  177.4180  144.0510 C   0  0  2  0  0  3  0  0  0  0  0  0
  191.5520  176.7310  144.2930 C   0  0  0  0  0  0  0  0  0  0  0  0
  192.9110  177.0190  144.8210 C   0  0  0  0  0  1  0  0  0  0  0  0
  189.0040  176.1420  143.2680 C   0  0  0  0  0  3  0  0  0  0  0  0
  191.3730  175.7390  143.4760 N   0  0  0  0  0  0  0  0  0  0  0  0
  190.0710  175.3900  142.9820 C   0  0  0  0  0  0  0  0  0  0  0  0
  190.4380  177.5180  144.7210 N   0  0  0  0  0  2  0  0  0  0  0  0
  188.0510  177.5570  145.0150 N   0  0  0  0  0  0  0  0  0  0  0  0
  186.7910  178.1140  144.6770 C   0  0  0  0  0  0  0  0  0  0  0  0
  184.2740  179.1560  144.2550 C   0  0  0  0  0  3  0  0  0  0  0  0
  185.9190  178.2250  145.7290 C   0  0  0  0  0  0  0  0  0  0  0  0
  184.6390  178.7470  145.5450 C   0  0  0  0  0  3  0  0  0  0  0  0
  185.1560  179.0410  143.2200 N   0  0  0  0  0  0  0  0  0  0  0  0
  188.1420  177.1550  146.4220 C   0  0  1  0  0  3  0  0  0  0  0  0
  186.5850  177.6580  147.2790 S   0  0  0  0  0  0  0  0  0  0  0  0
  186.4070  178.5290  143.4010 C   0  0  0  0  0  3  0  0  0  0  0  0
  188.3250  175.6500  146.5330 C   0  0  0  0  0  2  0  0  0  0  0  0
  189.6140  175.3300  147.2630 C   0  0  0  0  0  1  0  0  0  0  0  0
  189.9030  174.1660  142.1540 C   0  0  0  0  0  2  0  0  0  0  0  0
  188.8340  173.2680  142.7640 C   0  0  0  0  0  2  0  0  0  0  0  0
  189.4320  172.0290  143.4290 C   0  0  2  0  0  3  0  0  0  0  0  0
  189.6920  172.2920  144.8360 N   0  0  0  0  0  1  0  0  0  0  0  0
  190.7050  171.5530  142.7230 C   0  0  2  0  0  3  0  0  0  0  0  0
  190.4500  170.3790  142.0130 O   0  0  0  0  0  1  0  0  0  0  0  0
  191.8050  171.2850  143.7350 C   0  0  0  0  0  1  0  0  0  0  0  0
  1  4  1  1  0  0  0
  1  7  1  0  0  0  0
  1  8  1  0  0  0  0
  2  7  1  0  0  0  0
  2  3  1  0  0  0  0
  5  2  2  0  0  0  0
  6  4  2  0  0  0  0
  6  5  1  0  0  0  0
  8 14  1  0  0  0  0
  9  8  1  0  0  0  0
  9 11  1  0  0  0  0
 10 12  1  0  0  0  0
 11 15  1  0  0  0  0
 12 11  2  0  0  0  0
 13 16  1  0  0  0  0
 13 10  2  0  0  0  0
 14 17  1  6  0  0  0
 14 15  1  0  0  0  0
 16  9  2  0  0  0  0
 17 18  1  0  0  0  0
 19 20  1  0  0  0  0
 19  6  1  0  0  0  0
 20 21  1  0  0  0  0
 21 22  1  1  0  0  0
 23 21  1  0  0  0  0
 23 25  1  1  0  0  0
 24 23  1  0  0  0  0
M  END
>  <MODEL>
7

>  <REMARK>
 VINA RESULT:      -6.4      2.876      4.585
  Name = 
  6 active torsions:
  status: ('A' for Active; 'I' for Inactive)
    1  A    between atoms: N_1  and  C_3
    2  A    between atoms: C_2  and  C_21
    3  A    between atoms: C_4  and  C_18
    4  A    between atoms: C_6  and  C_15
    5  A    between atoms: C_6  and  C_23
    6  A    between atoms: C_15  and  C_21
                            x       y       z     vdW  Elec       q    Type
                         _______ _______ _______ _____ _____    ______ ____

>  <TORSDO>
F 6

$$$$
=
 OpenBabel11052417323D

 25 27  0  0  1  0  0  0  0  0999 V2000
  188.4930  177.4710  145.4250 C   0  0  2  0  0  3  0  0  0  0  0  0
  189.5860  175.2020  145.4430 C   0  0  0  0  0  0  0  0  0  0  0  0
  189.5250  173.7630  145.8080 C   0  0  0  0  0  1  0  0  0  0  0  0
  189.7530  177.9150  144.7360 C   0  0  0  0  0  3  0  0  0  0  0  0
  190.6920  175.7080  144.9890 N   0  0  0  0  0  0  0  0  0  0  0  0
  190.7830  177.0790  144.5740 C   0  0  0  0  0  0  0  0  0  0  0  0
  188.4150  176.0160  145.5480 N   0  0  0  0  0  2  0  0  0  0  0  0
  187.3120  177.9950  144.7400 N   0  0  0  0  0  0  0  0  0  0  0  0
  187.0690  177.7880  143.3580 C   0  0  0  0  0  0  0  0  0  0  0  0
  186.3860  177.5140  140.7020 C   0  0  0  0  0  3  0  0  0  0  0  0
  185.9460  178.4120  142.8800 C   0  0  0  0  0  0  0  0  0  0  0  0
  185.5760  178.2910  141.5410 C   0  0  0  0  0  3  0  0  0  0  0  0
  187.5020  176.9010  141.1950 N   0  0  0  0  0  0  0  0  0  0  0  0
  186.2710  178.7940  145.3930 C   0  0  1  0  0  3  0  0  0  0  0  0
  185.0680  179.3550  144.1080 S   0  0  0  0  0  0  0  0  0  0  0  0
  187.8620  177.0200  142.5040 C   0  0  0  0  0  3  0  0  0  0  0  0
  185.5490  177.9680  146.4450 C   0  0  0  0  0  2  0  0  0  0  0  0
  184.0680  178.2900  146.4420 C   0  0  0  0  0  1  0  0  0  0  0  0
  192.0340  177.5730  143.9410 C   0  0  0  0  0  2  0  0  0  0  0  0
  192.9170  176.3970  143.5420 C   0  0  0  0  0  2  0  0  0  0  0  0
  194.2850  176.4450  144.2200 C   0  0  2  0  0  3  0  0  0  0  0  0
  195.1860  175.4880  143.5970 N   0  0  0  0  0  1  0  0  0  0  0  0
  194.1910  176.1990  145.7280 C   0  0  2  0  0  3  0  0  0  0  0  0
  194.5660  177.3480  146.4260 O   0  0  0  0  0  1  0  0  0  0  0  0
  195.1040  175.0570  146.1380 C   0  0  0  0  0  1  0  0  0  0  0  0
  1  4  1  6  0  0  0
  1  7  1  0  0  0  0
  2  7  1  0  0  0  0
  2  3  1  0  0  0  0
  5  2  2  0  0  0  0
  6  4  2  0  0  0  0
  6  5  1  0  0  0  0
  8 14  1  0  0  0  0
  8  1  1  0  0  0  0
  9  8  1  0  0  0  0
 10 13  2  0  0  0  0
 10 12  1  0  0  0  0
 11  9  1  0  0  0  0
 11 15  1  0  0  0  0
 12 11  2  0  0  0  0
 13 16  1  0  0  0  0
 14 17  1  1  0  0  0
 15 14  1  0  0  0  0
 16  9  2  0  0  0  0
 18 17  1  0  0  0  0
 19  6  1  0  0  0  0
 20 19  1  0  0  0  0
 20 21  1  0  0  0  0
 21 22  1  6  0  0  0
 21 23  1  0  0  0  0
 23 25  1  1  0  0  0
 23 24  1  0  0  0  0
M  END
>  <MODEL>
8

>  <REMARK>
 VINA RESULT:      -6.2      2.018      3.701
  Name = 
  6 active torsions:
  status: ('A' for Active; 'I' for Inactive)
    1  A    between atoms: N_1  and  C_3
    2  A    between atoms: C_2  and  C_21
    3  A    between atoms: C_4  and  C_18
    4  A    between atoms: C_6  and  C_15
    5  A    between atoms: C_6  and  C_23
    6  A    between atoms: C_15  and  C_21
                            x       y       z     vdW  Elec       q    Type
                         _______ _______ _______ _____ _____    ______ ____

>  <TORSDO>
F 6

$$$$
=
 OpenBabel11052417323D

 25 27  0  0  1  0  0  0  0  0999 V2000
  189.3060  175.3850  145.7600 C   0  0  2  0  0  3  0  0  0  0  0  0
  190.7970  173.5980  144.7960 C   0  0  0  0  0  0  0  0  0  0  0  0
  190.9380  172.3480  144.0060 C   0  0  0  0  0  1  0  0  0  0  0  0
  190.5850  175.9590  146.3030 C   0  0  0  0  0  3  0  0  0  0  0  0
  191.8200  174.0780  145.4350 N   0  0  0  0  0  0  0  0  0  0  0  0
  191.7460  175.3100  146.1680 C   0  0  0  0  0  0  0  0  0  0  0  0
  189.5490  174.2940  144.8160 N   0  0  0  0  0  2  0  0  0  0  0  0
  188.4880  176.4280  145.1440 N   0  0  0  0  0  0  0  0  0  0  0  0
  187.3750  177.0190  145.7960 C   0  0  0  0  0  0  0  0  0  0  0  0
  185.1840  178.3080  146.8620 C   0  0  0  0  0  3  0  0  0  0  0  0
  186.6900  177.9300  145.0350 C   0  0  0  0  0  0  0  0  0  0  0  0
  185.5780  178.5980  145.5480 C   0  0  0  0  0  3  0  0  0  0  0  0
  185.8780  177.3960  147.6040 N   0  0  0  0  0  0  0  0  0  0  0  0
  188.7130  176.9610  143.7970 C   0  0  1  0  0  3  0  0  0  0  0  0
  187.3500  178.1410  143.3960 S   0  0  0  0  0  0  0  0  0  0  0  0
  186.9650  176.7450  147.1020 C   0  0  0  0  0  3  0  0  0  0  0  0
  190.0510  177.6810  143.7280 C   0  0  0  0  0  2  0  0  0  0  0  0
  191.0150  176.9150  142.8450 C   0  0  0  0  0  1  0  0  0  0  0  0
  192.9790  175.8820  146.7710 C   0  0  0  0  0  2  0  0  0  0  0  0
  194.2110  175.2720  146.1140 C   0  0  0  0  0  2  0  0  0  0  0  0
  195.0370  176.3120  145.3580 C   0  0  2  0  0  3  0  0  0  0  0  0
  194.6510  177.6530  145.7700 N   0  0  0  0  0  1  0  0  0  0  0  0
  194.9120  176.1550  143.8410 C   0  0  2  0  0  3  0  0  0  0  0  0
  194.5130  174.8550  143.5230 O   0  0  0  0  0  1  0  0  0  0  0  0
  196.2430  176.4360  143.1660 C   0  0  0  0  0  1  0  0  0  0  0  0
  1  8  1  6  0  0  0
  1  4  1  0  0  0  0
  2  7  1  0  0  0  0
  2  5  2  0  0  0  0
  3  2  1  0  0  0  0
  5  6  1  0  0  0  0
  6  4  2  0  0  0  0
  6 19  1  0  0  0  0
  7  1  1  0  0  0  0
  8  9  1  0  0  0  0
  9 16  1  0  0  0  0
 10 13  1  0  0  0  0
 11 12  1  0  0  0  0
 11  9  2  0  0  0  0
 12 10  2  0  0  0  0
 14 17  1  1  0  0  0
 14  8  1  0  0  0  0
 15 14  1  0  0  0  0
 15 11  1  0  0  0  0
 16 13  2  0  0  0  0
 18 17  1  0  0  0  0
 20 19  1  0  0  0  0
 21 22  1  1  0  0  0
 21 20  1  0  0  0  0
 23 25  1  6  0  0  0
 23 21  1  0  0  0  0
 24 23  1  0  0  0  0
M  END
>  <MODEL>
9

>  <REMARK>
 VINA RESULT:      -6.1      2.302      3.233
  Name = 
  6 active torsions:
  status: ('A' for Active; 'I' for Inactive)
    1  A    between atoms: N_1  and  C_3
    2  A    between atoms: C_2  and  C_21
    3  A    between atoms: C_4  and  C_18
    4  A    between atoms: C_6  and  C_15
    5  A    between atoms: C_6  and  C_23
    6  A    between atoms: C_15  and  C_21
                            x       y       z     vdW  Elec       q    Type
                         _______ _______ _______ _____ _____    ______ ____

>  <TORSDO>
F 6

$$$$
