=
 OpenBabel11052418313D

 27 31  0  0  1  0  0  0  0  0999 V2000
  188.4370  175.8540  144.6620 N   0  0  0  0  0  0  0  0  0  0  0  0
  189.1440  174.9620  145.5830 C   0  0  2  0  0  3  0  0  0  0  0  0
  190.2500  174.7790  143.4680 N   0  0  1  0  0  0  0  0  0  0  0  0
  192.9010  176.4180  146.9260 N   0  0  0  0  0  0  0  0  0  0  0  0
  194.9700  176.4170  145.6300 C   0  0  0  0  0  1  0  0  0  0  0  0
  189.2320  175.3770  147.0820 C   0  0  0  0  0  2  0  0  0  0  0  0
  192.7770  175.3070  144.9020 N   0  0  0  0  0  0  0  0  0  0  0  0
  188.2610  174.5890  141.2470 C   0  0  1  0  0  3  0  0  0  0  0  0
  191.0220  172.5260  142.8410 C   0  0  0  0  0  1  0  0  0  0  0  0
  188.1260  175.0520  139.9380 O   0  0  0  0  0  1  0  0  0  0  0  0
  191.6070  175.2270  145.4360 C   0  0  0  0  0  0  0  0  0  0  0  0
  193.5450  176.0630  145.8520 C   0  0  0  0  0  0  0  0  0  0  0  0
  191.6120  175.8760  146.7070 C   0  0  0  0  0  0  0  0  0  0  0  0
  189.1850  175.8110  143.4030 C   0  0  1  0  0  3  0  0  0  0  0  0
  190.4220  174.4970  144.8910 C   0  0  1  0  0  3  0  0  0  0  0  0
  189.5370  173.7800  141.3530 C   0  0  0  0  0  2  0  0  0  0  0  0
  190.5470  175.9980  147.4890 C   0  0  0  0  0  3  0  0  0  0  0  0
  187.4450  176.6460  142.0460 O   0  0  0  0  0  0  0  0  0  0  0  0
  188.2540  175.7450  142.2090 C   0  0  0  0  0  0  0  0  0  0  0  0
  189.8680  173.5180  142.8100 C   0  0  2  0  0  3  0  0  0  0  0  0
  188.2090  177.2430  145.1170 C   0  0  0  0  0  2  0  0  0  0  0  0
  184.1700  178.5730  145.8330 C   0  0  0  0  0  3  0  0  0  0  0  0
  186.7760  177.6530  145.3480 C   0  0  0  0  0  0  0  0  0  0  0  0
  186.2850  178.7770  144.6730 C   0  0  0  0  0  3  0  0  0  0  0  0
  184.9820  179.2290  144.9040 C   0  0  0  0  0  3  0  0  0  0  0  0
  184.6650  177.4740  146.5400 C   0  0  0  0  0  3  0  0  0  0  0  0
  185.9680  177.0250  146.3070 C   0  0  0  0  0  3  0  0  0  0  0  0
  1 21  1  0  0  0  0
  1  2  1  0  0  0  0
  2  6  1  1  0  0  0
  3 15  1  0  0  0  0
  5 12  1  0  0  0  0
  6 17  1  0  0  0  0
  7 11  2  0  0  0  0
  7 12  1  0  0  0  0
  8 16  1  0  0  0  0
  8 19  1  0  0  0  0
 10  8  1  0  0  0  0
 11 13  1  0  0  0  0
 12  4  2  0  0  0  0
 13  4  1  0  0  0  0
 13 17  2  0  0  0  0
 14  3  1  0  0  0  0
 14  1  1  0  0  0  0
 15 11  1  0  0  0  0
 15  2  1  0  0  0  0
 16 20  1  0  0  0  0
 18 19  2  0  0  0  0
 19 14  1  0  0  0  0
 20  9  1  0  0  0  0
 20  3  1  0  0  0  0
 21 23  1  0  0  0  0
 22 26  1  0  0  0  0
 23 27  1  0  0  0  0
 24 25  1  0  0  0  0
 24 23  2  0  0  0  0
 25 22  2  0  0  0  0
 27 26  2  0  0  0  0
M  END
>  <MODEL>
1

>  <REMARK>
 VINA RESULT:      -8.3      0.000      0.000
  Name = 
  2 active torsions:
  status: ('A' for Active; 'I' for Inactive)
    1  A    between atoms: N_1  and  C_15
    2  A    between atoms: C_9  and  C_15
                            x       y       z     vdW  Elec       q    Type
                         _______ _______ _______ _____ _____    ______ ____

>  <TORSDO>
F 2

$$$$
=
 OpenBabel11052418313D

 27 31  0  0  1  0  0  0  0  0999 V2000
  189.0050  175.2340  144.8210 N   0  0  0  0  0  0  0  0  0  0  0  0
  189.8830  174.6930  145.8610 C   0  0  2  0  0  3  0  0  0  0  0  0
  190.6710  173.8190  143.7760 N   0  0  1  0  0  0  0  0  0  0  0  0
  193.7230  176.4970  146.0550 N   0  0  0  0  0  0  0  0  0  0  0  0
  195.5750  176.0630  144.5250 C   0  0  0  0  0  1  0  0  0  0  0  0
  190.1710  175.5790  147.1090 C   0  0  0  0  0  2  0  0  0  0  0  0
  193.3540  174.7820  144.5480 N   0  0  0  0  0  0  0  0  0  0  0  0
  188.3880  172.9160  142.0760 C   0  0  1  0  0  3  0  0  0  0  0  0
  191.4500  171.4830  143.8060 C   0  0  0  0  0  1  0  0  0  0  0  0
  188.0380  172.9210  140.7250 O   0  0  0  0  0  1  0  0  0  0  0  0
  192.2810  174.8870  145.2540 C   0  0  0  0  0  0  0  0  0  0  0  0
  194.2170  175.8060  145.0700 C   0  0  0  0  0  0  0  0  0  0  0  0
  192.4430  175.9180  146.2270 C   0  0  0  0  0  0  0  0  0  0  0  0
  189.5600  174.7760  143.5440 C   0  0  1  0  0  3  0  0  0  0  0  0
  191.0650  174.0220  145.1690 C   0  0  1  0  0  3  0  0  0  0  0  0
  189.7030  172.1820  142.2400 C   0  0  0  0  0  2  0  0  0  0  0  0
  191.5010  176.2950  147.0820 C   0  0  0  0  0  3  0  0  0  0  0  0
  187.6010  175.1230  142.2770 O   0  0  0  0  0  0  0  0  0  0  0  0
  188.4670  174.3240  142.5970 C   0  0  0  0  0  0  0  0  0  0  0  0
  190.2570  172.4140  143.6320 C   0  0  2  0  0  3  0  0  0  0  0  0
  188.7810  176.6960  144.8270 C   0  0  0  0  0  2  0  0  0  0  0  0
  184.8690  178.2000  145.8450 C   0  0  0  0  0  3  0  0  0  0  0  0
  187.3890  177.1660  145.1720 C   0  0  0  0  0  0  0  0  0  0  0  0
  186.8440  178.2310  144.4450 C   0  0  0  0  0  3  0  0  0  0  0  0
  185.5830  178.7390  144.7710 C   0  0  0  0  0  3  0  0  0  0  0  0
  185.4220  177.1620  146.6000 C   0  0  0  0  0  3  0  0  0  0  0  0
  186.6840  176.6570  146.2720 C   0  0  0  0  0  3  0  0  0  0  0  0
  1 21  1  0  0  0  0
  1  2  1  0  0  0  0
  2  6  1  1  0  0  0
  3 15  1  0  0  0  0
  4 13  1  0  0  0  0
  5 12  1  0  0  0  0
  7 12  1  0  0  0  0
  7 11  2  0  0  0  0
  8 16  1  0  0  0  0
  8 19  1  0  0  0  0
 10  8  1  0  0  0  0
 11 13  1  0  0  0  0
 12  4  2  0  0  0  0
 13 17  2  0  0  0  0
 14  3  1  0  0  0  0
 14  1  1  0  0  0  0
 15 11  1  0  0  0  0
 15  2  1  0  0  0  0
 16 20  1  0  0  0  0
 17  6  1  0  0  0  0
 18 19  2  0  0  0  0
 19 14  1  0  0  0  0
 20  3  1  0  0  0  0
 20  9  1  0  0  0  0
 21 23  1  0  0  0  0
 22 26  1  0  0  0  0
 23 27  1  0  0  0  0
 24 25  1  0  0  0  0
 24 23  2  0  0  0  0
 25 22  2  0  0  0  0
 27 26  2  0  0  0  0
M  END
>  <MODEL>
2

>  <REMARK>
 VINA RESULT:      -7.9      1.118      1.197
  Name = 
  2 active torsions:
  status: ('A' for Active; 'I' for Inactive)
    1  A    between atoms: N_1  and  C_15
    2  A    between atoms: C_9  and  C_15
                            x       y       z     vdW  Elec       q    Type
                         _______ _______ _______ _____ _____    ______ ____

>  <TORSDO>
F 2

$$$$
=
 OpenBabel11052418313D

 27 31  0  0  1  0  0  0  0  0999 V2000
  188.4990  176.7480  144.2150 N   0  0  0  0  0  0  0  0  0  0  0  0
  189.0600  176.9380  142.8760 C   0  0  2  0  0  3  0  0  0  0  0  0
  190.6230  175.5890  144.0880 N   0  0  1  0  0  0  0  0  0  0  0  0
  188.7730  173.5480  140.3350 N   0  0  0  0  0  0  0  0  0  0  0  0
  190.1930  171.5650  140.4470 C   0  0  0  0  0  1  0  0  0  0  0  0
  188.0720  177.0510  141.6780 C   0  0  0  0  0  2  0  0  0  0  0  0
  190.5420  173.7040  141.8170 N   0  0  0  0  0  0  0  0  0  0  0  0
  191.0130  176.6480  146.8540 C   0  0  1  0  0  3  0  0  0  0  0  0
  193.0050  176.0570  143.6760 C   0  0  0  0  0  1  0  0  0  0  0  0
  191.1990  176.1380  148.1400 O   0  0  0  0  0  1  0  0  0  0  0  0
  189.8940  174.8150  141.9010 C   0  0  0  0  0  0  0  0  0  0  0  0
  189.8060  172.9430  140.8440 C   0  0  0  0  0  0  0  0  0  0  0  0
  188.7940  174.8010  140.9920 C   0  0  0  0  0  0  0  0  0  0  0  0
  189.4130  175.8370  144.9110 C   0  0  1  0  0  3  0  0  0  0  0  0
  190.2550  176.0010  142.7350 C   0  0  1  0  0  3  0  0  0  0  0  0
  192.1110  176.1210  145.9530 C   0  0  0  0  0  2  0  0  0  0  0  0
  187.9120  175.7850  140.8700 C   0  0  0  0  0  3  0  0  0  0  0  0
  188.6890  176.3710  147.0920 O   0  0  0  0  0  0  0  0  0  0  0  0
  189.6480  176.2780  146.3420 C   0  0  0  0  0  0  0  0  0  0  0  0
  191.7760  176.4060  144.5020 C   0  0  2  0  0  3  0  0  0  0  0  0
  187.0970  176.2830  144.2940 C   0  0  0  0  0  2  0  0  0  0  0  0
  184.1050  178.9310  145.9180 C   0  0  0  0  0  3  0  0  0  0  0  0
  186.0940  177.2530  144.8690 C   0  0  0  0  0  0  0  0  0  0  0  0
  185.3930  176.8830  146.0230 C   0  0  0  0  0  3  0  0  0  0  0  0
  184.4100  177.7250  146.5550 C   0  0  0  0  0  3  0  0  0  0  0  0
  184.7730  179.2890  144.7440 C   0  0  0  0  0  3  0  0  0  0  0  0
  185.7540  178.4460  144.2150 C   0  0  0  0  0  3  0  0  0  0  0  0
  1 21  1  0  0  0  0
  1 14  1  0  0  0  0
  2  6  1  6  0  0  0
  2  1  1  0  0  0  0
  3 20  1  0  0  0  0
  3 14  1  0  0  0  0
  4 12  2  0  0  0  0
  4 13  1  0  0  0  0
  5 12  1  0  0  0  0
  7 11  2  0  0  0  0
  8 10  1  0  0  0  0
  9 20  1  0  0  0  0
 11 15  1  0  0  0  0
 12  7  1  0  0  0  0
 13 11  1  0  0  0  0
 14 19  1  0  0  0  0
 15  2  1  0  0  0  0
 15  3  1  0  0  0  0
 16  8  1  0  0  0  0
 17 13  2  0  0  0  0
 17  6  1  0  0  0  0
 19  8  1  0  0  0  0
 19 18  2  0  0  0  0
 20 16  1  0  0  0  0
 21 23  1  0  0  0  0
 22 25  1  0  0  0  0
 23 24  1  0  0  0  0
 24 25  2  0  0  0  0
 26 22  2  0  0  0  0
 27 26  1  0  0  0  0
 27 23  2  0  0  0  0
M  END
>  <MODEL>
3

>  <REMARK>
 VINA RESULT:      -7.9      2.266      4.842
  Name = 
  2 active torsions:
  status: ('A' for Active; 'I' for Inactive)
    1  A    between atoms: N_1  and  C_15
    2  A    between atoms: C_9  and  C_15
                            x       y       z     vdW  Elec       q    Type
                         _______ _______ _______ _____ _____    ______ ____

>  <TORSDO>
F 2

$$$$
=
 OpenBabel11052418313D

 27 31  0  0  1  0  0  0  0  0999 V2000
  189.4390  176.6040  144.2560 N   0  0  0  0  0  0  0  0  0  0  0  0
  189.6050  176.7340  142.8070 C   0  0  2  0  0  3  0  0  0  0  0  0
  191.5030  175.5150  143.6080 N   0  0  1  0  0  0  0  0  0  0  0  0
  188.8080  173.1920  140.6050 N   0  0  0  0  0  0  0  0  0  0  0  0
  190.3020  171.2690  140.4180 C   0  0  0  0  0  1  0  0  0  0  0  0
  188.3240  176.7420  141.9200 C   0  0  0  0  0  2  0  0  0  0  0  0
  190.9020  173.4960  141.5380 N   0  0  0  0  0  0  0  0  0  0  0  0
  192.5750  176.7470  146.1080 C   0  0  1  0  0  3  0  0  0  0  0  0
  193.6580  176.0390  142.5380 C   0  0  0  0  0  1  0  0  0  0  0  0
  193.1280  176.3220  147.3170 O   0  0  0  0  0  1  0  0  0  0  0  0
  190.2470  174.5870  141.7430 C   0  0  0  0  0  0  0  0  0  0  0  0
  189.9690  172.6550  140.8400 C   0  0  0  0  0  0  0  0  0  0  0  0
  188.9440  174.4810  141.1710 C   0  0  0  0  0  0  0  0  0  0  0  0
  190.5500  175.7690  144.7180 C   0  0  1  0  0  3  0  0  0  0  0  0
  190.7620  175.8320  142.3890 C   0  0  1  0  0  3  0  0  0  0  0  0
  193.4130  176.2070  144.9680 C   0  0  0  0  0  2  0  0  0  0  0  0
  188.0150  175.4260  141.2480 C   0  0  0  0  0  3  0  0  0  0  0  0
  190.4200  176.4040  146.9860 O   0  0  0  0  0  0  0  0  0  0  0  0
  191.1430  176.3010  146.0070 C   0  0  0  0  0  0  0  0  0  0  0  0
  192.6830  176.3940  143.6520 C   0  0  2  0  0  3  0  0  0  0  0  0
  188.1350  176.0970  144.7370 C   0  0  0  0  0  2  0  0  0  0  0  0
  185.5280  178.7580  146.9100 C   0  0  0  0  0  3  0  0  0  0  0  0
  187.2640  177.0730  145.4880 C   0  0  0  0  0  0  0  0  0  0  0  0
  186.9210  176.7800  146.8140 C   0  0  0  0  0  3  0  0  0  0  0  0
  186.0660  177.6260  147.5280 C   0  0  0  0  0  3  0  0  0  0  0  0
  185.8340  179.0370  145.5760 C   0  0  0  0  0  3  0  0  0  0  0  0
  186.6890  178.1890  144.8640 C   0  0  0  0  0  3  0  0  0  0  0  0
  1 14  1  0  0  0  0
  1 21  1  0  0  0  0
  2  6  1  6  0  0  0
  2  1  1  0  0  0  0
  3 20  1  0  0  0  0
  3 14  1  0  0  0  0
  4 12  2  0  0  0  0
  4 13  1  0  0  0  0
  5 12  1  0  0  0  0
  7 11  2  0  0  0  0
  8 10  1  0  0  0  0
  9 20  1  0  0  0  0
 11 15  1  0  0  0  0
 12  7  1  0  0  0  0
 13 17  2  0  0  0  0
 13 11  1  0  0  0  0
 14 19  1  0  0  0  0
 15  2  1  0  0  0  0
 15  3  1  0  0  0  0
 16  8  1  0  0  0  0
 17  6  1  0  0  0  0
 19  8  1  0  0  0  0
 19 18  2  0  0  0  0
 20 16  1  0  0  0  0
 21 23  1  0  0  0  0
 22 25  1  0  0  0  0
 23 24  1  0  0  0  0
 24 25  2  0  0  0  0
 26 22  2  0  0  0  0
 27 23  2  0  0  0  0
 27 26  1  0  0  0  0
M  END
>  <MODEL>
4

>  <REMARK>
 VINA RESULT:      -7.3      2.470      4.927
  Name = 
  2 active torsions:
  status: ('A' for Active; 'I' for Inactive)
    1  A    between atoms: N_1  and  C_15
    2  A    between atoms: C_9  and  C_15
                            x       y       z     vdW  Elec       q    Type
                         _______ _______ _______ _____ _____    ______ ____

>  <TORSDO>
F 2

$$$$
=
 OpenBabel11052418313D

 27 31  0  0  1  0  0  0  0  0999 V2000
  190.7310  175.1340  144.0900 N   0  0  0  0  0  0  0  0  0  0  0  0
  190.2970  176.5330  144.0950 C   0  0  2  0  0  3  0  0  0  0  0  0
  188.5810  175.2880  142.9830 N   0  0  1  0  0  0  0  0  0  0  0  0
  187.2280  177.4280  146.8900 N   0  0  0  0  0  0  0  0  0  0  0  0
  184.8620  176.8890  146.6220 C   0  0  0  0  0  1  0  0  0  0  0  0
  190.7020  177.4210  145.3090 C   0  0  0  0  0  2  0  0  0  0  0  0
  186.6570  176.5710  144.8190 N   0  0  0  0  0  0  0  0  0  0  0  0
  189.7690  173.3150  141.0810 C   0  0  1  0  0  3  0  0  0  0  0  0
  187.5320  176.3840  141.0430 C   0  0  0  0  0  1  0  0  0  0  0  0
  189.5160  172.0120  140.6500 O   0  0  0  0  0  1  0  0  0  0  0  0
  187.9290  176.7760  144.7930 C   0  0  0  0  0  0  0  0  0  0  0  0
  186.2650  176.9770  146.1410 C   0  0  0  0  0  0  0  0  0  0  0  0
  188.3540  177.3300  146.0380 C   0  0  0  0  0  0  0  0  0  0  0  0
  189.6270  174.3710  143.5010 C   0  0  1  0  0  3  0  0  0  0  0  0
  188.8450  176.5710  143.6300 C   0  0  1  0  0  3  0  0  0  0  0  0
  188.5470  174.1680  140.8100 C   0  0  0  0  0  2  0  0  0  0  0  0
  189.6140  177.6170  146.3380 C   0  0  0  0  0  3  0  0  0  0  0  0
  190.9020  172.4620  142.9570 O   0  0  0  0  0  0  0  0  0  0  0  0
  190.1370  173.3170  142.5380 C   0  0  0  0  0  0  0  0  0  0  0  0
  188.6710  175.4980  141.5290 C   0  0  2  0  0  3  0  0  0  0  0  0
  191.1630  174.5630  145.3840 C   0  0  0  0  0  2  0  0  0  0  0  0
  195.4380  174.2380  145.8590 C   0  0  0  0  0  3  0  0  0  0  0  0
  192.6490  174.4040  145.5910 C   0  0  0  0  0  0  0  0  0  0  0  0
  193.3850  175.5120  146.0260 C   0  0  0  0  0  3  0  0  0  0  0  0
  194.7740  175.4280  146.1730 C   0  0  0  0  0  3  0  0  0  0  0  0
  194.7150  173.1400  145.3870 C   0  0  0  0  0  3  0  0  0  0  0  0
  193.3280  173.2270  145.2410 C   0  0  0  0  0  3  0  0  0  0  0  0
  1  2  1  0  0  0  0
  1 21  1  0  0  0  0
  2  6  1  1  0  0  0
  3 14  1  0  0  0  0
  3 15  1  0  0  0  0
  6 17  1  0  0  0  0
  7 12  1  0  0  0  0
  8 19  1  0  0  0  0
  9 20  1  0  0  0  0
 10  8  1  0  0  0  0
 11  7  2  0  0  0  0
 11 13  1  0  0  0  0
 12  5  1  0  0  0  0
 12  4  2  0  0  0  0
 13 17  2  0  0  0  0
 13  4  1  0  0  0  0
 14  1  1  0  0  0  0
 15  2  1  0  0  0  0
 15 11  1  0  0  0  0
 16  8  1  0  0  0  0
 16 20  1  0  0  0  0
 19 18  2  0  0  0  0
 19 14  1  0  0  0  0
 20  3  1  0  0  0  0
 21 23  1  0  0  0  0
 22 25  1  0  0  0  0
 23 24  1  0  0  0  0
 24 25  2  0  0  0  0
 26 22  2  0  0  0  0
 27 26  1  0  0  0  0
 27 23  2  0  0  0  0
M  END
>  <MODEL>
5

>  <REMARK>
 VINA RESULT:      -7.2      1.999      5.982
  Name = 
  2 active torsions:
  status: ('A' for Active; 'I' for Inactive)
    1  A    between atoms: N_1  and  C_15
    2  A    between atoms: C_9  and  C_15
                            x       y       z     vdW  Elec       q    Type
                         _______ _______ _______ _____ _____    ______ ____

>  <TORSDO>
F 2

$$$$
=
 OpenBabel11052418313D

 27 31  0  0  1  0  0  0  0  0999 V2000
  189.9010  175.3340  143.9480 N   0  0  0  0  0  0  0  0  0  0  0  0
  189.7610  176.7550  144.2710 C   0  0  2  0  0  3  0  0  0  0  0  0
  187.8970  176.1810  142.8830 N   0  0  1  0  0  0  0  0  0  0  0  0
  186.7780  177.6300  147.1640 N   0  0  0  0  0  0  0  0  0  0  0  0
  184.3710  177.6760  146.7530 C   0  0  0  0  0  1  0  0  0  0  0  0
  190.2650  177.2420  145.6620 C   0  0  0  0  0  2  0  0  0  0  0  0
  186.1680  177.3970  144.9450 N   0  0  0  0  0  0  0  0  0  0  0  0
  188.7700  174.4790  140.5900 C   0  0  1  0  0  3  0  0  0  0  0  0
  187.2090  177.8790  141.2380 C   0  0  0  0  0  1  0  0  0  0  0  0
  188.2830  173.3890  139.8660 O   0  0  0  0  0  1  0  0  0  0  0  0
  187.4540  177.3300  144.9810 C   0  0  0  0  0  0  0  0  0  0  0  0
  185.7890  177.5710  146.3200 C   0  0  0  0  0  0  0  0  0  0  0  0
  187.9080  177.4890  146.3240 C   0  0  0  0  0  0  0  0  0  0  0  0
  188.7030  174.9720  143.1860 C   0  0  1  0  0  3  0  0  0  0  0  0
  188.3770  177.2020  143.8120 C   0  0  1  0  0  3  0  0  0  0  0  0
  187.7650  175.6090  140.5100 C   0  0  0  0  0  2  0  0  0  0  0  0
  189.1810  177.4290  146.6970 C   0  0  0  0  0  3  0  0  0  0  0  0
  189.5940  173.0080  142.2300 O   0  0  0  0  0  0  0  0  0  0  0  0
  189.0440  174.0770  142.0120 C   0  0  0  0  0  0  0  0  0  0  0  0
  188.1140  176.6870  141.5180 C   0  0  2  0  0  3  0  0  0  0  0  0
  190.1310  174.4090  145.0790 C   0  0  0  0  0  2  0  0  0  0  0  0
  194.1200  172.7790  145.2760 C   0  0  0  0  0  3  0  0  0  0  0  0
  191.5040  173.7910  145.1810 C   0  0  0  0  0  0  0  0  0  0  0  0
  192.5320  174.5410  145.7650 C   0  0  0  0  0  3  0  0  0  0  0  0
  193.8340  174.0320  145.8250 C   0  0  0  0  0  3  0  0  0  0  0  0
  193.1080  172.0420  144.6570 C   0  0  0  0  0  3  0  0  0  0  0  0
  191.8080  172.5530  144.5980 C   0  0  0  0  0  3  0  0  0  0  0  0
  1  2  1  0  0  0  0
  1 21  1  0  0  0  0
  2  6  1  1  0  0  0
  3 14  1  0  0  0  0
  3 15  1  0  0  0  0
  6 17  1  0  0  0  0
  7 11  2  0  0  0  0
  7 12  1  0  0  0  0
  8 19  1  0  0  0  0
  9 20  1  0  0  0  0
 10  8  1  0  0  0  0
 11 13  1  0  0  0  0
 12  5  1  0  0  0  0
 12  4  2  0  0  0  0
 13 17  2  0  0  0  0
 13  4  1  0  0  0  0
 14  1  1  0  0  0  0
 15  2  1  0  0  0  0
 15 11  1  0  0  0  0
 16  8  1  0  0  0  0
 16 20  1  0  0  0  0
 19 18  2  0  0  0  0
 19 14  1  0  0  0  0
 20  3  1  0  0  0  0
 21 23  1  0  0  0  0
 22 25  1  0  0  0  0
 23 24  1  0  0  0  0
 24 25  2  0  0  0  0
 26 22  2  0  0  0  0
 27 26  1  0  0  0  0
 27 23  2  0  0  0  0
M  END
>  <MODEL>
6

>  <REMARK>
 VINA RESULT:      -7.1      1.907      5.914
  Name = 
  2 active torsions:
  status: ('A' for Active; 'I' for Inactive)
    1  A    between atoms: N_1  and  C_15
    2  A    between atoms: C_9  and  C_15
                            x       y       z     vdW  Elec       q    Type
                         _______ _______ _______ _____ _____    ______ ____

>  <TORSDO>
F 2

$$$$
=
 OpenBabel11052418313D

 27 31  0  0  1  0  0  0  0  0999 V2000
  190.5140  175.5250  144.1380 N   0  0  0  0  0  0  0  0  0  0  0  0
  190.6590  175.1450  142.7310 C   0  0  2  0  0  3  0  0  0  0  0  0
  192.7270  174.5980  143.8040 N   0  0  1  0  0  0  0  0  0  0  0  0
  190.4430  170.9700  141.9880 N   0  0  0  0  0  0  0  0  0  0  0  0
  192.2270  169.3570  142.4150 C   0  0  0  0  0  1  0  0  0  0  0  0
  189.3940  174.6390  141.9750 C   0  0  0  0  0  2  0  0  0  0  0  0
  192.4610  171.9020  142.6290 N   0  0  0  0  0  0  0  0  0  0  0  0
  193.5850  176.7970  145.6330 C   0  0  1  0  0  3  0  0  0  0  0  0
  194.7710  175.0170  142.4960 C   0  0  0  0  0  1  0  0  0  0  0  0
  194.1980  176.9260  146.8810 O   0  0  0  0  0  1  0  0  0  0  0  0
  191.6390  172.8810  142.4680 C   0  0  0  0  0  0  0  0  0  0  0  0
  191.6760  170.7350  142.3330 C   0  0  0  0  0  0  0  0  0  0  0  0
  190.3700  172.3820  142.0480 C   0  0  0  0  0  0  0  0  0  0  0  0
  191.7450  175.0900  144.8020 C   0  0  1  0  0  3  0  0  0  0  0  0
  191.9460  174.3380  142.5970 C   0  0  1  0  0  3  0  0  0  0  0  0
  194.5000  176.0130  144.7150 C   0  0  0  0  0  2  0  0  0  0  0  0
  189.3010  173.1380  141.8350 C   0  0  0  0  0  3  0  0  0  0  0  0
  191.5120  176.4750  146.6980 O   0  0  0  0  0  0  0  0  0  0  0  0
  192.2440  176.1350  145.7800 C   0  0  0  0  0  0  0  0  0  0  0  0
  193.7500  175.6000  143.4640 C   0  0  2  0  0  3  0  0  0  0  0  0
  189.3090  175.0360  144.8420 C   0  0  0  0  0  2  0  0  0  0  0  0
  186.5170  178.1320  145.9490 C   0  0  0  0  0  3  0  0  0  0  0  0
  188.2910  176.0750  145.2440 C   0  0  0  0  0  0  0  0  0  0  0  0
  187.8970  177.0260  144.2950 C   0  0  0  0  0  3  0  0  0  0  0  0
  187.0030  178.0440  144.6410 C   0  0  0  0  0  3  0  0  0  0  0  0
  186.9360  177.2100  146.9120 C   0  0  0  0  0  3  0  0  0  0  0  0
  187.8300  176.1940  146.5630 C   0  0  0  0  0  3  0  0  0  0  0  0
  1 14  1  0  0  0  0
  1 21  1  0  0  0  0
  2  6  1  1  0  0  0
  2  1  1  0  0  0  0
  3 14  1  0  0  0  0
  4 13  1  0  0  0  0
  4 12  2  0  0  0  0
  8 19  1  0  0  0  0
  8 10  1  0  0  0  0
  9 20  1  0  0  0  0
 11 15  1  0  0  0  0
 11  7  2  0  0  0  0
 12  5  1  0  0  0  0
 12  7  1  0  0  0  0
 13 11  1  0  0  0  0
 14 19  1  0  0  0  0
 15  2  1  0  0  0  0
 15  3  1  0  0  0  0
 16  8  1  0  0  0  0
 17  6  1  0  0  0  0
 17 13  2  0  0  0  0
 19 18  2  0  0  0  0
 20  3  1  0  0  0  0
 20 16  1  0  0  0  0
 21 23  1  0  0  0  0
 22 26  1  0  0  0  0
 23 27  1  0  0  0  0
 24 25  1  0  0  0  0
 24 23  2  0  0  0  0
 25 22  2  0  0  0  0
 27 26  2  0  0  0  0
M  END
>  <MODEL>
7

>  <REMARK>
 VINA RESULT:      -6.7      2.700      4.989
  Name = 
  2 active torsions:
  status: ('A' for Active; 'I' for Inactive)
    1  A    between atoms: N_1  and  C_15
    2  A    between atoms: C_9  and  C_15
                            x       y       z     vdW  Elec       q    Type
                         _______ _______ _______ _____ _____    ______ ____

>  <TORSDO>
F 2

$$$$
=
 OpenBabel11052418313D

 27 31  0  0  1  0  0  0  0  0999 V2000
  192.1350  173.9840  143.9110 N   0  0  0  0  0  0  0  0  0  0  0  0
  191.7830  175.3340  143.4660 C   0  0  2  0  0  3  0  0  0  0  0  0
  189.9210  173.9290  142.9300 N   0  0  1  0  0  0  0  0  0  0  0  0
  188.9870  177.3470  145.9490 N   0  0  0  0  0  0  0  0  0  0  0  0
  186.5810  176.9370  146.0020 C   0  0  0  0  0  1  0  0  0  0  0  0
  192.3270  176.5410  144.2870 C   0  0  0  0  0  2  0  0  0  0  0  0
  188.2150  175.8970  144.3220 N   0  0  0  0  0  0  0  0  0  0  0  0
  190.8490  171.3490  141.7460 C   0  0  1  0  0  3  0  0  0  0  0  0
  188.7940  174.3950  140.7910 C   0  0  0  0  0  1  0  0  0  0  0  0
  190.4910  170.0000  141.7930 O   0  0  0  0  0  1  0  0  0  0  0  0
  189.4910  175.9810  144.1630 C   0  0  0  0  0  0  0  0  0  0  0  0
  187.9470  176.7490  145.4470 C   0  0  0  0  0  0  0  0  0  0  0  0
  190.0380  176.8820  145.1240 C   0  0  0  0  0  0  0  0  0  0  0  0
  190.9490  173.1570  143.6720 C   0  0  1  0  0  3  0  0  0  0  0  0
  190.3050  175.3300  143.0910 C   0  0  1  0  0  3  0  0  0  0  0  0
  189.6610  172.1560  141.2660 C   0  0  0  0  0  2  0  0  0  0  0  0
  191.3320  177.1540  145.2440 C   0  0  0  0  0  3  0  0  0  0  0  0
  192.0700  171.0820  143.7390 O   0  0  0  0  0  0  0  0  0  0  0  0
  191.3250  171.8060  143.0970 C   0  0  0  0  0  0  0  0  0  0  0  0
  189.9140  173.6350  141.4870 C   0  0  2  0  0  3  0  0  0  0  0  0
  192.6300  173.8440  145.2980 C   0  0  0  0  0  2  0  0  0  0  0  0
  196.7780  172.8430  145.9250 C   0  0  0  0  0  3  0  0  0  0  0  0
  194.0950  173.5230  145.4650 C   0  0  0  0  0  0  0  0  0  0  0  0
  194.4780  172.1800  145.5610 C   0  0  0  0  0  3  0  0  0  0  0  0
  195.8170  171.8390  145.7770 C   0  0  0  0  0  3  0  0  0  0  0  0
  196.3980  174.1860  145.8690 C   0  0  0  0  0  3  0  0  0  0  0  0
  195.0590  174.5240  145.6540 C   0  0  0  0  0  3  0  0  0  0  0  0
  1 21  1  0  0  0  0
  2  1  1  0  0  0  0
  2  6  1  1  0  0  0
  3 15  1  0  0  0  0
  3 14  1  0  0  0  0
  6 17  1  0  0  0  0
  7 12  1  0  0  0  0
  8 10  1  0  0  0  0
  8 19  1  0  0  0  0
  9 20  1  0  0  0  0
 11  7  2  0  0  0  0
 11 13  1  0  0  0  0
 12  4  2  0  0  0  0
 12  5  1  0  0  0  0
 13 17  2  0  0  0  0
 13  4  1  0  0  0  0
 14  1  1  0  0  0  0
 15  2  1  0  0  0  0
 15 11  1  0  0  0  0
 16 20  1  0  0  0  0
 16  8  1  0  0  0  0
 19 14  1  0  0  0  0
 19 18  2  0  0  0  0
 20  3  1  0  0  0  0
 21 23  1  0  0  0  0
 23 24  2  0  0  0  0
 23 27  1  0  0  0  0
 24 25  1  0  0  0  0
 25 22  2  0  0  0  0
 26 22  1  0  0  0  0
 27 26  2  0  0  0  0
M  END
>  <MODEL>
8

>  <REMARK>
 VINA RESULT:      -6.6      2.646      6.640
  Name = 
  2 active torsions:
  status: ('A' for Active; 'I' for Inactive)
    1  A    between atoms: N_1  and  C_15
    2  A    between atoms: C_9  and  C_15
                            x       y       z     vdW  Elec       q    Type
                         _______ _______ _______ _____ _____    ______ ____

>  <TORSDO>
F 2

$$$$
=
 OpenBabel11052418313D

 27 31  0  0  1  0  0  0  0  0999 V2000
  190.9550  174.7830  143.3740 N   0  0  0  0  0  0  0  0  0  0  0  0
  190.6270  175.9970  142.6240 C   0  0  2  0  0  3  0  0  0  0  0  0
  189.0400  174.3320  141.9600 N   0  0  1  0  0  0  0  0  0  0  0  0
  187.1990  178.0750  144.0290 N   0  0  0  0  0  0  0  0  0  0  0  0
  184.8800  177.4230  143.6290 C   0  0  0  0  0  1  0  0  0  0  0  0
  190.8820  177.3730  143.3100 C   0  0  0  0  0  2  0  0  0  0  0  0
  186.9280  176.3050  142.5650 N   0  0  0  0  0  0  0  0  0  0  0  0
  190.3910  171.7090  141.4980 C   0  0  1  0  0  3  0  0  0  0  0  0
  188.4140  174.3210  139.5790 C   0  0  0  0  0  1  0  0  0  0  0  0
  190.1230  170.3560  141.7110 O   0  0  0  0  0  1  0  0  0  0  0  0
  188.1970  176.4990  142.6750 C   0  0  0  0  0  0  0  0  0  0  0  0
  186.3470  177.2950  143.4290 C   0  0  0  0  0  0  0  0  0  0  0  0
  188.4430  177.5980  143.5510 C   0  0  0  0  0  0  0  0  0  0  0  0
  189.9170  173.8060  143.0360 C   0  0  1  0  0  3  0  0  0  0  0  0
  189.2800  175.7730  141.9430 C   0  0  1  0  0  3  0  0  0  0  0  0
  189.2950  172.2960  140.6320 C   0  0  0  0  0  2  0  0  0  0  0  0
  189.6510  178.0220  143.8990 C   0  0  0  0  0  3  0  0  0  0  0  0
  191.1280  171.9020  143.7230 O   0  0  0  0  0  0  0  0  0  0  0  0
  190.5060  172.4280  142.8130 C   0  0  0  0  0  0  0  0  0  0  0  0
  189.3890  173.8090  140.6290 C   0  0  2  0  0  3  0  0  0  0  0  0
  191.1210  174.9230  144.8370 C   0  0  0  0  0  2  0  0  0  0  0  0
  195.1920  175.2470  146.2260 C   0  0  0  0  0  3  0  0  0  0  0  0
  192.5370  174.9840  145.3550 C   0  0  0  0  0  0  0  0  0  0  0  0
  192.9370  176.1170  146.0730 C   0  0  0  0  0  3  0  0  0  0  0  0
  194.2570  176.2440  146.5190 C   0  0  0  0  0  3  0  0  0  0  0  0
  194.8100  174.1320  145.4770 C   0  0  0  0  0  3  0  0  0  0  0  0
  193.4900  174.0080  145.0310 C   0  0  0  0  0  3  0  0  0  0  0  0
  1 21  1  0  0  0  0
  2  6  1  1  0  0  0
  2  1  1  0  0  0  0
  3 14  1  0  0  0  0
  6 17  1  0  0  0  0
  7 11  2  0  0  0  0
  7 12  1  0  0  0  0
  8 10  1  0  0  0  0
  8 19  1  0  0  0  0
  9 20  1  0  0  0  0
 11 13  1  0  0  0  0
 12  5  1  0  0  0  0
 12  4  2  0  0  0  0
 13 17  2  0  0  0  0
 13  4  1  0  0  0  0
 14  1  1  0  0  0  0
 15  3  1  0  0  0  0
 15  2  1  0  0  0  0
 15 11  1  0  0  0  0
 16  8  1  0  0  0  0
 19 14  1  0  0  0  0
 19 18  2  0  0  0  0
 20 16  1  0  0  0  0
 20  3  1  0  0  0  0
 21 23  1  0  0  0  0
 22 25  1  0  0  0  0
 23 24  1  0  0  0  0
 24 25  2  0  0  0  0
 26 22  2  0  0  0  0
 27 23  2  0  0  0  0
 27 26  1  0  0  0  0
M  END
>  <MODEL>
9

>  <REMARK>
 VINA RESULT:      -6.6      2.522      6.148
  Name = 
  2 active torsions:
  status: ('A' for Active; 'I' for Inactive)
    1  A    between atoms: N_1  and  C_15
    2  A    between atoms: C_9  and  C_15
                            x       y       z     vdW  Elec       q    Type
                         _______ _______ _______ _____ _____    ______ ____

>  <TORSDO>
F 2

$$$$
