=
 OpenBabel11052421003D

 43 47  0  0  1  0  0  0  0  0999 V2000
  196.4690  169.0710  147.0470 C   0  0  0  0  0  0  0  0  0  0  0  0
  195.7540  172.5580  143.3660 C   0  0  0  0  0  0  0  0  0  0  0  0
  193.0270  172.6460  142.7400 N   0  0  0  0  0  0  0  0  0  0  0  0
  196.7970  170.5960  145.1880 C   0  0  0  0  0  0  0  0  0  0  0  0
  195.0100  169.3010  146.9390 C   0  0  0  0  0  3  0  0  0  0  0  0
  196.9600  168.2320  148.0360 O   0  0  0  0  0  1  0  0  0  0  0  0
  195.3590  170.4090  144.7530 C   0  0  1  0  0  3  0  0  0  0  0  0
  197.3210  169.7090  146.2360 C   0  0  0  0  0  3  0  0  0  0  0  0
  194.4880  169.9710  145.9040 C   0  0  0  0  0  3  0  0  0  0  0  0
  193.5220  171.6160  143.6170 C   0  0  0  0  0  3  0  0  0  0  0  0
  194.8150  171.5670  143.9530 C   0  0  0  0  0  0  0  0  0  0  0  0
  197.0540  172.5120  143.6800 C   0  0  0  0  0  3  0  0  0  0  0  0
  195.2250  173.5910  142.4450 C   0  0  0  0  0  0  0  0  0  0  0  0
  193.9180  173.6170  142.1740 C   0  0  0  0  0  3  0  0  0  0  0  0
  197.5820  171.5310  144.6470 C   0  0  0  0  0  3  0  0  0  0  0  0
  191.6040  172.7650  142.4500 C   0  0  1  0  0  3  0  0  0  0  0  0
  191.0750  174.1470  142.8060 C   0  0  0  0  0  2  0  0  0  0  0  0
  191.2660  172.4260  140.7010 S   0  0  0  0  0  0  0  0  0  0  0  0
  190.0730  174.5850  141.7510 C   0  0  1  0  0  3  0  0  0  0  0  0
  189.7500  173.3970  140.8650 C   0  0  0  0  0  2  0  0  0  0  0  0
  188.8170  175.1140  142.4280 C   0  0  0  0  0  2  0  0  0  0  0  0
  188.7890  176.6470  142.4580 C   0  0  1  0  0  3  0  0  0  0  0  0
  186.9220  178.2140  141.8830 C   0  0  0  0  0  1  0  0  0  0  0  0
  187.4240  177.2110  142.9140 C   0  0  0  0  0  0  0  0  0  0  0  0
  186.4130  176.0690  142.9700 C   0  0  0  0  0  1  0  0  0  0  0  0
  187.5500  177.8840  144.2930 C   0  0  0  0  0  2  0  0  0  0  0  0
  186.3960  177.5770  145.2410 C   0  0  0  0  0  3  0  0  0  0  0  0
  184.3530  178.5090  146.3090 C   0  0  0  0  0  2  0  0  0  0  0  0
  185.7290  177.2910  147.6230 C   0  0  0  0  0  2  0  0  0  0  0  0
  184.9890  178.4860  147.5660 O   0  0  0  0  0  0  0  0  0  0  0  0
  186.9170  177.3690  146.6640 C   0  0  0  0  0  2  0  0  0  0  0  0
  185.3900  178.7260  145.2080 C   0  0  0  0  0  2  0  0  0  0  0  0
  189.9620  177.1960  143.2310 C   0  0  0  0  0  3  0  0  0  0  0  0
  190.7110  178.0260  142.7400 O   0  0  0  0  0  0  0  0  0  0  0  0
  196.1030  174.6610  141.8770 C   0  0  0  0  0  2  0  0  0  0  0  0
  196.3640  176.8860  141.6280 O   0  0  0  0  0  1  0  0  0  0  0  0
  195.6280  175.9700  142.2980 N   0  0  0  0  0  0  0  0  0  0  0  0
  195.9520  176.1190  143.7090 C   0  0  0  0  0  2  0  0  0  0  0  0
  194.7450  176.6510  144.4740 C   0  0  0  0  0  2  0  0  0  0  0  0
  193.3210  174.9550  145.3920 O   0  0  0  0  0  1  0  0  0  0  0  0
  194.3920  175.7990  145.6900 C   0  0  0  0  0  0  0  0  0  0  0  0
  194.0580  176.6110  146.7740 O   0  0  0  0  0  1  0  0  0  0  0  0
  195.5940  174.9560  146.0620 C   0  0  0  0  0  1  0  0  0  0  0  0
  1  6  1  0  0  0  0
  2 12  2  0  0  0  0
  2 11  1  0  0  0  0
  3 10  1  0  0  0  0
  4  8  1  0  0  0  0
  5  1  1  0  0  0  0
  7  4  1  0  0  0  0
  7  9  1  1  0  0  0
  8  1  2  0  0  0  0
  9  5  2  0  0  0  0
 10 11  2  0  0  0  0
 11  7  1  0  0  0  0
 12 15  1  0  0  0  0
 13  2  1  0  0  0  0
 14 13  2  0  0  0  0
 14  3  1  0  0  0  0
 15  4  2  0  0  0  0
 16  3  1  6  0  0  0
 16 17  1  0  0  0  0
 18 20  1  0  0  0  0
 18 16  1  0  0  0  0
 19 21  1  1  0  0  0
 19 17  1  0  0  0  0
 20 19  1  0  0  0  0
 22 21  1  1  0  0  0
 22 24  1  0  0  0  0
 22 33  1  0  0  0  0
 23 24  1  0  0  0  0
 24 25  1  0  0  0  0
 24 26  1  0  0  0  0
 26 27  1  0  0  0  0
 27 31  1  0  0  0  0
 28 30  1  0  0  0  0
 30 29  1  0  0  0  0
 31 29  1  0  0  0  0
 32 27  1  0  0  0  0
 32 28  1  0  0  0  0
 34 33  2  0  0  0  0
 35 37  1  0  0  0  0
 35 13  1  0  0  0  0
 36 37  1  0  0  0  0
 37 38  1  0  0  0  0
 38 39  1  0  0  0  0
 39 41  1  0  0  0  0
 40 41  1  0  0  0  0
 41 43  1  0  0  0  0
 41 42  1  0  0  0  0
M  END
>  <MODEL>
1

>  <REMARK>
 VINA RESULT:      -7.3      0.000      0.000
  Name = 
  12 active torsions:
  status: ('A' for Active; 'I' for Inactive)
    1  A    between atoms: C_1  and  C_34
    2  A    between atoms: C_1  and  N_35
    3  A    between atoms: C_2  and  N_13
    4  A    between atoms: C_3  and  C_4
    5  A    between atoms: C_3  and  C_12
    6  A    between atoms: C_4  and  C_15
    7  A    between atoms: C_4  and  C_22
    8  A    between atoms: C_11  and  C_14
    9  A    between atoms: C_14  and  C_22
   10  A    between atoms: C_19  and  C_39
   11  A    between atoms: C_28  and  N_35
   12  A    between atoms: C_28  and  C_39
                            x       y       z     vdW  Elec       q    Type
                         _______ _______ _______ _____ _____    ______ ____

>  <TORSDO>
F 12

$$$$
=
 OpenBabel11052421003D

 43 47  0  0  1  0  0  0  0  0999 V2000
  185.8860  177.7880  147.6650 C   0  0  0  0  0  0  0  0  0  0  0  0
  184.9610  178.3730  142.6630 C   0  0  0  0  0  0  0  0  0  0  0  0
  186.9160  176.9780  141.2270 N   0  0  0  0  0  0  0  0  0  0  0  0
  185.1130  178.6220  145.5220 C   0  0  0  0  0  0  0  0  0  0  0  0
  186.7470  176.8210  146.9450 C   0  0  0  0  0  3  0  0  0  0  0  0
  185.8650  177.7860  149.0520 O   0  0  0  0  0  1  0  0  0  0  0  0
  186.3320  178.0470  144.8330 C   0  0  1  0  0  3  0  0  0  0  0  0
  185.0870  178.6230  146.9920 C   0  0  0  0  0  3  0  0  0  0  0  0
  186.9170  176.8980  145.6180 C   0  0  0  0  0  3  0  0  0  0  0  0
  187.0530  177.1260  142.6530 C   0  0  0  0  0  3  0  0  0  0  0  0
  186.1200  177.7660  143.3660 C   0  0  0  0  0  0  0  0  0  0  0  0
  184.0270  179.0300  143.3620 C   0  0  0  0  0  3  0  0  0  0  0  0
  184.8560  178.2300  141.1920 C   0  0  0  0  0  0  0  0  0  0  0  0
  185.7980  177.5490  140.5340 C   0  0  0  0  0  3  0  0  0  0  0  0
  184.0840  179.1220  144.8330 C   0  0  0  0  0  3  0  0  0  0  0  0
  187.8770  176.1970  140.4580 C   0  0  1  0  0  3  0  0  0  0  0  0
  188.3820  174.9970  141.2470 C   0  0  0  0  0  2  0  0  0  0  0  0
  187.1510  175.6260  138.8970 S   0  0  0  0  0  0  0  0  0  0  0  0
  188.5230  173.8090  140.3120 C   0  0  1  0  0  3  0  0  0  0  0  0
  188.3730  174.2940  138.8820 C   0  0  0  0  0  2  0  0  0  0  0  0
  189.8810  173.1530  140.5210 C   0  0  0  0  0  2  0  0  0  0  0  0
  190.6360  173.7720  141.7040 C   0  0  1  0  0  3  0  0  0  0  0  0
  190.0060  171.5300  142.6280 C   0  0  0  0  0  1  0  0  0  0  0  0
  190.5530  172.9070  142.9830 C   0  0  0  0  0  0  0  0  0  0  0  0
  191.9600  172.7110  143.5370 C   0  0  0  0  0  1  0  0  0  0  0  0
  189.6520  173.5820  144.0340 C   0  0  0  0  0  2  0  0  0  0  0  0
  190.4070  174.4560  145.0300 C   0  0  0  0  0  3  0  0  0  0  0  0
  190.3960  175.3530  147.3490 C   0  0  0  0  0  2  0  0  0  0  0  0
  190.9500  176.7910  145.7000 C   0  0  0  0  0  2  0  0  0  0  0  0
  190.1620  176.6510  146.8560 O   0  0  0  0  0  0  0  0  0  0  0  0
  190.3900  175.9160  144.5780 C   0  0  0  0  0  2  0  0  0  0  0  0
  189.7700  174.3210  146.4120 C   0  0  0  0  0  2  0  0  0  0  0  0
  192.0430  174.1460  141.3140 C   0  0  0  0  0  3  0  0  0  0  0  0
  192.4140  174.0900  140.1510 O   0  0  0  0  0  0  0  0  0  0  0  0
  183.6790  178.7550  140.4340 C   0  0  0  0  0  2  0  0  0  0  0  0
  182.4270  177.1490  139.4670 O   0  0  0  0  0  1  0  0  0  0  0  0
  182.5390  177.8670  140.6080 N   0  0  0  0  0  0  0  0  0  0  0  0
  181.3490  178.7000  140.7020 C   0  0  0  0  0  2  0  0  0  0  0  0
  180.3200  178.0460  141.6180 C   0  0  0  0  0  2  0  0  0  0  0  0
  178.5270  179.1260  142.7870 O   0  0  0  0  0  1  0  0  0  0  0  0
  178.9440  178.7010  141.5240 C   0  0  0  0  0  0  0  0  0  0  0  0
  178.0120  177.8050  141.0020 O   0  0  0  0  0  1  0  0  0  0  0  0
  179.0360  179.9030  140.6080 C   0  0  0  0  0  1  0  0  0  0  0  0
  1  6  1  0  0  0  0
  2 12  2  0  0  0  0
  2 11  1  0  0  0  0
  3 10  1  0  0  0  0
  4  8  1  0  0  0  0
  5  1  1  0  0  0  0
  7  4  1  0  0  0  0
  7  9  1  1  0  0  0
  8  1  2  0  0  0  0
  9  5  2  0  0  0  0
 10 11  2  0  0  0  0
 11  7  1  0  0  0  0
 12 15  1  0  0  0  0
 13  2  1  0  0  0  0
 14 13  2  0  0  0  0
 14  3  1  0  0  0  0
 15  4  2  0  0  0  0
 16  3  1  1  0  0  0
 16 17  1  0  0  0  0
 18 16  1  0  0  0  0
 19 21  1  6  0  0  0
 19 17  1  0  0  0  0
 20 18  1  0  0  0  0
 20 19  1  0  0  0  0
 22 21  1  6  0  0  0
 22 24  1  0  0  0  0
 23 24  1  0  0  0  0
 24 25  1  0  0  0  0
 24 26  1  0  0  0  0
 26 27  1  0  0  0  0
 27 32  1  0  0  0  0
 29 30  1  0  0  0  0
 30 28  1  0  0  0  0
 31 27  1  0  0  0  0
 31 29  1  0  0  0  0
 32 28  1  0  0  0  0
 33 22  1  0  0  0  0
 34 33  2  0  0  0  0
 35 37  1  0  0  0  0
 35 13  1  0  0  0  0
 36 37  1  0  0  0  0
 37 38  1  0  0  0  0
 38 39  1  0  0  0  0
 41 39  1  0  0  0  0
 41 40  1  0  0  0  0
 42 41  1  0  0  0  0
 43 41  1  0  0  0  0
M  END
>  <MODEL>
2

>  <REMARK>
 VINA RESULT:      -7.3      4.335     10.654
  Name = 
  12 active torsions:
  status: ('A' for Active; 'I' for Inactive)
    1  A    between atoms: C_1  and  C_34
    2  A    between atoms: C_1  and  N_35
    3  A    between atoms: C_2  and  N_13
    4  A    between atoms: C_3  and  C_4
    5  A    between atoms: C_3  and  C_12
    6  A    between atoms: C_4  and  C_15
    7  A    between atoms: C_4  and  C_22
    8  A    between atoms: C_11  and  C_14
    9  A    between atoms: C_14  and  C_22
   10  A    between atoms: C_19  and  C_39
   11  A    between atoms: C_28  and  N_35
   12  A    between atoms: C_28  and  C_39
                            x       y       z     vdW  Elec       q    Type
                         _______ _______ _______ _____ _____    ______ ____

>  <TORSDO>
F 12

$$$$
=
 OpenBabel11052421003D

 43 47  0  0  1  0  0  0  0  0999 V2000
  184.8410  178.1570  145.7460 C   0  0  0  0  0  0  0  0  0  0  0  0
  189.7060  176.6160  145.3280 C   0  0  0  0  0  0  0  0  0  0  0  0
  189.9930  175.2140  142.9230 N   0  0  0  0  0  0  0  0  0  0  0  0
  187.1270  177.5040  146.2320 C   0  0  0  0  0  0  0  0  0  0  0  0
  185.0310  177.6770  144.3580 C   0  0  0  0  0  3  0  0  0  0  0  0
  183.6300  178.7210  146.1170 O   0  0  0  0  0  1  0  0  0  0  0  0
  187.1350  176.5670  145.0430 C   0  0  1  0  0  3  0  0  0  0  0  0
  185.8450  178.1030  146.6290 C   0  0  0  0  0  3  0  0  0  0  0  0
  186.1220  176.9840  144.0060 C   0  0  0  0  0  3  0  0  0  0  0  0
  188.6780  175.5970  143.3700 C   0  0  0  0  0  3  0  0  0  0  0  0
  188.5160  176.2900  144.5010 C   0  0  0  0  0  0  0  0  0  0  0  0
  189.5580  177.2960  146.4720 C   0  0  0  0  0  3  0  0  0  0  0  0
  191.0460  176.1870  144.8610 C   0  0  0  0  0  0  0  0  0  0  0  0
  191.1540  175.5300  143.7040 C   0  0  0  0  0  3  0  0  0  0  0  0
  188.2390  177.7870  146.9140 C   0  0  0  0  0  3  0  0  0  0  0  0
  190.1850  174.5460  141.6420 C   0  0  1  0  0  3  0  0  0  0  0  0
  190.8410  173.1830  141.8150 C   0  0  0  0  0  2  0  0  0  0  0  0
  188.6090  174.3460  140.7690 S   0  0  0  0  0  0  0  0  0  0  0  0
  190.2150  172.2010  140.8410 C   0  0  1  0  0  3  0  0  0  0  0  0
  189.3520  172.9720  139.8600 C   0  0  0  0  0  2  0  0  0  0  0  0
  191.3100  171.4340  140.1130 C   0  0  0  0  0  2  0  0  0  0  0  0
  192.6560  172.1650  140.1780 C   0  0  1  0  0  3  0  0  0  0  0  0
  194.1160  170.2170  139.5900 C   0  0  0  0  0  1  0  0  0  0  0  0
  193.8080  171.2540  140.6620 C   0  0  0  0  0  0  0  0  0  0  0  0
  195.0610  172.1030  140.8520 C   0  0  0  0  0  1  0  0  0  0  0  0
  193.4270  170.5580  141.9820 C   0  0  0  0  0  2  0  0  0  0  0  0
  194.2400  171.0230  143.1860 C   0  0  0  0  0  3  0  0  0  0  0  0
  195.5440  170.2610  145.1610 C   0  0  0  0  0  2  0  0  0  0  0  0
  194.1280  171.9920  145.4760 C   0  0  0  0  0  2  0  0  0  0  0  0
  194.5520  170.7670  146.0230 O   0  0  0  0  0  0  0  0  0  0  0  0
  193.3400  171.7430  144.1900 C   0  0  0  0  0  2  0  0  0  0  0  0
  194.9100  169.8180  143.8440 C   0  0  0  0  0  2  0  0  0  0  0  0
  192.9500  172.8790  138.8820 C   0  0  0  0  0  3  0  0  0  0  0  0
  192.6690  174.0580  138.7320 O   0  0  0  0  0  0  0  0  0  0  0  0
  192.2900  176.5460  145.6090 C   0  0  0  0  0  2  0  0  0  0  0  0
  192.3700  175.2050  147.4190 O   0  0  0  0  0  1  0  0  0  0  0  0
  192.8900  175.3500  146.1790 N   0  0  0  0  0  0  0  0  0  0  0  0
  194.3120  175.6120  146.3460 C   0  0  0  0  0  2  0  0  0  0  0  0
  194.8240  176.4890  145.2080 C   0  0  0  0  0  2  0  0  0  0  0  0
  196.5090  174.8030  144.9500 O   0  0  0  0  0  1  0  0  0  0  0  0
  195.7440  175.7370  144.2490 C   0  0  0  0  0  0  0  0  0  0  0  0
  196.5880  176.6280  143.5860 O   0  0  0  0  0  1  0  0  0  0  0  0
  194.8960  175.0110  143.2270 C   0  0  0  0  0  1  0  0  0  0  0  0
  1  6  1  0  0  0  0
  1  8  2  0  0  0  0
  2 12  2  0  0  0  0
  3 10  1  0  0  0  0
  3 14  1  0  0  0  0
  4  8  1  0  0  0  0
  4 15  2  0  0  0  0
  5  1  1  0  0  0  0
  7  9  1  6  0  0  0
  7  4  1  0  0  0  0
  9  5  2  0  0  0  0
 10 11  2  0  0  0  0
 11  7  1  0  0  0  0
 11  2  1  0  0  0  0
 12 15  1  0  0  0  0
 13  2  1  0  0  0  0
 13 35  1  0  0  0  0
 14 13  2  0  0  0  0
 16 17  1  1  0  0  0
 16  3  1  0  0  0  0
 18 16  1  0  0  0  0
 19 21  1  6  0  0  0
 19 17  1  0  0  0  0
 20 18  1  0  0  0  0
 20 19  1  0  0  0  0
 21 22  1  0  0  0  0
 22 33  1  6  0  0  0
 22 24  1  0  0  0  0
 23 24  1  0  0  0  0
 24 25  1  0  0  0  0
 24 26  1  0  0  0  0
 26 27  1  0  0  0  0
 27 32  1  0  0  0  0
 27 31  1  0  0  0  0
 28 30  1  0  0  0  0
 29 30  1  0  0  0  0
 31 29  1  0  0  0  0
 32 28  1  0  0  0  0
 34 33  2  0  0  0  0
 35 37  1  0  0  0  0
 37 38  1  0  0  0  0
 37 36  1  0  0  0  0
 39 38  1  0  0  0  0
 41 40  1  0  0  0  0
 41 39  1  0  0  0  0
 42 41  1  0  0  0  0
 43 41  1  0  0  0  0
M  END
>  <MODEL>
3

>  <REMARK>
 VINA RESULT:      -7.1      2.310      8.666
  Name = 
  12 active torsions:
  status: ('A' for Active; 'I' for Inactive)
    1  A    between atoms: C_1  and  C_34
    2  A    between atoms: C_1  and  N_35
    3  A    between atoms: C_2  and  N_13
    4  A    between atoms: C_3  and  C_4
    5  A    between atoms: C_3  and  C_12
    6  A    between atoms: C_4  and  C_15
    7  A    between atoms: C_4  and  C_22
    8  A    between atoms: C_11  and  C_14
    9  A    between atoms: C_14  and  C_22
   10  A    between atoms: C_19  and  C_39
   11  A    between atoms: C_28  and  N_35
   12  A    between atoms: C_28  and  C_39
                            x       y       z     vdW  Elec       q    Type
                         _______ _______ _______ _____ _____    ______ ____

>  <TORSDO>
F 12

$$$$
=
 OpenBabel11052421003D

 43 47  0  0  1  0  0  0  0  0999 V2000
  183.8400  178.5990  143.6120 C   0  0  0  0  0  0  0  0  0  0  0  0
  188.4070  176.7230  144.9690 C   0  0  0  0  0  0  0  0  0  0  0  0
  189.3660  175.1200  142.8850 N   0  0  0  0  0  0  0  0  0  0  0  0
  185.7610  177.8420  144.8850 C   0  0  0  0  0  0  0  0  0  0  0  0
  184.4450  178.0000  142.4000 C   0  0  0  0  0  3  0  0  0  0  0  0
  182.6280  179.2660  143.5150 O   0  0  0  0  0  1  0  0  0  0  0  0
  186.0890  176.8150  143.8220 C   0  0  1  0  0  3  0  0  0  0  0  0
  184.4780  178.5510  144.7870 C   0  0  0  0  0  3  0  0  0  0  0  0
  185.5260  177.2130  142.4800 C   0  0  0  0  0  3  0  0  0  0  0  0
  188.0160  175.6200  142.8330 C   0  0  0  0  0  3  0  0  0  0  0  0
  187.5420  176.4090  143.8020 C   0  0  0  0  0  0  0  0  0  0  0  0
  187.9410  177.4990  145.9550 C   0  0  0  0  0  3  0  0  0  0  0  0
  189.7830  176.1740  145.0130 C   0  0  0  0  0  0  0  0  0  0  0  0
  190.2180  175.4220  143.9990 C   0  0  0  0  0  3  0  0  0  0  0  0
  186.5980  178.1060  145.8920 C   0  0  0  0  0  3  0  0  0  0  0  0
  189.9210  174.3420  141.7850 C   0  0  1  0  0  3  0  0  0  0  0  0
  191.2560  173.7140  142.1620 C   0  0  0  0  0  2  0  0  0  0  0  0
  188.7720  173.0400  141.2630 S   0  0  0  0  0  0  0  0  0  0  0  0
  191.3350  172.3180  141.5680 C   0  0  1  0  0  3  0  0  0  0  0  0
  190.1880  172.1380  140.5920 C   0  0  0  0  0  2  0  0  0  0  0  0
  192.6740  172.1360  140.8680 C   0  0  0  0  0  2  0  0  0  0  0  0
  193.6910  173.2020  141.2970 C   0  0  1  0  0  3  0  0  0  0  0  0
  195.2590  171.2620  141.5220 C   0  0  0  0  0  1  0  0  0  0  0  0
  194.8670  172.6130  142.1080 C   0  0  0  0  0  0  0  0  0  0  0  0
  196.0730  173.5380  141.9710 C   0  0  0  0  0  1  0  0  0  0  0  0
  194.4770  172.4570  143.5900 C   0  0  0  0  0  2  0  0  0  0  0  0
  194.9840  171.1700  144.2320 C   0  0  0  0  0  3  0  0  0  0  0  0
  194.3070  169.1360  145.4940 C   0  0  0  0  0  2  0  0  0  0  0  0
  196.1780  170.1930  146.1860 C   0  0  0  0  0  2  0  0  0  0  0  0
  194.9800  169.6100  146.6370 O   0  0  0  0  0  0  0  0  0  0  0  0
  195.8750  171.4890  145.4320 C   0  0  0  0  0  2  0  0  0  0  0  0
  193.7940  170.3160  144.6680 C   0  0  0  0  0  2  0  0  0  0  0  0
  194.1230  174.0440  140.1230 C   0  0  0  0  0  3  0  0  0  0  0  0
  194.1190  173.5950  138.9870 O   0  0  0  0  0  0  0  0  0  0  0  0
  190.7280  176.5110  146.1220 C   0  0  0  0  0  2  0  0  0  0  0  0
  190.6030  175.0980  147.8740 O   0  0  0  0  0  1  0  0  0  0  0  0
  191.2610  175.2910  146.7080 N   0  0  0  0  0  0  0  0  0  0  0  0
  192.6540  175.5430  147.0460 C   0  0  0  0  0  2  0  0  0  0  0  0
  193.5740  174.8280  146.0620 C   0  0  0  0  0  2  0  0  0  0  0  0
  194.0030  175.9790  144.0030 O   0  0  0  0  0  1  0  0  0  0  0  0
  194.4840  175.7880  145.2990 C   0  0  0  0  0  0  0  0  0  0  0  0
  195.7840  175.2850  145.2450 O   0  0  0  0  0  1  0  0  0  0  0  0
  194.5030  177.1200  146.0180 C   0  0  0  0  0  1  0  0  0  0  0  0
  1  8  2  0  0  0  0
  2 13  1  0  0  0  0
  2 12  2  0  0  0  0
  3 14  1  0  0  0  0
  4 15  2  0  0  0  0
  5  9  2  0  0  0  0
  5  1  1  0  0  0  0
  6  1  1  0  0  0  0
  7  9  1  6  0  0  0
  7  4  1  0  0  0  0
  8  4  1  0  0  0  0
 10  3  1  0  0  0  0
 10 11  2  0  0  0  0
 11  7  1  0  0  0  0
 11  2  1  0  0  0  0
 13 35  1  0  0  0  0
 14 13  2  0  0  0  0
 15 12  1  0  0  0  0
 16 17  1  1  0  0  0
 16  3  1  0  0  0  0
 18 16  1  0  0  0  0
 19 21  1  6  0  0  0
 19 17  1  0  0  0  0
 20 18  1  0  0  0  0
 20 19  1  0  0  0  0
 21 22  1  0  0  0  0
 22 33  1  6  0  0  0
 22 24  1  0  0  0  0
 23 24  1  0  0  0  0
 24 26  1  0  0  0  0
 25 24  1  0  0  0  0
 26 27  1  0  0  0  0
 27 32  1  0  0  0  0
 27 31  1  0  0  0  0
 28 30  1  0  0  0  0
 29 30  1  0  0  0  0
 31 29  1  0  0  0  0
 32 28  1  0  0  0  0
 34 33  2  0  0  0  0
 35 37  1  0  0  0  0
 37 38  1  0  0  0  0
 37 36  1  0  0  0  0
 39 38  1  0  0  0  0
 40 41  1  0  0  0  0
 41 43  1  0  0  0  0
 41 39  1  0  0  0  0
 42 41  1  0  0  0  0
M  END
>  <MODEL>
4

>  <REMARK>
 VINA RESULT:      -7.1      2.195      9.304
  Name = 
  12 active torsions:
  status: ('A' for Active; 'I' for Inactive)
    1  A    between atoms: C_1  and  C_34
    2  A    between atoms: C_1  and  N_35
    3  A    between atoms: C_2  and  N_13
    4  A    between atoms: C_3  and  C_4
    5  A    between atoms: C_3  and  C_12
    6  A    between atoms: C_4  and  C_15
    7  A    between atoms: C_4  and  C_22
    8  A    between atoms: C_11  and  C_14
    9  A    between atoms: C_14  and  C_22
   10  A    between atoms: C_19  and  C_39
   11  A    between atoms: C_28  and  N_35
   12  A    between atoms: C_28  and  C_39
                            x       y       z     vdW  Elec       q    Type
                         _______ _______ _______ _____ _____    ______ ____

>  <TORSDO>
F 12

$$$$
=
 OpenBabel11052421003D

 43 47  0  0  1  0  0  0  0  0999 V2000
  196.5640  175.3250  142.7960 C   0  0  0  0  0  0  0  0  0  0  0  0
  191.6190  174.0400  142.4630 C   0  0  0  0  0  0  0  0  0  0  0  0
  190.1450  175.7250  144.1430 N   0  0  0  0  0  0  0  0  0  0  0  0
  194.4900  174.1190  142.4280 C   0  0  0  0  0  0  0  0  0  0  0  0
  195.7870  176.3980  143.4590 C   0  0  0  0  0  3  0  0  0  0  0  0
  197.9370  175.4590  142.6580 O   0  0  0  0  0  1  0  0  0  0  0  0
  193.8120  174.9060  143.5280 C   0  0  0  0  0  0  0  0  0  0  0  0
  195.9460  174.2570  142.2780 C   0  0  0  0  0  2  0  0  0  0  0  0
  194.4900  176.2350  143.7540 C   0  0  0  0  0  3  0  0  0  0  0  0
  191.5840  175.7560  144.1900 C   0  0  0  0  0  3  0  0  0  0  0  0
  192.3120  174.9800  143.3800 C   0  0  0  0  0  0  0  0  0  0  0  0
  192.3340  173.2450  141.6570 C   0  0  0  0  0  3  0  0  0  0  0  0
  190.1370  174.0070  142.4520 C   0  0  0  0  0  0  0  0  0  0  0  0
  189.4600  174.8310  143.2550 C   0  0  0  0  0  3  0  0  0  0  0  0
  193.8060  173.3160  141.6100 C   0  0  0  0  0  3  0  0  0  0  0  0
  189.3480  176.6380  144.9510 C   0  0  1  0  0  3  0  0  0  0  0  0
  188.0140  176.0180  145.3440 C   0  0  0  0  0  2  0  0  0  0  0  0
  190.2430  177.1330  146.4480 S   0  0  0  0  0  0  0  0  0  0  0  0
  187.6800  176.4160  146.7720 C   0  0  1  0  0  3  0  0  0  0  0  0
  188.6460  177.4990  147.2130 C   0  0  0  0  0  2  0  0  0  0  0  0
  186.2430  176.9110  146.8410 C   0  0  0  0  0  2  0  0  0  0  0  0
  186.1340  178.3970  146.4810 C   0  0  1  0  0  3  0  0  0  0  0  0
  183.7490  178.6650  145.7640 C   0  0  0  0  0  1  0  0  0  0  0  0
  185.1940  178.6540  145.2810 C   0  0  0  0  0  0  0  0  0  0  0  0
  185.4940  180.0350  144.7060 C   0  0  0  0  0  1  0  0  0  0  0  0
  185.3860  177.5710  144.2030 C   0  0  0  0  0  2  0  0  0  0  0  0
  185.6790  178.1250  142.8120 C   0  0  0  0  0  3  0  0  0  0  0  0
  184.8290  178.2900  140.4810 C   0  0  0  0  0  2  0  0  0  0  0  0
  187.0260  177.8360  140.7390 C   0  0  0  0  0  2  0  0  0  0  0  0
  185.8710  177.4550  140.0330 O   0  0  0  0  0  0  0  0  0  0  0  0
  186.8970  177.4280  142.2070 C   0  0  0  0  0  2  0  0  0  0  0  0
  184.4560  177.9270  141.9180 C   0  0  0  0  0  2  0  0  0  0  0  0
  185.8090  179.2280  147.6960 C   0  0  0  0  0  3  0  0  0  0  0  0
  186.6920  179.7120  148.3880 O   0  0  0  0  0  0  0  0  0  0  0  0
  189.3780  173.1360  141.5020 C   0  0  0  0  0  2  0  0  0  0  0  0
  188.3150  174.6130  140.1720 O   0  0  0  0  0  1  0  0  0  0  0  0
  189.3520  173.7450  140.1810 N   0  0  0  0  0  0  0  0  0  0  0  0
  189.0330  172.6960  139.2240 C   0  0  0  0  0  2  0  0  0  0  0  0
  188.5650  173.3080  137.9070 C   0  0  0  0  0  2  0  0  0  0  0  0
  190.9070  173.2500  137.3980 O   0  0  0  0  0  1  0  0  0  0  0  0
  189.6360  173.2630  136.8210 C   0  0  0  0  0  0  0  0  0  0  0  0
  189.5190  174.3660  135.9750 O   0  0  0  0  0  1  0  0  0  0  0  0
  189.4540  171.9990  136.0070 C   0  0  0  0  0  1  0  0  0  0  0  0
  1  5  2  0  0  0  0
  2 11  1  0  0  0  0
  3 10  1  0  0  0  0
  4  7  1  0  0  0  0
  5  9  1  0  0  0  0
  6  1  1  0  0  0  0
  7  9  2  0  0  0  0
  8  4  1  0  0  0  0
  8  1  1  0  0  0  0
 11  7  1  0  0  0  0
 11 10  2  0  0  0  0
 12  2  2  0  0  0  0
 13  2  1  0  0  0  0
 13 14  2  0  0  0  0
 14  3  1  0  0  0  0
 15 12  1  0  0  0  0
 15  4  2  0  0  0  0
 16  3  1  1  0  0  0
 16 17  1  0  0  0  0
 16 18  1  0  0  0  0
 17 19  1  0  0  0  0
 18 20  1  0  0  0  0
 19 21  1  6  0  0  0
 19 20  1  0  0  0  0
 22 21  1  1  0  0  0
 22 33  1  0  0  0  0
 24 23  1  0  0  0  0
 24 22  1  0  0  0  0
 25 24  1  0  0  0  0
 26 24  1  0  0  0  0
 27 26  1  0  0  0  0
 28 32  1  0  0  0  0
 29 31  1  0  0  0  0
 30 28  1  0  0  0  0
 30 29  1  0  0  0  0
 31 27  1  0  0  0  0
 32 27  1  0  0  0  0
 33 34  2  0  0  0  0
 35 13  1  0  0  0  0
 36 37  1  0  0  0  0
 37 35  1  0  0  0  0
 38 37  1  0  0  0  0
 39 38  1  0  0  0  0
 41 40  1  0  0  0  0
 41 39  1  0  0  0  0
 42 41  1  0  0  0  0
 43 41  1  0  0  0  0
M  END
>  <MODEL>
5

>  <REMARK>
 VINA RESULT:      -7.0      3.657      6.669
  Name = 
  12 active torsions:
  status: ('A' for Active; 'I' for Inactive)
    1  A    between atoms: C_1  and  C_34
    2  A    between atoms: C_1  and  N_35
    3  A    between atoms: C_2  and  N_13
    4  A    between atoms: C_3  and  C_4
    5  A    between atoms: C_3  and  C_12
    6  A    between atoms: C_4  and  C_15
    7  A    between atoms: C_4  and  C_22
    8  A    between atoms: C_11  and  C_14
    9  A    between atoms: C_14  and  C_22
   10  A    between atoms: C_19  and  C_39
   11  A    between atoms: C_28  and  N_35
   12  A    between atoms: C_28  and  C_39
                            x       y       z     vdW  Elec       q    Type
                         _______ _______ _______ _____ _____    ______ ____

>  <TORSDO>
F 12

$$$$
=
 OpenBabel11052421003D

 43 47  0  0  1  0  0  0  0  0999 V2000
  185.9220  179.1010  144.0320 C   0  0  0  0  0  0  0  0  0  0  0  0
  189.0780  175.0700  143.9680 C   0  0  0  0  0  0  0  0  0  0  0  0
  189.3410  174.1870  141.3250 N   0  0  0  0  0  0  0  0  0  0  0  0
  187.2230  177.1510  144.6610 C   0  0  0  0  0  0  0  0  0  0  0  0
  186.2660  178.8370  142.6160 C   0  0  0  0  0  3  0  0  0  0  0  0
  185.1440  180.2030  144.3550 O   0  0  0  0  0  1  0  0  0  0  0  0
  187.1190  176.6010  143.2540 C   0  0  1  0  0  3  0  0  0  0  0  0
  186.4000  178.3190  145.0080 C   0  0  0  0  0  3  0  0  0  0  0  0
  186.8740  177.7010  142.2500 C   0  0  0  0  0  3  0  0  0  0  0  0
  188.3640  175.1950  141.6430 C   0  0  0  0  0  3  0  0  0  0  0  0
  188.2360  175.6530  142.8930 C   0  0  0  0  0  0  0  0  0  0  0  0
  188.9510  175.5070  145.2270 C   0  0  0  0  0  3  0  0  0  0  0  0
  190.0580  174.0140  143.6200 C   0  0  0  0  0  0  0  0  0  0  0  0
  190.1710  173.6200  142.3490 C   0  0  0  0  0  3  0  0  0  0  0  0
  188.0280  176.6030  145.5740 C   0  0  0  0  0  3  0  0  0  0  0  0
  189.5550  173.7550  139.9500 C   0  0  1  0  0  3  0  0  0  0  0  0
  190.9920  173.3090  139.7200 C   0  0  0  0  0  2  0  0  0  0  0  0
  188.4300  172.4030  139.5100 S   0  0  0  0  0  0  0  0  0  0  0  0
  190.9980  172.0970  138.8050 C   0  0  1  0  0  3  0  0  0  0  0  0
  189.6070  171.9170  138.2270 C   0  0  0  0  0  2  0  0  0  0  0  0
  192.0230  172.2980  137.6980 C   0  0  0  0  0  2  0  0  0  0  0  0
  192.2370  173.7840  137.3830 C   0  0  1  0  0  3  0  0  0  0  0  0
  194.3780  173.4400  136.1290 C   0  0  0  0  0  1  0  0  0  0  0  0
  193.7330  174.1670  137.3020 C   0  0  0  0  0  0  0  0  0  0  0  0
  193.8440  175.6640  137.0300 C   0  0  0  0  0  1  0  0  0  0  0  0
  194.4550  173.8060  138.6140 C   0  0  0  0  0  2  0  0  0  0  0  0
  194.8630  175.0140  139.4510 C   0  0  0  0  0  3  0  0  0  0  0  0
  196.7180  176.0420  140.7490 C   0  0  0  0  0  2  0  0  0  0  0  0
  194.6570  176.1280  141.6670 C   0  0  0  0  0  2  0  0  0  0  0  0
  196.0040  175.8380  141.9460 O   0  0  0  0  0  0  0  0  0  0  0  0
  194.0700  175.0480  140.7570 C   0  0  0  0  0  2  0  0  0  0  0  0
  196.3610  174.9500  139.7410 C   0  0  0  0  0  2  0  0  0  0  0  0
  191.4360  174.2040  136.1770 C   0  0  0  0  0  3  0  0  0  0  0  0
  190.3760  174.7990  136.2980 O   0  0  0  0  0  0  0  0  0  0  0  0
  190.9860  173.4370  144.6410 C   0  0  0  0  0  2  0  0  0  0  0  0
  192.8220  172.1300  144.5780 O   0  0  0  0  0  1  0  0  0  0  0  0
  192.3160  173.2780  144.0720 N   0  0  0  0  0  0  0  0  0  0  0  0
  193.1410  174.3630  144.5810 C   0  0  0  0  0  2  0  0  0  0  0  0
  192.7540  174.6890  146.0200 C   0  0  0  0  0  2  0  0  0  0  0  0
  191.9520  176.4460  147.4390 O   0  0  0  0  0  1  0  0  0  0  0  0
  192.7090  176.1900  146.2940 C   0  0  0  0  0  0  0  0  0  0  0  0
  192.1550  176.8670  145.2080 O   0  0  0  0  0  1  0  0  0  0  0  0
  194.1200  176.6890  146.5160 C   0  0  0  0  0  1  0  0  0  0  0  0
  1  6  1  0  0  0  0
  1  8  2  0  0  0  0
  2 12  2  0  0  0  0
  3 10  1  0  0  0  0
  3 14  1  0  0  0  0
  4  8  1  0  0  0  0
  4 15  2  0  0  0  0
  5  1  1  0  0  0  0
  7  9  1  6  0  0  0
  7  4  1  0  0  0  0
  9  5  2  0  0  0  0
 10 11  2  0  0  0  0
 11  7  1  0  0  0  0
 11  2  1  0  0  0  0
 12 15  1  0  0  0  0
 13  2  1  0  0  0  0
 13 35  1  0  0  0  0
 14 13  2  0  0  0  0
 16 17  1  1  0  0  0
 16  3  1  0  0  0  0
 18 16  1  0  0  0  0
 19 21  1  6  0  0  0
 19 17  1  0  0  0  0
 20 19  1  0  0  0  0
 20 18  1  0  0  0  0
 22 33  1  6  0  0  0
 22 21  1  0  0  0  0
 23 24  1  0  0  0  0
 24 22  1  0  0  0  0
 24 26  1  0  0  0  0
 25 24  1  0  0  0  0
 26 27  1  0  0  0  0
 27 32  1  0  0  0  0
 27 31  1  0  0  0  0
 28 30  1  0  0  0  0
 29 30  1  0  0  0  0
 31 29  1  0  0  0  0
 32 28  1  0  0  0  0
 33 34  2  0  0  0  0
 37 36  1  0  0  0  0
 37 38  1  0  0  0  0
 37 35  1  0  0  0  0
 38 39  1  0  0  0  0
 39 41  1  0  0  0  0
 41 43  1  0  0  0  0
 41 40  1  0  0  0  0
 42 41  1  0  0  0  0
M  END
>  <MODEL>
6

>  <REMARK>
 VINA RESULT:      -7.0      3.237      8.758
  Name = 
  12 active torsions:
  status: ('A' for Active; 'I' for Inactive)
    1  A    between atoms: C_1  and  C_34
    2  A    between atoms: C_1  and  N_35
    3  A    between atoms: C_2  and  N_13
    4  A    between atoms: C_3  and  C_4
    5  A    between atoms: C_3  and  C_12
    6  A    between atoms: C_4  and  C_15
    7  A    between atoms: C_4  and  C_22
    8  A    between atoms: C_11  and  C_14
    9  A    between atoms: C_14  and  C_22
   10  A    between atoms: C_19  and  C_39
   11  A    between atoms: C_28  and  N_35
   12  A    between atoms: C_28  and  C_39
                            x       y       z     vdW  Elec       q    Type
                         _______ _______ _______ _____ _____    ______ ____

>  <TORSDO>
F 12

$$$$
=
 OpenBabel11052421003D

 43 47  0  0  1  0  0  0  0  0999 V2000
  183.7680  178.6830  143.5740 C   0  0  0  0  0  0  0  0  0  0  0  0
  188.1370  176.8110  145.4780 C   0  0  0  0  0  0  0  0  0  0  0  0
  189.2250  175.0240  143.6190 N   0  0  0  0  0  0  0  0  0  0  0  0
  185.5460  177.9830  145.0700 C   0  0  0  0  0  0  0  0  0  0  0  0
  184.4580  177.9750  142.4720 C   0  0  0  0  0  3  0  0  0  0  0  0
  182.5910  179.3700  143.3170 O   0  0  0  0  0  1  0  0  0  0  0  0
  185.9330  176.8680  144.1240 C   0  0  1  0  0  3  0  0  0  0  0  0
  184.2980  178.7140  144.8020 C   0  0  0  0  0  3  0  0  0  0  0  0
  185.5030  177.1710  142.7100 C   0  0  0  0  0  3  0  0  0  0  0  0
  187.9010  175.5510  143.4070 C   0  0  0  0  0  3  0  0  0  0  0  0
  187.3690  176.4260  144.2660 C   0  0  0  0  0  0  0  0  0  0  0  0
  187.6100  177.6740  146.3550 C   0  0  0  0  0  3  0  0  0  0  0  0
  189.4860  176.2340  145.6880 C   0  0  0  0  0  0  0  0  0  0  0  0
  189.9850  175.3930  144.7780 C   0  0  0  0  0  3  0  0  0  0  0  0
  186.2980  178.3070  146.1250 C   0  0  0  0  0  3  0  0  0  0  0  0
  189.8500  174.1480  142.6370 C   0  0  1  0  0  3  0  0  0  0  0  0
  189.9420  172.7150  143.1440 C   0  0  0  0  0  2  0  0  0  0  0  0
  188.9380  174.1710  141.0700 S   0  0  0  0  0  0  0  0  0  0  0  0
  189.6560  171.7610  141.9970 C   0  0  1  0  0  3  0  0  0  0  0  0
  189.6430  172.5480  140.7000 C   0  0  0  0  0  2  0  0  0  0  0  0
  190.7190  170.6730  141.9590 C   0  0  0  0  0  2  0  0  0  0  0  0
  191.5500  170.7330  140.6710 C   0  0  1  0  0  3  0  0  0  0  0  0
  193.8810  169.9130  141.0800 C   0  0  0  0  0  1  0  0  0  0  0  0
  193.0150  171.1570  140.9250 C   0  0  0  0  0  0  0  0  0  0  0  0
  193.5260  171.9200  139.7070 C   0  0  0  0  0  1  0  0  0  0  0  0
  193.1130  172.0340  142.1870 C   0  0  0  0  0  2  0  0  0  0  0  0
  194.2600  171.6540  143.1190 C   0  0  0  0  0  3  0  0  0  0  0  0
  194.9570  171.4770  145.4990 C   0  0  0  0  0  2  0  0  0  0  0  0
  196.4510  172.3690  144.0600 C   0  0  0  0  0  2  0  0  0  0  0  0
  195.8590  172.5440  145.3230 O   0  0  0  0  0  0  0  0  0  0  0  0
  195.4210  172.6360  142.9610 C   0  0  0  0  0  2  0  0  0  0  0  0
  193.7620  171.6490  144.5630 C   0  0  0  0  0  2  0  0  0  0  0  0
  191.4150  169.4580  139.8780 C   0  0  0  0  0  3  0  0  0  0  0  0
  190.6770  169.3920  138.9070 O   0  0  0  0  0  0  0  0  0  0  0  0
  190.3400  176.6350  146.8480 C   0  0  0  0  0  2  0  0  0  0  0  0
  191.1980  175.2850  148.4360 O   0  0  0  0  0  1  0  0  0  0  0  0
  191.3210  175.5970  147.1260 N   0  0  0  0  0  0  0  0  0  0  0  0
  192.6400  176.1880  146.9550 C   0  0  0  0  0  2  0  0  0  0  0  0
  193.4970  175.3110  146.0480 C   0  0  0  0  0  2  0  0  0  0  0  0
  193.1430  177.1960  144.6110 O   0  0  0  0  0  1  0  0  0  0  0  0
  193.7300  175.9310  144.6730 C   0  0  0  0  0  0  0  0  0  0  0  0
  193.1930  175.1180  143.6750 O   0  0  0  0  0  1  0  0  0  0  0  0
  195.2200  176.0680  144.4450 C   0  0  0  0  0  1  0  0  0  0  0  0
  1  8  2  0  0  0  0
  2 13  1  0  0  0  0
  2 12  2  0  0  0  0
  3 14  1  0  0  0  0
  4 15  2  0  0  0  0
  5  9  2  0  0  0  0
  5  1  1  0  0  0  0
  6  1  1  0  0  0  0
  7  9  1  6  0  0  0
  7 11  1  0  0  0  0
  7  4  1  0  0  0  0
  8  4  1  0  0  0  0
 10  3  1  0  0  0  0
 10 11  2  0  0  0  0
 11  2  1  0  0  0  0
 13 35  1  0  0  0  0
 14 13  2  0  0  0  0
 15 12  1  0  0  0  0
 16 17  1  1  0  0  0
 16  3  1  0  0  0  0
 18 16  1  0  0  0  0
 19 21  1  6  0  0  0
 19 17  1  0  0  0  0
 20 18  1  0  0  0  0
 20 19  1  0  0  0  0
 22 33  1  1  0  0  0
 22 24  1  0  0  0  0
 22 21  1  0  0  0  0
 24 23  1  0  0  0  0
 24 26  1  0  0  0  0
 25 24  1  0  0  0  0
 26 27  1  0  0  0  0
 27 32  1  0  0  0  0
 29 30  1  0  0  0  0
 30 28  1  0  0  0  0
 31 27  1  0  0  0  0
 31 29  1  0  0  0  0
 32 28  1  0  0  0  0
 34 33  2  0  0  0  0
 35 37  1  0  0  0  0
 37 36  1  0  0  0  0
 38 37  1  0  0  0  0
 39 38  1  0  0  0  0
 40 41  1  0  0  0  0
 41 39  1  0  0  0  0
 42 41  1  0  0  0  0
 43 41  1  0  0  0  0
M  END
>  <MODEL>
7

>  <REMARK>
 VINA RESULT:      -6.9      2.771      9.356
  Name = 
  12 active torsions:
  status: ('A' for Active; 'I' for Inactive)
    1  A    between atoms: C_1  and  C_34
    2  A    between atoms: C_1  and  N_35
    3  A    between atoms: C_2  and  N_13
    4  A    between atoms: C_3  and  C_4
    5  A    between atoms: C_3  and  C_12
    6  A    between atoms: C_4  and  C_15
    7  A    between atoms: C_4  and  C_22
    8  A    between atoms: C_11  and  C_14
    9  A    between atoms: C_14  and  C_22
   10  A    between atoms: C_19  and  C_39
   11  A    between atoms: C_28  and  N_35
   12  A    between atoms: C_28  and  C_39
                            x       y       z     vdW  Elec       q    Type
                         _______ _______ _______ _____ _____    ______ ____

>  <TORSDO>
F 12

$$$$
=
 OpenBabel11052421003D

 43 47  0  0  1  0  0  0  0  0999 V2000
  185.4190  178.0340  146.5090 C   0  0  0  0  0  0  0  0  0  0  0  0
  188.3050  175.3740  143.2210 C   0  0  0  0  0  0  0  0  0  0  0  0
  190.9280  175.3060  144.1920 N   0  0  0  0  0  0  0  0  0  0  0  0
  186.2820  176.9500  144.5170 C   0  0  0  0  0  0  0  0  0  0  0  0
  186.7140  177.7710  147.1770 C   0  0  0  0  0  3  0  0  0  0  0  0
  184.4020  178.6660  147.2090 O   0  0  0  0  0  1  0  0  0  0  0  0
  187.7040  177.1640  144.9900 C   0  0  1  0  0  3  0  0  0  0  0  0
  185.2010  177.6180  145.2560 C   0  0  0  0  0  3  0  0  0  0  0  0
  187.7680  177.3120  146.4900 C   0  0  0  0  0  3  0  0  0  0  0  0
  189.9540  176.1470  144.8370 C   0  0  0  0  0  3  0  0  0  0  0  0
  188.6880  176.1790  144.4090 C   0  0  0  0  0  0  0  0  0  0  0  0
  187.0450  175.4080  142.7700 C   0  0  0  0  0  3  0  0  0  0  0  0
  189.3320  174.5370  142.5580 C   0  0  0  0  0  0  0  0  0  0  0  0
  190.5730  174.5140  143.0500 C   0  0  0  0  0  3  0  0  0  0  0  0
  185.9980  176.1840  143.4610 C   0  0  0  0  0  3  0  0  0  0  0  0
  192.2840  175.1910  144.7140 C   0  0  1  0  0  3  0  0  0  0  0  0
  193.2760  175.9840  143.8740 C   0  0  0  0  0  2  0  0  0  0  0  0
  192.3690  175.7570  146.4350 S   0  0  0  0  0  0  0  0  0  0  0  0
  194.2940  176.6390  144.7910 C   0  0  1  0  0  3  0  0  0  0  0  0
  194.1320  176.0660  146.1870 C   0  0  0  0  0  2  0  0  0  0  0  0
  195.6970  176.3860  144.2610 C   0  0  0  0  0  2  0  0  0  0  0  0
  195.7730  175.0880  143.4470 C   0  0  1  0  0  3  0  0  0  0  0  0
  196.2080  176.7890  141.6610 C   0  0  0  0  0  1  0  0  0  0  0  0
  196.3130  175.3110  142.0160 C   0  0  0  0  0  0  0  0  0  0  0  0
  197.7910  174.9360  141.9820 C   0  0  0  0  0  1  0  0  0  0  0  0
  195.5210  174.4640  141.0020 C   0  0  0  0  0  2  0  0  0  0  0  0
  195.8610  174.7610  139.5460 C   0  0  0  0  0  3  0  0  0  0  0  0
  194.9030  175.2690  137.3080 C   0  0  0  0  0  2  0  0  0  0  0  0
  196.6020  173.7830  137.3790 C   0  0  0  0  0  2  0  0  0  0  0  0
  195.3270  174.0130  136.8310 O   0  0  0  0  0  0  0  0  0  0  0  0
  196.4840  173.5320  138.8830 C   0  0  0  0  0  2  0  0  0  0  0  0
  194.5940  175.1790  138.8020 C   0  0  0  0  0  2  0  0  0  0  0  0
  196.5020  174.0110  144.2110 C   0  0  0  0  0  3  0  0  0  0  0  0
  196.9460  174.2180  145.3300 O   0  0  0  0  0  0  0  0  0  0  0  0
  188.9950  173.6490  141.4020 C   0  0  0  0  0  2  0  0  0  0  0  0
  188.1920  174.5510  139.4990 O   0  0  0  0  0  1  0  0  0  0  0  0
  189.3500  174.3040  140.1520 N   0  0  0  0  0  0  0  0  0  0  0  0
  190.0890  173.3400  139.3500 C   0  0  0  0  0  2  0  0  0  0  0  0
  191.5770  173.4140  139.6740 C   0  0  0  0  0  2  0  0  0  0  0  0
  191.1530  171.0980  140.1250 O   0  0  0  0  0  1  0  0  0  0  0  0
  192.1540  172.0710  140.1150 C   0  0  0  0  0  0  0  0  0  0  0  0
  192.7140  172.1760  141.3880 O   0  0  0  0  0  1  0  0  0  0  0  0
  193.2320  171.6570  139.1370 C   0  0  0  0  0  1  0  0  0  0  0  0
  1  5  1  0  0  0  0
  1  6  1  0  0  0  0
  2 11  1  0  0  0  0
  3 16  1  0  0  0  0
  3 10  1  0  0  0  0
  4  7  1  0  0  0  0
  4  8  1  0  0  0  0
  7  9  1  1  0  0  0
  8  1  2  0  0  0  0
  9  5  2  0  0  0  0
 11 10  2  0  0  0  0
 11  7  1  0  0  0  0
 12  2  2  0  0  0  0
 12 15  1  0  0  0  0
 13 14  2  0  0  0  0
 13  2  1  0  0  0  0
 14  3  1  0  0  0  0
 15  4  2  0  0  0  0
 16 17  1  6  0  0  0
 16 18  1  0  0  0  0
 17 19  1  0  0  0  0
 19 21  1  6  0  0  0
 19 20  1  0  0  0  0
 20 18  1  0  0  0  0
 22 33  1  1  0  0  0
 22 21  1  0  0  0  0
 23 24  1  0  0  0  0
 24 22  1  0  0  0  0
 25 24  1  0  0  0  0
 26 24  1  0  0  0  0
 27 26  1  0  0  0  0
 28 32  1  0  0  0  0
 29 31  1  0  0  0  0
 30 28  1  0  0  0  0
 30 29  1  0  0  0  0
 31 27  1  0  0  0  0
 32 27  1  0  0  0  0
 33 34  2  0  0  0  0
 35 13  1  0  0  0  0
 36 37  1  0  0  0  0
 37 35  1  0  0  0  0
 38 39  1  0  0  0  0
 38 37  1  0  0  0  0
 39 41  1  0  0  0  0
 41 40  1  0  0  0  0
 41 42  1  0  0  0  0
 43 41  1  0  0  0  0
M  END
>  <MODEL>
8

>  <REMARK>
 VINA RESULT:      -6.9      3.154      9.680
  Name = 
  12 active torsions:
  status: ('A' for Active; 'I' for Inactive)
    1  A    between atoms: C_1  and  C_34
    2  A    between atoms: C_1  and  N_35
    3  A    between atoms: C_2  and  N_13
    4  A    between atoms: C_3  and  C_4
    5  A    between atoms: C_3  and  C_12
    6  A    between atoms: C_4  and  C_15
    7  A    between atoms: C_4  and  C_22
    8  A    between atoms: C_11  and  C_14
    9  A    between atoms: C_14  and  C_22
   10  A    between atoms: C_19  and  C_39
   11  A    between atoms: C_28  and  N_35
   12  A    between atoms: C_28  and  C_39
                            x       y       z     vdW  Elec       q    Type
                         _______ _______ _______ _____ _____    ______ ____

>  <TORSDO>
F 12

$$$$
=
 OpenBabel11052421003D

 43 47  0  0  1  0  0  0  0  0999 V2000
  184.3250  178.5150  144.0310 C   0  0  0  0  0  0  0  0  0  0  0  0
  188.9720  176.4210  144.5160 C   0  0  0  0  0  0  0  0  0  0  0  0
  189.4640  174.8160  142.2760 N   0  0  0  0  0  0  0  0  0  0  0  0
  186.4090  177.6530  144.9260 C   0  0  0  0  0  0  0  0  0  0  0  0
  184.6730  177.9140  142.7230 C   0  0  0  0  0  3  0  0  0  0  0  0
  183.1470  179.2360  144.1630 O   0  0  0  0  0  1  0  0  0  0  0  0
  186.4910  176.6330  143.8110 C   0  0  1  0  0  3  0  0  0  0  0  0
  185.1620  178.4190  145.0700 C   0  0  0  0  0  3  0  0  0  0  0  0
  185.7130  177.0800  142.5970 C   0  0  0  0  0  3  0  0  0  0  0  0
  188.1510  175.3750  142.4750 C   0  0  0  0  0  3  0  0  0  0  0  0
  187.8970  176.1660  143.5230 C   0  0  0  0  0  0  0  0  0  0  0  0
  188.7280  177.1970  145.5780 C   0  0  0  0  0  3  0  0  0  0  0  0
  190.3060  175.8130  144.3030 C   0  0  0  0  0  0  0  0  0  0  0  0
  190.5160  175.0610  143.2190 C   0  0  0  0  0  3  0  0  0  0  0  0
  187.4250  177.8630  145.7660 C   0  0  0  0  0  3  0  0  0  0  0  0
  189.7740  174.0370  141.0850 C   0  0  1  0  0  3  0  0  0  0  0  0
  191.2760  173.8400  140.9210 C   0  0  0  0  0  2  0  0  0  0  0  0
  188.9610  172.4170  141.1370 S   0  0  0  0  0  0  0  0  0  0  0  0
  191.5420  172.4330  140.4150 C   0  0  1  0  0  3  0  0  0  0  0  0
  190.2250  171.8080  139.9970 C   0  0  0  0  0  2  0  0  0  0  0  0
  192.5120  172.4870  139.2430 C   0  0  0  0  0  2  0  0  0  0  0  0
  192.4360  173.8270  138.5020 C   0  0  1  0  0  3  0  0  0  0  0  0
  194.7770  173.3840  137.7310 C   0  0  0  0  0  1  0  0  0  0  0  0
  193.8270  174.4540  138.2550 C   0  0  0  0  0  0  0  0  0  0  0  0
  193.7010  175.5230  137.1740 C   0  0  0  0  0  1  0  0  0  0  0  0
  194.3820  175.0670  139.5540 C   0  0  0  0  0  2  0  0  0  0  0  0
  195.6350  174.3770  140.0800 C   0  0  0  0  0  3  0  0  0  0  0  0
  196.6370  173.2240  142.0420 C   0  0  0  0  0  2  0  0  0  0  0  0
  197.9400  174.7170  140.9590 C   0  0  0  0  0  2  0  0  0  0  0  0
  197.5210  174.3030  142.2370 O   0  0  0  0  0  0  0  0  0  0  0  0
  196.7770  175.3830  140.2210 C   0  0  0  0  0  2  0  0  0  0  0  0
  195.3310  173.7280  141.4290 C   0  0  0  0  0  2  0  0  0  0  0  0
  191.5920  173.7110  137.2570 C   0  0  0  0  0  3  0  0  0  0  0  0
  190.4660  174.1840  137.2100 O   0  0  0  0  0  0  0  0  0  0  0  0
  191.4510  176.0880  145.2260 C   0  0  0  0  0  2  0  0  0  0  0  0
  191.3340  175.1060  147.2520 O   0  0  0  0  0  1  0  0  0  0  0  0
  191.7720  174.8920  145.9900 N   0  0  0  0  0  0  0  0  0  0  0  0
  193.2220  174.7950  146.0580 C   0  0  0  0  0  2  0  0  0  0  0  0
  193.8330  175.0410  144.6820 C   0  0  0  0  0  2  0  0  0  0  0  0
  195.3490  176.4470  143.4710 O   0  0  0  0  0  1  0  0  0  0  0  0
  195.0750  175.9260  144.7360 C   0  0  0  0  0  0  0  0  0  0  0  0
  196.1740  175.1960  145.1880 O   0  0  0  0  0  1  0  0  0  0  0  0
  194.8190  177.0700  145.6940 C   0  0  0  0  0  1  0  0  0  0  0  0
  1  6  1  0  0  0  0
  1  8  2  0  0  0  0
  2 12  2  0  0  0  0
  3 10  1  0  0  0  0
  3 14  1  0  0  0  0
  4  8  1  0  0  0  0
  4 15  2  0  0  0  0
  5  1  1  0  0  0  0
  7  9  1  6  0  0  0
  7  4  1  0  0  0  0
  9  5  2  0  0  0  0
 10 11  2  0  0  0  0
 11  7  1  0  0  0  0
 11  2  1  0  0  0  0
 12 15  1  0  0  0  0
 13  2  1  0  0  0  0
 13 35  1  0  0  0  0
 14 13  2  0  0  0  0
 16 17  1  1  0  0  0
 16 18  1  0  0  0  0
 16  3  1  0  0  0  0
 19 21  1  6  0  0  0
 19 17  1  0  0  0  0
 20 19  1  0  0  0  0
 20 18  1  0  0  0  0
 22 33  1  6  0  0  0
 22 21  1  0  0  0  0
 23 24  1  0  0  0  0
 24 22  1  0  0  0  0
 24 26  1  0  0  0  0
 25 24  1  0  0  0  0
 26 27  1  0  0  0  0
 27 31  1  0  0  0  0
 27 32  1  0  0  0  0
 28 30  1  0  0  0  0
 29 30  1  0  0  0  0
 31 29  1  0  0  0  0
 32 28  1  0  0  0  0
 34 33  2  0  0  0  0
 35 37  1  0  0  0  0
 37 38  1  0  0  0  0
 37 36  1  0  0  0  0
 39 41  1  0  0  0  0
 39 38  1  0  0  0  0
 40 41  1  0  0  0  0
 41 42  1  0  0  0  0
 41 43  1  0  0  0  0
M  END
>  <MODEL>
9

>  <REMARK>
 VINA RESULT:      -6.8      3.116      9.138
  Name = 
  12 active torsions:
  status: ('A' for Active; 'I' for Inactive)
    1  A    between atoms: C_1  and  C_34
    2  A    between atoms: C_1  and  N_35
    3  A    between atoms: C_2  and  N_13
    4  A    between atoms: C_3  and  C_4
    5  A    between atoms: C_3  and  C_12
    6  A    between atoms: C_4  and  C_15
    7  A    between atoms: C_4  and  C_22
    8  A    between atoms: C_11  and  C_14
    9  A    between atoms: C_14  and  C_22
   10  A    between atoms: C_19  and  C_39
   11  A    between atoms: C_28  and  N_35
   12  A    between atoms: C_28  and  C_39
                            x       y       z     vdW  Elec       q    Type
                         _______ _______ _______ _____ _____    ______ ____

>  <TORSDO>
F 12

$$$$
