=
 OpenBabel11052420373D

 34 39  0  0  1  0  0  0  0  0999 V2000
  194.1680  173.7290  144.4230 C   0  0  0  0  0  0  0  0  0  0  0  0
  197.1960  171.6600  144.8160 C   0  0  0  0  0  3  0  0  0  0  0  0
  196.8940  173.5220  143.3310 C   0  0  0  0  0  2  0  0  0  0  0  0
  192.0900  174.9330  144.1790 C   0  0  0  0  0  0  0  0  0  0  0  0
  192.7550  173.9070  144.6650 N   0  0  0  0  0  0  0  0  0  0  0  0
  194.1570  175.8040  143.1660 C   0  0  0  0  0  0  0  0  0  0  0  0
  195.0030  176.3710  142.2240 C   0  0  0  0  0  3  0  0  0  0  0  0
  192.7480  175.9340  143.3590 N   0  0  0  0  0  2  0  0  0  0  0  0
  196.0290  174.6820  143.1500 N   0  0  0  0  0  0  0  0  0  0  0  0
  194.8280  174.7750  143.6940 C   0  0  0  0  0  0  0  0  0  0  0  0
  196.1610  175.6490  142.2490 N   0  0  0  0  0  0  0  0  0  0  0  0
  197.0490  170.5760  145.7930 C   0  0  0  0  0  3  0  0  0  0  0  0
  195.9630  170.0640  146.3760 C   0  0  0  0  0  0  0  0  0  0  0  0
  194.5830  170.5040  146.1140 C   0  0  0  0  0  3  0  0  0  0  0  0
  196.3170  172.5460  144.3550 C   0  0  0  0  0  0  0  0  0  0  0  0
  194.1300  171.5660  145.4600 C   0  0  0  0  0  3  0  0  0  0  0  0
  194.8700  172.6340  144.7730 C   0  0  0  0  0  0  0  0  0  0  0  0
  196.1480  168.9730  147.2940 N   0  0  0  0  0  0  0  0  0  0  0  0
  197.3930  168.5640  147.6380 O   0  0  0  0  0  1  0  0  0  0  0  0
  195.0440  168.3190  147.8550 N   0  0  0  0  0  1  0  0  0  0  0  0
  190.6430  175.1050  144.5260 C   0  0  0  0  0  2  0  0  0  0  0  0
  188.7750  175.8330  142.9910 C   0  0  0  0  0  0  0  0  0  0  0  0
  189.3690  177.2680  144.7430 C   0  0  0  0  0  3  0  0  0  0  0  0
  185.3860  177.2930  143.5630 N   0  0  0  0  0  0  0  0  0  0  0  0
  185.6420  177.6080  144.9960 C   0  0  2  0  0  0  0  0  0  0  0  0
  186.2680  176.2300  143.0380 C   0  0  0  0  0  2  0  0  0  0  0  0
  184.6390  178.6360  145.4940 C   0  0  0  0  0  1  0  0  0  0  0  0
  187.6960  176.4440  143.4420 C   0  0  0  0  0  0  0  0  0  0  0  0
  185.5380  178.4730  142.7110 C   0  0  0  0  0  1  0  0  0  0  0  0
  187.0650  178.1580  145.2360 C   0  0  0  0  0  2  0  0  0  0  0  0
  188.0630  177.3030  144.5330 C   0  0  0  0  0  0  0  0  0  0  0  0
  185.4720  176.4510  145.7620 O   0  0  0  0  0  1  0  0  0  0  0  0
  189.9740  176.2740  143.7840 C   0  0  1  0  0  3  0  0  0  0  0  0
  188.7950  174.8350  141.8830 C   0  0  0  0  0  1  0  0  0  0  0  0
  1  5  1  0  0  0  0
  1 17  2  0  0  0  0
  2 12  1  0  0  0  0
  3 15  1  0  0  0  0
  4 21  1  0  0  0  0
  4  5  2  0  0  0  0
  6  8  1  0  0  0  0
  6 10  2  0  0  0  0
  7 11  2  0  0  0  0
  7  6  1  0  0  0  0
  8  4  1  0  0  0  0
  9  3  1  0  0  0  0
  9 10  1  0  0  0  0
 10  1  1  0  0  0  0
 11  9  1  0  0  0  0
 12 13  2  0  0  0  0
 13 18  1  0  0  0  0
 14 13  1  0  0  0  0
 15 17  1  0  0  0  0
 15  2  2  0  0  0  0
 16 14  2  0  0  0  0
 17 16  1  0  0  0  0
 18 19  1  0  0  0  0
 18 20  1  0  0  0  0
 22 28  2  0  0  0  0
 22 33  1  0  0  0  0
 24 25  1  0  0  0  0
 25 30  1  0  0  0  0
 25 27  1  1  0  0  0
 25 32  1  0  0  0  0
 26 28  1  0  0  0  0
 26 24  1  0  0  0  0
 28 31  1  0  0  0  0
 29 24  1  0  0  0  0
 31 23  2  0  0  0  0
 31 30  1  0  0  0  0
 33 21  1  1  0  0  0
 33 23  1  0  0  0  0
 34 22  1  0  0  0  0
M  END
>  <MODEL>
1

>  <REMARK>
 VINA RESULT:      -8.5      0.000      0.000
  Name = 
  3 active torsions:
  status: ('A' for Active; 'I' for Inactive)
    1  A    between atoms: N_3  and  C_25
    2  A    between atoms: C_8  and  C_18
    3  A    between atoms: C_18  and  C_30
                            x       y       z     vdW  Elec       q    Type
                         _______ _______ _______ _____ _____    ______ ____

>  <TORSDO>
F 3

$$$$
=
 OpenBabel11052420373D

 34 39  0  0  1  0  0  0  0  0999 V2000
  188.1700  175.1840  142.1490 C   0  0  0  0  0  0  0  0  0  0  0  0
  189.2530  172.9450  139.4250 C   0  0  0  0  0  3  0  0  0  0  0  0
  187.8430  174.8800  139.2400 C   0  0  0  0  0  2  0  0  0  0  0  0
  187.4400  176.5040  144.0340 C   0  0  0  0  0  0  0  0  0  0  0  0
  188.0330  175.4260  143.5670 N   0  0  0  0  0  0  0  0  0  0  0  0
  187.0690  177.3070  141.7370 C   0  0  0  0  0  0  0  0  0  0  0  0
  186.4210  177.8660  140.6460 C   0  0  0  0  0  3  0  0  0  0  0  0
  186.8830  177.5020  143.1390 N   0  0  0  0  0  2  0  0  0  0  0  0
  187.4970  176.0900  139.9770 N   0  0  0  0  0  0  0  0  0  0  0  0
  187.7030  176.2240  141.2750 C   0  0  0  0  0  0  0  0  0  0  0  0
  186.7190  177.0840  139.5680 N   0  0  0  0  0  0  0  0  0  0  0  0
  190.0950  171.8320  139.8740 C   0  0  0  0  0  3  0  0  0  0  0  0
  190.3360  171.3540  141.0970 C   0  0  0  0  0  0  0  0  0  0  0  0
  189.7370  171.8760  142.3360 C   0  0  0  0  0  3  0  0  0  0  0  0
  188.6210  173.8940  140.1100 C   0  0  0  0  0  0  0  0  0  0  0  0
  189.0420  172.9870  142.5520 C   0  0  0  0  0  3  0  0  0  0  0  0
  188.6370  174.0410  141.6130 C   0  0  0  0  0  0  0  0  0  0  0  0
  191.2110  170.2190  141.2120 N   0  0  0  0  0  0  0  0  0  0  0  0
  192.5190  170.3180  140.8700 O   0  0  0  0  0  1  0  0  0  0  0  0
  190.7290  168.9920  141.6850 N   0  0  0  0  0  1  0  0  0  0  0  0
  187.3940  176.7380  145.5130 C   0  0  0  0  0  2  0  0  0  0  0  0
  189.5140  175.7450  146.4560 C   0  0  0  0  0  0  0  0  0  0  0  0
  189.7030  177.6750  145.1440 C   0  0  0  0  0  3  0  0  0  0  0  0
  192.8770  174.9970  145.0150 N   0  0  0  0  0  0  0  0  0  0  0  0
  192.6460  175.7920  143.7770 C   0  0  2  0  0  0  0  0  0  0  0  0
  191.6240  174.5710  145.6710 C   0  0  0  0  0  2  0  0  0  0  0  0
  193.9720  176.1130  143.1050 C   0  0  0  0  0  1  0  0  0  0  0  0
  190.6340  175.6930  145.7600 C   0  0  0  0  0  0  0  0  0  0  0  0
  193.6760  175.7350  145.9950 C   0  0  0  0  0  1  0  0  0  0  0  0
  191.9050  177.1180  144.0550 C   0  0  0  0  0  2  0  0  0  0  0  0
  190.7320  176.8670  144.9370 C   0  0  0  0  0  0  0  0  0  0  0  0
  191.8910  175.0350  142.8760 O   0  0  0  0  0  1  0  0  0  0  0  0
  188.7740  177.0130  146.1300 C   0  0  1  0  0  3  0  0  0  0  0  0
  189.0430  174.6910  147.4010 C   0  0  0  0  0  1  0  0  0  0  0  0
  1  5  1  0  0  0  0
  2 12  1  0  0  0  0
  2 15  2  0  0  0  0
  3  9  1  0  0  0  0
  3 15  1  0  0  0  0
  4 21  1  0  0  0  0
  5  4  2  0  0  0  0
  6  8  1  0  0  0  0
  7  6  1  0  0  0  0
  8  4  1  0  0  0  0
  9 10  1  0  0  0  0
 10  6  2  0  0  0  0
 10  1  1  0  0  0  0
 11  9  1  0  0  0  0
 11  7  2  0  0  0  0
 12 13  2  0  0  0  0
 13 18  1  0  0  0  0
 13 14  1  0  0  0  0
 14 16  2  0  0  0  0
 15 17  1  0  0  0  0
 17  1  2  0  0  0  0
 17 16  1  0  0  0  0
 18 20  1  0  0  0  0
 19 18  1  0  0  0  0
 22 34  1  0  0  0  0
 23 33  1  0  0  0  0
 24 26  1  0  0  0  0
 24 29  1  0  0  0  0
 25 27  1  6  0  0  0
 25 30  1  0  0  0  0
 25 24  1  0  0  0  0
 26 28  1  0  0  0  0
 28 22  2  0  0  0  0
 30 31  1  0  0  0  0
 31 23  2  0  0  0  0
 31 28  1  0  0  0  0
 32 25  1  0  0  0  0
 33 21  1  6  0  0  0
 33 22  1  0  0  0  0
M  END
>  <MODEL>
2

>  <REMARK>
 VINA RESULT:      -8.4      3.886      7.170
  Name = 
  3 active torsions:
  status: ('A' for Active; 'I' for Inactive)
    1  A    between atoms: N_3  and  C_25
    2  A    between atoms: C_8  and  C_18
    3  A    between atoms: C_18  and  C_30
                            x       y       z     vdW  Elec       q    Type
                         _______ _______ _______ _____ _____    ______ ____

>  <TORSDO>
F 3

$$$$
=
 OpenBabel11052420373D

 34 39  0  0  1  0  0  0  0  0999 V2000
  193.5120  175.5030  142.9720 C   0  0  0  0  0  0  0  0  0  0  0  0
  197.0320  175.3420  141.8800 C   0  0  0  0  0  3  0  0  0  0  0  0
  196.2170  175.8420  144.0820 C   0  0  0  0  0  2  0  0  0  0  0  0
  191.1710  175.6890  143.5310 C   0  0  0  0  0  0  0  0  0  0  0  0
  192.1130  175.5710  142.6200 N   0  0  0  0  0  0  0  0  0  0  0  0
  192.8730  175.6380  145.3090 C   0  0  0  0  0  0  0  0  0  0  0  0
  193.5400  175.9720  146.4780 C   0  0  0  0  0  3  0  0  0  0  0  0
  191.4990  175.7690  144.9430 N   0  0  0  0  0  2  0  0  0  0  0  0
  195.0150  175.6890  144.8950 N   0  0  0  0  0  0  0  0  0  0  0  0
  193.8180  175.4840  144.3750 C   0  0  0  0  0  0  0  0  0  0  0  0
  194.8720  175.9860  146.1810 N   0  0  0  0  0  0  0  0  0  0  0  0
  197.1960  175.0370  140.4550 C   0  0  0  0  0  3  0  0  0  0  0  0
  196.3160  175.0450  139.4510 C   0  0  0  0  0  0  0  0  0  0  0  0
  194.8980  175.4170  139.5800 C   0  0  0  0  0  3  0  0  0  0  0  0
  195.9390  175.5560  142.6080 C   0  0  0  0  0  0  0  0  0  0  0  0
  194.1550  175.6080  140.6630 C   0  0  0  0  0  3  0  0  0  0  0  0
  194.5240  175.5240  142.0840 C   0  0  0  0  0  0  0  0  0  0  0  0
  196.7960  174.7090  138.1380 N   0  0  0  0  0  0  0  0  0  0  0  0
  197.4960  175.6110  137.4080 O   0  0  0  0  0  1  0  0  0  0  0  0
  196.5560  173.4410  137.5940 N   0  0  0  0  0  1  0  0  0  0  0  0
  189.7330  175.6800  143.1120 C   0  0  0  0  0  2  0  0  0  0  0  0
  187.7000  177.0660  142.5490 C   0  0  0  0  0  0  0  0  0  0  0  0
  188.8110  177.5250  144.5580 C   0  0  0  0  0  3  0  0  0  0  0  0
  184.7060  178.1630  144.4910 N   0  0  0  0  0  0  0  0  0  0  0  0
  185.2830  177.7810  145.8100 C   0  0  2  0  0  0  0  0  0  0  0  0
  185.3240  177.4440  143.3590 C   0  0  0  0  0  2  0  0  0  0  0  0
  184.5380  178.4840  146.9340 C   0  0  0  0  0  1  0  0  0  0  0  0
  186.8190  177.4220  143.4650 C   0  0  0  0  0  0  0  0  0  0  0  0
  184.8280  179.6000  144.2400 C   0  0  0  0  0  1  0  0  0  0  0  0
  186.7830  178.1320  145.9240 C   0  0  0  0  0  2  0  0  0  0  0  0
  187.5030  177.6770  144.7020 C   0  0  0  0  0  0  0  0  0  0  0  0
  185.1290  176.4040  146.0010 O   0  0  0  0  0  1  0  0  0  0  0  0
  189.0800  177.0710  143.1460 C   0  0  1  0  0  3  0  0  0  0  0  0
  187.3710  176.6880  141.1440 C   0  0  0  0  0  1  0  0  0  0  0  0
  1 10  1  0  0  0  0
  2 15  2  0  0  0  0
  3  9  1  0  0  0  0
  4  8  1  0  0  0  0
  5  1  1  0  0  0  0
  5  4  2  0  0  0  0
  6  7  1  0  0  0  0
  8  6  1  0  0  0  0
  9 11  1  0  0  0  0
 10  9  1  0  0  0  0
 10  6  2  0  0  0  0
 11  7  2  0  0  0  0
 12  2  1  0  0  0  0
 13 14  1  0  0  0  0
 13 12  2  0  0  0  0
 14 16  2  0  0  0  0
 15  3  1  0  0  0  0
 16 17  1  0  0  0  0
 17 15  1  0  0  0  0
 17  1  2  0  0  0  0
 18 13  1  0  0  0  0
 19 18  1  0  0  0  0
 20 18  1  0  0  0  0
 21  4  1  0  0  0  0
 22 33  1  0  0  0  0
 22 28  2  0  0  0  0
 23 31  2  0  0  0  0
 24 25  1  0  0  0  0
 25 30  1  0  0  0  0
 25 32  1  0  0  0  0
 25 27  1  1  0  0  0
 26 28  1  0  0  0  0
 26 24  1  0  0  0  0
 28 31  1  0  0  0  0
 29 24  1  0  0  0  0
 31 30  1  0  0  0  0
 33 21  1  1  0  0  0
 33 23  1  0  0  0  0
 34 22  1  0  0  0  0
M  END
>  <MODEL>
3

>  <REMARK>
 VINA RESULT:      -8.4      3.727      4.815
  Name = 
  3 active torsions:
  status: ('A' for Active; 'I' for Inactive)
    1  A    between atoms: N_3  and  C_25
    2  A    between atoms: C_8  and  C_18
    3  A    between atoms: C_18  and  C_30
                            x       y       z     vdW  Elec       q    Type
                         _______ _______ _______ _____ _____    ______ ____

>  <TORSDO>
F 3

$$$$
=
 OpenBabel11052420373D

 34 39  0  0  1  0  0  0  0  0999 V2000
  186.5100  177.2990  144.0880 C   0  0  0  0  0  0  0  0  0  0  0  0
  184.7580  178.0280  140.9250 C   0  0  0  0  0  3  0  0  0  0  0  0
  183.9930  178.5030  143.1510 C   0  0  0  0  0  2  0  0  0  0  0  0
  187.7070  176.6660  146.0860 C   0  0  0  0  0  0  0  0  0  0  0  0
  187.5680  176.6000  144.7800 N   0  0  0  0  0  0  0  0  0  0  0  0
  185.7790  178.1900  146.2230 C   0  0  0  0  0  0  0  0  0  0  0  0
  184.5990  178.7530  146.6850 C   0  0  0  0  0  3  0  0  0  0  0  0
  186.7890  177.4420  146.9000 N   0  0  0  0  0  2  0  0  0  0  0  0
  184.5100  178.6460  144.5070 N   0  0  0  0  0  0  0  0  0  0  0  0
  185.6690  178.1410  144.8910 C   0  0  0  0  0  0  0  0  0  0  0  0
  183.8380  179.0290  145.5860 N   0  0  0  0  0  0  0  0  0  0  0  0
  185.4850  177.5860  139.7300 C   0  0  0  0  0  3  0  0  0  0  0  0
  186.5310  176.7690  139.5950 C   0  0  0  0  0  0  0  0  0  0  0  0
  187.2020  176.0720  140.7040 C   0  0  0  0  0  3  0  0  0  0  0  0
  185.0270  177.8740  142.2180 C   0  0  0  0  0  0  0  0  0  0  0  0
  187.0860  176.2360  142.0160 C   0  0  0  0  0  3  0  0  0  0  0  0
  186.2330  177.1590  142.7780 C   0  0  0  0  0  0  0  0  0  0  0  0
  187.0130  176.5140  138.2650 N   0  0  0  0  0  0  0  0  0  0  0  0
  187.0650  177.5100  137.3470 O   0  0  0  0  0  1  0  0  0  0  0  0
  187.4450  175.2340  137.8950 N   0  0  0  0  0  1  0  0  0  0  0  0
  188.8670  175.9800  146.7400 C   0  0  0  0  0  2  0  0  0  0  0  0
  191.3730  175.9700  147.0460 C   0  0  0  0  0  0  0  0  0  0  0  0
  190.4960  177.2150  145.2680 C   0  0  0  0  0  3  0  0  0  0  0  0
  194.2560  175.5360  144.7140 N   0  0  0  0  0  0  0  0  0  0  0  0
  193.4300  175.7020  143.4850 C   0  0  2  0  0  0  0  0  0  0  0  0
  193.4660  175.1180  145.8890 C   0  0  0  0  0  2  0  0  0  0  0  0
  194.3180  176.0370  142.2970 C   0  0  0  0  0  1  0  0  0  0  0  0
  192.2030  175.9160  146.0230 C   0  0  0  0  0  0  0  0  0  0  0  0
  194.9710  176.7660  145.0590 C   0  0  0  0  0  1  0  0  0  0  0  0
  192.3690  176.8140  143.6310 C   0  0  0  0  0  2  0  0  0  0  0  0
  191.6490  176.6590  144.9260 C   0  0  0  0  0  0  0  0  0  0  0  0
  192.7820  174.4970  143.1970 O   0  0  0  0  0  1  0  0  0  0  0  0
  190.1700  176.7930  146.6780 C   0  0  1  0  0  3  0  0  0  0  0  0
  191.5840  175.2920  148.3580 C   0  0  0  0  0  1  0  0  0  0  0  0
  1  5  1  0  0  0  0
  1 10  1  0  0  0  0
  2 15  2  0  0  0  0
  3  9  1  0  0  0  0
  4 21  1  0  0  0  0
  4  8  1  0  0  0  0
  5  4  2  0  0  0  0
  6  7  1  0  0  0  0
  6  8  1  0  0  0  0
  9 10  1  0  0  0  0
  9 11  1  0  0  0  0
 10  6  2  0  0  0  0
 11  7  2  0  0  0  0
 12  2  1  0  0  0  0
 13 12  2  0  0  0  0
 13 14  1  0  0  0  0
 14 16  2  0  0  0  0
 15 17  1  0  0  0  0
 15  3  1  0  0  0  0
 16 17  1  0  0  0  0
 17  1  2  0  0  0  0
 18 13  1  0  0  0  0
 19 18  1  0  0  0  0
 20 18  1  0  0  0  0
 22 34  1  0  0  0  0
 23 33  1  0  0  0  0
 24 29  1  0  0  0  0
 24 26  1  0  0  0  0
 25 27  1  6  0  0  0
 25 30  1  0  0  0  0
 25 24  1  0  0  0  0
 26 28  1  0  0  0  0
 28 22  2  0  0  0  0
 30 31  1  0  0  0  0
 31 23  2  0  0  0  0
 31 28  1  0  0  0  0
 32 25  1  0  0  0  0
 33 21  1  6  0  0  0
 33 22  1  0  0  0  0
M  END
>  <MODEL>
4

>  <REMARK>
 VINA RESULT:      -8.3      3.808     10.071
  Name = 
  3 active torsions:
  status: ('A' for Active; 'I' for Inactive)
    1  A    between atoms: N_3  and  C_25
    2  A    between atoms: C_8  and  C_18
    3  A    between atoms: C_18  and  C_30
                            x       y       z     vdW  Elec       q    Type
                         _______ _______ _______ _____ _____    ______ ____

>  <TORSDO>
F 3

$$$$
=
 OpenBabel11052420373D

 34 39  0  0  1  0  0  0  0  0999 V2000
  189.9630  174.9820  144.2420 C   0  0  0  0  0  0  0  0  0  0  0  0
  186.7100  175.7860  142.7000 C   0  0  0  0  0  3  0  0  0  0  0  0
  188.2590  174.0820  142.0180 C   0  0  0  0  0  2  0  0  0  0  0  0
  192.1190  174.6320  145.2710 C   0  0  0  0  0  0  0  0  0  0  0  0
  191.0330  175.3620  145.1360 N   0  0  0  0  0  0  0  0  0  0  0  0
  191.2210  172.9870  143.6750 C   0  0  0  0  0  0  0  0  0  0  0  0
  191.1860  172.0850  142.6220 C   0  0  0  0  0  3  0  0  0  0  0  0
  192.2990  173.4070  144.5130 N   0  0  0  0  0  2  0  0  0  0  0  0
  189.3900  173.3220  142.5380 N   0  0  0  0  0  0  0  0  0  0  0  0
  190.1090  173.7200  143.5720 C   0  0  0  0  0  0  0  0  0  0  0  0
  190.0260  172.3210  141.9410 N   0  0  0  0  0  0  0  0  0  0  0  0
  186.0130  176.9050  143.3400 C   0  0  0  0  0  3  0  0  0  0  0  0
  186.4420  177.8230  144.2090 C   0  0  0  0  0  0  0  0  0  0  0  0
  187.8190  177.9160  144.7190 C   0  0  0  0  0  3  0  0  0  0  0  0
  187.9150  175.2660  142.9200 C   0  0  0  0  0  0  0  0  0  0  0  0
  188.8310  177.0620  144.6230 C   0  0  0  0  0  3  0  0  0  0  0  0
  188.8970  175.7540  143.9570 C   0  0  0  0  0  0  0  0  0  0  0  0
  185.5050  178.8210  144.6470 N   0  0  0  0  0  0  0  0  0  0  0  0
  185.5700  180.0870  144.1680 O   0  0  0  0  0  1  0  0  0  0  0  0
  184.5010  178.5010  145.5700 N   0  0  0  0  0  1  0  0  0  0  0  0
  193.1610  175.0370  146.2680 C   0  0  0  0  0  2  0  0  0  0  0  0
  195.4670  174.7960  145.2690 C   0  0  0  0  0  0  0  0  0  0  0  0
  194.0150  176.3530  144.2950 C   0  0  0  0  0  3  0  0  0  0  0  0
  196.7480  174.5000  141.7750 N   0  0  0  0  0  0  0  0  0  0  0  0
  195.4600  174.9080  141.1490 C   0  0  2  0  0  0  0  0  0  0  0  0
  196.5850  173.9720  143.1440 C   0  0  0  0  0  2  0  0  0  0  0  0
  195.6890  175.3490  139.7120 C   0  0  0  0  0  1  0  0  0  0  0  0
  195.6740  174.8330  143.9670 C   0  0  0  0  0  0  0  0  0  0  0  0
  197.7030  175.6090  141.8240 C   0  0  0  0  0  1  0  0  0  0  0  0
  194.7710  176.0610  141.9100 C   0  0  0  0  0  2  0  0  0  0  0  0
  194.7630  175.7700  143.3710 C   0  0  0  0  0  0  0  0  0  0  0  0
  194.5930  173.8100  141.1180 O   0  0  0  0  0  1  0  0  0  0  0  0
  194.3650  175.7520  145.6330 C   0  0  1  0  0  3  0  0  0  0  0  0
  196.1970  173.9170  146.2290 C   0  0  0  0  0  1  0  0  0  0  0  0
  1  5  1  0  0  0  0
  2 15  2  0  0  0  0
  2 12  1  0  0  0  0
  3  9  1  0  0  0  0
  3 15  1  0  0  0  0
  4 21  1  0  0  0  0
  5  4  2  0  0  0  0
  6  8  1  0  0  0  0
  7  6  1  0  0  0  0
  8  4  1  0  0  0  0
  9 10  1  0  0  0  0
 10  6  2  0  0  0  0
 10  1  1  0  0  0  0
 11  9  1  0  0  0  0
 11  7  2  0  0  0  0
 12 13  2  0  0  0  0
 13 18  1  0  0  0  0
 13 14  1  0  0  0  0
 15 17  1  0  0  0  0
 16 14  2  0  0  0  0
 17  1  2  0  0  0  0
 17 16  1  0  0  0  0
 18 20  1  0  0  0  0
 19 18  1  0  0  0  0
 22 33  1  0  0  0  0
 22 34  1  0  0  0  0
 23 33  1  0  0  0  0
 24 29  1  0  0  0  0
 24 26  1  0  0  0  0
 25 27  1  6  0  0  0
 25 24  1  0  0  0  0
 25 30  1  0  0  0  0
 26 28  1  0  0  0  0
 28 22  2  0  0  0  0
 30 31  1  0  0  0  0
 31 28  1  0  0  0  0
 31 23  2  0  0  0  0
 32 25  1  0  0  0  0
 33 21  1  6  0  0  0
M  END
>  <MODEL>
5

>  <REMARK>
 VINA RESULT:      -8.1      2.911      9.266
  Name = 
  3 active torsions:
  status: ('A' for Active; 'I' for Inactive)
    1  A    between atoms: N_3  and  C_25
    2  A    between atoms: C_8  and  C_18
    3  A    between atoms: C_18  and  C_30
                            x       y       z     vdW  Elec       q    Type
                         _______ _______ _______ _____ _____    ______ ____

>  <TORSDO>
F 3

$$$$
=
 OpenBabel11052420373D

 34 39  0  0  1  0  0  0  0  0999 V2000
  188.7420  174.9210  143.1430 C   0  0  0  0  0  0  0  0  0  0  0  0
  186.0810  177.3990  142.5250 C   0  0  0  0  0  3  0  0  0  0  0  0
  187.3360  176.1770  140.8830 C   0  0  0  0  0  2  0  0  0  0  0  0
  190.5430  173.4050  143.6780 C   0  0  0  0  0  0  0  0  0  0  0  0
  189.6800  174.3200  144.0630 N   0  0  0  0  0  0  0  0  0  0  0  0
  189.6350  173.4980  141.3920 C   0  0  0  0  0  0  0  0  0  0  0  0
  189.6080  173.5340  140.0060 C   0  0  0  0  0  3  0  0  0  0  0  0
  190.6000  172.9600  142.2970 N   0  0  0  0  0  2  0  0  0  0  0  0
  188.1620  174.9810  140.7660 N   0  0  0  0  0  0  0  0  0  0  0  0
  188.7410  174.4030  141.8030 C   0  0  0  0  0  0  0  0  0  0  0  0
  188.6740  174.4650  139.6550 N   0  0  0  0  0  0  0  0  0  0  0  0
  185.5280  177.9900  143.7480 C   0  0  0  0  0  3  0  0  0  0  0  0
  185.9700  177.9710  145.0070 C   0  0  0  0  0  0  0  0  0  0  0  0
  187.2150  177.3240  145.4510 C   0  0  0  0  0  3  0  0  0  0  0  0
  187.0860  176.5460  142.3450 C   0  0  0  0  0  0  0  0  0  0  0  0
  188.0230  176.4870  144.8110 C   0  0  0  0  0  3  0  0  0  0  0  0
  187.9360  175.9560  143.4430 C   0  0  0  0  0  0  0  0  0  0  0  0
  185.1990  178.6720  145.9980 N   0  0  0  0  0  0  0  0  0  0  0  0
  185.7900  179.1590  147.1160 O   0  0  0  0  0  1  0  0  0  0  0  0
  183.8230  178.8700  145.8220 N   0  0  0  0  0  1  0  0  0  0  0  0
  191.4410  172.7640  144.6920 C   0  0  0  0  0  2  0  0  0  0  0  0
  193.9480  172.9930  144.8750 C   0  0  0  0  0  0  0  0  0  0  0  0
  192.7240  174.8860  144.2440 C   0  0  0  0  0  3  0  0  0  0  0  0
  196.5650  174.5320  142.7020 N   0  0  0  0  0  0  0  0  0  0  0  0
  195.5860  175.2590  141.8470 C   0  0  2  0  0  0  0  0  0  0  0  0
  195.9760  173.3680  143.3950 C   0  0  0  0  0  2  0  0  0  0  0  0
  196.2790  176.3810  141.0910 C   0  0  0  0  0  1  0  0  0  0  0  0
  194.6520  173.7020  144.0130 C   0  0  0  0  0  0  0  0  0  0  0  0
  197.1630  175.4080  143.7100 C   0  0  0  0  0  1  0  0  0  0  0  0
  194.4230  175.8650  142.6630 C   0  0  0  0  0  2  0  0  0  0  0  0
  193.8850  174.8480  143.6100 C   0  0  0  0  0  0  0  0  0  0  0  0
  195.0570  174.3780  140.8980 O   0  0  0  0  0  1  0  0  0  0  0  0
  192.6200  173.6570  145.1110 C   0  0  1  0  0  3  0  0  0  0  0  0
  194.3930  171.7120  145.4970 C   0  0  0  0  0  1  0  0  0  0  0  0
  1 17  2  0  0  0  0
  1  5  1  0  0  0  0
  2 12  1  0  0  0  0
  3 15  1  0  0  0  0
  4  5  2  0  0  0  0
  4 21  1  0  0  0  0
  6 10  2  0  0  0  0
  6  8  1  0  0  0  0
  7  6  1  0  0  0  0
  8  4  1  0  0  0  0
  9  3  1  0  0  0  0
  9 10  1  0  0  0  0
 10  1  1  0  0  0  0
 11  7  2  0  0  0  0
 11  9  1  0  0  0  0
 12 13  2  0  0  0  0
 13 14  1  0  0  0  0
 13 18  1  0  0  0  0
 15  2  2  0  0  0  0
 15 17  1  0  0  0  0
 16 14  2  0  0  0  0
 17 16  1  0  0  0  0
 18 19  1  0  0  0  0
 20 18  1  0  0  0  0
 22 33  1  0  0  0  0
 22 34  1  0  0  0  0
 23 33  1  0  0  0  0
 24 26  1  0  0  0  0
 24 29  1  0  0  0  0
 25 27  1  6  0  0  0
 25 30  1  0  0  0  0
 25 24  1  0  0  0  0
 26 28  1  0  0  0  0
 28 22  2  0  0  0  0
 30 31  1  0  0  0  0
 31 28  1  0  0  0  0
 31 23  2  0  0  0  0
 32 25  1  0  0  0  0
 33 21  1  6  0  0  0
M  END
>  <MODEL>
6

>  <REMARK>
 VINA RESULT:      -7.9      2.937      9.442
  Name = 
  3 active torsions:
  status: ('A' for Active; 'I' for Inactive)
    1  A    between atoms: N_3  and  C_25
    2  A    between atoms: C_8  and  C_18
    3  A    between atoms: C_18  and  C_30
                            x       y       z     vdW  Elec       q    Type
                         _______ _______ _______ _____ _____    ______ ____

>  <TORSDO>
F 3

$$$$
=
 OpenBabel11052420373D

 34 39  0  0  1  0  0  0  0  0999 V2000
  190.0360  176.6820  144.4060 C   0  0  0  0  0  0  0  0  0  0  0  0
  186.4580  176.7950  145.2940 C   0  0  0  0  0  3  0  0  0  0  0  0
  188.2720  176.0390  146.6730 C   0  0  0  0  0  2  0  0  0  0  0  0
  192.3290  176.5510  143.6630 C   0  0  0  0  0  0  0  0  0  0  0  0
  191.0570  176.7420  143.3860 N   0  0  0  0  0  0  0  0  0  0  0  0
  191.7760  176.2580  146.0430 C   0  0  0  0  0  0  0  0  0  0  0  0
  191.7930  175.7270  147.3240 C   0  0  0  0  0  3  0  0  0  0  0  0
  192.7670  176.2570  145.0150 N   0  0  0  0  0  2  0  0  0  0  0  0
  189.7230  176.1450  146.7740 N   0  0  0  0  0  0  0  0  0  0  0  0
  190.4910  176.4870  145.7550 C   0  0  0  0  0  0  0  0  0  0  0  0
  190.4960  175.6790  147.7480 N   0  0  0  0  0  0  0  0  0  0  0  0
  185.5960  177.2870  144.2140 C   0  0  0  0  0  3  0  0  0  0  0  0
  185.8380  177.4690  142.9150 C   0  0  0  0  0  0  0  0  0  0  0  0
  187.1140  177.1630  142.2470 C   0  0  0  0  0  3  0  0  0  0  0  0
  187.7640  176.5440  145.3240 C   0  0  0  0  0  0  0  0  0  0  0  0
  188.3020  176.8640  142.7600 C   0  0  0  0  0  3  0  0  0  0  0  0
  188.7130  176.7280  144.1640 C   0  0  0  0  0  0  0  0  0  0  0  0
  184.7630  177.9570  142.0960 N   0  0  0  0  0  0  0  0  0  0  0  0
  183.5580  178.2510  142.6420 O   0  0  0  0  0  1  0  0  0  0  0  0
  184.9430  178.1450  140.7190 N   0  0  0  0  0  1  0  0  0  0  0  0
  193.3510  176.7000  142.5770 C   0  0  0  0  0  2  0  0  0  0  0  0
  195.4700  175.4090  142.1150 C   0  0  0  0  0  0  0  0  0  0  0  0
  193.6970  174.2670  143.1330 C   0  0  0  0  0  3  0  0  0  0  0  0
  197.5390  173.0400  144.1270 N   0  0  0  0  0  0  0  0  0  0  0  0
  196.5050  172.8590  145.1840 C   0  0  2  0  0  0  0  0  0  0  0  0
  197.3770  174.2970  143.3690 C   0  0  0  0  0  2  0  0  0  0  0  0
  196.7880  171.5990  145.9860 C   0  0  0  0  0  1  0  0  0  0  0  0
  195.9500  174.5230  142.9670 C   0  0  0  0  0  0  0  0  0  0  0  0
  197.5440  171.9300  143.1740 C   0  0  0  0  0  1  0  0  0  0  0  0
  195.0780  172.7580  144.6030 C   0  0  0  0  0  2  0  0  0  0  0  0
  194.8580  173.8440  143.6070 C   0  0  0  0  0  0  0  0  0  0  0  0
  196.5540  173.9400  146.0700 O   0  0  0  0  0  1  0  0  0  0  0  0
  193.9670  175.3640  142.1340 C   0  0  1  0  0  3  0  0  0  0  0  0
  196.2940  176.3330  141.2830 C   0  0  0  0  0  1  0  0  0  0  0  0
  1 10  1  0  0  0  0
  2 15  2  0  0  0  0
  3  9  1  0  0  0  0
  4  8  1  0  0  0  0
  5  4  2  0  0  0  0
  5  1  1  0  0  0  0
  6  7  1  0  0  0  0
  7 11  2  0  0  0  0
  8  6  1  0  0  0  0
  9 11  1  0  0  0  0
 10  6  2  0  0  0  0
 10  9  1  0  0  0  0
 12  2  1  0  0  0  0
 13 12  2  0  0  0  0
 14 16  2  0  0  0  0
 14 13  1  0  0  0  0
 15  3  1  0  0  0  0
 16 17  1  0  0  0  0
 17  1  2  0  0  0  0
 17 15  1  0  0  0  0
 18 19  1  0  0  0  0
 18 13  1  0  0  0  0
 20 18  1  0  0  0  0
 21  4  1  0  0  0  0
 22 33  1  0  0  0  0
 22 28  2  0  0  0  0
 23 31  2  0  0  0  0
 24 25  1  0  0  0  0
 25 27  1  1  0  0  0
 25 32  1  0  0  0  0
 26 24  1  0  0  0  0
 28 26  1  0  0  0  0
 28 31  1  0  0  0  0
 29 24  1  0  0  0  0
 30 25  1  0  0  0  0
 31 30  1  0  0  0  0
 33 21  1  1  0  0  0
 33 23  1  0  0  0  0
 34 22  1  0  0  0  0
M  END
>  <MODEL>
7

>  <REMARK>
 VINA RESULT:      -7.9      2.403      9.833
  Name = 
  3 active torsions:
  status: ('A' for Active; 'I' for Inactive)
    1  A    between atoms: N_3  and  C_25
    2  A    between atoms: C_8  and  C_18
    3  A    between atoms: C_18  and  C_30
                            x       y       z     vdW  Elec       q    Type
                         _______ _______ _______ _____ _____    ______ ____

>  <TORSDO>
F 3

$$$$
=
 OpenBabel11052420373D

 34 39  0  0  1  0  0  0  0  0999 V2000
  189.9460  176.4990  144.7890 C   0  0  0  0  0  0  0  0  0  0  0  0
  186.5430  176.7800  146.1830 C   0  0  0  0  0  3  0  0  0  0  0  0
  188.4780  175.8460  147.2550 C   0  0  0  0  0  2  0  0  0  0  0  0
  192.0980  176.2700  143.7200 C   0  0  0  0  0  0  0  0  0  0  0  0
  190.8160  176.5510  143.6360 N   0  0  0  0  0  0  0  0  0  0  0  0
  191.8660  175.8880  146.1400 C   0  0  0  0  0  0  0  0  0  0  0  0
  192.0270  175.2910  147.3810 C   0  0  0  0  0  3  0  0  0  0  0  0
  192.7010  175.8800  144.9810 N   0  0  0  0  0  2  0  0  0  0  0  0
  189.9330  175.8600  147.1510 N   0  0  0  0  0  0  0  0  0  0  0  0
  190.5720  176.2080  146.0480 C   0  0  0  0  0  0  0  0  0  0  0  0
  190.8020  175.2990  147.9840 N   0  0  0  0  0  0  0  0  0  0  0  0
  185.5730  177.3780  145.2600 C   0  0  0  0  0  3  0  0  0  0  0  0
  185.6430  177.6120  143.9480 C   0  0  0  0  0  0  0  0  0  0  0  0
  186.7890  177.2660  143.0930 C   0  0  0  0  0  3  0  0  0  0  0  0
  187.8210  176.4500  146.0150 C   0  0  0  0  0  0  0  0  0  0  0  0
  188.0140  176.8700  143.4170 C   0  0  0  0  0  3  0  0  0  0  0  0
  188.6080  176.6370  144.7410 C   0  0  0  0  0  0  0  0  0  0  0  0
  184.4980  178.2060  143.3130 N   0  0  0  0  0  0  0  0  0  0  0  0
  183.6820  179.0410  144.0010 O   0  0  0  0  0  1  0  0  0  0  0  0
  184.2090  177.9380  141.9680 N   0  0  0  0  0  1  0  0  0  0  0  0
  192.9650  176.4140  142.5070 C   0  0  0  0  0  2  0  0  0  0  0  0
  194.0740  174.2630  141.7850 C   0  0  0  0  0  0  0  0  0  0  0  0
  195.3880  176.2000  141.8450 C   0  0  0  0  0  3  0  0  0  0  0  0
  196.3640  173.3560  138.9790 N   0  0  0  0  0  0  0  0  0  0  0  0
  196.6670  174.7700  138.6220 C   0  0  2  0  0  0  0  0  0  0  0  0
  195.0920  173.2050  139.7140 C   0  0  0  0  0  2  0  0  0  0  0  0
  197.9360  174.8400  137.7860 C   0  0  0  0  0  1  0  0  0  0  0  0
  194.9560  174.2250  140.8040 C   0  0  0  0  0  0  0  0  0  0  0  0
  197.4300  172.7580  139.7850 C   0  0  0  0  0  1  0  0  0  0  0  0
  196.8500  175.6680  139.8640 C   0  0  0  0  0  2  0  0  0  0  0  0
  195.7420  175.4270  140.8300 C   0  0  0  0  0  0  0  0  0  0  0  0
  195.6250  175.2850  137.8450 O   0  0  0  0  0  1  0  0  0  0  0  0
  194.2320  175.5440  142.5570 C   0  0  1  0  0  3  0  0  0  0  0  0
  193.0560  173.2090  142.0640 C   0  0  0  0  0  1  0  0  0  0  0  0
  1 10  1  0  0  0  0
  4  8  1  0  0  0  0
  5  4  2  0  0  0  0
  5  1  1  0  0  0  0
  6  7  1  0  0  0  0
  7 11  2  0  0  0  0
  8  6  1  0  0  0  0
  9  3  1  0  0  0  0
  9 11  1  0  0  0  0
 10  6  2  0  0  0  0
 10  9  1  0  0  0  0
 12  2  1  0  0  0  0
 13 12  2  0  0  0  0
 14 16  2  0  0  0  0
 14 13  1  0  0  0  0
 15  2  2  0  0  0  0
 15  3  1  0  0  0  0
 16 17  1  0  0  0  0
 17  1  2  0  0  0  0
 17 15  1  0  0  0  0
 18 13  1  0  0  0  0
 18 19  1  0  0  0  0
 20 18  1  0  0  0  0
 21  4  1  0  0  0  0
 22 34  1  0  0  0  0
 22 33  1  0  0  0  0
 23 33  1  0  0  0  0
 24 26  1  0  0  0  0
 24 29  1  0  0  0  0
 25 27  1  6  0  0  0
 25 24  1  0  0  0  0
 25 30  1  0  0  0  0
 26 28  1  0  0  0  0
 28 31  1  0  0  0  0
 28 22  2  0  0  0  0
 30 31  1  0  0  0  0
 31 23  2  0  0  0  0
 32 25  1  0  0  0  0
 33 21  1  6  0  0  0
M  END
>  <MODEL>
8

>  <REMARK>
 VINA RESULT:      -7.8      3.991      9.950
  Name = 
  3 active torsions:
  status: ('A' for Active; 'I' for Inactive)
    1  A    between atoms: N_3  and  C_25
    2  A    between atoms: C_8  and  C_18
    3  A    between atoms: C_18  and  C_30
                            x       y       z     vdW  Elec       q    Type
                         _______ _______ _______ _____ _____    ______ ____

>  <TORSDO>
F 3

$$$$
=
 OpenBabel11052420373D

 34 39  0  0  1  0  0  0  0  0999 V2000
  189.3460  176.3040  144.2160 C   0  0  0  0  0  0  0  0  0  0  0  0
  186.4950  178.0430  145.7820 C   0  0  0  0  0  3  0  0  0  0  0  0
  188.5160  177.3120  146.8530 C   0  0  0  0  0  2  0  0  0  0  0  0
  191.0930  175.0700  143.0970 C   0  0  0  0  0  0  0  0  0  0  0  0
  189.8790  175.5760  143.0870 N   0  0  0  0  0  0  0  0  0  0  0  0
  191.4660  175.9840  145.3510 C   0  0  0  0  0  0  0  0  0  0  0  0
  191.8760  176.0490  146.6750 C   0  0  0  0  0  3  0  0  0  0  0  0
  191.9560  175.2110  144.2550 N   0  0  0  0  0  2  0  0  0  0  0  0
  189.8810  176.9210  146.5230 N   0  0  0  0  0  0  0  0  0  0  0  0
  190.2430  176.5210  145.3160 C   0  0  0  0  0  0  0  0  0  0  0  0
  190.8650  176.6450  147.3710 N   0  0  0  0  0  0  0  0  0  0  0  0
  185.3960  178.3300  144.8540 C   0  0  0  0  0  3  0  0  0  0  0  0
  185.1430  177.8710  143.6270 C   0  0  0  0  0  0  0  0  0  0  0  0
  185.9710  176.8860  142.9120 C   0  0  0  0  0  3  0  0  0  0  0  0
  187.6320  177.3750  145.6080 C   0  0  0  0  0  0  0  0  0  0  0  0
  187.1800  176.4150  143.1920 C   0  0  0  0  0  3  0  0  0  0  0  0
  188.0700  176.7210  144.3200 C   0  0  0  0  0  0  0  0  0  0  0  0
  183.9530  178.3370  142.9700 N   0  0  0  0  0  0  0  0  0  0  0  0
  183.0220  179.0490  143.6520 O   0  0  0  0  0  1  0  0  0  0  0  0
  183.7360  178.0710  141.6120 N   0  0  0  0  0  1  0  0  0  0  0  0
  191.6190  174.3900  141.8700 C   0  0  0  0  0  2  0  0  0  0  0  0
  190.0430  173.1540  140.3330 C   0  0  0  0  0  0  0  0  0  0  0  0
  191.8890  171.9840  141.1720 C   0  0  0  0  0  3  0  0  0  0  0  0
  190.5380  170.9050  137.3940 N   0  0  0  0  0  0  0  0  0  0  0  0
  191.9950  170.7190  137.6420 C   0  0  2  0  0  0  0  0  0  0  0  0
  190.0000  172.1360  138.0080 C   0  0  0  0  0  2  0  0  0  0  0  0
  192.5000  169.4890  136.9030 C   0  0  0  0  0  1  0  0  0  0  0  0
  190.4760  172.3070  139.4190 C   0  0  0  0  0  0  0  0  0  0  0  0
  189.7540  169.7700  137.8840 C   0  0  0  0  0  1  0  0  0  0  0  0
  192.3250  170.5580  139.1410 C   0  0  0  0  0  2  0  0  0  0  0  0
  191.6240  171.6100  139.9290 C   0  0  0  0  0  0  0  0  0  0  0  0
  192.6940  171.8230  137.1440 O   0  0  0  0  0  1  0  0  0  0  0  0
  190.9090  173.0630  141.5580 C   0  0  1  0  0  3  0  0  0  0  0  0
  188.8870  174.0820  140.1620 C   0  0  0  0  0  1  0  0  0  0  0  0
  1 17  2  0  0  0  0
  1 10  1  0  0  0  0
  4  8  1  0  0  0  0
  5  4  2  0  0  0  0
  5  1  1  0  0  0  0
  6  7  1  0  0  0  0
  7 11  2  0  0  0  0
  8  6  1  0  0  0  0
  9  3  1  0  0  0  0
  9 11  1  0  0  0  0
 10  6  2  0  0  0  0
 10  9  1  0  0  0  0
 12  2  1  0  0  0  0
 13 12  2  0  0  0  0
 14 16  2  0  0  0  0
 14 13  1  0  0  0  0
 15  2  2  0  0  0  0
 15  3  1  0  0  0  0
 16 17  1  0  0  0  0
 17 15  1  0  0  0  0
 18 13  1  0  0  0  0
 18 19  1  0  0  0  0
 20 18  1  0  0  0  0
 21  4  1  0  0  0  0
 22 33  1  0  0  0  0
 23 33  1  0  0  0  0
 24 25  1  0  0  0  0
 24 29  1  0  0  0  0
 24 26  1  0  0  0  0
 25 27  1  6  0  0  0
 25 30  1  0  0  0  0
 26 28  1  0  0  0  0
 28 31  1  0  0  0  0
 28 22  2  0  0  0  0
 30 31  1  0  0  0  0
 31 23  2  0  0  0  0
 32 25  1  0  0  0  0
 33 21  1  6  0  0  0
 34 22  1  0  0  0  0
M  END
>  <MODEL>
9

>  <REMARK>
 VINA RESULT:      -7.7      4.511      9.678
  Name = 
  3 active torsions:
  status: ('A' for Active; 'I' for Inactive)
    1  A    between atoms: N_3  and  C_25
    2  A    between atoms: C_8  and  C_18
    3  A    between atoms: C_18  and  C_30
                            x       y       z     vdW  Elec       q    Type
                         _______ _______ _______ _____ _____    ______ ____

>  <TORSDO>
F 3

$$$$
