=
 OpenBabel11052417123D

 30 33  0  0  1  0  0  0  0  0999 V2000
  188.9260  175.3520  142.9200 C   0  0  1  0  0  3  0  0  0  0  0  0
  188.2490  175.9210  141.6830 C   0  0  1  0  0  3  0  0  0  0  0  0
  188.1600  174.8610  140.6880 N   0  0  0  0  0  2  0  0  0  0  0  0
  189.4490  173.9980  142.5080 C   0  0  0  0  0  2  0  0  0  0  0  0
  189.2220  173.9240  141.0160 C   0  0  0  0  0  2  0  0  0  0  0  0
  189.7110  177.5840  143.4860 O   0  0  0  0  0  1  0  0  0  0  0  0
  190.0740  176.2340  143.4210 C   0  0  1  0  0  3  0  0  0  0  0  0
  190.6630  175.7400  144.7500 C   0  0  1  0  0  3  0  0  0  0  0  0
  193.8050  176.6200  146.7850 C   0  0  0  0  0  1  0  0  0  0  0  0
  193.1240  176.3460  143.5610 S   0  0  0  0  0  0  0  0  0  0  0  0
  192.0510  176.3750  145.0320 C   0  0  2  0  0  3  0  0  0  0  0  0
  193.6160  174.1690  145.5830 S   0  0  0  0  0  0  0  0  0  0  0  0
  192.7880  175.6820  146.1650 C   0  0  1  0  0  3  0  0  0  0  0  0
  192.6260  173.6980  143.0740 C   0  0  0  0  0  1  0  0  0  0  0  0
  193.5870  174.6060  143.8140 C   0  0  1  0  0  3  0  0  0  0  0  0
  190.0540  176.8630  146.8330 C   0  0  0  0  0  1  0  0  0  0  0  0
  189.6790  175.8580  145.8440 N   0  0  0  0  0  0  0  0  0  0  0  0
  189.5610  174.5780  146.5190 C   0  0  0  0  0  1  0  0  0  0  0  0
  186.8610  176.4200  142.0380 C   0  0  0  0  0  2  0  0  0  0  0  0
  186.6880  177.8570  141.5830 C   0  0  1  0  0  3  0  0  0  0  0  0
  186.6060  177.9060  140.1900 O   0  0  0  0  0  1  0  0  0  0  0  0
  185.4230  178.4260  142.1960 C   0  0  0  0  0  2  0  0  0  0  0  0
  185.8310  177.6940  146.4940 C   0  0  0  0  0  0  0  0  0  0  0  0
  184.4610  178.2130  146.4490 C   0  0  0  0  0  3  0  0  0  0  0  0
  186.3210  176.7740  147.9000 Cl  0  0  0  0  0  0  0  0  0  0  0  0
  185.7600  179.3610  143.3450 C   0  0  1  0  0  3  0  0  0  0  0  0
  183.9120  178.9780  145.3620 C   0  0  0  0  0  3  0  0  0  0  0  0
  186.7940  177.8940  145.4430 C   0  0  0  0  0  3  0  0  0  0  0  0
  184.8650  179.1340  144.4030 C   0  0  0  0  0  0  0  0  0  0  0  0
  186.2300  178.6210  144.4420 C   0  0  0  0  0  0  0  0  0  0  0  0
  1  7  1  6  0  0  0
  2 19  1  1  0  0  0
  2  1  1  0  0  0  0
  3  5  1  0  0  0  0
  3  2  1  0  0  0  0
  4  1  1  0  0  0  0
  5  4  1  0  0  0  0
  7  6  1  1  0  0  0
  7  8  1  0  0  0  0
  8 17  1  1  0  0  0
 10 15  1  0  0  0  0
 10 11  1  0  0  0  0
 11  8  1  6  0  0  0
 11 13  1  0  0  0  0
 12 13  1  0  0  0  0
 13  9  1  6  0  0  0
 15 14  1  6  0  0  0
 15 12  1  0  0  0  0
 17 18  1  0  0  0  0
 17 16  1  0  0  0  0
 20 21  1  6  0  0  0
 20 19  1  0  0  0  0
 20 22  1  0  0  0  0
 23 25  1  0  0  0  0
 24 23  1  0  0  0  0
 26 22  1  6  0  0  0
 26 29  1  0  0  0  0
 26 30  1  0  0  0  0
 27 24  2  0  0  0  0
 28 23  2  0  0  0  0
 29 30  2  0  0  0  0
 29 27  1  0  0  0  0
 30 28  1  0  0  0  0
M  END
>  <MODEL>
1

>  <REMARK>
 VINA RESULT:      -7.3      0.000      0.000
  Name = 
  8 active torsions:
  status: ('A' for Active; 'I' for Inactive)
    1  A    between atoms: C_3  and  C_11
    2  A    between atoms: C_3  and  C_19
    3  A    between atoms: N_4  and  C_13
    4  A    between atoms: C_7  and  C_30
    5  A    between atoms: C_8  and  C_13
    6  A    between atoms: C_10  and  C_25
    7  A    between atoms: C_11  and  C_25
    8  A    between atoms: C_13  and  C_30
                            x       y       z     vdW  Elec       q    Type
                         _______ _______ _______ _____ _____    ______ ____

>  <TORSDO>
F 8

$$$$
=
 OpenBabel11052417123D

 30 33  0  0  1  0  0  0  0  0999 V2000
  190.3780  176.1580  144.0900 C   0  0  1  0  0  3  0  0  0  0  0  0
  189.8820  177.5240  144.5380 C   0  0  1  0  0  3  0  0  0  0  0  0
  188.7820  177.9140  143.6680 N   0  0  0  0  0  2  0  0  0  0  0  0
  189.6890  175.8890  142.7740 C   0  0  0  0  0  2  0  0  0  0  0  0
  188.9810  177.1780  142.4290 C   0  0  0  0  0  2  0  0  0  0  0  0
  192.4480  177.3900  143.7460 O   0  0  0  0  0  1  0  0  0  0  0  0
  191.9000  176.1130  143.9110 C   0  0  1  0  0  3  0  0  0  0  0  0
  192.6030  175.3330  145.0300 C   0  0  1  0  0  3  0  0  0  0  0  0
  195.9810  173.5210  145.3470 C   0  0  0  0  0  1  0  0  0  0  0  0
  193.9120  174.1640  142.8490 S   0  0  0  0  0  0  0  0  0  0  0  0
  193.9740  174.7750  144.5630 C   0  0  2  0  0  3  0  0  0  0  0  0
  193.6920  172.0630  144.9960 S   0  0  0  0  0  0  0  0  0  0  0  0
  194.4730  173.6440  145.4470 C   0  0  1  0  0  3  0  0  0  0  0  0
  191.6380  172.7040  143.3010 C   0  0  0  0  0  1  0  0  0  0  0  0
  193.1490  172.5870  143.3370 C   0  0  1  0  0  3  0  0  0  0  0  0
  193.9810  176.5030  146.6740 C   0  0  0  0  0  1  0  0  0  0  0  0
  192.6310  176.1120  146.2840 N   0  0  0  0  0  0  0  0  0  0  0  0
  192.0630  175.3110  147.3550 C   0  0  0  0  0  1  0  0  0  0  0  0
  189.4080  177.4540  145.9780 C   0  0  0  0  0  2  0  0  0  0  0  0
  188.2010  176.5420  146.0890 C   0  0  1  0  0  3  0  0  0  0  0  0
  188.5380  175.3950  146.8090 O   0  0  0  0  0  1  0  0  0  0  0  0
  187.0790  177.2830  146.7910 C   0  0  0  0  0  2  0  0  0  0  0  0
  184.6780  178.0420  143.2070 C   0  0  0  0  0  0  0  0  0  0  0  0
  184.0290  178.9560  144.1510 C   0  0  0  0  0  3  0  0  0  0  0  0
  184.4390  178.3140  141.4950 Cl  0  0  0  0  0  0  0  0  0  0  0  0
  185.7270  176.7420  146.3560 C   0  0  1  0  0  3  0  0  0  0  0  0
  184.1380  178.8650  145.5830 C   0  0  0  0  0  3  0  0  0  0  0  0
  185.5070  176.9350  143.6100 C   0  0  0  0  0  3  0  0  0  0  0  0
  184.9290  177.8040  145.9020 C   0  0  0  0  0  0  0  0  0  0  0  0
  185.5760  176.8910  144.9680 C   0  0  0  0  0  0  0  0  0  0  0  0
  1  7  1  6  0  0  0
  1  2  1  0  0  0  0
  2 19  1  1  0  0  0
  3  2  1  0  0  0  0
  4  1  1  0  0  0  0
  5  4  1  0  0  0  0
  5  3  1  0  0  0  0
  7  6  1  1  0  0  0
  7  8  1  0  0  0  0
  8 17  1  1  0  0  0
 10 15  1  0  0  0  0
 10 11  1  0  0  0  0
 11  8  1  1  0  0  0
 11 13  1  0  0  0  0
 12 13  1  0  0  0  0
 13  9  1  6  0  0  0
 15 14  1  1  0  0  0
 15 12  1  0  0  0  0
 17 16  1  0  0  0  0
 17 18  1  0  0  0  0
 19 20  1  0  0  0  0
 20 22  1  0  0  0  0
 20 21  1  1  0  0  0
 23 28  2  0  0  0  0
 23 24  1  0  0  0  0
 24 27  2  0  0  0  0
 25 23  1  0  0  0  0
 26 22  1  6  0  0  0
 27 29  1  0  0  0  0
 28 30  1  0  0  0  0
 29 26  1  0  0  0  0
 30 29  2  0  0  0  0
 30 26  1  0  0  0  0
M  END
>  <MODEL>
2

>  <REMARK>
 VINA RESULT:      -7.2      2.531      3.505
  Name = 
  8 active torsions:
  status: ('A' for Active; 'I' for Inactive)
    1  A    between atoms: C_3  and  C_11
    2  A    between atoms: C_3  and  C_19
    3  A    between atoms: N_4  and  C_13
    4  A    between atoms: C_7  and  C_30
    5  A    between atoms: C_8  and  C_13
    6  A    between atoms: C_10  and  C_25
    7  A    between atoms: C_11  and  C_25
    8  A    between atoms: C_13  and  C_30
                            x       y       z     vdW  Elec       q    Type
                         _______ _______ _______ _____ _____    ______ ____

>  <TORSDO>
F 8

$$$$
=
 OpenBabel11052417123D

 30 33  0  0  1  0  0  0  0  0999 V2000
  190.6630  175.5110  143.6880 C   0  0  1  0  0  3  0  0  0  0  0  0
  189.4680  176.4420  143.8180 C   0  0  1  0  0  3  0  0  0  0  0  0
  188.2750  175.7050  143.4250 N   0  0  0  0  0  2  0  0  0  0  0  0
  190.1480  174.2890  142.9670 C   0  0  0  0  0  2  0  0  0  0  0  0
  188.7400  174.6430  142.5470 C   0  0  0  0  0  2  0  0  0  0  0  0
  191.6770  177.5290  142.7830 O   0  0  0  0  0  1  0  0  0  0  0  0
  191.8180  176.1420  142.9040 C   0  0  1  0  0  3  0  0  0  0  0  0
  193.1940  175.7570  143.4660 C   0  0  1  0  0  3  0  0  0  0  0  0
  193.9300  172.6290  145.5770 C   0  0  0  0  0  1  0  0  0  0  0  0
  192.8070  175.6670  146.2370 S   0  0  0  0  0  0  0  0  0  0  0  0
  193.0680  174.7830  144.6680 C   0  0  2  0  0  3  0  0  0  0  0  0
  195.6300  174.7690  145.6950 S   0  0  0  0  0  0  0  0  0  0  0  0
  194.2910  173.8950  144.8260 C   0  0  1  0  0  3  0  0  0  0  0  0
  194.8750  177.4010  145.7690 C   0  0  0  0  0  1  0  0  0  0  0  0
  194.5720  176.0650  146.4180 C   0  0  1  0  0  3  0  0  0  0  0  0
  194.9960  176.3850  141.9390 C   0  0  0  0  0  1  0  0  0  0  0  0
  194.1050  175.3210  142.3890 N   0  0  0  0  0  0  0  0  0  0  0  0
  193.3180  174.8760  141.2520 C   0  0  0  0  0  1  0  0  0  0  0  0
  189.3370  176.9180  145.2530 C   0  0  0  0  0  2  0  0  0  0  0  0
  188.2590  176.1290  145.9700 C   0  0  1  0  0  3  0  0  0  0  0  0
  188.8450  175.2000  146.8330 O   0  0  0  0  0  1  0  0  0  0  0  0
  187.3820  177.0840  146.7580 C   0  0  0  0  0  2  0  0  0  0  0  0
  184.6070  178.0850  143.5210 C   0  0  0  0  0  0  0  0  0  0  0  0
  184.2580  179.1250  144.4920 C   0  0  0  0  0  3  0  0  0  0  0  0
  184.1540  178.3290  141.8480 Cl  0  0  0  0  0  0  0  0  0  0  0  0
  185.9140  176.7510  146.5570 C   0  0  1  0  0  3  0  0  0  0  0  0
  184.5680  179.0710  145.8960 C   0  0  0  0  0  3  0  0  0  0  0  0
  185.3090  176.8760  143.8650 C   0  0  0  0  0  3  0  0  0  0  0  0
  185.2270  177.9100  146.1600 C   0  0  0  0  0  0  0  0  0  0  0  0
  185.5770  176.8710  145.1990 C   0  0  0  0  0  0  0  0  0  0  0  0
  1  7  1  6  0  0  0
  1  2  1  0  0  0  0
  2 19  1  1  0  0  0
  3  2  1  0  0  0  0
  4  1  1  0  0  0  0
  5  4  1  0  0  0  0
  5  3  1  0  0  0  0
  7  6  1  1  0  0  0
  7  8  1  0  0  0  0
  8 17  1  6  0  0  0
 10 15  1  0  0  0  0
 11  8  1  6  0  0  0
 11 13  1  0  0  0  0
 11 10  1  0  0  0  0
 12 15  1  0  0  0  0
 13  9  1  1  0  0  0
 13 12  1  0  0  0  0
 15 14  1  6  0  0  0
 16 17  1  0  0  0  0
 18 17  1  0  0  0  0
 19 20  1  0  0  0  0
 20 22  1  0  0  0  0
 20 21  1  1  0  0  0
 23 28  2  0  0  0  0
 23 24  1  0  0  0  0
 24 27  2  0  0  0  0
 25 23  1  0  0  0  0
 26 22  1  6  0  0  0
 27 29  1  0  0  0  0
 28 30  1  0  0  0  0
 29 26  1  0  0  0  0
 30 29  2  0  0  0  0
 30 26  1  0  0  0  0
M  END
>  <MODEL>
3

>  <REMARK>
 VINA RESULT:      -7.1      2.382      3.883
  Name = 
  8 active torsions:
  status: ('A' for Active; 'I' for Inactive)
    1  A    between atoms: C_3  and  C_11
    2  A    between atoms: C_3  and  C_19
    3  A    between atoms: N_4  and  C_13
    4  A    between atoms: C_7  and  C_30
    5  A    between atoms: C_8  and  C_13
    6  A    between atoms: C_10  and  C_25
    7  A    between atoms: C_11  and  C_25
    8  A    between atoms: C_13  and  C_30
                            x       y       z     vdW  Elec       q    Type
                         _______ _______ _______ _____ _____    ______ ____

>  <TORSDO>
F 8

$$$$
=
 OpenBabel11052417123D

 30 33  0  0  1  0  0  0  0  0999 V2000
  192.8470  176.0560  144.0920 C   0  0  1  0  0  3  0  0  0  0  0  0
  192.0600  176.8220  145.1430 C   0  0  1  0  0  3  0  0  0  0  0  0
  190.9900  177.5450  144.4700 N   0  0  0  0  0  2  0  0  0  0  0  0
  192.3470  176.5640  142.7620 C   0  0  0  0  0  2  0  0  0  0  0  0
  191.4400  177.7240  143.0990 C   0  0  0  0  0  2  0  0  0  0  0  0
  194.7010  176.9450  145.3930 O   0  0  0  0  0  1  0  0  0  0  0  0
  194.3590  176.2780  144.2110 C   0  0  1  0  0  3  0  0  0  0  0  0
  195.1620  174.9820  144.0360 C   0  0  1  0  0  3  0  0  0  0  0  0
  193.6160  171.8800  142.3710 C   0  0  0  0  0  1  0  0  0  0  0  0
  194.0020  172.8930  145.4950 S   0  0  0  0  0  0  0  0  0  0  0  0
  194.2320  173.7470  143.9030 C   0  0  2  0  0  3  0  0  0  0  0  0
  196.0330  171.6710  143.6370 S   0  0  0  0  0  0  0  0  0  0  0  0
  194.7530  172.7330  142.8980 C   0  0  1  0  0  3  0  0  0  0  0  0
  196.6890  172.8470  146.0220 C   0  0  0  0  0  1  0  0  0  0  0  0
  195.5940  172.0250  145.3700 C   0  0  1  0  0  3  0  0  0  0  0  0
  197.5320  175.2580  143.5070 C   0  0  0  0  0  1  0  0  0  0  0  0
  196.1790  175.1270  142.9760 N   0  0  0  0  0  0  0  0  0  0  0  0
  195.8820  176.3120  142.1910 C   0  0  0  0  0  1  0  0  0  0  0  0
  191.4760  175.8560  146.1580 C   0  0  0  0  0  2  0  0  0  0  0  0
  190.0090  175.6110  145.8650 C   0  0  1  0  0  3  0  0  0  0  0  0
  189.7610  174.2380  145.8020 O   0  0  0  0  0  1  0  0  0  0  0  0
  189.1690  176.2380  146.9610 C   0  0  0  0  0  2  0  0  0  0  0  0
  186.1040  178.7760  145.1330 C   0  0  0  0  0  0  0  0  0  0  0  0
  185.8360  179.0290  146.5520 C   0  0  0  0  0  3  0  0  0  0  0  0
  185.4990  179.9250  143.9600 Cl  0  0  0  0  0  0  0  0  0  0  0  0
  187.6900  175.9990  146.7050 C   0  0  1  0  0  3  0  0  0  0  0  0
  186.2730  178.1820  147.6300 C   0  0  0  0  0  3  0  0  0  0  0  0
  186.8430  177.6390  144.6510 C   0  0  0  0  0  3  0  0  0  0  0  0
  186.9620  177.1280  147.1140 C   0  0  0  0  0  0  0  0  0  0  0  0
  187.2310  176.8700  145.7040 C   0  0  0  0  0  0  0  0  0  0  0  0
  1  7  1  1  0  0  0
  1  2  1  0  0  0  0
  2 19  1  1  0  0  0
  3  2  1  0  0  0  0
  4  5  1  0  0  0  0
  4  1  1  0  0  0  0
  5  3  1  0  0  0  0
  7  6  1  1  0  0  0
  8 17  1  6  0  0  0
  8  7  1  0  0  0  0
 11  8  1  1  0  0  0
 11 10  1  0  0  0  0
 12 15  1  0  0  0  0
 13  9  1  1  0  0  0
 13 12  1  0  0  0  0
 13 11  1  0  0  0  0
 15 10  1  0  0  0  0
 15 14  1  6  0  0  0
 17 16  1  0  0  0  0
 18 17  1  0  0  0  0
 20 21  1  1  0  0  0
 20 19  1  0  0  0  0
 20 22  1  0  0  0  0
 23 24  1  0  0  0  0
 24 27  2  0  0  0  0
 25 23  1  0  0  0  0
 26 22  1  1  0  0  0
 26 29  1  0  0  0  0
 28 23  2  0  0  0  0
 28 30  1  0  0  0  0
 29 27  1  0  0  0  0
 30 26  1  0  0  0  0
 30 29  2  0  0  0  0
M  END
>  <MODEL>
4

>  <REMARK>
 VINA RESULT:      -6.9      3.017      5.082
  Name = 
  8 active torsions:
  status: ('A' for Active; 'I' for Inactive)
    1  A    between atoms: C_3  and  C_11
    2  A    between atoms: C_3  and  C_19
    3  A    between atoms: N_4  and  C_13
    4  A    between atoms: C_7  and  C_30
    5  A    between atoms: C_8  and  C_13
    6  A    between atoms: C_10  and  C_25
    7  A    between atoms: C_11  and  C_25
    8  A    between atoms: C_13  and  C_30
                            x       y       z     vdW  Elec       q    Type
                         _______ _______ _______ _____ _____    ______ ____

>  <TORSDO>
F 8

$$$$
=
 OpenBabel11052417123D

 30 33  0  0  1  0  0  0  0  0999 V2000
  189.8090  175.8550  142.9840 C   0  0  1  0  0  3  0  0  0  0  0  0
  189.9810  177.3640  142.9230 C   0  0  1  0  0  3  0  0  0  0  0  0
  188.7470  177.9400  142.4060 N   0  0  0  0  0  2  0  0  0  0  0  0
  188.5240  175.5630  142.2470 C   0  0  0  0  0  2  0  0  0  0  0  0
  188.1130  176.8820  141.6350 C   0  0  0  0  0  2  0  0  0  0  0  0
  192.1990  175.7500  142.5400 O   0  0  0  0  0  1  0  0  0  0  0  0
  190.9750  175.1020  142.3340 C   0  0  1  0  0  3  0  0  0  0  0  0
  191.0350  173.6270  142.7560 C   0  0  1  0  0  3  0  0  0  0  0  0
  193.3990  170.7040  141.9480 C   0  0  0  0  0  1  0  0  0  0  0  0
  192.1360  173.2200  140.2150 S   0  0  0  0  0  0  0  0  0  0  0  0
  192.1540  172.8620  142.0000 C   0  0  2  0  0  3  0  0  0  0  0  0
  190.8170  170.6430  141.0460 S   0  0  0  0  0  0  0  0  0  0  0  0
  192.0510  171.3570  142.1780 C   0  0  1  0  0  3  0  0  0  0  0  0
  189.4420  172.7720  140.0060 C   0  0  0  0  0  1  0  0  0  0  0  0
  190.7740  172.0570  139.8970 C   0  0  1  0  0  3  0  0  0  0  0  0
  192.3610  173.0640  144.7300 C   0  0  0  0  0  1  0  0  0  0  0  0
  191.0610  173.4970  144.2270 N   0  0  0  0  0  0  0  0  0  0  0  0
  190.0680  172.5190  144.6350 C   0  0  0  0  0  1  0  0  0  0  0  0
  190.2680  177.9080  144.3100 C   0  0  0  0  0  2  0  0  0  0  0  0
  190.0690  176.8220  145.3500 C   0  0  1  0  0  3  0  0  0  0  0  0
  191.2820  176.5430  145.9820 O   0  0  0  0  0  1  0  0  0  0  0  0
  189.0500  177.2900  146.3720 C   0  0  0  0  0  2  0  0  0  0  0  0
  184.9240  178.2520  145.2600 C   0  0  0  0  0  0  0  0  0  0  0  0
  184.8240  178.3310  146.7200 C   0  0  0  0  0  3  0  0  0  0  0  0
  183.6900  179.0400  144.3030 Cl  0  0  0  0  0  0  0  0  0  0  0  0
  187.8000  176.4280  146.3130 C   0  0  1  0  0  3  0  0  0  0  0  0
  185.7630  177.7420  147.6380 C   0  0  0  0  0  3  0  0  0  0  0  0
  185.9860  177.5680  144.5700 C   0  0  0  0  0  3  0  0  0  0  0  0
  186.7390  177.1110  146.9290 C   0  0  0  0  0  0  0  0  0  0  0  0
  186.8440  177.0280  145.4770 C   0  0  0  0  0  0  0  0  0  0  0  0
  1  7  1  6  0  0  0
  2  1  1  0  0  0  0
  2 19  1  1  0  0  0
  3  2  1  0  0  0  0
  4  1  1  0  0  0  0
  5  4  1  0  0  0  0
  5  3  1  0  0  0  0
  7  6  1  1  0  0  0
  7  8  1  0  0  0  0
  8 17  1  1  0  0  0
 10 11  1  0  0  0  0
 11 13  1  0  0  0  0
 11  8  1  1  0  0  0
 12 13  1  0  0  0  0
 13  9  1  6  0  0  0
 15 14  1  1  0  0  0
 15 10  1  0  0  0  0
 15 12  1  0  0  0  0
 17 18  1  0  0  0  0
 17 16  1  0  0  0  0
 19 20  1  0  0  0  0
 20 21  1  1  0  0  0
 20 22  1  0  0  0  0
 23 24  1  0  0  0  0
 24 27  2  0  0  0  0
 25 23  1  0  0  0  0
 26 22  1  6  0  0  0
 26 29  1  0  0  0  0
 28 23  2  0  0  0  0
 28 30  1  0  0  0  0
 29 27  1  0  0  0  0
 30 26  1  0  0  0  0
 30 29  2  0  0  0  0
M  END
>  <MODEL>
5

>  <REMARK>
 VINA RESULT:      -6.8      2.761      4.246
  Name = 
  8 active torsions:
  status: ('A' for Active; 'I' for Inactive)
    1  A    between atoms: C_3  and  C_11
    2  A    between atoms: C_3  and  C_19
    3  A    between atoms: N_4  and  C_13
    4  A    between atoms: C_7  and  C_30
    5  A    between atoms: C_8  and  C_13
    6  A    between atoms: C_10  and  C_25
    7  A    between atoms: C_11  and  C_25
    8  A    between atoms: C_13  and  C_30
                            x       y       z     vdW  Elec       q    Type
                         _______ _______ _______ _____ _____    ______ ____

>  <TORSDO>
F 8

$$$$
=
 OpenBabel11052417123D

 30 33  0  0  1  0  0  0  0  0999 V2000
  191.6330  174.2820  144.6780 C   0  0  1  0  0  3  0  0  0  0  0  0
  190.6540  175.3760  144.2820 C   0  0  1  0  0  3  0  0  0  0  0  0
  189.3400  174.7700  144.1170 N   0  0  0  0  0  2  0  0  0  0  0  0
  190.8860  172.9830  144.4900 C   0  0  0  0  0  2  0  0  0  0  0  0
  189.5890  173.3690  143.8190 C   0  0  0  0  0  2  0  0  0  0  0  0
  192.7750  175.1100  142.6960 O   0  0  0  0  0  1  0  0  0  0  0  0
  192.9050  174.2910  143.8230 C   0  0  1  0  0  3  0  0  0  0  0  0
  194.1610  174.6370  144.6360 C   0  0  1  0  0  3  0  0  0  0  0  0
  197.9410  174.2420  144.0570 C   0  0  0  0  0  1  0  0  0  0  0  0
  195.2590  172.5360  143.1490 S   0  0  0  0  0  0  0  0  0  0  0  0
  195.4540  174.1770  143.9130 C   0  0  2  0  0  3  0  0  0  0  0  0
  196.6620  172.5790  145.8130 S   0  0  0  0  0  0  0  0  0  0  0  0
  196.6520  174.1210  144.8450 C   0  0  1  0  0  3  0  0  0  0  0  0
  194.2000  171.4430  145.4260 C   0  0  0  0  0  1  0  0  0  0  0  0
  195.5240  171.6640  144.7220 C   0  0  1  0  0  3  0  0  0  0  0  0
  195.2520  176.8200  144.5090 C   0  0  0  0  0  1  0  0  0  0  0  0
  194.1430  176.0510  145.0630 N   0  0  0  0  0  0  0  0  0  0  0  0
  194.2260  176.1120  146.5120 C   0  0  0  0  0  1  0  0  0  0  0  0
  190.6050  176.4410  145.3620 C   0  0  0  0  0  2  0  0  0  0  0  0
  189.6610  176.0190  146.4710 C   0  0  1  0  0  3  0  0  0  0  0  0
  190.3870  175.7480  147.6330 O   0  0  0  0  0  1  0  0  0  0  0  0
  188.6660  177.1340  146.7310 C   0  0  0  0  0  2  0  0  0  0  0  0
  184.9790  177.9290  144.5060 C   0  0  0  0  0  0  0  0  0  0  0  0
  184.7750  178.8030  145.6650 C   0  0  0  0  0  3  0  0  0  0  0  0
  184.0430  178.2410  143.0610 Cl  0  0  0  0  0  0  0  0  0  0  0  0
  187.2620  176.5720  146.8830 C   0  0  1  0  0  3  0  0  0  0  0  0
  185.4730  178.6770  146.9170 C   0  0  0  0  0  3  0  0  0  0  0  0
  185.9120  176.8330  144.4880 C   0  0  0  0  0  3  0  0  0  0  0  0
  186.3360  177.6270  146.8400 C   0  0  0  0  0  0  0  0  0  0  0  0
  186.5430  176.7540  145.6900 C   0  0  0  0  0  0  0  0  0  0  0  0
  1  7  1  6  0  0  0
  2  1  1  0  0  0  0
  2 19  1  1  0  0  0
  3  2  1  0  0  0  0
  4  1  1  0  0  0  0
  5  3  1  0  0  0  0
  5  4  1  0  0  0  0
  7  6  1  6  0  0  0
  7  8  1  0  0  0  0
  8 17  1  6  0  0  0
 10 11  1  0  0  0  0
 10 15  1  0  0  0  0
 11  8  1  1  0  0  0
 11 13  1  0  0  0  0
 13  9  1  6  0  0  0
 13 12  1  0  0  0  0
 15 14  1  1  0  0  0
 15 12  1  0  0  0  0
 16 17  1  0  0  0  0
 17 18  1  0  0  0  0
 19 20  1  0  0  0  0
 20 22  1  0  0  0  0
 20 21  1  1  0  0  0
 23 24  1  0  0  0  0
 24 27  2  0  0  0  0
 25 23  1  0  0  0  0
 26 22  1  6  0  0  0
 28 23  2  0  0  0  0
 28 30  1  0  0  0  0
 29 26  1  0  0  0  0
 29 27  1  0  0  0  0
 30 29  2  0  0  0  0
 30 26  1  0  0  0  0
M  END
>  <MODEL>
6

>  <REMARK>
 VINA RESULT:      -6.8      2.716      4.269
  Name = 
  8 active torsions:
  status: ('A' for Active; 'I' for Inactive)
    1  A    between atoms: C_3  and  C_11
    2  A    between atoms: C_3  and  C_19
    3  A    between atoms: N_4  and  C_13
    4  A    between atoms: C_7  and  C_30
    5  A    between atoms: C_8  and  C_13
    6  A    between atoms: C_10  and  C_25
    7  A    between atoms: C_11  and  C_25
    8  A    between atoms: C_13  and  C_30
                            x       y       z     vdW  Elec       q    Type
                         _______ _______ _______ _____ _____    ______ ____

>  <TORSDO>
F 8

$$$$
=
 OpenBabel11052417123D

 30 33  0  0  1  0  0  0  0  0999 V2000
  190.2110  176.0150  143.1330 C   0  0  1  0  0  3  0  0  0  0  0  0
  190.1920  177.3210  143.9110 C   0  0  1  0  0  3  0  0  0  0  0  0
  188.9890  178.0520  143.5380 N   0  0  0  0  0  2  0  0  0  0  0  0
  189.1060  176.1340  142.1120 C   0  0  0  0  0  2  0  0  0  0  0  0
  188.6260  177.5630  142.2170 C   0  0  0  0  0  2  0  0  0  0  0  0
  192.4390  176.8340  142.6010 O   0  0  0  0  0  1  0  0  0  0  0  0
  191.5530  175.7640  142.4350 C   0  0  1  0  0  3  0  0  0  0  0  0
  192.1910  174.4290  142.8430 C   0  0  1  0  0  3  0  0  0  0  0  0
  189.9920  171.9190  144.7540 C   0  0  0  0  0  1  0  0  0  0  0  0
  192.4670  173.9480  145.5870 S   0  0  0  0  0  0  0  0  0  0  0  0
  191.4730  173.8020  144.0680 C   0  0  2  0  0  3  0  0  0  0  0  0
  192.5920  171.2820  144.1900 S   0  0  0  0  0  0  0  0  0  0  0  0
  191.1440  172.3340  143.8610 C   0  0  1  0  0  3  0  0  0  0  0  0
  194.7260  172.9900  144.3700 C   0  0  0  0  0  1  0  0  0  0  0  0
  193.5140  172.5260  145.1530 C   0  0  1  0  0  3  0  0  0  0  0  0
  193.6630  173.6460  141.0570 C   0  0  0  0  0  1  0  0  0  0  0  0
  192.3470  173.5370  141.6760 N   0  0  0  0  0  0  0  0  0  0  0  0
  191.3460  173.8780  140.6800 C   0  0  0  0  0  1  0  0  0  0  0  0
  190.1860  177.0340  145.4010 C   0  0  0  0  0  2  0  0  0  0  0  0
  188.9080  176.3180  145.7920 C   0  0  1  0  0  3  0  0  0  0  0  0
  189.2150  175.1100  146.4220 O   0  0  0  0  0  1  0  0  0  0  0  0
  188.1070  177.2010  146.7290 C   0  0  0  0  0  2  0  0  0  0  0  0
  184.8390  177.9750  143.9180 C   0  0  0  0  0  0  0  0  0  0  0  0
  184.5690  179.0110  144.9190 C   0  0  0  0  0  3  0  0  0  0  0  0
  184.1350  178.1590  142.3270 Cl  0  0  0  0  0  0  0  0  0  0  0  0
  186.6470  176.7780  146.7460 C   0  0  1  0  0  3  0  0  0  0  0  0
  185.0810  179.0020  146.2640 C   0  0  0  0  0  3  0  0  0  0  0  0
  185.6550  176.8160  144.1700 C   0  0  0  0  0  3  0  0  0  0  0  0
  185.8410  177.8870  146.4410 C   0  0  0  0  0  0  0  0  0  0  0  0
  186.1120  176.8520  145.4500 C   0  0  0  0  0  0  0  0  0  0  0  0
  1  7  1  6  0  0  0
  1  2  1  0  0  0  0
  2 19  1  1  0  0  0
  3  2  1  0  0  0  0
  4  5  1  0  0  0  0
  4  1  1  0  0  0  0
  5  3  1  0  0  0  0
  7  6  1  1  0  0  0
  7  8  1  0  0  0  0
  8 17  1  6  0  0  0
 11  8  1  6  0  0  0
 11 10  1  0  0  0  0
 12 15  1  0  0  0  0
 13 11  1  0  0  0  0
 13 12  1  0  0  0  0
 13  9  1  1  0  0  0
 15 14  1  6  0  0  0
 15 10  1  0  0  0  0
 16 17  1  0  0  0  0
 18 17  1  0  0  0  0
 19 20  1  0  0  0  0
 20 21  1  1  0  0  0
 20 22  1  0  0  0  0
 23 28  2  0  0  0  0
 23 24  1  0  0  0  0
 24 27  2  0  0  0  0
 25 23  1  0  0  0  0
 26 22  1  6  0  0  0
 27 29  1  0  0  0  0
 28 30  1  0  0  0  0
 29 26  1  0  0  0  0
 30 29  2  0  0  0  0
 30 26  1  0  0  0  0
M  END
>  <MODEL>
7

>  <REMARK>
 VINA RESULT:      -6.7      2.600      4.136
  Name = 
  8 active torsions:
  status: ('A' for Active; 'I' for Inactive)
    1  A    between atoms: C_3  and  C_11
    2  A    between atoms: C_3  and  C_19
    3  A    between atoms: N_4  and  C_13
    4  A    between atoms: C_7  and  C_30
    5  A    between atoms: C_8  and  C_13
    6  A    between atoms: C_10  and  C_25
    7  A    between atoms: C_11  and  C_25
    8  A    between atoms: C_13  and  C_30
                            x       y       z     vdW  Elec       q    Type
                         _______ _______ _______ _____ _____    ______ ____

>  <TORSDO>
F 8

$$$$
=
 OpenBabel11052417123D

 30 33  0  0  1  0  0  0  0  0999 V2000
  191.9710  173.7250  144.1260 C   0  0  1  0  0  3  0  0  0  0  0  0
  190.7110  174.5220  144.4190 C   0  0  1  0  0  3  0  0  0  0  0  0
  189.7280  173.6180  145.0000 N   0  0  0  0  0  2  0  0  0  0  0  0
  191.5920  172.2780  144.3250 C   0  0  0  0  0  2  0  0  0  0  0  0
  190.0960  172.2890  144.5370 C   0  0  0  0  0  2  0  0  0  0  0  0
  191.7170  174.8790  141.9980 O   0  0  0  0  0  1  0  0  0  0  0  0
  192.4900  173.9460  142.7000 C   0  0  1  0  0  3  0  0  0  0  0  0
  193.9830  174.3010  142.6620 C   0  0  1  0  0  3  0  0  0  0  0  0
  196.1370  173.5650  145.7610 C   0  0  0  0  0  1  0  0  0  0  0  0
  194.7680  176.2850  144.4740 S   0  0  0  0  0  0  0  0  0  0  0  0
  194.5550  174.5180  144.0880 C   0  0  2  0  0  3  0  0  0  0  0  0
  197.2560  174.8260  143.6060 S   0  0  0  0  0  0  0  0  0  0  0  0
  195.8940  173.8290  144.2880 C   0  0  1  0  0  3  0  0  0  0  0  0
  196.0640  176.7910  142.1150 C   0  0  0  0  0  1  0  0  0  0  0  0
  196.3320  176.3970  143.5540 C   0  0  1  0  0  3  0  0  0  0  0  0
  194.9610  173.8560  140.4680 C   0  0  0  0  0  1  0  0  0  0  0  0
  194.7330  173.3500  141.8170 N   0  0  0  0  0  0  0  0  0  0  0  0
  193.9830  172.1100  141.7160 C   0  0  0  0  0  1  0  0  0  0  0  0
  191.0230  175.6450  145.3910 C   0  0  0  0  0  2  0  0  0  0  0  0
  190.2400  175.4580  146.6760 C   0  0  1  0  0  3  0  0  0  0  0  0
  191.1180  175.3800  147.7590 O   0  0  0  0  0  1  0  0  0  0  0  0
  189.2950  176.6310  146.8600 C   0  0  0  0  0  2  0  0  0  0  0  0
  185.9360  178.9580  145.2850 C   0  0  0  0  0  0  0  0  0  0  0  0
  185.6080  178.9640  146.7140 C   0  0  0  0  0  3  0  0  0  0  0  0
  185.1960  180.1690  144.2620 Cl  0  0  0  0  0  0  0  0  0  0  0  0
  187.8720  176.2290  146.5140 C   0  0  1  0  0  3  0  0  0  0  0  0
  186.1400  178.0390  147.6790 C   0  0  0  0  0  3  0  0  0  0  0  0
  186.8390  178.0150  144.6790 C   0  0  0  0  0  3  0  0  0  0  0  0
  186.9820  177.1750  147.0490 C   0  0  0  0  0  0  0  0  0  0  0  0
  187.3120  177.1640  145.6280 C   0  0  0  0  0  0  0  0  0  0  0  0
  1  7  1  6  0  0  0
  1  4  1  0  0  0  0
  1  2  1  0  0  0  0
  2  3  1  0  0  0  0
  2 19  1  1  0  0  0
  4  5  1  0  0  0  0
  5  3  1  0  0  0  0
  7  6  1  1  0  0  0
  8 17  1  1  0  0  0
  8  7  1  0  0  0  0
 11  8  1  6  0  0  0
 11 13  1  0  0  0  0
 11 10  1  0  0  0  0
 12 13  1  0  0  0  0
 13  9  1  1  0  0  0
 15 14  1  6  0  0  0
 15 12  1  0  0  0  0
 15 10  1  0  0  0  0
 16 17  1  0  0  0  0
 18 17  1  0  0  0  0
 19 20  1  0  0  0  0
 20 22  1  0  0  0  0
 20 21  1  1  0  0  0
 23 24  1  0  0  0  0
 24 27  2  0  0  0  0
 25 23  1  0  0  0  0
 26 22  1  1  0  0  0
 26 29  1  0  0  0  0
 28 23  2  0  0  0  0
 28 30  1  0  0  0  0
 29 27  1  0  0  0  0
 30 26  1  0  0  0  0
 30 29  2  0  0  0  0
M  END
>  <MODEL>
8

>  <REMARK>
 VINA RESULT:      -6.7      2.781      4.737
  Name = 
  8 active torsions:
  status: ('A' for Active; 'I' for Inactive)
    1  A    between atoms: C_3  and  C_11
    2  A    between atoms: C_3  and  C_19
    3  A    between atoms: N_4  and  C_13
    4  A    between atoms: C_7  and  C_30
    5  A    between atoms: C_8  and  C_13
    6  A    between atoms: C_10  and  C_25
    7  A    between atoms: C_11  and  C_25
    8  A    between atoms: C_13  and  C_30
                            x       y       z     vdW  Elec       q    Type
                         _______ _______ _______ _____ _____    ______ ____

>  <TORSDO>
F 8

$$$$
=
 OpenBabel11052417123D

 30 33  0  0  1  0  0  0  0  0999 V2000
  193.4100  175.5650  145.1480 C   0  0  1  0  0  3  0  0  0  0  0  0
  191.8910  175.6210  145.1290 C   0  0  1  0  0  3  0  0  0  0  0  0
  191.4520  176.3780  146.2930 N   0  0  0  0  0  2  0  0  0  0  0  0
  193.8190  176.1010  146.4970 C   0  0  0  0  0  2  0  0  0  0  0  0
  192.5270  176.2630  147.2650 C   0  0  0  0  0  2  0  0  0  0  0  0
  192.9230  173.2160  144.7420 O   0  0  0  0  0  1  0  0  0  0  0  0
  193.9490  174.1430  144.9560 C   0  0  1  0  0  3  0  0  0  0  0  0
  195.0260  174.0610  143.8640 C   0  0  1  0  0  3  0  0  0  0  0  0
  197.1890  177.1570  143.1390 C   0  0  0  0  0  1  0  0  0  0  0  0
  194.5800  175.7480  141.6750 S   0  0  0  0  0  0  0  0  0  0  0  0
  195.3670  175.4630  143.2920 C   0  0  2  0  0  3  0  0  0  0  0  0
  197.4740  174.9160  141.5940 S   0  0  0  0  0  0  0  0  0  0  0  0
  196.8620  175.6760  143.1310 C   0  0  1  0  0  3  0  0  0  0  0  0
  195.4280  173.3420  140.6780 C   0  0  0  0  0  1  0  0  0  0  0  0
  195.8460  174.7950  140.7830 C   0  0  1  0  0  3  0  0  0  0  0  0
  196.0610  171.8510  143.9770 C   0  0  0  0  0  1  0  0  0  0  0  0
  196.1820  173.2640  144.3190 N   0  0  0  0  0  0  0  0  0  0  0  0
  196.2990  173.3740  145.7620 C   0  0  0  0  0  1  0  0  0  0  0  0
  191.4140  176.2980  143.8580 C   0  0  0  0  0  2  0  0  0  0  0  0
  190.6390  177.5580  144.1930 C   0  0  1  0  0  3  0  0  0  0  0  0
  191.3570  178.6810  143.7780 O   0  0  0  0  0  1  0  0  0  0  0  0
  189.2930  177.5170  143.4950 C   0  0  0  0  0  2  0  0  0  0  0  0
  185.5860  177.9600  145.7840 C   0  0  0  0  0  0  0  0  0  0  0  0
  186.5510  177.8260  146.8790 C   0  0  0  0  0  3  0  0  0  0  0  0
  184.0250  178.6650  146.1400 Cl  0  0  0  0  0  0  0  0  0  0  0  0
  188.3850  176.4860  144.1430 C   0  0  1  0  0  3  0  0  0  0  0  0
  187.8730  177.2740  146.7410 C   0  0  0  0  0  3  0  0  0  0  0  0
  185.8530  177.5490  144.4310 C   0  0  0  0  0  3  0  0  0  0  0  0
  188.0660  176.9040  145.4450 C   0  0  0  0  0  0  0  0  0  0  0  0
  187.1100  177.0340  144.3520 C   0  0  0  0  0  0  0  0  0  0  0  0
  1  7  1  1  0  0  0
  1  4  1  0  0  0  0
  2 19  1  6  0  0  0
  2  1  1  0  0  0  0
  2  3  1  0  0  0  0
  3  5  1  0  0  0  0
  4  5  1  0  0  0  0
  7  6  1  6  0  0  0
  8 17  1  1  0  0  0
  8  7  1  0  0  0  0
 10 11  1  0  0  0  0
 11  8  1  6  0  0  0
 12 13  1  0  0  0  0
 13  9  1  6  0  0  0
 13 11  1  0  0  0  0
 15 14  1  1  0  0  0
 15 12  1  0  0  0  0
 15 10  1  0  0  0  0
 16 17  1  0  0  0  0
 17 18  1  0  0  0  0
 19 20  1  0  0  0  0
 20 21  1  6  0  0  0
 22 20  1  0  0  0  0
 23 25  1  0  0  0  0
 23 24  1  0  0  0  0
 26 22  1  6  0  0  0
 26 30  1  0  0  0  0
 26 29  1  0  0  0  0
 27 24  2  0  0  0  0
 28 23  2  0  0  0  0
 29 27  1  0  0  0  0
 30 28  1  0  0  0  0
 30 29  2  0  0  0  0
M  END
>  <MODEL>
9

>  <REMARK>
 VINA RESULT:      -6.6      2.897      4.966
  Name = 
  8 active torsions:
  status: ('A' for Active; 'I' for Inactive)
    1  A    between atoms: C_3  and  C_11
    2  A    between atoms: C_3  and  C_19
    3  A    between atoms: N_4  and  C_13
    4  A    between atoms: C_7  and  C_30
    5  A    between atoms: C_8  and  C_13
    6  A    between atoms: C_10  and  C_25
    7  A    between atoms: C_11  and  C_25
    8  A    between atoms: C_13  and  C_30
                            x       y       z     vdW  Elec       q    Type
                         _______ _______ _______ _____ _____    ______ ____

>  <TORSDO>
F 8

$$$$
