=
 OpenBabel11052417053D

 30 35  0  0  1  0  0  0  0  0999 V2000
  187.1330  176.6370  143.0290 C   0  0  0  0  0  0  0  0  0  0  0  0
  185.3290  177.6350  141.5480 C   0  0  1  0  0  3  0  0  0  0  0  0
  185.8580  178.6250  146.2480 C   0  0  0  0  0  2  0  0  0  0  0  0
  188.2490  176.7090  143.9150 C   0  0  0  0  0  0  0  0  0  0  0  0
  187.0290  175.5070  142.1840 C   0  0  0  0  0  3  0  0  0  0  0  0
  190.2200  173.2500  142.9250 S   0  0  0  0  0  0  0  0  0  0  0  0
  189.0880  174.6170  143.0460 C   0  0  0  0  0  0  0  0  0  0  0  0
  187.9990  173.3700  141.3890 N   0  0  0  0  0  2  0  0  0  0  0  0
  186.9410  177.9890  147.1130 C   0  0  1  0  0  3  0  0  0  0  0  0
  187.9980  174.5080  142.2280 C   0  0  0  0  0  0  0  0  0  0  0  0
  189.2280  175.6960  143.9050 C   0  0  0  0  0  3  0  0  0  0  0  0
  184.0170  178.2170  141.8040 N   0  0  0  0  0  2  0  0  0  0  0  0
  189.9760  172.4620  140.2970 C   0  0  0  0  0  1  0  0  0  0  0  0
  185.9200  178.2410  140.3640 N   0  0  0  0  0  1  0  0  0  0  0  0
  185.2190  177.6330  145.2800 C   0  0  0  0  0  2  0  0  0  0  0  0
  183.8580  178.3130  143.2490 C   0  0  2  0  0  3  0  0  0  0  0  0
  189.1780  172.5300  141.5850 C   0  0  1  0  0  3  0  0  0  0  0  0
  186.2140  177.8380  142.7770 C   0  0  1  0  0  3  0  0  0  0  0  0
  188.3510  177.7360  144.9940 C   0  0  0  0  0  2  0  0  0  0  0  0
  186.3480  177.2630  148.1470 O   0  0  0  0  0  1  0  0  0  0  0  0
  187.8960  177.0990  146.3100 C   0  0  1  0  0  3  0  0  0  0  0  0
  184.5450  179.5770  143.7430 C   0  0  0  0  0  2  0  0  0  0  0  0
  185.2290  178.2230  143.8770 C   0  0  2  0  0  0  0  0  0  0  0  0
  191.3160  176.8690  147.6020 C   0  0  2  0  0  3  0  0  0  0  0  0
  189.0810  176.5680  147.1210 C   0  0  1  0  0  3  0  0  0  0  0  0
  189.1310  175.0310  147.1490 C   0  0  0  0  0  2  0  0  0  0  0  0
  191.5090  175.3710  147.8860 C   0  0  0  0  0  2  0  0  0  0  0  0
  190.5660  174.5190  147.0400 C   0  0  0  0  0  2  0  0  0  0  0  0
  191.1450  177.6590  148.8970 C   0  0  0  0  0  1  0  0  0  0  0  0
  190.2890  177.1470  146.6640 O   0  0  0  0  0  0  0  0  0  0  0  0
  1  4  1  0  0  0  0
  2 14  1  6  0  0  0
  2 12  1  0  0  0  0
  2 18  1  0  0  0  0
  3  9  1  0  0  0  0
  4 19  1  0  0  0  0
  5 10  1  0  0  0  0
  5  1  2  0  0  0  0
  6  7  1  0  0  0  0
  7 11  1  0  0  0  0
  8 17  1  0  0  0  0
  8 10  1  0  0  0  0
  9 20  1  1  0  0  0
 10  7  2  0  0  0  0
 11  4  2  0  0  0  0
 12 16  1  0  0  0  0
 15  3  1  0  0  0  0
 16 22  1  6  0  0  0
 16 23  1  0  0  0  0
 17 13  1  6  0  0  0
 17  6  1  0  0  0  0
 18  1  1  1  0  0  0
 18 23  1  0  0  0  0
 21 19  1  6  0  0  0
 21  9  1  0  0  0  0
 21 25  1  0  0  0  0
 23 22  1  1  0  0  0
 23 15  1  0  0  0  0
 24 27  1  0  0  0  0
 24 29  1  1  0  0  0
 25 26  1  6  0  0  0
 28 26  1  0  0  0  0
 28 27  1  0  0  0  0
 30 25  1  0  0  0  0
 30 24  1  0  0  0  0
M  END
>  <MODEL>
1

>  <REMARK>
 VINA RESULT:      -9.3      0.000      0.000
  Name = 
  1 active torsions:
  status: ('A' for Active; 'I' for Inactive)
    1  A    between atoms: C_10  and  C_25
                            x       y       z     vdW  Elec       q    Type
                         _______ _______ _______ _____ _____    ______ ____

>  <TORSDO>
F 1

$$$$
=
 OpenBabel11052417053D

 30 35  0  0  1  0  0  0  0  0999 V2000
  188.3550  175.9050  143.1480 C   0  0  0  0  0  0  0  0  0  0  0  0
  185.9830  176.8040  143.2470 C   0  0  1  0  0  3  0  0  0  0  0  0
  189.1930  177.1720  146.8400 C   0  0  0  0  0  2  0  0  0  0  0  0
  189.7750  176.0260  143.2100 C   0  0  0  0  0  0  0  0  0  0  0  0
  187.8100  174.9080  142.3050 C   0  0  0  0  0  3  0  0  0  0  0  0
  190.8950  173.1100  140.5500 S   0  0  0  0  0  0  0  0  0  0  0  0
  190.0090  174.2450  141.5940 C   0  0  0  0  0  0  0  0  0  0  0  0
  188.1940  173.0930  140.6610 N   0  0  0  0  0  2  0  0  0  0  0  0
  190.6040  176.6000  146.7540 C   0  0  1  0  0  3  0  0  0  0  0  0
  188.6510  174.0830  141.5630 C   0  0  0  0  0  0  0  0  0  0  0  0
  190.5920  175.1970  142.4170 C   0  0  0  0  0  3  0  0  0  0  0  0
  185.0660  177.1240  144.3350 N   0  0  0  0  0  2  0  0  0  0  0  0
  189.1520  172.6850  138.4610 C   0  0  0  0  0  1  0  0  0  0  0  0
  185.7160  177.6630  142.1030 N   0  0  0  0  0  1  0  0  0  0  0  0
  188.1430  176.2420  146.2400 C   0  0  0  0  0  2  0  0  0  0  0  0
  185.8050  176.9820  145.5820 C   0  0  2  0  0  3  0  0  0  0  0  0
  189.2880  172.4350  139.9510 C   0  0  1  0  0  3  0  0  0  0  0  0
  187.4210  176.9650  143.7400 C   0  0  1  0  0  3  0  0  0  0  0  0
  190.4630  176.8880  144.2160 C   0  0  0  0  0  2  0  0  0  0  0  0
  190.7840  175.6460  147.7560 O   0  0  0  0  0  1  0  0  0  0  0  0
  190.9190  176.0010  145.3780 C   0  0  1  0  0  3  0  0  0  0  0  0
  186.5980  178.2540  145.8400 C   0  0  0  0  0  2  0  0  0  0  0  0
  187.2810  177.0230  145.2590 C   0  0  2  0  0  0  0  0  0  0  0  0
  193.8260  173.7730  145.3810 C   0  0  2  0  0  3  0  0  0  0  0  0
  192.3750  175.5560  145.2130 C   0  0  1  0  0  3  0  0  0  0  0  0
  193.3720  176.6050  145.7350 C   0  0  0  0  0  2  0  0  0  0  0  0
  195.0080  174.7000  145.7080 C   0  0  0  0  0  2  0  0  0  0  0  0
  194.5460  175.9470  146.4560 C   0  0  0  0  0  2  0  0  0  0  0  0
  193.8310  173.3690  143.9100 C   0  0  0  0  0  1  0  0  0  0  0  0
  192.5680  174.2810  145.7960 O   0  0  0  0  0  0  0  0  0  0  0  0
  1  4  1  0  0  0  0
  2 14  1  6  0  0  0
  2 18  1  0  0  0  0
  2 12  1  0  0  0  0
  4 19  1  0  0  0  0
  5  1  2  0  0  0  0
  6  7  1  0  0  0  0
  7 11  1  0  0  0  0
  8 10  1  0  0  0  0
  9  3  1  0  0  0  0
  9 20  1  1  0  0  0
 10  7  2  0  0  0  0
 10  5  1  0  0  0  0
 11  4  2  0  0  0  0
 12 16  1  0  0  0  0
 15  3  1  0  0  0  0
 16 22  1  1  0  0  0
 17 13  1  6  0  0  0
 17  6  1  0  0  0  0
 17  8  1  0  0  0  0
 18  1  1  1  0  0  0
 18 23  1  0  0  0  0
 21 19  1  6  0  0  0
 21  9  1  0  0  0  0
 23 16  1  0  0  0  0
 23 22  1  1  0  0  0
 23 15  1  0  0  0  0
 24 29  1  6  0  0  0
 24 27  1  0  0  0  0
 24 30  1  0  0  0  0
 25 21  1  0  0  0  0
 25 26  1  1  0  0  0
 25 30  1  0  0  0  0
 26 28  1  0  0  0  0
 27 28  1  0  0  0  0
M  END
>  <MODEL>
2

>  <REMARK>
 VINA RESULT:      -8.8      2.213      3.243
  Name = 
  1 active torsions:
  status: ('A' for Active; 'I' for Inactive)
    1  A    between atoms: C_10  and  C_25
                            x       y       z     vdW  Elec       q    Type
                         _______ _______ _______ _____ _____    ______ ____

>  <TORSDO>
F 1

$$$$
=
 OpenBabel11052417053D

 30 35  0  0  1  0  0  0  0  0999 V2000
  188.2050  176.3350  142.6080 C   0  0  0  0  0  0  0  0  0  0  0  0
  185.9250  177.3630  142.1750 C   0  0  1  0  0  3  0  0  0  0  0  0
  188.2380  177.5410  146.4130 C   0  0  0  0  0  2  0  0  0  0  0  0
  189.5770  176.3780  142.9950 C   0  0  0  0  0  0  0  0  0  0  0  0
  187.8170  175.3720  141.6460 C   0  0  0  0  0  3  0  0  0  0  0  0
  191.1240  173.4150  140.6150 S   0  0  0  0  0  0  0  0  0  0  0  0
  190.0820  174.5930  141.4470 C   0  0  0  0  0  0  0  0  0  0  0  0
  188.4730  173.5460  140.1040 N   0  0  0  0  0  2  0  0  0  0  0  0
  189.5990  176.8930  146.6430 C   0  0  1  0  0  3  0  0  0  0  0  0
  188.7620  174.5050  141.1030 C   0  0  0  0  0  0  0  0  0  0  0  0
  190.5100  175.5080  142.3970 C   0  0  0  0  0  3  0  0  0  0  0  0
  184.8010  177.7280  143.0290 N   0  0  0  0  0  2  0  0  0  0  0  0
  189.8870  173.0940  138.1760 C   0  0  0  0  0  1  0  0  0  0  0  0
  185.9730  178.2390  141.0140 N   0  0  0  0  0  1  0  0  0  0  0  0
  187.3060  176.6720  145.5740 C   0  0  0  0  0  2  0  0  0  0  0  0
  185.2250  177.5410  144.4100 C   0  0  2  0  0  3  0  0  0  0  0  0
  189.6640  172.8310  139.6530 C   0  0  1  0  0  3  0  0  0  0  0  0
  187.2170  177.4430  142.9870 C   0  0  1  0  0  3  0  0  0  0  0  0
  190.0600  177.1980  144.1460 C   0  0  0  0  0  2  0  0  0  0  0  0
  189.4940  175.9260  147.6440 O   0  0  0  0  0  1  0  0  0  0  0  0
  190.1900  176.2830  145.3670 C   0  0  1  0  0  3  0  0  0  0  0  0
  186.0030  178.7670  144.8630 C   0  0  0  0  0  2  0  0  0  0  0  0
  186.7350  177.5020  144.4340 C   0  0  2  0  0  0  0  0  0  0  0  0
  193.8450  176.2120  145.1360 C   0  0  2  0  0  3  0  0  0  0  0  0
  191.6190  175.7590  145.5320 C   0  0  1  0  0  3  0  0  0  0  0  0
  191.7260  174.2490  145.2580 C   0  0  0  0  0  2  0  0  0  0  0  0
  194.1850  174.7160  145.0430 C   0  0  0  0  0  2  0  0  0  0  0  0
  193.0080  173.9110  144.4990 C   0  0  0  0  0  2  0  0  0  0  0  0
  194.1910  176.7720  146.5130 C   0  0  0  0  0  1  0  0  0  0  0  0
  192.5160  176.5230  144.7480 O   0  0  0  0  0  0  0  0  0  0  0  0
  1  4  1  0  0  0  0
  2 14  1  6  0  0  0
  2 18  1  0  0  0  0
  2 12  1  0  0  0  0
  3  9  1  0  0  0  0
  4 19  1  0  0  0  0
  5  1  2  0  0  0  0
  6  7  1  0  0  0  0
  7 11  1  0  0  0  0
  8 10  1  0  0  0  0
  9 20  1  1  0  0  0
 10  7  2  0  0  0  0
 10  5  1  0  0  0  0
 11  4  2  0  0  0  0
 12 16  1  0  0  0  0
 15  3  1  0  0  0  0
 16 23  1  0  0  0  0
 16 22  1  1  0  0  0
 17 13  1  6  0  0  0
 17  8  1  0  0  0  0
 17  6  1  0  0  0  0
 18  1  1  1  0  0  0
 18 23  1  0  0  0  0
 21 19  1  6  0  0  0
 21 25  1  0  0  0  0
 21  9  1  0  0  0  0
 23 22  1  1  0  0  0
 23 15  1  0  0  0  0
 24 29  1  1  0  0  0
 25 26  1  6  0  0  0
 27 24  1  0  0  0  0
 28 27  1  0  0  0  0
 28 26  1  0  0  0  0
 30 24  1  0  0  0  0
 30 25  1  0  0  0  0
M  END
>  <MODEL>
3

>  <REMARK>
 VINA RESULT:      -8.7      1.971      2.431
  Name = 
  1 active torsions:
  status: ('A' for Active; 'I' for Inactive)
    1  A    between atoms: C_10  and  C_25
                            x       y       z     vdW  Elec       q    Type
                         _______ _______ _______ _____ _____    ______ ____

>  <TORSDO>
F 1

$$$$
=
 OpenBabel11052417053D

 30 35  0  0  1  0  0  0  0  0999 V2000
  187.3750  177.0660  144.9360 C   0  0  0  0  0  0  0  0  0  0  0  0
  185.7910  178.6460  146.1340 C   0  0  1  0  0  3  0  0  0  0  0  0
  185.7030  177.7800  141.3810 C   0  0  0  0  0  2  0  0  0  0  0  0
  187.6850  175.9370  144.1210 C   0  0  0  0  0  0  0  0  0  0  0  0
  188.3060  177.4410  145.9330 C   0  0  0  0  0  3  0  0  0  0  0  0
  191.2800  174.8050  145.7410 S   0  0  0  0  0  0  0  0  0  0  0  0
  189.7410  175.6040  145.3450 C   0  0  0  0  0  0  0  0  0  0  0  0
  190.4450  176.9880  147.1000 N   0  0  0  0  0  2  0  0  0  0  0  0
  186.6850  176.8400  140.6920 C   0  0  1  0  0  3  0  0  0  0  0  0
  189.4820  176.7140  146.1000 C   0  0  0  0  0  0  0  0  0  0  0  0
  188.8680  175.2050  144.3440 C   0  0  0  0  0  3  0  0  0  0  0  0
  184.9910  179.7910  145.7130 N   0  0  0  0  0  2  0  0  0  0  0  0
  191.5660  175.2910  148.4370 C   0  0  0  0  0  1  0  0  0  0  0  0
  185.1430  177.9700  147.2480 N   0  0  0  0  0  1  0  0  0  0  0  0
  186.3680  178.6490  142.4460 C   0  0  0  0  0  2  0  0  0  0  0  0
  185.0960  179.8840  144.2620 C   0  0  2  0  0  3  0  0  0  0  0  0
  191.5370  176.0180  147.1060 C   0  0  1  0  0  3  0  0  0  0  0  0
  185.9810  177.7040  144.9460 C   0  0  1  0  0  3  0  0  0  0  0  0
  186.8900  175.5810  142.9090 C   0  0  0  0  0  2  0  0  0  0  0  0
  187.4240  177.5480  139.7430 O   0  0  0  0  0  1  0  0  0  0  0  0
  187.6180  176.1280  141.6780 C   0  0  1  0  0  3  0  0  0  0  0  0
  184.1040  178.9220  143.6280 C   0  0  0  0  0  2  0  0  0  0  0  0
  185.5770  178.5490  143.7420 C   0  0  2  0  0  0  0  0  0  0  0  0
  188.6900  172.8300  140.4950 C   0  0  2  0  0  3  0  0  0  0  0  0
  188.5120  175.0660  141.0310 C   0  0  1  0  0  3  0  0  0  0  0  0
  189.9960  175.2480  141.3940 C   0  0  0  0  0  2  0  0  0  0  0  0
  190.2230  172.8750  140.6020 C   0  0  0  0  0  2  0  0  0  0  0  0
  190.6790  173.9030  141.6350 C   0  0  0  0  0  2  0  0  0  0  0  0
  188.2350  172.9280  139.0420 C   0  0  0  0  0  1  0  0  0  0  0  0
  188.0300  173.7690  141.3290 O   0  0  0  0  0  0  0  0  0  0  0  0
  1  5  1  0  0  0  0
  2 14  1  1  0  0  0
  3 15  1  0  0  0  0
  4 11  1  0  0  0  0
  4  1  2  0  0  0  0
  5 10  2  0  0  0  0
  6 17  1  0  0  0  0
  7  6  1  0  0  0  0
  7 10  1  0  0  0  0
  8 17  1  0  0  0  0
  9 20  1  6  0  0  0
  9  3  1  0  0  0  0
  9 21  1  0  0  0  0
 10  8  1  0  0  0  0
 11  7  2  0  0  0  0
 12  2  1  0  0  0  0
 16 22  1  6  0  0  0
 16 12  1  0  0  0  0
 17 13  1  1  0  0  0
 18  1  1  6  0  0  0
 18  2  1  0  0  0  0
 19  4  1  0  0  0  0
 21 19  1  1  0  0  0
 22 23  1  0  0  0  0
 23 15  1  6  0  0  0
 23 16  1  0  0  0  0
 23 18  1  0  0  0  0
 24 29  1  6  0  0  0
 24 27  1  0  0  0  0
 24 30  1  0  0  0  0
 25 30  1  0  0  0  0
 25 26  1  1  0  0  0
 25 21  1  0  0  0  0
 26 28  1  0  0  0  0
 27 28  1  0  0  0  0
M  END
>  <MODEL>
4

>  <REMARK>
 VINA RESULT:      -8.0      2.900      5.583
  Name = 
  1 active torsions:
  status: ('A' for Active; 'I' for Inactive)
    1  A    between atoms: C_10  and  C_25
                            x       y       z     vdW  Elec       q    Type
                         _______ _______ _______ _____ _____    ______ ____

>  <TORSDO>
F 1

$$$$
=
 OpenBabel11052417053D

 30 35  0  0  1  0  0  0  0  0999 V2000
  190.9280  175.0980  144.0110 C   0  0  0  0  0  0  0  0  0  0  0  0
  189.1000  175.3750  145.7500 C   0  0  1  0  0  3  0  0  0  0  0  0
  193.8030  176.0950  146.5960 C   0  0  0  0  0  2  0  0  0  0  0  0
  192.0260  175.5540  143.2220 C   0  0  0  0  0  0  0  0  0  0  0  0
  190.0850  174.1030  143.4620 C   0  0  0  0  0  3  0  0  0  0  0  0
  191.4830  173.3280  139.8190 S   0  0  0  0  0  0  0  0  0  0  0  0
  191.3600  174.0840  141.4250 C   0  0  0  0  0  0  0  0  0  0  0  0
  189.5180  172.6410  141.5440 N   0  0  0  0  0  2  0  0  0  0  0  0
  194.8760  175.8980  145.5310 C   0  0  1  0  0  3  0  0  0  0  0  0
  190.3340  173.6000  142.1880 C   0  0  0  0  0  0  0  0  0  0  0  0
  192.2250  175.0470  141.9230 C   0  0  0  0  0  3  0  0  0  0  0  0
  189.0740  175.3330  147.2070 N   0  0  0  0  0  2  0  0  0  0  0  0
  188.8660  172.7360  139.2000 C   0  0  0  0  0  1  0  0  0  0  0  0
  188.0620  176.2700  145.2600 N   0  0  0  0  0  1  0  0  0  0  0  0
  192.7270  175.0130  146.5550 C   0  0  0  0  0  2  0  0  0  0  0  0
  190.4540  175.2320  147.6640 C   0  0  2  0  0  3  0  0  0  0  0  0
  189.9590  172.3560  140.1800 C   0  0  1  0  0  3  0  0  0  0  0  0
  190.4850  175.8230  145.2860 C   0  0  1  0  0  3  0  0  0  0  0  0
  193.0970  176.4350  143.7740 C   0  0  0  0  0  2  0  0  0  0  0  0
  195.7680  174.9060  145.9440 O   0  0  0  0  0  1  0  0  0  0  0  0
  194.2930  175.5580  144.1550 C   0  0  1  0  0  3  0  0  0  0  0  0
  191.0750  176.6200  147.6870 C   0  0  0  0  0  2  0  0  0  0  0  0
  191.3550  175.6690  146.5310 C   0  0  2  0  0  0  0  0  0  0  0  0
  196.5590  174.1030  141.6710 C   0  0  2  0  0  3  0  0  0  0  0  0
  195.3360  175.5030  143.0350 C   0  0  1  0  0  3  0  0  0  0  0  0
  196.4590  176.5360  143.2280 C   0  0  0  0  0  2  0  0  0  0  0  0
  197.7070  175.1200  141.5710 C   0  0  0  0  0  2  0  0  0  0  0  0
  197.8190  175.9590  142.8410 C   0  0  0  0  0  2  0  0  0  0  0  0
  195.6550  174.1660  140.4440 C   0  0  0  0  0  1  0  0  0  0  0  0
  195.8260  174.1840  142.8840 O   0  0  0  0  0  0  0  0  0  0  0  0
  2 14  1  1  0  0  0
  2 12  1  0  0  0  0
  4 19  1  0  0  0  0
  4  1  2  0  0  0  0
  5  1  1  0  0  0  0
  6 17  1  0  0  0  0
  6  7  1  0  0  0  0
  7 11  2  0  0  0  0
  7 10  1  0  0  0  0
  8 10  1  0  0  0  0
  9 20  1  1  0  0  0
  9  3  1  0  0  0  0
 10  5  2  0  0  0  0
 11  4  1  0  0  0  0
 12 16  1  0  0  0  0
 15  3  1  0  0  0  0
 16 22  1  1  0  0  0
 17 13  1  6  0  0  0
 17  8  1  0  0  0  0
 18  1  1  6  0  0  0
 18  2  1  0  0  0  0
 18 23  1  0  0  0  0
 21 19  1  6  0  0  0
 21  9  1  0  0  0  0
 23 15  1  6  0  0  0
 23 16  1  0  0  0  0
 23 22  1  0  0  0  0
 24 29  1  6  0  0  0
 24 30  1  0  0  0  0
 25 26  1  1  0  0  0
 25 21  1  0  0  0  0
 27 24  1  0  0  0  0
 27 28  1  0  0  0  0
 28 26  1  0  0  0  0
 30 25  1  0  0  0  0
M  END
>  <MODEL>
5

>  <REMARK>
 VINA RESULT:      -7.8      4.381      6.657
  Name = 
  1 active torsions:
  status: ('A' for Active; 'I' for Inactive)
    1  A    between atoms: C_10  and  C_25
                            x       y       z     vdW  Elec       q    Type
                         _______ _______ _______ _____ _____    ______ ____

>  <TORSDO>
F 1

$$$$
=
 OpenBabel11052417053D

 30 35  0  0  1  0  0  0  0  0999 V2000
  188.9420  174.7560  141.5200 C   0  0  0  0  0  0  0  0  0  0  0  0
  189.2810  173.5760  139.2990 C   0  0  1  0  0  3  0  0  0  0  0  0
  192.5360  173.6600  142.8700 C   0  0  0  0  0  2  0  0  0  0  0  0
  188.8610  174.8100  142.9430 C   0  0  0  0  0  0  0  0  0  0  0  0
  188.1530  175.6660  140.7760 C   0  0  0  0  0  3  0  0  0  0  0  0
  186.0910  177.7970  143.4280 S   0  0  0  0  0  0  0  0  0  0  0  0
  187.2240  176.5800  142.7960 C   0  0  0  0  0  0  0  0  0  0  0  0
  186.4730  177.4870  140.7700 N   0  0  0  0  0  2  0  0  0  0  0  0
  192.3060  174.3970  144.1840 C   0  0  1  0  0  3  0  0  0  0  0  0
  187.3280  176.5750  141.4320 C   0  0  0  0  0  0  0  0  0  0  0  0
  187.9870  175.7200  143.5700 C   0  0  0  0  0  3  0  0  0  0  0  0
  190.4560  173.1650  138.5400 N   0  0  0  0  0  2  0  0  0  0  0  0
  184.1860  177.9740  141.4470 C   0  0  0  0  0  1  0  0  0  0  0  0
  188.1730  172.6730  139.0270 N   0  0  0  0  0  1  0  0  0  0  0  0
  192.0410  174.4450  141.6580 C   0  0  0  0  0  2  0  0  0  0  0  0
  191.6230  173.4160  139.3760 C   0  0  2  0  0  3  0  0  0  0  0  0
  185.6540  178.2620  141.6990 C   0  0  1  0  0  3  0  0  0  0  0  0
  189.6280  173.5990  140.7870 C   0  0  1  0  0  3  0  0  0  0  0  0
  189.7960  174.0540  143.8280 C   0  0  0  0  0  2  0  0  0  0  0  0
  193.2810  175.3830  144.3440 O   0  0  0  0  0  1  0  0  0  0  0  0
  190.9040  175.0080  144.2850 C   0  0  1  0  0  3  0  0  0  0  0  0
  191.8050  172.2540  140.3410 C   0  0  0  0  0  2  0  0  0  0  0  0
  191.1540  173.5490  140.8060 C   0  0  2  0  0  0  0  0  0  0  0  0
  189.9100  177.5410  146.7390 C   0  0  2  0  0  3  0  0  0  0  0  0
  190.5920  175.6250  145.6510 C   0  0  1  0  0  3  0  0  0  0  0  0
  191.5970  175.1930  146.7330 C   0  0  0  0  0  2  0  0  0  0  0  0
  190.6920  177.1600  148.0060 C   0  0  0  0  0  2  0  0  0  0  0  0
  191.9410  176.3510  147.6670 C   0  0  0  0  0  2  0  0  0  0  0  0
  188.4320  177.1880  146.8750 C   0  0  0  0  0  1  0  0  0  0  0  0
  190.4770  177.0310  145.5420 O   0  0  0  0  0  0  0  0  0  0  0  0
  1  4  1  0  0  0  0
  2 14  1  1  0  0  0
  2 18  1  0  0  0  0
  3  9  1  0  0  0  0
  4 11  2  0  0  0  0
  4 19  1  0  0  0  0
  5 10  1  0  0  0  0
  5  1  2  0  0  0  0
  7  6  1  0  0  0  0
  7 11  1  0  0  0  0
  8 10  1  0  0  0  0
  8 17  1  0  0  0  0
  9 21  1  0  0  0  0
  9 20  1  6  0  0  0
 10  7  2  0  0  0  0
 12  2  1  0  0  0  0
 12 16  1  0  0  0  0
 15  3  1  0  0  0  0
 16 22  1  1  0  0  0
 16 23  1  0  0  0  0
 17 13  1  6  0  0  0
 17  6  1  0  0  0  0
 18 23  1  0  0  0  0
 18  1  1  6  0  0  0
 21 19  1  1  0  0  0
 21 25  1  0  0  0  0
 23 22  1  1  0  0  0
 23 15  1  0  0  0  0
 24 29  1  1  0  0  0
 24 27  1  0  0  0  0
 25 26  1  1  0  0  0
 26 28  1  0  0  0  0
 28 27  1  0  0  0  0
 30 25  1  0  0  0  0
 30 24  1  0  0  0  0
M  END
>  <MODEL>
6

>  <REMARK>
 VINA RESULT:      -7.5      2.237      5.797
  Name = 
  1 active torsions:
  status: ('A' for Active; 'I' for Inactive)
    1  A    between atoms: C_10  and  C_25
                            x       y       z     vdW  Elec       q    Type
                         _______ _______ _______ _____ _____    ______ ____

>  <TORSDO>
F 1

$$$$
=
 OpenBabel11052417053D

 30 35  0  0  1  0  0  0  0  0999 V2000
  191.1640  173.4950  143.0210 C   0  0  0  0  0  0  0  0  0  0  0  0
  193.2300  172.4280  144.0380 C   0  0  1  0  0  3  0  0  0  0  0  0
  191.3220  176.6180  145.5040 C   0  0  0  0  0  2  0  0  0  0  0  0
  189.8420  174.0270  143.0680 C   0  0  0  0  0  0  0  0  0  0  0  0
  191.5890  172.8810  141.8190 C   0  0  0  0  0  3  0  0  0  0  0  0
  188.5020  173.0510  139.3150 S   0  0  0  0  0  0  0  0  0  0  0  0
  189.4450  173.2750  140.8070 C   0  0  0  0  0  0  0  0  0  0  0  0
  191.0510  172.1700  139.5070 N   0  0  0  0  0  2  0  0  0  0  0  0
  190.0910  177.2400  144.8550 C   0  0  1  0  0  3  0  0  0  0  0  0
  190.7270  172.8060  140.7290 C   0  0  0  0  0  0  0  0  0  0  0  0
  188.9850  173.9000  141.9570 C   0  0  0  0  0  3  0  0  0  0  0  0
  194.3690  172.9410  144.7910 N   0  0  0  0  0  2  0  0  0  0  0  0
  189.5380  170.7280  138.2590 C   0  0  0  0  0  1  0  0  0  0  0  0
  192.9540  171.0540  144.4300 N   0  0  0  0  0  1  0  0  0  0  0  0
  192.2820  176.0110  144.4850 C   0  0  0  0  0  2  0  0  0  0  0  0
  194.1050  174.3460  145.0730 C   0  0  2  0  0  3  0  0  0  0  0  0
  189.9320  172.1600  138.5670 C   0  0  1  0  0  3  0  0  0  0  0  0
  192.0220  173.3300  144.2800 C   0  0  1  0  0  3  0  0  0  0  0  0
  189.3610  174.8790  144.1970 C   0  0  0  0  0  2  0  0  0  0  0  0
  190.4210  178.4890  144.3260 O   0  0  0  0  0  1  0  0  0  0  0  0
  189.4730  176.3460  143.7730 C   0  0  1  0  0  3  0  0  0  0  0  0
  193.2120  174.4490  146.2990 C   0  0  0  0  0  2  0  0  0  0  0  0
  192.6230  174.5880  144.9010 C   0  0  2  0  0  0  0  0  0  0  0  0
  187.1960  178.1840  141.5680 C   0  0  2  0  0  3  0  0  0  0  0  0
  188.1510  176.8760  143.2100 C   0  0  1  0  0  3  0  0  0  0  0  0
  187.1650  177.2870  144.3160 C   0  0  0  0  0  2  0  0  0  0  0  0
  186.0040  178.5360  142.4720 C   0  0  0  0  0  2  0  0  0  0  0  0
  186.4090  178.5610  143.9430 C   0  0  0  0  0  2  0  0  0  0  0  0
  186.8390  177.0660  140.5940 C   0  0  0  0  0  1  0  0  0  0  0  0
  188.3940  177.9140  142.2800 O   0  0  0  0  0  0  0  0  0  0  0  0
  1  4  1  0  0  0  0
  2 18  1  0  0  0  0
  2 14  1  1  0  0  0
  2 12  1  0  0  0  0
  4 19  1  0  0  0  0
  5  1  2  0  0  0  0
  6  7  1  0  0  0  0
  7 11  1  0  0  0  0
  8 10  1  0  0  0  0
  9 20  1  6  0  0  0
  9  3  1  0  0  0  0
 10  7  2  0  0  0  0
 10  5  1  0  0  0  0
 11  4  2  0  0  0  0
 12 16  1  0  0  0  0
 15  3  1  0  0  0  0
 16 22  1  1  0  0  0
 17 13  1  1  0  0  0
 17  6  1  0  0  0  0
 17  8  1  0  0  0  0
 18  1  1  6  0  0  0
 18 23  1  0  0  0  0
 21 19  1  1  0  0  0
 21  9  1  0  0  0  0
 23 15  1  6  0  0  0
 23 16  1  0  0  0  0
 23 22  1  0  0  0  0
 24 29  1  1  0  0  0
 24 30  1  0  0  0  0
 24 27  1  0  0  0  0
 25 21  1  0  0  0  0
 25 26  1  1  0  0  0
 27 28  1  0  0  0  0
 28 26  1  0  0  0  0
 30 25  1  0  0  0  0
M  END
>  <MODEL>
7

>  <REMARK>
 VINA RESULT:      -7.5      3.272      6.635
  Name = 
  1 active torsions:
  status: ('A' for Active; 'I' for Inactive)
    1  A    between atoms: C_10  and  C_25
                            x       y       z     vdW  Elec       q    Type
                         _______ _______ _______ _____ _____    ______ ____

>  <TORSDO>
F 1

$$$$
=
 OpenBabel11052417053D

 30 35  0  0  1  0  0  0  0  0999 V2000
  191.6700  172.9780  142.8320 C   0  0  0  0  0  0  0  0  0  0  0  0
  193.8360  171.6550  142.8410 C   0  0  1  0  0  3  0  0  0  0  0  0
  192.4290  174.6120  146.3950 C   0  0  0  0  0  2  0  0  0  0  0  0
  190.4050  173.3690  143.3630 C   0  0  0  0  0  0  0  0  0  0  0  0
  191.8370  173.0050  141.4270 C   0  0  0  0  0  3  0  0  0  0  0  0
  188.3510  174.1700  139.9030 S   0  0  0  0  0  0  0  0  0  0  0  0
  189.5630  173.7240  141.1270 C   0  0  0  0  0  0  0  0  0  0  0  0
  190.8470  173.4140  139.1920 N   0  0  0  0  0  2  0  0  0  0  0  0
  191.1300  175.4070  146.3450 C   0  0  1  0  0  3  0  0  0  0  0  0
  190.7850  173.4010  140.6050 C   0  0  0  0  0  0  0  0  0  0  0  0
  189.3540  173.7290  142.4970 C   0  0  0  0  0  3  0  0  0  0  0  0
  195.1170  171.8140  143.5200 N   0  0  0  0  0  2  0  0  0  0  0  0
  189.0640  172.6420  137.7250 C   0  0  0  0  0  1  0  0  0  0  0  0
  193.5730  170.2440  142.6010 N   0  0  0  0  0  1  0  0  0  0  0  0
  193.1550  174.5850  145.0520 C   0  0  0  0  0  2  0  0  0  0  0  0
  194.9760  172.9190  144.4600 C   0  0  2  0  0  3  0  0  0  0  0  0
  189.5750  173.7880  138.5780 C   0  0  1  0  0  3  0  0  0  0  0  0
  192.7370  172.2900  143.6910 C   0  0  1  0  0  3  0  0  0  0  0  0
  190.1810  173.5840  144.8230 C   0  0  0  0  0  2  0  0  0  0  0  0
  191.4150  176.7730  146.3990 O   0  0  0  0  0  1  0  0  0  0  0  0
  190.2820  175.0850  145.1090 C   0  0  1  0  0  3  0  0  0  0  0  0
  194.3300  172.4070  145.7380 C   0  0  0  0  0  2  0  0  0  0  0  0
  193.5010  173.1460  144.6960 C   0  0  2  0  0  0  0  0  0  0  0  0
  187.6250  177.4200  144.1570 C   0  0  2  0  0  3  0  0  0  0  0  0
  188.9050  175.7550  145.1090 C   0  0  1  0  0  3  0  0  0  0  0  0
  188.3350  175.9250  146.5270 C   0  0  0  0  0  2  0  0  0  0  0  0
  186.7930  177.5830  145.4390 C   0  0  0  0  0  2  0  0  0  0  0  0
  187.6190  177.2660  146.6820 C   0  0  0  0  0  2  0  0  0  0  0  0
  186.8950  176.5590  143.1300 C   0  0  0  0  0  1  0  0  0  0  0  0
  188.9510  176.9720  144.3880 O   0  0  0  0  0  0  0  0  0  0  0  0
  1  4  1  0  0  0  0
  2 14  1  1  0  0  0
  2 12  1  0  0  0  0
  2 18  1  0  0  0  0
  4 19  1  0  0  0  0
  5  1  2  0  0  0  0
  6  7  1  0  0  0  0
  7 11  1  0  0  0  0
  8 10  1  0  0  0  0
  9  3  1  0  0  0  0
  9 20  1  6  0  0  0
 10  7  2  0  0  0  0
 10  5  1  0  0  0  0
 11  4  2  0  0  0  0
 12 16  1  0  0  0  0
 15  3  1  0  0  0  0
 16 23  1  0  0  0  0
 16 22  1  1  0  0  0
 17 13  1  1  0  0  0
 17  8  1  0  0  0  0
 17  6  1  0  0  0  0
 18  1  1  6  0  0  0
 18 23  1  0  0  0  0
 21 19  1  1  0  0  0
 21 25  1  0  0  0  0
 21  9  1  0  0  0  0
 23 15  1  1  0  0  0
 23 22  1  0  0  0  0
 24 29  1  6  0  0  0
 24 30  1  0  0  0  0
 24 27  1  0  0  0  0
 25 26  1  1  0  0  0
 26 28  1  0  0  0  0
 27 28  1  0  0  0  0
 30 25  1  0  0  0  0
M  END
>  <MODEL>
8

>  <REMARK>
 VINA RESULT:      -7.0      3.178      6.793
  Name = 
  1 active torsions:
  status: ('A' for Active; 'I' for Inactive)
    1  A    between atoms: C_10  and  C_25
                            x       y       z     vdW  Elec       q    Type
                         _______ _______ _______ _____ _____    ______ ____

>  <TORSDO>
F 1

$$$$
=
 OpenBabel11052417053D

 30 35  0  0  1  0  0  0  0  0999 V2000
  191.3430  174.7170  145.1020 C   0  0  0  0  0  0  0  0  0  0  0  0
  191.0050  176.1080  147.1980 C   0  0  1  0  0  3  0  0  0  0  0  0
  187.8170  175.8050  143.5790 C   0  0  0  0  0  2  0  0  0  0  0  0
  190.9870  173.6990  144.1690 C   0  0  0  0  0  0  0  0  0  0  0  0
  192.7180  174.9920  145.2900 C   0  0  0  0  0  3  0  0  0  0  0  0
  194.7030  172.4670  142.9420 S   0  0  0  0  0  0  0  0  0  0  0  0
  193.3220  173.2710  143.7240 C   0  0  0  0  0  0  0  0  0  0  0  0
  195.0730  174.4550  144.7360 N   0  0  0  0  0  2  0  0  0  0  0  0
  188.0640  174.9750  142.3250 C   0  0  1  0  0  3  0  0  0  0  0  0
  193.6790  174.2780  144.5780 C   0  0  0  0  0  0  0  0  0  0  0  0
  191.9880  172.9730  143.4940 C   0  0  0  0  0  3  0  0  0  0  0  0
  190.1920  177.2750  147.5180 N   0  0  0  0  0  2  0  0  0  0  0  0
  196.6900  172.6380  144.8410 C   0  0  0  0  0  1  0  0  0  0  0  0
  191.1910  175.2910  148.3880 N   0  0  0  0  0  1  0  0  0  0  0  0
  189.0620  176.5580  144.0420 C   0  0  0  0  0  2  0  0  0  0  0  0
  189.3400  177.5410  146.3650 C   0  0  2  0  0  3  0  0  0  0  0  0
  195.8510  173.5160  143.9310 C   0  0  1  0  0  3  0  0  0  0  0  0
  190.3270  175.3170  146.0800 C   0  0  1  0  0  3  0  0  0  0  0  0
  189.5770  173.4690  143.7330 C   0  0  0  0  0  2  0  0  0  0  0  0
  188.0560  175.8070  141.2040 O   0  0  0  0  0  1  0  0  0  0  0  0
  189.3690  174.1740  142.3890 C   0  0  1  0  0  3  0  0  0  0  0  0
  188.1190  176.6370  146.4290 C   0  0  0  0  0  2  0  0  0  0  0  0
  189.2910  176.2880  145.5220 C   0  0  2  0  0  0  0  0  0  0  0  0
  190.8250  172.7930  139.3240 C   0  0  2  0  0  3  0  0  0  0  0  0
  189.5690  173.2170  141.2110 C   0  0  1  0  0  3  0  0  0  0  0  0
  188.2350  172.7420  140.6080 C   0  0  0  0  0  2  0  0  0  0  0  0
  189.6480  172.0830  138.6380 C   0  0  0  0  0  2  0  0  0  0  0  0
  188.3100  172.6660  139.0840 C   0  0  0  0  0  2  0  0  0  0  0  0
  191.7940  171.7880  139.9410 C   0  0  0  0  0  1  0  0  0  0  0  0
  190.4300  173.7950  140.2480 O   0  0  0  0  0  0  0  0  0  0  0  0
  1  5  1  0  0  0  0
  2 12  1  0  0  0  0
  2 14  1  1  0  0  0
  3 15  1  0  0  0  0
  4  1  2  0  0  0  0
  6  7  1  0  0  0  0
  6 17  1  0  0  0  0
  7 10  1  0  0  0  0
  9 20  1  6  0  0  0
  9 21  1  0  0  0  0
  9  3  1  0  0  0  0
 10  8  1  0  0  0  0
 10  5  2  0  0  0  0
 11  7  2  0  0  0  0
 11  4  1  0  0  0  0
 16 22  1  1  0  0  0
 16 12  1  0  0  0  0
 17  8  1  0  0  0  0
 17 13  1  1  0  0  0
 18  1  1  6  0  0  0
 18  2  1  0  0  0  0
 19  4  1  0  0  0  0
 21 19  1  1  0  0  0
 23 15  1  6  0  0  0
 23 18  1  0  0  0  0
 23 16  1  0  0  0  0
 23 22  1  0  0  0  0
 24 29  1  1  0  0  0
 24 30  1  0  0  0  0
 25 26  1  6  0  0  0
 25 21  1  0  0  0  0
 27 28  1  0  0  0  0
 27 24  1  0  0  0  0
 28 26  1  0  0  0  0
 30 25  1  0  0  0  0
M  END
>  <MODEL>
9

>  <REMARK>
 VINA RESULT:      -7.0      3.945      6.863
  Name = 
  1 active torsions:
  status: ('A' for Active; 'I' for Inactive)
    1  A    between atoms: C_10  and  C_25
                            x       y       z     vdW  Elec       q    Type
                         _______ _______ _______ _____ _____    ______ ____

>  <TORSDO>
F 1

$$$$
