=
 OpenBabel11052417303D

 25 28  0  0  1  0  0  0  0  0999 V2000
  185.8240  177.5800  143.7800 C   0  0  0  0  0  0  0  0  0  0  0  0
  186.6080  176.9860  142.7740 C   0  0  0  0  0  0  0  0  0  0  0  0
  184.3690  178.5920  142.1010 C   0  0  0  0  0  3  0  0  0  0  0  0
  185.9890  177.4950  145.1730 C   0  0  0  0  0  0  0  0  0  0  0  0
  185.9930  177.5590  147.9650 C   0  0  0  0  0  3  0  0  0  0  0  0
  185.1440  178.0050  141.0940 C   0  0  0  0  0  3  0  0  0  0  0  0
  185.0220  178.2130  145.8730 C   0  0  0  0  0  0  0  0  0  0  0  0
  185.0010  178.2620  147.2650 C   0  0  0  0  0  3  0  0  0  0  0  0
  187.0530  176.6020  140.4280 C   0  0  0  0  0  0  0  0  0  0  0  0
  186.7590  176.7780  138.9760 C   0  0  0  0  0  1  0  0  0  0  0  0
  187.6830  176.2130  143.0780 N   0  0  0  0  0  0  0  0  0  0  0  0
  186.9760  176.8280  147.2710 C   0  0  0  0  0  3  0  0  0  0  0  0
  184.7270  178.3670  143.4280 C   0  0  0  0  0  0  0  0  0  0  0  0
  183.9550  178.9610  144.8040 S   0  0  0  0  0  0  0  0  0  0  0  0
  188.1160  175.8390  140.7920 N   0  0  0  0  0  0  0  0  0  0  0  0
  186.9780  176.7920  145.8680 C   0  0  0  0  0  3  0  0  0  0  0  0
  188.4320  175.6420  142.0990 C   0  0  0  0  0  0  0  0  0  0  0  0
  186.2590  177.2030  141.4180 C   0  0  0  0  0  0  0  0  0  0  0  0
  189.8390  174.6320  142.5340 S   0  0  0  0  0  0  0  0  0  0  0  0
  190.3610  175.7920  143.8410 C   0  0  0  0  0  2  0  0  0  0  0  0
  190.7730  175.0700  145.1280 C   0  0  2  0  0  3  0  0  0  0  0  0
  189.7300  174.0030  145.4560 C   0  0  0  0  0  1  0  0  0  0  0  0
  190.9630  176.0030  146.2490 N   0  0  0  0  0  0  0  0  0  0  0  0
  192.3910  176.1580  146.4880 C   0  0  0  0  0  1  0  0  0  0  0  0
  190.4420  175.3870  147.4620 C   0  0  0  0  0  1  0  0  0  0  0  0
  1  4  1  0  0  0  0
  2 11  1  0  0  0  0
  2  1  1  0  0  0  0
  3 13  1  0  0  0  0
  4 16  2  0  0  0  0
  4  7  1  0  0  0  0
  6 18  1  0  0  0  0
  6  3  2  0  0  0  0
  7  8  2  0  0  0  0
  8  5  1  0  0  0  0
  9 15  2  0  0  0  0
  9 18  1  0  0  0  0
 10  9  1  0  0  0  0
 12  5  2  0  0  0  0
 13  1  2  0  0  0  0
 13 14  1  0  0  0  0
 14  7  1  0  0  0  0
 15 17  1  0  0  0  0
 16 12  1  0  0  0  0
 17 19  1  0  0  0  0
 17 11  2  0  0  0  0
 18  2  2  0  0  0  0
 19 20  1  0  0  0  0
 20 21  1  0  0  0  0
 21 22  1  1  0  0  0
 21 23  1  0  0  0  0
 23 24  1  0  0  0  0
 23 25  1  0  0  0  0
M  END
>  <MODEL>
1

>  <REMARK>
 VINA RESULT:      -7.0      0.000      0.000
  Name = 
  4 active torsions:
  status: ('A' for Active; 'I' for Inactive)
    1  A    between atoms: N_2  and  C_21
    2  A    between atoms: S_6  and  C_15
    3  A    between atoms: S_6  and  C_23
    4  A    between atoms: C_15  and  C_21
                            x       y       z     vdW  Elec       q    Type
                         _______ _______ _______ _____ _____    ______ ____

>  <TORSDO>
F 4

$$$$
=
 OpenBabel11052417303D

 25 28  0  0  1  0  0  0  0  0999 V2000
  187.3450  176.8130  144.3330 C   0  0  0  0  0  0  0  0  0  0  0  0
  188.6510  176.2890  144.3330 C   0  0  0  0  0  0  0  0  0  0  0  0
  187.1250  176.3650  141.9430 C   0  0  0  0  0  3  0  0  0  0  0  0
  186.6230  177.3460  145.4140 C   0  0  0  0  0  0  0  0  0  0  0  0
  184.8930  178.4620  147.3010 C   0  0  0  0  0  3  0  0  0  0  0  0
  188.4230  175.8410  141.9350 C   0  0  0  0  0  3  0  0  0  0  0  0
  185.3490  177.7750  145.0500 C   0  0  0  0  0  0  0  0  0  0  0  0
  184.4670  178.3350  145.9710 C   0  0  0  0  0  3  0  0  0  0  0  0
  190.4940  175.2780  143.1380 C   0  0  0  0  0  0  0  0  0  0  0  0
  191.1410  174.7400  141.9060 C   0  0  0  0  0  1  0  0  0  0  0  0
  189.3960  176.2440  145.4680 N   0  0  0  0  0  0  0  0  0  0  0  0
  186.1770  178.0320  147.6840 C   0  0  0  0  0  3  0  0  0  0  0  0
  186.6120  176.8410  143.1460 C   0  0  0  0  0  0  0  0  0  0  0  0
  185.0860  177.5120  143.4070 S   0  0  0  0  0  0  0  0  0  0  0  0
  191.1910  175.2590  144.3040 N   0  0  0  0  0  0  0  0  0  0  0  0
  187.0510  177.4700  146.7400 C   0  0  0  0  0  3  0  0  0  0  0  0
  190.6540  175.7340  145.4590 C   0  0  0  0  0  0  0  0  0  0  0  0
  189.1900  175.7980  143.1190 C   0  0  0  0  0  0  0  0  0  0  0  0
  191.6060  175.6900  146.9690 S   0  0  0  0  0  0  0  0  0  0  0  0
  192.8920  174.6400  146.2130 C   0  0  0  0  0  2  0  0  0  0  0  0
  194.2740  175.3020  146.2440 C   0  0  2  0  0  3  0  0  0  0  0  0
  194.1100  176.7800  146.5930 C   0  0  0  0  0  1  0  0  0  0  0  0
  195.0010  175.1230  144.9780 N   0  0  0  0  0  0  0  0  0  0  0  0
  196.3040  174.5420  145.2690 C   0  0  0  0  0  1  0  0  0  0  0  0
  195.2910  176.4350  144.4160 C   0  0  0  0  0  1  0  0  0  0  0  0
  1  4  1  0  0  0  0
  2  1  1  0  0  0  0
  2 11  1  0  0  0  0
  3 13  1  0  0  0  0
  4 16  1  0  0  0  0
  5 12  1  0  0  0  0
  6  3  2  0  0  0  0
  6 18  1  0  0  0  0
  7  4  2  0  0  0  0
  7  8  1  0  0  0  0
  8  5  2  0  0  0  0
  9 15  2  0  0  0  0
 10  9  1  0  0  0  0
 13 14  1  0  0  0  0
 13  1  2  0  0  0  0
 14  7  1  0  0  0  0
 15 17  1  0  0  0  0
 16 12  2  0  0  0  0
 17 11  2  0  0  0  0
 17 19  1  0  0  0  0
 18  9  1  0  0  0  0
 18  2  2  0  0  0  0
 20 21  1  0  0  0  0
 20 19  1  0  0  0  0
 21 22  1  6  0  0  0
 23 24  1  0  0  0  0
 23 21  1  0  0  0  0
 25 23  1  0  0  0  0
M  END
>  <MODEL>
2

>  <REMARK>
 VINA RESULT:      -6.9      2.157      3.600
  Name = 
  4 active torsions:
  status: ('A' for Active; 'I' for Inactive)
    1  A    between atoms: N_2  and  C_21
    2  A    between atoms: S_6  and  C_15
    3  A    between atoms: S_6  and  C_23
    4  A    between atoms: C_15  and  C_21
                            x       y       z     vdW  Elec       q    Type
                         _______ _______ _______ _____ _____    ______ ____

>  <TORSDO>
F 4

$$$$
=
 OpenBabel11052417303D

 25 28  0  0  1  0  0  0  0  0999 V2000
  187.0820  177.0850  143.4800 C   0  0  0  0  0  0  0  0  0  0  0  0
  187.9180  176.0060  143.1410 C   0  0  0  0  0  0  0  0  0  0  0  0
  186.5840  177.4890  141.1250 C   0  0  0  0  0  3  0  0  0  0  0  0
  186.7810  177.5810  144.7590 C   0  0  0  0  0  0  0  0  0  0  0  0
  185.9540  178.8340  147.1140 C   0  0  0  0  0  3  0  0  0  0  0  0
  187.4140  176.4160  140.7780 C   0  0  0  0  0  3  0  0  0  0  0  0
  185.9100  178.6680  144.7240 C   0  0  0  0  0  0  0  0  0  0  0  0
  185.4820  179.3110  145.8830 C   0  0  0  0  0  3  0  0  0  0  0  0
  188.9190  174.5910  141.4540 C   0  0  0  0  0  0  0  0  0  0  0  0
  189.1490  174.1700  140.0410 C   0  0  0  0  0  1  0  0  0  0  0  0
  188.5650  175.2840  144.0920 N   0  0  0  0  0  0  0  0  0  0  0  0
  186.8330  177.7360  147.1670 C   0  0  0  0  0  3  0  0  0  0  0  0
  186.4350  177.8020  142.4730 C   0  0  0  0  0  0  0  0  0  0  0  0
  185.4970  179.0390  143.1330 S   0  0  0  0  0  0  0  0  0  0  0  0
  189.5400  173.9060  142.4490 N   0  0  0  0  0  0  0  0  0  0  0  0
  187.2520  177.1030  145.9870 C   0  0  0  0  0  3  0  0  0  0  0  0
  189.3680  174.2420  143.7550 C   0  0  0  0  0  0  0  0  0  0  0  0
  188.0820  175.6710  141.7730 C   0  0  0  0  0  0  0  0  0  0  0  0
  190.2030  173.3140  145.0320 S   0  0  0  0  0  0  0  0  0  0  0  0
  189.8040  174.5630  146.3010 C   0  0  0  0  0  2  0  0  0  0  0  0
  191.0520  175.2920  146.8100 C   0  0  2  0  0  3  0  0  0  0  0  0
  190.6310  176.6150  147.4470 C   0  0  0  0  0  1  0  0  0  0  0  0
  192.0450  175.4970  145.7450 N   0  0  0  0  0  0  0  0  0  0  0  0
  193.3600  175.6350  146.3550 C   0  0  0  0  0  1  0  0  0  0  0  0
  191.7890  176.7820  145.1080 C   0  0  0  0  0  1  0  0  0  0  0  0
  1  4  1  0  0  0  0
  2  1  1  0  0  0  0
  2 11  1  0  0  0  0
  3 13  1  0  0  0  0
  4 16  1  0  0  0  0
  5 12  1  0  0  0  0
  6  3  2  0  0  0  0
  6 18  1  0  0  0  0
  7  4  2  0  0  0  0
  7  8  1  0  0  0  0
  8  5  2  0  0  0  0
  9 18  1  0  0  0  0
  9 15  2  0  0  0  0
 10  9  1  0  0  0  0
 13 14  1  0  0  0  0
 13  1  2  0  0  0  0
 14  7  1  0  0  0  0
 15 17  1  0  0  0  0
 16 12  2  0  0  0  0
 17 11  2  0  0  0  0
 17 19  1  0  0  0  0
 18  2  2  0  0  0  0
 19 20  1  0  0  0  0
 20 21  1  0  0  0  0
 21 22  1  6  0  0  0
 23 24  1  0  0  0  0
 23 21  1  0  0  0  0
 25 23  1  0  0  0  0
M  END
>  <MODEL>
3

>  <REMARK>
 VINA RESULT:      -6.9      1.534      2.247
  Name = 
  4 active torsions:
  status: ('A' for Active; 'I' for Inactive)
    1  A    between atoms: N_2  and  C_21
    2  A    between atoms: S_6  and  C_15
    3  A    between atoms: S_6  and  C_23
    4  A    between atoms: C_15  and  C_21
                            x       y       z     vdW  Elec       q    Type
                         _______ _______ _______ _____ _____    ______ ____

>  <TORSDO>
F 4

$$$$
=
 OpenBabel11052417303D

 25 28  0  0  1  0  0  0  0  0999 V2000
  187.2710  177.5870  144.1540 C   0  0  0  0  0  0  0  0  0  0  0  0
  188.5770  177.2350  144.5400 C   0  0  0  0  0  0  0  0  0  0  0  0
  186.6220  177.8880  146.4880 C   0  0  0  0  0  3  0  0  0  0  0  0
  186.7430  177.6730  142.8550 C   0  0  0  0  0  0  0  0  0  0  0  0
  185.3530  177.9510  140.4490 C   0  0  0  0  0  3  0  0  0  0  0  0
  187.9190  177.5390  146.8810 C   0  0  0  0  0  3  0  0  0  0  0  0
  185.4030  178.0540  142.8430 C   0  0  0  0  0  0  0  0  0  0  0  0
  184.6860  178.1990  141.6580 C   0  0  0  0  0  3  0  0  0  0  0  0
  190.2080  176.8600  146.2860 C   0  0  0  0  0  0  0  0  0  0  0  0
  190.6350  176.8110  147.7150 C   0  0  0  0  0  1  0  0  0  0  0  0
  189.5270  176.9190  143.6210 N   0  0  0  0  0  0  0  0  0  0  0  0
  186.7060  177.5660  140.4440 C   0  0  0  0  0  3  0  0  0  0  0  0
  186.3240  177.9050  145.1280 C   0  0  0  0  0  0  0  0  0  0  0  0
  184.8450  178.2900  144.4150 S   0  0  0  0  0  0  0  0  0  0  0  0
  191.1150  176.5550  145.3220 N   0  0  0  0  0  0  0  0  0  0  0  0
  187.4100  177.4250  141.6500 C   0  0  0  0  0  3  0  0  0  0  0  0
  190.7860  176.5830  144.0040 C   0  0  0  0  0  0  0  0  0  0  0  0
  188.9000  177.2130  145.9200 C   0  0  0  0  0  0  0  0  0  0  0  0
  192.0090  176.1740  142.7700 S   0  0  0  0  0  0  0  0  0  0  0  0
  192.6310  174.7650  143.7480 C   0  0  0  0  0  2  0  0  0  0  0  0
  194.0880  174.9580  144.1840 C   0  0  2  0  0  3  0  0  0  0  0  0
  194.2620  174.4030  145.5960 C   0  0  0  0  0  1  0  0  0  0  0  0
  194.5070  176.3650  144.1000 N   0  0  0  0  0  0  0  0  0  0  0  0
  195.8610  176.4160  143.5660 C   0  0  0  0  0  1  0  0  0  0  0  0
  194.6140  176.9020  145.4500 C   0  0  0  0  0  1  0  0  0  0  0  0
  1  2  2  0  0  0  0
  1 13  1  0  0  0  0
  2 18  1  0  0  0  0
  3  6  1  0  0  0  0
  4  1  1  0  0  0  0
  5  8  1  0  0  0  0
  7  4  1  0  0  0  0
  7 14  1  0  0  0  0
  8  7  2  0  0  0  0
  9 10  1  0  0  0  0
 11 17  2  0  0  0  0
 11  2  1  0  0  0  0
 12  5  2  0  0  0  0
 12 16  1  0  0  0  0
 13  3  2  0  0  0  0
 14 13  1  0  0  0  0
 15  9  2  0  0  0  0
 16  4  2  0  0  0  0
 17 15  1  0  0  0  0
 18  9  1  0  0  0  0
 18  6  2  0  0  0  0
 19 20  1  0  0  0  0
 19 17  1  0  0  0  0
 20 21  1  0  0  0  0
 21 22  1  1  0  0  0
 23 21  1  0  0  0  0
 23 25  1  0  0  0  0
 24 23  1  0  0  0  0
M  END
>  <MODEL>
4

>  <REMARK>
 VINA RESULT:      -6.8      2.063      4.762
  Name = 
  4 active torsions:
  status: ('A' for Active; 'I' for Inactive)
    1  A    between atoms: N_2  and  C_21
    2  A    between atoms: S_6  and  C_15
    3  A    between atoms: S_6  and  C_23
    4  A    between atoms: C_15  and  C_21
                            x       y       z     vdW  Elec       q    Type
                         _______ _______ _______ _____ _____    ______ ____

>  <TORSDO>
F 4

$$$$
=
 OpenBabel11052417303D

 25 28  0  0  1  0  0  0  0  0999 V2000
  187.1120  176.9920  144.1770 C   0  0  0  0  0  0  0  0  0  0  0  0
  188.3540  176.4070  144.4830 C   0  0  0  0  0  0  0  0  0  0  0  0
  186.5260  177.0780  146.5450 C   0  0  0  0  0  3  0  0  0  0  0  0
  186.5950  177.3210  142.9120 C   0  0  0  0  0  0  0  0  0  0  0  0
  185.2480  178.1070  140.5960 C   0  0  0  0  0  3  0  0  0  0  0  0
  187.7600  176.4970  146.8580 C   0  0  0  0  0  3  0  0  0  0  0  0
  185.3260  177.8900  142.9820 C   0  0  0  0  0  0  0  0  0  0  0  0
  184.6320  178.2910  141.8420 C   0  0  0  0  0  3  0  0  0  0  0  0
  189.9210  175.5760  146.1270 C   0  0  0  0  0  0  0  0  0  0  0  0
  190.3440  175.2810  147.5270 C   0  0  0  0  0  1  0  0  0  0  0  0
  189.2420  176.0790  143.5090 N   0  0  0  0  0  0  0  0  0  0  0  0
  186.5300  177.5340  140.5100 C   0  0  0  0  0  3  0  0  0  0  0  0
  186.2270  177.3140  145.2060 C   0  0  0  0  0  0  0  0  0  0  0  0
  184.8160  177.9990  144.5840 S   0  0  0  0  0  0  0  0  0  0  0  0
  190.7690  175.2700  145.1100 N   0  0  0  0  0  0  0  0  0  0  0  0
  187.2120  177.1370  141.6700 C   0  0  0  0  0  3  0  0  0  0  0  0
  190.4400  175.5170  143.8140 C   0  0  0  0  0  0  0  0  0  0  0  0
  188.6770  176.1600  145.8400 C   0  0  0  0  0  0  0  0  0  0  0  0
  191.5840  175.0990  142.5090 S   0  0  0  0  0  0  0  0  0  0  0  0
  191.3050  173.3110  142.7380 C   0  0  0  0  0  2  0  0  0  0  0  0
  190.4410  172.7110  141.6230 C   0  0  2  0  0  3  0  0  0  0  0  0
  190.1520  173.7910  140.5820 C   0  0  0  0  0  1  0  0  0  0  0  0
  189.2020  172.1150  142.1430 N   0  0  0  0  0  0  0  0  0  0  0  0
  188.1100  173.0550  141.9340 C   0  0  0  0  0  1  0  0  0  0  0  0
  189.3170  171.9870  143.5900 C   0  0  0  0  0  1  0  0  0  0  0  0
  1  2  2  0  0  0  0
  1 13  1  0  0  0  0
  2 18  1  0  0  0  0
  3  6  1  0  0  0  0
  4  7  1  0  0  0  0
  4  1  1  0  0  0  0
  5  8  1  0  0  0  0
  7 14  1  0  0  0  0
  8  7  2  0  0  0  0
  9 10  1  0  0  0  0
 11 17  2  0  0  0  0
 11  2  1  0  0  0  0
 12  5  2  0  0  0  0
 12 16  1  0  0  0  0
 13  3  2  0  0  0  0
 14 13  1  0  0  0  0
 15  9  2  0  0  0  0
 16  4  2  0  0  0  0
 17 15  1  0  0  0  0
 18  9  1  0  0  0  0
 18  6  2  0  0  0  0
 19 20  1  0  0  0  0
 19 17  1  0  0  0  0
 21 22  1  6  0  0  0
 21 23  1  0  0  0  0
 21 20  1  0  0  0  0
 23 25  1  0  0  0  0
 24 23  1  0  0  0  0
M  END
>  <MODEL>
5

>  <REMARK>
 VINA RESULT:      -6.8      1.869      4.923
  Name = 
  4 active torsions:
  status: ('A' for Active; 'I' for Inactive)
    1  A    between atoms: N_2  and  C_21
    2  A    between atoms: S_6  and  C_15
    3  A    between atoms: S_6  and  C_23
    4  A    between atoms: C_15  and  C_21
                            x       y       z     vdW  Elec       q    Type
                         _______ _______ _______ _____ _____    ______ ____

>  <TORSDO>
F 4

$$$$
=
 OpenBabel11052417303D

 25 28  0  0  1  0  0  0  0  0999 V2000
  186.8670  177.1280  143.1580 C   0  0  0  0  0  0  0  0  0  0  0  0
  187.0450  177.1120  144.5530 C   0  0  0  0  0  0  0  0  0  0  0  0
  185.4260  179.0910  143.3270 C   0  0  0  0  0  3  0  0  0  0  0  0
  187.4060  176.2500  142.2030 C   0  0  0  0  0  0  0  0  0  0  0  0
  188.2860  174.7250  140.0350 C   0  0  0  0  0  3  0  0  0  0  0  0
  185.5990  179.0830  144.7160 C   0  0  0  0  0  3  0  0  0  0  0  0
  187.0180  176.5650  140.9030 C   0  0  0  0  0  0  0  0  0  0  0  0
  187.4420  175.8210  139.8040 C   0  0  0  0  0  3  0  0  0  0  0  0
  186.5930  178.0710  146.7260 C   0  0  0  0  0  0  0  0  0  0  0  0
  185.9550  179.0750  147.6270 C   0  0  0  0  0  1  0  0  0  0  0  0
  187.8170  176.1710  145.1570 N   0  0  0  0  0  0  0  0  0  0  0  0
  188.6880  174.3950  141.3420 C   0  0  0  0  0  3  0  0  0  0  0  0
  186.0660  178.1110  142.5740 C   0  0  0  0  0  0  0  0  0  0  0  0
  186.0110  177.9160  140.9000 S   0  0  0  0  0  0  0  0  0  0  0  0
  187.3770  177.1060  147.2740 N   0  0  0  0  0  0  0  0  0  0  0  0
  188.2490  175.1580  142.4360 C   0  0  0  0  0  3  0  0  0  0  0  0
  187.9860  176.1650  146.5050 C   0  0  0  0  0  0  0  0  0  0  0  0
  186.4030  178.1030  145.3360 C   0  0  0  0  0  0  0  0  0  0  0  0
  189.0080  174.9160  147.2660 S   0  0  0  0  0  0  0  0  0  0  0  0
  189.7230  174.4200  145.6630 C   0  0  0  0  0  2  0  0  0  0  0  0
  191.2150  174.7550  145.5640 C   0  0  2  0  0  3  0  0  0  0  0  0
  191.6810  175.3470  146.8930 C   0  0  0  0  0  1  0  0  0  0  0  0
  191.5060  175.6560  144.4390 N   0  0  0  0  0  0  0  0  0  0  0  0
  192.9300  175.5860  144.1430 C   0  0  0  0  0  1  0  0  0  0  0  0
  191.2780  177.0290  144.8690 C   0  0  0  0  0  1  0  0  0  0  0  0
  1  2  2  0  0  0  0
  2 11  1  0  0  0  0
  2 18  1  0  0  0  0
  3  6  1  0  0  0  0
  4 16  1  0  0  0  0
  4  1  1  0  0  0  0
  5 12  1  0  0  0  0
  6 18  2  0  0  0  0
  7  4  2  0  0  0  0
  8  5  2  0  0  0  0
  8  7  1  0  0  0  0
  9 15  2  0  0  0  0
  9 10  1  0  0  0  0
 11 17  2  0  0  0  0
 12 16  2  0  0  0  0
 13  1  1  0  0  0  0
 13  3  2  0  0  0  0
 14  7  1  0  0  0  0
 14 13  1  0  0  0  0
 17 19  1  0  0  0  0
 17 15  1  0  0  0  0
 18  9  1  0  0  0  0
 20 19  1  0  0  0  0
 21 20  1  0  0  0  0
 21 22  1  1  0  0  0
 23 25  1  0  0  0  0
 23 21  1  0  0  0  0
 24 23  1  0  0  0  0
M  END
>  <MODEL>
6

>  <REMARK>
 VINA RESULT:      -6.7      2.017      4.722
  Name = 
  4 active torsions:
  status: ('A' for Active; 'I' for Inactive)
    1  A    between atoms: N_2  and  C_21
    2  A    between atoms: S_6  and  C_15
    3  A    between atoms: S_6  and  C_23
    4  A    between atoms: C_15  and  C_21
                            x       y       z     vdW  Elec       q    Type
                         _______ _______ _______ _____ _____    ______ ____

>  <TORSDO>
F 4

$$$$
=
 OpenBabel11052417303D

 25 28  0  0  1  0  0  0  0  0999 V2000
  186.7410  177.8990  145.0420 C   0  0  0  0  0  0  0  0  0  0  0  0
  188.0890  177.5160  145.1660 C   0  0  0  0  0  0  0  0  0  0  0  0
  186.5730  178.2290  147.4540 C   0  0  0  0  0  3  0  0  0  0  0  0
  185.9690  177.9900  143.8710 C   0  0  0  0  0  0  0  0  0  0  0  0
  184.1370  178.2900  141.7850 C   0  0  0  0  0  3  0  0  0  0  0  0
  187.9140  177.8500  147.5870 C   0  0  0  0  0  3  0  0  0  0  0  0
  184.6620  178.4050  144.1200 C   0  0  0  0  0  0  0  0  0  0  0  0
  183.7290  178.5620  143.0980 C   0  0  0  0  0  3  0  0  0  0  0  0
  190.0240  177.1100  146.5590 C   0  0  0  0  0  0  0  0  0  0  0  0
  190.7230  177.0590  147.8760 C   0  0  0  0  0  1  0  0  0  0  0  0
  188.8300  177.1720  144.0810 N   0  0  0  0  0  0  0  0  0  0  0  0
  185.4530  177.8710  141.5170 C   0  0  0  0  0  3  0  0  0  0  0  0
  186.0130  178.2460  146.1800 C   0  0  0  0  0  0  0  0  0  0  0  0
  184.4310  178.6640  145.7690 S   0  0  0  0  0  0  0  0  0  0  0  0
  190.7150  176.7770  145.4380 N   0  0  0  0  0  0  0  0  0  0  0  0
  186.3780  177.7190  142.5610 C   0  0  0  0  0  3  0  0  0  0  0  0
  190.1320  176.8060  144.2110 C   0  0  0  0  0  0  0  0  0  0  0  0
  188.6770  177.4940  146.4540 C   0  0  0  0  0  0  0  0  0  0  0  0
  191.0770  176.3600  142.7640 S   0  0  0  0  0  0  0  0  0  0  0  0
  190.2300  174.7510  142.6170 C   0  0  0  0  0  2  0  0  0  0  0  0
  189.2220  174.7290  141.4620 C   0  0  2  0  0  3  0  0  0  0  0  0
  187.8440  174.3660  142.0110 C   0  0  0  0  0  1  0  0  0  0  0  0
  189.6340  173.8150  140.3860 N   0  0  0  0  0  0  0  0  0  0  0  0
  188.5630  173.7410  139.4030 C   0  0  0  0  0  1  0  0  0  0  0  0
  189.7370  172.4680  140.9330 C   0  0  0  0  0  1  0  0  0  0  0  0
  1  2  2  0  0  0  0
  1 13  1  0  0  0  0
  2 18  1  0  0  0  0
  3  6  1  0  0  0  0
  4  7  1  0  0  0  0
  4  1  1  0  0  0  0
  5  8  1  0  0  0  0
  7 14  1  0  0  0  0
  8  7  2  0  0  0  0
  9 10  1  0  0  0  0
 11 17  2  0  0  0  0
 11  2  1  0  0  0  0
 12  5  2  0  0  0  0
 12 16  1  0  0  0  0
 13  3  2  0  0  0  0
 14 13  1  0  0  0  0
 15  9  2  0  0  0  0
 16  4  2  0  0  0  0
 17 15  1  0  0  0  0
 18  9  1  0  0  0  0
 18  6  2  0  0  0  0
 19 17  1  0  0  0  0
 20 19  1  0  0  0  0
 21 22  1  1  0  0  0
 21 20  1  0  0  0  0
 23 25  1  0  0  0  0
 23 21  1  0  0  0  0
 24 23  1  0  0  0  0
M  END
>  <MODEL>
7

>  <REMARK>
 VINA RESULT:      -6.6      1.668      5.043
  Name = 
  4 active torsions:
  status: ('A' for Active; 'I' for Inactive)
    1  A    between atoms: N_2  and  C_21
    2  A    between atoms: S_6  and  C_15
    3  A    between atoms: S_6  and  C_23
    4  A    between atoms: C_15  and  C_21
                            x       y       z     vdW  Elec       q    Type
                         _______ _______ _______ _____ _____    ______ ____

>  <TORSDO>
F 4

$$$$
=
 OpenBabel11052417303D

 25 28  0  0  1  0  0  0  0  0999 V2000
  190.2740  175.0090  143.8590 C   0  0  0  0  0  0  0  0  0  0  0  0
  189.3750  175.2920  142.8150 C   0  0  0  0  0  0  0  0  0  0  0  0
  191.3140  173.2410  142.5360 C   0  0  0  0  0  3  0  0  0  0  0  0
  190.3690  175.6310  145.1150 C   0  0  0  0  0  0  0  0  0  0  0  0
  190.8590  176.6150  147.6820 C   0  0  0  0  0  3  0  0  0  0  0  0
  190.4240  173.5170  141.4910 C   0  0  0  0  0  3  0  0  0  0  0  0
  191.3810  175.0930  145.9060 C   0  0  0  0  0  0  0  0  0  0  0  0
  191.6470  175.5650  147.1900 C   0  0  0  0  0  3  0  0  0  0  0  0
  188.5520  174.8330  140.5870 C   0  0  0  0  0  0  0  0  0  0  0  0
  188.5660  174.0870  139.2950 C   0  0  0  0  0  1  0  0  0  0  0  0
  188.4410  176.2710  142.9300 N   0  0  0  0  0  0  0  0  0  0  0  0
  189.8330  177.1700  146.8950 C   0  0  0  0  0  3  0  0  0  0  0  0
  191.2200  173.9950  143.7020 C   0  0  0  0  0  0  0  0  0  0  0  0
  192.1730  173.8520  145.0860 S   0  0  0  0  0  0  0  0  0  0  0  0
  187.6390  175.8250  140.7610 N   0  0  0  0  0  0  0  0  0  0  0  0
  189.5820  176.6800  145.6040 C   0  0  0  0  0  3  0  0  0  0  0  0
  187.5790  176.5390  141.9150 C   0  0  0  0  0  0  0  0  0  0  0  0
  189.4560  174.5360  141.6190 C   0  0  0  0  0  0  0  0  0  0  0  0
  186.3640  177.8340  142.1000 S   0  0  0  0  0  0  0  0  0  0  0  0
  186.1310  177.4610  143.8710 C   0  0  0  0  0  2  0  0  0  0  0  0
  185.0190  178.3070  144.5010 C   0  0  2  0  0  3  0  0  0  0  0  0
  185.3220  179.7850  144.2610 C   0  0  0  0  0  1  0  0  0  0  0  0
  184.8470  178.0160  145.9320 N   0  0  0  0  0  0  0  0  0  0  0  0
  185.5210  179.0520  146.7020 C   0  0  0  0  0  1  0  0  0  0  0  0
  185.5620  176.7860  146.2480 C   0  0  0  0  0  1  0  0  0  0  0  0
  1  4  1  0  0  0  0
  2 11  1  0  0  0  0
  2  1  1  0  0  0  0
  3 13  1  0  0  0  0
  4 16  2  0  0  0  0
  4  7  1  0  0  0  0
  6 18  1  0  0  0  0
  6  3  2  0  0  0  0
  7  8  2  0  0  0  0
  8  5  1  0  0  0  0
  9 15  2  0  0  0  0
  9 18  1  0  0  0  0
 10  9  1  0  0  0  0
 12  5  2  0  0  0  0
 13  1  2  0  0  0  0
 13 14  1  0  0  0  0
 14  7  1  0  0  0  0
 15 17  1  0  0  0  0
 16 12  1  0  0  0  0
 17 19  1  0  0  0  0
 17 11  2  0  0  0  0
 18  2  2  0  0  0  0
 19 20  1  0  0  0  0
 20 21  1  0  0  0  0
 21 22  1  1  0  0  0
 21 23  1  0  0  0  0
 23 25  1  0  0  0  0
 23 24  1  0  0  0  0
M  END
>  <MODEL>
8

>  <REMARK>
 VINA RESULT:      -6.4      2.077      5.597
  Name = 
  4 active torsions:
  status: ('A' for Active; 'I' for Inactive)
    1  A    between atoms: N_2  and  C_21
    2  A    between atoms: S_6  and  C_15
    3  A    between atoms: S_6  and  C_23
    4  A    between atoms: C_15  and  C_21
                            x       y       z     vdW  Elec       q    Type
                         _______ _______ _______ _____ _____    ______ ____

>  <TORSDO>
F 4

$$$$
=
 OpenBabel11052417303D

 25 28  0  0  1  0  0  0  0  0999 V2000
  185.7940  177.5650  143.7250 C   0  0  0  0  0  0  0  0  0  0  0  0
  186.5650  176.9650  142.7140 C   0  0  0  0  0  0  0  0  0  0  0  0
  184.3540  178.6160  142.0570 C   0  0  0  0  0  3  0  0  0  0  0  0
  185.9590  177.4680  145.1170 C   0  0  0  0  0  0  0  0  0  0  0  0
  185.9700  177.5110  147.9100 C   0  0  0  0  0  3  0  0  0  0  0  0
  185.1160  178.0220  141.0440 C   0  0  0  0  0  3  0  0  0  0  0  0
  185.0070  178.1980  145.8250 C   0  0  0  0  0  0  0  0  0  0  0  0
  184.9890  178.2370  147.2170 C   0  0  0  0  0  3  0  0  0  0  0  0
  186.9980  176.5900  140.3640 C   0  0  0  0  0  0  0  0  0  0  0  0
  186.7050  176.7810  138.9140 C   0  0  0  0  0  1  0  0  0  0  0  0
  187.6270  176.1710  143.0100 N   0  0  0  0  0  0  0  0  0  0  0  0
  186.9380  176.7690  147.2090 C   0  0  0  0  0  3  0  0  0  0  0  0
  184.7100  178.3740  143.3810 C   0  0  0  0  0  0  0  0  0  0  0  0
  183.9510  178.9720  144.7630 S   0  0  0  0  0  0  0  0  0  0  0  0
  188.0490  175.8060  140.7210 N   0  0  0  0  0  0  0  0  0  0  0  0
  186.9380  176.7420  145.8060 C   0  0  0  0  0  3  0  0  0  0  0  0
  188.3640  175.5940  142.0260 C   0  0  0  0  0  0  0  0  0  0  0  0
  186.2180  177.1980  141.3600 C   0  0  0  0  0  0  0  0  0  0  0  0
  189.7530  174.5560  142.4500 S   0  0  0  0  0  0  0  0  0  0  0  0
  189.7990  173.8140  140.7840 C   0  0  0  0  0  2  0  0  0  0  0  0
  189.6310  172.2900  140.8220 C   0  0  2  0  0  3  0  0  0  0  0  0
  189.9790  171.7870  142.2220 C   0  0  0  0  0  1  0  0  0  0  0  0
  190.4360  171.6200  139.7900 N   0  0  0  0  0  0  0  0  0  0  0  0
  189.5900  171.3660  138.6330 C   0  0  0  0  0  1  0  0  0  0  0  0
  190.8140  170.3000  140.2780 C   0  0  0  0  0  1  0  0  0  0  0  0
  1  4  1  0  0  0  0
  2 11  1  0  0  0  0
  2  1  1  0  0  0  0
  3 13  1  0  0  0  0
  4 16  2  0  0  0  0
  4  7  1  0  0  0  0
  6 18  1  0  0  0  0
  6  3  2  0  0  0  0
  7  8  2  0  0  0  0
  8  5  1  0  0  0  0
  9 15  2  0  0  0  0
  9 18  1  0  0  0  0
 10  9  1  0  0  0  0
 12  5  2  0  0  0  0
 13  1  2  0  0  0  0
 13 14  1  0  0  0  0
 14  7  1  0  0  0  0
 15 17  1  0  0  0  0
 16 12  1  0  0  0  0
 17 19  1  0  0  0  0
 17 11  2  0  0  0  0
 18  2  2  0  0  0  0
 20 21  1  0  0  0  0
 20 19  1  0  0  0  0
 21 22  1  1  0  0  0
 23 25  1  0  0  0  0
 23 21  1  0  0  0  0
 24 23  1  0  0  0  0
M  END
>  <MODEL>
9

>  <REMARK>
 VINA RESULT:      -6.3      2.282      3.394
  Name = 
  4 active torsions:
  status: ('A' for Active; 'I' for Inactive)
    1  A    between atoms: N_2  and  C_21
    2  A    between atoms: S_6  and  C_15
    3  A    between atoms: S_6  and  C_23
    4  A    between atoms: C_15  and  C_21
                            x       y       z     vdW  Elec       q    Type
                         _______ _______ _______ _____ _____    ______ ____

>  <TORSDO>
F 4

$$$$
