=
 OpenBabel11052419113D

 32 37  0  0  1  0  0  0  0  0999 V2000
  189.4820  175.1410  144.6790 C   0  0  2  0  0  3  0  0  0  0  0  0
  187.7940  176.9220  144.1910 C   0  0  0  0  0  0  0  0  0  0  0  0
  189.5710  174.0570  145.6570 N   0  0  0  0  0  2  0  0  0  0  0  0
  188.4900  176.1760  145.1360 C   0  0  0  0  0  0  0  0  0  0  0  0
  186.7740  177.7970  144.5970 C   0  0  0  0  0  0  0  0  0  0  0  0
  186.2530  177.5540  139.4290 C   0  0  0  0  0  2  0  0  0  0  0  0
  188.0650  176.6040  142.7500 C   0  0  1  0  0  3  0  0  0  0  0  0
  184.9720  178.5300  141.3530 C   0  0  0  0  0  2  0  0  0  0  0  0
  185.7590  177.6590  142.3240 C   0  0  2  0  0  3  0  0  0  0  0  0
  188.2250  176.3340  146.5020 C   0  0  0  0  0  0  0  0  0  0  0  0
  185.8830  178.3310  143.6130 N   0  0  0  0  0  2  0  0  0  0  0  0
  187.2870  177.2860  146.9180 C   0  0  0  0  0  3  0  0  0  0  0  0
  188.7980  175.4180  147.4470 N   0  0  0  0  0  0  0  0  0  0  0  0
  188.0580  175.1480  142.5980 N   0  0  0  0  0  2  0  0  0  0  0  0
  189.1630  174.6320  143.3240 N   0  0  0  0  0  0  0  0  0  0  0  0
  187.1520  177.3550  141.7560 C   0  0  2  0  0  3  0  0  0  0  0  0
  186.5690  178.0320  145.9700 C   0  0  0  0  0  0  0  0  0  0  0  0
  189.4090  174.3360  147.0560 C   0  0  0  0  0  3  0  0  0  0  0  0
  184.8620  177.8320  139.9980 C   0  0  0  0  0  2  0  0  0  0  0  0
  187.0590  176.6800  140.3870 C   0  0  0  0  0  2  0  0  0  0  0  0
  191.7640  173.5160  140.9050 C   0  0  0  0  0  0  0  0  0  0  0  0
  191.5870  170.0410  140.5910 O   0  0  0  0  0  1  0  0  0  0  0  0
  193.0420  174.0050  140.3120 C   0  0  0  0  0  1  0  0  0  0  0  0
  190.2790  171.1900  142.1670 C   0  0  0  0  0  3  0  0  0  0  0  0
  190.0010  173.6550  142.6790 C   0  0  0  0  0  0  0  0  0  0  0  0
  191.0420  172.4290  140.1810 C   0  0  0  0  0  2  0  0  0  0  0  0
  189.6160  172.3670  142.7590 C   0  0  0  0  0  3  0  0  0  0  0  0
  191.2750  174.0840  142.0200 C   0  0  0  0  0  0  0  0  0  0  0  0
  191.9570  175.1330  142.5480 F   0  0  0  0  0  0  0  0  0  0  0  0
  190.9640  171.2030  141.0250 C   0  0  0  0  0  0  0  0  0  0  0  0
  185.5400  179.0070  146.4400 C   0  0  0  0  0  2  0  0  0  0  0  0
  184.2410  178.2860  146.7450 C   0  0  0  0  0  1  0  0  0  0  0  0
  1  4  1  1  0  0  0
  1  3  1  0  0  0  0
  2  5  2  0  0  0  0
  2  4  1  0  0  0  0
  3 18  1  0  0  0  0
  4 10  2  0  0  0  0
  5 17  1  0  0  0  0
  6 19  1  0  0  0  0
  6 20  1  0  0  0  0
  7 14  1  1  0  0  0
  7  2  1  0  0  0  0
  9  8  1  6  0  0  0
  9 11  1  0  0  0  0
 10 12  1  0  0  0  0
 10 13  1  0  0  0  0
 11  5  1  0  0  0  0
 14 15  1  0  0  0  0
 15  1  1  0  0  0  0
 16 20  1  6  0  0  0
 16  9  1  0  0  0  0
 16  7  1  0  0  0  0
 17 31  1  0  0  0  0
 17 12  2  0  0  0  0
 18 13  2  0  0  0  0
 19  8  1  0  0  0  0
 21 28  2  0  0  0  0
 22 30  1  0  0  0  0
 23 21  1  0  0  0  0
 24 27  1  0  0  0  0
 25 27  2  0  0  0  0
 25 15  1  0  0  0  0
 26 21  1  0  0  0  0
 26 30  1  0  0  0  0
 28 29  1  0  0  0  0
 28 25  1  0  0  0  0
 30 24  2  0  0  0  0
 31 32  1  0  0  0  0
M  END
>  <MODEL>
1

>  <REMARK>
 VINA RESULT:      -8.4      0.000      0.000
  Name = 
  2 active torsions:
  status: ('A' for Active; 'I' for Inactive)
    1  A    between atoms: C_13  and  C_29
    2  A    between atoms: C_16  and  N_27
                            x       y       z     vdW  Elec       q    Type
                         _______ _______ _______ _____ _____    ______ ____

>  <TORSDO>
F 2

$$$$
=
 OpenBabel11052419113D

 32 37  0  0  1  0  0  0  0  0999 V2000
  189.1330  175.9840  146.1970 C   0  0  2  0  0  3  0  0  0  0  0  0
  190.6540  174.4130  144.9800 C   0  0  0  0  0  0  0  0  0  0  0  0
  189.3040  177.2980  146.8170 N   0  0  0  0  0  2  0  0  0  0  0  0
  190.4670  175.3100  146.0270 C   0  0  0  0  0  0  0  0  0  0  0  0
  191.9270  173.8760  144.7310 C   0  0  0  0  0  0  0  0  0  0  0  0
  189.1430  172.5300  140.5510 C   0  0  0  0  0  2  0  0  0  0  0  0
  189.4910  174.2100  144.0530 C   0  0  1  0  0  3  0  0  0  0  0  0
  191.5470  172.4230  141.2590 C   0  0  0  0  0  2  0  0  0  0  0  0
  191.2690  173.4310  142.3680 C   0  0  2  0  0  3  0  0  0  0  0  0
  191.5290  175.6380  146.8790 C   0  0  0  0  0  0  0  0  0  0  0  0
  192.1640  173.1960  143.4960 N   0  0  0  0  0  2  0  0  0  0  0  0
  192.7720  175.0190  146.7030 C   0  0  0  0  0  3  0  0  0  0  0  0
  191.3790  176.7120  147.8200 N   0  0  0  0  0  0  0  0  0  0  0  0
  188.9380  175.5250  143.7260 N   0  0  0  0  0  2  0  0  0  0  0  0
  188.3940  176.0750  144.9150 N   0  0  0  0  0  0  0  0  0  0  0  0
  189.8090  173.3260  142.8280 C   0  0  2  0  0  3  0  0  0  0  0  0
  192.9730  174.1260  145.6390 C   0  0  0  0  0  0  0  0  0  0  0  0
  190.3490  177.5080  147.7790 C   0  0  0  0  0  3  0  0  0  0  0  0
  190.5940  172.6600  140.0890 C   0  0  0  0  0  2  0  0  0  0  0  0
  188.8430  173.5340  141.6610 C   0  0  0  0  0  2  0  0  0  0  0  0
  185.6230  177.9360  143.2660 C   0  0  0  0  0  0  0  0  0  0  0  0
  183.3170  178.9080  145.7040 O   0  0  0  0  0  1  0  0  0  0  0  0
  185.0150  178.0960  141.9140 C   0  0  0  0  0  1  0  0  0  0  0  0
  185.1380  177.5240  146.2330 C   0  0  0  0  0  3  0  0  0  0  0  0
  187.0790  176.6590  144.8540 C   0  0  0  0  0  0  0  0  0  0  0  0
  185.3460  179.0010  144.2740 C   0  0  0  0  0  2  0  0  0  0  0  0
  186.4650  176.9110  146.0250 C   0  0  0  0  0  3  0  0  0  0  0  0
  186.4280  176.8930  143.5260 C   0  0  0  0  0  0  0  0  0  0  0  0
  186.6970  176.0320  142.5110 F   0  0  0  0  0  0  0  0  0  0  0  0
  184.5960  178.4390  145.4320 C   0  0  0  0  0  0  0  0  0  0  0  0
  194.3220  173.5170  145.4460 C   0  0  0  0  0  2  0  0  0  0  0  0
  195.4020  174.5270  145.7830 C   0  0  0  0  0  1  0  0  0  0  0  0
  1  4  1  6  0  0  0
  1  3  1  0  0  0  0
  2  4  1  0  0  0  0
  3 18  1  0  0  0  0
  4 10  2  0  0  0  0
  5  2  2  0  0  0  0
  5 17  1  0  0  0  0
  6 20  1  0  0  0  0
  7 14  1  6  0  0  0
  7  2  1  0  0  0  0
  9  8  1  6  0  0  0
  9 16  1  0  0  0  0
  9 11  1  0  0  0  0
 10 13  1  0  0  0  0
 11  5  1  0  0  0  0
 12 10  1  0  0  0  0
 14 15  1  0  0  0  0
 15  1  1  0  0  0  0
 16 20  1  6  0  0  0
 16  7  1  0  0  0  0
 17 12  2  0  0  0  0
 18 13  2  0  0  0  0
 19  6  1  0  0  0  0
 19  8  1  0  0  0  0
 21 28  2  0  0  0  0
 21 26  1  0  0  0  0
 23 21  1  0  0  0  0
 25 15  1  0  0  0  0
 25 27  2  0  0  0  0
 26 30  1  0  0  0  0
 27 24  1  0  0  0  0
 28 25  1  0  0  0  0
 29 28  1  0  0  0  0
 30 22  1  0  0  0  0
 30 24  2  0  0  0  0
 31 17  1  0  0  0  0
 31 32  1  0  0  0  0
M  END
>  <MODEL>
2

>  <REMARK>
 VINA RESULT:      -8.4      3.355      6.907
  Name = 
  2 active torsions:
  status: ('A' for Active; 'I' for Inactive)
    1  A    between atoms: C_13  and  C_29
    2  A    between atoms: C_16  and  N_27
                            x       y       z     vdW  Elec       q    Type
                         _______ _______ _______ _____ _____    ______ ____

>  <TORSDO>
F 2

$$$$
=
 OpenBabel11052419113D

 32 37  0  0  1  0  0  0  0  0999 V2000
  189.6040  175.3710  144.5130 C   0  0  2  0  0  3  0  0  0  0  0  0
  187.6010  176.8650  144.3760 C   0  0  0  0  0  0  0  0  0  0  0  0
  189.9340  174.1720  145.2830 N   0  0  0  0  0  2  0  0  0  0  0  0
  188.4650  176.1100  145.1630 C   0  0  0  0  0  0  0  0  0  0  0  0
  186.4610  177.4530  144.9480 C   0  0  0  0  0  0  0  0  0  0  0  0
  185.7400  178.0020  139.8280 C   0  0  0  0  0  2  0  0  0  0  0  0
  187.8540  176.8530  142.8970 C   0  0  1  0  0  3  0  0  0  0  0  0
  184.4000  178.3810  141.9140 C   0  0  0  0  0  2  0  0  0  0  0  0
  185.3780  177.5180  142.7030 C   0  0  2  0  0  3  0  0  0  0  0  0
  188.2440  175.9820  146.5400 C   0  0  0  0  0  0  0  0  0  0  0  0
  185.4420  177.9720  144.0880 N   0  0  0  0  0  2  0  0  0  0  0  0
  187.1720  176.6580  147.1320 C   0  0  0  0  0  3  0  0  0  0  0  0
  189.0170  175.0400  147.2980 N   0  0  0  0  0  0  0  0  0  0  0  0
  188.1020  175.4690  142.4910 N   0  0  0  0  0  2  0  0  0  0  0  0
  189.3150  175.0500  143.0960 N   0  0  0  0  0  0  0  0  0  0  0  0
  186.7730  177.5800  142.0670 C   0  0  2  0  0  3  0  0  0  0  0  0
  186.2850  177.4080  146.3440 C   0  0  0  0  0  0  0  0  0  0  0  0
  189.7930  174.1730  146.7120 C   0  0  0  0  0  3  0  0  0  0  0  0
  184.3510  177.9150  140.4600 C   0  0  0  0  0  2  0  0  0  0  0  0
  186.7360  177.1430  140.6020 C   0  0  0  0  0  2  0  0  0  0  0  0
  190.8660  172.0540  141.5210 C   0  0  0  0  0  0  0  0  0  0  0  0
  194.0380  172.9200  140.3420 O   0  0  0  0  0  1  0  0  0  0  0  0
  190.4570  170.7440  140.9350 C   0  0  0  0  0  1  0  0  0  0  0  0
  192.5850  174.5360  141.2310 C   0  0  0  0  0  3  0  0  0  0  0  0
  190.2830  174.3700  142.2750 C   0  0  0  0  0  0  0  0  0  0  0  0
  192.2860  172.2010  141.9500 C   0  0  0  0  0  2  0  0  0  0  0  0
  191.4330  175.0210  142.0160 C   0  0  0  0  0  3  0  0  0  0  0  0
  189.9580  173.0290  141.6940 C   0  0  0  0  0  0  0  0  0  0  0  0
  188.6690  172.7610  141.3630 F   0  0  0  0  0  0  0  0  0  0  0  0
  192.9640  173.2620  141.1530 C   0  0  0  0  0  0  0  0  0  0  0  0
  185.1220  178.0800  146.9950 C   0  0  0  0  0  2  0  0  0  0  0  0
  185.5610  179.3900  147.6200 C   0  0  0  0  0  1  0  0  0  0  0  0
  1  4  1  1  0  0  0
  1  3  1  0  0  0  0
  2  5  2  0  0  0  0
  2  4  1  0  0  0  0
  3 18  1  0  0  0  0
  4 10  2  0  0  0  0
  5 17  1  0  0  0  0
  6 19  1  0  0  0  0
  6 20  1  0  0  0  0
  7 14  1  6  0  0  0
  7  2  1  0  0  0  0
  9  8  1  6  0  0  0
  9 11  1  0  0  0  0
 10 12  1  0  0  0  0
 10 13  1  0  0  0  0
 11  5  1  0  0  0  0
 14 15  1  0  0  0  0
 15  1  1  0  0  0  0
 16 20  1  6  0  0  0
 16  9  1  0  0  0  0
 16  7  1  0  0  0  0
 17 31  1  0  0  0  0
 17 12  2  0  0  0  0
 18 13  2  0  0  0  0
 19  8  1  0  0  0  0
 21 28  2  0  0  0  0
 21 26  1  0  0  0  0
 22 30  1  0  0  0  0
 23 21  1  0  0  0  0
 24 27  1  0  0  0  0
 25 15  1  0  0  0  0
 27 25  2  0  0  0  0
 28 25  1  0  0  0  0
 29 28  1  0  0  0  0
 30 24  2  0  0  0  0
 30 26  1  0  0  0  0
 31 32  1  0  0  0  0
M  END
>  <MODEL>
3

>  <REMARK>
 VINA RESULT:      -8.2      1.263      1.850
  Name = 
  2 active torsions:
  status: ('A' for Active; 'I' for Inactive)
    1  A    between atoms: C_13  and  C_29
    2  A    between atoms: C_16  and  N_27
                            x       y       z     vdW  Elec       q    Type
                         _______ _______ _______ _____ _____    ______ ____

>  <TORSDO>
F 2

$$$$
=
 OpenBabel11052419113D

 32 37  0  0  1  0  0  0  0  0999 V2000
  189.5020  175.3410  143.9800 C   0  0  2  0  0  3  0  0  0  0  0  0
  187.5140  176.8260  144.3020 C   0  0  0  0  0  0  0  0  0  0  0  0
  189.9480  174.0850  144.5810 N   0  0  0  0  0  2  0  0  0  0  0  0
  188.4930  176.0160  144.8680 C   0  0  0  0  0  0  0  0  0  0  0  0
  186.4900  177.3570  145.1020 C   0  0  0  0  0  0  0  0  0  0  0  0
  184.9300  178.3240  140.2370 C   0  0  0  0  0  2  0  0  0  0  0  0
  187.5170  176.9390  142.8060 C   0  0  1  0  0  3  0  0  0  0  0  0
  183.9590  178.5180  142.5420 C   0  0  0  0  0  2  0  0  0  0  0  0
  185.0490  177.6000  143.0830 C   0  0  2  0  0  3  0  0  0  0  0  0
  188.5020  175.7710  146.2480 C   0  0  0  0  0  0  0  0  0  0  0  0
  185.3450  177.9370  144.4710 N   0  0  0  0  0  2  0  0  0  0  0  0
  187.5490  176.3880  147.0650 C   0  0  0  0  0  3  0  0  0  0  0  0
  189.3850  174.7760  146.7860 N   0  0  0  0  0  0  0  0  0  0  0  0
  187.6850  175.5950  142.2510 N   0  0  0  0  0  2  0  0  0  0  0  0
  188.9800  175.1370  142.6080 N   0  0  0  0  0  0  0  0  0  0  0  0
  186.3190  177.7240  142.2300 C   0  0  2  0  0  3  0  0  0  0  0  0
  186.5480  177.1940  146.5000 C   0  0  0  0  0  0  0  0  0  0  0  0
  190.0470  173.9660  146.0090 C   0  0  0  0  0  3  0  0  0  0  0  0
  183.6660  178.1750  141.0820 C   0  0  0  0  0  2  0  0  0  0  0  0
  186.0360  177.4100  140.7610 C   0  0  0  0  0  2  0  0  0  0  0  0
  189.5810  172.9540  139.6530 C   0  0  0  0  0  0  0  0  0  0  0  0
  193.0190  172.4400  139.3170 O   0  0  0  0  0  1  0  0  0  0  0  0
  188.8890  172.5280  138.4010 C   0  0  0  0  0  1  0  0  0  0  0  0
  192.1600  173.9250  140.9200 C   0  0  0  0  0  3  0  0  0  0  0  0
  189.7930  174.5340  141.5840 C   0  0  0  0  0  0  0  0  0  0  0  0
  190.7010  172.1010  140.1430 C   0  0  0  0  0  2  0  0  0  0  0  0
  191.1230  174.5050  141.7950 C   0  0  0  0  0  3  0  0  0  0  0  0
  189.1570  174.0390  140.3220 C   0  0  0  0  0  0  0  0  0  0  0  0
  188.0650  174.6910  139.8460 F   0  0  0  0  0  0  0  0  0  0  0  0
  191.9800  172.8650  140.1340 C   0  0  0  0  0  0  0  0  0  0  0  0
  185.5150  177.8020  147.3890 C   0  0  0  0  0  2  0  0  0  0  0  0
  185.8460  179.2580  147.6530 C   0  0  0  0  0  1  0  0  0  0  0  0
  1  3  1  1  0  0  0
  1  4  1  0  0  0  0
  2  4  2  0  0  0  0
  2  5  1  0  0  0  0
  3 18  1  0  0  0  0
  4 10  1  0  0  0  0
  5 17  2  0  0  0  0
  6 20  1  0  0  0  0
  6 19  1  0  0  0  0
  7 14  1  6  0  0  0
  7  2  1  0  0  0  0
  9  8  1  6  0  0  0
  9 11  1  0  0  0  0
 10 13  1  0  0  0  0
 10 12  2  0  0  0  0
 11  5  1  0  0  0  0
 14 15  1  0  0  0  0
 15  1  1  0  0  0  0
 16 20  1  6  0  0  0
 16  7  1  0  0  0  0
 16  9  1  0  0  0  0
 17 12  1  0  0  0  0
 17 31  1  0  0  0  0
 18 13  2  0  0  0  0
 19  8  1  0  0  0  0
 21 26  1  0  0  0  0
 21 28  2  0  0  0  0
 22 30  1  0  0  0  0
 23 21  1  0  0  0  0
 24 27  1  0  0  0  0
 25 27  2  0  0  0  0
 25 15  1  0  0  0  0
 28 25  1  0  0  0  0
 29 28  1  0  0  0  0
 30 26  1  0  0  0  0
 30 24  2  0  0  0  0
 31 32  1  0  0  0  0
M  END
>  <MODEL>
4

>  <REMARK>
 VINA RESULT:      -8.2      1.526      1.982
  Name = 
  2 active torsions:
  status: ('A' for Active; 'I' for Inactive)
    1  A    between atoms: C_13  and  C_29
    2  A    between atoms: C_16  and  N_27
                            x       y       z     vdW  Elec       q    Type
                         _______ _______ _______ _____ _____    ______ ____

>  <TORSDO>
F 2

$$$$
=
 OpenBabel11052419113D

 32 37  0  0  1  0  0  0  0  0999 V2000
  192.0910  176.3050  145.5980 C   0  0  2  0  0  3  0  0  0  0  0  0
  190.0110  176.0840  144.2250 C   0  0  0  0  0  0  0  0  0  0  0  0
  192.4060  176.1180  147.0140 N   0  0  0  0  0  2  0  0  0  0  0  0
  190.6100  176.4910  145.4130 C   0  0  0  0  0  0  0  0  0  0  0  0
  188.6150  176.1320  144.0880 C   0  0  0  0  0  0  0  0  0  0  0  0
  190.2020  173.3970  139.9610 C   0  0  0  0  0  2  0  0  0  0  0  0
  190.9050  175.4410  143.2070 C   0  0  1  0  0  3  0  0  0  0  0  0
  188.0110  173.9930  141.0270 C   0  0  0  0  0  2  0  0  0  0  0  0
  188.7380  174.3940  142.3050 C   0  0  2  0  0  3  0  0  0  0  0  0
  189.8340  177.0080  146.4590 C   0  0  0  0  0  0  0  0  0  0  0  0
  188.0010  175.4490  142.9910 N   0  0  0  0  0  2  0  0  0  0  0  0
  188.4540  177.1610  146.2850 C   0  0  0  0  0  3  0  0  0  0  0  0
  190.4340  177.2280  147.7450 N   0  0  0  0  0  0  0  0  0  0  0  0
  191.7570  174.4720  143.9000 N   0  0  0  0  0  2  0  0  0  0  0  0
  192.6150  175.1930  144.7700 N   0  0  0  0  0  0  0  0  0  0  0  0
  190.1590  174.8740  141.9800 C   0  0  2  0  0  3  0  0  0  0  0  0
  187.8400  176.7380  145.0960 C   0  0  0  0  0  0  0  0  0  0  0  0
  191.6300  176.7920  148.0180 C   0  0  0  0  0  3  0  0  0  0  0  0
  188.7970  172.9020  140.3010 C   0  0  0  0  0  2  0  0  0  0  0  0
  190.9490  173.8020  141.2290 C   0  0  0  0  0  2  0  0  0  0  0  0
  196.1380  175.5070  143.6090 C   0  0  0  0  0  0  0  0  0  0  0  0
  197.9410  172.7330  144.7290 O   0  0  0  0  0  1  0  0  0  0  0  0
  197.0850  176.5600  143.1390 C   0  0  0  0  0  1  0  0  0  0  0  0
  195.7160  173.0880  145.3900 C   0  0  0  0  0  3  0  0  0  0  0  0
  194.0160  174.8600  144.7700 C   0  0  0  0  0  0  0  0  0  0  0  0
  196.4610  174.0920  143.2680 C   0  0  0  0  0  2  0  0  0  0  0  0
  194.3630  173.6700  145.2950 C   0  0  0  0  0  3  0  0  0  0  0  0
  195.0180  175.8510  144.2650 C   0  0  0  0  0  0  0  0  0  0  0  0
  194.7660  177.1740  144.4380 F   0  0  0  0  0  0  0  0  0  0  0  0
  196.6920  173.2970  144.5080 C   0  0  0  0  0  0  0  0  0  0  0  0
  186.3600  176.8680  144.9550 C   0  0  0  0  0  2  0  0  0  0  0  0
  185.6990  176.7910  146.3180 C   0  0  0  0  0  1  0  0  0  0  0  0
  1  4  1  1  0  0  0
  1  3  1  0  0  0  0
  2  4  1  0  0  0  0
  3 18  1  0  0  0  0
  4 10  2  0  0  0  0
  5  2  2  0  0  0  0
  5 17  1  0  0  0  0
  6 19  1  0  0  0  0
  6 20  1  0  0  0  0
  7 14  1  1  0  0  0
  7  2  1  0  0  0  0
  9  8  1  6  0  0  0
  9 11  1  0  0  0  0
 10 13  1  0  0  0  0
 11  5  1  0  0  0  0
 12 10  1  0  0  0  0
 13 18  2  0  0  0  0
 14 15  1  0  0  0  0
 15 25  1  0  0  0  0
 15  1  1  0  0  0  0
 16 20  1  1  0  0  0
 16  9  1  0  0  0  0
 16  7  1  0  0  0  0
 17 12  2  0  0  0  0
 19  8  1  0  0  0  0
 21 28  2  0  0  0  0
 23 21  1  0  0  0  0
 25 27  2  0  0  0  0
 26 21  1  0  0  0  0
 26 30  1  0  0  0  0
 27 24  1  0  0  0  0
 28 29  1  0  0  0  0
 28 25  1  0  0  0  0
 30 22  1  0  0  0  0
 30 24  2  0  0  0  0
 31 17  1  0  0  0  0
 31 32  1  0  0  0  0
M  END
>  <MODEL>
5

>  <REMARK>
 VINA RESULT:      -8.1      3.409      4.488
  Name = 
  2 active torsions:
  status: ('A' for Active; 'I' for Inactive)
    1  A    between atoms: C_13  and  C_29
    2  A    between atoms: C_16  and  N_27
                            x       y       z     vdW  Elec       q    Type
                         _______ _______ _______ _____ _____    ______ ____

>  <TORSDO>
F 2

$$$$
=
 OpenBabel11052419113D

 32 37  0  0  1  0  0  0  0  0999 V2000
  188.1230  175.1670  141.9900 C   0  0  2  0  0  3  0  0  0  0  0  0
  187.9610  176.3520  144.1870 C   0  0  0  0  0  0  0  0  0  0  0  0
  188.1000  175.5980  140.5920 N   0  0  0  0  0  2  0  0  0  0  0  0
  187.5250  176.2290  142.8720 C   0  0  0  0  0  0  0  0  0  0  0  0
  187.5090  177.4170  144.9820 C   0  0  0  0  0  0  0  0  0  0  0  0
  191.3960  175.3370  147.7390 C   0  0  0  0  0  2  0  0  0  0  0  0
  189.0480  175.4160  144.6260 C   0  0  1  0  0  3  0  0  0  0  0  0
  189.9370  177.3730  147.8830 C   0  0  0  0  0  2  0  0  0  0  0  0
  189.5280  177.1870  146.4260 C   0  0  2  0  0  3  0  0  0  0  0  0
  186.5870  177.1270  142.3480 C   0  0  0  0  0  0  0  0  0  0  0  0
  188.1770  177.6950  146.2160 N   0  0  0  0  0  2  0  0  0  0  0  0
  186.0500  178.1230  143.1710 C   0  0  0  0  0  3  0  0  0  0  0  0
  186.3030  177.1160  140.9410 N   0  0  0  0  0  0  0  0  0  0  0  0
  190.0690  175.3840  143.5770 N   0  0  0  0  0  2  0  0  0  0  0  0
  189.4880  174.7920  142.4250 N   0  0  0  0  0  0  0  0  0  0  0  0
  189.5950  175.7020  146.0410 C   0  0  2  0  0  3  0  0  0  0  0  0
  186.4960  178.2640  144.4940 C   0  0  0  0  0  0  0  0  0  0  0  0
  187.0260  176.4200  140.1100 C   0  0  0  0  0  3  0  0  0  0  0  0
  191.3450  176.8200  148.1030 C   0  0  0  0  0  2  0  0  0  0  0  0
  190.9910  175.1280  146.2820 C   0  0  0  0  0  2  0  0  0  0  0  0
  191.8630  173.5300  139.8500 C   0  0  0  0  0  0  0  0  0  0  0  0
  191.5060  170.0650  139.5960 O   0  0  0  0  0  1  0  0  0  0  0  0
  193.1200  173.9530  139.1660 C   0  0  0  0  0  1  0  0  0  0  0  0
  190.3630  171.2900  141.2410 C   0  0  0  0  0  3  0  0  0  0  0  0
  190.2350  173.7700  141.7380 C   0  0  0  0  0  0  0  0  0  0  0  0
  191.0450  172.4720  139.1920 C   0  0  0  0  0  2  0  0  0  0  0  0
  189.7960  172.5030  141.8610 C   0  0  0  0  0  3  0  0  0  0  0  0
  191.4790  174.1320  140.9880 C   0  0  0  0  0  0  0  0  0  0  0  0
  192.2430  175.1530  141.4540 F   0  0  0  0  0  0  0  0  0  0  0  0
  190.9680  171.2600  140.0550 C   0  0  0  0  0  0  0  0  0  0  0  0
  185.9420  179.3660  145.3350 C   0  0  0  0  0  2  0  0  0  0  0  0
  184.6480  178.9200  145.9890 C   0  0  0  0  0  1  0  0  0  0  0  0
  1  3  1  6  0  0  0
  1 15  1  0  0  0  0
  1  4  1  0  0  0  0
  2  7  1  0  0  0  0
  2  5  1  0  0  0  0
  4  2  2  0  0  0  0
  5 11  1  0  0  0  0
  6 19  1  0  0  0  0
  7 14  1  6  0  0  0
  7 16  1  0  0  0  0
  8 19  1  0  0  0  0
  9  8  1  1  0  0  0
 10  4  1  0  0  0  0
 10 12  2  0  0  0  0
 11  9  1  0  0  0  0
 12 17  1  0  0  0  0
 13 10  1  0  0  0  0
 15 14  1  0  0  0  0
 16 20  1  6  0  0  0
 16  9  1  0  0  0  0
 17  5  2  0  0  0  0
 17 31  1  0  0  0  0
 18  3  1  0  0  0  0
 18 13  2  0  0  0  0
 20  6  1  0  0  0  0
 21 28  2  0  0  0  0
 22 30  1  0  0  0  0
 23 21  1  0  0  0  0
 24 27  1  0  0  0  0
 25 27  2  0  0  0  0
 25 15  1  0  0  0  0
 26 21  1  0  0  0  0
 26 30  1  0  0  0  0
 28 29  1  0  0  0  0
 28 25  1  0  0  0  0
 30 24  2  0  0  0  0
 31 32  1  0  0  0  0
M  END
>  <MODEL>
6

>  <REMARK>
 VINA RESULT:      -8.0      1.498      4.407
  Name = 
  2 active torsions:
  status: ('A' for Active; 'I' for Inactive)
    1  A    between atoms: C_13  and  C_29
    2  A    between atoms: C_16  and  N_27
                            x       y       z     vdW  Elec       q    Type
                         _______ _______ _______ _____ _____    ______ ____

>  <TORSDO>
F 2

$$$$
=
 OpenBabel11052419113D

 32 37  0  0  1  0  0  0  0  0999 V2000
  186.9060  175.8290  143.1840 C   0  0  2  0  0  3  0  0  0  0  0  0
  188.0290  176.3660  145.3550 C   0  0  0  0  0  0  0  0  0  0  0  0
  186.2200  176.6230  142.1640 N   0  0  0  0  0  2  0  0  0  0  0  0
  186.9710  176.5900  144.4810 C   0  0  0  0  0  0  0  0  0  0  0  0
  188.1720  177.1580  146.5050 C   0  0  0  0  0  0  0  0  0  0  0  0
  192.6570  174.5460  146.1980 C   0  0  0  0  0  2  0  0  0  0  0  0
  189.0730  175.3850  144.9100 C   0  0  1  0  0  3  0  0  0  0  0  0
  191.7200  176.4130  147.5860 C   0  0  0  0  0  2  0  0  0  0  0  0
  190.6040  176.6150  146.5670 C   0  0  2  0  0  3  0  0  0  0  0  0
  186.0050  177.5630  144.7690 C   0  0  0  0  0  0  0  0  0  0  0  0
  189.4040  177.1140  147.2300 N   0  0  0  0  0  2  0  0  0  0  0  0
  186.0820  178.2780  145.9690 C   0  0  0  0  0  3  0  0  0  0  0  0
  185.0410  177.9250  143.7680 N   0  0  0  0  0  0  0  0  0  0  0  0
  189.4010  175.6750  143.5130 N   0  0  0  0  0  2  0  0  0  0  0  0
  188.2500  175.3990  142.7300 N   0  0  0  0  0  0  0  0  0  0  0  0
  190.2960  175.2950  145.8480 C   0  0  2  0  0  3  0  0  0  0  0  0
  187.1560  178.0700  146.8480 C   0  0  0  0  0  0  0  0  0  0  0  0
  185.1520  177.5060  142.5390 C   0  0  0  0  0  3  0  0  0  0  0  0
  192.9680  175.8720  146.8910 C   0  0  0  0  0  2  0  0  0  0  0  0
  191.5420  174.7270  145.1700 C   0  0  0  0  0  2  0  0  0  0  0  0
  189.7050  172.6550  140.6770 C   0  0  0  0  0  0  0  0  0  0  0  0
  189.0510  173.3070  137.3080 O   0  0  0  0  0  1  0  0  0  0  0  0
  190.1540  171.2410  140.8320 C   0  0  0  0  0  1  0  0  0  0  0  0
  188.1480  174.6530  139.0060 C   0  0  0  0  0  3  0  0  0  0  0  0
  188.4170  174.6290  141.5250 C   0  0  0  0  0  0  0  0  0  0  0  0
  190.2170  173.4130  139.4980 C   0  0  0  0  0  2  0  0  0  0  0  0
  188.0520  175.2140  140.3680 C   0  0  0  0  0  3  0  0  0  0  0  0
  188.9120  173.2180  141.6040 C   0  0  0  0  0  0  0  0  0  0  0  0
  188.5820  172.4750  142.6910 F   0  0  0  0  0  0  0  0  0  0  0  0
  189.0920  173.8060  138.6030 C   0  0  0  0  0  0  0  0  0  0  0  0
  187.2390  178.8810  148.0990 C   0  0  0  0  0  2  0  0  0  0  0  0
  186.3170  180.0800  148.0050 C   0  0  0  0  0  1  0  0  0  0  0  0
  1  3  1  6  0  0  0
  1  4  1  0  0  0  0
  2  5  1  0  0  0  0
  3 18  1  0  0  0  0
  4 10  1  0  0  0  0
  4  2  2  0  0  0  0
  5 17  2  0  0  0  0
  5 11  1  0  0  0  0
  6 19  1  0  0  0  0
  7 14  1  6  0  0  0
  7  2  1  0  0  0  0
  7 16  1  0  0  0  0
  9 11  1  0  0  0  0
  9  8  1  1  0  0  0
 10 12  2  0  0  0  0
 12 17  1  0  0  0  0
 13 10  1  0  0  0  0
 15  1  1  0  0  0  0
 15 14  1  0  0  0  0
 16 20  1  6  0  0  0
 16  9  1  0  0  0  0
 17 31  1  0  0  0  0
 18 13  2  0  0  0  0
 19  8  1  0  0  0  0
 20  6  1  0  0  0  0
 21 23  1  0  0  0  0
 21 28  2  0  0  0  0
 22 30  1  0  0  0  0
 24 27  1  0  0  0  0
 25 28  1  0  0  0  0
 25 15  1  0  0  0  0
 26 21  1  0  0  0  0
 27 25  2  0  0  0  0
 28 29  1  0  0  0  0
 30 24  2  0  0  0  0
 30 26  1  0  0  0  0
 32 31  1  0  0  0  0
M  END
>  <MODEL>
7

>  <REMARK>
 VINA RESULT:      -8.0      2.172      4.880
  Name = 
  2 active torsions:
  status: ('A' for Active; 'I' for Inactive)
    1  A    between atoms: C_13  and  C_29
    2  A    between atoms: C_16  and  N_27
                            x       y       z     vdW  Elec       q    Type
                         _______ _______ _______ _____ _____    ______ ____

>  <TORSDO>
F 2

$$$$
=
 OpenBabel11052419113D

 32 37  0  0  1  0  0  0  0  0999 V2000
  189.0350  175.0730  142.3750 C   0  0  2  0  0  3  0  0  0  0  0  0
  191.4500  174.4660  142.6280 C   0  0  0  0  0  0  0  0  0  0  0  0
  187.7890  174.3100  142.3270 N   0  0  0  0  0  2  0  0  0  0  0  0
  190.2070  174.1790  142.0730 C   0  0  0  0  0  0  0  0  0  0  0  0
  192.5190  173.5720  142.4610 C   0  0  0  0  0  0  0  0  0  0  0  0
  194.2120  176.9150  146.0650 C   0  0  0  0  0  2  0  0  0  0  0  0
  191.5210  175.6560  143.5390 C   0  0  1  0  0  3  0  0  0  0  0  0
  195.0030  174.7590  145.0560 C   0  0  0  0  0  2  0  0  0  0  0  0
  193.6060  174.5010  144.5030 C   0  0  2  0  0  3  0  0  0  0  0  0
  190.0260  173.0300  141.2920 C   0  0  0  0  0  0  0  0  0  0  0  0
  193.6900  173.7310  143.2670 N   0  0  0  0  0  2  0  0  0  0  0  0
  191.1160  172.1940  141.0310 C   0  0  0  0  0  3  0  0  0  0  0  0
  188.7010  172.6400  140.9010 N   0  0  0  0  0  0  0  0  0  0  0  0
  190.3730  175.6000  144.4460 N   0  0  0  0  0  2  0  0  0  0  0  0
  189.1980  175.7760  143.6700 N   0  0  0  0  0  0  0  0  0  0  0  0
  192.8840  175.8310  144.2430 C   0  0  2  0  0  3  0  0  0  0  0  0
  192.3700  172.4670  141.6000 C   0  0  0  0  0  0  0  0  0  0  0  0
  187.6480  173.2210  141.4020 C   0  0  0  0  0  3  0  0  0  0  0  0
  194.9110  175.5830  146.3390 C   0  0  0  0  0  2  0  0  0  0  0  0
  192.8090  176.6790  145.5120 C   0  0  0  0  0  2  0  0  0  0  0  0
  186.5350  176.9510  145.9920 C   0  0  0  0  0  0  0  0  0  0  0  0
  184.8060  179.5810  144.4770 O   0  0  0  0  0  1  0  0  0  0  0  0
  186.1990  176.9060  147.4440 C   0  0  0  0  0  1  0  0  0  0  0  0
  186.7160  178.6460  143.4820 C   0  0  0  0  0  3  0  0  0  0  0  0
  188.2060  176.7070  144.1420 C   0  0  0  0  0  0  0  0  0  0  0  0
  185.4250  177.2420  145.0390 C   0  0  0  0  0  2  0  0  0  0  0  0
  187.7440  177.6110  143.2580 C   0  0  0  0  0  3  0  0  0  0  0  0
  187.7850  176.6840  145.5780 C   0  0  0  0  0  0  0  0  0  0  0  0
  188.7010  176.3320  146.5170 F   0  0  0  0  0  0  0  0  0  0  0  0
  185.6830  178.5180  144.3120 C   0  0  0  0  0  0  0  0  0  0  0  0
  193.5050  171.5320  141.3440 C   0  0  0  0  0  2  0  0  0  0  0  0
  193.3240  170.2600  142.1480 C   0  0  0  0  0  1  0  0  0  0  0  0
  1  4  1  1  0  0  0
  1 15  1  0  0  0  0
  3  1  1  0  0  0  0
  4  2  2  0  0  0  0
  5  2  1  0  0  0  0
  5 11  1  0  0  0  0
  6 19  1  0  0  0  0
  7  2  1  1  0  0  0
  7 16  1  0  0  0  0
  7 14  1  0  0  0  0
  8 19  1  0  0  0  0
  9  8  1  6  0  0  0
 10  4  1  0  0  0  0
 11  9  1  0  0  0  0
 12 10  2  0  0  0  0
 12 17  1  0  0  0  0
 13 10  1  0  0  0  0
 13 18  2  0  0  0  0
 15 25  1  0  0  0  0
 15 14  1  0  0  0  0
 16  9  1  0  0  0  0
 16 20  1  1  0  0  0
 17  5  2  0  0  0  0
 18  3  1  0  0  0  0
 20  6  1  0  0  0  0
 21 23  1  0  0  0  0
 24 30  2  0  0  0  0
 25 28  1  0  0  0  0
 26 21  1  0  0  0  0
 27 24  1  0  0  0  0
 27 25  2  0  0  0  0
 28 21  2  0  0  0  0
 28 29  1  0  0  0  0
 30 22  1  0  0  0  0
 30 26  1  0  0  0  0
 31 17  1  0  0  0  0
 31 32  1  0  0  0  0
M  END
>  <MODEL>
8

>  <REMARK>
 VINA RESULT:      -7.8      3.468      8.001
  Name = 
  2 active torsions:
  status: ('A' for Active; 'I' for Inactive)
    1  A    between atoms: C_13  and  C_29
    2  A    between atoms: C_16  and  N_27
                            x       y       z     vdW  Elec       q    Type
                         _______ _______ _______ _____ _____    ______ ____

>  <TORSDO>
F 2

$$$$
=
 OpenBabel11052419113D

 32 37  0  0  1  0  0  0  0  0999 V2000
  189.8930  175.5940  145.6970 C   0  0  2  0  0  3  0  0  0  0  0  0
  190.7390  173.7430  144.2410 C   0  0  0  0  0  0  0  0  0  0  0  0
  190.5080  176.7610  146.3280 N   0  0  0  0  0  2  0  0  0  0  0  0
  190.9450  174.5830  145.3300 C   0  0  0  0  0  0  0  0  0  0  0  0
  191.7640  172.8860  143.8090 C   0  0  0  0  0  0  0  0  0  0  0  0
  188.2340  172.6660  139.9980 C   0  0  0  0  0  2  0  0  0  0  0  0
  189.4660  173.9390  143.4720 C   0  0  1  0  0  3  0  0  0  0  0  0
  190.5710  171.8360  140.3760 C   0  0  0  0  0  2  0  0  0  0  0  0
  190.7300  172.8050  141.5420 C   0  0  2  0  0  3  0  0  0  0  0  0
  192.1500  174.5390  146.0430 C   0  0  0  0  0  0  0  0  0  0  0  0
  191.6460  172.2510  142.5330 N   0  0  0  0  0  2  0  0  0  0  0  0
  193.1310  173.6080  145.6850 C   0  0  0  0  0  3  0  0  0  0  0  0
  192.4290  175.5460  147.0280 N   0  0  0  0  0  0  0  0  0  0  0  0
  189.2810  175.3760  143.2610 N   0  0  0  0  0  2  0  0  0  0  0  0
  189.0650  175.9760  144.5280 N   0  0  0  0  0  0  0  0  0  0  0  0
  189.3660  173.0860  142.1890 C   0  0  2  0  0  3  0  0  0  0  0  0
  192.9380  172.7680  144.5770 C   0  0  0  0  0  0  0  0  0  0  0  0
  191.6760  176.6020  147.1490 C   0  0  0  0  0  3  0  0  0  0  0  0
  189.5950  172.4110  139.3510 C   0  0  0  0  0  2  0  0  0  0  0  0
  188.3700  173.6360  141.1680 C   0  0  0  0  0  2  0  0  0  0  0  0
  185.7050  177.0690  145.7030 C   0  0  0  0  0  0  0  0  0  0  0  0
  184.7610  179.9150  143.9110 O   0  0  0  0  0  1  0  0  0  0  0  0
  184.8130  176.9070  146.8870 C   0  0  0  0  0  1  0  0  0  0  0  0
  186.9000  178.9780  143.6690 C   0  0  0  0  0  3  0  0  0  0  0  0
  187.9770  176.9100  144.6600 C   0  0  0  0  0  0  0  0  0  0  0  0
  185.0760  177.5050  144.4230 C   0  0  0  0  0  2  0  0  0  0  0  0
  187.9200  177.9150  143.7660 C   0  0  0  0  0  3  0  0  0  0  0  0
  187.0130  176.7760  145.7980 C   0  0  0  0  0  0  0  0  0  0  0  0
  187.4690  176.2910  146.9810 F   0  0  0  0  0  0  0  0  0  0  0  0
  185.6190  178.8270  144.0000 C   0  0  0  0  0  0  0  0  0  0  0  0
  194.0210  171.8170  144.1870 C   0  0  0  0  0  2  0  0  0  0  0  0
  194.5650  171.1160  145.4160 C   0  0  0  0  0  1  0  0  0  0  0  0
  1  4  1  6  0  0  0
  1  3  1  0  0  0  0
  2  4  1  0  0  0  0
  3 18  1  0  0  0  0
  4 10  2  0  0  0  0
  5  2  2  0  0  0  0
  5 17  1  0  0  0  0
  6 20  1  0  0  0  0
  7 14  1  6  0  0  0
  7  2  1  0  0  0  0
  9  8  1  6  0  0  0
  9 16  1  0  0  0  0
  9 11  1  0  0  0  0
 10 13  1  0  0  0  0
 11  5  1  0  0  0  0
 12 10  1  0  0  0  0
 13 18  2  0  0  0  0
 14 15  1  0  0  0  0
 15 25  1  0  0  0  0
 15  1  1  0  0  0  0
 16 20  1  6  0  0  0
 16  7  1  0  0  0  0
 17 12  2  0  0  0  0
 19  6  1  0  0  0  0
 19  8  1  0  0  0  0
 21 28  2  0  0  0  0
 21 23  1  0  0  0  0
 22 30  1  0  0  0  0
 24 27  1  0  0  0  0
 24 30  2  0  0  0  0
 25 28  1  0  0  0  0
 26 21  1  0  0  0  0
 27 25  2  0  0  0  0
 28 29  1  0  0  0  0
 30 26  1  0  0  0  0
 31 17  1  0  0  0  0
 31 32  1  0  0  0  0
M  END
>  <MODEL>
9

>  <REMARK>
 VINA RESULT:      -7.7      3.403      7.060
  Name = 
  2 active torsions:
  status: ('A' for Active; 'I' for Inactive)
    1  A    between atoms: C_13  and  C_29
    2  A    between atoms: C_16  and  N_27
                            x       y       z     vdW  Elec       q    Type
                         _______ _______ _______ _____ _____    ______ ____

>  <TORSDO>
F 2

$$$$
