=
 OpenBabel11052419523D

 37 42  0  0  1  0  0  0  0  0999 V2000
  192.4300  176.6070  143.5010 O   0  0  0  0  0  1  0  0  0  0  0  0
  190.8610  171.8570  140.1190 C   0  0  0  0  0  2  0  0  0  0  0  0
  188.7190  175.4550  141.8730 C   0  0  0  0  0  0  0  0  0  0  0  0
  189.8540  178.0320  144.1770 C   0  0  0  0  0  2  0  0  0  0  0  0
  189.3510  173.8550  139.9000 C   0  0  2  0  0  3  0  0  0  0  0  0
  189.3910  175.8370  143.0310 C   0  0  0  0  0  0  0  0  0  0  0  0
  189.5560  174.5460  141.2260 C   0  0  0  0  0  0  0  0  0  0  0  0
  188.9320  176.8320  144.0680 C   0  0  1  0  0  0  0  0  0  0  0  0
  188.1290  174.1960  139.3200 O   0  0  0  0  0  1  0  0  0  0  0  0
  190.7010  174.4330  142.0030 C   0  0  0  0  0  0  0  0  0  0  0  0
  192.9290  173.6850  142.5530 O   0  0  0  0  0  1  0  0  0  0  0  0
  186.4290  176.4400  142.3390 C   0  0  0  0  0  2  0  0  0  0  0  0
  187.8040  177.1850  140.5190 O   0  0  0  0  0  1  0  0  0  0  0  0
  191.8960  173.5880  141.6200 C   0  0  1  0  0  3  0  0  0  0  0  0
  189.8000  177.0080  145.3140 C   0  0  1  0  0  3  0  0  0  0  0  0
  187.4740  176.0700  141.2910 C   0  0  1  0  0  3  0  0  0  0  0  0
  190.5910  175.2280  143.0930 N   0  0  0  0  0  0  0  0  0  0  0  0
  189.4190  172.3440  140.0650 C   0  0  0  0  0  2  0  0  0  0  0  0
  187.4020  177.0480  144.2310 C   0  0  2  0  0  3  0  0  0  0  0  0
  191.4990  172.1260  141.4760 C   0  0  0  0  0  2  0  0  0  0  0  0
  191.0040  176.0400  145.3780 C   0  0  1  0  0  3  0  0  0  0  0  0
  191.6340  175.5950  144.0440 C   0  0  2  0  0  3  0  0  0  0  0  0
  186.8350  177.5640  143.0660 O   0  0  0  0  0  0  0  0  0  0  0  0
  186.0770  178.8940  144.9880 C   0  0  0  0  0  2  0  0  0  0  0  0
  186.8970  177.7540  145.4240 N   0  0  1  0  0  0  0  0  0  0  0  0
  186.2010  176.8650  146.3780 C   0  0  1  0  0  3  0  0  0  0  0  0
  187.2150  176.1220  147.2310 C   0  0  0  0  0  1  0  0  0  0  0  0
  185.7110  178.9840  147.3990 O   0  0  0  0  0  0  0  0  0  0  0  0
  185.2710  177.6550  147.3050 C   0  0  0  0  0  2  0  0  0  0  0  0
  185.3840  179.5880  146.1720 C   0  0  0  0  0  2  0  0  0  0  0  0
  191.9950  176.4060  146.4940 C   0  0  2  0  0  3  0  0  0  0  0  0
  193.0460  175.3240  146.7000 C   0  0  0  0  0  2  0  0  0  0  0  0
  194.4260  175.8570  146.3640 C   0  0  0  0  0  1  0  0  0  0  0  0
  191.2750  176.7090  147.8030 C   0  0  0  0  0  2  0  0  0  0  0  0
  192.1450  177.3310  148.7000 O   0  0  0  0  0  0  0  0  0  0  0  0
  190.1120  178.5620  148.6610 C   0  0  0  0  0  1  0  0  0  0  0  0
  191.3220  178.1480  149.4740 C   0  0  0  0  0  2  0  0  0  0  0  0
  2 20  1  0  0  0  0
  3  6  2  0  0  0  0
  5  9  1  1  0  0  0
  5 18  1  0  0  0  0
  5  7  1  0  0  0  0
  6 17  1  0  0  0  0
  6  8  1  0  0  0  0
  7  3  1  0  0  0  0
  7 10  2  0  0  0  0
  8  4  1  6  0  0  0
  8 19  1  0  0  0  0
  8 15  1  0  0  0  0
 10 17  1  0  0  0  0
 12 23  1  0  0  0  0
 14 10  1  0  0  0  0
 14 11  1  1  0  0  0
 15  4  1  6  0  0  0
 15 21  1  0  0  0  0
 16 13  1  1  0  0  0
 16  3  1  0  0  0  0
 16 12  1  0  0  0  0
 17 22  1  0  0  0  0
 18  2  1  0  0  0  0
 19 23  1  6  0  0  0
 19 25  1  0  0  0  0
 20 14  1  0  0  0  0
 21 31  1  1  0  0  0
 22  1  1  6  0  0  0
 22 21  1  0  0  0  0
 24 30  1  0  0  0  0
 25 24  1  6  0  0  0
 25 26  1  0  0  0  0
 26 27  1  1  0  0  0
 26 29  1  0  0  0  0
 29 28  1  0  0  0  0
 30 28  1  0  0  0  0
 31 32  1  1  0  0  0
 31 34  1  0  0  0  0
 33 32  1  0  0  0  0
 34 35  1  0  0  0  0
 35 37  1  0  0  0  0
 36 37  1  0  0  0  0
M  END
>  <MODEL>
1

>  <REMARK>
 VINA RESULT:      -7.5      0.000      0.000
  Name = 
  6 active torsions:
  status: ('A' for Active; 'I' for Inactive)
    1  A    between atoms: O_5  and  C_17
    2  A    between atoms: O_5  and  C_23
    3  A    between atoms: N_6  and  C_31
    4  A    between atoms: C_11  and  C_26
    5  A    between atoms: C_17  and  C_26
    6  A    between atoms: C_26  and  C_33
                            x       y       z     vdW  Elec       q    Type
                         _______ _______ _______ _____ _____    ______ ____

>  <TORSDO>
F 6

$$$$
=
 OpenBabel11052419523D

 37 42  0  0  1  0  0  0  0  0999 V2000
  192.5910  176.4010  143.0390 O   0  0  0  0  0  1  0  0  0  0  0  0
  190.6320  171.8670  139.5650 C   0  0  0  0  0  2  0  0  0  0  0  0
  188.7240  175.3790  141.7180 C   0  0  0  0  0  0  0  0  0  0  0  0
  190.1130  177.8090  144.0410 C   0  0  0  0  0  2  0  0  0  0  0  0
  189.1380  173.8890  139.6060 C   0  0  2  0  0  3  0  0  0  0  0  0
  189.5100  175.6880  142.8240 C   0  0  0  0  0  0  0  0  0  0  0  0
  189.4810  174.5010  140.9430 C   0  0  0  0  0  0  0  0  0  0  0  0
  189.1680  176.6260  143.9550 C   0  0  1  0  0  0  0  0  0  0  0  0
  187.8710  174.2730  139.1680 O   0  0  0  0  0  1  0  0  0  0  0  0
  190.6930  174.3330  141.5970 C   0  0  0  0  0  0  0  0  0  0  0  0
  192.9520  173.5330  141.8850 O   0  0  0  0  0  1  0  0  0  0  0  0
  186.5040  176.3580  142.4580 C   0  0  0  0  0  2  0  0  0  0  0  0
  187.7080  177.1930  140.5580 O   0  0  0  0  0  1  0  0  0  0  0  0
  191.8330  173.5000  141.0540 C   0  0  1  0  0  3  0  0  0  0  0  0
  190.1550  176.7230  145.1190 C   0  0  1  0  0  3  0  0  0  0  0  0
  187.4370  176.0390  141.2950 C   0  0  1  0  0  3  0  0  0  0  0  0
  190.7010  175.0650  142.7350 N   0  0  0  0  0  0  0  0  0  0  0  0
  189.2000  172.3700  139.6780 C   0  0  0  0  0  2  0  0  0  0  0  0
  187.6640  176.8470  144.2780 C   0  0  2  0  0  3  0  0  0  0  0  0
  191.4020  172.0520  140.8670 C   0  0  0  0  0  2  0  0  0  0  0  0
  191.3440  175.7410  145.0120 C   0  0  1  0  0  3  0  0  0  0  0  0
  191.8360  175.3670  143.6000 C   0  0  2  0  0  3  0  0  0  0  0  0
  186.9950  177.4350  143.2040 O   0  0  0  0  0  0  0  0  0  0  0  0
  186.3780  178.6080  145.2670 C   0  0  0  0  0  2  0  0  0  0  0  0
  187.2870  177.4880  145.5520 N   0  0  1  0  0  0  0  0  0  0  0  0
  186.7480  176.5380  146.5470 C   0  0  1  0  0  3  0  0  0  0  0  0
  187.8870  175.8070  147.2370 C   0  0  0  0  0  1  0  0  0  0  0  0
  186.3130  178.5970  147.7070 O   0  0  0  0  0  0  0  0  0  0  0  0
  185.9140  177.2550  147.6140 C   0  0  0  0  0  2  0  0  0  0  0  0
  185.8140  179.2310  146.5550 C   0  0  0  0  0  2  0  0  0  0  0  0
  192.4430  176.0330  146.0440 C   0  0  2  0  0  3  0  0  0  0  0  0
  191.8680  176.5290  147.3650 C   0  0  0  0  0  2  0  0  0  0  0  0
  191.3780  175.3620  148.2000 C   0  0  0  0  0  1  0  0  0  0  0  0
  193.4700  177.0220  145.5030 C   0  0  0  0  0  2  0  0  0  0  0  0
  194.7060  176.8180  146.1170 O   0  0  0  0  0  0  0  0  0  0  0  0
  195.7750  175.4240  144.5140 C   0  0  0  0  0  1  0  0  0  0  0  0
  195.0240  175.4910  145.8290 C   0  0  0  0  0  2  0  0  0  0  0  0
  2 18  1  0  0  0  0
  2 20  1  0  0  0  0
  3  6  2  0  0  0  0
  5  9  1  1  0  0  0
  5 18  1  0  0  0  0
  5  7  1  0  0  0  0
  6  8  1  0  0  0  0
  7 10  2  0  0  0  0
  7  3  1  0  0  0  0
  8  4  1  6  0  0  0
  8 19  1  0  0  0  0
  8 15  1  0  0  0  0
 10 17  1  0  0  0  0
 12 23  1  0  0  0  0
 14 10  1  0  0  0  0
 14 11  1  1  0  0  0
 15  4  1  6  0  0  0
 16 13  1  1  0  0  0
 16  3  1  0  0  0  0
 16 12  1  0  0  0  0
 17  6  1  0  0  0  0
 17 22  1  0  0  0  0
 19 23  1  6  0  0  0
 19 25  1  0  0  0  0
 20 14  1  0  0  0  0
 21 15  1  0  0  0  0
 21 31  1  1  0  0  0
 22  1  1  6  0  0  0
 22 21  1  0  0  0  0
 24 30  1  0  0  0  0
 25 24  1  6  0  0  0
 25 26  1  0  0  0  0
 26 27  1  1  0  0  0
 26 29  1  0  0  0  0
 29 28  1  0  0  0  0
 30 28  1  0  0  0  0
 31 34  1  6  0  0  0
 31 32  1  0  0  0  0
 32 33  1  0  0  0  0
 34 35  1  0  0  0  0
 36 37  1  0  0  0  0
 37 35  1  0  0  0  0
M  END
>  <MODEL>
2

>  <REMARK>
 VINA RESULT:      -7.3      1.044      1.952
  Name = 
  6 active torsions:
  status: ('A' for Active; 'I' for Inactive)
    1  A    between atoms: O_5  and  C_17
    2  A    between atoms: O_5  and  C_23
    3  A    between atoms: N_6  and  C_31
    4  A    between atoms: C_11  and  C_26
    5  A    between atoms: C_17  and  C_26
    6  A    between atoms: C_26  and  C_33
                            x       y       z     vdW  Elec       q    Type
                         _______ _______ _______ _____ _____    ______ ____

>  <TORSDO>
F 6

$$$$
=
 OpenBabel11052419523D

 37 42  0  0  1  0  0  0  0  0999 V2000
  188.0220  178.3710  141.6320 O   0  0  0  0  0  1  0  0  0  0  0  0
  183.9350  178.9110  146.0440 C   0  0  0  0  0  2  0  0  0  0  0  0
  188.0020  176.9440  145.5950 C   0  0  0  0  0  0  0  0  0  0  0  0
  190.1370  176.4890  142.6850 C   0  0  0  0  0  2  0  0  0  0  0  0
  186.2860  178.4910  146.8270 C   0  0  2  0  0  3  0  0  0  0  0  0
  188.1720  176.6010  144.2560 C   0  0  0  0  0  0  0  0  0  0  0  0
  186.8880  177.7820  145.6370 C   0  0  0  0  0  0  0  0  0  0  0  0
  189.2580  175.7370  143.6660 C   0  0  1  0  0  0  0  0  0  0  0  0
  186.9680  178.1950  148.0070 O   0  0  0  0  0  1  0  0  0  0  0  0
  186.4460  177.9280  144.3300 C   0  0  0  0  0  0  0  0  0  0  0  0
  185.0800  178.8150  142.5480 O   0  0  0  0  0  1  0  0  0  0  0  0
  189.6130  175.3160  146.6830 C   0  0  0  0  0  2  0  0  0  0  0  0
  189.9230  177.6930  146.7840 O   0  0  0  0  0  1  0  0  0  0  0  0
  185.2890  178.8150  143.9270 C   0  0  1  0  0  3  0  0  0  0  0  0
  189.1740  175.4150  142.1740 C   0  0  1  0  0  3  0  0  0  0  0  0
  188.9540  176.6900  146.7340 C   0  0  1  0  0  3  0  0  0  0  0  0
  187.2390  177.2110  143.4990 N   0  0  0  0  0  0  0  0  0  0  0  0
  184.8210  178.1150  146.9920 C   0  0  0  0  0  2  0  0  0  0  0  0
  189.9110  174.6700  144.5880 C   0  0  2  0  0  3  0  0  0  0  0  0
  184.0060  178.3760  144.6190 C   0  0  0  0  0  2  0  0  0  0  0  0
  187.8970  175.9540  141.4900 C   0  0  1  0  0  3  0  0  0  0  0  0
  187.2860  177.2560  142.0420 C   0  0  2  0  0  3  0  0  0  0  0  0
  190.5700  175.2650  145.6650 O   0  0  0  0  0  0  0  0  0  0  0  0
  192.1330  173.7960  144.3990 C   0  0  0  0  0  2  0  0  0  0  0  0
  190.7340  173.6040  143.9860 N   0  0  1  0  0  0  0  0  0  0  0  0
  190.2240  172.2450  144.2630 C   0  0  1  0  0  3  0  0  0  0  0  0
  189.0820  171.9150  143.3170 C   0  0  0  0  0  1  0  0  0  0  0  0
  192.3090  171.6670  143.2170 O   0  0  0  0  0  0  0  0  0  0  0  0
  191.3200  171.1880  144.0900 C   0  0  0  0  0  2  0  0  0  0  0  0
  193.0300  172.6340  143.9420 C   0  0  0  0  0  2  0  0  0  0  0  0
  187.9580  175.8440  139.9590 C   0  0  2  0  0  3  0  0  0  0  0  0
  186.7790  176.5380  139.2890 C   0  0  0  0  0  2  0  0  0  0  0  0
  186.7000  176.1520  137.8250 C   0  0  0  0  0  1  0  0  0  0  0  0
  188.0510  174.3910  139.5050 C   0  0  0  0  0  2  0  0  0  0  0  0
  189.3310  174.1190  139.0200 O   0  0  0  0  0  0  0  0  0  0  0  0
  191.0160  172.9400  140.2130 C   0  0  0  0  0  1  0  0  0  0  0  0
  189.6500  172.8730  139.5590 C   0  0  0  0  0  2  0  0  0  0  0  0
  2 18  1  0  0  0  0
  3  7  1  0  0  0  0
  3 16  1  0  0  0  0
  5 18  1  0  0  0  0
  5  9  1  1  0  0  0
  6  3  2  0  0  0  0
  7  5  1  0  0  0  0
  8  4  1  6  0  0  0
  8  6  1  0  0  0  0
  8 19  1  0  0  0  0
 10  7  2  0  0  0  0
 12 16  1  0  0  0  0
 14 11  1  6  0  0  0
 14 10  1  0  0  0  0
 14 20  1  0  0  0  0
 15  4  1  6  0  0  0
 15  8  1  0  0  0  0
 16 13  1  6  0  0  0
 17  6  1  0  0  0  0
 17 10  1  0  0  0  0
 19 23  1  1  0  0  0
 20  2  1  0  0  0  0
 21 31  1  6  0  0  0
 21 22  1  0  0  0  0
 21 15  1  0  0  0  0
 22  1  1  1  0  0  0
 22 17  1  0  0  0  0
 23 12  1  0  0  0  0
 25 26  1  0  0  0  0
 25 24  1  1  0  0  0
 25 19  1  0  0  0  0
 26 27  1  6  0  0  0
 28 30  1  0  0  0  0
 28 29  1  0  0  0  0
 29 26  1  0  0  0  0
 30 24  1  0  0  0  0
 31 32  1  6  0  0  0
 33 32  1  0  0  0  0
 34 31  1  0  0  0  0
 35 34  1  0  0  0  0
 35 37  1  0  0  0  0
 37 36  1  0  0  0  0
M  END
>  <MODEL>
3

>  <REMARK>
 VINA RESULT:      -7.2      1.966      7.767
  Name = 
  6 active torsions:
  status: ('A' for Active; 'I' for Inactive)
    1  A    between atoms: O_5  and  C_17
    2  A    between atoms: O_5  and  C_23
    3  A    between atoms: N_6  and  C_31
    4  A    between atoms: C_11  and  C_26
    5  A    between atoms: C_17  and  C_26
    6  A    between atoms: C_26  and  C_33
                            x       y       z     vdW  Elec       q    Type
                         _______ _______ _______ _____ _____    ______ ____

>  <TORSDO>
F 6

$$$$
=
 OpenBabel11052419523D

 37 42  0  0  1  0  0  0  0  0999 V2000
  191.3630  172.4380  142.6550 O   0  0  0  0  0  1  0  0  0  0  0  0
  196.3130  175.6680  143.8910 C   0  0  0  0  0  2  0  0  0  0  0  0
  191.8900  175.9870  144.8640 C   0  0  0  0  0  0  0  0  0  0  0  0
  189.0350  174.0520  143.7060 C   0  0  0  0  0  2  0  0  0  0  0  0
  194.4240  175.9640  145.5230 C   0  0  2  0  0  3  0  0  0  0  0  0
  191.1760  175.3730  143.8390 C   0  0  0  0  0  0  0  0  0  0  0  0
  193.2230  175.6240  144.6720 C   0  0  0  0  0  0  0  0  0  0  0  0
  189.6860  175.4190  143.6090 C   0  0  1  0  0  0  0  0  0  0  0  0
  194.0810  176.7750  146.6050 O   0  0  0  0  0  1  0  0  0  0  0  0
  193.2570  174.7950  143.5610 C   0  0  0  0  0  0  0  0  0  0  0  0
  194.2640  173.3130  141.9430 O   0  0  0  0  0  1  0  0  0  0  0  0
  190.1090  177.5410  145.7840 C   0  0  0  0  0  2  0  0  0  0  0  0
  191.0470  175.7510  147.0770 O   0  0  0  0  0  1  0  0  0  0  0  0
  194.5140  174.1270  143.0470 C   0  0  1  0  0  3  0  0  0  0  0  0
  189.1420  174.7480  142.3470 C   0  0  1  0  0  3  0  0  0  0  0  0
  191.3350  176.6830  146.0790 C   0  0  1  0  0  3  0  0  0  0  0  0
  192.0060  174.6440  143.0670 N   0  0  0  0  0  0  0  0  0  0  0  0
  195.4890  176.6660  144.6930 C   0  0  0  0  0  2  0  0  0  0  0  0
  188.9120  176.6540  144.1470 C   0  0  2  0  0  3  0  0  0  0  0  0
  195.5590  175.1660  142.6660 C   0  0  0  0  0  2  0  0  0  0  0  0
  190.2410  174.1930  141.4130 C   0  0  1  0  0  3  0  0  0  0  0  0
  191.5450  173.6910  142.0630 C   0  0  2  0  0  3  0  0  0  0  0  0
  188.9910  176.7370  145.5380 O   0  0  0  0  0  0  0  0  0  0  0  0
  186.6260  176.8490  144.8350 C   0  0  0  0  0  2  0  0  0  0  0  0
  187.5340  176.9010  143.6800 N   0  0  1  0  0  0  0  0  0  0  0  0
  187.4000  178.1420  142.8870 C   0  0  1  0  0  3  0  0  0  0  0  0
  187.8550  177.8970  141.4580 C   0  0  0  0  0  1  0  0  0  0  0  0
  185.0770  177.5610  143.0870 O   0  0  0  0  0  0  0  0  0  0  0  0
  185.9500  178.6350  142.8580 C   0  0  0  0  0  2  0  0  0  0  0  0
  185.1910  177.2530  144.4550 C   0  0  0  0  0  2  0  0  0  0  0  0
  189.6710  173.3070  140.2950 C   0  0  2  0  0  3  0  0  0  0  0  0
  190.7350  172.9180  139.2770 C   0  0  0  0  0  2  0  0  0  0  0  0
  190.9130  171.4120  139.2470 C   0  0  0  0  0  1  0  0  0  0  0  0
  188.4870  173.9730  139.6030 C   0  0  0  0  0  2  0  0  0  0  0  0
  188.3070  173.4340  138.3280 O   0  0  0  0  0  0  0  0  0  0  0  0
  189.0710  174.5430  136.3690 C   0  0  0  0  0  1  0  0  0  0  0  0
  188.0760  174.5410  137.5120 C   0  0  0  0  0  2  0  0  0  0  0  0
  2 18  1  0  0  0  0
  3 16  1  0  0  0  0
  5  9  1  1  0  0  0
  6  3  2  0  0  0  0
  7  3  1  0  0  0  0
  7  5  1  0  0  0  0
  8  4  1  1  0  0  0
  8  6  1  0  0  0  0
  8 19  1  0  0  0  0
 10  7  2  0  0  0  0
 12 16  1  0  0  0  0
 14 11  1  6  0  0  0
 14 10  1  0  0  0  0
 15  8  1  0  0  0  0
 15  4  1  1  0  0  0
 16 13  1  1  0  0  0
 17 10  1  0  0  0  0
 17  6  1  0  0  0  0
 18  5  1  0  0  0  0
 19 23  1  1  0  0  0
 20 14  1  0  0  0  0
 20  2  1  0  0  0  0
 21 31  1  1  0  0  0
 21 22  1  0  0  0  0
 21 15  1  0  0  0  0
 22  1  1  1  0  0  0
 22 17  1  0  0  0  0
 23 12  1  0  0  0  0
 25 19  1  0  0  0  0
 25 24  1  1  0  0  0
 26 27  1  6  0  0  0
 26 25  1  0  0  0  0
 28 30  1  0  0  0  0
 29 26  1  0  0  0  0
 29 28  1  0  0  0  0
 30 24  1  0  0  0  0
 31 32  1  6  0  0  0
 33 32  1  0  0  0  0
 34 31  1  0  0  0  0
 35 34  1  0  0  0  0
 36 37  1  0  0  0  0
 37 35  1  0  0  0  0
M  END
>  <MODEL>
4

>  <REMARK>
 VINA RESULT:      -6.9      2.002      6.315
  Name = 
  6 active torsions:
  status: ('A' for Active; 'I' for Inactive)
    1  A    between atoms: O_5  and  C_17
    2  A    between atoms: O_5  and  C_23
    3  A    between atoms: N_6  and  C_31
    4  A    between atoms: C_11  and  C_26
    5  A    between atoms: C_17  and  C_26
    6  A    between atoms: C_26  and  C_33
                            x       y       z     vdW  Elec       q    Type
                         _______ _______ _______ _____ _____    ______ ____

>  <TORSDO>
F 6

$$$$
=
 OpenBabel11052419523D

 37 42  0  0  1  0  0  0  0  0999 V2000
  188.8660  175.2110  147.1320 O   0  0  0  0  0  1  0  0  0  0  0  0
  185.1370  179.2700  144.6690 C   0  0  0  0  0  2  0  0  0  0  0  0
  187.8850  176.0090  143.1140 C   0  0  0  0  0  0  0  0  0  0  0  0
  190.3010  173.8920  144.8230 C   0  0  0  0  0  2  0  0  0  0  0  0
  185.5820  177.2450  143.2470 C   0  0  2  0  0  3  0  0  0  0  0  0
  188.9230  175.8450  144.0270 C   0  0  0  0  0  0  0  0  0  0  0  0
  186.9330  176.8010  143.7540 C   0  0  0  0  0  0  0  0  0  0  0  0
  190.1860  175.0420  143.8400 C   0  0  1  0  0  0  0  0  0  0  0  0
  185.3380  176.7920  141.9510 O   0  0  0  0  0  1  0  0  0  0  0  0
  187.4200  177.0640  145.0270 C   0  0  0  0  0  0  0  0  0  0  0  0
  187.3540  177.9280  147.2800 O   0  0  0  0  0  1  0  0  0  0  0  0
  188.9820  175.0900  141.0200 C   0  0  0  0  0  2  0  0  0  0  0  0
  187.0660  174.0550  142.0280 O   0  0  0  0  0  1  0  0  0  0  0  0
  186.6580  177.8450  146.0750 C   0  0  1  0  0  3  0  0  0  0  0  0
  191.2330  175.1000  144.9530 C   0  0  1  0  0  3  0  0  0  0  0  0
  187.6910  175.2840  141.8080 C   0  0  1  0  0  3  0  0  0  0  0  0
  188.6270  176.4720  145.1820 N   0  0  0  0  0  0  0  0  0  0  0  0
  185.4700  178.7620  143.2720 C   0  0  0  0  0  2  0  0  0  0  0  0
  190.7020  174.8380  142.3890 C   0  0  2  0  0  3  0  0  0  0  0  0
  186.3550  179.2530  145.5830 C   0  0  0  0  0  2  0  0  0  0  0  0
  190.8790  176.0800  146.0940 C   0  0  1  0  0  3  0  0  0  0  0  0
  189.3860  176.2920  146.4150 C   0  0  2  0  0  3  0  0  0  0  0  0
  189.7860  174.1170  141.6210 O   0  0  0  0  0  0  0  0  0  0  0  0
  192.0120  173.0350  141.5120 C   0  0  0  0  0  2  0  0  0  0  0  0
  192.0760  174.3460  142.1750 N   0  0  1  0  0  0  0  0  0  0  0  0
  192.9400  175.3150  141.4690 C   0  0  1  0  0  3  0  0  0  0  0  0
  193.4530  176.3610  142.4440 C   0  0  0  0  0  1  0  0  0  0  0  0
  194.4220  173.4230  141.4890 O   0  0  0  0  0  0  0  0  0  0  0  0
  194.1440  174.6250  140.8190 C   0  0  0  0  0  2  0  0  0  0  0  0
  193.4060  172.5250  141.1110 C   0  0  0  0  0  2  0  0  0  0  0  0
  191.8060  175.9290  147.3090 C   0  0  2  0  0  3  0  0  0  0  0  0
  192.1680  177.2760  147.9210 C   0  0  0  0  0  2  0  0  0  0  0  0
  191.3210  177.5420  149.1520 C   0  0  0  0  0  1  0  0  0  0  0  0
  193.0660  175.1460  146.9570 C   0  0  0  0  0  2  0  0  0  0  0  0
  194.1600  176.0070  146.8660 O   0  0  0  0  0  0  0  0  0  0  0  0
  194.5420  174.0430  145.5820 C   0  0  0  0  0  1  0  0  0  0  0  0
  194.9230  175.4910  145.8190 C   0  0  0  0  0  2  0  0  0  0  0  0
  2 20  1  0  0  0  0
  3  7  1  0  0  0  0
  3  6  2  0  0  0  0
  5  9  1  6  0  0  0
  5 18  1  0  0  0  0
  5  7  1  0  0  0  0
  6 17  1  0  0  0  0
  7 10  2  0  0  0  0
  8  6  1  0  0  0  0
  8  4  1  1  0  0  0
  8 15  1  0  0  0  0
 10 17  1  0  0  0  0
 10 14  1  0  0  0  0
 12 23  1  0  0  0  0
 12 16  1  0  0  0  0
 14 11  1  1  0  0  0
 15  4  1  1  0  0  0
 15 21  1  0  0  0  0
 16 13  1  1  0  0  0
 16  3  1  0  0  0  0
 17 22  1  0  0  0  0
 18  2  1  0  0  0  0
 19 23  1  1  0  0  0
 19  8  1  0  0  0  0
 20 14  1  0  0  0  0
 21 22  1  0  0  0  0
 21 31  1  1  0  0  0
 22  1  1  6  0  0  0
 25 24  1  6  0  0  0
 25 19  1  0  0  0  0
 26 25  1  0  0  0  0
 26 27  1  1  0  0  0
 29 26  1  0  0  0  0
 29 28  1  0  0  0  0
 30 28  1  0  0  0  0
 30 24  1  0  0  0  0
 31 34  1  6  0  0  0
 31 32  1  0  0  0  0
 32 33  1  0  0  0  0
 35 34  1  0  0  0  0
 36 37  1  0  0  0  0
 37 35  1  0  0  0  0
M  END
>  <MODEL>
5

>  <REMARK>
 VINA RESULT:      -6.8      1.781      6.279
  Name = 
  6 active torsions:
  status: ('A' for Active; 'I' for Inactive)
    1  A    between atoms: O_5  and  C_17
    2  A    between atoms: O_5  and  C_23
    3  A    between atoms: N_6  and  C_31
    4  A    between atoms: C_11  and  C_26
    5  A    between atoms: C_17  and  C_26
    6  A    between atoms: C_26  and  C_33
                            x       y       z     vdW  Elec       q    Type
                         _______ _______ _______ _____ _____    ______ ____

>  <TORSDO>
F 6

$$$$
=
 OpenBabel11052419523D

 37 42  0  0  1  0  0  0  0  0999 V2000
  191.9480  173.4430  145.3520 O   0  0  0  0  0  1  0  0  0  0  0  0
  187.1430  176.2480  143.0050 C   0  0  0  0  0  2  0  0  0  0  0  0
  190.8180  174.1530  141.3570 C   0  0  0  0  0  0  0  0  0  0  0  0
  193.7630  172.8130  143.0210 C   0  0  0  0  0  2  0  0  0  0  0  0
  188.2370  174.5730  141.4830 C   0  0  2  0  0  3  0  0  0  0  0  0
  191.8400  174.2700  142.2940 C   0  0  0  0  0  0  0  0  0  0  0  0
  189.6520  174.5530  142.0090 C   0  0  0  0  0  0  0  0  0  0  0  0
  193.2970  173.9290  142.1040 C   0  0  1  0  0  0  0  0  0  0  0  0
  188.1710  174.1540  140.1540 O   0  0  0  0  0  1  0  0  0  0  0  0
  190.0110  174.8720  143.3110 C   0  0  0  0  0  0  0  0  0  0  0  0
  189.6380  175.5140  145.6080 O   0  0  0  0  0  1  0  0  0  0  0  0
  192.1810  173.7780  139.2510 C   0  0  0  0  0  2  0  0  0  0  0  0
  190.6880  172.1180  140.1290 O   0  0  0  0  0  1  0  0  0  0  0  0
  189.0230  175.2940  144.3770 C   0  0  1  0  0  3  0  0  0  0  0  0
  194.2540  174.2440  143.2550 C   0  0  1  0  0  3  0  0  0  0  0  0
  190.8860  173.4940  140.0040 C   0  0  1  0  0  3  0  0  0  0  0  0
  191.3420  174.6890  143.4740 N   0  0  0  0  0  0  0  0  0  0  0  0
  187.6420  175.9690  141.5940 C   0  0  0  0  0  2  0  0  0  0  0  0
  193.8710  174.0000  140.6620 C   0  0  2  0  0  3  0  0  0  0  0  0
  188.2890  176.5610  143.9600 C   0  0  0  0  0  2  0  0  0  0  0  0
  193.5860  174.9790  144.4390 C   0  0  1  0  0  3  0  0  0  0  0  0
  192.1010  174.6790  144.7190 C   0  0  2  0  0  3  0  0  0  0  0  0
  193.2480  173.0760  139.8220 O   0  0  0  0  0  0  0  0  0  0  0  0
  195.7000  172.7970  139.6900 C   0  0  0  0  0  2  0  0  0  0  0  0
  195.3340  173.9900  140.4680 N   0  0  1  0  0  0  0  0  0  0  0  0
  195.8550  175.2470  139.8900 C   0  0  1  0  0  3  0  0  0  0  0  0
  195.9930  176.3000  140.9760 C   0  0  0  0  0  1  0  0  0  0  0  0
  197.8610  173.9270  139.8090 O   0  0  0  0  0  0  0  0  0  0  0  0
  197.2250  175.0390  139.2370 C   0  0  0  0  0  2  0  0  0  0  0  0
  197.1900  172.7960  139.3090 C   0  0  0  0  0  2  0  0  0  0  0  0
  194.4960  175.0530  145.6750 C   0  0  2  0  0  3  0  0  0  0  0  0
  194.2170  176.2910  146.5160 C   0  0  0  0  0  2  0  0  0  0  0  0
  194.6060  177.5450  145.7560 C   0  0  0  0  0  1  0  0  0  0  0  0
  195.9700  174.9880  145.2890 C   0  0  0  0  0  2  0  0  0  0  0  0
  196.6620  174.1520  146.1660 O   0  0  0  0  0  0  0  0  0  0  0  0
  196.7920  171.7960  145.8800 C   0  0  0  0  0  1  0  0  0  0  0  0
  197.1960  173.1570  145.3490 C   0  0  0  0  0  2  0  0  0  0  0  0
  2 20  1  0  0  0  0
  3  7  1  0  0  0  0
  3  6  2  0  0  0  0
  5  9  1  6  0  0  0
  5 18  1  0  0  0  0
  5  7  1  0  0  0  0
  6 17  1  0  0  0  0
  7 10  2  0  0  0  0
  8  6  1  0  0  0  0
  8  4  1  1  0  0  0
  8 15  1  0  0  0  0
 10 17  1  0  0  0  0
 10 14  1  0  0  0  0
 12 23  1  0  0  0  0
 12 16  1  0  0  0  0
 14 11  1  1  0  0  0
 15  4  1  1  0  0  0
 15 21  1  0  0  0  0
 16 13  1  1  0  0  0
 16  3  1  0  0  0  0
 17 22  1  0  0  0  0
 18  2  1  0  0  0  0
 19 23  1  6  0  0  0
 19  8  1  0  0  0  0
 20 14  1  0  0  0  0
 21 22  1  0  0  0  0
 21 31  1  1  0  0  0
 22  1  1  6  0  0  0
 25 24  1  6  0  0  0
 25 19  1  0  0  0  0
 26 25  1  0  0  0  0
 26 27  1  1  0  0  0
 29 28  1  0  0  0  0
 29 26  1  0  0  0  0
 30 24  1  0  0  0  0
 30 28  1  0  0  0  0
 31 34  1  6  0  0  0
 31 32  1  0  0  0  0
 33 32  1  0  0  0  0
 34 35  1  0  0  0  0
 37 36  1  0  0  0  0
 37 35  1  0  0  0  0
M  END
>  <MODEL>
6

>  <REMARK>
 VINA RESULT:      -6.4      3.120      7.334
  Name = 
  6 active torsions:
  status: ('A' for Active; 'I' for Inactive)
    1  A    between atoms: O_5  and  C_17
    2  A    between atoms: O_5  and  C_23
    3  A    between atoms: N_6  and  C_31
    4  A    between atoms: C_11  and  C_26
    5  A    between atoms: C_17  and  C_26
    6  A    between atoms: C_26  and  C_33
                            x       y       z     vdW  Elec       q    Type
                         _______ _______ _______ _____ _____    ______ ____

>  <TORSDO>
F 6

$$$$
=
 OpenBabel11052419523D

 37 42  0  0  1  0  0  0  0  0999 V2000
  192.1840  176.0420  145.7320 O   0  0  0  0  0  1  0  0  0  0  0  0
  187.8330  177.6060  141.8490 C   0  0  0  0  0  2  0  0  0  0  0  0
  190.0690  173.7890  142.8700 C   0  0  0  0  0  0  0  0  0  0  0  0
  192.9110  173.1880  145.0600 C   0  0  0  0  0  2  0  0  0  0  0  0
  187.8820  175.1670  142.4550 C   0  0  2  0  0  3  0  0  0  0  0  0
  191.3300  174.1390  143.3460 C   0  0  0  0  0  0  0  0  0  0  0  0
  189.3290  174.9710  142.8380 C   0  0  0  0  0  0  0  0  0  0  0  0
  192.4980  173.2200  143.6000 C   0  0  1  0  0  0  0  0  0  0  0  0
  187.2810  173.9700  142.0640 O   0  0  0  0  0  1  0  0  0  0  0  0
  190.1590  175.9760  143.3130 C   0  0  0  0  0  0  0  0  0  0  0  0
  190.7340  178.2080  144.0310 O   0  0  0  0  0  1  0  0  0  0  0  0
  190.5280  171.4200  142.0870 C   0  0  0  0  0  2  0  0  0  0  0  0
  189.0040  171.9120  143.8740 O   0  0  0  0  0  1  0  0  0  0  0  0
  189.7200  177.4120  143.5000 C   0  0  1  0  0  3  0  0  0  0  0  0
  193.8210  173.8570  144.0260 C   0  0  1  0  0  3  0  0  0  0  0  0
  189.5170  172.4010  142.6720 C   0  0  1  0  0  3  0  0  0  0  0  0
  191.3700  175.4570  143.6250 N   0  0  0  0  0  0  0  0  0  0  0  0
  187.7570  176.1780  141.3250 C   0  0  0  0  0  2  0  0  0  0  0  0
  192.5740  171.9070  142.7740 C   0  0  2  0  0  3  0  0  0  0  0  0
  189.2640  178.0130  142.1780 C   0  0  0  0  0  2  0  0  0  0  0  0
  193.7950  175.4030  144.0360 C   0  0  1  0  0  3  0  0  0  0  0  0
  192.4560  176.0920  144.3620 C   0  0  2  0  0  3  0  0  0  0  0  0
  191.4890  171.0730  143.0430 O   0  0  0  0  0  0  0  0  0  0  0  0
  193.6310  169.8690  143.4570 C   0  0  0  0  0  2  0  0  0  0  0  0
  193.8370  171.1430  142.7510 N   0  0  1  0  0  0  0  0  0  0  0  0
  194.3930  170.9730  141.3920 C   0  0  1  0  0  3  0  0  0  0  0  0
  195.1320  172.2330  140.9730 C   0  0  0  0  0  1  0  0  0  0  0  0
  195.8940  169.5400  142.6020 O   0  0  0  0  0  0  0  0  0  0  0  0
  195.3670  169.7930  141.3270 C   0  0  0  0  0  2  0  0  0  0  0  0
  194.8550  168.9450  143.3400 C   0  0  0  0  0  2  0  0  0  0  0  0
  195.0370  176.0080  144.7070 C   0  0  2  0  0  3  0  0  0  0  0  0
  196.1270  176.3390  143.6970 C   0  0  0  0  0  2  0  0  0  0  0  0
  195.5680  176.3150  142.2880 C   0  0  0  0  0  1  0  0  0  0  0  0
  195.5800  175.0970  145.8020 C   0  0  0  0  0  2  0  0  0  0  0  0
  196.7920  174.5320  145.4020 O   0  0  0  0  0  0  0  0  0  0  0  0
  196.8030  172.1540  145.3770 C   0  0  0  0  0  1  0  0  0  0  0  0
  196.9380  173.4090  146.2160 C   0  0  0  0  0  2  0  0  0  0  0  0
  2 20  1  0  0  0  0
  3  6  2  0  0  0  0
  5  9  1  6  0  0  0
  5  7  1  0  0  0  0
  6  8  1  0  0  0  0
  6 17  1  0  0  0  0
  7  3  1  0  0  0  0
  7 10  2  0  0  0  0
  8 15  1  0  0  0  0
  8  4  1  1  0  0  0
 10 14  1  0  0  0  0
 10 17  1  0  0  0  0
 12 16  1  0  0  0  0
 12 23  1  0  0  0  0
 14 11  1  6  0  0  0
 15 21  1  0  0  0  0
 15  4  1  1  0  0  0
 16  3  1  0  0  0  0
 16 13  1  1  0  0  0
 17 22  1  0  0  0  0
 18  2  1  0  0  0  0
 18  5  1  0  0  0  0
 19 23  1  1  0  0  0
 19  8  1  0  0  0  0
 20 14  1  0  0  0  0
 21 22  1  0  0  0  0
 21 31  1  1  0  0  0
 22  1  1  1  0  0  0
 25 19  1  0  0  0  0
 25 24  1  6  0  0  0
 26 27  1  1  0  0  0
 26 25  1  0  0  0  0
 28 30  1  0  0  0  0
 29 26  1  0  0  0  0
 29 28  1  0  0  0  0
 30 24  1  0  0  0  0
 31 32  1  6  0  0  0
 31 34  1  0  0  0  0
 33 32  1  0  0  0  0
 35 34  1  0  0  0  0
 35 37  1  0  0  0  0
 36 37  1  0  0  0  0
M  END
>  <MODEL>
7

>  <REMARK>
 VINA RESULT:      -6.4      3.223      7.177
  Name = 
  6 active torsions:
  status: ('A' for Active; 'I' for Inactive)
    1  A    between atoms: O_5  and  C_17
    2  A    between atoms: O_5  and  C_23
    3  A    between atoms: N_6  and  C_31
    4  A    between atoms: C_11  and  C_26
    5  A    between atoms: C_17  and  C_26
    6  A    between atoms: C_26  and  C_33
                            x       y       z     vdW  Elec       q    Type
                         _______ _______ _______ _____ _____    ______ ____

>  <TORSDO>
F 6

$$$$
=
 OpenBabel11052419523D

 37 42  0  0  1  0  0  0  0  0999 V2000
  189.2920  174.0530  143.8180 O   0  0  0  0  0  1  0  0  0  0  0  0
  188.9580  172.5780  137.9720 C   0  0  0  0  0  2  0  0  0  0  0  0
  191.9370  171.9140  141.3330 C   0  0  0  0  0  0  0  0  0  0  0  0
  192.0440  173.2080  144.7320 C   0  0  0  0  0  2  0  0  0  0  0  0
  190.4350  171.0860  139.3560 C   0  0  2  0  0  3  0  0  0  0  0  0
  191.8140  172.9680  142.2350 C   0  0  0  0  0  0  0  0  0  0  0  0
  190.8330  172.0050  140.4850 C   0  0  0  0  0  0  0  0  0  0  0  0
  192.7340  173.2980  143.3840 C   0  0  1  0  0  0  0  0  0  0  0  0
  191.3540  170.0520  139.1780 O   0  0  0  0  0  1  0  0  0  0  0  0
  190.0830  173.0890  140.9190 C   0  0  0  0  0  0  0  0  0  0  0  0
  188.1950  174.5920  140.9550 O   0  0  0  0  0  1  0  0  0  0  0  0
  194.3040  171.1600  141.8440 C   0  0  0  0  0  2  0  0  0  0  0  0
  192.3960  169.7570  142.2290 O   0  0  0  0  0  1  0  0  0  0  0  0
  188.7620  173.4970  140.3040 C   0  0  1  0  0  3  0  0  0  0  0  0
  192.4480  174.5750  144.1750 C   0  0  1  0  0  3  0  0  0  0  0  0
  192.9020  170.7590  141.3990 C   0  0  1  0  0  3  0  0  0  0  0  0
  190.6860  173.6610  141.9870 N   0  0  0  0  0  0  0  0  0  0  0  0
  190.2990  171.8610  138.0540 C   0  0  0  0  0  2  0  0  0  0  0  0
  194.2170  172.8480  143.2720 C   0  0  2  0  0  3  0  0  0  0  0  0
  188.9350  173.8360  138.8310 C   0  0  0  0  0  2  0  0  0  0  0  0
  191.2850  175.4170  143.6030 C   0  0  1  0  0  3  0  0  0  0  0  0
  190.1420  174.6660  142.8930 C   0  0  2  0  0  3  0  0  0  0  0  0
  194.3220  171.4580  143.2100 O   0  0  0  0  0  0  0  0  0  0  0  0
  195.6600  172.3560  145.1190 C   0  0  0  0  0  2  0  0  0  0  0  0
  195.2130  173.4150  144.2010 N   0  0  1  0  0  0  0  0  0  0  0  0
  196.3280  174.1000  143.5140 C   0  0  1  0  0  3  0  0  0  0  0  0
  195.9020  175.4980  143.0990 C   0  0  0  0  0  1  0  0  0  0  0  0
  197.1660  174.1650  145.7660 O   0  0  0  0  0  0  0  0  0  0  0  0
  197.5590  174.2160  144.4200 C   0  0  0  0  0  2  0  0  0  0  0  0
  196.8160  172.8260  146.0180 C   0  0  0  0  0  2  0  0  0  0  0  0
  190.8530  176.5460  144.5510 C   0  0  2  0  0  3  0  0  0  0  0  0
  191.0020  177.9190  143.9090 C   0  0  0  0  0  2  0  0  0  0  0  0
  189.9190  178.1390  142.8710 C   0  0  0  0  0  1  0  0  0  0  0  0
  191.6110  176.4870  145.8720 C   0  0  0  0  0  2  0  0  0  0  0  0
  190.7280  176.6310  146.9430 O   0  0  0  0  0  0  0  0  0  0  0  0
  189.3220  174.7390  147.2540 C   0  0  0  0  0  1  0  0  0  0  0  0
  190.6760  175.3650  147.5240 C   0  0  0  0  0  2  0  0  0  0  0  0
  2 18  1  0  0  0  0
  2 20  1  0  0  0  0
  3 16  1  0  0  0  0
  3  6  2  0  0  0  0
  5  9  1  6  0  0  0
  5  7  1  0  0  0  0
  6  8  1  0  0  0  0
  7 10  2  0  0  0  0
  7  3  1  0  0  0  0
  8 15  1  0  0  0  0
  8  4  1  1  0  0  0
 10 17  1  0  0  0  0
 12 23  1  0  0  0  0
 14 10  1  0  0  0  0
 14 11  1  1  0  0  0
 15  4  1  1  0  0  0
 16 12  1  0  0  0  0
 16 13  1  1  0  0  0
 17  6  1  0  0  0  0
 17 22  1  0  0  0  0
 18  5  1  0  0  0  0
 19 23  1  1  0  0  0
 19  8  1  0  0  0  0
 19 25  1  0  0  0  0
 20 14  1  0  0  0  0
 21 15  1  0  0  0  0
 21 31  1  1  0  0  0
 22 21  1  0  0  0  0
 22  1  1  1  0  0  0
 24 30  1  0  0  0  0
 25 24  1  6  0  0  0
 26 27  1  1  0  0  0
 26 25  1  0  0  0  0
 26 29  1  0  0  0  0
 28 30  1  0  0  0  0
 29 28  1  0  0  0  0
 31 32  1  6  0  0  0
 31 34  1  0  0  0  0
 33 32  1  0  0  0  0
 34 35  1  0  0  0  0
 35 37  1  0  0  0  0
 36 37  1  0  0  0  0
M  END
>  <MODEL>
8

>  <REMARK>
 VINA RESULT:      -6.4      2.961      6.735
  Name = 
  6 active torsions:
  status: ('A' for Active; 'I' for Inactive)
    1  A    between atoms: O_5  and  C_17
    2  A    between atoms: O_5  and  C_23
    3  A    between atoms: N_6  and  C_31
    4  A    between atoms: C_11  and  C_26
    5  A    between atoms: C_17  and  C_26
    6  A    between atoms: C_26  and  C_33
                            x       y       z     vdW  Elec       q    Type
                         _______ _______ _______ _____ _____    ______ ____

>  <TORSDO>
F 6

$$$$
=
 OpenBabel11052419523D

 37 42  0  0  1  0  0  0  0  0999 V2000
  191.7290  172.4130  142.2510 O   0  0  0  0  0  1  0  0  0  0  0  0
  196.6700  175.6690  143.4570 C   0  0  0  0  0  2  0  0  0  0  0  0
  192.3010  175.8060  144.6820 C   0  0  0  0  0  0  0  0  0  0  0  0
  189.4280  173.8880  143.5380 C   0  0  0  0  0  2  0  0  0  0  0  0
  194.8660  175.7990  145.2030 C   0  0  2  0  0  3  0  0  0  0  0  0
  191.5450  175.2500  143.6540 C   0  0  0  0  0  0  0  0  0  0  0  0
  193.6290  175.4910  144.3950 C   0  0  0  0  0  0  0  0  0  0  0  0
  190.0440  175.2750  143.5080 C   0  0  1  0  0  0  0  0  0  0  0  0
  194.5660  176.5210  146.3580 O   0  0  0  0  0  1  0  0  0  0  0  0
  193.6200  174.7450  143.2250 C   0  0  0  0  0  0  0  0  0  0  0  0
  194.5680  173.4090  141.4530 O   0  0  0  0  0  1  0  0  0  0  0  0
  190.5400  177.2440  145.8060 C   0  0  0  0  0  2  0  0  0  0  0  0
  191.5840  175.3900  146.9140 O   0  0  0  0  0  1  0  0  0  0  0  0
  194.8610  174.1480  142.5980 C   0  0  1  0  0  3  0  0  0  0  0  0
  189.4470  174.6830  142.2300 C   0  0  1  0  0  3  0  0  0  0  0  0
  191.7980  176.3980  145.9730 C   0  0  1  0  0  3  0  0  0  0  0  0
  192.3470  174.5990  142.7890 N   0  0  0  0  0  0  0  0  0  0  0  0
  195.8690  176.5850  144.3720 C   0  0  0  0  0  2  0  0  0  0  0  0
  189.2750  176.4480  144.1750 C   0  0  2  0  0  3  0  0  0  0  0  0
  195.8610  175.2370  142.2400 C   0  0  0  0  0  2  0  0  0  0  0  0
  190.5050  174.2240  141.2010 C   0  0  1  0  0  3  0  0  0  0  0  0
  191.8520  173.7100  141.7440 C   0  0  2  0  0  3  0  0  0  0  0  0
  189.4280  176.4320  145.5620 O   0  0  0  0  0  0  0  0  0  0  0  0
  187.0270  176.5430  144.9960 C   0  0  0  0  0  2  0  0  0  0  0  0
  187.8690  176.6940  143.8000 N   0  0  1  0  0  0  0  0  0  0  0  0
  187.6670  177.9810  143.1020 C   0  0  1  0  0  3  0  0  0  0  0  0
  188.0470  177.8430  141.6380 C   0  0  0  0  0  1  0  0  0  0  0  0
  185.3700  177.3340  143.3860 O   0  0  0  0  0  0  0  0  0  0  0  0
  186.2080  178.4410  143.1850 C   0  0  0  0  0  2  0  0  0  0  0  0
  185.5660  176.9380  144.7220 C   0  0  0  0  0  2  0  0  0  0  0  0
  189.8940  173.4070  140.0530 C   0  0  2  0  0  3  0  0  0  0  0  0
  188.4850  173.8720  139.7080 C   0  0  0  0  0  2  0  0  0  0  0  0
  188.3550  174.1070  138.2160 C   0  0  0  0  0  1  0  0  0  0  0  0
  189.9040  171.9140  140.3630 C   0  0  0  0  0  2  0  0  0  0  0  0
  190.6690  171.2300  139.4160 O   0  0  0  0  0  0  0  0  0  0  0  0
  189.9610  170.8620  137.1770 C   0  0  0  0  0  1  0  0  0  0  0  0
  189.7340  170.5460  138.6420 C   0  0  0  0  0  2  0  0  0  0  0  0
  2 18  1  0  0  0  0
  3 16  1  0  0  0  0
  5  9  1  1  0  0  0
  6  3  2  0  0  0  0
  7  3  1  0  0  0  0
  7  5  1  0  0  0  0
  8  4  1  1  0  0  0
  8  6  1  0  0  0  0
  8 19  1  0  0  0  0
 10  7  2  0  0  0  0
 12 16  1  0  0  0  0
 14 11  1  6  0  0  0
 14 10  1  0  0  0  0
 15  8  1  0  0  0  0
 15  4  1  1  0  0  0
 16 13  1  1  0  0  0
 17 10  1  0  0  0  0
 17  6  1  0  0  0  0
 18  5  1  0  0  0  0
 19 23  1  1  0  0  0
 20 14  1  0  0  0  0
 20  2  1  0  0  0  0
 21 31  1  1  0  0  0
 21 22  1  0  0  0  0
 21 15  1  0  0  0  0
 22  1  1  1  0  0  0
 22 17  1  0  0  0  0
 23 12  1  0  0  0  0
 25 19  1  0  0  0  0
 25 24  1  1  0  0  0
 26 27  1  6  0  0  0
 26 29  1  0  0  0  0
 26 25  1  0  0  0  0
 28 30  1  0  0  0  0
 29 28  1  0  0  0  0
 30 24  1  0  0  0  0
 31 32  1  1  0  0  0
 31 34  1  0  0  0  0
 33 32  1  0  0  0  0
 35 34  1  0  0  0  0
 36 37  1  0  0  0  0
 37 35  1  0  0  0  0
M  END
>  <MODEL>
9

>  <REMARK>
 VINA RESULT:      -6.4      2.141      6.482
  Name = 
  6 active torsions:
  status: ('A' for Active; 'I' for Inactive)
    1  A    between atoms: O_5  and  C_17
    2  A    between atoms: O_5  and  C_23
    3  A    between atoms: N_6  and  C_31
    4  A    between atoms: C_11  and  C_26
    5  A    between atoms: C_17  and  C_26
    6  A    between atoms: C_26  and  C_33
                            x       y       z     vdW  Elec       q    Type
                         _______ _______ _______ _____ _____    ______ ____

>  <TORSDO>
F 6

$$$$
