=
 OpenBabel11052420343D

 34 39  0  0  1  0  0  0  0  0999 V2000
  190.6250  176.8330  144.4890 C   0  0  1  0  0  3  0  0  0  0  0  0
  191.7760  173.6130  142.7840 C   0  0  0  0  0  2  0  0  0  0  0  0
  188.0970  176.2590  144.7070 C   0  0  2  0  0  3  0  0  0  0  0  0
  192.5610  174.7030  144.8100 C   0  0  0  0  0  2  0  0  0  0  0  0
  187.0240  176.6060  147.4910 C   0  0  0  0  0  2  0  0  0  0  0  0
  184.5930  178.7390  143.8680 C   0  0  0  0  0  0  0  0  0  0  0  0
  189.3720  176.9980  146.5730 C   0  0  2  0  0  3  0  0  0  0  0  0
  189.2440  177.2010  145.0840 C   0  0  1  0  0  3  0  0  0  0  0  0
  185.3040  178.0560  142.7750 C   0  0  0  0  0  0  0  0  0  0  0  0
  186.6270  177.4030  143.0400 C   0  0  0  0  0  2  0  0  0  0  0  0
  183.4940  179.3160  143.6570 O   0  0  0  0  0  0  0  0  0  0  0  0
  186.7510  176.9660  144.5000 C   0  0  2  0  0  3  0  0  0  0  0  0
  190.7470  176.4060  146.7890 C   0  0  2  0  0  3  0  0  0  0  0  0
  191.2960  176.9230  147.9630 O   0  0  0  0  0  1  0  0  0  0  0  0
  192.7640  176.0140  145.5450 C   0  0  2  0  0  3  0  0  0  0  0  0
  191.5440  176.8180  145.6450 N   0  0  1  0  0  0  0  0  0  0  0  0
  184.8290  178.0530  141.6090 O   0  0  0  0  0  0  0  0  0  0  0  0
  191.6180  173.7990  141.2810 C   0  0  0  0  0  2  0  0  0  0  0  0
  190.1580  173.9720  140.8420 C   0  0  2  0  0  3  0  0  0  0  0  0
  186.4740  178.1680  145.4370 C   0  0  2  0  0  3  0  0  0  0  0  0
  189.2820  174.8200  141.7700 C   0  0  0  0  0  2  0  0  0  0  0  0
  186.6900  178.0050  146.9540 C   0  0  0  0  0  2  0  0  0  0  0  0
  185.1430  178.7120  145.1870 N   0  0  0  0  0  2  0  0  0  0  0  0
  188.2950  175.9740  146.9020 C   0  0  2  0  0  3  0  0  0  0  0  0
  187.9630  175.2990  145.7200 O   0  0  0  0  0  0  0  0  0  0  0  0
  191.8910  174.9670  143.4870 C   0  0  2  0  0  3  0  0  0  0  0  0
  190.0510  175.9730  142.3950 C   0  0  0  0  0  2  0  0  0  0  0  0
  190.5700  175.5730  143.7050 N   0  0  2  0  0  0  0  0  0  0  0  0
  189.5150  172.6510  140.5790 C   0  0  0  0  0  0  0  0  0  0  0  0
  188.2610  172.5480  140.6290 O   0  0  0  0  0  0  0  0  0  0  0  0
  190.3060  171.5080  140.2660 N   0  0  0  0  0  1  0  0  0  0  0  0
  195.0090  176.0530  144.3230 C   0  0  0  0  0  1  0  0  0  0  0  0
  193.9610  176.8560  145.0770 C   0  0  0  0  0  3  0  0  0  0  0  0
  194.6020  177.5930  146.2370 C   0  0  0  0  0  1  0  0  0  0  0  0
  1  8  1  0  0  0  0
  1 16  1  0  0  0  0
  2 26  1  0  0  0  0
  3  8  1  0  0  0  0
  3 25  1  0  0  0  0
  4 15  1  0  0  0  0
  6 23  1  0  0  0  0
  7 13  1  0  0  0  0
  7 24  1  0  0  0  0
  8  7  1  0  0  0  0
  9 10  1  0  0  0  0
  9  6  1  0  0  0  0
 10 12  1  0  0  0  0
 11  6  2  0  0  0  0
 12  3  1  0  0  0  0
 12 20  1  0  0  0  0
 13 14  1  0  0  0  0
 15 16  1  0  0  0  0
 16 13  1  0  0  0  0
 17  9  2  0  0  0  0
 18  2  1  0  0  0  0
 19 18  1  0  0  0  0
 19 21  1  0  0  0  0
 20 22  1  0  0  0  0
 21 27  1  0  0  0  0
 22  5  1  0  0  0  0
 23 20  1  0  0  0  0
 24  5  1  0  0  0  0
 25 24  1  0  0  0  0
 26 28  1  0  0  0  0
 26  4  1  0  0  0  0
 27 28  1  0  0  0  0
 28  1  1  0  0  0  0
 29 30  2  0  0  0  0
 29 19  1  0  0  0  0
 31 29  1  0  0  0  0
 32 33  1  0  0  0  0
 33 15  1  0  0  0  0
 33 34  1  0  0  0  0
M  END
>  <MODEL>
1

>  <REMARK>
 VINA RESULT:      -8.7      0.000      0.000
  Name = 
  2 active torsions:
  status: ('A' for Active; 'I' for Inactive)
    1  A    between atoms: C_3  and  C_25
    2  A    between atoms: C_12  and  C_19
                            x       y       z     vdW  Elec       q    Type
                         _______ _______ _______ _____ _____    ______ ____

>  <TORSDO>
F 2

$$$$
=
 OpenBabel11052420343D

 34 39  0  0  1  0  0  0  0  0999 V2000
  189.0900  174.0740  143.0060 C   0  0  1  0  0  3  0  0  0  0  0  0
  192.7940  174.2900  143.9160 C   0  0  0  0  0  2  0  0  0  0  0  0
  188.3860  176.4710  143.7300 C   0  0  2  0  0  3  0  0  0  0  0  0
  191.7070  173.6970  141.8240 C   0  0  0  0  0  2  0  0  0  0  0  0
  186.9050  177.9820  141.5980 C   0  0  0  0  0  2  0  0  0  0  0  0
  184.8910  177.7800  146.0120 C   0  0  0  0  0  0  0  0  0  0  0  0
  187.8600  175.6160  141.5750 C   0  0  2  0  0  3  0  0  0  0  0  0
  188.0020  175.1750  143.0100 C   0  0  1  0  0  3  0  0  0  0  0  0
  186.0710  177.2330  146.7010 C   0  0  0  0  0  0  0  0  0  0  0  0
  187.1610  176.5780  145.9070 C   0  0  0  0  0  2  0  0  0  0  0  0
  183.9540  178.3090  146.6660 O   0  0  0  0  0  0  0  0  0  0  0  0
  187.2240  177.1330  144.4840 C   0  0  2  0  0  3  0  0  0  0  0  0
  188.9330  174.8740  140.8110 C   0  0  2  0  0  3  0  0  0  0  0  0
  188.4440  174.5130  139.5550 O   0  0  0  0  0  1  0  0  0  0  0  0
  190.4920  173.0790  141.1610 C   0  0  2  0  0  3  0  0  0  0  0  0
  189.2280  173.6820  141.5890 N   0  0  1  0  0  0  0  0  0  0  0  0
  186.1520  177.2730  147.9570 O   0  0  0  0  0  0  0  0  0  0  0  0
  192.9420  173.8780  145.3740 C   0  0  0  0  0  2  0  0  0  0  0  0
  192.2440  174.8370  146.3480 C   0  0  2  0  0  3  0  0  0  0  0  0
  185.8350  177.0180  143.8090 C   0  0  2  0  0  3  0  0  0  0  0  0
  190.8900  175.3840  145.8860 C   0  0  0  0  0  2  0  0  0  0  0  0
  185.6910  177.3760  142.3170 C   0  0  0  0  0  2  0  0  0  0  0  0
  184.8310  177.7400  144.5840 N   0  0  0  0  0  2  0  0  0  0  0  0
  188.1670  177.1060  141.6120 C   0  0  2  0  0  3  0  0  0  0  0  0
  188.8920  177.3700  142.7820 O   0  0  0  0  0  0  0  0  0  0  0  0
  191.5110  173.7110  143.3180 C   0  0  2  0  0  3  0  0  0  0  0  0
  190.0930  174.3580  145.0960 C   0  0  0  0  0  2  0  0  0  0  0  0
  190.3400  174.5310  143.6630 N   0  0  2  0  0  0  0  0  0  0  0  0
  193.1510  175.9550  146.7450 C   0  0  0  0  0  0  0  0  0  0  0  0
  192.6890  176.9330  147.3880 O   0  0  0  0  0  0  0  0  0  0  0  0
  194.5350  175.9210  146.4080 N   0  0  0  0  0  1  0  0  0  0  0  0
  191.5850  170.9070  141.9470 C   0  0  0  0  0  1  0  0  0  0  0  0
  190.4290  171.5450  141.1930 C   0  0  0  0  0  3  0  0  0  0  0  0
  190.3350  170.9680  139.7930 C   0  0  0  0  0  1  0  0  0  0  0  0
  1  8  1  0  0  0  0
  1 28  1  0  0  0  0
  2 18  1  0  0  0  0
  3 12  1  0  0  0  0
  4 26  1  0  0  0  0
  5 24  1  0  0  0  0
  5 22  1  0  0  0  0
  6 11  2  0  0  0  0
  6  9  1  0  0  0  0
  7 24  1  0  0  0  0
  7  8  1  0  0  0  0
  8  3  1  0  0  0  0
  9 17  2  0  0  0  0
 10  9  1  0  0  0  0
 12 10  1  0  0  0  0
 13  7  1  0  0  0  0
 13 16  1  0  0  0  0
 14 13  1  0  0  0  0
 15 33  1  0  0  0  0
 15 16  1  0  0  0  0
 15  4  1  0  0  0  0
 16  1  1  0  0  0  0
 18 19  1  0  0  0  0
 19 29  1  0  0  0  0
 20 12  1  0  0  0  0
 20 23  1  0  0  0  0
 21 19  1  0  0  0  0
 22 20  1  0  0  0  0
 23  6  1  0  0  0  0
 24 25  1  0  0  0  0
 25  3  1  0  0  0  0
 26 28  1  0  0  0  0
 26  2  1  0  0  0  0
 27 21  1  0  0  0  0
 28 27  1  0  0  0  0
 29 30  2  0  0  0  0
 31 29  1  0  0  0  0
 33 32  1  0  0  0  0
 34 33  1  0  0  0  0
M  END
>  <MODEL>
2

>  <REMARK>
 VINA RESULT:      -8.7      1.954      5.317
  Name = 
  2 active torsions:
  status: ('A' for Active; 'I' for Inactive)
    1  A    between atoms: C_3  and  C_25
    2  A    between atoms: C_12  and  C_19
                            x       y       z     vdW  Elec       q    Type
                         _______ _______ _______ _____ _____    ______ ____

>  <TORSDO>
F 2

$$$$
=
 OpenBabel11052420343D

 34 39  0  0  1  0  0  0  0  0999 V2000
  191.1730  176.2310  144.2430 C   0  0  1  0  0  3  0  0  0  0  0  0
  192.3590  172.6290  143.7840 C   0  0  0  0  0  2  0  0  0  0  0  0
  188.6420  175.8560  143.7720 C   0  0  2  0  0  3  0  0  0  0  0  0
  192.6420  174.1670  145.6450 C   0  0  0  0  0  2  0  0  0  0  0  0
  186.8470  176.9620  145.9100 C   0  0  0  0  0  2  0  0  0  0  0  0
  185.8870  178.2000  141.3140 C   0  0  0  0  0  0  0  0  0  0  0  0
  189.3910  176.9900  145.7230 C   0  0  2  0  0  3  0  0  0  0  0  0
  189.7360  176.8070  144.2660 C   0  0  1  0  0  3  0  0  0  0  0  0
  186.7970  177.2250  140.6930 C   0  0  0  0  0  0  0  0  0  0  0  0
  187.8880  176.5990  141.5070 C   0  0  0  0  0  2  0  0  0  0  0  0
  184.9810  178.7550  140.6380 O   0  0  0  0  0  0  0  0  0  0  0  0
  187.5190  176.5490  142.9900 C   0  0  2  0  0  3  0  0  0  0  0  0
  190.5540  176.4090  146.4950 C   0  0  2  0  0  3  0  0  0  0  0  0
  190.7920  177.1840  147.6300 O   0  0  0  0  0  1  0  0  0  0  0  0
  192.7830  175.6110  146.0830 C   0  0  2  0  0  3  0  0  0  0  0  0
  191.7000  176.4720  145.6020 N   0  0  1  0  0  0  0  0  0  0  0  0
  186.6910  176.9430  139.4700 O   0  0  0  0  0  0  0  0  0  0  0  0
  192.6780  172.4270  142.3090 C   0  0  0  0  0  2  0  0  0  0  0  0
  191.4480  172.5510  141.4010 C   0  0  2  0  0  3  0  0  0  0  0  0
  187.1310  177.9650  143.4870 C   0  0  2  0  0  3  0  0  0  0  0  0
  190.4510  173.6510  141.7800 C   0  0  0  0  0  2  0  0  0  0  0  0
  186.8660  178.1890  144.9880 C   0  0  0  0  0  2  0  0  0  0  0  0
  186.0140  178.4890  142.7090 N   0  0  0  0  0  2  0  0  0  0  0  0
  188.1450  176.1390  145.9190 C   0  0  2  0  0  3  0  0  0  0  0  0
  188.0940  175.1990  144.8820 O   0  0  0  0  0  0  0  0  0  0  0  0
  192.4320  174.1110  144.1540 C   0  0  2  0  0  3  0  0  0  0  0  0
  191.1400  174.8880  142.3330 C   0  0  0  0  0  2  0  0  0  0  0  0
  191.1930  174.8160  143.7950 N   0  0  2  0  0  0  0  0  0  0  0  0
  190.7490  171.2390  141.2590 C   0  0  0  0  0  0  0  0  0  0  0  0
  190.0670  170.7910  142.2170 O   0  0  0  0  0  0  0  0  0  0  0  0
  190.8420  170.4950  140.0470 N   0  0  0  0  0  1  0  0  0  0  0  0
  195.3170  175.2790  146.0450 C   0  0  0  0  0  1  0  0  0  0  0  0
  194.1610  176.2450  145.8390 C   0  0  0  0  0  3  0  0  0  0  0  0
  194.3560  177.4840  146.6930 C   0  0  0  0  0  1  0  0  0  0  0  0
  1  8  1  0  0  0  0
  1 16  1  0  0  0  0
  2 26  1  0  0  0  0
  3  8  1  0  0  0  0
  3 25  1  0  0  0  0
  4 15  1  0  0  0  0
  5 24  1  0  0  0  0
  6 23  1  0  0  0  0
  7 24  1  0  0  0  0
  7 13  1  0  0  0  0
  8  7  1  0  0  0  0
  9  6  1  0  0  0  0
  9 10  1  0  0  0  0
 10 12  1  0  0  0  0
 11  6  2  0  0  0  0
 12 20  1  0  0  0  0
 12  3  1  0  0  0  0
 13 14  1  0  0  0  0
 16 15  1  0  0  0  0
 16 13  1  0  0  0  0
 17  9  2  0  0  0  0
 18  2  1  0  0  0  0
 19 21  1  0  0  0  0
 19 18  1  0  0  0  0
 20 22  1  0  0  0  0
 21 27  1  0  0  0  0
 22  5  1  0  0  0  0
 23 20  1  0  0  0  0
 25 24  1  0  0  0  0
 26  4  1  0  0  0  0
 27 28  1  0  0  0  0
 28 26  1  0  0  0  0
 28  1  1  0  0  0  0
 29 19  1  0  0  0  0
 29 30  2  0  0  0  0
 31 29  1  0  0  0  0
 33 32  1  0  0  0  0
 33 15  1  0  0  0  0
 33 34  1  0  0  0  0
M  END
>  <MODEL>
3

>  <REMARK>
 VINA RESULT:      -8.7      1.478      1.773
  Name = 
  2 active torsions:
  status: ('A' for Active; 'I' for Inactive)
    1  A    between atoms: C_3  and  C_25
    2  A    between atoms: C_12  and  C_19
                            x       y       z     vdW  Elec       q    Type
                         _______ _______ _______ _____ _____    ______ ____

>  <TORSDO>
F 2

$$$$
=
 OpenBabel11052420343D

 34 39  0  0  1  0  0  0  0  0999 V2000
  192.5050  174.2790  145.8410 C   0  0  1  0  0  3  0  0  0  0  0  0
  189.9490  174.8330  143.0570 C   0  0  0  0  0  2  0  0  0  0  0  0
  194.3500  173.1080  144.4290 C   0  0  2  0  0  3  0  0  0  0  0  0
  190.9610  176.4000  144.6160 C   0  0  0  0  0  2  0  0  0  0  0  0
  197.0660  174.3540  144.7330 C   0  0  0  0  0  2  0  0  0  0  0  0
  196.7230  169.5490  145.3450 C   0  0  0  0  0  0  0  0  0  0  0  0
  194.8420  174.9730  145.8200 C   0  0  2  0  0  3  0  0  0  0  0  0
  193.9590  173.7510  145.7630 C   0  0  1  0  0  3  0  0  0  0  0  0
  195.3520  169.4190  144.8250 C   0  0  0  0  0  0  0  0  0  0  0  0
  194.4720  170.6290  144.7340 C   0  0  0  0  0  2  0  0  0  0  0  0
  197.4660  168.5390  145.4530 O   0  0  0  0  0  0  0  0  0  0  0  0
  195.2950  171.9070  144.5700 C   0  0  2  0  0  3  0  0  0  0  0  0
  193.9030  176.1580  145.7970 C   0  0  2  0  0  3  0  0  0  0  0  0
  194.4010  177.1610  146.6280 O   0  0  0  0  0  1  0  0  0  0  0  0
  191.5510  176.6080  145.9970 C   0  0  2  0  0  3  0  0  0  0  0  0
  192.6330  175.6730  146.3120 N   0  0  1  0  0  0  0  0  0  0  0  0
  194.8980  168.2920  144.4960 O   0  0  0  0  0  0  0  0  0  0  0  0
  189.0750  173.5890  142.9710 C   0  0  0  0  0  2  0  0  0  0  0  0
  189.8480  172.3330  142.5470 C   0  0  2  0  0  3  0  0  0  0  0  0
  196.3450  172.0090  145.7040 C   0  0  2  0  0  3  0  0  0  0  0  0
  191.2540  172.1880  143.1370 C   0  0  0  0  0  2  0  0  0  0  0  0
  197.1910  173.2900  145.8330 C   0  0  0  0  0  2  0  0  0  0  0  0
  197.2220  170.8420  145.6930 N   0  0  0  0  0  2  0  0  0  0  0  0
  195.6470  174.9090  144.5300 C   0  0  2  0  0  3  0  0  0  0  0  0
  194.9600  174.0840  143.6300 O   0  0  0  0  0  0  0  0  0  0  0  0
  190.5870  174.9510  144.4420 C   0  0  2  0  0  3  0  0  0  0  0  0
  191.3380  172.7120  144.5620 C   0  0  0  0  0  2  0  0  0  0  0  0
  191.7860  174.1060  144.5540 N   0  0  2  0  0  0  0  0  0  0  0  0
  189.8900  172.2040  141.0600 C   0  0  0  0  0  0  0  0  0  0  0  0
  190.8900  171.6760  140.5090 O   0  0  0  0  0  0  0  0  0  0  0  0
  188.8040  172.6660  140.2610 N   0  0  0  0  0  1  0  0  0  0  0  0
  189.3150  177.5490  146.8020 C   0  0  0  0  0  1  0  0  0  0  0  0
  190.5330  176.7050  147.1430 C   0  0  0  0  0  3  0  0  0  0  0  0
  191.1840  177.2170  148.4150 C   0  0  0  0  0  1  0  0  0  0  0  0
  1 16  1  0  0  0  0
  2 26  1  0  0  0  0
  3 12  1  0  0  0  0
  3  8  1  0  0  0  0
  4 15  1  0  0  0  0
  5 22  1  0  0  0  0
  6 11  2  0  0  0  0
  6 23  1  0  0  0  0
  8  7  1  0  0  0  0
  8  1  1  0  0  0  0
  9  6  1  0  0  0  0
 10  9  1  0  0  0  0
 12 10  1  0  0  0  0
 12 20  1  0  0  0  0
 13  7  1  0  0  0  0
 13 16  1  0  0  0  0
 13 14  1  0  0  0  0
 15 16  1  0  0  0  0
 15 33  1  0  0  0  0
 17  9  2  0  0  0  0
 18  2  1  0  0  0  0
 19 18  1  0  0  0  0
 19 21  1  0  0  0  0
 20 22  1  0  0  0  0
 21 27  1  0  0  0  0
 23 20  1  0  0  0  0
 24  5  1  0  0  0  0
 24  7  1  0  0  0  0
 25  3  1  0  0  0  0
 25 24  1  0  0  0  0
 26 28  1  0  0  0  0
 26  4  1  0  0  0  0
 28 27  1  0  0  0  0
 28  1  1  0  0  0  0
 29 19  1  0  0  0  0
 30 29  2  0  0  0  0
 31 29  1  0  0  0  0
 32 33  1  0  0  0  0
 33 34  1  0  0  0  0
M  END
>  <MODEL>
4

>  <REMARK>
 VINA RESULT:      -7.8      3.939      7.958
  Name = 
  2 active torsions:
  status: ('A' for Active; 'I' for Inactive)
    1  A    between atoms: C_3  and  C_25
    2  A    between atoms: C_12  and  C_19
                            x       y       z     vdW  Elec       q    Type
                         _______ _______ _______ _____ _____    ______ ____

>  <TORSDO>
F 2

$$$$
=
 OpenBabel11052420343D

 34 39  0  0  1  0  0  0  0  0999 V2000
  192.8450  175.7230  143.4870 C   0  0  1  0  0  3  0  0  0  0  0  0
  193.6480  172.2970  141.9990 C   0  0  0  0  0  2  0  0  0  0  0  0
  190.6160  175.1020  144.6770 C   0  0  2  0  0  3  0  0  0  0  0  0
  194.9730  173.7590  143.4200 C   0  0  0  0  0  2  0  0  0  0  0  0
  190.5400  175.8990  147.5720 C   0  0  0  0  0  2  0  0  0  0  0  0
  186.8130  177.2590  144.7720 C   0  0  0  0  0  0  0  0  0  0  0  0
  192.3770  176.2100  145.8290 C   0  0  2  0  0  3  0  0  0  0  0  0
  191.7250  176.1390  144.4710 C   0  0  1  0  0  3  0  0  0  0  0  0
  187.1670  176.4200  143.6160 C   0  0  0  0  0  0  0  0  0  0  0  0
  188.5570  175.8750  143.4880 C   0  0  0  0  0  2  0  0  0  0  0  0
  185.6570  177.7470  144.8800 O   0  0  0  0  0  0  0  0  0  0  0  0
  189.2190  175.7100  144.8570 C   0  0  2  0  0  3  0  0  0  0  0  0
  193.7930  175.7180  145.6290 C   0  0  2  0  0  3  0  0  0  0  0  0
  194.6590  176.4560  146.4360 O   0  0  0  0  0  1  0  0  0  0  0  0
  195.2870  175.1870  143.8230 C   0  0  2  0  0  3  0  0  0  0  0  0
  194.1030  175.9490  144.2280 N   0  0  1  0  0  0  0  0  0  0  0  0
  186.3220  176.1910  142.7100 O   0  0  0  0  0  0  0  0  0  0  0  0
  192.9650  172.2060  140.6420 C   0  0  0  0  0  2  0  0  0  0  0  0
  191.4340  172.2430  140.7310 C   0  0  2  0  0  3  0  0  0  0  0  0
  189.1650  177.0480  145.6350 C   0  0  2  0  0  3  0  0  0  0  0  0
  190.8520  173.2090  141.7680 C   0  0  0  0  0  2  0  0  0  0  0  0
  189.9050  177.1660  146.9810 C   0  0  0  0  0  2  0  0  0  0  0  0
  187.7830  177.4880  145.7960 N   0  0  0  0  0  2  0  0  0  0  0  0
  191.5850  175.2210  146.6730 C   0  0  2  0  0  3  0  0  0  0  0  0
  190.9340  174.3340  145.8050 O   0  0  0  0  0  0  0  0  0  0  0  0
  193.8650  173.7580  142.3980 C   0  0  2  0  0  3  0  0  0  0  0  0
  191.6720  174.4830  141.8930 C   0  0  0  0  0  2  0  0  0  0  0  0
  192.6470  174.3430  142.9770 N   0  0  2  0  0  0  0  0  0  0  0  0
  190.8720  170.8730  140.9200 C   0  0  0  0  0  0  0  0  0  0  0  0
  190.4420  170.5280  142.0510 O   0  0  0  0  0  0  0  0  0  0  0  0
  190.8130  169.9560  139.8310 N   0  0  0  0  0  1  0  0  0  0  0  0
  197.2090  175.1240  142.1400 C   0  0  0  0  0  1  0  0  0  0  0  0
  196.1600  175.9760  142.8360 C   0  0  0  0  0  3  0  0  0  0  0  0
  196.8160  177.1650  143.5130 C   0  0  0  0  0  1  0  0  0  0  0  0
  1 16  1  0  0  0  0
  1  8  1  0  0  0  0
  2 26  1  0  0  0  0
  3 12  1  0  0  0  0
  3 25  1  0  0  0  0
  4 15  1  0  0  0  0
  6 11  2  0  0  0  0
  6 23  1  0  0  0  0
  7 24  1  0  0  0  0
  8  3  1  0  0  0  0
  8  7  1  0  0  0  0
  9  6  1  0  0  0  0
 10  9  1  0  0  0  0
 10 12  1  0  0  0  0
 12 20  1  0  0  0  0
 13  7  1  0  0  0  0
 13 14  1  0  0  0  0
 15 16  1  0  0  0  0
 16 13  1  0  0  0  0
 17  9  2  0  0  0  0
 18 19  1  0  0  0  0
 18  2  1  0  0  0  0
 19 29  1  0  0  0  0
 19 21  1  0  0  0  0
 20 23  1  0  0  0  0
 20 22  1  0  0  0  0
 21 27  1  0  0  0  0
 22  5  1  0  0  0  0
 24  5  1  0  0  0  0
 25 24  1  0  0  0  0
 26 28  1  0  0  0  0
 26  4  1  0  0  0  0
 27 28  1  0  0  0  0
 28  1  1  0  0  0  0
 29 30  2  0  0  0  0
 31 29  1  0  0  0  0
 32 33  1  0  0  0  0
 33 34  1  0  0  0  0
 33 15  1  0  0  0  0
M  END
>  <MODEL>
5

>  <REMARK>
 VINA RESULT:      -7.8      2.066      2.886
  Name = 
  2 active torsions:
  status: ('A' for Active; 'I' for Inactive)
    1  A    between atoms: C_3  and  C_25
    2  A    between atoms: C_12  and  C_19
                            x       y       z     vdW  Elec       q    Type
                         _______ _______ _______ _____ _____    ______ ____

>  <TORSDO>
F 2

$$$$
=
 OpenBabel11052420343D

 34 39  0  0  1  0  0  0  0  0999 V2000
  188.8690  176.6520  142.5440 C   0  0  1  0  0  3  0  0  0  0  0  0
  185.7930  177.4590  144.6610 C   0  0  0  0  0  2  0  0  0  0  0  0
  190.1690  175.2360  144.2980 C   0  0  2  0  0  3  0  0  0  0  0  0
  185.9820  176.4420  142.4610 C   0  0  0  0  0  2  0  0  0  0  0  0
  191.0600  172.5630  143.2590 C   0  0  0  0  0  2  0  0  0  0  0  0
  194.4000  175.3630  145.3980 C   0  0  0  0  0  0  0  0  0  0  0  0
  189.7740  174.4340  142.0940 C   0  0  2  0  0  3  0  0  0  0  0  0
  190.0600  175.7100  142.8450 C   0  0  1  0  0  3  0  0  0  0  0  0
  193.4540  176.3440  145.9540 C   0  0  0  0  0  0  0  0  0  0  0  0
  192.0660  176.4370  145.3990 C   0  0  0  0  0  2  0  0  0  0  0  0
  195.5790  175.2890  145.8350 O   0  0  0  0  0  0  0  0  0  0  0  0
  191.6120  175.1030  144.8040 C   0  0  2  0  0  3  0  0  0  0  0  0
  188.3960  174.6110  141.4980 C   0  0  2  0  0  3  0  0  0  0  0  0
  188.3570  174.0200  140.2340 O   0  0  0  0  0  1  0  0  0  0  0  0
  186.7740  176.3540  141.1720 C   0  0  2  0  0  3  0  0  0  0  0  0
  188.1910  176.0450  141.3810 N   0  0  1  0  0  0  0  0  0  0  0  0
  193.8170  177.1340  146.8650 O   0  0  0  0  0  0  0  0  0  0  0  0
  186.0870  178.7290  145.4470 C   0  0  0  0  0  2  0  0  0  0  0  0
  187.2260  178.5630  146.4620 C   0  0  2  0  0  3  0  0  0  0  0  0
  192.6460  174.6100  143.7620 C   0  0  2  0  0  3  0  0  0  0  0  0
  188.4110  177.7110  145.9970 C   0  0  0  0  0  2  0  0  0  0  0  0
  192.3270  173.3600  142.9200 C   0  0  0  0  0  2  0  0  0  0  0  0
  193.9600  174.4630  144.3790 N   0  0  0  0  0  2  0  0  0  0  0  0
  189.7510  173.3640  143.1770 C   0  0  2  0  0  3  0  0  0  0  0  0
  189.5260  173.9960  144.4070 O   0  0  0  0  0  0  0  0  0  0  0  0
  186.6770  177.3770  143.4160 C   0  0  2  0  0  3  0  0  0  0  0  0
  188.7060  177.8930  144.5160 C   0  0  0  0  0  2  0  0  0  0  0  0
  188.0150  176.8600  143.7400 N   0  0  2  0  0  0  0  0  0  0  0  0
  186.7100  178.0690  147.7730 C   0  0  0  0  0  0  0  0  0  0  0  0
  186.6810  178.8450  148.7630 O   0  0  0  0  0  0  0  0  0  0  0  0
  186.2460  176.7280  147.9120 N   0  0  0  0  0  1  0  0  0  0  0  0
  185.2900  178.2910  140.4130 C   0  0  0  0  0  1  0  0  0  0  0  0
  186.5880  177.5280  140.1990 C   0  0  0  0  0  3  0  0  0  0  0  0
  186.6930  177.0690  138.7560 C   0  0  0  0  0  1  0  0  0  0  0  0
  1  8  1  0  0  0  0
  1 28  1  0  0  0  0
  2 18  1  0  0  0  0
  3 25  1  0  0  0  0
  3 12  1  0  0  0  0
  4 26  1  0  0  0  0
  6 11  2  0  0  0  0
  6  9  1  0  0  0  0
  7  8  1  0  0  0  0
  7 24  1  0  0  0  0
  8  3  1  0  0  0  0
  9 17  2  0  0  0  0
 10  9  1  0  0  0  0
 12 10  1  0  0  0  0
 13  7  1  0  0  0  0
 14 13  1  0  0  0  0
 15 16  1  0  0  0  0
 15  4  1  0  0  0  0
 16 13  1  0  0  0  0
 16  1  1  0  0  0  0
 18 19  1  0  0  0  0
 19 29  1  0  0  0  0
 20 23  1  0  0  0  0
 20 12  1  0  0  0  0
 21 19  1  0  0  0  0
 22  5  1  0  0  0  0
 22 20  1  0  0  0  0
 23  6  1  0  0  0  0
 24  5  1  0  0  0  0
 24 25  1  0  0  0  0
 26 28  1  0  0  0  0
 26  2  1  0  0  0  0
 27 21  1  0  0  0  0
 28 27  1  0  0  0  0
 29 31  1  0  0  0  0
 29 30  2  0  0  0  0
 33 32  1  0  0  0  0
 33 15  1  0  0  0  0
 34 33  1  0  0  0  0
M  END
>  <MODEL>
6

>  <REMARK>
 VINA RESULT:      -7.6      2.371      7.675
  Name = 
  2 active torsions:
  status: ('A' for Active; 'I' for Inactive)
    1  A    between atoms: C_3  and  C_25
    2  A    between atoms: C_12  and  C_19
                            x       y       z     vdW  Elec       q    Type
                         _______ _______ _______ _____ _____    ______ ____

>  <TORSDO>
F 2

$$$$
=
 OpenBabel11052420343D

 34 39  0  0  1  0  0  0  0  0999 V2000
  189.7250  174.7920  143.6570 C   0  0  1  0  0  3  0  0  0  0  0  0
  188.4960  174.5400  140.0490 C   0  0  0  0  0  2  0  0  0  0  0  0
  192.2500  174.3370  143.2260 C   0  0  2  0  0  3  0  0  0  0  0  0
  188.2370  176.3120  141.6920 C   0  0  0  0  0  2  0  0  0  0  0  0
  194.0650  176.4050  144.4300 C   0  0  0  0  0  2  0  0  0  0  0  0
  195.0250  171.7440  145.3950 C   0  0  0  0  0  0  0  0  0  0  0  0
  191.5210  176.2220  144.4770 C   0  0  2  0  0  3  0  0  0  0  0  0
  191.1690  174.7790  144.2160 C   0  0  1  0  0  3  0  0  0  0  0  0
  194.1020  171.1810  144.3970 C   0  0  0  0  0  0  0  0  0  0  0  0
  193.0060  172.0320  143.8310 C   0  0  0  0  0  2  0  0  0  0  0  0
  195.9350  171.0350  145.9000 O   0  0  0  0  0  0  0  0  0  0  0  0
  193.3790  173.5150  143.8610 C   0  0  2  0  0  3  0  0  0  0  0  0
  190.3530  177.0290  143.9540 C   0  0  2  0  0  3  0  0  0  0  0  0
  190.1280  178.1190  144.7950 O   0  0  0  0  0  1  0  0  0  0  0  0
  188.1140  176.6680  143.1610 C   0  0  2  0  0  3  0  0  0  0  0  0
  189.2060  176.1370  143.9800 N   0  0  1  0  0  0  0  0  0  0  0  0
  194.2010  169.9750  144.0450 O   0  0  0  0  0  0  0  0  0  0  0  0
  188.1700  173.0800  139.7670 C   0  0  0  0  0  2  0  0  0  0  0  0
  189.4000  172.1630  139.8260 C   0  0  2  0  0  3  0  0  0  0  0  0
  193.7850  173.9290  145.2970 C   0  0  2  0  0  3  0  0  0  0  0  0
  190.4100  172.4770  140.9330 C   0  0  0  0  0  2  0  0  0  0  0  0
  194.0570  175.4140  145.6030 C   0  0  0  0  0  2  0  0  0  0  0  0
  194.9060  173.1200  145.7630 N   0  0  0  0  0  2  0  0  0  0  0  0
  192.7580  176.4630  143.6240 C   0  0  2  0  0  3  0  0  0  0  0  0
  192.7940  175.4810  142.6260 O   0  0  0  0  0  0  0  0  0  0  0  0
  188.4410  174.8270  141.5500 C   0  0  2  0  0  3  0  0  0  0  0  0
  189.7370  172.9610  142.2080 C   0  0  0  0  0  2  0  0  0  0  0  0
  189.6880  174.4250  142.2190 N   0  0  2  0  0  0  0  0  0  0  0  0
  190.0830  172.0940  138.5000 C   0  0  0  0  0  0  0  0  0  0  0  0
  191.3230  171.8850  138.4490 O   0  0  0  0  0  0  0  0  0  0  0  0
  189.3430  172.2560  137.2920 N   0  0  0  0  0  1  0  0  0  0  0  0
  185.5900  177.0520  143.0570 C   0  0  0  0  0  1  0  0  0  0  0  0
  186.7430  176.3920  143.7960 C   0  0  0  0  0  3  0  0  0  0  0  0
  186.7240  176.7930  145.2590 C   0  0  0  0  0  1  0  0  0  0  0  0
  1 16  1  0  0  0  0
  1  8  1  0  0  0  0
  2 26  1  0  0  0  0
  3 12  1  0  0  0  0
  3  8  1  0  0  0  0
  4 15  1  0  0  0  0
  5 22  1  0  0  0  0
  6 23  1  0  0  0  0
  6 11  2  0  0  0  0
  8  7  1  0  0  0  0
  9  6  1  0  0  0  0
 10 12  1  0  0  0  0
 10  9  1  0  0  0  0
 12 20  1  0  0  0  0
 13 16  1  0  0  0  0
 13  7  1  0  0  0  0
 13 14  1  0  0  0  0
 15 33  1  0  0  0  0
 15 16  1  0  0  0  0
 17  9  2  0  0  0  0
 18 19  1  0  0  0  0
 18  2  1  0  0  0  0
 19 21  1  0  0  0  0
 20 22  1  0  0  0  0
 20 23  1  0  0  0  0
 21 27  1  0  0  0  0
 24  5  1  0  0  0  0
 24  7  1  0  0  0  0
 25  3  1  0  0  0  0
 25 24  1  0  0  0  0
 26  4  1  0  0  0  0
 26 28  1  0  0  0  0
 27 28  1  0  0  0  0
 28  1  1  0  0  0  0
 29 19  1  0  0  0  0
 30 29  2  0  0  0  0
 31 29  1  0  0  0  0
 32 33  1  0  0  0  0
 33 34  1  0  0  0  0
M  END
>  <MODEL>
7

>  <REMARK>
 VINA RESULT:      -7.4      2.934      6.939
  Name = 
  2 active torsions:
  status: ('A' for Active; 'I' for Inactive)
    1  A    between atoms: C_3  and  C_25
    2  A    between atoms: C_12  and  C_19
                            x       y       z     vdW  Elec       q    Type
                         _______ _______ _______ _____ _____    ______ ____

>  <TORSDO>
F 2

$$$$
=
 OpenBabel11052420343D

 34 39  0  0  1  0  0  0  0  0999 V2000
  187.7920  176.3900  145.4460 C   0  0  1  0  0  3  0  0  0  0  0  0
  185.6360  178.8940  143.5300 C   0  0  0  0  0  2  0  0  0  0  0  0
  189.6180  176.0020  143.6330 C   0  0  2  0  0  3  0  0  0  0  0  0
  186.6620  179.0410  145.7280 C   0  0  0  0  0  2  0  0  0  0  0  0
  192.4190  176.3620  144.6550 C   0  0  0  0  0  2  0  0  0  0  0  0
  191.4200  172.2650  142.2470 C   0  0  0  0  0  0  0  0  0  0  0  0
  190.1860  176.5690  145.8720 C   0  0  2  0  0  3  0  0  0  0  0  0
  189.1690  175.7830  145.0810 C   0  0  1  0  0  3  0  0  0  0  0  0
  190.1070  172.6950  141.7400 C   0  0  0  0  0  0  0  0  0  0  0  0
  189.3980  173.8460  142.3860 C   0  0  0  0  0  2  0  0  0  0  0  0
  192.0160  171.2830  141.7330 O   0  0  0  0  0  0  0  0  0  0  0  0
  190.3870  174.8170  143.0330 C   0  0  2  0  0  3  0  0  0  0  0  0
  189.4080  177.6700  146.5570 C   0  0  2  0  0  3  0  0  0  0  0  0
  189.9360  177.8870  147.8300 O   0  0  0  0  0  1  0  0  0  0  0  0
  187.1230  178.2900  146.9630 C   0  0  2  0  0  3  0  0  0  0  0  0
  188.0410  177.1890  146.6630 N   0  0  1  0  0  0  0  0  0  0  0  0
  189.5540  172.0750  140.7920 O   0  0  0  0  0  0  0  0  0  0  0  0
  184.6290  178.1070  142.7030 C   0  0  0  0  0  2  0  0  0  0  0  0
  185.2810  177.2410  141.6170 C   0  0  2  0  0  3  0  0  0  0  0  0
  191.3140  174.0540  144.0110 C   0  0  2  0  0  3  0  0  0  0  0  0
  186.5870  176.5480  142.0150 C   0  0  0  0  0  2  0  0  0  0  0  0
  192.2940  174.8500  144.8940 C   0  0  0  0  0  2  0  0  0  0  0  0
  192.0350  172.9980  143.3090 N   0  0  0  0  0  2  0  0  0  0  0  0
  191.1100  177.1510  144.8120 C   0  0  2  0  0  3  0  0  0  0  0  0
  190.4260  177.1460  143.5900 O   0  0  0  0  0  0  0  0  0  0  0  0
  186.1330  178.0620  144.7130 C   0  0  2  0  0  3  0  0  0  0  0  0
  186.5830  176.1020  143.4690 C   0  0  0  0  0  2  0  0  0  0  0  0
  187.1990  177.1340  144.3070 N   0  0  2  0  0  0  0  0  0  0  0  0
  185.4640  178.0140  140.3520 C   0  0  0  0  0  0  0  0  0  0  0  0
  184.6790  178.9580  140.0800 O   0  0  0  0  0  0  0  0  0  0  0  0
  186.5250  177.6950  139.4550 N   0  0  0  0  0  1  0  0  0  0  0  0
  185.8980  176.3450  148.0790 C   0  0  0  0  0  1  0  0  0  0  0  0
  186.0080  177.8540  147.9260 C   0  0  0  0  0  3  0  0  0  0  0  0
  184.6690  178.4380  147.5180 C   0  0  0  0  0  1  0  0  0  0  0  0
  1 16  1  0  0  0  0
  2 26  1  0  0  0  0
  3  8  1  0  0  0  0
  4 15  1  0  0  0  0
  5 24  1  0  0  0  0
  5 22  1  0  0  0  0
  6 23  1  0  0  0  0
  7 13  1  0  0  0  0
  8  1  1  0  0  0  0
  8  7  1  0  0  0  0
  9  6  1  0  0  0  0
  9 10  1  0  0  0  0
 10 12  1  0  0  0  0
 11  6  2  0  0  0  0
 12  3  1  0  0  0  0
 12 20  1  0  0  0  0
 13 16  1  0  0  0  0
 13 14  1  0  0  0  0
 15 33  1  0  0  0  0
 16 15  1  0  0  0  0
 17  9  2  0  0  0  0
 18  2  1  0  0  0  0
 19 21  1  0  0  0  0
 19 18  1  0  0  0  0
 20 22  1  0  0  0  0
 21 27  1  0  0  0  0
 23 20  1  0  0  0  0
 24  7  1  0  0  0  0
 25  3  1  0  0  0  0
 25 24  1  0  0  0  0
 26  4  1  0  0  0  0
 27 28  1  0  0  0  0
 28 26  1  0  0  0  0
 28  1  1  0  0  0  0
 29 19  1  0  0  0  0
 30 29  2  0  0  0  0
 31 29  1  0  0  0  0
 33 32  1  0  0  0  0
 34 33  1  0  0  0  0
M  END
>  <MODEL>
8

>  <REMARK>
 VINA RESULT:      -7.3      2.046      6.476
  Name = 
  2 active torsions:
  status: ('A' for Active; 'I' for Inactive)
    1  A    between atoms: C_3  and  C_25
    2  A    between atoms: C_12  and  C_19
                            x       y       z     vdW  Elec       q    Type
                         _______ _______ _______ _____ _____    ______ ____

>  <TORSDO>
F 2

$$$$
=
 OpenBabel11052420343D

 34 39  0  0  1  0  0  0  0  0999 V2000
  190.0580  173.9600  142.9540 C   0  0  1  0  0  3  0  0  0  0  0  0
  193.8210  174.5570  142.6760 C   0  0  0  0  0  2  0  0  0  0  0  0
  189.3280  176.4020  143.4780 C   0  0  2  0  0  3  0  0  0  0  0  0
  192.2580  173.5360  141.1190 C   0  0  0  0  0  2  0  0  0  0  0  0
  187.1490  177.4160  141.6780 C   0  0  0  0  0  2  0  0  0  0  0  0
  186.5010  177.8850  146.4680 C   0  0  0  0  0  0  0  0  0  0  0  0
  188.3110  175.1450  141.7350 C   0  0  2  0  0  3  0  0  0  0  0  0
  188.9010  174.9770  143.1120 C   0  0  1  0  0  3  0  0  0  0  0  0
  187.8800  177.5420  146.8500 C   0  0  0  0  0  0  0  0  0  0  0  0
  188.7650  176.8230  145.8780 C   0  0  0  0  0  2  0  0  0  0  0  0
  185.7350  178.4650  147.2810 O   0  0  0  0  0  0  0  0  0  0  0  0
  188.3620  177.1170  144.4320 C   0  0  2  0  0  3  0  0  0  0  0  0
  189.1990  174.3440  140.8090 C   0  0  2  0  0  3  0  0  0  0  0  0
  188.4170  173.7370  139.8260 O   0  0  0  0  0  1  0  0  0  0  0  0
  190.9800  172.7380  140.9500 C   0  0  2  0  0  3  0  0  0  0  0  0
  189.8300  173.3300  141.6370 N   0  0  1  0  0  0  0  0  0  0  0  0
  188.3080  177.8110  148.0030 O   0  0  0  0  0  0  0  0  0  0  0  0
  194.4190  174.4220  144.0690 C   0  0  0  0  0  2  0  0  0  0  0  0
  193.9250  175.4960  145.0480 C   0  0  2  0  0  3  0  0  0  0  0  0
  186.8600  176.8000  144.2270 C   0  0  2  0  0  3  0  0  0  0  0  0
  192.4440  175.8690  144.9310 C   0  0  0  0  0  2  0  0  0  0  0  0
  186.2620  176.8770  142.8100 C   0  0  0  0  0  2  0  0  0  0  0  0
  186.0440  177.5880  145.1460 N   0  0  0  0  0  2  0  0  0  0  0  0
  188.4510  176.6340  141.4500 C   0  0  2  0  0  3  0  0  0  0  0  0
  189.4440  177.1450  142.2960 O   0  0  0  0  0  0  0  0  0  0  0  0
  192.4920  173.8050  142.5830 C   0  0  2  0  0  3  0  0  0  0  0  0
  191.5730  174.6720  144.5810 C   0  0  0  0  0  2  0  0  0  0  0  0
  191.3840  174.6020  143.1300 N   0  0  2  0  0  0  0  0  0  0  0  0
  194.7790  176.7190  144.9810 C   0  0  0  0  0  0  0  0  0  0  0  0
  195.7220  176.7740  144.1490 O   0  0  0  0  0  0  0  0  0  0  0  0
  194.5310  177.8250  145.8440 N   0  0  0  0  0  1  0  0  0  0  0  0
  190.7820  170.3620  140.0290 C   0  0  0  0  0  1  0  0  0  0  0  0
  191.0970  171.2330  141.2350 C   0  0  0  0  0  3  0  0  0  0  0  0
  190.2320  170.8270  142.4130 C   0  0  0  0  0  1  0  0  0  0  0  0
  1  8  1  0  0  0  0
  1 28  1  0  0  0  0
  2 18  1  0  0  0  0
  3 12  1  0  0  0  0
  4 26  1  0  0  0  0
  5 22  1  0  0  0  0
  6  9  1  0  0  0  0
  6 11  2  0  0  0  0
  7  8  1  0  0  0  0
  8  3  1  0  0  0  0
  9 17  2  0  0  0  0
 10  9  1  0  0  0  0
 12 10  1  0  0  0  0
 13 16  1  0  0  0  0
 13  7  1  0  0  0  0
 14 13  1  0  0  0  0
 15  4  1  0  0  0  0
 15 33  1  0  0  0  0
 15 16  1  0  0  0  0
 16  1  1  0  0  0  0
 18 19  1  0  0  0  0
 20 12  1  0  0  0  0
 20 23  1  0  0  0  0
 21 19  1  0  0  0  0
 22 20  1  0  0  0  0
 23  6  1  0  0  0  0
 24  5  1  0  0  0  0
 24  7  1  0  0  0  0
 24 25  1  0  0  0  0
 25  3  1  0  0  0  0
 26  2  1  0  0  0  0
 26 28  1  0  0  0  0
 27 21  1  0  0  0  0
 28 27  1  0  0  0  0
 29 19  1  0  0  0  0
 29 31  1  0  0  0  0
 30 29  2  0  0  0  0
 32 33  1  0  0  0  0
 33 34  1  0  0  0  0
M  END
>  <MODEL>
9

>  <REMARK>
 VINA RESULT:      -7.2      2.120      5.473
  Name = 
  2 active torsions:
  status: ('A' for Active; 'I' for Inactive)
    1  A    between atoms: C_3  and  C_25
    2  A    between atoms: C_12  and  C_19
                            x       y       z     vdW  Elec       q    Type
                         _______ _______ _______ _____ _____    ______ ____

>  <TORSDO>
F 2

$$$$
