=
 OpenBabel11052417293D

 25 28  0  0  1  0  0  0  0  0999 V2000
  188.4040  176.1240  144.3450 C   0  0  0  0  0  0  0  0  0  0  0  0
  187.1930  176.9300  144.5110 N   0  0  0  0  0  0  0  0  0  0  0  0
  186.3450  176.4150  142.2770 C   0  0  0  0  0  3  0  0  0  0  0  0
  186.7340  177.5600  145.6030 C   0  0  0  0  0  0  0  0  0  0  0  0
  185.3870  178.9450  147.5870 C   0  0  0  0  0  3  0  0  0  0  0  0
  187.4210  175.7430  141.9950 N   0  0  0  0  0  0  0  0  0  0  0  0
  185.4980  178.1000  145.3470 C   0  0  0  0  0  0  0  0  0  0  0  0
  184.7920  178.8040  146.3200 C   0  0  0  0  0  3  0  0  0  0  0  0
  189.6460  174.9760  142.5330 C   0  0  2  0  0  3  0  0  0  0  0  0
  189.7730  174.2410  140.9420 Cl  0  0  0  0  0  0  0  0  0  0  0  0
  189.8950  177.1000  144.7190 S   0  0  0  0  0  0  0  0  0  0  0  0
  186.6540  178.3810  147.8510 C   0  0  0  0  0  3  0  0  0  0  0  0
  186.2220  177.0560  143.5840 C   0  0  0  0  0  0  0  0  0  0  0  0
  185.1320  177.7900  144.0470 C   0  0  0  0  0  3  0  0  0  0  0  0
  190.8090  174.8680  143.4370 C   0  0  0  0  0  3  0  0  0  0  0  0
  187.3440  177.6730  146.8530 C   0  0  0  0  0  3  0  0  0  0  0  0
  190.9850  175.6730  144.4890 C   0  0  0  0  0  0  0  0  0  0  0  0
  188.5180  175.5950  142.9210 C   0  0  0  0  0  0  0  0  0  0  0  0
  192.0730  175.3990  145.3780 N   0  0  0  0  0  2  0  0  0  0  0  0
  193.3150  176.1090  145.4720 C   0  0  0  0  0  0  0  0  0  0  0  0
  193.5310  177.1450  144.7910 O   0  0  0  0  0  0  0  0  0  0  0  0
  194.3750  175.6030  146.3880 C   0  0  0  0  0  2  0  0  0  0  0  0
  195.2950  174.6910  145.6540 C   0  0  0  0  0  0  0  0  0  0  0  0
  195.0950  173.3180  145.6990 O   0  0  0  0  0  1  0  0  0  0  0  0
  196.2350  175.1660  144.9660 O   0  0  0  0  0  0  0  0  0  0  0  0
  1  2  1  0  0  0  0
  1 11  1  0  0  0  0
  2  4  1  0  0  0  0
  3 13  1  0  0  0  0
  4 16  1  0  0  0  0
  5 12  1  0  0  0  0
  6  3  2  0  0  0  0
  6 18  1  0  0  0  0
  7  4  2  0  0  0  0
  7  8  1  0  0  0  0
  8  5  2  0  0  0  0
  9 10  1  1  0  0  0
  9 18  1  0  0  0  0
  9 15  1  0  0  0  0
 13 14  2  0  0  0  0
 13  2  1  0  0  0  0
 14  7  1  0  0  0  0
 15 17  2  0  0  0  0
 16 12  2  0  0  0  0
 17 11  1  0  0  0  0
 17 19  1  0  0  0  0
 18  1  2  0  0  0  0
 19 20  1  0  0  0  0
 20 22  1  0  0  0  0
 21 20  2  0  0  0  0
 23 24  1  0  0  0  0
 23 22  1  0  0  0  0
 25 23  2  0  0  0  0
M  END
>  <MODEL>
1

>  <REMARK>
 VINA RESULT:      -7.1      0.000      0.000
  Name = 
  3 active torsions:
  status: ('A' for Active; 'I' for Inactive)
    1  A    between atoms: C_2  and  C_21
    2  A    between atoms: N_6  and  C_23
    3  A    between atoms: C_15  and  C_21
                            x       y       z     vdW  Elec       q    Type
                         _______ _______ _______ _____ _____    ______ ____

>  <TORSDO>
F 3

$$$$
=
 OpenBabel11052417293D

 25 28  0  0  1  0  0  0  0  0999 V2000
  188.7490  175.6950  143.6660 C   0  0  0  0  0  0  0  0  0  0  0  0
  187.9200  176.4790  144.5830 N   0  0  0  0  0  0  0  0  0  0  0  0
  188.7950  175.3740  146.5810 C   0  0  0  0  0  3  0  0  0  0  0  0
  187.1150  177.5200  144.3230 C   0  0  0  0  0  0  0  0  0  0  0  0
  185.4110  179.7020  144.2730 C   0  0  0  0  0  3  0  0  0  0  0  0
  189.5110  174.5690  145.8540 N   0  0  0  0  0  0  0  0  0  0  0  0
  186.6180  178.0320  145.4960 C   0  0  0  0  0  0  0  0  0  0  0  0
  185.7580  179.1290  145.5090 C   0  0  0  0  0  3  0  0  0  0  0  0
  190.1890  173.6780  143.7140 C   0  0  2  0  0  3  0  0  0  0  0  0
  191.1790  172.4800  144.5330 Cl  0  0  0  0  0  0  0  0  0  0  0  0
  187.7320  174.9110  142.3750 S   0  0  0  0  0  0  0  0  0  0  0  0
  185.9300  179.1800  143.0680 C   0  0  0  0  0  3  0  0  0  0  0  0
  187.9450  176.3660  145.9270 C   0  0  0  0  0  0  0  0  0  0  0  0
  187.1380  177.3110  146.5590 C   0  0  0  0  0  3  0  0  0  0  0  0
  190.1510  173.6500  142.2390 C   0  0  0  0  0  3  0  0  0  0  0  0
  186.7980  178.0750  143.0830 C   0  0  0  0  0  3  0  0  0  0  0  0
  189.1830  174.2370  141.5290 C   0  0  0  0  0  0  0  0  0  0  0  0
  189.5080  174.6050  144.4110 C   0  0  0  0  0  0  0  0  0  0  0  0
  189.3110  174.2660  140.1020 N   0  0  0  0  0  2  0  0  0  0  0  0
  188.6870  173.3870  139.1590 C   0  0  0  0  0  0  0  0  0  0  0  0
  187.8620  172.5090  139.5250 O   0  0  0  0  0  0  0  0  0  0  0  0
  189.0310  173.5070  137.7150 C   0  0  0  0  0  2  0  0  0  0  0  0
  188.2960  174.6510  137.1060 C   0  0  0  0  0  0  0  0  0  0  0  0
  188.6450  175.1070  135.8420 O   0  0  0  0  0  0  0  0  0  0  0  0
  187.3370  175.1830  137.7230 O   0  0  0  0  0  1  0  0  0  0  0  0
  1 18  2  0  0  0  0
  1  2  1  0  0  0  0
  2 13  1  0  0  0  0
  4  2  1  0  0  0  0
  4  7  1  0  0  0  0
  5  8  1  0  0  0  0
  6  3  2  0  0  0  0
  7  8  2  0  0  0  0
  7 14  1  0  0  0  0
  9 18  1  0  0  0  0
  9 10  1  6  0  0  0
 11  1  1  0  0  0  0
 12 16  1  0  0  0  0
 12  5  2  0  0  0  0
 13 14  2  0  0  0  0
 13  3  1  0  0  0  0
 15  9  1  0  0  0  0
 16  4  2  0  0  0  0
 17 15  2  0  0  0  0
 17 11  1  0  0  0  0
 18  6  1  0  0  0  0
 19 17  1  0  0  0  0
 20 21  2  0  0  0  0
 20 19  1  0  0  0  0
 22 20  1  0  0  0  0
 23 22  1  0  0  0  0
 23 25  1  0  0  0  0
 24 23  2  0  0  0  0
M  END
>  <MODEL>
2

>  <REMARK>
 VINA RESULT:      -7.1      4.165      5.902
  Name = 
  3 active torsions:
  status: ('A' for Active; 'I' for Inactive)
    1  A    between atoms: C_2  and  C_21
    2  A    between atoms: N_6  and  C_23
    3  A    between atoms: C_15  and  C_21
                            x       y       z     vdW  Elec       q    Type
                         _______ _______ _______ _____ _____    ______ ____

>  <TORSDO>
F 3

$$$$
=
 OpenBabel11052417293D

 25 28  0  0  1  0  0  0  0  0999 V2000
  186.7070  176.6650  142.9400 C   0  0  0  0  0  0  0  0  0  0  0  0
  186.0720  177.5870  143.8840 N   0  0  0  0  0  0  0  0  0  0  0  0
  184.9180  178.8440  142.1330 C   0  0  0  0  0  3  0  0  0  0  0  0
  186.0670  177.5620  145.2250 C   0  0  0  0  0  0  0  0  0  0  0  0
  185.7350  177.8760  147.9560 C   0  0  0  0  0  3  0  0  0  0  0  0
  185.4940  178.1360  141.2080 N   0  0  0  0  0  0  0  0  0  0  0  0
  185.2470  178.5510  145.7090 C   0  0  0  0  0  0  0  0  0  0  0  0
  185.0570  178.7390  147.0770 C   0  0  0  0  0  3  0  0  0  0  0  0
  187.0800  176.4590  140.4980 C   0  0  2  0  0  3  0  0  0  0  0  0
  186.7080  176.8240  138.8210 Cl  0  0  0  0  0  0  0  0  0  0  0  0
  188.5090  176.6060  143.1980 S   0  0  0  0  0  0  0  0  0  0  0  0
  186.5710  176.8540  147.4570 C   0  0  0  0  0  3  0  0  0  0  0  0
  185.2260  178.5770  143.5360 C   0  0  0  0  0  0  0  0  0  0  0  0
  184.6800  179.2280  144.6420 C   0  0  0  0  0  3  0  0  0  0  0  0
  188.0990  175.4250  140.7690 C   0  0  0  0  0  3  0  0  0  0  0  0
  186.7430  176.6840  146.0720 C   0  0  0  0  0  3  0  0  0  0  0  0
  188.7280  175.3200  141.9440 C   0  0  0  0  0  0  0  0  0  0  0  0
  186.4390  177.0850  141.5010 C   0  0  0  0  0  0  0  0  0  0  0  0
  189.5990  174.2020  142.1490 N   0  0  0  0  0  2  0  0  0  0  0  0
  189.2200  172.8350  142.3550 C   0  0  0  0  0  0  0  0  0  0  0  0
  188.0160  172.4710  142.2900 O   0  0  0  0  0  0  0  0  0  0  0  0
  190.2720  171.8260  142.6610 C   0  0  0  0  0  2  0  0  0  0  0  0
  190.7090  171.9550  144.0790 C   0  0  0  0  0  0  0  0  0  0  0  0
  192.0600  171.9240  144.3960 O   0  0  0  0  0  0  0  0  0  0  0  0
  189.8550  172.1250  144.9880 O   0  0  0  0  0  1  0  0  0  0  0  0
  1 11  1  0  0  0  0
  1  2  1  0  0  0  0
  2  4  1  0  0  0  0
  3 13  1  0  0  0  0
  4  7  2  0  0  0  0
  4 16  1  0  0  0  0
  6 18  1  0  0  0  0
  6  3  2  0  0  0  0
  7  8  1  0  0  0  0
  8  5  2  0  0  0  0
  9 10  1  6  0  0  0
  9 15  1  0  0  0  0
  9 18  1  0  0  0  0
 12  5  1  0  0  0  0
 13  2  1  0  0  0  0
 13 14  2  0  0  0  0
 14  7  1  0  0  0  0
 15 17  2  0  0  0  0
 16 12  2  0  0  0  0
 17 19  1  0  0  0  0
 17 11  1  0  0  0  0
 18  1  2  0  0  0  0
 19 20  1  0  0  0  0
 20 22  1  0  0  0  0
 21 20  2  0  0  0  0
 22 23  1  0  0  0  0
 23 24  2  0  0  0  0
 23 25  1  0  0  0  0
M  END
>  <MODEL>
3

>  <REMARK>
 VINA RESULT:      -7.0      3.131      3.817
  Name = 
  3 active torsions:
  status: ('A' for Active; 'I' for Inactive)
    1  A    between atoms: C_2  and  C_21
    2  A    between atoms: N_6  and  C_23
    3  A    between atoms: C_15  and  C_21
                            x       y       z     vdW  Elec       q    Type
                         _______ _______ _______ _____ _____    ______ ____

>  <TORSDO>
F 3

$$$$
=
 OpenBabel11052417293D

 25 28  0  0  1  0  0  0  0  0999 V2000
  188.8200  177.4440  144.4140 C   0  0  0  0  0  0  0  0  0  0  0  0
  187.3620  177.5310  144.3170 N   0  0  0  0  0  0  0  0  0  0  0  0
  187.0300  177.4310  146.7370 C   0  0  0  0  0  3  0  0  0  0  0  0
  186.5920  177.7450  143.2390 C   0  0  0  0  0  0  0  0  0  0  0  0
  184.6370  178.2180  141.3370 C   0  0  0  0  0  3  0  0  0  0  0  0
  188.3040  177.2660  146.9310 N   0  0  0  0  0  0  0  0  0  0  0  0
  185.2790  177.8700  143.6190 C   0  0  0  0  0  0  0  0  0  0  0  0
  184.2680  178.1070  142.6890 C   0  0  0  0  0  3  0  0  0  0  0  0
  190.5490  176.9180  146.1110 C   0  0  2  0  0  3  0  0  0  0  0  0
  191.1210  176.7480  147.7630 Cl  0  0  0  0  0  0  0  0  0  0  0  0
  189.4650  176.0980  143.3710 S   0  0  0  0  0  0  0  0  0  0  0  0
  185.9880  178.0980  140.9490 C   0  0  0  0  0  3  0  0  0  0  0  0
  186.5230  177.5530  145.3720 C   0  0  0  0  0  0  0  0  0  0  0  0
  185.1960  177.7550  144.9970 C   0  0  0  0  0  3  0  0  0  0  0  0
  191.5350  176.7730  145.0210 C   0  0  0  0  0  3  0  0  0  0  0  0
  186.9890  177.8620  141.9070 C   0  0  0  0  0  3  0  0  0  0  0  0
  191.1840  176.5130  143.7580 C   0  0  0  0  0  0  0  0  0  0  0  0
  189.2590  177.1950  145.8510 C   0  0  0  0  0  0  0  0  0  0  0  0
  192.2050  176.5260  142.7540 N   0  0  0  0  0  2  0  0  0  0  0  0
  193.0120  175.4220  142.3260 C   0  0  0  0  0  0  0  0  0  0  0  0
  192.8230  174.2600  142.7710 O   0  0  0  0  0  0  0  0  0  0  0  0
  194.1040  175.6580  141.3410 C   0  0  0  0  0  2  0  0  0  0  0  0
  195.2770  176.2830  142.0150 C   0  0  0  0  0  0  0  0  0  0  0  0
  195.5140  176.0430  143.3610 O   0  0  0  0  0  1  0  0  0  0  0  0
  196.0700  177.0040  141.3560 O   0  0  0  0  0  0  0  0  0  0  0  0
  1 18  2  0  0  0  0
  2  1  1  0  0  0  0
  2 13  1  0  0  0  0
  3  6  2  0  0  0  0
  4  7  1  0  0  0  0
  4  2  1  0  0  0  0
  5  8  1  0  0  0  0
  7 14  1  0  0  0  0
  8  7  2  0  0  0  0
  9 10  1  1  0  0  0
 11 17  1  0  0  0  0
 11  1  1  0  0  0  0
 12  5  2  0  0  0  0
 12 16  1  0  0  0  0
 13  3  1  0  0  0  0
 14 13  2  0  0  0  0
 15  9  1  0  0  0  0
 16  4  2  0  0  0  0
 17 15  2  0  0  0  0
 18  9  1  0  0  0  0
 18  6  1  0  0  0  0
 19 17  1  0  0  0  0
 20 19  1  0  0  0  0
 20 21  2  0  0  0  0
 22 23  1  0  0  0  0
 22 20  1  0  0  0  0
 23 24  1  0  0  0  0
 25 23  2  0  0  0  0
M  END
>  <MODEL>
4

>  <REMARK>
 VINA RESULT:      -7.0      2.660      3.941
  Name = 
  3 active torsions:
  status: ('A' for Active; 'I' for Inactive)
    1  A    between atoms: C_2  and  C_21
    2  A    between atoms: N_6  and  C_23
    3  A    between atoms: C_15  and  C_21
                            x       y       z     vdW  Elec       q    Type
                         _______ _______ _______ _____ _____    ______ ____

>  <TORSDO>
F 3

$$$$
=
 OpenBabel11052417293D

 25 28  0  0  1  0  0  0  0  0999 V2000
  187.8060  176.0490  143.5220 C   0  0  0  0  0  0  0  0  0  0  0  0
  186.9660  177.1910  143.8900 N   0  0  0  0  0  0  0  0  0  0  0  0
  186.1050  177.4960  141.6220 C   0  0  0  0  0  3  0  0  0  0  0  0
  186.7130  177.7060  145.1030 C   0  0  0  0  0  0  0  0  0  0  0  0
  185.8650  179.0480  147.3710 C   0  0  0  0  0  3  0  0  0  0  0  0
  186.8730  176.5500  141.1740 N   0  0  0  0  0  0  0  0  0  0  0  0
  185.7750  178.7030  145.0010 C   0  0  0  0  0  0  0  0  0  0  0  0
  185.3250  179.4000  146.1210 C   0  0  0  0  0  3  0  0  0  0  0  0
  188.6350  174.9250  141.4750 C   0  0  2  0  0  3  0  0  0  0  0  0
  188.5660  174.5410  139.7620 Cl  0  0  0  0  0  0  0  0  0  0  0  0
  189.5290  176.3090  144.0510 S   0  0  0  0  0  0  0  0  0  0  0  0
  186.8230  178.0160  147.4750 C   0  0  0  0  0  3  0  0  0  0  0  0
  186.1570  177.8530  143.0390 C   0  0  0  0  0  0  0  0  0  0  0  0
  185.3880  178.8240  143.6770 C   0  0  0  0  0  3  0  0  0  0  0  0
  189.6310  174.2140  142.3020 C   0  0  0  0  0  3  0  0  0  0  0  0
  187.2580  177.3260  146.3300 C   0  0  0  0  0  3  0  0  0  0  0  0
  190.0330  174.6630  143.4940 C   0  0  0  0  0  0  0  0  0  0  0  0
  187.7920  175.8220  142.0170 C   0  0  0  0  0  0  0  0  0  0  0  0
  190.9000  173.8300  144.2750 N   0  0  0  0  0  2  0  0  0  0  0  0
  192.3270  173.9120  144.3660 C   0  0  0  0  0  0  0  0  0  0  0  0
  192.9700  174.8300  143.7920 O   0  0  0  0  0  0  0  0  0  0  0  0
  193.0660  172.8830  145.1480 C   0  0  0  0  0  2  0  0  0  0  0  0
  193.3230  171.6820  144.3040 C   0  0  0  0  0  0  0  0  0  0  0  0
  194.5180  171.5650  143.6080 O   0  0  0  0  0  0  0  0  0  0  0  0
  192.4690  170.7600  144.2470 O   0  0  0  0  0  1  0  0  0  0  0  0
  1  2  1  0  0  0  0
  1 11  1  0  0  0  0
  2  4  1  0  0  0  0
  3 13  1  0  0  0  0
  4 16  1  0  0  0  0
  5 12  1  0  0  0  0
  6  3  2  0  0  0  0
  6 18  1  0  0  0  0
  7  4  2  0  0  0  0
  7  8  1  0  0  0  0
  8  5  2  0  0  0  0
  9 10  1  1  0  0  0
  9 18  1  0  0  0  0
  9 15  1  0  0  0  0
 13 14  2  0  0  0  0
 13  2  1  0  0  0  0
 14  7  1  0  0  0  0
 15 17  2  0  0  0  0
 16 12  2  0  0  0  0
 17 11  1  0  0  0  0
 17 19  1  0  0  0  0
 18  1  2  0  0  0  0
 19 20  1  0  0  0  0
 20 22  1  0  0  0  0
 21 20  2  0  0  0  0
 23 22  1  0  0  0  0
 24 23  2  0  0  0  0
 25 23  1  0  0  0  0
M  END
>  <MODEL>
5

>  <REMARK>
 VINA RESULT:      -6.5      1.799      2.091
  Name = 
  3 active torsions:
  status: ('A' for Active; 'I' for Inactive)
    1  A    between atoms: C_2  and  C_21
    2  A    between atoms: N_6  and  C_23
    3  A    between atoms: C_15  and  C_21
                            x       y       z     vdW  Elec       q    Type
                         _______ _______ _______ _____ _____    ______ ____

>  <TORSDO>
F 3

$$$$
=
 OpenBabel11052417293D

 25 28  0  0  1  0  0  0  0  0999 V2000
  190.8220  175.5240  143.0680 C   0  0  0  0  0  0  0  0  0  0  0  0
  192.0360  174.8660  143.5560 N   0  0  0  0  0  0  0  0  0  0  0  0
  192.0120  173.1600  141.8050 C   0  0  0  0  0  3  0  0  0  0  0  0
  192.8740  175.2430  144.5340 C   0  0  0  0  0  0  0  0  0  0  0  0
  194.8820  175.6500  146.3960 C   0  0  0  0  0  3  0  0  0  0  0  0
  190.8870  173.6150  141.3400 N   0  0  0  0  0  0  0  0  0  0  0  0
  193.9520  174.3940  144.5800 C   0  0  0  0  0  0  0  0  0  0  0  0
  194.9800  174.5670  145.5040 C   0  0  0  0  0  3  0  0  0  0  0  0
  188.9800  175.0910  141.4680 C   0  0  2  0  0  3  0  0  0  0  0  0
  188.2710  174.2870  140.0770 Cl  0  0  0  0  0  0  0  0  0  0  0  0
  189.5940  175.7000  144.4010 S   0  0  0  0  0  0  0  0  0  0  0  0
  193.7780  176.5280  146.3410 C   0  0  0  0  0  3  0  0  0  0  0  0
  192.6140  173.7950  142.9750 C   0  0  0  0  0  0  0  0  0  0  0  0
  193.8190  173.4440  143.5800 C   0  0  0  0  0  3  0  0  0  0  0  0
  188.2150  176.1880  142.0950 C   0  0  0  0  0  3  0  0  0  0  0  0
  192.7550  176.3320  145.3970 C   0  0  0  0  0  3  0  0  0  0  0  0
  188.4520  176.6160  143.3380 C   0  0  0  0  0  0  0  0  0  0  0  0
  190.1910  174.7330  141.9310 C   0  0  0  0  0  0  0  0  0  0  0  0
  187.7460  177.7730  143.8030 N   0  0  0  0  0  2  0  0  0  0  0  0
  186.5350  177.7990  144.5680 C   0  0  0  0  0  0  0  0  0  0  0  0
  186.0010  176.7390  144.9880 O   0  0  0  0  0  0  0  0  0  0  0  0
  185.8890  179.1070  144.8650 C   0  0  0  0  0  2  0  0  0  0  0  0
  184.9520  178.9690  146.0150 C   0  0  0  0  0  0  0  0  0  0  0  0
  185.4380  179.0020  147.3150 O   0  0  0  0  0  1  0  0  0  0  0  0
  183.7160  178.8530  145.8090 O   0  0  0  0  0  0  0  0  0  0  0  0
  1  2  1  0  0  0  0
  1 11  1  0  0  0  0
  2  4  1  0  0  0  0
  3 13  1  0  0  0  0
  4  7  2  0  0  0  0
  4 16  1  0  0  0  0
  6  3  2  0  0  0  0
  6 18  1  0  0  0  0
  7  8  1  0  0  0  0
  8  5  2  0  0  0  0
  9 10  1  6  0  0  0
  9 18  1  0  0  0  0
  9 15  1  0  0  0  0
 12  5  1  0  0  0  0
 13  2  1  0  0  0  0
 13 14  2  0  0  0  0
 14  7  1  0  0  0  0
 15 17  2  0  0  0  0
 16 12  2  0  0  0  0
 17 19  1  0  0  0  0
 17 11  1  0  0  0  0
 18  1  2  0  0  0  0
 19 20  1  0  0  0  0
 20 22  1  0  0  0  0
 20 21  2  0  0  0  0
 22 23  1  0  0  0  0
 23 24  1  0  0  0  0
 25 23  2  0  0  0  0
M  END
>  <MODEL>
6

>  <REMARK>
 VINA RESULT:      -6.4      3.513      7.381
  Name = 
  3 active torsions:
  status: ('A' for Active; 'I' for Inactive)
    1  A    between atoms: C_2  and  C_21
    2  A    between atoms: N_6  and  C_23
    3  A    between atoms: C_15  and  C_21
                            x       y       z     vdW  Elec       q    Type
                         _______ _______ _______ _____ _____    ______ ____

>  <TORSDO>
F 3

$$$$
=
 OpenBabel11052417293D

 25 28  0  0  1  0  0  0  0  0999 V2000
  189.8330  175.3250  143.3730 C   0  0  0  0  0  0  0  0  0  0  0  0
  188.5190  175.9280  143.6100 N   0  0  0  0  0  0  0  0  0  0  0  0
  187.5760  175.0900  141.5150 C   0  0  0  0  0  3  0  0  0  0  0  0
  188.0580  176.5620  144.6980 C   0  0  0  0  0  0  0  0  0  0  0  0
  186.6750  177.8660  146.7110 C   0  0  0  0  0  3  0  0  0  0  0  0
  188.7220  174.5860  141.1700 N   0  0  0  0  0  0  0  0  0  0  0  0
  186.7280  176.8640  144.5350 C   0  0  0  0  0  0  0  0  0  0  0  0
  186.0010  177.5200  145.5260 C   0  0  0  0  0  3  0  0  0  0  0  0
  191.0870  174.2520  141.5250 C   0  0  2  0  0  3  0  0  0  0  0  0
  191.1960  173.4160  139.9830 Cl  0  0  0  0  0  0  0  0  0  0  0  0
  191.1570  176.5650  143.5240 S   0  0  0  0  0  0  0  0  0  0  0  0
  188.0390  177.5470  146.8810 C   0  0  0  0  0  3  0  0  0  0  0  0
  187.4620  175.8100  142.7820 C   0  0  0  0  0  0  0  0  0  0  0  0
  186.3060  176.3880  143.3050 C   0  0  0  0  0  3  0  0  0  0  0  0
  192.3280  174.4180  142.3080 C   0  0  0  0  0  3  0  0  0  0  0  0
  188.7490  176.8820  145.8660 C   0  0  0  0  0  3  0  0  0  0  0  0
  192.4540  175.3270  143.2790 C   0  0  0  0  0  0  0  0  0  0  0  0
  189.9080  174.7040  141.9850 C   0  0  0  0  0  0  0  0  0  0  0  0
  193.6500  175.3160  144.0670 N   0  0  0  0  0  2  0  0  0  0  0  0
  193.7620  175.0280  145.4670 C   0  0  0  0  0  0  0  0  0  0  0  0
  192.7650  174.6630  146.1430 O   0  0  0  0  0  0  0  0  0  0  0  0
  195.0840  175.1740  146.1370 C   0  0  0  0  0  2  0  0  0  0  0  0
  196.0450  174.1700  145.6010 C   0  0  0  0  0  0  0  0  0  0  0  0
  195.7780  172.8140  145.7310 O   0  0  0  0  0  1  0  0  0  0  0  0
  197.0830  174.5510  145.0010 O   0  0  0  0  0  0  0  0  0  0  0  0
  1 11  1  0  0  0  0
  1  2  1  0  0  0  0
  2  4  1  0  0  0  0
  3 13  1  0  0  0  0
  4 16  1  0  0  0  0
  5 12  1  0  0  0  0
  6  3  2  0  0  0  0
  6 18  1  0  0  0  0
  7  4  2  0  0  0  0
  7  8  1  0  0  0  0
  8  5  2  0  0  0  0
  9 10  1  1  0  0  0
  9 18  1  0  0  0  0
  9 15  1  0  0  0  0
 13 14  2  0  0  0  0
 13  2  1  0  0  0  0
 14  7  1  0  0  0  0
 15 17  2  0  0  0  0
 16 12  2  0  0  0  0
 17 11  1  0  0  0  0
 17 19  1  0  0  0  0
 18  1  2  0  0  0  0
 19 20  1  0  0  0  0
 20 22  1  0  0  0  0
 20 21  2  0  0  0  0
 23 24  1  0  0  0  0
 23 22  1  0  0  0  0
 25 23  2  0  0  0  0
M  END
>  <MODEL>
7

>  <REMARK>
 VINA RESULT:      -6.4      1.457      1.826
  Name = 
  3 active torsions:
  status: ('A' for Active; 'I' for Inactive)
    1  A    between atoms: C_2  and  C_21
    2  A    between atoms: N_6  and  C_23
    3  A    between atoms: C_15  and  C_21
                            x       y       z     vdW  Elec       q    Type
                         _______ _______ _______ _____ _____    ______ ____

>  <TORSDO>
F 3

$$$$
=
 OpenBabel11052417293D

 25 28  0  0  1  0  0  0  0  0999 V2000
  186.0680  177.0790  142.5210 C   0  0  0  0  0  0  0  0  0  0  0  0
  186.4870  177.0510  143.9230 N   0  0  0  0  0  0  0  0  0  0  0  0
  184.4710  178.1810  144.7200 C   0  0  0  0  0  3  0  0  0  0  0  0
  187.5490  176.4510  144.4820 C   0  0  0  0  0  0  0  0  0  0  0  0
  189.5380  175.3450  146.0600 C   0  0  0  0  0  3  0  0  0  0  0  0
  184.0430  178.3330  143.5020 N   0  0  0  0  0  0  0  0  0  0  0  0
  187.4950  176.5810  145.8480 C   0  0  0  0  0  0  0  0  0  0  0  0
  188.4790  176.0380  146.6730 C   0  0  0  0  0  3  0  0  0  0  0  0
  184.3400  178.1610  141.1120 C   0  0  2  0  0  3  0  0  0  0  0  0
  182.8030  178.9760  140.8670 Cl  0  0  0  0  0  0  0  0  0  0  0  0
  187.3570  177.8170  141.4680 S   0  0  0  0  0  0  0  0  0  0  0  0
  189.5870  175.2050  144.6560 C   0  0  0  0  0  3  0  0  0  0  0  0
  185.7570  177.5280  144.9520 C   0  0  0  0  0  0  0  0  0  0  0  0
  186.3440  177.2710  146.1900 C   0  0  0  0  0  3  0  0  0  0  0  0
  185.1120  177.7710  139.9150 C   0  0  0  0  0  3  0  0  0  0  0  0
  188.5810  175.7600  143.8460 C   0  0  0  0  0  3  0  0  0  0  0  0
  186.4190  177.4970  139.9550 C   0  0  0  0  0  0  0  0  0  0  0  0
  184.7860  177.8830  142.3490 C   0  0  0  0  0  0  0  0  0  0  0  0
  187.0440  176.9980  138.7660 N   0  0  0  0  0  2  0  0  0  0  0  0
  186.4090  176.3260  137.6720 C   0  0  0  0  0  0  0  0  0  0  0  0
  185.1590  176.1780  137.6280 O   0  0  0  0  0  0  0  0  0  0  0  0
  187.2470  175.7800  136.5680 C   0  0  0  0  0  2  0  0  0  0  0  0
  187.2430  176.7180  135.4100 C   0  0  0  0  0  0  0  0  0  0  0  0
  188.2380  177.6790  135.2900 O   0  0  0  0  0  1  0  0  0  0  0  0
  186.3570  176.6170  134.5220 O   0  0  0  0  0  0  0  0  0  0  0  0
  1  2  1  0  0  0  0
  2  4  1  0  0  0  0
  2 13  1  0  0  0  0
  3 13  1  0  0  0  0
  4  7  1  0  0  0  0
  5  8  1  0  0  0  0
  6  3  2  0  0  0  0
  7 14  1  0  0  0  0
  7  8  2  0  0  0  0
  9 10  1  6  0  0  0
  9 18  1  0  0  0  0
 11  1  1  0  0  0  0
 12  5  2  0  0  0  0
 13 14  2  0  0  0  0
 15 17  2  0  0  0  0
 15  9  1  0  0  0  0
 16  4  2  0  0  0  0
 16 12  1  0  0  0  0
 17 11  1  0  0  0  0
 18  1  2  0  0  0  0
 18  6  1  0  0  0  0
 19 17  1  0  0  0  0
 20 19  1  0  0  0  0
 21 20  2  0  0  0  0
 22 20  1  0  0  0  0
 23 22  1  0  0  0  0
 24 23  1  0  0  0  0
 25 23  2  0  0  0  0
M  END
>  <MODEL>
8

>  <REMARK>
 VINA RESULT:      -6.3      5.243      7.515
  Name = 
  3 active torsions:
  status: ('A' for Active; 'I' for Inactive)
    1  A    between atoms: C_2  and  C_21
    2  A    between atoms: N_6  and  C_23
    3  A    between atoms: C_15  and  C_21
                            x       y       z     vdW  Elec       q    Type
                         _______ _______ _______ _____ _____    ______ ____

>  <TORSDO>
F 3

$$$$
=
 OpenBabel11052417293D

 25 28  0  0  1  0  0  0  0  0999 V2000
  189.4820  176.4350  144.4010 C   0  0  0  0  0  0  0  0  0  0  0  0
  188.4080  176.9670  145.2420 N   0  0  0  0  0  0  0  0  0  0  0  0
  189.7930  177.0340  147.2550 C   0  0  0  0  0  3  0  0  0  0  0  0
  187.1810  177.3830  144.8930 C   0  0  0  0  0  0  0  0  0  0  0  0
  184.6150  178.3910  144.6360 C   0  0  0  0  0  3  0  0  0  0  0  0
  190.7870  176.4870  146.6220 N   0  0  0  0  0  0  0  0  0  0  0  0
  186.5400  177.9170  145.9830 C   0  0  0  0  0  0  0  0  0  0  0  0
  185.2480  178.4330  145.8910 C   0  0  0  0  0  3  0  0  0  0  0  0
  191.7370  175.4410  144.6630 C   0  0  2  0  0  3  0  0  0  0  0  0
  193.2240  175.1420  145.5510 Cl  0  0  0  0  0  0  0  0  0  0  0  0
  188.9440  174.9300  143.5280 S   0  0  0  0  0  0  0  0  0  0  0  0
  185.2790  177.8490  143.5150 C   0  0  0  0  0  3  0  0  0  0  0  0
  188.5370  177.2730  146.5480 C   0  0  0  0  0  0  0  0  0  0  0  0
  187.3910  177.8670  147.0750 C   0  0  0  0  0  3  0  0  0  0  0  0
  191.6630  174.9710  143.2650 C   0  0  0  0  0  3  0  0  0  0  0  0
  186.5830  177.3380  143.6330 C   0  0  0  0  0  3  0  0  0  0  0  0
  190.5040  174.8020  142.6210 C   0  0  0  0  0  0  0  0  0  0  0  0
  190.7120  176.0970  145.2340 C   0  0  0  0  0  0  0  0  0  0  0  0
  190.5460  174.4730  141.2270 N   0  0  0  0  0  2  0  0  0  0  0  0
  190.1470  173.2400  140.6160 C   0  0  0  0  0  0  0  0  0  0  0  0
  189.6210  172.3140  141.2880 O   0  0  0  0  0  0  0  0  0  0  0  0
  190.3690  173.0450  139.1560 C   0  0  0  0  0  2  0  0  0  0  0  0
  189.3310  173.7770  138.3770 C   0  0  0  0  0  0  0  0  0  0  0  0
  189.5840  174.1530  137.0650 O   0  0  0  0  0  0  0  0  0  0  0  0
  188.2130  174.0250  138.8980 O   0  0  0  0  0  1  0  0  0  0  0  0
  1 18  2  0  0  0  0
  1  2  1  0  0  0  0
  2 13  1  0  0  0  0
  4  2  1  0  0  0  0
  4  7  1  0  0  0  0
  5  8  1  0  0  0  0
  6  3  2  0  0  0  0
  7 14  1  0  0  0  0
  8  7  2  0  0  0  0
  9 18  1  0  0  0  0
  9 10  1  6  0  0  0
 11  1  1  0  0  0  0
 12 16  1  0  0  0  0
 12  5  2  0  0  0  0
 13 14  2  0  0  0  0
 13  3  1  0  0  0  0
 15  9  1  0  0  0  0
 16  4  2  0  0  0  0
 17 15  2  0  0  0  0
 17 11  1  0  0  0  0
 18  6  1  0  0  0  0
 19 17  1  0  0  0  0
 20 19  1  0  0  0  0
 20 21  2  0  0  0  0
 22 20  1  0  0  0  0
 23 25  1  0  0  0  0
 23 22  1  0  0  0  0
 24 23  2  0  0  0  0
M  END
>  <MODEL>
9

>  <REMARK>
 VINA RESULT:      -6.2      3.598      5.283
  Name = 
  3 active torsions:
  status: ('A' for Active; 'I' for Inactive)
    1  A    between atoms: C_2  and  C_21
    2  A    between atoms: N_6  and  C_23
    3  A    between atoms: C_15  and  C_21
                            x       y       z     vdW  Elec       q    Type
                         _______ _______ _______ _____ _____    ______ ____

>  <TORSDO>
F 3

$$$$
