=
 OpenBabel11052421353D

 32 37  0  0  1  0  0  0  0  0999 V2000
  195.0480  175.1830  145.6860 O   0  0  0  0  0  0  0  0  0  0  0  0
  190.2000  175.9320  144.8070 C   0  0  0  0  0  0  0  0  0  0  0  0
  189.0920  172.9720  141.0450 N   0  0  0  0  0  0  0  0  0  0  0  0
  187.8780  173.4360  141.0910 C   0  0  0  0  0  3  0  0  0  0  0  0
  192.6750  176.6430  144.9480 C   0  0  2  0  0  3  0  0  0  0  0  0
  191.9870  174.5570  143.7520 O   0  0  0  0  0  0  0  0  0  0  0  0
  193.9610  175.6940  143.0380 C   0  0  0  0  0  1  0  0  0  0  0  0
  190.2110  173.4910  141.8420 C   0  0  0  0  0  2  0  0  0  0  0  0
  190.6440  174.9540  143.7950 C   0  0  0  0  0  0  0  0  0  0  0  0
  189.7700  174.4710  142.9000 C   0  0  0  0  0  0  0  0  0  0  0  0
  188.0620  176.0600  143.7990 N   0  0  0  0  0  0  0  0  0  0  0  0
  194.5770  176.2110  146.5220 C   0  0  0  0  0  2  0  0  0  0  0  0
  193.0990  175.3250  144.2410 C   0  0  1  0  0  0  0  0  0  0  0  0
  193.8570  177.2740  145.6900 C   0  0  0  0  0  2  0  0  0  0  0  0
  193.9160  174.4720  145.2390 C   0  0  1  0  0  3  0  0  0  0  0  0
  187.5060  174.5210  142.0110 C   0  0  0  0  0  3  0  0  0  0  0  0
  188.3980  175.0110  142.8750 C   0  0  0  0  0  0  0  0  0  0  0  0
  191.3130  176.3640  146.1260 S   0  0  0  0  0  0  0  0  0  0  0  0
  189.0060  176.4460  144.7720 N   0  0  0  0  0  0  0  0  0  0  0  0
  185.9470  176.2990  145.0430 C   0  0  0  0  0  2  0  0  0  0  0  0
  185.5330  178.7110  145.6750 C   0  0  1  0  0  3  0  0  0  0  0  0
  185.6840  178.9630  144.1670 C   0  0  1  0  0  3  0  0  0  0  0  0
  185.8250  180.3320  143.9380 O   0  0  0  0  0  1  0  0  0  0  0  0
  184.1350  178.8250  146.0470 N   0  0  0  0  0  1  0  0  0  0  0  0
  186.7430  176.6890  143.7880 C   0  0  1  0  0  3  0  0  0  0  0  0
  186.0820  177.3540  146.1360 C   0  0  0  0  0  2  0  0  0  0  0  0
  186.9880  178.4740  142.2120 O   0  0  0  0  0  1  0  0  0  0  0  0
  186.8750  178.2060  143.5770 C   0  0  1  0  0  3  0  0  0  0  0  0
  194.3400  173.1350  144.6410 C   0  0  0  0  0  2  0  0  0  0  0  0
  194.2600  172.0420  145.6900 C   0  0  0  0  0  3  0  0  0  0  0  0
  194.2620  170.6950  144.9970 C   0  0  0  0  0  2  0  0  0  0  0  0
  195.5290  171.2150  145.6410 C   0  0  0  0  0  2  0  0  0  0  0  0
  1 12  1  0  0  0  0
  2 18  1  0  0  0  0
  3  4  2  0  0  0  0
  3  8  1  0  0  0  0
  4 16  1  0  0  0  0
  5 14  1  1  0  0  0
  5 18  1  0  0  0  0
  6  9  1  0  0  0  0
  6 13  1  0  0  0  0
  8 10  1  0  0  0  0
  9  2  1  0  0  0  0
 10  9  2  0  0  0  0
 11 19  1  0  0  0  0
 13  7  1  6  0  0  0
 13  5  1  0  0  0  0
 13 15  1  0  0  0  0
 14 12  1  0  0  0  0
 15 29  1  6  0  0  0
 15  1  1  0  0  0  0
 16 17  2  0  0  0  0
 17 10  1  0  0  0  0
 17 11  1  0  0  0  0
 19  2  2  0  0  0  0
 20 26  1  0  0  0  0
 21 24  1  6  0  0  0
 21 26  1  0  0  0  0
 22 23  1  1  0  0  0
 22 21  1  0  0  0  0
 25 11  1  1  0  0  0
 25 20  1  0  0  0  0
 28 27  1  6  0  0  0
 28 25  1  0  0  0  0
 28 22  1  0  0  0  0
 29 30  1  0  0  0  0
 31 32  1  0  0  0  0
 31 30  1  0  0  0  0
 32 30  1  0  0  0  0
M  END
>  <MODEL>
1

>  <REMARK>
 VINA RESULT:      -7.7      0.000      0.000
  Name = 
  3 active torsions:
  status: ('A' for Active; 'I' for Inactive)
    1  A    between atoms: C_1  and  C_10
    2  A    between atoms: C_10  and  C_24
    3  A    between atoms: N_16  and  C_27
                            x       y       z     vdW  Elec       q    Type
                         _______ _______ _______ _____ _____    ______ ____

>  <TORSDO>
F 3

$$$$
=
 OpenBabel11052421353D

 32 37  0  0  1  0  0  0  0  0999 V2000
  189.1160  177.1280  147.3600 O   0  0  0  0  0  0  0  0  0  0  0  0
  192.0870  175.7090  143.6180 C   0  0  0  0  0  0  0  0  0  0  0  0
  189.2460  173.0010  140.6630 N   0  0  0  0  0  0  0  0  0  0  0  0
  190.2860  172.8100  139.9050 C   0  0  0  0  0  3  0  0  0  0  0  0
  191.3310  175.7980  146.0820 C   0  0  2  0  0  3  0  0  0  0  0  0
  189.7170  175.2730  144.2440 O   0  0  0  0  0  0  0  0  0  0  0  0
  189.3110  174.3820  146.4230 C   0  0  0  0  0  1  0  0  0  0  0  0
  189.2800  173.6720  141.9680 C   0  0  0  0  0  3  0  0  0  0  0  0
  190.7750  175.0910  143.3440 C   0  0  0  0  0  0  0  0  0  0  0  0
  190.6050  174.3330  142.2510 C   0  0  0  0  0  0  0  0  0  0  0  0
  193.0520  174.5600  141.7870 N   0  0  0  0  0  0  0  0  0  0  0  0
  190.4290  177.5610  147.6180 C   0  0  0  0  0  2  0  0  0  0  0  0
  189.8570  175.5740  145.6430 C   0  0  1  0  0  0  0  0  0  0  0  0
  191.4020  176.3870  147.4940 C   0  0  0  0  0  2  0  0  0  0  0  0
  189.0450  176.8460  145.9800 C   0  0  1  0  0  3  0  0  0  0  0  0
  191.6140  173.3120  140.2870 C   0  0  0  0  0  3  0  0  0  0  0  0
  191.7700  174.0400  141.3950 C   0  0  2  0  0  3  0  0  0  0  0  0
  192.2130  176.9020  144.9320 S   0  0  0  0  0  0  0  0  0  0  0  0
  193.1310  175.4280  142.8950 N   0  0  0  0  0  0  0  0  0  0  0  0
  194.6820  175.4640  140.1740 C   0  0  0  0  0  2  0  0  0  0  0  0
  197.0100  175.4950  141.1570 C   0  0  1  0  0  3  0  0  0  0  0  0
  196.7580  173.9970  141.3860 C   0  0  1  0  0  3  0  0  0  0  0  0
  197.7340  173.4900  142.2460 O   0  0  0  0  0  1  0  0  0  0  0  0
  197.9410  175.6670  140.0560 N   0  0  0  0  0  1  0  0  0  0  0  0
  194.2610  174.2560  141.0250 C   0  0  1  0  0  3  0  0  0  0  0  0
  195.7350  176.3050  140.8870 C   0  0  0  0  0  2  0  0  0  0  0  0
  195.1820  172.3650  142.1670 O   0  0  0  0  0  1  0  0  0  0  0  0
  195.3640  173.7330  141.9580 C   0  0  1  0  0  3  0  0  0  0  0  0
  187.5880  176.7320  145.5440 C   0  0  0  0  0  2  0  0  0  0  0  0
  186.6650  177.0540  146.7030 C   0  0  0  0  0  3  0  0  0  0  0  0
  185.7660  178.2080  146.3100 C   0  0  0  0  0  2  0  0  0  0  0  0
  185.2330  176.7910  146.2850 C   0  0  0  0  0  2  0  0  0  0  0  0
  1 12  1  0  0  0  0
  2 18  1  0  0  0  0
  3  8  2  0  0  0  0
  4 16  2  0  0  0  0
  4  3  1  0  0  0  0
  5 14  1  1  0  0  0
  6 13  1  0  0  0  0
  8 10  1  0  0  0  0
  9  2  1  0  0  0  0
  9  6  1  0  0  0  0
 10  9  2  0  0  0  0
 11 19  1  0  0  0  0
 13 15  1  0  0  0  0
 13  5  1  0  0  0  0
 13  7  1  1  0  0  0
 14 12  1  0  0  0  0
 15 29  1  1  0  0  0
 15  1  1  0  0  0  0
 17 16  1  6  0  0  0
 17 11  1  0  0  0  0
 17 10  1  0  0  0  0
 18  5  1  0  0  0  0
 19  2  2  0  0  0  0
 20 26  1  0  0  0  0
 21 24  1  6  0  0  0
 21 22  1  0  0  0  0
 22 28  1  0  0  0  0
 22 23  1  1  0  0  0
 25 20  1  1  0  0  0
 25 11  1  0  0  0  0
 25 28  1  0  0  0  0
 26 21  1  0  0  0  0
 28 27  1  6  0  0  0
 29 30  1  0  0  0  0
 31 30  1  0  0  0  0
 32 31  1  0  0  0  0
 32 30  1  0  0  0  0
M  END
>  <MODEL>
2

>  <REMARK>
 VINA RESULT:      -7.0      3.303      7.733
  Name = 
  3 active torsions:
  status: ('A' for Active; 'I' for Inactive)
    1  A    between atoms: C_1  and  C_10
    2  A    between atoms: C_10  and  C_24
    3  A    between atoms: N_16  and  C_27
                            x       y       z     vdW  Elec       q    Type
                         _______ _______ _______ _____ _____    ______ ____

>  <TORSDO>
F 3

$$$$
=
 OpenBabel11052421353D

 32 37  0  0  1  0  0  0  0  0999 V2000
  187.0370  178.3000  143.9400 O   0  0  0  0  0  0  0  0  0  0  0  0
  189.3810  174.6060  141.5510 C   0  0  0  0  0  0  0  0  0  0  0  0
  192.3510  172.5780  144.8980 N   0  0  0  0  0  0  0  0  0  0  0  0
  192.7670  171.7620  143.9740 C   0  0  0  0  0  3  0  0  0  0  0  0
  188.7640  177.0720  141.9870 C   0  0  2  0  0  3  0  0  0  0  0  0
  189.4910  175.5650  143.8460 O   0  0  0  0  0  0  0  0  0  0  0  0
  189.9170  177.9080  144.0300 C   0  0  0  0  0  1  0  0  0  0  0  0
  191.4500  173.7130  144.6610 C   0  0  0  0  0  3  0  0  0  0  0  0
  189.9270  174.6060  142.9220 C   0  0  0  0  0  0  0  0  0  0  0  0
  190.8610  173.7110  143.2730 C   0  0  0  0  0  0  0  0  0  0  0  0
  190.9310  172.9420  140.8940 N   0  0  0  0  0  0  0  0  0  0  0  0
  186.6740  178.3200  142.5820 C   0  0  0  0  0  2  0  0  0  0  0  0
  188.9440  176.8530  143.5150 C   0  0  1  0  0  0  0  0  0  0  0  0
  187.9280  178.3240  141.7040 C   0  0  0  0  0  2  0  0  0  0  0  0
  187.5670  177.0200  144.2000 C   0  0  1  0  0  3  0  0  0  0  0  0
  192.3160  171.8870  142.5810 C   0  0  0  0  0  3  0  0  0  0  0  0
  191.4070  172.8060  142.2440 C   0  0  2  0  0  3  0  0  0  0  0  0
  187.9760  175.6360  141.1900 S   0  0  0  0  0  0  0  0  0  0  0  0
  189.8790  173.8410  140.6250 N   0  0  0  0  0  0  0  0  0  0  0  0
  190.6050  170.8790  139.5860 C   0  0  0  0  0  2  0  0  0  0  0  0
  190.2810  171.4000  137.1340 C   0  0  1  0  0  3  0  0  0  0  0  0
  191.6250  172.1300  137.2790 C   0  0  1  0  0  3  0  0  0  0  0  0
  191.8390  172.9320  136.1560 O   0  0  0  0  0  1  0  0  0  0  0  0
  190.4790  170.1620  136.4010 N   0  0  0  0  0  1  0  0  0  0  0  0
  191.4740  172.1260  139.8110 C   0  0  1  0  0  3  0  0  0  0  0  0
  189.5890  171.1040  138.4710 C   0  0  0  0  0  2  0  0  0  0  0  0
  192.9070  173.6390  138.6350 O   0  0  0  0  0  1  0  0  0  0  0  0
  191.6800  172.9800  138.5500 C   0  0  1  0  0  3  0  0  0  0  0  0
  187.6390  176.7790  145.7040 C   0  0  0  0  0  2  0  0  0  0  0  0
  186.5890  177.6070  146.4200 C   0  0  0  0  0  3  0  0  0  0  0  0
  185.2930  176.8250  146.4650 C   0  0  0  0  0  2  0  0  0  0  0  0
  186.1780  176.8930  147.6910 C   0  0  0  0  0  2  0  0  0  0  0  0
  1 15  1  0  0  0  0
  2  9  1  0  0  0  0
  4  3  1  0  0  0  0
  5 14  1  1  0  0  0
  5 13  1  0  0  0  0
  8  3  2  0  0  0  0
  9 10  2  0  0  0  0
  9  6  1  0  0  0  0
 10  8  1  0  0  0  0
 11 17  1  0  0  0  0
 12  1  1  0  0  0  0
 13  6  1  0  0  0  0
 13  7  1  1  0  0  0
 13 15  1  0  0  0  0
 14 12  1  0  0  0  0
 15 29  1  1  0  0  0
 16  4  2  0  0  0  0
 17 16  1  1  0  0  0
 17 10  1  0  0  0  0
 18  2  1  0  0  0  0
 18  5  1  0  0  0  0
 19 11  1  0  0  0  0
 19  2  2  0  0  0  0
 21 24  1  1  0  0  0
 21 22  1  0  0  0  0
 21 26  1  0  0  0  0
 22 23  1  6  0  0  0
 22 28  1  0  0  0  0
 25 20  1  6  0  0  0
 25 11  1  0  0  0  0
 26 20  1  0  0  0  0
 28 27  1  1  0  0  0
 28 25  1  0  0  0  0
 29 30  1  0  0  0  0
 30 31  1  0  0  0  0
 30 32  1  0  0  0  0
 31 32  1  0  0  0  0
M  END
>  <MODEL>
3

>  <REMARK>
 VINA RESULT:      -7.0      3.290      7.867
  Name = 
  3 active torsions:
  status: ('A' for Active; 'I' for Inactive)
    1  A    between atoms: C_1  and  C_10
    2  A    between atoms: C_10  and  C_24
    3  A    between atoms: N_16  and  C_27
                            x       y       z     vdW  Elec       q    Type
                         _______ _______ _______ _____ _____    ______ ____

>  <TORSDO>
F 3

$$$$
=
 OpenBabel11052421353D

 32 37  0  0  1  0  0  0  0  0999 V2000
  190.3740  172.1000  138.6220 O   0  0  0  0  0  0  0  0  0  0  0  0
  188.9140  175.4040  142.0550 C   0  0  0  0  0  0  0  0  0  0  0  0
  192.5940  175.6100  145.3040 N   0  0  0  0  0  0  0  0  0  0  0  0
  191.8890  176.4650  145.9860 C   0  0  0  0  0  3  0  0  0  0  0  0
  188.7450  173.1970  140.7310 C   0  0  2  0  0  3  0  0  0  0  0  0
  190.9020  173.9340  141.7620 O   0  0  0  0  0  0  0  0  0  0  0  0
  190.4990  171.5970  141.4830 C   0  0  0  0  0  1  0  0  0  0  0  0
  192.1050  174.8800  144.1270 C   0  0  0  0  0  2  0  0  0  0  0  0
  190.2320  174.9160  142.5050 C   0  0  0  0  0  0  0  0  0  0  0  0
  190.7710  175.3870  143.6380 C   0  0  0  0  0  0  0  0  0  0  0  0
  188.6510  176.6470  144.0520 N   0  0  0  0  0  0  0  0  0  0  0  0
  189.0600  172.5120  138.3400 C   0  0  0  0  0  2  0  0  0  0  0  0
  190.2770  172.9820  140.8850 C   0  0  1  0  0  0  0  0  0  0  0  0
  188.1830  172.3520  139.5840 C   0  0  0  0  0  2  0  0  0  0  0  0
  190.9280  173.0670  139.4850 C   0  0  1  0  0  3  0  0  0  0  0  0
  190.5170  176.8150  145.5920 C   0  0  0  0  0  3  0  0  0  0  0  0
  189.9840  176.3110  144.4760 C   0  0  0  0  0  0  0  0  0  0  0  0
  188.3400  174.9480  140.4340 S   0  0  0  0  0  0  0  0  0  0  0  0
  188.1930  176.1880  142.8010 N   0  0  0  0  0  0  0  0  0  0  0  0
  187.1350  178.5900  143.9960 C   0  0  0  0  0  2  0  0  0  0  0  0
  184.8060  177.9450  144.7360 C   0  0  1  0  0  3  0  0  0  0  0  0
  185.5220  177.4410  145.9990 C   0  0  1  0  0  3  0  0  0  0  0  0
  184.6460  176.6470  146.7410 O   0  0  0  0  0  1  0  0  0  0  0  0
  184.0940  179.1730  145.0410 N   0  0  0  0  0  1  0  0  0  0  0  0
  187.7900  177.5030  144.8640 C   0  0  1  0  0  3  0  0  0  0  0  0
  185.7410  178.1710  143.5410 C   0  0  0  0  0  2  0  0  0  0  0  0
  187.3990  176.1990  146.8320 O   0  0  0  0  0  1  0  0  0  0  0  0
  186.7890  176.6530  145.6620 C   0  0  1  0  0  3  0  0  0  0  0  0
  192.4440  172.9090  139.5440 C   0  0  0  0  0  2  0  0  0  0  0  0
  193.1230  174.1510  139.0000 C   0  0  0  0  0  3  0  0  0  0  0  0
  193.9200  174.8010  140.1120 C   0  0  0  0  0  2  0  0  0  0  0  0
  194.6250  173.9640  139.0670 C   0  0  0  0  0  2  0  0  0  0  0  0
  1 15  1  0  0  0  0
  2  9  1  0  0  0  0
  2 19  2  0  0  0  0
  3  4  2  0  0  0  0
  5 14  1  6  0  0  0
  5 13  1  0  0  0  0
  6  9  1  0  0  0  0
  8  3  1  0  0  0  0
  9 10  2  0  0  0  0
 10  8  1  0  0  0  0
 10 17  1  0  0  0  0
 11 17  1  0  0  0  0
 11 25  1  0  0  0  0
 12  1  1  0  0  0  0
 12 14  1  0  0  0  0
 13  7  1  1  0  0  0
 13  6  1  0  0  0  0
 15 29  1  1  0  0  0
 15 13  1  0  0  0  0
 16  4  1  0  0  0  0
 17 16  2  0  0  0  0
 18  5  1  0  0  0  0
 18  2  1  0  0  0  0
 19 11  1  0  0  0  0
 21 24  1  1  0  0  0
 21 22  1  0  0  0  0
 22 23  1  6  0  0  0
 25 20  1  6  0  0  0
 25 28  1  0  0  0  0
 26 20  1  0  0  0  0
 26 21  1  0  0  0  0
 28 22  1  0  0  0  0
 28 27  1  1  0  0  0
 30 32  1  0  0  0  0
 30 29  1  0  0  0  0
 30 31  1  0  0  0  0
 32 31  1  0  0  0  0
M  END
>  <MODEL>
4

>  <REMARK>
 VINA RESULT:      -6.8      2.866      5.262
  Name = 
  3 active torsions:
  status: ('A' for Active; 'I' for Inactive)
    1  A    between atoms: C_1  and  C_10
    2  A    between atoms: C_10  and  C_24
    3  A    between atoms: N_16  and  C_27
                            x       y       z     vdW  Elec       q    Type
                         _______ _______ _______ _____ _____    ______ ____

>  <TORSDO>
F 3

$$$$
=
 OpenBabel11052421353D

 32 37  0  0  1  0  0  0  0  0999 V2000
  185.8580  177.8260  143.4740 O   0  0  0  0  0  0  0  0  0  0  0  0
  189.3090  174.3250  142.6550 C   0  0  0  0  0  0  0  0  0  0  0  0
  192.5730  174.8470  146.2900 N   0  0  0  0  0  0  0  0  0  0  0  0
  193.2590  173.8780  145.7580 C   0  0  0  0  0  3  0  0  0  0  0  0
  187.9680  176.4500  142.0740 C   0  0  2  0  0  3  0  0  0  0  0  0
  189.0130  176.1460  144.3270 O   0  0  0  0  0  0  0  0  0  0  0  0
  188.7160  178.3610  143.4860 C   0  0  0  0  0  1  0  0  0  0  0  0
  191.3890  175.4620  145.6760 C   0  0  0  0  0  3  0  0  0  0  0  0
  189.7600  175.0590  143.8530 C   0  0  0  0  0  0  0  0  0  0  0  0
  190.8980  174.7070  144.4670 C   0  0  0  0  0  0  0  0  0  0  0  0
  191.3140  173.0670  142.6250 N   0  0  0  0  0  0  0  0  0  0  0  0
  185.5740  177.1680  142.2640 C   0  0  0  0  0  2  0  0  0  0  0  0
  188.1260  176.9560  143.5360 C   0  0  1  0  0  0  0  0  0  0  0  0
  186.8140  177.1660  141.3660 C   0  0  0  0  0  2  0  0  0  0  0  0
  186.7300  176.9880  144.1980 C   0  0  1  0  0  3  0  0  0  0  0  0
  192.8620  173.2690  144.4800 C   0  0  0  0  0  3  0  0  0  0  0  0
  191.7400  173.6550  143.8670 C   0  0  2  0  0  3  0  0  0  0  0  0
  187.6820  174.6520  142.0130 S   0  0  0  0  0  0  0  0  0  0  0  0
  190.0580  173.4230  142.0930 N   0  0  0  0  0  0  0  0  0  0  0  0
  191.8010  170.6570  142.4530 C   0  0  0  0  0  2  0  0  0  0  0  0
  191.3080  169.7940  140.1290 C   0  0  1  0  0  3  0  0  0  0  0  0
  192.2720  170.9060  139.6880 C   0  0  1  0  0  3  0  0  0  0  0  0
  192.1660  171.0890  138.3080 O   0  0  0  0  0  1  0  0  0  0  0  0
  191.9630  168.5050  140.0000 N   0  0  0  0  0  1  0  0  0  0  0  0
  192.1290  172.0670  141.9390 C   0  0  1  0  0  3  0  0  0  0  0  0
  190.7780  169.9640  141.5590 C   0  0  0  0  0  2  0  0  0  0  0  0
  192.8800  173.2100  139.9750 O   0  0  0  0  0  1  0  0  0  0  0  0
  191.9970  172.2240  140.4160 C   0  0  1  0  0  3  0  0  0  0  0  0
  186.7930  177.4340  145.6550 C   0  0  0  0  0  2  0  0  0  0  0  0
  185.8690  178.6140  145.8850 C   0  0  0  0  0  3  0  0  0  0  0  0
  184.7530  178.1900  146.8160 C   0  0  0  0  0  2  0  0  0  0  0  0
  185.9140  179.0010  147.3490 C   0  0  0  0  0  2  0  0  0  0  0  0
  1 15  1  0  0  0  0
  2  9  1  0  0  0  0
  4  3  1  0  0  0  0
  5 14  1  1  0  0  0
  5 13  1  0  0  0  0
  8  3  2  0  0  0  0
  9  6  1  0  0  0  0
  9 10  2  0  0  0  0
 10  8  1  0  0  0  0
 11 17  1  0  0  0  0
 12  1  1  0  0  0  0
 13  7  1  6  0  0  0
 13 15  1  0  0  0  0
 13  6  1  0  0  0  0
 14 12  1  0  0  0  0
 15 29  1  1  0  0  0
 16  4  2  0  0  0  0
 17 10  1  0  0  0  0
 17 16  1  1  0  0  0
 18  5  1  0  0  0  0
 18  2  1  0  0  0  0
 19 11  1  0  0  0  0
 19  2  2  0  0  0  0
 21 24  1  1  0  0  0
 21 26  1  0  0  0  0
 22 23  1  6  0  0  0
 22 21  1  0  0  0  0
 22 28  1  0  0  0  0
 25 20  1  1  0  0  0
 25 11  1  0  0  0  0
 26 20  1  0  0  0  0
 28 27  1  6  0  0  0
 28 25  1  0  0  0  0
 29 30  1  0  0  0  0
 30 31  1  0  0  0  0
 30 32  1  0  0  0  0
 31 32  1  0  0  0  0
M  END
>  <MODEL>
5

>  <REMARK>
 VINA RESULT:      -6.6      3.028      8.236
  Name = 
  3 active torsions:
  status: ('A' for Active; 'I' for Inactive)
    1  A    between atoms: C_1  and  C_10
    2  A    between atoms: C_10  and  C_24
    3  A    between atoms: N_16  and  C_27
                            x       y       z     vdW  Elec       q    Type
                         _______ _______ _______ _____ _____    ______ ____

>  <TORSDO>
F 3

$$$$
=
 OpenBabel11052421353D

 32 37  0  0  1  0  0  0  0  0999 V2000
  187.1290  177.1030  144.3620 O   0  0  0  0  0  0  0  0  0  0  0  0
  189.6500  173.9900  141.3960 C   0  0  0  0  0  0  0  0  0  0  0  0
  194.3920  174.8250  142.3730 N   0  0  0  0  0  0  0  0  0  0  0  0
  194.6920  173.9370  141.4710 C   0  0  0  0  0  3  0  0  0  0  0  0
  188.0680  175.9670  141.8850 C   0  0  2  0  0  3  0  0  0  0  0  0
  190.2800  175.7570  143.0330 O   0  0  0  0  0  0  0  0  0  0  0  0
  189.3610  177.9350  142.6950 C   0  0  0  0  0  1  0  0  0  0  0  0
  193.0340  175.3170  142.6360 C   0  0  0  0  0  3  0  0  0  0  0  0
  190.6730  174.7590  142.1320 C   0  0  0  0  0  0  0  0  0  0  0  0
  191.9750  174.5230  141.9140 C   0  0  0  0  0  0  0  0  0  0  0  0
  191.3230  172.9500  140.0830 N   0  0  0  0  0  0  0  0  0  0  0  0
  186.2260  176.4280  143.5220 C   0  0  0  0  0  2  0  0  0  0  0  0
  189.0350  176.4750  142.9900 C   0  0  1  0  0  0  0  0  0  0  0  0
  186.6680  176.5620  142.0620 C   0  0  0  0  0  2  0  0  0  0  0  0
  188.3240  176.3560  144.3580 C   0  0  1  0  0  3  0  0  0  0  0  0
  193.6540  173.3000  140.6480 C   0  0  0  0  0  3  0  0  0  0  0  0
  192.3640  173.5700  140.8580 C   0  0  2  0  0  3  0  0  0  0  0  0
  187.9470  174.1490  141.8830 S   0  0  0  0  0  0  0  0  0  0  0  0
  189.9770  173.1760  140.4370 N   0  0  0  0  0  0  0  0  0  0  0  0
  191.8520  170.6160  139.4950 C   0  0  0  0  0  2  0  0  0  0  0  0
  190.1150  169.6580  137.9280 C   0  0  1  0  0  3  0  0  0  0  0  0
  190.4680  170.8730  137.0550 C   0  0  1  0  0  3  0  0  0  0  0  0
  189.5070  171.0170  136.0530 O   0  0  0  0  0  1  0  0  0  0  0  0
  190.6810  168.4580  137.3390 N   0  0  0  0  0  1  0  0  0  0  0  0
  191.6340  172.0470  138.9780 C   0  0  1  0  0  3  0  0  0  0  0  0
  190.5770  169.7860  139.3850 C   0  0  0  0  0  2  0  0  0  0  0  0
  190.8710  173.2390  137.0480 O   0  0  0  0  0  1  0  0  0  0  0  0
  190.5670  172.1590  137.8780 C   0  0  1  0  0  3  0  0  0  0  0  0
  189.2190  176.7940  145.5130 C   0  0  0  0  0  2  0  0  0  0  0  0
  188.9930  175.9050  146.7210 C   0  0  0  0  0  3  0  0  0  0  0  0
  189.4670  174.5040  146.3950 C   0  0  0  0  0  2  0  0  0  0  0  0
  190.3320  175.4180  147.2350 C   0  0  0  0  0  2  0  0  0  0  0  0
  2 18  1  0  0  0  0
  2  9  1  0  0  0  0
  3  8  2  0  0  0  0
  4  3  1  0  0  0  0
  5 14  1  1  0  0  0
  5 13  1  0  0  0  0
  9  6  1  0  0  0  0
 10  9  2  0  0  0  0
 10  8  1  0  0  0  0
 11 19  1  0  0  0  0
 11 17  1  0  0  0  0
 12  1  1  0  0  0  0
 13  7  1  6  0  0  0
 13  6  1  0  0  0  0
 13 15  1  0  0  0  0
 14 12  1  0  0  0  0
 15  1  1  0  0  0  0
 15 29  1  1  0  0  0
 16  4  2  0  0  0  0
 17 16  1  1  0  0  0
 17 10  1  0  0  0  0
 18  5  1  0  0  0  0
 19  2  2  0  0  0  0
 21 24  1  6  0  0  0
 21 26  1  0  0  0  0
 22 23  1  6  0  0  0
 22 28  1  0  0  0  0
 22 21  1  0  0  0  0
 25 20  1  1  0  0  0
 25 11  1  0  0  0  0
 26 20  1  0  0  0  0
 28 27  1  6  0  0  0
 28 25  1  0  0  0  0
 29 30  1  0  0  0  0
 30 32  1  0  0  0  0
 31 30  1  0  0  0  0
 31 32  1  0  0  0  0
M  END
>  <MODEL>
6

>  <REMARK>
 VINA RESULT:      -6.6      3.712      7.727
  Name = 
  3 active torsions:
  status: ('A' for Active; 'I' for Inactive)
    1  A    between atoms: C_1  and  C_10
    2  A    between atoms: C_10  and  C_24
    3  A    between atoms: N_16  and  C_27
                            x       y       z     vdW  Elec       q    Type
                         _______ _______ _______ _____ _____    ______ ____

>  <TORSDO>
F 3

$$$$
=
 OpenBabel11052421353D

 32 37  0  0  1  0  0  0  0  0999 V2000
  192.6430  170.0170  140.9780 O   0  0  0  0  0  0  0  0  0  0  0  0
  190.9250  174.0420  143.3630 C   0  0  0  0  0  0  0  0  0  0  0  0
  194.5850  175.4570  146.3190 N   0  0  0  0  0  0  0  0  0  0  0  0
  193.8150  176.4140  146.7480 C   0  0  0  0  0  3  0  0  0  0  0  0
  190.9360  171.5420  142.7280 C   0  0  2  0  0  3  0  0  0  0  0  0
  193.0270  172.7100  143.4490 O   0  0  0  0  0  0  0  0  0  0  0  0
  192.8180  170.3670  143.8590 C   0  0  0  0  0  1  0  0  0  0  0  0
  194.1550  174.3850  145.4130 C   0  0  0  0  0  3  0  0  0  0  0  0
  192.2800  173.8070  143.8980 C   0  0  0  0  0  0  0  0  0  0  0  0
  192.7830  174.6240  144.8350 C   0  0  0  0  0  0  0  0  0  0  0  0
  190.5670  175.7810  144.9290 N   0  0  0  0  0  0  0  0  0  0  0  0
  191.2980  170.2280  140.6250 C   0  0  0  0  0  2  0  0  0  0  0  0
  192.4800  171.5000  142.8970 C   0  0  1  0  0  0  0  0  0  0  0  0
  190.4410  170.3620  141.8860 C   0  0  0  0  0  2  0  0  0  0  0  0
  193.1180  171.2310  141.5140 C   0  0  1  0  0  3  0  0  0  0  0  0
  192.4170  176.5270  146.3070 C   0  0  0  0  0  3  0  0  0  0  0  0
  191.9250  175.6850  145.3950 C   0  0  2  0  0  3  0  0  0  0  0  0
  190.3870  173.0970  141.9550 S   0  0  0  0  0  0  0  0  0  0  0  0
  190.1440  174.9480  143.8730 N   0  0  0  0  0  0  0  0  0  0  0  0
  189.4160  177.9160  144.4940 C   0  0  0  0  0  2  0  0  0  0  0  0
  186.9060  177.6180  144.5330 C   0  0  1  0  0  3  0  0  0  0  0  0
  187.1590  177.0400  145.9340 C   0  0  1  0  0  3  0  0  0  0  0  0
  186.0080  176.3900  146.3820 O   0  0  0  0  0  1  0  0  0  0  0  0
  186.3160  178.9390  144.6540 N   0  0  0  0  0  1  0  0  0  0  0  0
  189.6400  176.7630  145.4850 C   0  0  1  0  0  3  0  0  0  0  0  0
  188.1620  177.6900  143.6550 C   0  0  0  0  0  2  0  0  0  0  0  0
  188.5320  175.5610  147.2320 O   0  0  0  0  0  1  0  0  0  0  0  0
  188.3470  176.0760  145.9490 C   0  0  1  0  0  3  0  0  0  0  0  0
  194.6420  171.2160  141.5760 C   0  0  0  0  0  2  0  0  0  0  0  0
  195.2090  172.4300  140.8650 C   0  0  0  0  0  3  0  0  0  0  0  0
  196.3600  172.9830  141.6790 C   0  0  0  0  0  2  0  0  0  0  0  0
  196.6370  172.1410  140.4530 C   0  0  0  0  0  2  0  0  0  0  0  0
  1 15  1  0  0  0  0
  2 19  2  0  0  0  0
  2  9  1  0  0  0  0
  3  4  1  0  0  0  0
  5 14  1  6  0  0  0
  5 13  1  0  0  0  0
  6  9  1  0  0  0  0
  8  3  2  0  0  0  0
  9 10  2  0  0  0  0
 10 17  1  0  0  0  0
 10  8  1  0  0  0  0
 11 17  1  0  0  0  0
 11 25  1  0  0  0  0
 12  1  1  0  0  0  0
 12 14  1  0  0  0  0
 13  6  1  0  0  0  0
 13  7  1  1  0  0  0
 15 29  1  1  0  0  0
 15 13  1  0  0  0  0
 16  4  2  0  0  0  0
 17 16  1  6  0  0  0
 18  5  1  0  0  0  0
 18  2  1  0  0  0  0
 19 11  1  0  0  0  0
 21 24  1  1  0  0  0
 21 22  1  0  0  0  0
 22 28  1  0  0  0  0
 22 23  1  6  0  0  0
 25 20  1  6  0  0  0
 25 28  1  0  0  0  0
 26 20  1  0  0  0  0
 26 21  1  0  0  0  0
 28 27  1  1  0  0  0
 30 29  1  0  0  0  0
 30 31  1  0  0  0  0
 32 30  1  0  0  0  0
 32 31  1  0  0  0  0
M  END
>  <MODEL>
7

>  <REMARK>
 VINA RESULT:      -6.3      3.063      5.105
  Name = 
  3 active torsions:
  status: ('A' for Active; 'I' for Inactive)
    1  A    between atoms: C_1  and  C_10
    2  A    between atoms: C_10  and  C_24
    3  A    between atoms: N_16  and  C_27
                            x       y       z     vdW  Elec       q    Type
                         _______ _______ _______ _____ _____    ______ ____

>  <TORSDO>
F 3

$$$$
=
 OpenBabel11052421353D

 32 37  0  0  1  0  0  0  0  0999 V2000
  185.2810  178.7130  145.1530 O   0  0  0  0  0  0  0  0  0  0  0  0
  189.5970  176.4420  144.1240 C   0  0  0  0  0  0  0  0  0  0  0  0
  188.5180  173.1020  140.6870 N   0  0  0  0  0  0  0  0  0  0  0  0
  189.7660  172.7370  140.7080 C   0  0  0  0  0  3  0  0  0  0  0  0
  187.6300  177.1190  145.6490 C   0  0  2  0  0  3  0  0  0  0  0  0
  187.2410  176.1660  143.3690 O   0  0  0  0  0  0  0  0  0  0  0  0
  185.5870  175.8230  145.0570 C   0  0  0  0  0  1  0  0  0  0  0  0
  187.9180  174.0670  141.6170 C   0  0  0  0  0  2  0  0  0  0  0  0
  188.5840  175.7760  143.2830 C   0  0  0  0  0  0  0  0  0  0  0  0
  188.9430  174.7780  142.4640 C   0  0  0  0  0  0  0  0  0  0  0  0
  191.2450  174.8900  143.4340 N   0  0  0  0  0  0  0  0  0  0  0  0
  186.2780  179.1970  146.0170 C   0  0  0  0  0  2  0  0  0  0  0  0
  186.6260  176.7940  144.5070 C   0  0  1  0  0  0  0  0  0  0  0  0
  186.9900  178.0280  146.7020 C   0  0  0  0  0  2  0  0  0  0  0  0
  185.9430  178.1090  144.0650 C   0  0  1  0  0  3  0  0  0  0  0  0
  190.7180  173.3170  141.6660 C   0  0  0  0  0  3  0  0  0  0  0  0
  190.3340  174.2890  142.4970 C   0  0  0  0  0  0  0  0  0  0  0  0
  189.1380  177.9160  145.0100 S   0  0  0  0  0  0  0  0  0  0  0  0
  190.8170  175.9980  144.1920 N   0  0  0  0  0  0  0  0  0  0  0  0
  193.4690  174.8640  142.3700 C   0  0  0  0  0  2  0  0  0  0  0  0
  195.1970  175.9590  143.8550 C   0  0  1  0  0  3  0  0  0  0  0  0
  194.7220  174.9300  144.8920 C   0  0  1  0  0  3  0  0  0  0  0  0
  195.2120  175.2810  146.1500 O   0  0  0  0  0  1  0  0  0  0  0  0
  196.5040  175.5720  143.3530 N   0  0  0  0  0  1  0  0  0  0  0  0
  192.6200  174.4140  143.5690 C   0  0  1  0  0  3  0  0  0  0  0  0
  194.2280  176.1500  142.6810 C   0  0  0  0  0  2  0  0  0  0  0  0
  192.8050  173.8940  145.8980 O   0  0  0  0  0  1  0  0  0  0  0  0
  193.1960  174.8230  144.9330 C   0  0  1  0  0  3  0  0  0  0  0  0
  184.9680  177.8920  142.9130 C   0  0  0  0  0  2  0  0  0  0  0  0
  185.4200  178.6660  141.6890 C   0  0  0  0  0  3  0  0  0  0  0  0
  185.9220  177.6880  140.6480 C   0  0  0  0  0  2  0  0  0  0  0  0
  184.5410  178.2910  140.5140 C   0  0  0  0  0  2  0  0  0  0  0  0
  1 12  1  0  0  0  0
  2 19  2  0  0  0  0
  2 18  1  0  0  0  0
  3  4  2  0  0  0  0
  3  8  1  0  0  0  0
  4 16  1  0  0  0  0
  5 14  1  1  0  0  0
  6 13  1  0  0  0  0
  8 10  1  0  0  0  0
  9  6  1  0  0  0  0
  9  2  1  0  0  0  0
 10 17  1  0  0  0  0
 10  9  2  0  0  0  0
 11 25  1  0  0  0  0
 11 19  1  0  0  0  0
 12 14  1  0  0  0  0
 13  7  1  1  0  0  0
 13  5  1  0  0  0  0
 15 29  1  6  0  0  0
 15 13  1  0  0  0  0
 15  1  1  0  0  0  0
 16 17  2  0  0  0  0
 17 11  1  0  0  0  0
 18  5  1  0  0  0  0
 20 26  1  0  0  0  0
 21 24  1  6  0  0  0
 21 22  1  0  0  0  0
 22 28  1  0  0  0  0
 22 23  1  1  0  0  0
 25 20  1  6  0  0  0
 25 28  1  0  0  0  0
 26 21  1  0  0  0  0
 28 27  1  1  0  0  0
 30 29  1  0  0  0  0
 31 30  1  0  0  0  0
 32 31  1  0  0  0  0
 32 30  1  0  0  0  0
M  END
>  <MODEL>
8

>  <REMARK>
 VINA RESULT:      -6.1      2.286      7.757
  Name = 
  3 active torsions:
  status: ('A' for Active; 'I' for Inactive)
    1  A    between atoms: C_1  and  C_10
    2  A    between atoms: C_10  and  C_24
    3  A    between atoms: N_16  and  C_27
                            x       y       z     vdW  Elec       q    Type
                         _______ _______ _______ _____ _____    ______ ____

>  <TORSDO>
F 3

$$$$
=
 OpenBabel11052421353D

 32 37  0  0  1  0  0  0  0  0999 V2000
  183.8590  178.6610  142.8100 O   0  0  0  0  0  0  0  0  0  0  0  0
  188.1360  176.1340  143.2190 C   0  0  0  0  0  0  0  0  0  0  0  0
  190.0660  177.5390  147.5130 N   0  0  0  0  0  0  0  0  0  0  0  0
  191.0810  176.7660  147.2640 C   0  0  0  0  0  3  0  0  0  0  0  0
  186.5360  177.8380  142.1290 C   0  0  2  0  0  3  0  0  0  0  0  0
  186.9700  177.8540  144.5920 O   0  0  0  0  0  0  0  0  0  0  0  0
  186.3930  179.9040  143.5130 C   0  0  0  0  0  1  0  0  0  0  0  0
  188.9820  177.8220  146.5640 C   0  0  0  0  0  3  0  0  0  0  0  0
  188.0550  176.9830  144.4240 C   0  0  0  0  0  0  0  0  0  0  0  0
  189.0340  176.9430  145.3400 C   0  0  0  0  0  0  0  0  0  0  0  0
  190.3140  175.4260  143.8180 N   0  0  0  0  0  0  0  0  0  0  0  0
  184.0820  177.9290  141.6300 C   0  0  0  0  0  2  0  0  0  0  0  0
  186.1660  178.3960  143.5310 C   0  0  1  0  0  0  0  0  0  0  0  0
  185.4820  178.2230  141.0870 C   0  0  0  0  0  2  0  0  0  0  0  0
  184.6760  178.0870  143.8050 C   0  0  1  0  0  3  0  0  0  0  0  0
  191.2040  176.0510  145.9850 C   0  0  0  0  0  3  0  0  0  0  0  0
  190.2330  176.1270  145.0710 C   0  0  2  0  0  3  0  0  0  0  0  0
  186.7160  176.0260  142.1530 S   0  0  0  0  0  0  0  0  0  0  0  0
  189.2030  175.4410  142.9510 N   0  0  0  0  0  0  0  0  0  0  0  0
  191.1320  173.1770  143.2280 C   0  0  0  0  0  2  0  0  0  0  0  0
  192.1470  173.1590  140.9130 C   0  0  1  0  0  3  0  0  0  0  0  0
  193.0330  174.2850  141.4690 C   0  0  1  0  0  3  0  0  0  0  0  0
  193.6950  174.9160  140.4150 O   0  0  0  0  0  1  0  0  0  0  0  0
  192.9290  171.9420  140.7940 N   0  0  0  0  0  1  0  0  0  0  0  0
  191.4990  174.6520  143.4560 C   0  0  1  0  0  3  0  0  0  0  0  0
  190.8900  172.8870  141.7500 C   0  0  0  0  0  2  0  0  0  0  0  0
  193.0590  176.3200  142.7410 O   0  0  0  0  0  1  0  0  0  0  0  0
  192.2230  175.3070  142.2700 C   0  0  1  0  0  3  0  0  0  0  0  0
  184.2320  178.5620  145.1850 C   0  0  0  0  0  2  0  0  0  0  0  0
  185.2680  178.1870  146.2280 C   0  0  0  0  0  3  0  0  0  0  0  0
  184.6410  178.2900  147.6020 C   0  0  0  0  0  2  0  0  0  0  0  0
  184.8130  176.9360  146.9490 C   0  0  0  0  0  2  0  0  0  0  0  0
  1 15  1  0  0  0  0
  2  9  1  0  0  0  0
  4  3  1  0  0  0  0
  5 14  1  6  0  0  0
  5 18  1  0  0  0  0
  5 13  1  0  0  0  0
  8  3  2  0  0  0  0
  9  6  1  0  0  0  0
  9 10  2  0  0  0  0
 10  8  1  0  0  0  0
 11 17  1  0  0  0  0
 12  1  1  0  0  0  0
 13  7  1  6  0  0  0
 13 15  1  0  0  0  0
 13  6  1  0  0  0  0
 14 12  1  0  0  0  0
 15 29  1  1  0  0  0
 16  4  2  0  0  0  0
 17 10  1  0  0  0  0
 17 16  1  1  0  0  0
 18  2  1  0  0  0  0
 19  2  2  0  0  0  0
 19 11  1  0  0  0  0
 21 24  1  1  0  0  0
 21 22  1  0  0  0  0
 21 26  1  0  0  0  0
 22 23  1  6  0  0  0
 22 28  1  0  0  0  0
 25 20  1  6  0  0  0
 25 11  1  0  0  0  0
 26 20  1  0  0  0  0
 28 27  1  1  0  0  0
 28 25  1  0  0  0  0
 29 30  1  0  0  0  0
 30 32  1  0  0  0  0
 30 31  1  0  0  0  0
 32 31  1  0  0  0  0
M  END
>  <MODEL>
9

>  <REMARK>
 VINA RESULT:      -6.0      2.928      8.254
  Name = 
  3 active torsions:
  status: ('A' for Active; 'I' for Inactive)
    1  A    between atoms: C_1  and  C_10
    2  A    between atoms: C_10  and  C_24
    3  A    between atoms: N_16  and  C_27
                            x       y       z     vdW  Elec       q    Type
                         _______ _______ _______ _____ _____    ______ ____

>  <TORSDO>
F 3

$$$$
