=
 OpenBabel11052418563D

 34 39  0  0  1  0  0  0  0  0999 V2000
  192.4180  176.7910  144.8790 C   0  0  2  0  0  3  0  0  0  0  0  0
  192.2090  174.2620  144.9880 C   0  0  0  0  0  0  0  0  0  0  0  0
  190.5710  175.6240  143.6900 N   0  0  0  0  0  0  0  0  0  0  0  0
  188.6850  174.6630  142.3710 C   0  0  0  0  0  0  0  0  0  0  0  0
  193.7660  175.4080  146.4660 C   0  0  0  0  0  2  0  0  0  0  0  0
  193.0850  174.2400  145.9400 N   0  0  0  0  0  0  0  0  0  0  0  0
  190.9890  174.3130  141.6900 C   0  0  0  0  0  3  0  0  0  0  0  0
  191.9640  175.5180  144.1590 C   0  0  1  0  0  3  0  0  0  0  0  0
  190.5160  173.5180  140.5460 C   0  0  0  0  0  3  0  0  0  0  0  0
  188.1610  173.7130  141.3300 C   0  0  0  0  0  2  0  0  0  0  0  0
  193.8050  176.5630  145.4650 C   0  0  0  0  0  2  0  0  0  0  0  0
  189.5890  176.4040  144.4190 C   0  0  0  0  0  0  0  0  0  0  0  0
  191.4210  177.1600  145.9730 C   0  0  0  0  0  2  0  0  0  0  0  0
  191.6090  172.9610  144.5680 C   0  0  0  0  0  1  0  0  0  0  0  0
  187.8540  175.2990  143.1360 N   0  0  0  0  0  0  0  0  0  0  0  0
  188.2660  176.2400  144.1480 C   0  0  0  0  0  0  0  0  0  0  0  0
  189.2150  173.2450  140.3550 C   0  0  0  0  0  0  0  0  0  0  0  0
  190.1290  174.8510  142.5600 C   0  0  0  0  0  0  0  0  0  0  0  0
  190.0650  177.4740  145.3670 C   0  0  0  0  0  2  0  0  0  0  0  0
  185.7090  178.9240  144.8980 C   0  0  0  0  0  0  0  0  0  0  0  0
  185.2130  178.5160  146.1390 C   0  0  0  0  0  3  0  0  0  0  0  0
  187.1850  176.9900  144.8390 C   0  0  0  0  0  0  0  0  0  0  0  0
  185.7060  177.3550  146.7390 C   0  0  0  0  0  3  0  0  0  0  0  0
  186.6940  178.1680  144.2560 C   0  0  0  0  0  3  0  0  0  0  0  0
  186.6900  176.6000  146.0950 C   0  0  0  0  0  3  0  0  0  0  0  0
  185.1930  180.1640  144.2630 C   0  0  0  0  0  1  0  0  0  0  0  0
  188.7910  172.4950  139.2530 O   0  0  0  0  0  0  0  0  0  0  0  0
  189.6880  171.9520  138.2910 C   0  0  0  0  0  2  0  0  0  0  0  0
  190.8040  169.8870  140.5870 O   0  0  0  0  0  1  0  0  0  0  0  0
  191.0990  170.1470  139.2490 C   0  0  2  0  0  3  0  0  0  0  0  0
  190.9090  168.6000  137.4940 C   0  0  0  0  0  2  0  0  0  0  0  0
  189.9870  169.7540  137.1790 C   0  0  0  0  0  2  0  0  0  0  0  0
  189.8240  170.4550  138.4970 C   0  0  2  0  0  3  0  0  0  0  0  0
  191.7220  168.9740  138.6460 N   0  0  0  0  0  2  0  0  0  0  0  0
  1 11  1  1  0  0  0
  1 13  1  0  0  0  0
  2  6  2  0  0  0  0
  3  8  1  0  0  0  0
  3 12  1  0  0  0  0
  4 18  1  0  0  0  0
  4 15  2  0  0  0  0
  6  5  1  0  0  0  0
  7 18  2  0  0  0  0
  8  1  1  0  0  0  0
  8  2  1  1  0  0  0
  9  7  1  0  0  0  0
 10  4  1  0  0  0  0
 11  5  1  0  0  0  0
 12 19  1  0  0  0  0
 14  2  1  0  0  0  0
 15 16  1  0  0  0  0
 16 12  2  0  0  0  0
 16 22  1  0  0  0  0
 17  9  2  0  0  0  0
 17 10  1  0  0  0  0
 18  3  1  0  0  0  0
 19 13  1  0  0  0  0
 20 21  1  0  0  0  0
 21 23  2  0  0  0  0
 22 25  2  0  0  0  0
 24 22  1  0  0  0  0
 24 20  2  0  0  0  0
 25 23  1  0  0  0  0
 26 20  1  0  0  0  0
 27 17  1  0  0  0  0
 28 27  1  0  0  0  0
 30 29  1  1  0  0  0
 31 34  1  0  0  0  0
 32 31  1  0  0  0  0
 32 33  1  0  0  0  0
 33 28  1  6  0  0  0
 33 30  1  0  0  0  0
 34 30  1  0  0  0  0
M  END
>  <MODEL>
1

>  <REMARK>
 VINA RESULT:      -8.1      0.000      0.000
  Name = 
  4 active torsions:
  status: ('A' for Active; 'I' for Inactive)
    1  A    between atoms: O_3  and  C_13
    2  A    between atoms: O_3  and  C_29
    3  A    between atoms: C_12  and  C_28
    4  A    between atoms: C_13  and  C_33
                            x       y       z     vdW  Elec       q    Type
                         _______ _______ _______ _____ _____    ______ ____

>  <TORSDO>
F 4

$$$$
=
 OpenBabel11052418563D

 34 39  0  0  1  0  0  0  0  0999 V2000
  192.5030  176.7140  144.7110 C   0  0  2  0  0  3  0  0  0  0  0  0
  192.2930  174.1870  144.8600 C   0  0  0  0  0  0  0  0  0  0  0  0
  190.6400  175.5310  143.5620 N   0  0  0  0  0  0  0  0  0  0  0  0
  188.7370  174.5520  142.2810 C   0  0  0  0  0  0  0  0  0  0  0  0
  193.8700  175.3530  146.3010 C   0  0  0  0  0  2  0  0  0  0  0  0
  193.1810  174.1770  145.8010 N   0  0  0  0  0  0  0  0  0  0  0  0
  191.0320  174.1900  141.5770 C   0  0  0  0  0  3  0  0  0  0  0  0
  192.0390  175.4310  144.0160 C   0  0  1  0  0  3  0  0  0  0  0  0
  190.5450  173.3780  140.4500 C   0  0  0  0  0  3  0  0  0  0  0  0
  188.2000  173.5880  141.2600 C   0  0  0  0  0  2  0  0  0  0  0  0
  193.8970  176.4920  145.2830 C   0  0  0  0  0  2  0  0  0  0  0  0
  189.6680  176.3230  144.2910 C   0  0  0  0  0  0  0  0  0  0  0  0
  191.5200  177.1000  145.8110 C   0  0  0  0  0  2  0  0  0  0  0  0
  191.6870  172.8800  144.4670 C   0  0  0  0  0  1  0  0  0  0  0  0
  187.9160  175.2010  143.0470 N   0  0  0  0  0  0  0  0  0  0  0  0
  188.3410  176.1570  144.0390 C   0  0  0  0  0  0  0  0  0  0  0  0
  189.2410  173.1050  140.2800 C   0  0  0  0  0  0  0  0  0  0  0  0
  190.1840  174.7420  142.4490 C   0  0  0  0  0  0  0  0  0  0  0  0
  190.1570  177.4060  145.2180 C   0  0  0  0  0  2  0  0  0  0  0  0
  185.8360  178.8820  144.8110 C   0  0  0  0  0  0  0  0  0  0  0  0
  185.3180  178.4640  146.0390 C   0  0  0  0  0  3  0  0  0  0  0  0
  187.2700  176.9170  144.7330 C   0  0  0  0  0  0  0  0  0  0  0  0
  185.7790  177.2820  146.6230 C   0  0  0  0  0  3  0  0  0  0  0  0
  186.8120  178.1160  144.1660 C   0  0  0  0  0  3  0  0  0  0  0  0
  186.7540  176.5170  145.9760 C   0  0  0  0  0  3  0  0  0  0  0  0
  185.3540  180.1440  144.1930 C   0  0  0  0  0  1  0  0  0  0  0  0
  188.8030  172.3390  139.1940 O   0  0  0  0  0  0  0  0  0  0  0  0
  189.1250  172.6490  137.8440 C   0  0  0  0  0  2  0  0  0  0  0  0
  191.7790  170.7550  138.2350 O   0  0  0  0  0  1  0  0  0  0  0  0
  191.2730  171.5680  137.2210 C   0  0  2  0  0  3  0  0  0  0  0  0
  190.6760  170.8410  135.0700 C   0  0  0  0  0  2  0  0  0  0  0  0
  189.4370  171.4200  135.7100 C   0  0  0  0  0  2  0  0  0  0  0  0
  189.7660  171.4470  137.1750 C   0  0  2  0  0  3  0  0  0  0  0  0
  191.8120  171.1430  135.9340 N   0  0  0  0  0  2  0  0  0  0  0  0
  1 11  1  1  0  0  0
  1 13  1  0  0  0  0
  2  6  2  0  0  0  0
  3  8  1  0  0  0  0
  3 12  1  0  0  0  0
  4 18  1  0  0  0  0
  4 15  2  0  0  0  0
  6  5  1  0  0  0  0
  7 18  2  0  0  0  0
  8  1  1  0  0  0  0
  8  2  1  1  0  0  0
  9  7  1  0  0  0  0
 10  4  1  0  0  0  0
 11  5  1  0  0  0  0
 12 19  1  0  0  0  0
 14  2  1  0  0  0  0
 15 16  1  0  0  0  0
 16 12  2  0  0  0  0
 16 22  1  0  0  0  0
 17  9  2  0  0  0  0
 17 10  1  0  0  0  0
 18  3  1  0  0  0  0
 19 13  1  0  0  0  0
 20 21  1  0  0  0  0
 21 23  2  0  0  0  0
 22 25  2  0  0  0  0
 24 22  1  0  0  0  0
 24 20  2  0  0  0  0
 25 23  1  0  0  0  0
 26 20  1  0  0  0  0
 27 17  1  0  0  0  0
 28 27  1  0  0  0  0
 30 29  1  1  0  0  0
 31 32  1  0  0  0  0
 31 34  1  0  0  0  0
 32 33  1  0  0  0  0
 33 30  1  0  0  0  0
 33 28  1  6  0  0  0
 34 30  1  0  0  0  0
M  END
>  <MODEL>
2

>  <REMARK>
 VINA RESULT:      -8.1      1.110      1.165
  Name = 
  4 active torsions:
  status: ('A' for Active; 'I' for Inactive)
    1  A    between atoms: O_3  and  C_13
    2  A    between atoms: O_3  and  C_29
    3  A    between atoms: C_12  and  C_28
    4  A    between atoms: C_13  and  C_33
                            x       y       z     vdW  Elec       q    Type
                         _______ _______ _______ _____ _____    ______ ____

>  <TORSDO>
F 4

$$$$
=
 OpenBabel11052418563D

 34 39  0  0  1  0  0  0  0  0999 V2000
  192.1130  176.7340  144.5730 C   0  0  2  0  0  3  0  0  0  0  0  0
  191.6270  174.2690  144.9430 C   0  0  0  0  0  0  0  0  0  0  0  0
  190.3300  175.5890  143.2700 N   0  0  0  0  0  0  0  0  0  0  0  0
  188.5490  174.6330  141.8080 C   0  0  0  0  0  0  0  0  0  0  0  0
  193.0820  175.4570  146.4900 C   0  0  0  0  0  2  0  0  0  0  0  0
  192.3600  174.2940  146.0090 N   0  0  0  0  0  0  0  0  0  0  0  0
  190.8750  173.9970  141.5190 C   0  0  0  0  0  3  0  0  0  0  0  0
  191.6290  175.4230  143.9470 C   0  0  1  0  0  3  0  0  0  0  0  0
  190.4790  173.1050  140.4180 C   0  0  0  0  0  3  0  0  0  0  0  0
  188.0740  173.6050  140.8190 C   0  0  0  0  0  2  0  0  0  0  0  0
  193.3770  176.4630  145.3790 C   0  0  0  0  0  2  0  0  0  0  0  0
  189.3470  176.5400  143.7500 C   0  0  0  0  0  0  0  0  0  0  0  0
  191.0220  177.3280  145.4580 C   0  0  0  0  0  2  0  0  0  0  0  0
  190.9560  172.9820  144.5940 C   0  0  0  0  0  1  0  0  0  0  0  0
  187.6940  175.4340  142.3640 N   0  0  0  0  0  0  0  0  0  0  0  0
  188.0630  176.4590  143.3090 C   0  0  0  0  0  0  0  0  0  0  0  0
  189.1940  172.9250  140.0710 C   0  0  0  0  0  0  0  0  0  0  0  0
  189.9670  174.7170  142.1840 C   0  0  0  0  0  0  0  0  0  0  0  0
  189.8000  177.6780  144.6280 C   0  0  0  0  0  2  0  0  0  0  0  0
  185.2200  177.9150  145.3330 C   0  0  0  0  0  0  0  0  0  0  0  0
  184.8600  179.0300  144.5730 C   0  0  0  0  0  3  0  0  0  0  0  0
  186.9830  177.3830  143.7430 C   0  0  0  0  0  0  0  0  0  0  0  0
  185.5500  179.3200  143.3930 C   0  0  0  0  0  3  0  0  0  0  0  0
  186.2710  177.0930  144.9160 C   0  0  0  0  0  3  0  0  0  0  0  0
  186.6010  178.4980  142.9780 C   0  0  0  0  0  3  0  0  0  0  0  0
  184.4810  177.5990  146.5830 C   0  0  0  0  0  1  0  0  0  0  0  0
  188.8470  172.0780  139.0130 O   0  0  0  0  0  0  0  0  0  0  0  0
  189.4960  172.1070  137.7480 C   0  0  0  0  0  2  0  0  0  0  0  0
  190.8250  169.4240  139.0980 O   0  0  0  0  0  1  0  0  0  0  0  0
  191.1430  170.2700  138.0360 C   0  0  2  0  0  3  0  0  0  0  0  0
  191.3200  169.6170  135.7880 C   0  0  0  0  0  2  0  0  0  0  0  0
  190.2320  170.6610  135.8700 C   0  0  0  0  0  2  0  0  0  0  0  0
  189.8780  170.6990  137.3290 C   0  0  2  0  0  3  0  0  0  0  0  0
  191.9920  169.5640  137.0820 N   0  0  0  0  0  2  0  0  0  0  0  0
  1 11  1  1  0  0  0
  1 13  1  0  0  0  0
  2  6  2  0  0  0  0
  3 12  1  0  0  0  0
  3  8  1  0  0  0  0
  4 18  1  0  0  0  0
  4 15  2  0  0  0  0
  6  5  1  0  0  0  0
  7 18  2  0  0  0  0
  8  1  1  0  0  0  0
  8  2  1  1  0  0  0
  9  7  1  0  0  0  0
 10  4  1  0  0  0  0
 11  5  1  0  0  0  0
 12 19  1  0  0  0  0
 14  2  1  0  0  0  0
 15 16  1  0  0  0  0
 16 22  1  0  0  0  0
 16 12  2  0  0  0  0
 17  9  2  0  0  0  0
 17 10  1  0  0  0  0
 18  3  1  0  0  0  0
 19 13  1  0  0  0  0
 20 26  1  0  0  0  0
 21 20  2  0  0  0  0
 22 24  2  0  0  0  0
 23 21  1  0  0  0  0
 24 20  1  0  0  0  0
 25 23  2  0  0  0  0
 25 22  1  0  0  0  0
 27 17  1  0  0  0  0
 28 27  1  0  0  0  0
 30 29  1  1  0  0  0
 31 32  1  0  0  0  0
 31 34  1  0  0  0  0
 32 33  1  0  0  0  0
 33 28  1  1  0  0  0
 33 30  1  0  0  0  0
 34 30  1  0  0  0  0
M  END
>  <MODEL>
3

>  <REMARK>
 VINA RESULT:      -8.0      0.942      1.443
  Name = 
  4 active torsions:
  status: ('A' for Active; 'I' for Inactive)
    1  A    between atoms: O_3  and  C_13
    2  A    between atoms: O_3  and  C_29
    3  A    between atoms: C_12  and  C_28
    4  A    between atoms: C_13  and  C_33
                            x       y       z     vdW  Elec       q    Type
                         _______ _______ _______ _____ _____    ______ ____

>  <TORSDO>
F 4

$$$$
=
 OpenBabel11052418563D

 34 39  0  0  1  0  0  0  0  0999 V2000
  192.1110  173.7910  140.4100 C   0  0  2  0  0  3  0  0  0  0  0  0
  190.2450  172.4170  141.4490 C   0  0  0  0  0  0  0  0  0  0  0  0
  191.5140  174.0790  142.8080 N   0  0  0  0  0  0  0  0  0  0  0  0
  191.0430  174.5800  145.2060 C   0  0  0  0  0  0  0  0  0  0  0  0
  191.0740  171.8440  139.2340 C   0  0  0  0  0  2  0  0  0  0  0  0
  190.2320  171.6580  140.4020 N   0  0  0  0  0  0  0  0  0  0  0  0
  189.4560  175.1840  143.4710 C   0  0  0  0  0  3  0  0  0  0  0  0
  191.0050  173.7380  141.4670 C   0  0  1  0  0  3  0  0  0  0  0  0
  188.5610  175.7350  144.5000 C   0  0  0  0  0  3  0  0  0  0  0  0
  190.0900  174.9600  146.3050 C   0  0  0  0  0  3  0  0  0  0  0  0
  191.5550  173.2870  139.0850 C   0  0  0  0  0  2  0  0  0  0  0  0
  192.8730  173.7590  143.2010 C   0  0  0  0  0  0  0  0  0  0  0  0
  193.3030  172.9490  140.8550 C   0  0  0  0  0  2  0  0  0  0  0  0
  189.3060  172.0790  142.5600 C   0  0  0  0  0  1  0  0  0  0  0  0
  192.2370  174.1690  145.5030 N   0  0  0  0  0  0  0  0  0  0  0  0
  193.2200  173.8010  144.5150 C   0  0  0  0  0  0  0  0  0  0  0  0
  188.8450  175.6550  145.8100 C   0  0  0  0  0  0  0  0  0  0  0  0
  190.6280  174.6320  143.7980 C   0  0  1  0  0  3  0  0  0  0  0  0
  193.9040  173.5150  142.1290 C   0  0  0  0  0  2  0  0  0  0  0  0
  196.1700  171.8280  145.8220 C   0  0  0  0  0  0  0  0  0  0  0  0
  197.1090  172.8320  146.0660 C   0  0  0  0  0  3  0  0  0  0  0  0
  194.5830  173.4880  145.0170 C   0  0  0  0  0  0  0  0  0  0  0  0
  196.7880  174.1650  145.7980 C   0  0  0  0  0  3  0  0  0  0  0  0
  194.9120  172.1550  145.3070 C   0  0  0  0  0  3  0  0  0  0  0  0
  195.5310  174.4910  145.2830 C   0  0  0  0  0  3  0  0  0  0  0  0
  196.5050  170.4100  146.1150 C   0  0  0  0  0  1  0  0  0  0  0  0
  187.9810  176.1960  146.7680 O   0  0  0  0  0  0  0  0  0  0  0  0
  187.4930  177.5300  146.7100 C   0  0  0  0  0  2  0  0  0  0  0  0
  186.3530  178.2510  143.7150 O   0  0  0  0  0  1  0  0  0  0  0  0
  186.1270  178.7190  145.0100 C   0  0  2  0  0  3  0  0  0  0  0  0
  184.0660  178.6660  146.1310 C   0  0  0  0  0  2  0  0  0  0  0  0
  185.0430  177.8500  146.9440 C   0  0  0  0  0  2  0  0  0  0  0  0
  186.1610  177.5630  145.9830 C   0  0  2  0  0  3  0  0  0  0  0  0
  184.8140  179.3500  145.0820 N   0  0  0  0  0  2  0  0  0  0  0  0
  1 11  1  6  0  0  0
  1 13  1  0  0  0  0
  1  8  1  0  0  0  0
  2 14  1  0  0  0  0
  3 12  1  0  0  0  0
  3 18  1  0  0  0  0
  4 15  2  0  0  0  0
  4 10  1  0  0  0  0
  5  6  1  0  0  0  0
  6  2  2  0  0  0  0
  7  9  2  0  0  0  0
  8  2  1  1  0  0  0
  8  3  1  0  0  0  0
  9 17  1  0  0  0  0
 11  5  1  0  0  0  0
 12 16  2  0  0  0  0
 13 19  1  0  0  0  0
 16 22  1  0  0  0  0
 16 15  1  0  0  0  0
 17 10  2  0  0  0  0
 17 27  1  0  0  0  0
 18  7  1  6  0  0  0
 18  4  1  0  0  0  0
 19 12  1  0  0  0  0
 20 21  1  0  0  0  0
 20 26  1  0  0  0  0
 22 25  2  0  0  0  0
 22 24  1  0  0  0  0
 23 21  2  0  0  0  0
 24 20  2  0  0  0  0
 25 23  1  0  0  0  0
 28 27  1  0  0  0  0
 30 29  1  6  0  0  0
 30 34  1  0  0  0  0
 30 33  1  0  0  0  0
 31 32  1  0  0  0  0
 33 28  1  1  0  0  0
 33 32  1  0  0  0  0
 34 31  1  0  0  0  0
M  END
>  <MODEL>
4

>  <REMARK>
 VINA RESULT:      -7.9      3.159      8.759
  Name = 
  4 active torsions:
  status: ('A' for Active; 'I' for Inactive)
    1  A    between atoms: O_3  and  C_13
    2  A    between atoms: O_3  and  C_29
    3  A    between atoms: C_12  and  C_28
    4  A    between atoms: C_13  and  C_33
                            x       y       z     vdW  Elec       q    Type
                         _______ _______ _______ _____ _____    ______ ____

>  <TORSDO>
F 4

$$$$
=
 OpenBabel11052418563D

 34 39  0  0  1  0  0  0  0  0999 V2000
  186.4530  178.5860  143.2090 C   0  0  2  0  0  3  0  0  0  0  0  0
  186.4150  177.3020  145.4000 C   0  0  0  0  0  0  0  0  0  0  0  0
  188.2850  177.0010  143.7770 N   0  0  0  0  0  0  0  0  0  0  0  0
  190.2540  175.5200  144.1680 C   0  0  0  0  0  0  0  0  0  0  0  0
  184.4390  178.5310  144.6880 C   0  0  0  0  0  2  0  0  0  0  0  0
  185.1870  177.6670  145.5820 N   0  0  0  0  0  0  0  0  0  0  0  0
  189.9230  177.5300  145.4900 C   0  0  0  0  0  3  0  0  0  0  0  0
  187.2830  177.9370  144.3200 C   0  0  1  0  0  3  0  0  0  0  0  0
  191.1520  177.2240  146.2380 C   0  0  0  0  0  3  0  0  0  0  0  0
  191.4080  175.0690  145.0190 C   0  0  0  0  0  3  0  0  0  0  0  0
  185.3460  179.4200  143.8390 C   0  0  0  0  0  2  0  0  0  0  0  0
  188.0330  176.2500  142.5630 C   0  0  0  0  0  0  0  0  0  0  0  0
  185.8700  177.5130  142.2940 C   0  0  0  0  0  2  0  0  0  0  0  0
  187.0310  176.4100  146.4260 C   0  0  0  0  0  1  0  0  0  0  0  0
  189.9040  174.8190  143.1350 N   0  0  0  0  0  0  0  0  0  0  0  0
  188.8220  175.1860  142.2550 C   0  0  0  0  0  0  0  0  0  0  0  0
  191.8590  176.1030  146.0220 C   0  0  0  0  0  0  0  0  0  0  0  0
  189.4890  176.7260  144.5150 C   0  0  1  0  0  3  0  0  0  0  0  0
  186.9830  176.7470  141.6020 C   0  0  0  0  0  2  0  0  0  0  0  0
  188.1250  174.2320  138.6630 C   0  0  0  0  0  0  0  0  0  0  0  0
  188.1910  172.8380  138.7120 C   0  0  0  0  0  3  0  0  0  0  0  0
  188.6440  174.3530  141.0370 C   0  0  0  0  0  0  0  0  0  0  0  0
  188.4720  172.1970  139.9210 C   0  0  0  0  0  3  0  0  0  0  0  0
  188.3430  174.9850  139.8210 C   0  0  0  0  0  3  0  0  0  0  0  0
  188.6910  172.9500  141.0770 C   0  0  0  0  0  3  0  0  0  0  0  0
  187.8160  174.9160  137.3800 C   0  0  0  0  0  1  0  0  0  0  0  0
  193.0300  175.8410  146.7410 O   0  0  0  0  0  0  0  0  0  0  0  0
  194.2530  176.5320  146.5130 C   0  0  0  0  0  2  0  0  0  0  0  0
  196.1100  176.8270  143.8210 O   0  0  0  0  0  1  0  0  0  0  0  0
  195.0460  176.0160  144.2170 C   0  0  2  0  0  3  0  0  0  0  0  0
  195.1190  173.6770  144.4000 C   0  0  0  0  0  2  0  0  0  0  0  0
  194.7870  174.2260  145.7660 C   0  0  0  0  0  2  0  0  0  0  0  0
  195.1860  175.6710  145.6820 C   0  0  2  0  0  3  0  0  0  0  0  0
  195.0580  174.7780  143.4440 N   0  0  0  0  0  2  0  0  0  0  0  0
  1 13  1  6  0  0  0
  1 11  1  0  0  0  0
  1  8  1  0  0  0  0
  2  6  2  0  0  0  0
  2 14  1  0  0  0  0
  3  8  1  0  0  0  0
  3 18  1  0  0  0  0
  4 18  1  0  0  0  0
  4 10  1  0  0  0  0
  5  6  1  0  0  0  0
  7  9  2  0  0  0  0
  8  2  1  1  0  0  0
 10 17  2  0  0  0  0
 11  5  1  0  0  0  0
 12  3  1  0  0  0  0
 15  4  2  0  0  0  0
 16 12  2  0  0  0  0
 16 15  1  0  0  0  0
 17  9  1  0  0  0  0
 17 27  1  0  0  0  0
 18  7  1  6  0  0  0
 19 13  1  0  0  0  0
 19 12  1  0  0  0  0
 20 21  2  0  0  0  0
 20 24  1  0  0  0  0
 21 23  1  0  0  0  0
 22 25  1  0  0  0  0
 22 16  1  0  0  0  0
 23 25  2  0  0  0  0
 24 22  2  0  0  0  0
 26 20  1  0  0  0  0
 28 27  1  0  0  0  0
 30 29  1  6  0  0  0
 30 33  1  0  0  0  0
 31 32  1  0  0  0  0
 33 32  1  0  0  0  0
 33 28  1  1  0  0  0
 34 30  1  0  0  0  0
 34 31  1  0  0  0  0
M  END
>  <MODEL>
5

>  <REMARK>
 VINA RESULT:      -7.7      3.138      7.316
  Name = 
  4 active torsions:
  status: ('A' for Active; 'I' for Inactive)
    1  A    between atoms: O_3  and  C_13
    2  A    between atoms: O_3  and  C_29
    3  A    between atoms: C_12  and  C_28
    4  A    between atoms: C_13  and  C_33
                            x       y       z     vdW  Elec       q    Type
                         _______ _______ _______ _____ _____    ______ ____

>  <TORSDO>
F 4

$$$$
=
 OpenBabel11052418563D

 34 39  0  0  1  0  0  0  0  0999 V2000
  194.8420  172.9720  145.0800 C   0  0  2  0  0  3  0  0  0  0  0  0
  194.4210  175.4760  145.1280 C   0  0  0  0  0  0  0  0  0  0  0  0
  192.5390  173.8710  144.8020 N   0  0  0  0  0  0  0  0  0  0  0  0
  190.1490  174.5460  144.5700 C   0  0  0  0  0  0  0  0  0  0  0  0
  196.7030  174.6380  145.0010 C   0  0  0  0  0  2  0  0  0  0  0  0
  195.6960  175.6830  145.0400 N   0  0  0  0  0  0  0  0  0  0  0  0
  191.3280  174.8350  146.6730 C   0  0  0  0  0  3  0  0  0  0  0  0
  193.8570  174.0910  145.4260 C   0  0  1  0  0  3  0  0  0  0  0  0
  190.1090  175.4110  147.2620 C   0  0  0  0  0  3  0  0  0  0  0  0
  188.9410  175.2910  145.0670 C   0  0  0  0  0  2  0  0  0  0  0  0
  196.2160  173.3320  145.6270 C   0  0  0  0  0  2  0  0  0  0  0  0
  192.4150  173.2010  143.5220 C   0  0  0  0  0  0  0  0  0  0  0  0
  194.8960  172.7680  143.5690 C   0  0  0  0  0  2  0  0  0  0  0  0
  193.5270  176.6710  145.1600 C   0  0  0  0  0  1  0  0  0  0  0  0
  190.1400  174.0270  143.3820 N   0  0  0  0  0  0  0  0  0  0  0  0
  191.2460  173.2820  142.8320 C   0  0  0  0  0  0  0  0  0  0  0  0
  188.9950  175.6130  146.5400 C   0  0  0  0  0  0  0  0  0  0  0  0
  191.3560  174.4290  145.4000 C   0  0  0  0  0  0  0  0  0  0  0  0
  193.5420  172.3200  143.0470 C   0  0  0  0  0  2  0  0  0  0  0  0
  190.8140  172.8540  139.0990 C   0  0  0  0  0  0  0  0  0  0  0  0
  190.5050  171.4950  138.9950 C   0  0  0  0  0  3  0  0  0  0  0  0
  191.0210  172.6330  141.5140 C   0  0  0  0  0  0  0  0  0  0  0  0
  190.4420  170.7050  140.1450 C   0  0  0  0  0  3  0  0  0  0  0  0
  191.0640  173.4200  140.3530 C   0  0  0  0  0  3  0  0  0  0  0  0
  190.6920  171.2720  141.3970 C   0  0  0  0  0  3  0  0  0  0  0  0
  190.8730  173.6980  137.8790 C   0  0  0  0  0  1  0  0  0  0  0  0
  187.8460  176.1540  147.1280 O   0  0  0  0  0  0  0  0  0  0  0  0
  187.3320  177.4380  146.7920 C   0  0  0  0  0  2  0  0  0  0  0  0
  185.9030  176.5170  143.9820 O   0  0  0  0  0  1  0  0  0  0  0  0
  185.9230  177.6740  144.7610 C   0  0  2  0  0  3  0  0  0  0  0  0
  184.0460  178.6660  145.7630 C   0  0  0  0  0  2  0  0  0  0  0  0
  185.0040  178.2940  146.8690 C   0  0  0  0  0  2  0  0  0  0  0  0
  185.9310  177.3020  146.2260 C   0  0  2  0  0  3  0  0  0  0  0  0
  184.7300  178.4690  144.4890 N   0  0  0  0  0  2  0  0  0  0  0  0
  1 13  1  6  0  0  0
  1  8  1  0  0  0  0
  1 11  1  0  0  0  0
  2 14  1  0  0  0  0
  3 18  1  0  0  0  0
  3  8  1  0  0  0  0
  4 10  1  0  0  0  0
  4 18  1  0  0  0  0
  5  6  1  0  0  0  0
  5 11  1  0  0  0  0
  6  2  2  0  0  0  0
  7  9  1  0  0  0  0
  8  2  1  6  0  0  0
 10 17  1  0  0  0  0
 12  3  1  0  0  0  0
 15  4  2  0  0  0  0
 16 15  1  0  0  0  0
 16 12  2  0  0  0  0
 17 27  1  0  0  0  0
 17  9  2  0  0  0  0
 18  7  2  0  0  0  0
 19 12  1  0  0  0  0
 19 13  1  0  0  0  0
 20 24  1  0  0  0  0
 21 20  2  0  0  0  0
 21 23  1  0  0  0  0
 22 16  1  0  0  0  0
 23 25  2  0  0  0  0
 24 22  2  0  0  0  0
 25 22  1  0  0  0  0
 26 20  1  0  0  0  0
 28 27  1  0  0  0  0
 30 29  1  6  0  0  0
 30 33  1  0  0  0  0
 31 32  1  0  0  0  0
 33 28  1  1  0  0  0
 33 32  1  0  0  0  0
 34 30  1  0  0  0  0
 34 31  1  0  0  0  0
M  END
>  <MODEL>
6

>  <REMARK>
 VINA RESULT:      -7.7      2.842      7.811
  Name = 
  4 active torsions:
  status: ('A' for Active; 'I' for Inactive)
    1  A    between atoms: O_3  and  C_13
    2  A    between atoms: O_3  and  C_29
    3  A    between atoms: C_12  and  C_28
    4  A    between atoms: C_13  and  C_33
                            x       y       z     vdW  Elec       q    Type
                         _______ _______ _______ _____ _____    ______ ____

>  <TORSDO>
F 4

$$$$
=
 OpenBabel11052418563D

 34 39  0  0  1  0  0  0  0  0999 V2000
  188.0280  177.4100  144.5260 C   0  0  2  0  0  3  0  0  0  0  0  0
  188.5860  175.8160  146.4230 C   0  0  0  0  0  0  0  0  0  0  0  0
  190.0110  175.9130  144.3770 N   0  0  0  0  0  0  0  0  0  0  0  0
  192.0770  174.5560  144.0440 C   0  0  0  0  0  0  0  0  0  0  0  0
  186.4440  176.9710  146.4080 C   0  0  0  0  0  2  0  0  0  0  0  0
  187.4260  176.0470  146.9470 N   0  0  0  0  0  0  0  0  0  0  0  0
  191.9950  176.3130  145.7180 C   0  0  0  0  0  3  0  0  0  0  0  0
  189.1340  176.6730  145.2870 C   0  0  1  0  0  3  0  0  0  0  0  0
  193.3830  176.0010  146.0940 C   0  0  0  0  0  3  0  0  0  0  0  0
  193.4240  174.0790  144.5120 C   0  0  0  0  0  2  0  0  0  0  0  0
  187.0760  178.0480  145.5280 C   0  0  0  0  0  2  0  0  0  0  0  0
  189.5000  175.3330  143.1500 C   0  0  0  0  0  0  0  0  0  0  0  0
  187.2860  176.4410  143.6110 C   0  0  0  0  0  2  0  0  0  0  0  0
  189.4730  174.8340  147.1140 C   0  0  0  0  0  1  0  0  0  0  0  0
  191.5140  173.9910  143.0210 N   0  0  0  0  0  0  0  0  0  0  0  0
  190.2350  174.3950  142.4940 C   0  0  0  0  0  0  0  0  0  0  0  0
  194.0620  174.9850  145.5370 C   0  0  0  0  0  0  0  0  0  0  0  0
  191.3700  175.6310  144.7550 C   0  0  0  0  0  0  0  0  0  0  0  0
  188.2260  175.8800  142.5600 C   0  0  0  0  0  2  0  0  0  0  0  0
  190.2630  173.1990  138.9070 C   0  0  0  0  0  0  0  0  0  0  0  0
  189.0000  172.6150  138.7830 C   0  0  0  0  0  3  0  0  0  0  0  0
  189.7980  173.7420  141.2330 C   0  0  0  0  0  0  0  0  0  0  0  0
  188.1290  172.6020  139.8760 C   0  0  0  0  0  3  0  0  0  0  0  0
  190.6560  173.7650  140.1230 C   0  0  0  0  0  3  0  0  0  0  0  0
  188.5240  173.1670  141.0910 C   0  0  0  0  0  3  0  0  0  0  0  0
  191.1870  173.2240  137.7430 C   0  0  0  0  0  1  0  0  0  0  0  0
  195.3840  174.7160  145.9060 O   0  0  0  0  0  0  0  0  0  0  0  0
  196.4760  174.7910  144.9960 C   0  0  0  0  0  2  0  0  0  0  0  0
  197.8200  172.7330  142.8190 O   0  0  0  0  0  1  0  0  0  0  0  0
  196.8440  172.6400  143.8100 C   0  0  2  0  0  3  0  0  0  0  0  0
  196.9450  171.2310  145.6850 C   0  0  0  0  0  2  0  0  0  0  0  0
  196.8640  172.6510  146.1920 C   0  0  0  0  0  2  0  0  0  0  0  0
  197.2440  173.4820  145.0000 C   0  0  2  0  0  3  0  0  0  0  0  0
  196.7140  171.2530  144.2450 N   0  0  0  0  0  2  0  0  0  0  0  0
  1 13  1  1  0  0  0
  1  8  1  0  0  0  0
  1 11  1  0  0  0  0
  2  6  2  0  0  0  0
  2 14  1  0  0  0  0
  3 18  1  0  0  0  0
  3  8  1  0  0  0  0
  4 10  1  0  0  0  0
  4 18  1  0  0  0  0
  5  6  1  0  0  0  0
  7  9  1  0  0  0  0
  8  2  1  1  0  0  0
 10 17  1  0  0  0  0
 11  5  1  0  0  0  0
 12  3  1  0  0  0  0
 15  4  2  0  0  0  0
 16 15  1  0  0  0  0
 16 12  2  0  0  0  0
 17 27  1  0  0  0  0
 17  9  2  0  0  0  0
 18  7  2  0  0  0  0
 19 12  1  0  0  0  0
 19 13  1  0  0  0  0
 20 24  1  0  0  0  0
 21 20  2  0  0  0  0
 21 23  1  0  0  0  0
 22 16  1  0  0  0  0
 23 25  2  0  0  0  0
 24 22  2  0  0  0  0
 25 22  1  0  0  0  0
 26 20  1  0  0  0  0
 28 27  1  0  0  0  0
 30 29  1  6  0  0  0
 30 34  1  0  0  0  0
 30 33  1  0  0  0  0
 31 32  1  0  0  0  0
 33 28  1  1  0  0  0
 33 32  1  0  0  0  0
 34 31  1  0  0  0  0
M  END
>  <MODEL>
7

>  <REMARK>
 VINA RESULT:      -7.5      3.054      7.059
  Name = 
  4 active torsions:
  status: ('A' for Active; 'I' for Inactive)
    1  A    between atoms: O_3  and  C_13
    2  A    between atoms: O_3  and  C_29
    3  A    between atoms: C_12  and  C_28
    4  A    between atoms: C_13  and  C_33
                            x       y       z     vdW  Elec       q    Type
                         _______ _______ _______ _____ _____    ______ ____

>  <TORSDO>
F 4

$$$$
=
 OpenBabel11052418563D

 34 39  0  0  1  0  0  0  0  0999 V2000
  196.2140  175.6150  143.9590 C   0  0  2  0  0  3  0  0  0  0  0  0
  194.3090  176.1450  142.3650 C   0  0  0  0  0  0  0  0  0  0  0  0
  193.9030  174.8280  144.4440 N   0  0  0  0  0  0  0  0  0  0  0  0
  191.6630  173.9990  145.1620 C   0  0  0  0  0  0  0  0  0  0  0  0
  196.6060  176.5710  141.6840 C   0  0  0  0  0  2  0  0  0  0  0  0
  195.1690  176.5370  141.4810 N   0  0  0  0  0  0  0  0  0  0  0  0
  192.1670  176.3740  145.1440 C   0  0  0  0  0  3  0  0  0  0  0  0
  194.7140  175.8850  143.8110 C   0  0  1  0  0  3  0  0  0  0  0  0
  190.8030  176.6530  145.6210 C   0  0  0  0  0  3  0  0  0  0  0  0
  190.2120  174.2400  145.4710 C   0  0  0  0  0  3  0  0  0  0  0  0
  196.9870  176.6560  143.1610 C   0  0  0  0  0  2  0  0  0  0  0  0
  194.3650  173.4550  144.4940 C   0  0  0  0  0  0  0  0  0  0  0  0
  196.5430  174.2060  143.4770 C   0  0  0  0  0  2  0  0  0  0  0  0
  192.8650  176.1790  141.9870 C   0  0  0  0  0  1  0  0  0  0  0  0
  192.1090  172.7840  145.0740 N   0  0  0  0  0  0  0  0  0  0  0  0
  193.4870  172.4610  144.7990 C   0  0  0  0  0  0  0  0  0  0  0  0
  189.8940  175.6800  145.7930 C   0  0  0  0  0  0  0  0  0  0  0  0
  192.5780  175.1230  144.9190 C   0  0  1  0  0  3  0  0  0  0  0  0
  195.8380  173.1730  144.3370 C   0  0  0  0  0  2  0  0  0  0  0  0
  194.9720  169.2290  146.0830 C   0  0  0  0  0  0  0  0  0  0  0  0
  194.6940  168.3440  145.0380 C   0  0  0  0  0  3  0  0  0  0  0  0
  193.8620  171.0260  144.8730 C   0  0  0  0  0  0  0  0  0  0  0  0
  194.0110  168.7960  143.9060 C   0  0  0  0  0  3  0  0  0  0  0  0
  194.5640  170.5640  145.9970 C   0  0  0  0  0  3  0  0  0  0  0  0
  193.6030  170.1300  143.8220 C   0  0  0  0  0  3  0  0  0  0  0  0
  195.7060  168.7540  147.2840 C   0  0  0  0  0  1  0  0  0  0  0  0
  188.6070  175.9720  146.2570 O   0  0  0  0  0  0  0  0  0  0  0  0
  188.0660  177.2870  146.2740 C   0  0  0  0  0  2  0  0  0  0  0  0
  186.4340  178.5360  143.7120 O   0  0  0  0  0  1  0  0  0  0  0  0
  186.3270  178.6160  145.1010 C   0  0  2  0  0  3  0  0  0  0  0  0
  184.4680  177.9280  146.3590 C   0  0  0  0  0  2  0  0  0  0  0  0
  185.6520  177.1130  146.8210 C   0  0  0  0  0  2  0  0  0  0  0  0
  186.6550  177.2750  145.7160 C   0  0  2  0  0  3  0  0  0  0  0  0
  184.9610  178.9740  145.4680 N   0  0  0  0  0  2  0  0  0  0  0  0
  1 11  1  6  0  0  0
  3 12  1  0  0  0  0
  3 18  1  0  0  0  0
  4 10  1  0  0  0  0
  5 11  1  0  0  0  0
  6  5  1  0  0  0  0
  6  2  2  0  0  0  0
  7  9  2  0  0  0  0
  8  2  1  6  0  0  0
  8  1  1  0  0  0  0
  8  3  1  0  0  0  0
  9 17  1  0  0  0  0
 10 17  2  0  0  0  0
 12 16  2  0  0  0  0
 13  1  1  0  0  0  0
 13 19  1  0  0  0  0
 14  2  1  0  0  0  0
 15  4  2  0  0  0  0
 16 22  1  0  0  0  0
 16 15  1  0  0  0  0
 17 27  1  0  0  0  0
 18  7  1  1  0  0  0
 18  4  1  0  0  0  0
 19 12  1  0  0  0  0
 20 26  1  0  0  0  0
 21 20  2  0  0  0  0
 22 24  2  0  0  0  0
 23 21  1  0  0  0  0
 24 20  1  0  0  0  0
 25 23  2  0  0  0  0
 25 22  1  0  0  0  0
 27 28  1  0  0  0  0
 30 29  1  6  0  0  0
 30 34  1  0  0  0  0
 30 33  1  0  0  0  0
 31 32  1  0  0  0  0
 33 28  1  1  0  0  0
 33 32  1  0  0  0  0
 34 31  1  0  0  0  0
M  END
>  <MODEL>
8

>  <REMARK>
 VINA RESULT:      -7.5      4.096      8.776
  Name = 
  4 active torsions:
  status: ('A' for Active; 'I' for Inactive)
    1  A    between atoms: O_3  and  C_13
    2  A    between atoms: O_3  and  C_29
    3  A    between atoms: C_12  and  C_28
    4  A    between atoms: C_13  and  C_33
                            x       y       z     vdW  Elec       q    Type
                         _______ _______ _______ _____ _____    ______ ____

>  <TORSDO>
F 4

$$$$
=
 OpenBabel11052418563D

 34 39  0  0  1  0  0  0  0  0999 V2000
  195.4150  172.7150  145.4520 C   0  0  2  0  0  3  0  0  0  0  0  0
  195.1760  175.1910  144.9400 C   0  0  0  0  0  0  0  0  0  0  0  0
  193.1720  173.7090  145.0360 N   0  0  0  0  0  0  0  0  0  0  0  0
  190.8280  174.5010  144.7190 C   0  0  0  0  0  0  0  0  0  0  0  0
  197.3840  174.1680  144.9490 C   0  0  0  0  0  2  0  0  0  0  0  0
  196.4570  175.2710  144.7750 N   0  0  0  0  0  0  0  0  0  0  0  0
  192.1140  175.1610  146.6690 C   0  0  0  0  0  3  0  0  0  0  0  0
  194.5280  173.9580  145.5590 C   0  0  1  0  0  3  0  0  0  0  0  0
  190.9660  175.9500  147.1430 C   0  0  0  0  0  3  0  0  0  0  0  0
  189.6990  175.4320  145.0630 C   0  0  0  0  0  2  0  0  0  0  0  0
  196.8340  173.0790  145.8680 C   0  0  0  0  0  2  0  0  0  0  0  0
  192.9460  172.7800  143.9460 C   0  0  0  0  0  0  0  0  0  0  0  0
  195.3890  172.1730  144.0260 C   0  0  0  0  0  2  0  0  0  0  0  0
  194.3720  176.4300  144.7230 C   0  0  0  0  0  1  0  0  0  0  0  0
  190.7320  173.7300  143.6800 N   0  0  0  0  0  0  0  0  0  0  0  0
  191.7560  172.7960  143.2860 C   0  0  0  0  0  0  0  0  0  0  0  0
  189.8390  176.0720  146.4230 C   0  0  0  0  0  0  0  0  0  0  0  0
  192.0580  174.4790  145.5220 C   0  0  0  0  0  0  0  0  0  0  0  0
  193.9860  171.7290  143.6550 C   0  0  0  0  0  2  0  0  0  0  0  0
  191.0160  169.6230  141.3660 C   0  0  0  0  0  0  0  0  0  0  0  0
  190.9120  170.0920  140.0540 C   0  0  0  0  0  3  0  0  0  0  0  0
  191.4300  171.8870  142.1560 C   0  0  0  0  0  0  0  0  0  0  0  0
  191.0760  171.4540  139.7870 C   0  0  0  0  0  3  0  0  0  0  0  0
  191.2800  170.5150  142.4090 C   0  0  0  0  0  3  0  0  0  0  0  0
  191.3390  172.3440  140.8310 C   0  0  0  0  0  3  0  0  0  0  0  0
  190.8520  168.1740  141.6520 C   0  0  0  0  0  1  0  0  0  0  0  0
  188.7580  176.8200  146.9010 O   0  0  0  0  0  0  0  0  0  0  0  0
  187.4010  176.4850  146.6340 C   0  0  0  0  0  2  0  0  0  0  0  0
  186.3130  179.2610  148.0110 O   0  0  0  0  0  1  0  0  0  0  0  0
  185.7320  178.1790  147.3500 C   0  0  2  0  0  3  0  0  0  0  0  0
  184.5040  178.3100  145.3540 C   0  0  0  0  0  2  0  0  0  0  0  0
  185.6920  177.4150  145.0940 C   0  0  0  0  0  2  0  0  0  0  0  0
  186.6320  177.7270  146.2230 C   0  0  2  0  0  3  0  0  0  0  0  0
  184.4470  178.5790  146.7870 N   0  0  0  0  0  2  0  0  0  0  0  0
  1 13  1  6  0  0  0
  1  8  1  0  0  0  0
  1 11  1  0  0  0  0
  3 18  1  0  0  0  0
  3  8  1  0  0  0  0
  4 10  1  0  0  0  0
  4 18  1  0  0  0  0
  5 11  1  0  0  0  0
  6  2  2  0  0  0  0
  6  5  1  0  0  0  0
  7  9  1  0  0  0  0
  8  2  1  6  0  0  0
 10 17  1  0  0  0  0
 12  3  1  0  0  0  0
 14  2  1  0  0  0  0
 15  4  2  0  0  0  0
 16 15  1  0  0  0  0
 16 12  2  0  0  0  0
 17 27  1  0  0  0  0
 17  9  2  0  0  0  0
 18  7  2  0  0  0  0
 19 12  1  0  0  0  0
 19 13  1  0  0  0  0
 20 26  1  0  0  0  0
 20 24  1  0  0  0  0
 21 20  2  0  0  0  0
 22 24  2  0  0  0  0
 22 16  1  0  0  0  0
 23 21  1  0  0  0  0
 23 25  2  0  0  0  0
 25 22  1  0  0  0  0
 28 27  1  0  0  0  0
 30 29  1  6  0  0  0
 31 34  1  0  0  0  0
 32 31  1  0  0  0  0
 32 33  1  0  0  0  0
 33 28  1  1  0  0  0
 33 30  1  0  0  0  0
 34 30  1  0  0  0  0
M  END
>  <MODEL>
9

>  <REMARK>
 VINA RESULT:      -7.5      3.402      8.367
  Name = 
  4 active torsions:
  status: ('A' for Active; 'I' for Inactive)
    1  A    between atoms: O_3  and  C_13
    2  A    between atoms: O_3  and  C_29
    3  A    between atoms: C_12  and  C_28
    4  A    between atoms: C_13  and  C_33
                            x       y       z     vdW  Elec       q    Type
                         _______ _______ _______ _____ _____    ______ ____

>  <TORSDO>
F 4

$$$$
