=
 OpenBabel11052419313D

 55 59  0  0  1  0  0  0  0  0999 V2000
  196.0760  173.9170  142.5060 C   0  0  0  0  0  2  0  0  0  0  0  0
  189.4110  171.9430  143.2990 S   0  0  0  0  0  0  0  0  0  0  0  0
  189.6570  172.8240  139.4540 O   0  0  0  0  0  0  0  0  0  0  0  0
  189.3700  174.5000  136.1690 C   0  0  0  0  0  3  0  0  0  0  0  0
  190.0920  174.7790  135.0080 C   0  0  0  0  0  3  0  0  0  0  0  0
  191.4360  173.9470  137.3350 C   0  0  0  0  0  0  0  0  0  0  0  0
  192.1470  174.2440  136.1630 C   0  0  0  0  0  3  0  0  0  0  0  0
  188.0880  174.3290  138.6920 O   0  0  0  0  0  0  0  0  0  0  0  0
  191.4820  174.6480  135.0040 C   0  0  0  0  0  3  0  0  0  0  0  0
  190.0220  174.0760  137.3360 C   0  0  0  0  0  0  0  0  0  0  0  0
  195.2230  173.4830  140.1970 C   0  0  0  0  0  2  0  0  0  0  0  0
  194.4770  172.8020  144.1080 C   0  0  0  0  0  2  0  0  0  0  0  0
  193.8850  172.7830  140.0670 C   0  0  0  0  0  2  0  0  0  0  0  0
  191.9340  170.9510  144.0710 O   0  0  0  0  0  1  0  0  0  0  0  0
  192.1700  173.6430  138.5850 C   0  0  0  0  0  3  0  0  0  0  0  0
  189.8660  171.7070  141.5550 C   0  0  0  0  0  2  0  0  0  0  0  0
  189.0050  172.6080  140.6930 C   0  0  0  0  0  2  0  0  0  0  0  0
  190.8780  172.9690  143.7380 C   0  0  1  0  0  3  0  0  0  0  0  0
  195.9840  172.9040  141.3760 C   0  0  0  0  0  2  0  0  0  0  0  0
  189.2030  173.7610  138.5260 C   0  0  0  0  0  0  0  0  0  0  0  0
  194.7550  174.0440  143.2650 C   0  0  1  0  0  3  0  0  0  0  0  0
  192.1450  172.2270  143.6560 N   0  0  0  0  0  0  0  0  0  0  0  0
  193.3180  172.9680  138.6970 C   0  0  0  0  0  0  0  0  0  0  0  0
  193.0480  172.8100  144.6390 C   0  0  0  0  0  2  0  0  0  0  0  0
  193.9620  172.2840  137.5220 C   0  0  1  0  0  3  0  0  0  0  0  0
  195.7050  170.9100  137.6890 C   0  0  1  0  0  3  0  0  0  0  0  0
  195.0630  173.0310  137.0630 O   0  0  0  0  0  0  0  0  0  0  0  0
  196.0610  172.0870  136.8410 C   0  0  0  0  0  2  0  0  0  0  0  0
  194.3270  170.9660  137.8690 O   0  0  0  0  0  0  0  0  0  0  0  0
  196.0880  169.6190  136.9880 C   0  0  0  0  0  3  0  0  0  0  0  0
  196.9210  168.7710  137.9300 C   0  0  0  0  0  2  0  0  0  0  0  0
  197.5940  169.5570  136.8230 C   0  0  0  0  0  2  0  0  0  0  0  0
  190.9230  174.2060  142.8440 C   0  0  0  0  0  2  0  0  0  0  0  0
  190.0530  175.3190  143.3890 C   0  0  0  0  0  2  0  0  0  0  0  0
  189.5610  174.9260  144.7710 C   0  0  0  0  0  2  0  0  0  0  0  0
  189.4410  176.1070  145.6200 N   0  0  0  0  0  0  0  0  0  0  0  0
  187.4800  176.0780  147.0070 C   0  0  0  0  0  2  0  0  0  0  0  0
  188.1430  176.6210  145.9840 C   0  0  0  0  0  0  0  0  0  0  0  0
  188.0070  178.1520  143.9970 C   0  0  0  0  0  2  0  0  0  0  0  0
  186.6060  177.7600  144.4040 C   0  0  1  0  0  3  0  0  0  0  0  0
  187.6750  177.9580  145.4700 C   0  0  1  0  0  3  0  0  0  0  0  0
  185.7110  178.9800  144.3790 C   0  0  0  0  0  2  0  0  0  0  0  0
  184.4590  178.6640  143.5750 C   0  0  0  0  0  2  0  0  0  0  0  0
  184.7370  177.5680  142.5570 C   0  0  0  0  0  2  0  0  0  0  0  0
  183.2890  178.3500  140.5520 C   0  0  0  0  0  1  0  0  0  0  0  0
  185.6370  178.2860  140.5030 O   0  0  0  0  0  0  0  0  0  0  0  0
  184.6270  178.0870  141.1570 C   0  0  0  0  0  0  0  0  0  0  0  0
  190.6590  176.7140  146.1520 C   0  0  0  0  0  2  0  0  0  0  0  0
  191.4660  177.2160  148.4960 C   0  0  0  0  0  1  0  0  0  0  0  0
  192.1480  175.0920  147.3770 C   0  0  0  0  0  1  0  0  0  0  0  0
  191.0550  176.1360  147.5120 C   0  0  0  0  0  3  0  0  0  0  0  0
  194.7550  175.3110  144.1210 C   0  0  0  0  0  2  0  0  0  0  0  0
  193.6460  176.2810  143.7480 C   0  0  0  0  0  2  0  0  0  0  0  0
  194.6420  177.1720  145.8260 C   0  0  0  0  0  1  0  0  0  0  0  0
  193.5990  177.4160  144.7500 C   0  0  0  0  0  2  0  0  0  0  0  0
  1 21  1  0  0  0  0
  2 18  1  0  0  0  0
  3 17  1  0  0  0  0
  4 10  1  0  0  0  0
  5  4  2  0  0  0  0
  6 10  2  0  0  0  0
  6 15  1  0  0  0  0
  7  6  1  0  0  0  0
  9  5  1  0  0  0  0
  9  7  2  0  0  0  0
 10 20  1  0  0  0  0
 11 19  1  0  0  0  0
 12 24  1  0  0  0  0
 13 11  1  0  0  0  0
 15 23  2  0  0  0  0
 16  2  1  0  0  0  0
 17 16  1  0  0  0  0
 18 33  1  6  0  0  0
 19  1  1  0  0  0  0
 20  8  2  0  0  0  0
 20  3  1  0  0  0  0
 21 12  1  0  0  0  0
 21 52  1  1  0  0  0
 22 18  1  0  0  0  0
 22 14  1  0  0  0  0
 22 24  1  0  0  0  0
 23 13  1  0  0  0  0
 25 29  1  0  0  0  0
 25 23  1  1  0  0  0
 26 30  1  6  0  0  0
 26 29  1  0  0  0  0
 27 25  1  0  0  0  0
 28 27  1  0  0  0  0
 28 26  1  0  0  0  0
 30 31  1  0  0  0  0
 32 30  1  0  0  0  0
 32 31  1  0  0  0  0
 33 34  1  0  0  0  0
 34 35  1  0  0  0  0
 35 36  1  0  0  0  0
 36 38  1  0  0  0  0
 36 48  1  0  0  0  0
 38 37  2  0  0  0  0
 39 40  1  0  0  0  0
 39 41  1  0  0  0  0
 40 42  1  1  0  0  0
 40 41  1  0  0  0  0
 41 38  1  6  0  0  0
 43 42  1  0  0  0  0
 44 43  1  0  0  0  0
 45 47  1  0  0  0  0
 46 47  2  0  0  0  0
 47 44  1  0  0  0  0
 48 51  1  0  0  0  0
 50 51  1  0  0  0  0
 51 49  1  0  0  0  0
 53 52  1  0  0  0  0
 53 55  1  0  0  0  0
 55 54  1  0  0  0  0
M  END
>  <MODEL>
1

>  <REMARK>
 VINA RESULT:      -6.2      0.000      0.000
  Name = 
  17 active torsions:
  status: ('A' for Active; 'I' for Inactive)
    1  A    between atoms: C_3  and  C_14
    2  A    between atoms: C_3  and  C_21
    3  A    between atoms: C_6  and  C_14
    4  A    between atoms: C_6  and  C_38
    5  A    between atoms: C_8  and  C_20
    6  A    between atoms: C_8  and  C_22
    7  A    between atoms: C_10  and  C_32
    8  A    between atoms: N_12  and  C_20
    9  A    between atoms: N_12  and  C_42
   10  A    between atoms: N_12  and  C_46
   11  A    between atoms: C_13  and  C_52
   12  A    between atoms: C_22  and  C_43
   13  A    between atoms: C_27  and  C_49
   14  A    between atoms: C_27  and  C_55
   15  A    between atoms: C_41  and  C_55
   16  A    between atoms: C_42  and  C_50
   17  A    between atoms: C_46  and  C_53
                            x       y       z     vdW  Elec       q    Type
                         _______ _______ _______ _____ _____    ______ ____

>  <TORSDO>
F 17

$$$$
=
 OpenBabel11052419313D

 55 59  0  0  1  0  0  0  0  0999 V2000
  192.6260  168.6960  140.2910 C   0  0  0  0  0  2  0  0  0  0  0  0
  197.8960  173.0850  138.9120 S   0  0  0  0  0  0  0  0  0  0  0  0
  196.4900  174.3950  142.3660 O   0  0  0  0  0  0  0  0  0  0  0  0
  194.7760  176.3660  144.9840 C   0  0  0  0  0  3  0  0  0  0  0  0
  193.9990  176.2280  146.1350 C   0  0  0  0  0  3  0  0  0  0  0  0
  194.3170  174.0500  144.3840 C   0  0  0  0  0  0  0  0  0  0  0  0
  193.5300  173.9330  145.5390 C   0  0  0  0  0  3  0  0  0  0  0  0
  195.9450  176.6320  142.4150 O   0  0  0  0  0  0  0  0  0  0  0  0
  193.3790  175.0090  146.4150 C   0  0  0  0  0  3  0  0  0  0  0  0
  194.9510  175.2890  144.1030 C   0  0  0  0  0  0  0  0  0  0  0  0
  193.1150  169.8600  142.4490 C   0  0  0  0  0  2  0  0  0  0  0  0
  194.6260  169.0420  138.7930 C   0  0  0  0  0  2  0  0  0  0  0  0
  194.3890  170.6790  142.5270 C   0  0  0  0  0  2  0  0  0  0  0  0
  197.5100  170.2930  138.8810 O   0  0  0  0  0  1  0  0  0  0  0  0
  194.3600  172.9380  143.4060 C   0  0  0  0  0  3  0  0  0  0  0  0
  197.6110  173.0910  140.7070 C   0  0  0  0  0  2  0  0  0  0  0  0
  197.1870  174.4820  141.1360 C   0  0  0  0  0  2  0  0  0  0  0  0
  196.3260  172.2240  138.4760 C   0  0  1  0  0  3  0  0  0  0  0  0
  193.3660  168.6140  141.6170 C   0  0  0  0  0  2  0  0  0  0  0  0
  195.8130  175.4820  142.9170 C   0  0  0  0  0  0  0  0  0  0  0  0
  193.3190  169.6400  139.3100 C   0  0  1  0  0  3  0  0  0  0  0  0
  196.2710  170.8410  138.9700 N   0  0  0  0  0  0  0  0  0  0  0  0
  194.3390  171.6300  143.6780 C   0  0  0  0  0  0  0  0  0  0  0  0
  195.4450  170.0850  138.0400 C   0  0  0  0  0  2  0  0  0  0  0  0
  194.4110  171.1040  145.0860 C   0  0  1  0  0  3  0  0  0  0  0  0
  195.9570  169.6700  145.7980 C   0  0  1  0  0  3  0  0  0  0  0  0
  193.7470  169.8670  145.1820 O   0  0  0  0  0  0  0  0  0  0  0  0
  194.5970  169.0690  145.9410 C   0  0  0  0  0  2  0  0  0  0  0  0
  195.7560  171.0150  145.5020 O   0  0  0  0  0  0  0  0  0  0  0  0
  196.7350  169.5320  147.0950 C   0  0  0  0  0  3  0  0  0  0  0  0
  197.7580  168.4230  146.9430 C   0  0  0  0  0  2  0  0  0  0  0  0
  196.4720  168.1670  147.7020 C   0  0  0  0  0  2  0  0  0  0  0  0
  195.1390  173.0280  139.0020 C   0  0  0  0  0  2  0  0  0  0  0  0
  194.7010  174.0870  138.0120 C   0  0  0  0  0  2  0  0  0  0  0  0
  193.3900  174.6900  138.4850 C   0  0  0  0  0  2  0  0  0  0  0  0
  192.2750  173.8150  138.1370 N   0  0  0  0  0  0  0  0  0  0  0  0
  190.0000  173.2840  138.6910 C   0  0  0  0  0  2  0  0  0  0  0  0
  191.2470  173.5170  139.1030 C   0  0  0  0  0  0  0  0  0  0  0  0
  192.3350  174.2410  141.2490 C   0  0  0  0  0  2  0  0  0  0  0  0
  190.8650  174.0060  141.5050 C   0  0  1  0  0  3  0  0  0  0  0  0
  191.6090  173.1230  140.5120 C   0  0  1  0  0  3  0  0  0  0  0  0
  190.6920  173.2420  142.8010 C   0  0  0  0  0  2  0  0  0  0  0  0
  189.7680  174.0240  143.7220 C   0  0  0  0  0  2  0  0  0  0  0  0
  190.0200  173.6540  145.1760 C   0  0  0  0  0  2  0  0  0  0  0  0
  190.0840  176.1830  145.7490 C   0  0  0  0  0  1  0  0  0  0  0  0
  189.0790  174.5690  147.1300 O   0  0  0  0  0  0  0  0  0  0  0  0
  189.6800  174.7880  146.0910 C   0  0  0  0  0  0  0  0  0  0  0  0
  192.1840  173.3080  136.7700 C   0  0  0  0  0  2  0  0  0  0  0  0
  190.4290  174.0940  135.1270 C   0  0  0  0  0  1  0  0  0  0  0  0
  192.8360  174.6070  134.7110 C   0  0  0  0  0  1  0  0  0  0  0  0
  191.7720  174.3910  135.7700 C   0  0  0  0  0  3  0  0  0  0  0  0
  192.3760  169.9970  138.1600 C   0  0  0  0  0  2  0  0  0  0  0  0
  190.9190  169.6990  138.4710 C   0  0  0  0  0  2  0  0  0  0  0  0
  190.9520  170.0000  136.0190 C   0  0  0  0  0  1  0  0  0  0  0  0
  190.0660  169.9820  137.2510 C   0  0  0  0  0  2  0  0  0  0  0  0
  1 19  1  0  0  0  0
  2 16  1  0  0  0  0
  3 20  1  0  0  0  0
  4  5  1  0  0  0  0
  5  9  2  0  0  0  0
  6  7  2  0  0  0  0
  7  9  1  0  0  0  0
  8 20  2  0  0  0  0
 10  6  1  0  0  0  0
 10  4  2  0  0  0  0
 11 13  1  0  0  0  0
 12 21  1  0  0  0  0
 13 23  1  0  0  0  0
 14 22  1  0  0  0  0
 15 23  2  0  0  0  0
 15  6  1  0  0  0  0
 16 17  1  0  0  0  0
 17  3  1  0  0  0  0
 18  2  1  0  0  0  0
 18 22  1  0  0  0  0
 18 33  1  1  0  0  0
 19 11  1  0  0  0  0
 20 10  1  0  0  0  0
 21 52  1  6  0  0  0
 21  1  1  0  0  0  0
 24 12  1  0  0  0  0
 24 22  1  0  0  0  0
 25 23  1  6  0  0  0
 25 27  1  0  0  0  0
 25 29  1  0  0  0  0
 26 28  1  0  0  0  0
 26 30  1  1  0  0  0
 27 28  1  0  0  0  0
 29 26  1  0  0  0  0
 30 32  1  0  0  0  0
 31 30  1  0  0  0  0
 31 32  1  0  0  0  0
 34 35  1  0  0  0  0
 34 33  1  0  0  0  0
 36 35  1  0  0  0  0
 36 38  1  0  0  0  0
 37 38  2  0  0  0  0
 39 40  1  0  0  0  0
 40 42  1  1  0  0  0
 41 38  1  6  0  0  0
 41 39  1  0  0  0  0
 41 40  1  0  0  0  0
 42 43  1  0  0  0  0
 43 44  1  0  0  0  0
 44 47  1  0  0  0  0
 45 47  1  0  0  0  0
 47 46  2  0  0  0  0
 48 36  1  0  0  0  0
 49 51  1  0  0  0  0
 50 51  1  0  0  0  0
 51 48  1  0  0  0  0
 52 53  1  0  0  0  0
 54 55  1  0  0  0  0
 55 53  1  0  0  0  0
M  END
>  <MODEL>
2

>  <REMARK>
 VINA RESULT:      -6.0      3.801      8.584
  Name = 
  17 active torsions:
  status: ('A' for Active; 'I' for Inactive)
    1  A    between atoms: C_3  and  C_14
    2  A    between atoms: C_3  and  C_21
    3  A    between atoms: C_6  and  C_14
    4  A    between atoms: C_6  and  C_38
    5  A    between atoms: C_8  and  C_20
    6  A    between atoms: C_8  and  C_22
    7  A    between atoms: C_10  and  C_32
    8  A    between atoms: N_12  and  C_20
    9  A    between atoms: N_12  and  C_42
   10  A    between atoms: N_12  and  C_46
   11  A    between atoms: C_13  and  C_52
   12  A    between atoms: C_22  and  C_43
   13  A    between atoms: C_27  and  C_49
   14  A    between atoms: C_27  and  C_55
   15  A    between atoms: C_41  and  C_55
   16  A    between atoms: C_42  and  C_50
   17  A    between atoms: C_46  and  C_53
                            x       y       z     vdW  Elec       q    Type
                         _______ _______ _______ _____ _____    ______ ____

>  <TORSDO>
F 17

$$$$
=
 OpenBabel11052419313D

 55 59  0  0  1  0  0  0  0  0999 V2000
  197.6020  174.4280  142.2200 C   0  0  0  0  0  2  0  0  0  0  0  0
  191.9860  170.3830  143.2410 S   0  0  0  0  0  0  0  0  0  0  0  0
  191.3390  171.9710  139.6800 O   0  0  0  0  0  0  0  0  0  0  0  0
  190.0560  174.0360  136.8930 C   0  0  0  0  0  3  0  0  0  0  0  0
  190.4700  174.7290  135.7540 C   0  0  0  0  0  3  0  0  0  0  0  0
  192.3560  173.9490  137.6890 C   0  0  0  0  0  0  0  0  0  0  0  0
  192.7530  174.6560  136.5440 C   0  0  0  0  0  3  0  0  0  0  0  0
  189.3070  173.0290  139.4350 O   0  0  0  0  0  0  0  0  0  0  0  0
  191.8200  175.0360  135.5780 C   0  0  0  0  0  3  0  0  0  0  0  0
  190.9830  173.6330  137.8650 C   0  0  0  0  0  0  0  0  0  0  0  0
  196.5370  174.1730  139.9730 C   0  0  0  0  0  2  0  0  0  0  0  0
  196.6660  172.6050  143.6930 C   0  0  0  0  0  2  0  0  0  0  0  0
  195.4480  173.1280  139.8300 C   0  0  0  0  0  2  0  0  0  0  0  0
  194.7770  170.0980  143.5120 O   0  0  0  0  0  1  0  0  0  0  0  0
  193.3410  173.6680  138.7590 C   0  0  0  0  0  3  0  0  0  0  0  0
  192.1960  170.6160  141.4510 C   0  0  0  0  0  2  0  0  0  0  0  0
  190.9870  171.3460  140.9020 C   0  0  0  0  0  2  0  0  0  0  0  0
  193.1560  171.7150  143.7420 C   0  0  1  0  0  3  0  0  0  0  0  0
  197.6140  173.6560  140.9100 C   0  0  0  0  0  2  0  0  0  0  0  0
  190.4930  172.8720  139.0330 C   0  0  0  0  0  0  0  0  0  0  0  0
  196.4420  174.0030  143.1200 C   0  0  1  0  0  3  0  0  0  0  0  0
  194.5490  171.4280  143.3690 N   0  0  0  0  0  0  0  0  0  0  0  0
  194.6350  173.3720  138.6010 C   0  0  0  0  0  0  0  0  0  0  0  0
  195.4000  172.0760  144.3570 C   0  0  0  0  0  2  0  0  0  0  0  0
  195.2430  173.1430  137.2440 C   0  0  1  0  0  3  0  0  0  0  0  0
  197.3130  172.3900  136.9240 C   0  0  1  0  0  3  0  0  0  0  0  0
  195.9850  174.2690  136.8420 O   0  0  0  0  0  0  0  0  0  0  0  0
  197.1620  173.7470  136.3170 C   0  0  0  0  0  2  0  0  0  0  0  0
  196.0290  171.9710  137.2570 O   0  0  0  0  0  0  0  0  0  0  0  0
  197.9310  171.4290  135.9230 C   0  0  0  0  0  3  0  0  0  0  0  0
  196.8460  170.5270  135.3670 C   0  0  0  0  0  2  0  0  0  0  0  0
  197.7910  170.0070  136.4310 C   0  0  0  0  0  2  0  0  0  0  0  0
  192.7040  173.0450  143.1430 C   0  0  0  0  0  2  0  0  0  0  0  0
  192.2190  174.0010  144.2120 C   0  0  0  0  0  2  0  0  0  0  0  0
  190.9930  174.7340  143.6960 C   0  0  0  0  0  2  0  0  0  0  0  0
  190.9300  176.0780  144.2630 N   0  0  0  0  0  0  0  0  0  0  0  0
  190.9890  178.2000  143.1410 C   0  0  0  0  0  2  0  0  0  0  0  0
  190.2780  177.1460  143.5470 C   0  0  0  0  0  0  0  0  0  0  0  0
  187.9520  176.2770  143.9280 C   0  0  0  0  0  2  0  0  0  0  0  0
  187.8830  177.7710  143.7190 C   0  0  1  0  0  3  0  0  0  0  0  0
  188.9080  176.9480  142.9510 C   0  0  1  0  0  3  0  0  0  0  0  0
  186.7320  178.1010  142.7930 C   0  0  0  0  0  2  0  0  0  0  0  0
  185.5620  178.6190  143.6160 C   0  0  0  0  0  2  0  0  0  0  0  0
  186.0520  179.2170  144.9270 C   0  0  0  0  0  2  0  0  0  0  0  0
  185.5920  179.1310  147.4780 C   0  0  0  0  0  1  0  0  0  0  0  0
  184.3980  177.8570  145.9040 O   0  0  0  0  0  0  0  0  0  0  0  0
  185.2800  178.6790  146.0910 C   0  0  0  0  0  0  0  0  0  0  0  0
  191.4770  176.2990  145.6000 C   0  0  0  0  0  2  0  0  0  0  0  0
  189.6390  177.1200  147.1310 C   0  0  0  0  0  1  0  0  0  0  0  0
  191.1840  175.3190  147.9030 C   0  0  0  0  0  1  0  0  0  0  0  0
  190.4840  175.9330  146.7050 C   0  0  0  0  0  3  0  0  0  0  0  0
  196.2260  175.0320  144.2290 C   0  0  0  0  0  2  0  0  0  0  0  0
  195.7930  176.3910  143.7050 C   0  0  0  0  0  2  0  0  0  0  0  0
  194.6080  176.7520  141.5670 C   0  0  0  0  0  1  0  0  0  0  0  0
  194.4600  176.2670  142.9970 C   0  0  0  0  0  2  0  0  0  0  0  0
  1 21  1  0  0  0  0
  2 18  1  0  0  0  0
  3 17  1  0  0  0  0
  4 10  1  0  0  0  0
  5  4  2  0  0  0  0
  6 10  2  0  0  0  0
  6 15  1  0  0  0  0
  7  6  1  0  0  0  0
  9  5  1  0  0  0  0
  9  7  2  0  0  0  0
 10 20  1  0  0  0  0
 11 19  1  0  0  0  0
 12 24  1  0  0  0  0
 13 11  1  0  0  0  0
 16  2  1  0  0  0  0
 17 16  1  0  0  0  0
 18 33  1  6  0  0  0
 19  1  1  0  0  0  0
 20  8  2  0  0  0  0
 20  3  1  0  0  0  0
 21 12  1  0  0  0  0
 21 52  1  1  0  0  0
 22 14  1  0  0  0  0
 22 18  1  0  0  0  0
 22 24  1  0  0  0  0
 23 15  2  0  0  0  0
 23 13  1  0  0  0  0
 25 29  1  0  0  0  0
 25 23  1  1  0  0  0
 26 30  1  6  0  0  0
 26 29  1  0  0  0  0
 27 25  1  0  0  0  0
 28 27  1  0  0  0  0
 28 26  1  0  0  0  0
 30 32  1  0  0  0  0
 31 30  1  0  0  0  0
 31 32  1  0  0  0  0
 33 34  1  0  0  0  0
 35 34  1  0  0  0  0
 35 36  1  0  0  0  0
 36 48  1  0  0  0  0
 37 38  2  0  0  0  0
 38 36  1  0  0  0  0
 40 42  1  6  0  0  0
 40 39  1  0  0  0  0
 41 38  1  1  0  0  0
 41 40  1  0  0  0  0
 41 39  1  0  0  0  0
 42 43  1  0  0  0  0
 43 44  1  0  0  0  0
 44 47  1  0  0  0  0
 46 47  2  0  0  0  0
 47 45  1  0  0  0  0
 48 51  1  0  0  0  0
 51 49  1  0  0  0  0
 51 50  1  0  0  0  0
 53 52  1  0  0  0  0
 54 55  1  0  0  0  0
 55 53  1  0  0  0  0
M  END
>  <MODEL>
3

>  <REMARK>
 VINA RESULT:      -5.8      1.845      2.575
  Name = 
  17 active torsions:
  status: ('A' for Active; 'I' for Inactive)
    1  A    between atoms: C_3  and  C_14
    2  A    between atoms: C_3  and  C_21
    3  A    between atoms: C_6  and  C_14
    4  A    between atoms: C_6  and  C_38
    5  A    between atoms: C_8  and  C_20
    6  A    between atoms: C_8  and  C_22
    7  A    between atoms: C_10  and  C_32
    8  A    between atoms: N_12  and  C_20
    9  A    between atoms: N_12  and  C_42
   10  A    between atoms: N_12  and  C_46
   11  A    between atoms: C_13  and  C_52
   12  A    between atoms: C_22  and  C_43
   13  A    between atoms: C_27  and  C_49
   14  A    between atoms: C_27  and  C_55
   15  A    between atoms: C_41  and  C_55
   16  A    between atoms: C_42  and  C_50
   17  A    between atoms: C_46  and  C_53
                            x       y       z     vdW  Elec       q    Type
                         _______ _______ _______ _____ _____    ______ ____

>  <TORSDO>
F 17

$$$$
=
 OpenBabel11052419313D

 55 59  0  0  1  0  0  0  0  0999 V2000
  192.4090  168.4430  141.2670 C   0  0  0  0  0  2  0  0  0  0  0  0
  194.2370  174.5370  138.3590 S   0  0  0  0  0  0  0  0  0  0  0  0
  193.8790  175.4210  142.1950 O   0  0  0  0  0  0  0  0  0  0  0  0
  192.6560  176.6840  145.4480 C   0  0  0  0  0  3  0  0  0  0  0  0
  192.5370  176.3300  146.7930 C   0  0  0  0  0  3  0  0  0  0  0  0
  193.0550  174.3550  144.8590 C   0  0  0  0  0  0  0  0  0  0  0  0
  192.9200  174.0150  146.2140 C   0  0  0  0  0  3  0  0  0  0  0  0
  192.4840  177.1920  142.6650 O   0  0  0  0  0  0  0  0  0  0  0  0
  192.6720  174.9950  147.1760 C   0  0  0  0  0  3  0  0  0  0  0  0
  192.9220  175.7140  144.4710 C   0  0  0  0  0  0  0  0  0  0  0  0
  193.1440  169.8990  143.1610 C   0  0  0  0  0  2  0  0  0  0  0  0
  193.2950  169.4830  139.1470 C   0  0  0  0  0  2  0  0  0  0  0  0
  193.8520  171.1940  142.8130 C   0  0  0  0  0  2  0  0  0  0  0  0
  195.1250  171.8660  138.2180 O   0  0  0  0  0  1  0  0  0  0  0  0
  193.1910  173.2870  143.8420 C   0  0  0  0  0  3  0  0  0  0  0  0
  194.7060  174.5860  140.1150 C   0  0  0  0  0  2  0  0  0  0  0  0
  193.9250  175.6870  140.8040 C   0  0  0  0  0  2  0  0  0  0  0  0
  193.1670  173.0430  138.4930 C   0  0  1  0  0  3  0  0  0  0  0  0
  193.5630  168.8150  142.1840 C   0  0  0  0  0  2  0  0  0  0  0  0
  193.0730  176.1520  143.0670 C   0  0  0  0  0  0  0  0  0  0  0  0
  192.1770  169.4980  140.1870 C   0  0  1  0  0  3  0  0  0  0  0  0
  193.9170  171.8260  138.8360 N   0  0  0  0  0  0  0  0  0  0  0  0
  193.8490  172.1310  143.9760 C   0  0  0  0  0  0  0  0  0  0  0  0
  193.2110  170.7030  138.2350 C   0  0  0  0  0  2  0  0  0  0  0  0
  194.6860  171.8230  145.1870 C   0  0  1  0  0  3  0  0  0  0  0  0
  196.0740  170.0880  145.3270 C   0  0  1  0  0  3  0  0  0  0  0  0
  194.0290  170.8920  146.0140 O   0  0  0  0  0  0  0  0  0  0  0  0
  195.0180  169.9840  146.3780 C   0  0  0  0  0  2  0  0  0  0  0  0
  195.9620  171.3670  144.7920 O   0  0  0  0  0  0  0  0  0  0  0  0
  197.4500  169.8990  145.9410 C   0  0  0  0  0  3  0  0  0  0  0  0
  197.9410  168.4970  145.6340 C   0  0  0  0  0  2  0  0  0  0  0  0
  197.3880  168.8210  147.0060 C   0  0  0  0  0  2  0  0  0  0  0  0
  192.0600  173.2950  139.5140 C   0  0  0  0  0  2  0  0  0  0  0  0
  190.7990  173.8090  138.8530 C   0  0  0  0  0  2  0  0  0  0  0  0
  189.6060  173.4460  139.7200 C   0  0  0  0  0  2  0  0  0  0  0  0
  189.6700  174.1590  140.9930 N   0  0  0  0  0  0  0  0  0  0  0  0
  187.7780  175.5690  140.5460 C   0  0  0  0  0  2  0  0  0  0  0  0
  188.9350  175.3850  141.1840 C   0  0  0  0  0  0  0  0  0  0  0  0
  188.5100  177.6240  142.2400 C   0  0  0  0  0  2  0  0  0  0  0  0
  188.0140  176.5460  143.1740 C   0  0  1  0  0  3  0  0  0  0  0  0
  189.2610  176.3040  142.3340 C   0  0  1  0  0  3  0  0  0  0  0  0
  188.4370  176.8680  144.5910 C   0  0  0  0  0  2  0  0  0  0  0  0
  187.3380  176.4380  145.5500 C   0  0  0  0  0  2  0  0  0  0  0  0
  186.1230  177.3450  145.4160 C   0  0  0  0  0  2  0  0  0  0  0  0
  184.4890  178.3550  147.1580 C   0  0  0  0  0  1  0  0  0  0  0  0
  186.8250  178.5620  147.3040 O   0  0  0  0  0  0  0  0  0  0  0  0
  185.8800  178.1160  146.6750 C   0  0  0  0  0  0  0  0  0  0  0  0
  190.4340  173.5680  142.0890 C   0  0  0  0  0  2  0  0  0  0  0  0
  189.7140  172.9320  144.4280 C   0  0  0  0  0  1  0  0  0  0  0  0
  189.9270  171.1700  142.6740 C   0  0  0  0  0  1  0  0  0  0  0  0
  189.5900  172.6240  142.9470 C   0  0  0  0  0  3  0  0  0  0  0  0
  190.8070  169.3010  139.5370 C   0  0  0  0  0  2  0  0  0  0  0  0
  190.8650  168.4680  138.2680 C   0  0  0  0  0  2  0  0  0  0  0  0
  189.5990  170.5040  137.6710 C   0  0  0  0  0  1  0  0  0  0  0  0
  190.0960  169.1630  137.1630 C   0  0  0  0  0  2  0  0  0  0  0  0
  1 19  1  0  0  0  0
  2 18  1  0  0  0  0
  2 16  1  0  0  0  0
  3 20  1  0  0  0  0
  4  5  1  0  0  0  0
  5  9  2  0  0  0  0
  6  7  2  0  0  0  0
  7  9  1  0  0  0  0
  8 20  2  0  0  0  0
 10  6  1  0  0  0  0
 10  4  2  0  0  0  0
 12 21  1  0  0  0  0
 13 11  1  0  0  0  0
 13 23  1  0  0  0  0
 14 22  1  0  0  0  0
 15 23  2  0  0  0  0
 15  6  1  0  0  0  0
 16 17  1  0  0  0  0
 17  3  1  0  0  0  0
 18 22  1  0  0  0  0
 18 33  1  1  0  0  0
 19 11  1  0  0  0  0
 20 10  1  0  0  0  0
 21 52  1  6  0  0  0
 21  1  1  0  0  0  0
 24 22  1  0  0  0  0
 24 12  1  0  0  0  0
 25 23  1  6  0  0  0
 25 27  1  0  0  0  0
 26 30  1  1  0  0  0
 26 28  1  0  0  0  0
 27 28  1  0  0  0  0
 29 25  1  0  0  0  0
 29 26  1  0  0  0  0
 30 32  1  0  0  0  0
 31 30  1  0  0  0  0
 31 32  1  0  0  0  0
 34 33  1  0  0  0  0
 34 35  1  0  0  0  0
 35 36  1  0  0  0  0
 36 38  1  0  0  0  0
 36 48  1  0  0  0  0
 37 38  2  0  0  0  0
 39 41  1  0  0  0  0
 39 40  1  0  0  0  0
 40 42  1  1  0  0  0
 41 38  1  6  0  0  0
 41 40  1  0  0  0  0
 42 43  1  0  0  0  0
 44 43  1  0  0  0  0
 44 47  1  0  0  0  0
 47 45  1  0  0  0  0
 47 46  2  0  0  0  0
 48 51  1  0  0  0  0
 50 51  1  0  0  0  0
 51 49  1  0  0  0  0
 53 52  1  0  0  0  0
 55 54  1  0  0  0  0
 55 53  1  0  0  0  0
M  END
>  <MODEL>
4

>  <REMARK>
 VINA RESULT:      -5.7      3.232      7.106
  Name = 
  17 active torsions:
  status: ('A' for Active; 'I' for Inactive)
    1  A    between atoms: C_3  and  C_14
    2  A    between atoms: C_3  and  C_21
    3  A    between atoms: C_6  and  C_14
    4  A    between atoms: C_6  and  C_38
    5  A    between atoms: C_8  and  C_20
    6  A    between atoms: C_8  and  C_22
    7  A    between atoms: C_10  and  C_32
    8  A    between atoms: N_12  and  C_20
    9  A    between atoms: N_12  and  C_42
   10  A    between atoms: N_12  and  C_46
   11  A    between atoms: C_13  and  C_52
   12  A    between atoms: C_22  and  C_43
   13  A    between atoms: C_27  and  C_49
   14  A    between atoms: C_27  and  C_55
   15  A    between atoms: C_41  and  C_55
   16  A    between atoms: C_42  and  C_50
   17  A    between atoms: C_46  and  C_53
                            x       y       z     vdW  Elec       q    Type
                         _______ _______ _______ _____ _____    ______ ____

>  <TORSDO>
F 17

$$$$
=
 OpenBabel11052419313D

 55 59  0  0  1  0  0  0  0  0999 V2000
  190.3170  172.7960  138.5030 C   0  0  0  0  0  2  0  0  0  0  0  0
  192.9540  168.4090  143.2720 S   0  0  0  0  0  0  0  0  0  0  0  0
  193.5400  171.9720  144.8780 O   0  0  0  0  0  0  0  0  0  0  0  0
  195.0720  175.1150  146.0840 C   0  0  0  0  0  3  0  0  0  0  0  0
  194.8530  176.4920  146.1530 C   0  0  0  0  0  3  0  0  0  0  0  0
  193.3280  174.9110  144.3960 C   0  0  0  0  0  0  0  0  0  0  0  0
  193.1290  176.2980  144.4700 C   0  0  0  0  0  3  0  0  0  0  0  0
  195.7080  172.4100  145.5250 O   0  0  0  0  0  0  0  0  0  0  0  0
  193.8780  177.0830  145.3480 C   0  0  0  0  0  3  0  0  0  0  0  0
  194.3170  174.3100  145.2190 C   0  0  0  0  0  0  0  0  0  0  0  0
  190.5490  174.1390  140.5980 C   0  0  0  0  0  2  0  0  0  0  0  0
  190.4300  170.3640  139.1660 C   0  0  0  0  0  2  0  0  0  0  0  0
  190.8450  173.3870  141.8800 C   0  0  0  0  0  2  0  0  0  0  0  0
  190.5870  168.5800  141.7510 O   0  0  0  0  0  1  0  0  0  0  0  0
  192.6130  174.1180  143.3700 C   0  0  0  0  0  3  0  0  0  0  0  0
  192.5100  169.9580  144.1140 C   0  0  0  0  0  2  0  0  0  0  0  0
  193.7640  170.5870  144.6860 C   0  0  0  0  0  2  0  0  0  0  0  0
  192.8250  169.0820  141.5610 C   0  0  1  0  0  3  0  0  0  0  0  0
  189.6030  173.3190  139.7380 C   0  0  0  0  0  2  0  0  0  0  0  0
  194.5680  172.8540  145.2130 C   0  0  0  0  0  0  0  0  0  0  0  0
  191.2340  171.6180  138.8310 C   0  0  1  0  0  3  0  0  0  0  0  0
  191.4530  169.4650  141.1950 N   0  0  0  0  0  0  0  0  0  0  0  0
  191.3650  174.3120  142.9320 C   0  0  0  0  0  0  0  0  0  0  0  0
  191.3260  169.2810  139.7560 C   0  0  0  0  0  2  0  0  0  0  0  0
  190.4460  175.3240  143.5590 C   0  0  1  0  0  3  0  0  0  0  0  0
  188.3890  175.7560  142.8230 C   0  0  1  0  0  3  0  0  0  0  0  0
  190.5460  176.5590  142.8910 O   0  0  0  0  0  0  0  0  0  0  0  0
  189.2310  176.9870  142.7420 C   0  0  0  0  0  2  0  0  0  0  0  0
  189.1210  174.8360  143.5680 O   0  0  0  0  0  0  0  0  0  0  0  0
  187.0740  176.0600  143.5190 C   0  0  0  0  0  3  0  0  0  0  0  0
  186.1010  176.6350  142.5080 C   0  0  0  0  0  2  0  0  0  0  0  0
  186.8130  177.5540  143.4800 C   0  0  0  0  0  2  0  0  0  0  0  0
  193.7720  170.2700  141.4050 C   0  0  0  0  0  2  0  0  0  0  0  0
  194.8410  169.9970  140.3690 C   0  0  0  0  0  2  0  0  0  0  0  0
  196.1800  170.4700  140.9070 C   0  0  0  0  0  2  0  0  0  0  0  0
  196.8460  171.3260  139.9290 N   0  0  0  0  0  0  0  0  0  0  0  0
  197.6870  169.4820  138.6420 C   0  0  0  0  0  2  0  0  0  0  0  0
  197.3580  170.7740  138.7000 C   0  0  0  0  0  0  0  0  0  0  0  0
  196.6070  170.6510  136.3060 C   0  0  0  0  0  2  0  0  0  0  0  0
  195.7330  171.6420  137.0380 C   0  0  1  0  0  3  0  0  0  0  0  0
  197.2070  171.5220  137.4010 C   0  0  1  0  0  3  0  0  0  0  0  0
  195.5400  172.8770  136.1840 C   0  0  0  0  0  2  0  0  0  0  0  0
  194.6200  173.8460  136.9100 C   0  0  0  0  0  2  0  0  0  0  0  0
  194.8000  175.2590  136.3760 C   0  0  0  0  0  2  0  0  0  0  0  0
  192.2100  175.2260  136.4950 C   0  0  0  0  0  1  0  0  0  0  0  0
  193.4490  177.1090  135.8310 O   0  0  0  0  0  0  0  0  0  0  0  0
  193.4830  175.9500  136.2110 C   0  0  0  0  0  0  0  0  0  0  0  0
  196.9180  172.7620  140.1900 C   0  0  0  0  0  2  0  0  0  0  0  0
  194.6480  173.8500  140.4360 C   0  0  0  0  0  1  0  0  0  0  0  0
  196.3880  174.2000  142.1910 C   0  0  0  0  0  1  0  0  0  0  0  0
  195.8330  173.2350  141.1590 C   0  0  0  0  0  3  0  0  0  0  0  0
  192.2080  171.3670  137.6800 C   0  0  0  0  0  2  0  0  0  0  0  0
  191.5950  170.5600  136.5470 C   0  0  0  0  0  2  0  0  0  0  0  0
  192.3040  171.9710  134.6470 C   0  0  0  0  0  1  0  0  0  0  0  0
  192.4910  170.6270  135.3270 C   0  0  0  0  0  2  0  0  0  0  0  0
  1 21  1  0  0  0  0
  1 19  1  0  0  0  0
  2 16  1  0  0  0  0
  3 20  1  0  0  0  0
  4  5  1  0  0  0  0
  6  7  2  0  0  0  0
  6 10  1  0  0  0  0
  7  9  1  0  0  0  0
  9  5  2  0  0  0  0
 10  4  2  0  0  0  0
 11 13  1  0  0  0  0
 12 24  1  0  0  0  0
 13 23  1  0  0  0  0
 15  6  1  0  0  0  0
 16 17  1  0  0  0  0
 17  3  1  0  0  0  0
 18 33  1  1  0  0  0
 18  2  1  0  0  0  0
 19 11  1  0  0  0  0
 20 10  1  0  0  0  0
 20  8  2  0  0  0  0
 21 52  1  6  0  0  0
 21 12  1  0  0  0  0
 22 18  1  0  0  0  0
 22 14  1  0  0  0  0
 23 15  2  0  0  0  0
 24 22  1  0  0  0  0
 25 23  1  6  0  0  0
 25 29  1  0  0  0  0
 26 30  1  1  0  0  0
 26 29  1  0  0  0  0
 27 25  1  0  0  0  0
 28 26  1  0  0  0  0
 28 27  1  0  0  0  0
 31 32  1  0  0  0  0
 31 30  1  0  0  0  0
 32 30  1  0  0  0  0
 34 35  1  0  0  0  0
 34 33  1  0  0  0  0
 36 48  1  0  0  0  0
 36 35  1  0  0  0  0
 37 38  2  0  0  0  0
 38 36  1  0  0  0  0
 39 40  1  0  0  0  0
 39 41  1  0  0  0  0
 40 42  1  6  0  0  0
 40 41  1  0  0  0  0
 41 38  1  1  0  0  0
 42 43  1  0  0  0  0
 44 43  1  0  0  0  0
 46 47  2  0  0  0  0
 47 44  1  0  0  0  0
 47 45  1  0  0  0  0
 48 51  1  0  0  0  0
 49 51  1  0  0  0  0
 51 50  1  0  0  0  0
 53 52  1  0  0  0  0
 54 55  1  0  0  0  0
 55 53  1  0  0  0  0
M  END
>  <MODEL>
5

>  <REMARK>
 VINA RESULT:      -5.5      2.792      9.582
  Name = 
  17 active torsions:
  status: ('A' for Active; 'I' for Inactive)
    1  A    between atoms: C_3  and  C_14
    2  A    between atoms: C_3  and  C_21
    3  A    between atoms: C_6  and  C_14
    4  A    between atoms: C_6  and  C_38
    5  A    between atoms: C_8  and  C_20
    6  A    between atoms: C_8  and  C_22
    7  A    between atoms: C_10  and  C_32
    8  A    between atoms: N_12  and  C_20
    9  A    between atoms: N_12  and  C_42
   10  A    between atoms: N_12  and  C_46
   11  A    between atoms: C_13  and  C_52
   12  A    between atoms: C_22  and  C_43
   13  A    between atoms: C_27  and  C_49
   14  A    between atoms: C_27  and  C_55
   15  A    between atoms: C_41  and  C_55
   16  A    between atoms: C_42  and  C_50
   17  A    between atoms: C_46  and  C_53
                            x       y       z     vdW  Elec       q    Type
                         _______ _______ _______ _____ _____    ______ ____

>  <TORSDO>
F 17

$$$$
=
 OpenBabel11052419313D

 55 59  0  0  1  0  0  0  0  0999 V2000
  189.4940  173.6300  138.9010 C   0  0  0  0  0  2  0  0  0  0  0  0
  192.9710  169.0300  142.8610 S   0  0  0  0  0  0  0  0  0  0  0  0
  193.4850  172.4540  144.7660 O   0  0  0  0  0  0  0  0  0  0  0  0
  194.9190  175.5790  146.1270 C   0  0  0  0  0  3  0  0  0  0  0  0
  194.6120  176.9200  146.3670 C   0  0  0  0  0  3  0  0  0  0  0  0
  193.0100  175.3990  144.6260 C   0  0  0  0  0  0  0  0  0  0  0  0
  192.7230  176.7500  144.8680 C   0  0  0  0  0  3  0  0  0  0  0  0
  195.6760  173.0040  145.2180 O   0  0  0  0  0  0  0  0  0  0  0  0
  193.5110  177.5040  145.7390 C   0  0  0  0  0  3  0  0  0  0  0  0
  194.1280  174.8030  145.2690 C   0  0  0  0  0  0  0  0  0  0  0  0
  189.8710  174.7750  141.0900 C   0  0  0  0  0  2  0  0  0  0  0  0
  189.8560  171.1630  139.2840 C   0  0  0  0  0  2  0  0  0  0  0  0
  190.3670  173.9280  142.2450 C   0  0  0  0  0  2  0  0  0  0  0  0
  190.4370  169.1530  141.6320 O   0  0  0  0  0  1  0  0  0  0  0  0
  192.2390  174.6540  143.6040 C   0  0  0  0  0  3  0  0  0  0  0  0
  192.5190  170.4460  143.9070 C   0  0  0  0  0  2  0  0  0  0  0  0
  193.7830  171.1170  144.4040 C   0  0  0  0  0  2  0  0  0  0  0  0
  192.5970  169.8540  141.2560 C   0  0  1  0  0  3  0  0  0  0  0  0
  188.8920  173.9690  140.2550 C   0  0  0  0  0  2  0  0  0  0  0  0
  194.4800  173.3800  145.0800 C   0  0  0  0  0  0  0  0  0  0  0  0
  190.5240  172.5060  139.0010 C   0  0  1  0  0  3  0  0  0  0  0  0
  191.1680  170.1560  141.0830 N   0  0  0  0  0  0  0  0  0  0  0  0
  190.9380  174.7860  143.3270 C   0  0  0  0  0  0  0  0  0  0  0  0
  190.8890  170.1040  139.6550 C   0  0  0  0  0  2  0  0  0  0  0  0
  190.0280  175.6520  144.1550 C   0  0  1  0  0  3  0  0  0  0  0  0
  187.9810  176.2580  143.5230 C   0  0  1  0  0  3  0  0  0  0  0  0
  190.1470  177.0000  143.7670 O   0  0  0  0  0  0  0  0  0  0  0  0
  188.8390  177.4670  143.7090 C   0  0  0  0  0  2  0  0  0  0  0  0
  188.6980  175.1910  144.0550 O   0  0  0  0  0  0  0  0  0  0  0  0
  186.6660  176.4240  144.2650 C   0  0  0  0  0  3  0  0  0  0  0  0
  185.5790  176.7850  143.2710 C   0  0  0  0  0  2  0  0  0  0  0  0
  186.1930  177.8600  144.1450 C   0  0  0  0  0  2  0  0  0  0  0  0
  193.4330  171.1250  141.1270 C   0  0  0  0  0  2  0  0  0  0  0  0
  194.2170  171.1470  139.8320 C   0  0  0  0  0  2  0  0  0  0  0  0
  195.0010  169.8520  139.7110 C   0  0  0  0  0  2  0  0  0  0  0  0
  196.4150  170.1360  139.4820 N   0  0  0  0  0  0  0  0  0  0  0  0
  196.3910  170.1010  137.0820 C   0  0  0  0  0  2  0  0  0  0  0  0
  196.8670  170.6360  138.2080 C   0  0  0  0  0  0  0  0  0  0  0  0
  197.2390  172.7050  136.8330 C   0  0  0  0  0  2  0  0  0  0  0  0
  196.5790  173.0990  138.1330 C   0  0  1  0  0  3  0  0  0  0  0  0
  197.5860  171.9570  138.1120 C   0  0  1  0  0  3  0  0  0  0  0  0
  197.2550  174.3330  138.6910 C   0  0  0  0  0  2  0  0  0  0  0  0
  196.4180  174.8850  139.8350 C   0  0  0  0  0  2  0  0  0  0  0  0
  197.2860  175.6830  140.7980 C   0  0  0  0  0  2  0  0  0  0  0  0
  196.8220  176.7060  143.1350 C   0  0  0  0  0  1  0  0  0  0  0  0
  195.4550  177.0880  141.2620 O   0  0  0  0  0  0  0  0  0  0  0  0
  196.4510  176.5370  141.7000 C   0  0  0  0  0  0  0  0  0  0  0  0
  197.3500  169.9710  140.5930 C   0  0  0  0  0  2  0  0  0  0  0  0
  197.9410  172.1170  141.7940 C   0  0  0  0  0  1  0  0  0  0  0  0
  197.0870  170.1640  143.0920 C   0  0  0  0  0  1  0  0  0  0  0  0
  197.0330  170.9000  141.7670 C   0  0  0  0  0  3  0  0  0  0  0  0
  191.3730  172.4490  137.7310 C   0  0  0  0  0  2  0  0  0  0  0  0
  190.5730  172.0710  136.4960 C   0  0  0  0  0  2  0  0  0  0  0  0
  192.5320  170.5840  136.2600 C   0  0  0  0  0  1  0  0  0  0  0  0
  191.0510  170.7360  135.9640 C   0  0  0  0  0  2  0  0  0  0  0  0
  1 21  1  0  0  0  0
  1 19  1  0  0  0  0
  2 16  1  0  0  0  0
  3 20  1  0  0  0  0
  4  5  1  0  0  0  0
  6  7  2  0  0  0  0
  6 10  1  0  0  0  0
  7  9  1  0  0  0  0
  9  5  2  0  0  0  0
 10  4  2  0  0  0  0
 11 13  1  0  0  0  0
 12 24  1  0  0  0  0
 13 23  1  0  0  0  0
 15  6  1  0  0  0  0
 16 17  1  0  0  0  0
 17  3  1  0  0  0  0
 18 33  1  1  0  0  0
 18  2  1  0  0  0  0
 19 11  1  0  0  0  0
 20  8  2  0  0  0  0
 20 10  1  0  0  0  0
 21 52  1  6  0  0  0
 21 12  1  0  0  0  0
 22 18  1  0  0  0  0
 22 14  1  0  0  0  0
 23 15  2  0  0  0  0
 24 22  1  0  0  0  0
 25 23  1  6  0  0  0
 26 28  1  0  0  0  0
 26 29  1  0  0  0  0
 26 30  1  1  0  0  0
 27 25  1  0  0  0  0
 28 27  1  0  0  0  0
 29 25  1  0  0  0  0
 31 32  1  0  0  0  0
 31 30  1  0  0  0  0
 32 30  1  0  0  0  0
 34 33  1  0  0  0  0
 35 34  1  0  0  0  0
 36 35  1  0  0  0  0
 36 48  1  0  0  0  0
 37 38  2  0  0  0  0
 38 36  1  0  0  0  0
 39 41  1  0  0  0  0
 39 40  1  0  0  0  0
 40 42  1  1  0  0  0
 41 40  1  0  0  0  0
 41 38  1  6  0  0  0
 42 43  1  0  0  0  0
 43 44  1  0  0  0  0
 44 47  1  0  0  0  0
 46 47  2  0  0  0  0
 47 45  1  0  0  0  0
 48 51  1  0  0  0  0
 51 49  1  0  0  0  0
 51 50  1  0  0  0  0
 53 52  1  0  0  0  0
 55 54  1  0  0  0  0
 55 53  1  0  0  0  0
M  END
>  <MODEL>
6

>  <REMARK>
 VINA RESULT:      -5.4      2.811      9.900
  Name = 
  17 active torsions:
  status: ('A' for Active; 'I' for Inactive)
    1  A    between atoms: C_3  and  C_14
    2  A    between atoms: C_3  and  C_21
    3  A    between atoms: C_6  and  C_14
    4  A    between atoms: C_6  and  C_38
    5  A    between atoms: C_8  and  C_20
    6  A    between atoms: C_8  and  C_22
    7  A    between atoms: C_10  and  C_32
    8  A    between atoms: N_12  and  C_20
    9  A    between atoms: N_12  and  C_42
   10  A    between atoms: N_12  and  C_46
   11  A    between atoms: C_13  and  C_52
   12  A    between atoms: C_22  and  C_43
   13  A    between atoms: C_27  and  C_49
   14  A    between atoms: C_27  and  C_55
   15  A    between atoms: C_41  and  C_55
   16  A    between atoms: C_42  and  C_50
   17  A    between atoms: C_46  and  C_53
                            x       y       z     vdW  Elec       q    Type
                         _______ _______ _______ _____ _____    ______ ____

>  <TORSDO>
F 17

$$$$
=
 OpenBabel11052419313D

 55 59  0  0  1  0  0  0  0  0999 V2000
  189.3520  174.2220  142.7720 C   0  0  0  0  0  2  0  0  0  0  0  0
  195.9410  175.2200  140.6430 S   0  0  0  0  0  0  0  0  0  0  0  0
  194.5010  172.6580  138.0010 O   0  0  0  0  0  0  0  0  0  0  0  0
  193.7370  169.5910  136.0790 C   0  0  0  0  0  3  0  0  0  0  0  0
  192.6870  168.9110  135.4620 C   0  0  0  0  0  3  0  0  0  0  0  0
  192.1430  170.9630  137.3070 C   0  0  0  0  0  0  0  0  0  0  0  0
  191.0980  170.2610  136.6860 C   0  0  0  0  0  3  0  0  0  0  0  0
  195.7440  170.7390  137.7200 O   0  0  0  0  0  0  0  0  0  0  0  0
  191.3660  169.2490  135.7630 C   0  0  0  0  0  3  0  0  0  0  0  0
  193.4850  170.6220  136.9960 C   0  0  0  0  0  0  0  0  0  0  0  0
  189.4430  173.3510  140.4310 C   0  0  0  0  0  2  0  0  0  0  0  0
  191.3780  175.6910  143.0940 C   0  0  0  0  0  2  0  0  0  0  0  0
  190.6770  173.6750  139.6120 C   0  0  0  0  0  2  0  0  0  0  0  0
  193.7920  176.8560  141.4480 O   0  0  0  0  0  1  0  0  0  0  0  0
  191.8380  171.9430  138.3750 C   0  0  0  0  0  3  0  0  0  0  0  0
  194.9650  174.6620  139.2150 C   0  0  0  0  0  2  0  0  0  0  0  0
  195.5080  173.3310  138.7340 C   0  0  0  0  0  2  0  0  0  0  0  0
  194.6800  174.7840  141.9140 C   0  0  1  0  0  3  0  0  0  0  0  0
  189.0910  174.5390  141.3080 C   0  0  0  0  0  2  0  0  0  0  0  0
  194.6370  171.3300  137.5930 C   0  0  0  0  0  0  0  0  0  0  0  0
  190.8430  174.2610  143.1060 C   0  0  1  0  0  3  0  0  0  0  0  0
  193.4550  175.5910  141.8100 N   0  0  0  0  0  0  0  0  0  0  0  0
  190.7860  172.7660  138.4320 C   0  0  0  0  0  0  0  0  0  0  0  0
  192.9020  175.7060  143.1520 C   0  0  0  0  0  2  0  0  0  0  0  0
  189.8110  172.8980  137.2940 C   0  0  1  0  0  3  0  0  0  0  0  0
  189.4270  174.8000  136.2030 C   0  0  1  0  0  3  0  0  0  0  0  0
  188.5640  173.3470  137.7660 O   0  0  0  0  0  0  0  0  0  0  0  0
  188.1710  174.3210  136.8540 C   0  0  0  0  0  2  0  0  0  0  0  0
  190.3370  173.7520  136.3010 O   0  0  0  0  0  0  0  0  0  0  0  0
  189.1720  175.1330  134.7430 C   0  0  0  0  0  3  0  0  0  0  0  0
  189.4520  176.6070  134.5150 C   0  0  0  0  0  2  0  0  0  0  0  0
  188.0230  176.1180  134.6410 C   0  0  0  0  0  2  0  0  0  0  0  0
  194.3500  173.2960  141.8200 C   0  0  0  0  0  2  0  0  0  0  0  0
  195.4940  172.4400  142.3200 C   0  0  0  0  0  2  0  0  0  0  0  0
  195.6180  171.2160  141.4300 C   0  0  0  0  0  2  0  0  0  0  0  0
  195.5740  169.9980  142.2330 N   0  0  0  0  0  0  0  0  0  0  0  0
  197.8600  169.3760  142.6190 C   0  0  0  0  0  2  0  0  0  0  0  0
  196.6590  169.6650  143.1220 C   0  0  0  0  0  0  0  0  0  0  0  0
  197.9300  169.9530  145.2690 C   0  0  0  0  0  2  0  0  0  0  0  0
  197.2920  171.2720  144.9030 C   0  0  1  0  0  3  0  0  0  0  0  0
  196.5660  169.9700  144.5950 C   0  0  1  0  0  3  0  0  0  0  0  0
  196.6730  171.8950  146.1360 C   0  0  0  0  0  2  0  0  0  0  0  0
  197.1490  173.3340  146.2600 C   0  0  0  0  0  2  0  0  0  0  0  0
  196.5260  174.2010  145.1760 C   0  0  0  0  0  2  0  0  0  0  0  0
  194.0970  174.1700  146.0850 C   0  0  0  0  0  1  0  0  0  0  0  0
  195.3330  176.1430  145.7660 O   0  0  0  0  0  0  0  0  0  0  0  0
  195.3200  174.9260  145.6870 C   0  0  0  0  0  0  0  0  0  0  0  0
  194.3770  169.1620  142.1710 C   0  0  0  0  0  2  0  0  0  0  0  0
  192.0980  170.2210  141.8790 C   0  0  0  0  0  1  0  0  0  0  0  0
  192.9700  168.6550  140.1420 C   0  0  0  0  0  1  0  0  0  0  0  0
  193.3410  169.6970  141.1800 C   0  0  0  0  0  3  0  0  0  0  0  0
  191.1040  173.5790  144.4490 C   0  0  0  0  0  2  0  0  0  0  0  0
  189.9160  173.6480  145.3930 C   0  0  0  0  0  2  0  0  0  0  0  0
  189.0250  174.7340  147.4260 C   0  0  0  0  0  1  0  0  0  0  0  0
  190.0770  174.8230  146.3350 C   0  0  0  0  0  2  0  0  0  0  0  0
  1 21  1  0  0  0  0
  2 18  1  0  0  0  0
  3 17  1  0  0  0  0
  4 10  1  0  0  0  0
  5  9  1  0  0  0  0
  5  4  2  0  0  0  0
  6 15  1  0  0  0  0
  7  6  1  0  0  0  0
  9  7  2  0  0  0  0
 10  6  2  0  0  0  0
 10 20  1  0  0  0  0
 11 19  1  0  0  0  0
 12 21  1  0  0  0  0
 12 24  1  0  0  0  0
 13 11  1  0  0  0  0
 14 22  1  0  0  0  0
 15 23  2  0  0  0  0
 16  2  1  0  0  0  0
 17 16  1  0  0  0  0
 18 33  1  6  0  0  0
 19  1  1  0  0  0  0
 20  8  2  0  0  0  0
 20  3  1  0  0  0  0
 21 52  1  1  0  0  0
 22 18  1  0  0  0  0
 22 24  1  0  0  0  0
 23 13  1  0  0  0  0
 25 27  1  0  0  0  0
 25 23  1  1  0  0  0
 26 30  1  6  0  0  0
 26 29  1  0  0  0  0
 26 28  1  0  0  0  0
 28 27  1  0  0  0  0
 29 25  1  0  0  0  0
 31 32  1  0  0  0  0
 31 30  1  0  0  0  0
 32 30  1  0  0  0  0
 33 34  1  0  0  0  0
 35 36  1  0  0  0  0
 35 34  1  0  0  0  0
 36 38  1  0  0  0  0
 37 38  2  0  0  0  0
 40 39  1  0  0  0  0
 40 42  1  1  0  0  0
 41 38  1  6  0  0  0
 41 40  1  0  0  0  0
 41 39  1  0  0  0  0
 42 43  1  0  0  0  0
 44 47  1  0  0  0  0
 44 43  1  0  0  0  0
 47 46  2  0  0  0  0
 47 45  1  0  0  0  0
 48 36  1  0  0  0  0
 50 51  1  0  0  0  0
 51 49  1  0  0  0  0
 51 48  1  0  0  0  0
 52 53  1  0  0  0  0
 53 55  1  0  0  0  0
 55 54  1  0  0  0  0
M  END
>  <MODEL>
7

>  <REMARK>
 VINA RESULT:      -5.3      3.291      8.181
  Name = 
  17 active torsions:
  status: ('A' for Active; 'I' for Inactive)
    1  A    between atoms: C_3  and  C_14
    2  A    between atoms: C_3  and  C_21
    3  A    between atoms: C_6  and  C_14
    4  A    between atoms: C_6  and  C_38
    5  A    between atoms: C_8  and  C_20
    6  A    between atoms: C_8  and  C_22
    7  A    between atoms: C_10  and  C_32
    8  A    between atoms: N_12  and  C_20
    9  A    between atoms: N_12  and  C_42
   10  A    between atoms: N_12  and  C_46
   11  A    between atoms: C_13  and  C_52
   12  A    between atoms: C_22  and  C_43
   13  A    between atoms: C_27  and  C_49
   14  A    between atoms: C_27  and  C_55
   15  A    between atoms: C_41  and  C_55
   16  A    between atoms: C_42  and  C_50
   17  A    between atoms: C_46  and  C_53
                            x       y       z     vdW  Elec       q    Type
                         _______ _______ _______ _____ _____    ______ ____

>  <TORSDO>
F 17

$$$$
=
 OpenBabel11052419313D

 55 59  0  0  1  0  0  0  0  0999 V2000
  189.1240  173.8200  139.0270 C   0  0  0  0  0  2  0  0  0  0  0  0
  193.0720  169.1340  142.4010 S   0  0  0  0  0  0  0  0  0  0  0  0
  193.7250  172.4860  144.3900 O   0  0  0  0  0  0  0  0  0  0  0  0
  195.2410  175.5810  145.7320 C   0  0  0  0  0  3  0  0  0  0  0  0
  194.9380  176.9030  146.0600 C   0  0  0  0  0  3  0  0  0  0  0  0
  193.1890  175.4230  144.4300 C   0  0  0  0  0  0  0  0  0  0  0  0
  192.9050  176.7570  144.7590 C   0  0  0  0  0  3  0  0  0  0  0  0
  195.9410  173.0620  144.6360 O   0  0  0  0  0  0  0  0  0  0  0  0
  193.7670  177.4900  145.5760 C   0  0  0  0  0  3  0  0  0  0  0  0
  194.3770  174.8250  144.9260 C   0  0  0  0  0  0  0  0  0  0  0  0
  189.7080  174.8810  141.2140 C   0  0  0  0  0  2  0  0  0  0  0  0
  189.5650  171.3470  139.2630 C   0  0  0  0  0  2  0  0  0  0  0  0
  190.3360  173.9970  142.2730 C   0  0  0  0  0  2  0  0  0  0  0  0
  190.4220  169.2540  141.4480 O   0  0  0  0  0  1  0  0  0  0  0  0
  192.3270  174.7050  143.4610 C   0  0  0  0  0  3  0  0  0  0  0  0
  192.7080  170.4950  143.5490 C   0  0  0  0  0  2  0  0  0  0  0  0
  194.0050  171.1720  143.9420 C   0  0  0  0  0  2  0  0  0  0  0  0
  192.5190  170.0160  140.8810 C   0  0  1  0  0  3  0  0  0  0  0  0
  188.6610  174.0890  140.4500 C   0  0  0  0  0  2  0  0  0  0  0  0
  194.7310  173.4190  144.6400 C   0  0  0  0  0  0  0  0  0  0  0  0
  190.1780  172.7150  138.9710 C   0  0  1  0  0  3  0  0  0  0  0  0
  191.0750  170.2950  140.8710 N   0  0  0  0  0  0  0  0  0  0  0  0
  191.0030  174.8210  143.3260 C   0  0  0  0  0  0  0  0  0  0  0  0
  190.6490  170.2960  139.4780 C   0  0  0  0  0  2  0  0  0  0  0  0
  190.1690  175.6320  144.2810 C   0  0  1  0  0  3  0  0  0  0  0  0
  188.1410  176.4150  143.8000 C   0  0  1  0  0  3  0  0  0  0  0  0
  190.3530  177.0070  144.0450 O   0  0  0  0  0  0  0  0  0  0  0  0
  189.0720  177.5470  144.0910 C   0  0  0  0  0  2  0  0  0  0  0  0
  188.8130  175.2560  144.1800 O   0  0  0  0  0  0  0  0  0  0  0  0
  186.8620  176.5620  144.6050 C   0  0  0  0  0  3  0  0  0  0  0  0
  185.7140  176.8640  143.6600 C   0  0  0  0  0  2  0  0  0  0  0  0
  186.3390  177.9800  144.4720 C   0  0  0  0  0  2  0  0  0  0  0  0
  193.3150  171.3090  140.7220 C   0  0  0  0  0  2  0  0  0  0  0  0
  194.6490  171.0620  140.0490 C   0  0  0  0  0  2  0  0  0  0  0  0
  195.6840  171.9960  140.6520 C   0  0  0  0  0  2  0  0  0  0  0  0
  195.8010  173.2090  139.8490 N   0  0  0  0  0  0  0  0  0  0  0  0
  197.9410  172.9910  138.7830 C   0  0  0  0  0  2  0  0  0  0  0  0
  196.6340  173.2330  138.6720 C   0  0  0  0  0  0  0  0  0  0  0  0
  196.9850  172.6170  136.2630 C   0  0  0  0  0  2  0  0  0  0  0  0
  195.9010  171.7350  136.8360 C   0  0  1  0  0  3  0  0  0  0  0  0
  196.0210  173.1810  137.2960 C   0  0  1  0  0  3  0  0  0  0  0  0
  194.7570  171.6310  135.8500 C   0  0  0  0  0  2  0  0  0  0  0  0
  194.2750  170.1900  135.7950 C   0  0  0  0  0  2  0  0  0  0  0  0
  193.1230  169.9720  136.7650 C   0  0  0  0  0  2  0  0  0  0  0  0
  191.1940  170.0200  135.0320 C   0  0  0  0  0  1  0  0  0  0  0  0
  191.6400  168.1770  136.4200 O   0  0  0  0  0  0  0  0  0  0  0  0
  191.9640  169.3060  136.0920 C   0  0  0  0  0  0  0  0  0  0  0  0
  195.0010  174.3750  140.2210 C   0  0  0  0  0  2  0  0  0  0  0  0
  196.8370  175.0020  141.8440 C   0  0  0  0  0  1  0  0  0  0  0  0
  194.9900  176.6130  141.3790 C   0  0  0  0  0  1  0  0  0  0  0  0
  195.8520  175.5050  140.8050 C   0  0  0  0  0  3  0  0  0  0  0  0
  190.8910  172.7300  137.6180 C   0  0  0  0  0  2  0  0  0  0  0  0
  190.0130  173.2420  136.4880 C   0  0  0  0  0  2  0  0  0  0  0  0
  192.2250  174.2820  136.1280 C   0  0  0  0  0  1  0  0  0  0  0  0
  190.8380  174.0900  135.5420 C   0  0  0  0  0  2  0  0  0  0  0  0
  1 19  1  0  0  0  0
  2 16  1  0  0  0  0
  3 20  1  0  0  0  0
  4  5  1  0  0  0  0
  6  7  2  0  0  0  0
  6 10  1  0  0  0  0
  7  9  1  0  0  0  0
  8 20  2  0  0  0  0
  9  5  2  0  0  0  0
 10  4  2  0  0  0  0
 11 13  1  0  0  0  0
 12 24  1  0  0  0  0
 13 23  1  0  0  0  0
 15  6  1  0  0  0  0
 16 17  1  0  0  0  0
 17  3  1  0  0  0  0
 18 33  1  1  0  0  0
 18  2  1  0  0  0  0
 19 11  1  0  0  0  0
 20 10  1  0  0  0  0
 21 52  1  6  0  0  0
 21  1  1  0  0  0  0
 21 12  1  0  0  0  0
 22 18  1  0  0  0  0
 22 14  1  0  0  0  0
 23 15  2  0  0  0  0
 24 22  1  0  0  0  0
 25 23  1  6  0  0  0
 26 28  1  0  0  0  0
 26 29  1  0  0  0  0
 26 30  1  1  0  0  0
 27 28  1  0  0  0  0
 27 25  1  0  0  0  0
 29 25  1  0  0  0  0
 31 32  1  0  0  0  0
 31 30  1  0  0  0  0
 32 30  1  0  0  0  0
 34 35  1  0  0  0  0
 34 33  1  0  0  0  0
 36 48  1  0  0  0  0
 36 35  1  0  0  0  0
 38 37  2  0  0  0  0
 38 36  1  0  0  0  0
 39 40  1  0  0  0  0
 39 41  1  0  0  0  0
 40 42  1  6  0  0  0
 40 41  1  0  0  0  0
 41 38  1  1  0  0  0
 43 42  1  0  0  0  0
 43 44  1  0  0  0  0
 45 47  1  0  0  0  0
 47 46  2  0  0  0  0
 47 44  1  0  0  0  0
 48 51  1  0  0  0  0
 51 50  1  0  0  0  0
 51 49  1  0  0  0  0
 53 52  1  0  0  0  0
 55 54  1  0  0  0  0
 55 53  1  0  0  0  0
M  END
>  <MODEL>
8

>  <REMARK>
 VINA RESULT:      -5.2      2.702      9.716
  Name = 
  17 active torsions:
  status: ('A' for Active; 'I' for Inactive)
    1  A    between atoms: C_3  and  C_14
    2  A    between atoms: C_3  and  C_21
    3  A    between atoms: C_6  and  C_14
    4  A    between atoms: C_6  and  C_38
    5  A    between atoms: C_8  and  C_20
    6  A    between atoms: C_8  and  C_22
    7  A    between atoms: C_10  and  C_32
    8  A    between atoms: N_12  and  C_20
    9  A    between atoms: N_12  and  C_42
   10  A    between atoms: N_12  and  C_46
   11  A    between atoms: C_13  and  C_52
   12  A    between atoms: C_22  and  C_43
   13  A    between atoms: C_27  and  C_49
   14  A    between atoms: C_27  and  C_55
   15  A    between atoms: C_41  and  C_55
   16  A    between atoms: C_42  and  C_50
   17  A    between atoms: C_46  and  C_53
                            x       y       z     vdW  Elec       q    Type
                         _______ _______ _______ _____ _____    ______ ____

>  <TORSDO>
F 17

$$$$
=
 OpenBabel11052419313D

 55 59  0  0  1  0  0  0  0  0999 V2000
  194.7930  176.3570  143.2280 C   0  0  0  0  0  2  0  0  0  0  0  0
  196.7500  169.6550  143.6630 S   0  0  0  0  0  0  0  0  0  0  0  0
  195.0510  169.8860  140.1020 O   0  0  0  0  0  0  0  0  0  0  0  0
  192.6880  169.6090  137.2710 C   0  0  0  0  0  3  0  0  0  0  0  0
  192.1760  170.3270  136.1890 C   0  0  0  0  0  3  0  0  0  0  0  0
  193.5280  171.6720  138.2560 C   0  0  0  0  0  0  0  0  0  0  0  0
  192.9960  172.3790  137.1680 C   0  0  0  0  0  3  0  0  0  0  0  0
  193.3820  168.3470  139.7120 O   0  0  0  0  0  0  0  0  0  0  0  0
  192.3330  171.7130  136.1360 C   0  0  0  0  0  3  0  0  0  0  0  0
  193.3710  170.2620  138.3070 C   0  0  0  0  0  0  0  0  0  0  0  0
  194.6900  175.4730  140.8930 C   0  0  0  0  0  2  0  0  0  0  0  0
  196.1990  174.7470  144.5680 C   0  0  0  0  0  2  0  0  0  0  0  0
  195.3170  174.1170  140.6310 C   0  0  0  0  0  2  0  0  0  0  0  0
  197.9410  172.1600  144.1620 O   0  0  0  0  0  1  0  0  0  0  0  0
  194.1140  172.4100  139.3990 C   0  0  0  0  0  3  0  0  0  0  0  0
  196.6070  170.0880  141.9030 C   0  0  0  0  0  2  0  0  0  0  0  0
  195.5200  169.2410  141.2730 C   0  0  0  0  0  2  0  0  0  0  0  0
  195.8780  171.1500  144.2960 C   0  0  1  0  0  3  0  0  0  0  0  0
  195.5310  176.2310  141.9050 C   0  0  0  0  0  2  0  0  0  0  0  0
  193.9230  169.4460  139.4090 C   0  0  0  0  0  0  0  0  0  0  0  0
  194.8080  175.0470  144.0150 C   0  0  1  0  0  3  0  0  0  0  0  0
  196.6110  172.3970  144.0350 N   0  0  0  0  0  0  0  0  0  0  0  0
  194.8220  173.5420  139.3440 C   0  0  0  0  0  0  0  0  0  0  0  0
  196.2780  173.3230  145.1090 C   0  0  0  0  0  2  0  0  0  0  0  0
  195.2450  174.1590  138.0380 C   0  0  1  0  0  3  0  0  0  0  0  0
  197.2470  173.8560  137.1140 C   0  0  1  0  0  3  0  0  0  0  0  0
  195.9400  175.3610  138.2650 O   0  0  0  0  0  0  0  0  0  0  0  0
  197.0320  175.3050  137.4060 C   0  0  0  0  0  2  0  0  0  0  0  0
  196.0140  173.2380  137.2940 O   0  0  0  0  0  0  0  0  0  0  0  0
  197.7190  173.6700  135.6830 C   0  0  0  0  0  3  0  0  0  0  0  0
  196.6750  172.8810  134.9150 C   0  0  0  0  0  2  0  0  0  0  0  0
  197.9340  172.1940  135.4060 C   0  0  0  0  0  2  0  0  0  0  0  0
  194.4760  171.2170  143.6950 C   0  0  0  0  0  2  0  0  0  0  0  0
  193.4430  171.5990  144.7340 C   0  0  0  0  0  2  0  0  0  0  0  0
  192.0880  171.0690  144.2980 C   0  0  0  0  0  2  0  0  0  0  0  0
  191.3990  172.0570  143.4720 N   0  0  0  0  0  0  0  0  0  0  0  0
  189.8820  172.7650  145.1930 C   0  0  0  0  0  2  0  0  0  0  0  0
  190.5510  173.0550  144.0760 C   0  0  0  0  0  0  0  0  0  0  0  0
  189.8030  174.8400  142.4740 C   0  0  0  0  0  2  0  0  0  0  0  0
  189.3300  175.2030  143.8620 C   0  0  1  0  0  3  0  0  0  0  0  0
  190.6700  174.5040  143.6800 C   0  0  1  0  0  3  0  0  0  0  0  0
  189.5790  176.6750  144.1130 C   0  0  0  0  0  2  0  0  0  0  0  0
  188.4040  177.2560  144.8850 C   0  0  0  0  0  2  0  0  0  0  0  0
  187.0860  176.8410  144.2470 C   0  0  0  0  0  2  0  0  0  0  0  0
  186.0570  178.0510  146.2980 C   0  0  0  0  0  1  0  0  0  0  0  0
  184.8640  177.6140  144.3210 O   0  0  0  0  0  0  0  0  0  0  0  0
  185.9260  177.5140  144.9120 C   0  0  0  0  0  0  0  0  0  0  0  0
  191.6440  172.0570  142.0320 C   0  0  0  0  0  2  0  0  0  0  0  0
  190.7670  169.8470  141.1690 C   0  0  0  0  0  1  0  0  0  0  0  0
  190.3660  171.9360  139.8630 C   0  0  0  0  0  1  0  0  0  0  0  0
  190.5380  171.3460  141.2500 C   0  0  0  0  0  3  0  0  0  0  0  0
  193.7610  175.0850  145.1280 C   0  0  0  0  0  2  0  0  0  0  0  0
  193.3440  176.4960  145.5060 C   0  0  0  0  0  2  0  0  0  0  0  0
  192.1200  175.0520  147.0940 C   0  0  0  0  0  1  0  0  0  0  0  0
  192.1990  176.4450  146.4970 C   0  0  0  0  0  2  0  0  0  0  0  0
  1 21  1  0  0  0  0
  2 18  1  0  0  0  0
  3 17  1  0  0  0  0
  4 10  1  0  0  0  0
  5  4  2  0  0  0  0
  6 10  2  0  0  0  0
  6 15  1  0  0  0  0
  7  6  1  0  0  0  0
  9  5  1  0  0  0  0
  9  7  2  0  0  0  0
 10 20  1  0  0  0  0
 11 19  1  0  0  0  0
 12 24  1  0  0  0  0
 13 11  1  0  0  0  0
 16  2  1  0  0  0  0
 17 16  1  0  0  0  0
 18 33  1  6  0  0  0
 19  1  1  0  0  0  0
 20  8  2  0  0  0  0
 20  3  1  0  0  0  0
 21 12  1  0  0  0  0
 21 52  1  1  0  0  0
 22 14  1  0  0  0  0
 22 18  1  0  0  0  0
 22 24  1  0  0  0  0
 23 15  2  0  0  0  0
 23 13  1  0  0  0  0
 25 27  1  0  0  0  0
 25 23  1  1  0  0  0
 26 30  1  6  0  0  0
 26 29  1  0  0  0  0
 26 28  1  0  0  0  0
 28 27  1  0  0  0  0
 29 25  1  0  0  0  0
 31 32  1  0  0  0  0
 31 30  1  0  0  0  0
 32 30  1  0  0  0  0
 33 34  1  0  0  0  0
 35 34  1  0  0  0  0
 36 38  1  0  0  0  0
 36 35  1  0  0  0  0
 38 37  2  0  0  0  0
 39 41  1  0  0  0  0
 39 40  1  0  0  0  0
 40 42  1  6  0  0  0
 41 40  1  0  0  0  0
 41 38  1  1  0  0  0
 42 43  1  0  0  0  0
 44 43  1  0  0  0  0
 44 47  1  0  0  0  0
 46 47  2  0  0  0  0
 47 45  1  0  0  0  0
 48 36  1  0  0  0  0
 49 51  1  0  0  0  0
 50 51  1  0  0  0  0
 51 48  1  0  0  0  0
 52 53  1  0  0  0  0
 53 55  1  0  0  0  0
 55 54  1  0  0  0  0
M  END
>  <MODEL>
9

>  <REMARK>
 VINA RESULT:      -5.0      2.843      4.828
  Name = 
  17 active torsions:
  status: ('A' for Active; 'I' for Inactive)
    1  A    between atoms: C_3  and  C_14
    2  A    between atoms: C_3  and  C_21
    3  A    between atoms: C_6  and  C_14
    4  A    between atoms: C_6  and  C_38
    5  A    between atoms: C_8  and  C_20
    6  A    between atoms: C_8  and  C_22
    7  A    between atoms: C_10  and  C_32
    8  A    between atoms: N_12  and  C_20
    9  A    between atoms: N_12  and  C_42
   10  A    between atoms: N_12  and  C_46
   11  A    between atoms: C_13  and  C_52
   12  A    between atoms: C_22  and  C_43
   13  A    between atoms: C_27  and  C_49
   14  A    between atoms: C_27  and  C_55
   15  A    between atoms: C_41  and  C_55
   16  A    between atoms: C_42  and  C_50
   17  A    between atoms: C_46  and  C_53
                            x       y       z     vdW  Elec       q    Type
                         _______ _______ _______ _____ _____    ______ ____

>  <TORSDO>
F 17

$$$$
