=
 OpenBabel11052418393D

 34 38  0  0  1  0  0  0  0  0999 V2000
  185.2690  177.5440  143.1140 C   0  0  2  0  0  3  0  0  0  0  0  0
  185.1140  179.0200  145.3640 C   0  0  1  0  0  3  0  0  0  0  0  0
  186.2410  176.7360  145.4060 C   0  0  0  0  0  2  0  0  0  0  0  0
  188.4050  176.3560  146.6210 C   0  0  2  0  0  3  0  0  0  0  0  0
  186.3180  179.0990  144.6390 O   0  0  0  0  0  0  0  0  0  0  0  0
  186.5550  178.0500  147.4200 C   0  0  0  0  0  2  0  0  0  0  0  0
  185.6360  177.8590  144.5780 C   0  0  1  0  0  0  0  0  0  0  0  0
  188.3850  177.2960  143.3690 C   0  0  0  0  0  2  0  0  0  0  0  0
  186.1520  176.4650  142.5010 C   0  0  0  0  0  3  0  0  0  0  0  0
  185.4750  179.0410  146.8860 C   0  0  0  0  0  2  0  0  0  0  0  0
  188.9190  175.6580  145.3400 C   0  0  0  0  0  2  0  0  0  0  0  0
  189.4570  176.6050  144.2430 C   0  0  1  0  0  3  0  0  0  0  0  0
  187.2910  177.3470  146.2870 C   0  0  2  0  0  3  0  0  0  0  0  0
  187.4940  176.3470  142.6080 C   0  0  0  0  0  3  0  0  0  0  0  0
  191.4880  174.0440  142.2570 C   0  0  0  0  0  0  0  0  0  0  0  0
  192.6700  174.8180  141.8730 C   0  0  0  0  0  3  0  0  0  0  0  0
  190.5390  175.9600  143.4300 C   0  0  0  0  0  0  0  0  0  0  0  0
  192.7940  176.0880  142.2590 C   0  0  0  0  0  3  0  0  0  0  0  0
  190.4290  174.6820  143.0450 C   0  0  0  0  0  3  0  0  0  0  0  0
  191.7600  176.7910  143.1060 C   0  0  0  0  0  2  0  0  0  0  0  0
  191.3770  172.8400  141.9070 O   0  0  0  0  0  0  0  0  0  0  0  0
  184.6870  178.2890  141.1100 C   0  0  0  0  0  1  0  0  0  0  0  0
  185.2800  178.6880  142.3080 O   0  0  0  0  0  0  0  0  0  0  0  0
  189.5640  177.0450  147.3280 C   0  0  0  0  0  2  0  0  0  0  0  0
  190.6690  176.0470  147.6280 C   0  0  0  0  0  2  0  0  0  0  0  0
  191.9590  176.4660  146.9480 C   0  0  0  0  0  2  0  0  0  0  0  0
  192.7050  175.2480  146.4270 C   0  0  0  0  0  2  0  0  0  0  0  0
  194.9750  173.3150  145.7630 O   0  0  0  0  0  0  0  0  0  0  0  0
  194.2080  175.4630  146.5140 C   0  0  1  0  0  3  0  0  0  0  0  0
  194.9280  174.5540  145.5460 C   0  0  0  0  0  0  0  0  0  0  0  0
  195.6550  176.4170  144.1610 C   0  0  0  0  0  3  0  0  0  0  0  0
  195.1470  177.3550  145.1770 C   0  0  0  0  0  3  0  0  0  0  0  0
  194.5030  176.9210  146.2640 C   0  0  0  0  0  3  0  0  0  0  0  0
  195.5620  175.0990  144.3360 C   0  0  0  0  0  3  0  0  0  0  0  0
  1 23  1  6  0  0  0
  1  7  1  0  0  0  0
  2 10  1  1  0  0  0
  4 24  1  6  0  0  0
  5  2  1  0  0  0  0
  7  5  1  0  0  0  0
  7  2  1  0  0  0  0
  7  3  1  1  0  0  0
  8 12  1  0  0  0  0
  9 14  2  0  0  0  0
  9  1  1  0  0  0  0
 10  6  1  0  0  0  0
 11  4  1  0  0  0  0
 12 17  1  6  0  0  0
 12 11  1  0  0  0  0
 13  3  1  1  0  0  0
 13  4  1  0  0  0  0
 13  6  1  0  0  0  0
 14  8  1  0  0  0  0
 15 19  1  0  0  0  0
 16 15  1  0  0  0  0
 16 18  2  0  0  0  0
 18 20  1  0  0  0  0
 19 17  2  0  0  0  0
 20 17  1  0  0  0  0
 21 15  2  0  0  0  0
 22 23  1  0  0  0  0
 24 25  1  0  0  0  0
 26 25  1  0  0  0  0
 27 26  1  0  0  0  0
 29 27  1  6  0  0  0
 30 28  2  0  0  0  0
 30 29  1  0  0  0  0
 31 34  2  0  0  0  0
 31 32  1  0  0  0  0
 32 33  2  0  0  0  0
 33 29  1  0  0  0  0
 34 30  1  0  0  0  0
M  END
>  <MODEL>
1

>  <REMARK>
 VINA RESULT:      -8.3      0.000      0.000
  Name = 
  7 active torsions:
  status: ('A' for Active; 'I' for Inactive)
    1  A    between atoms: C_1  and  O_19
    2  A    between atoms: C_3  and  C_13
    3  A    between atoms: C_3  and  C_17
    4  A    between atoms: C_5  and  C_18
    5  A    between atoms: C_12  and  C_28
    6  A    between atoms: C_17  and  C_29
    7  A    between atoms: C_18  and  C_29
                            x       y       z     vdW  Elec       q    Type
                         _______ _______ _______ _____ _____    ______ ____

>  <TORSDO>
F 7

$$$$
=
 OpenBabel11052418393D

 34 38  0  0  1  0  0  0  0  0999 V2000
  185.4080  177.5520  142.9500 C   0  0  2  0  0  3  0  0  0  0  0  0
  185.1610  179.0140  145.2010 C   0  0  1  0  0  3  0  0  0  0  0  0
  186.3240  176.7490  145.2660 C   0  0  0  0  0  2  0  0  0  0  0  0
  188.4570  176.3990  146.5440 C   0  0  2  0  0  3  0  0  0  0  0  0
  186.3840  179.1170  144.5120 O   0  0  0  0  0  0  0  0  0  0  0  0
  186.5550  178.0580  147.2950 C   0  0  0  0  0  2  0  0  0  0  0  0
  185.7250  177.8660  144.4250 C   0  0  1  0  0  0  0  0  0  0  0  0
  188.5180  177.3540  143.2970 C   0  0  0  0  0  2  0  0  0  0  0  0
  186.3260  176.4910  142.3590 C   0  0  0  0  0  3  0  0  0  0  0  0
  185.4760  179.0340  146.7330 C   0  0  0  0  0  2  0  0  0  0  0  0
  189.0200  175.7160  145.2760 C   0  0  0  0  0  2  0  0  0  0  0  0
  189.5740  176.6770  144.2000 C   0  0  1  0  0  3  0  0  0  0  0  0
  187.3370  177.3730  146.1810 C   0  0  2  0  0  3  0  0  0  0  0  0
  187.6660  176.3950  142.5050 C   0  0  0  0  0  3  0  0  0  0  0  0
  191.7390  174.1410  142.3250 C   0  0  0  0  0  0  0  0  0  0  0  0
  192.8840  174.9570  141.9140 C   0  0  0  0  0  3  0  0  0  0  0  0
  190.6910  176.0540  143.4170 C   0  0  0  0  0  0  0  0  0  0  0  0
  192.9430  176.2460  142.2470 C   0  0  0  0  0  3  0  0  0  0  0  0
  190.6460  174.7570  143.0830 C   0  0  0  0  0  3  0  0  0  0  0  0
  191.8710  176.9300  143.0630 C   0  0  0  0  0  2  0  0  0  0  0  0
  191.6900  172.9200  142.0240 O   0  0  0  0  0  0  0  0  0  0  0  0
  184.7850  178.3220  140.9670 C   0  0  0  0  0  1  0  0  0  0  0  0
  185.4230  178.7000  142.1490 O   0  0  0  0  0  0  0  0  0  0  0  0
  189.5820  177.1030  147.2880 C   0  0  0  0  0  2  0  0  0  0  0  0
  190.6970  176.1240  147.6100 C   0  0  0  0  0  2  0  0  0  0  0  0
  192.0150  176.6160  147.0390 C   0  0  0  0  0  2  0  0  0  0  0  0
  193.0600  175.5140  147.0890 C   0  0  0  0  0  2  0  0  0  0  0  0
  195.0420  176.8120  145.1620 O   0  0  0  0  0  0  0  0  0  0  0  0
  193.4550  175.0870  145.6840 C   0  0  1  0  0  3  0  0  0  0  0  0
  194.8430  175.5840  145.3520 C   0  0  0  0  0  0  0  0  0  0  0  0
  195.7640  173.3330  145.3190 C   0  0  0  0  0  3  0  0  0  0  0  0
  194.4020  172.7860  145.4390 C   0  0  0  0  0  3  0  0  0  0  0  0
  193.3420  173.5860  145.5840 C   0  0  0  0  0  3  0  0  0  0  0  0
  195.9740  174.6480  145.2690 C   0  0  0  0  0  3  0  0  0  0  0  0
  1 23  1  6  0  0  0
  1  7  1  0  0  0  0
  2 10  1  1  0  0  0
  4 24  1  6  0  0  0
  5  2  1  0  0  0  0
  7  5  1  0  0  0  0
  7  2  1  0  0  0  0
  7  3  1  1  0  0  0
  8 12  1  0  0  0  0
  9 14  2  0  0  0  0
  9  1  1  0  0  0  0
 10  6  1  0  0  0  0
 11  4  1  0  0  0  0
 12 17  1  6  0  0  0
 12 11  1  0  0  0  0
 13  3  1  1  0  0  0
 13  4  1  0  0  0  0
 13  6  1  0  0  0  0
 14  8  1  0  0  0  0
 15 19  1  0  0  0  0
 16 18  2  0  0  0  0
 16 15  1  0  0  0  0
 18 20  1  0  0  0  0
 19 17  2  0  0  0  0
 20 17  1  0  0  0  0
 21 15  2  0  0  0  0
 22 23  1  0  0  0  0
 24 25  1  0  0  0  0
 26 27  1  0  0  0  0
 26 25  1  0  0  0  0
 28 30  2  0  0  0  0
 29 27  1  1  0  0  0
 30 29  1  0  0  0  0
 31 32  1  0  0  0  0
 32 33  2  0  0  0  0
 33 29  1  0  0  0  0
 34 31  2  0  0  0  0
 34 30  1  0  0  0  0
M  END
>  <MODEL>
2

>  <REMARK>
 VINA RESULT:      -8.2      0.886      1.363
  Name = 
  7 active torsions:
  status: ('A' for Active; 'I' for Inactive)
    1  A    between atoms: C_1  and  O_19
    2  A    between atoms: C_3  and  C_13
    3  A    between atoms: C_3  and  C_17
    4  A    between atoms: C_5  and  C_18
    5  A    between atoms: C_12  and  C_28
    6  A    between atoms: C_17  and  C_29
    7  A    between atoms: C_18  and  C_29
                            x       y       z     vdW  Elec       q    Type
                         _______ _______ _______ _____ _____    ______ ____

>  <TORSDO>
F 7

$$$$
=
 OpenBabel11052418393D

 34 38  0  0  1  0  0  0  0  0999 V2000
  188.8390  174.2270  140.9170 C   0  0  2  0  0  3  0  0  0  0  0  0
  190.2820  172.4740  142.3700 C   0  0  1  0  0  3  0  0  0  0  0  0
  190.3050  174.9530  142.9600 C   0  0  0  0  0  2  0  0  0  0  0  0
  190.1440  175.7440  145.3370 C   0  0  2  0  0  3  0  0  0  0  0  0
  189.0180  172.8280  142.8800 O   0  0  0  0  0  0  0  0  0  0  0  0
  191.3450  173.5150  144.6130 C   0  0  0  0  0  2  0  0  0  0  0  0
  189.6910  173.8300  142.1380 C   0  0  1  0  0  0  0  0  0  0  0  0
  187.3570  175.2840  143.4700 C   0  0  0  0  0  2  0  0  0  0  0  0
  188.1590  175.5790  141.0830 C   0  0  0  0  0  3  0  0  0  0  0  0
  191.2630  172.3470  143.5830 C   0  0  0  0  0  2  0  0  0  0  0  0
  189.0450  176.7230  144.8610 C   0  0  0  0  0  2  0  0  0  0  0  0
  187.6280  176.1170  144.7440 C   0  0  1  0  0  3  0  0  0  0  0  0
  190.2380  174.5400  144.4010 C   0  0  2  0  0  3  0  0  0  0  0  0
  187.5210  176.0450  142.1800 C   0  0  0  0  0  3  0  0  0  0  0  0
  185.5530  179.3280  144.6380 C   0  0  0  0  0  0  0  0  0  0  0  0
  184.4680  179.0260  145.5750 C   0  0  0  0  0  3  0  0  0  0  0  0
  186.5610  177.1380  145.0050 C   0  0  0  0  0  0  0  0  0  0  0  0
  184.4360  177.8530  146.2070 C   0  0  0  0  0  3  0  0  0  0  0  0
  186.5880  178.3240  144.3810 C   0  0  0  0  0  3  0  0  0  0  0  0
  185.4940  176.7920  146.0180 C   0  0  0  0  0  2  0  0  0  0  0  0
  185.5920  180.4420  144.0520 O   0  0  0  0  0  0  0  0  0  0  0  0
  188.2220  172.8430  139.3000 C   0  0  0  0  0  1  0  0  0  0  0  0
  187.8910  173.2490  140.5930 O   0  0  0  0  0  0  0  0  0  0  0  0
  189.8590  175.3100  146.7680 C   0  0  0  0  0  2  0  0  0  0  0  0
  191.0090  175.7050  147.6780 C   0  0  0  0  0  2  0  0  0  0  0  0
  192.1110  176.3750  146.8790 C   0  0  0  0  0  2  0  0  0  0  0  0
  193.3470  175.4900  146.8350 C   0  0  0  0  0  2  0  0  0  0  0  0
  196.1100  174.4130  146.1030 O   0  0  0  0  0  0  0  0  0  0  0  0
  194.3600  176.0360  145.8400 C   0  0  1  0  0  3  0  0  0  0  0  0
  195.2550  174.9280  145.3360 C   0  0  0  0  0  0  0  0  0  0  0  0
  194.3340  175.0510  143.0880 C   0  0  0  0  0  3  0  0  0  0  0  0
  193.5910  176.2630  143.4720 C   0  0  0  0  0  3  0  0  0  0  0  0
  193.6180  176.7280  144.7240 C   0  0  0  0  0  3  0  0  0  0  0  0
  195.1250  174.4260  143.9600 C   0  0  0  0  0  3  0  0  0  0  0  0
  1 23  1  1  0  0  0
  1  9  1  0  0  0  0
  1  7  1  0  0  0  0
  2  5  1  0  0  0  0
  2 10  1  1  0  0  0
  4 24  1  1  0  0  0
  7  2  1  0  0  0  0
  7  5  1  0  0  0  0
  7  3  1  1  0  0  0
  8 12  1  0  0  0  0
  9 14  2  0  0  0  0
 10  6  1  0  0  0  0
 11  4  1  0  0  0  0
 12 11  1  0  0  0  0
 12 17  1  6  0  0  0
 13  3  1  6  0  0  0
 13  6  1  0  0  0  0
 13  4  1  0  0  0  0
 14  8  1  0  0  0  0
 15 16  1  0  0  0  0
 16 18  2  0  0  0  0
 17 20  1  0  0  0  0
 19 15  1  0  0  0  0
 19 17  2  0  0  0  0
 20 18  1  0  0  0  0
 21 15  2  0  0  0  0
 22 23  1  0  0  0  0
 24 25  1  0  0  0  0
 26 25  1  0  0  0  0
 27 26  1  0  0  0  0
 29 27  1  1  0  0  0
 30 29  1  0  0  0  0
 30 28  2  0  0  0  0
 31 32  1  0  0  0  0
 31 34  2  0  0  0  0
 32 33  2  0  0  0  0
 33 29  1  0  0  0  0
 34 30  1  0  0  0  0
M  END
>  <MODEL>
3

>  <REMARK>
 VINA RESULT:      -7.9      1.718      5.318
  Name = 
  7 active torsions:
  status: ('A' for Active; 'I' for Inactive)
    1  A    between atoms: C_1  and  O_19
    2  A    between atoms: C_3  and  C_13
    3  A    between atoms: C_3  and  C_17
    4  A    between atoms: C_5  and  C_18
    5  A    between atoms: C_12  and  C_28
    6  A    between atoms: C_17  and  C_29
    7  A    between atoms: C_18  and  C_29
                            x       y       z     vdW  Elec       q    Type
                         _______ _______ _______ _____ _____    ______ ____

>  <TORSDO>
F 7

$$$$
=
 OpenBabel11052418393D

 34 38  0  0  1  0  0  0  0  0999 V2000
  190.5350  171.1430  141.0170 C   0  0  2  0  0  3  0  0  0  0  0  0
  189.9560  172.6240  138.8410 C   0  0  1  0  0  3  0  0  0  0  0  0
  188.6060  172.9120  140.9820 C   0  0  0  0  0  2  0  0  0  0  0  0
  187.9810  175.1830  141.8510 C   0  0  2  0  0  3  0  0  0  0  0  0
  190.7780  173.2250  139.8130 O   0  0  0  0  0  0  0  0  0  0  0  0
  188.1830  174.5990  139.2910 C   0  0  0  0  0  2  0  0  0  0  0  0
  189.8180  172.3010  140.2950 C   0  0  1  0  0  0  0  0  0  0  0  0
  190.8740  173.7010  142.7970 C   0  0  0  0  0  2  0  0  0  0  0  0
  190.4120  171.2230  142.5320 C   0  0  0  0  0  3  0  0  0  0  0  0
  188.9970  173.7280  138.2850 C   0  0  0  0  0  2  0  0  0  0  0  0
  188.5010  174.7190  143.2310 C   0  0  0  0  0  2  0  0  0  0  0  0
  190.0300  174.8310  143.4310 C   0  0  1  0  0  3  0  0  0  0  0  0
  188.6470  174.3910  140.7270 C   0  0  2  0  0  3  0  0  0  0  0  0
  190.5530  172.3200  143.3080 C   0  0  0  0  0  3  0  0  0  0  0  0
  191.8720  175.9880  146.5770 C   0  0  0  0  0  0  0  0  0  0  0  0
  190.9840  175.5200  147.6440 C   0  0  0  0  0  3  0  0  0  0  0  0
  190.3880  175.0850  144.8640 C   0  0  0  0  0  0  0  0  0  0  0  0
  189.8680  174.8560  147.3450 C   0  0  0  0  0  3  0  0  0  0  0  0
  191.5120  175.7440  145.1780 C   0  0  0  0  0  3  0  0  0  0  0  0
  189.4620  174.5360  145.9250 C   0  0  0  0  0  2  0  0  0  0  0  0
  192.9330  176.6020  146.8600 O   0  0  0  0  0  0  0  0  0  0  0  0
  191.9750  169.8320  139.9590 C   0  0  0  0  0  1  0  0  0  0  0  0
  191.8810  171.0420  140.6480 O   0  0  0  0  0  0  0  0  0  0  0  0
  188.2190  176.6770  141.6890 C   0  0  0  0  0  2  0  0  0  0  0  0
  186.9330  177.3770  141.2860 C   0  0  0  0  0  2  0  0  0  0  0  0
  186.6740  178.5690  142.1900 C   0  0  0  0  0  2  0  0  0  0  0  0
  185.5200  178.2760  143.1360 C   0  0  0  0  0  2  0  0  0  0  0  0
  183.6580  178.7970  145.5010 O   0  0  0  0  0  0  0  0  0  0  0  0
  185.8620  178.7220  144.5490 C   0  0  1  0  0  3  0  0  0  0  0  0
  184.7980  178.2630  145.5190 C   0  0  0  0  0  0  0  0  0  0  0  0
  186.3090  176.7040  146.6150 C   0  0  0  0  0  3  0  0  0  0  0  0
  187.4290  177.2580  145.8350 C   0  0  0  0  0  3  0  0  0  0  0  0
  187.2300  178.1960  144.9050 C   0  0  0  0  0  3  0  0  0  0  0  0
  185.0720  177.1810  146.4760 C   0  0  0  0  0  3  0  0  0  0  0  0
  1 23  1  1  0  0  0
  1  9  1  0  0  0  0
  2 10  1  1  0  0  0
  2  5  1  0  0  0  0
  2  7  1  0  0  0  0
  4 24  1  6  0  0  0
  4 11  1  0  0  0  0
  5  7  1  0  0  0  0
  7  3  1  1  0  0  0
  7  1  1  0  0  0  0
  8 14  1  0  0  0  0
  8 12  1  0  0  0  0
  9 14  2  0  0  0  0
 10  6  1  0  0  0  0
 11 12  1  0  0  0  0
 12 17  1  1  0  0  0
 13  6  1  6  0  0  0
 13  3  1  0  0  0  0
 13  4  1  0  0  0  0
 15 21  2  0  0  0  0
 15 16  1  0  0  0  0
 17 19  2  0  0  0  0
 17 20  1  0  0  0  0
 18 16  2  0  0  0  0
 19 15  1  0  0  0  0
 20 18  1  0  0  0  0
 22 23  1  0  0  0  0
 25 24  1  0  0  0  0
 25 26  1  0  0  0  0
 26 27  1  0  0  0  0
 28 30  2  0  0  0  0
 29 27  1  6  0  0  0
 29 33  1  0  0  0  0
 29 30  1  0  0  0  0
 30 34  1  0  0  0  0
 32 31  1  0  0  0  0
 33 32  2  0  0  0  0
 34 31  2  0  0  0  0
M  END
>  <MODEL>
4

>  <REMARK>
 VINA RESULT:      -7.8      2.420      7.717
  Name = 
  7 active torsions:
  status: ('A' for Active; 'I' for Inactive)
    1  A    between atoms: C_1  and  O_19
    2  A    between atoms: C_3  and  C_13
    3  A    between atoms: C_3  and  C_17
    4  A    between atoms: C_5  and  C_18
    5  A    between atoms: C_12  and  C_28
    6  A    between atoms: C_17  and  C_29
    7  A    between atoms: C_18  and  C_29
                            x       y       z     vdW  Elec       q    Type
                         _______ _______ _______ _____ _____    ______ ____

>  <TORSDO>
F 7

$$$$
=
 OpenBabel11052418393D

 34 38  0  0  1  0  0  0  0  0999 V2000
  184.7490  179.3250  144.7520 C   0  0  2  0  0  3  0  0  0  0  0  0
  183.9390  178.4120  142.3480 C   0  0  1  0  0  3  0  0  0  0  0  0
  186.3950  178.9510  142.7520 C   0  0  0  0  0  2  0  0  0  0  0  0
  188.2270  177.4340  141.9470 C   0  0  2  0  0  3  0  0  0  0  0  0
  184.4670  177.4590  143.2400 O   0  0  0  0  0  0  0  0  0  0  0  0
  185.9500  177.7850  140.6730 C   0  0  0  0  0  2  0  0  0  0  0  0
  185.0040  178.7670  143.3380 C   0  0  1  0  0  0  0  0  0  0  0  0
  186.8720  177.0330  145.0220 C   0  0  0  0  0  2  0  0  0  0  0  0
  186.0010  179.3380  145.6180 C   0  0  0  0  0  3  0  0  0  0  0  0
  184.4290  178.0380  140.9100 C   0  0  0  0  0  2  0  0  0  0  0  0
  188.8350  177.5330  143.3650 C   0  0  0  0  0  2  0  0  0  0  0  0
  188.2190  176.5800  144.4140 C   0  0  1  0  0  3  0  0  0  0  0  0
  186.7240  177.7050  141.9820 C   0  0  2  0  0  3  0  0  0  0  0  0
  186.9230  178.3580  145.7390 C   0  0  0  0  0  3  0  0  0  0  0  0
  191.4700  176.2010  146.3930 C   0  0  0  0  0  0  0  0  0  0  0  0
  191.0540  175.3490  147.5100 C   0  0  0  0  0  3  0  0  0  0  0  0
  189.2180  176.1780  145.4580 C   0  0  0  0  0  0  0  0  0  0  0  0
  189.7960  174.9180  147.5920 C   0  0  0  0  0  3  0  0  0  0  0  0
  190.4880  176.5980  145.3810 C   0  0  0  0  0  3  0  0  0  0  0  0
  188.7460  175.2570  146.5600 C   0  0  0  0  0  2  0  0  0  0  0  0
  192.6620  176.5960  146.3070 O   0  0  0  0  0  0  0  0  0  0  0  0
  184.0870  178.6480  146.7550 C   0  0  0  0  0  1  0  0  0  0  0  0
  183.7170  178.6460  145.4100 O   0  0  0  0  0  0  0  0  0  0  0  0
  188.5280  176.0650  141.3550 C   0  0  0  0  0  2  0  0  0  0  0  0
  187.4980  175.0500  141.8200 C   0  0  0  0  0  2  0  0  0  0  0  0
  188.0610  173.6440  141.7280 C   0  0  0  0  0  2  0  0  0  0  0  0
  189.5350  173.6860  141.3590 C   0  0  0  0  0  2  0  0  0  0  0  0
  192.5430  173.1660  141.4720 O   0  0  0  0  0  0  0  0  0  0  0  0
  190.2920  172.5620  142.0500 C   0  0  1  0  0  3  0  0  0  0  0  0
  191.6970  173.0020  142.3890 C   0  0  0  0  0  0  0  0  0  0  0  0
  191.2550  172.9560  144.7810 C   0  0  0  0  0  3  0  0  0  0  0  0
  189.9470  172.3330  144.5160 C   0  0  0  0  0  3  0  0  0  0  0  0
  189.5130  172.1320  143.2680 C   0  0  0  0  0  3  0  0  0  0  0  0
  192.0840  173.2630  143.7840 C   0  0  0  0  0  3  0  0  0  0  0  0
  1 23  1  1  0  0  0
  1  9  1  0  0  0  0
  2 10  1  6  0  0  0
  2  5  1  0  0  0  0
  2  7  1  0  0  0  0
  4 24  1  1  0  0  0
  4 13  1  0  0  0  0
  4 11  1  0  0  0  0
  5  7  1  0  0  0  0
  6 10  1  0  0  0  0
  7  3  1  6  0  0  0
  7  1  1  0  0  0  0
  8 14  1  0  0  0  0
  9 14  2  0  0  0  0
 11 12  1  0  0  0  0
 12  8  1  0  0  0  0
 12 17  1  1  0  0  0
 13  6  1  6  0  0  0
 13  3  1  0  0  0  0
 15 16  1  0  0  0  0
 16 18  2  0  0  0  0
 17 20  1  0  0  0  0
 19 17  2  0  0  0  0
 19 15  1  0  0  0  0
 20 18  1  0  0  0  0
 21 15  2  0  0  0  0
 23 22  1  0  0  0  0
 24 25  1  0  0  0  0
 26 25  1  0  0  0  0
 27 26  1  0  0  0  0
 28 30  2  0  0  0  0
 29 27  1  1  0  0  0
 29 30  1  0  0  0  0
 29 33  1  0  0  0  0
 30 34  1  0  0  0  0
 32 31  1  0  0  0  0
 33 32  2  0  0  0  0
 34 31  2  0  0  0  0
M  END
>  <MODEL>
5

>  <REMARK>
 VINA RESULT:      -7.7      2.261      4.982
  Name = 
  7 active torsions:
  status: ('A' for Active; 'I' for Inactive)
    1  A    between atoms: C_1  and  O_19
    2  A    between atoms: C_3  and  C_13
    3  A    between atoms: C_3  and  C_17
    4  A    between atoms: C_5  and  C_18
    5  A    between atoms: C_12  and  C_28
    6  A    between atoms: C_17  and  C_29
    7  A    between atoms: C_18  and  C_29
                            x       y       z     vdW  Elec       q    Type
                         _______ _______ _______ _____ _____    ______ ____

>  <TORSDO>
F 7

$$$$
=
 OpenBabel11052418393D

 34 38  0  0  1  0  0  0  0  0999 V2000
  195.8950  175.3710  142.0630 C   0  0  2  0  0  3  0  0  0  0  0  0
  196.5230  174.0730  144.3400 C   0  0  1  0  0  3  0  0  0  0  0  0
  195.1190  176.1980  144.4220 C   0  0  0  0  0  2  0  0  0  0  0  0
  193.0930  176.3830  145.8930 C   0  0  2  0  0  3  0  0  0  0  0  0
  195.2590  173.7990  143.7850 O   0  0  0  0  0  0  0  0  0  0  0  0
  195.2350  174.9870  146.5200 C   0  0  0  0  0  2  0  0  0  0  0  0
  195.7580  175.1080  143.5750 C   0  0  1  0  0  0  0  0  0  0  0  0
  192.8300  175.2470  142.7150 C   0  0  0  0  0  2  0  0  0  0  0  0
  194.8080  176.2910  141.5220 C   0  0  0  0  0  3  0  0  0  0  0  0
  196.3600  174.1050  145.8960 C   0  0  0  0  0  2  0  0  0  0  0  0
  192.3360  176.9280  144.6590 C   0  0  0  0  0  2  0  0  0  0  0  0
  191.7950  175.8530  143.6900 C   0  0  1  0  0  3  0  0  0  0  0  0
  194.2770  175.5190  145.4630 C   0  0  2  0  0  3  0  0  0  0  0  0
  193.4860  176.2470  141.7990 C   0  0  0  0  0  3  0  0  0  0  0  0
  188.5160  175.8530  141.7200 C   0  0  0  0  0  0  0  0  0  0  0  0
  188.1700  177.2760  141.6950 C   0  0  0  0  0  3  0  0  0  0  0  0
  190.5440  176.3050  142.9970 C   0  0  0  0  0  0  0  0  0  0  0  0
  188.9720  178.1700  142.2720 C   0  0  0  0  0  3  0  0  0  0  0  0
  189.7350  175.4160  142.4050 C   0  0  0  0  0  3  0  0  0  0  0  0
  190.2630  177.7900  142.9590 C   0  0  0  0  0  2  0  0  0  0  0  0
  187.7670  175.0090  141.1610 O   0  0  0  0  0  0  0  0  0  0  0  0
  196.5450  174.5360  140.1160 C   0  0  0  0  0  1  0  0  0  0  0  0
  195.9340  174.1850  141.3210 O   0  0  0  0  0  0  0  0  0  0  0  0
  192.1330  175.6020  146.7790 C   0  0  0  0  0  2  0  0  0  0  0  0
  191.0580  176.5220  147.3320 C   0  0  0  0  0  2  0  0  0  0  0  0
  189.6860  176.0750  146.8610 C   0  0  0  0  0  2  0  0  0  0  0  0
  188.8710  177.2700  146.3920 C   0  0  0  0  0  2  0  0  0  0  0  0
  186.7790  178.5720  148.1970 O   0  0  0  0  0  0  0  0  0  0  0  0
  187.3820  176.9790  146.5040 C   0  0  1  0  0  3  0  0  0  0  0  0
  186.6420  178.1980  147.0030 C   0  0  0  0  0  0  0  0  0  0  0  0
  185.5000  178.5130  144.8790 C   0  0  0  0  0  3  0  0  0  0  0  0
  186.0340  177.2230  144.4130 C   0  0  0  0  0  3  0  0  0  0  0  0
  186.8790  176.5080  145.1630 C   0  0  0  0  0  3  0  0  0  0  0  0
  185.7760  178.9710  146.1000 C   0  0  0  0  0  3  0  0  0  0  0  0
  1 23  1  6  0  0  0
  1  7  1  0  0  0  0
  2 10  1  1  0  0  0
  4 24  1  1  0  0  0
  5  2  1  0  0  0  0
  7  5  1  0  0  0  0
  7  2  1  0  0  0  0
  7  3  1  1  0  0  0
  8 12  1  0  0  0  0
  9 14  2  0  0  0  0
  9  1  1  0  0  0  0
 10  6  1  0  0  0  0
 11  4  1  0  0  0  0
 12 17  1  6  0  0  0
 12 11  1  0  0  0  0
 13  3  1  6  0  0  0
 13  4  1  0  0  0  0
 13  6  1  0  0  0  0
 14  8  1  0  0  0  0
 15 19  1  0  0  0  0
 16 15  1  0  0  0  0
 16 18  2  0  0  0  0
 18 20  1  0  0  0  0
 19 17  2  0  0  0  0
 20 17  1  0  0  0  0
 21 15  2  0  0  0  0
 22 23  1  0  0  0  0
 24 25  1  0  0  0  0
 26 25  1  0  0  0  0
 27 26  1  0  0  0  0
 29 27  1  6  0  0  0
 29 30  1  0  0  0  0
 30 28  2  0  0  0  0
 31 34  2  0  0  0  0
 32 31  1  0  0  0  0
 32 33  2  0  0  0  0
 33 29  1  0  0  0  0
 34 30  1  0  0  0  0
M  END
>  <MODEL>
6

>  <REMARK>
 VINA RESULT:      -7.7      1.862      7.745
  Name = 
  7 active torsions:
  status: ('A' for Active; 'I' for Inactive)
    1  A    between atoms: C_1  and  O_19
    2  A    between atoms: C_3  and  C_13
    3  A    between atoms: C_3  and  C_17
    4  A    between atoms: C_5  and  C_18
    5  A    between atoms: C_12  and  C_28
    6  A    between atoms: C_17  and  C_29
    7  A    between atoms: C_18  and  C_29
                            x       y       z     vdW  Elec       q    Type
                         _______ _______ _______ _____ _____    ______ ____

>  <TORSDO>
F 7

$$$$
=
 OpenBabel11052418393D

 34 38  0  0  1  0  0  0  0  0999 V2000
  193.0710  176.1800  145.5310 C   0  0  2  0  0  3  0  0  0  0  0  0
  193.2280  175.6940  142.8850 C   0  0  1  0  0  3  0  0  0  0  0  0
  191.4050  174.5940  144.2830 C   0  0  0  0  0  2  0  0  0  0  0  0
  189.0320  174.4480  143.4760 C   0  0  2  0  0  3  0  0  0  0  0  0
  192.3140  176.6850  143.2920 O   0  0  0  0  0  0  0  0  0  0  0  0
  191.1290  174.3360  141.8870 C   0  0  0  0  0  2  0  0  0  0  0  0
  192.5240  175.6210  144.2040 C   0  0  1  0  0  0  0  0  0  0  0  0
  190.0840  177.1050  145.2900 C   0  0  0  0  0  2  0  0  0  0  0  0
  192.0280  176.1980  146.6410 C   0  0  0  0  0  3  0  0  0  0  0  0
  192.5720  174.9000  141.7070 C   0  0  0  0  0  2  0  0  0  0  0  0
  188.6030  174.9900  144.8590 C   0  0  0  0  0  2  0  0  0  0  0  0
  188.6770  176.5260  145.0170 C   0  0  1  0  0  3  0  0  0  0  0  0
  190.4620  174.8710  143.1480 C   0  0  2  0  0  3  0  0  0  0  0  0
  190.7380  176.5910  146.5470 C   0  0  0  0  0  3  0  0  0  0  0  0
  186.9610  178.4710  147.8280 C   0  0  0  0  0  0  0  0  0  0  0  0
  185.5920  177.9540  147.7700 C   0  0  0  0  0  3  0  0  0  0  0  0
  187.6450  177.0380  145.9760 C   0  0  0  0  0  0  0  0  0  0  0  0
  185.2660  177.0180  146.8790 C   0  0  0  0  0  3  0  0  0  0  0  0
  187.9630  177.9720  146.8830 C   0  0  0  0  0  3  0  0  0  0  0  0
  186.2610  176.4330  145.9050 C   0  0  0  0  0  2  0  0  0  0  0  0
  187.2740  179.3430  148.6800 O   0  0  0  0  0  0  0  0  0  0  0  0
  194.7500  177.4570  146.2110 C   0  0  0  0  0  1  0  0  0  0  0  0
  193.6300  177.4540  145.3790 O   0  0  0  0  0  0  0  0  0  0  0  0
  188.0560  174.9290  142.4120 C   0  0  0  0  0  2  0  0  0  0  0  0
  188.6610  176.0750  141.6190 C   0  0  0  0  0  2  0  0  0  0  0  0
  187.9760  177.3820  141.9710 C   0  0  0  0  0  2  0  0  0  0  0  0
  186.4680  177.1940  142.0250 C   0  0  0  0  0  2  0  0  0  0  0  0
  183.6010  177.8990  141.2430 O   0  0  0  0  0  0  0  0  0  0  0  0
  185.7620  178.5400  142.0700 C   0  0  1  0  0  3  0  0  0  0  0  0
  184.2700  178.3500  142.2090 C   0  0  0  0  0  0  0  0  0  0  0  0
  184.2460  179.2800  144.4570 C   0  0  0  0  0  3  0  0  0  0  0  0
  185.6570  179.6730  144.2960 C   0  0  0  0  0  3  0  0  0  0  0  0
  186.3460  179.3550  143.1970 C   0  0  0  0  0  3  0  0  0  0  0  0
  183.5880  178.6660  143.4730 C   0  0  0  0  0  3  0  0  0  0  0  0
  1 23  1  6  0  0  0
  1  9  1  0  0  0  0
  2 10  1  6  0  0  0
  2  5  1  0  0  0  0
  2  7  1  0  0  0  0
  4 24  1  6  0  0  0
  4 11  1  0  0  0  0
  5  7  1  0  0  0  0
  7  3  1  1  0  0  0
  7  1  1  0  0  0  0
  8 14  1  0  0  0  0
 10  6  1  0  0  0  0
 11 12  1  0  0  0  0
 12  8  1  0  0  0  0
 12 17  1  1  0  0  0
 13  6  1  6  0  0  0
 13  4  1  0  0  0  0
 13  3  1  0  0  0  0
 14  9  2  0  0  0  0
 15 21  2  0  0  0  0
 16 15  1  0  0  0  0
 17 19  2  0  0  0  0
 18 16  2  0  0  0  0
 19 15  1  0  0  0  0
 20 17  1  0  0  0  0
 20 18  1  0  0  0  0
 23 22  1  0  0  0  0
 25 26  1  0  0  0  0
 25 24  1  0  0  0  0
 26 27  1  0  0  0  0
 28 30  2  0  0  0  0
 29 27  1  1  0  0  0
 29 30  1  0  0  0  0
 29 33  1  0  0  0  0
 30 34  1  0  0  0  0
 32 31  1  0  0  0  0
 33 32  2  0  0  0  0
 34 31  2  0  0  0  0
M  END
>  <MODEL>
7

>  <REMARK>
 VINA RESULT:      -7.6      1.830      8.169
  Name = 
  7 active torsions:
  status: ('A' for Active; 'I' for Inactive)
    1  A    between atoms: C_1  and  O_19
    2  A    between atoms: C_3  and  C_13
    3  A    between atoms: C_3  and  C_17
    4  A    between atoms: C_5  and  C_18
    5  A    between atoms: C_12  and  C_28
    6  A    between atoms: C_17  and  C_29
    7  A    between atoms: C_18  and  C_29
                            x       y       z     vdW  Elec       q    Type
                         _______ _______ _______ _____ _____    ______ ____

>  <TORSDO>
F 7

$$$$
=
 OpenBabel11052418393D

 34 38  0  0  1  0  0  0  0  0999 V2000
  187.8110  176.7710  140.6900 C   0  0  2  0  0  3  0  0  0  0  0  0
  188.9580  174.3330  140.7380 C   0  0  1  0  0  3  0  0  0  0  0  0
  189.5860  176.0790  142.4840 C   0  0  0  0  0  2  0  0  0  0  0  0
  189.8280  175.4880  144.9120 C   0  0  2  0  0  3  0  0  0  0  0  0
  187.8570  174.5300  141.5940 O   0  0  0  0  0  0  0  0  0  0  0  0
  190.4310  173.8510  142.9390 C   0  0  0  0  0  2  0  0  0  0  0  0
  188.6640  175.6690  141.3460 C   0  0  1  0  0  0  0  0  0  0  0  0
  186.8470  176.4920  143.6600 C   0  0  0  0  0  2  0  0  0  0  0  0
  187.4670  177.9030  141.6480 C   0  0  0  0  0  3  0  0  0  0  0  0
  189.9950  173.4420  141.4990 C   0  0  0  0  0  2  0  0  0  0  0  0
  188.9340  176.7110  145.2240 C   0  0  0  0  0  2  0  0  0  0  0  0
  187.4130  176.4660  145.0980 C   0  0  1  0  0  3  0  0  0  0  0  0
  189.5640  174.9730  143.4980 C   0  0  2  0  0  3  0  0  0  0  0  0
  187.0540  177.7940  142.9300 C   0  0  0  0  0  3  0  0  0  0  0  0
  186.4830  178.8160  147.9690 C   0  0  0  0  0  0  0  0  0  0  0  0
  185.0330  178.9480  147.8030 C   0  0  0  0  0  3  0  0  0  0  0  0
  186.6290  177.3260  146.0440 C   0  0  0  0  0  0  0  0  0  0  0  0
  184.4090  178.2930  146.8240 C   0  0  0  0  0  3  0  0  0  0  0  0
  187.2450  177.9810  147.0370 C   0  0  0  0  0  3  0  0  0  0  0  0
  185.1300  177.3850  145.8560 C   0  0  0  0  0  2  0  0  0  0  0  0
  187.0710  179.4210  148.9030 O   0  0  0  0  0  0  0  0  0  0  0  0
  186.3250  177.1650  139.0930 C   0  0  0  0  0  1  0  0  0  0  0  0
  186.6440  176.2630  140.1090 O   0  0  0  0  0  0  0  0  0  0  0  0
  189.5880  174.4010  145.9500 C   0  0  0  0  0  2  0  0  0  0  0  0
  189.9250  174.9130  147.3390 C   0  0  0  0  0  2  0  0  0  0  0  0
  191.2980  175.5590  147.3470 C   0  0  0  0  0  2  0  0  0  0  0  0
  192.3540  174.5690  146.8820 C   0  0  0  0  0  2  0  0  0  0  0  0
  194.6210  173.4440  145.1720 O   0  0  0  0  0  0  0  0  0  0  0  0
  193.5220  175.2960  146.2350 C   0  0  1  0  0  3  0  0  0  0  0  0
  194.0120  174.5350  145.0240 C   0  0  0  0  0  0  0  0  0  0  0  0
  193.2570  176.2660  143.4910 C   0  0  0  0  0  3  0  0  0  0  0  0
  192.9490  177.1340  144.6400 C   0  0  0  0  0  3  0  0  0  0  0  0
  193.0890  176.7000  145.8960 C   0  0  0  0  0  3  0  0  0  0  0  0
  193.7660  175.0460  143.6680 C   0  0  0  0  0  3  0  0  0  0  0  0
  1 23  1  1  0  0  0
  1  7  1  0  0  0  0
  1  9  1  0  0  0  0
  2  7  1  0  0  0  0
  2 10  1  1  0  0  0
  2  5  1  0  0  0  0
  4 11  1  0  0  0  0
  4 24  1  1  0  0  0
  6 13  1  0  0  0  0
  7  5  1  0  0  0  0
  7  3  1  1  0  0  0
  8 12  1  0  0  0  0
  9 14  2  0  0  0  0
 10  6  1  0  0  0  0
 12 11  1  0  0  0  0
 12 17  1  1  0  0  0
 13  3  1  6  0  0  0
 13  4  1  0  0  0  0
 14  8  1  0  0  0  0
 15 21  2  0  0  0  0
 16 15  1  0  0  0  0
 17 19  2  0  0  0  0
 18 16  2  0  0  0  0
 19 15  1  0  0  0  0
 20 17  1  0  0  0  0
 20 18  1  0  0  0  0
 22 23  1  0  0  0  0
 24 25  1  0  0  0  0
 25 26  1  0  0  0  0
 27 26  1  0  0  0  0
 29 27  1  6  0  0  0
 30 28  2  0  0  0  0
 30 29  1  0  0  0  0
 31 34  2  0  0  0  0
 31 32  1  0  0  0  0
 32 33  2  0  0  0  0
 33 29  1  0  0  0  0
 34 30  1  0  0  0  0
M  END
>  <MODEL>
8

>  <REMARK>
 VINA RESULT:      -7.5      1.842      5.104
  Name = 
  7 active torsions:
  status: ('A' for Active; 'I' for Inactive)
    1  A    between atoms: C_1  and  O_19
    2  A    between atoms: C_3  and  C_13
    3  A    between atoms: C_3  and  C_17
    4  A    between atoms: C_5  and  C_18
    5  A    between atoms: C_12  and  C_28
    6  A    between atoms: C_17  and  C_29
    7  A    between atoms: C_18  and  C_29
                            x       y       z     vdW  Elec       q    Type
                         _______ _______ _______ _____ _____    ______ ____

>  <TORSDO>
F 7

$$$$
=
 OpenBabel11052418393D

 34 38  0  0  1  0  0  0  0  0999 V2000
  194.9320  176.2120  143.1730 C   0  0  2  0  0  3  0  0  0  0  0  0
  194.7310  176.1170  145.8590 C   0  0  1  0  0  3  0  0  0  0  0  0
  192.6980  176.7080  144.4430 C   0  0  0  0  0  2  0  0  0  0  0  0
  190.4310  175.7420  144.9230 C   0  0  2  0  0  3  0  0  0  0  0  0
  194.3240  174.9680  145.1540 O   0  0  0  0  0  0  0  0  0  0  0  0
  192.2100  176.2980  146.7830 C   0  0  0  0  0  2  0  0  0  0  0  0
  194.1330  176.2050  144.4900 C   0  0  1  0  0  0  0  0  0  0  0  0
  192.5730  174.1760  142.8210 C   0  0  0  0  0  2  0  0  0  0  0  0
  194.0500  176.0410  141.9440 C   0  0  0  0  0  3  0  0  0  0  0  0
  193.7450  176.3110  147.0580 C   0  0  0  0  0  2  0  0  0  0  0  0
  190.3380  175.4000  143.4170 C   0  0  0  0  0  2  0  0  0  0  0  0
  191.0400  174.0890  142.9940 C   0  0  1  0  0  3  0  0  0  0  0  0
  191.8900  175.8430  145.3650 C   0  0  2  0  0  3  0  0  0  0  0  0
  193.0300  175.1700  141.7830 C   0  0  0  0  0  3  0  0  0  0  0  0
  190.1350  171.6370  140.2020 C   0  0  0  0  0  0  0  0  0  0  0  0
  188.9900  172.2970  139.5700 C   0  0  0  0  0  3  0  0  0  0  0  0
  190.3610  173.4460  141.8220 C   0  0  0  0  0  0  0  0  0  0  0  0
  188.5610  173.4740  140.0230 C   0  0  0  0  0  3  0  0  0  0  0  0
  190.7890  172.2660  141.3520 C   0  0  0  0  0  3  0  0  0  0  0  0
  189.2170  174.1950  141.1780 C   0  0  0  0  0  2  0  0  0  0  0  0
  190.5500  170.5320  139.7640 O   0  0  0  0  0  0  0  0  0  0  0  0
  197.1340  175.9900  143.0620 C   0  0  0  0  0  1  0  0  0  0  0  0
  195.9530  175.2540  143.1680 O   0  0  0  0  0  0  0  0  0  0  0  0
  189.6790  174.6960  145.7330 C   0  0  0  0  0  2  0  0  0  0  0  0
  188.9290  175.3540  146.8780 C   0  0  0  0  0  2  0  0  0  0  0  0
  188.3290  176.6740  146.4290 C   0  0  0  0  0  2  0  0  0  0  0  0
  186.8840  176.7840  146.8880 C   0  0  0  0  0  2  0  0  0  0  0  0
  184.0690  177.9450  146.6520 O   0  0  0  0  0  0  0  0  0  0  0  0
  185.9430  176.7880  145.6940 C   0  0  1  0  0  3  0  0  0  0  0  0
  184.9810  177.9500  145.7840 C   0  0  0  0  0  0  0  0  0  0  0  0
  185.9690  179.0650  143.8620 C   0  0  0  0  0  3  0  0  0  0  0  0
  186.7910  177.8700  143.6050 C   0  0  0  0  0  3  0  0  0  0  0  0
  186.7650  176.8190  144.4300 C   0  0  0  0  0  3  0  0  0  0  0  0
  185.1100  179.1030  144.8800 C   0  0  0  0  0  3  0  0  0  0  0  0
  1 23  1  1  0  0  0
  1  7  1  0  0  0  0
  2 10  1  1  0  0  0
  4 13  1  0  0  0  0
  4 24  1  1  0  0  0
  5  2  1  0  0  0  0
  6 10  1  0  0  0  0
  7  3  1  6  0  0  0
  7  5  1  0  0  0  0
  7  2  1  0  0  0  0
  8 12  1  0  0  0  0
  9  1  1  0  0  0  0
 11  4  1  0  0  0  0
 12 17  1  6  0  0  0
 12 11  1  0  0  0  0
 13  3  1  6  0  0  0
 13  6  1  0  0  0  0
 14  9  2  0  0  0  0
 14  8  1  0  0  0  0
 15 19  1  0  0  0  0
 16 18  2  0  0  0  0
 16 15  1  0  0  0  0
 18 20  1  0  0  0  0
 19 17  2  0  0  0  0
 20 17  1  0  0  0  0
 21 15  2  0  0  0  0
 22 23  1  0  0  0  0
 24 25  1  0  0  0  0
 26 25  1  0  0  0  0
 26 27  1  0  0  0  0
 29 30  1  0  0  0  0
 29 27  1  1  0  0  0
 30 28  2  0  0  0  0
 31 34  2  0  0  0  0
 32 31  1  0  0  0  0
 32 33  2  0  0  0  0
 33 29  1  0  0  0  0
 34 30  1  0  0  0  0
M  END
>  <MODEL>
9

>  <REMARK>
 VINA RESULT:      -7.4      1.896      7.330
  Name = 
  7 active torsions:
  status: ('A' for Active; 'I' for Inactive)
    1  A    between atoms: C_1  and  O_19
    2  A    between atoms: C_3  and  C_13
    3  A    between atoms: C_3  and  C_17
    4  A    between atoms: C_5  and  C_18
    5  A    between atoms: C_12  and  C_28
    6  A    between atoms: C_17  and  C_29
    7  A    between atoms: C_18  and  C_29
                            x       y       z     vdW  Elec       q    Type
                         _______ _______ _______ _____ _____    ______ ____

>  <TORSDO>
F 7

$$$$
