=
 OpenBabel11052421353D

 32 36  0  0  1  0  0  0  0  0999 V2000
  195.0410  175.1120  145.2760 C   0  0  0  0  0  0  0  0  0  0  0  0
  190.2300  176.7180  144.8300 C   0  0  2  0  0  3  0  0  0  0  0  0
  188.7060  174.6570  140.6530 C   0  0  0  0  0  3  0  0  0  0  0  0
  187.5580  175.4470  140.6990 C   0  0  0  0  0  3  0  0  0  0  0  0
  192.4700  176.1130  145.7480 C   0  0  0  0  0  0  0  0  0  0  0  0
  191.6930  175.1800  143.6190 N   0  0  0  0  0  2  0  0  0  0  0  0
  194.0330  174.9180  144.3240 C   0  0  0  0  0  3  0  0  0  0  0  0
  189.6020  174.6620  141.7230 C   0  0  0  0  0  3  0  0  0  0  0  0
  190.3070  175.4240  144.0200 C   0  0  2  0  0  3  0  0  0  0  0  0
  189.3630  175.4660  142.8480 C   0  0  0  0  0  0  0  0  0  0  0  0
  187.8770  177.1400  144.1030 C   0  0  2  0  0  3  0  0  0  0  0  0
  194.7590  175.7990  146.4650 C   0  0  0  0  0  3  0  0  0  0  0  0
  192.7460  175.4060  144.5630 C   0  0  0  0  0  0  0  0  0  0  0  0
  193.4740  176.2990  146.7020 C   0  0  0  0  0  3  0  0  0  0  0  0
  187.2940  176.2320  141.8240 C   0  0  0  0  0  3  0  0  0  0  0  0
  188.1690  176.2290  142.9210 C   0  0  0  0  0  0  0  0  0  0  0  0
  191.1590  176.6520  145.9540 N   0  0  0  0  0  2  0  0  0  0  0  0
  188.8040  176.9130  145.3050 C   0  0  0  0  0  2  0  0  0  0  0  0
  196.4160  174.6060  145.0180 C   0  0  0  0  0  2  0  0  0  0  0  0
  196.8540  173.6860  146.1440 C   0  0  0  0  0  2  0  0  0  0  0  0
  196.8950  172.2480  145.6610 C   0  0  2  0  0  3  0  0  0  0  0  0
  197.3000  172.2210  144.2030 C   0  0  0  0  0  1  0  0  0  0  0  0
  195.6370  171.6640  145.8000 O   0  0  0  0  0  1  0  0  0  0  0  0
  186.4280  177.0080  144.5560 C   0  0  0  0  0  2  0  0  0  0  0  0
  185.9110  178.3030  144.9900 N   0  0  0  0  0  0  0  0  0  0  0  0
  184.9500  178.4330  147.2410 C   0  0  1  0  0  3  0  0  0  0  0  0
  186.2450  178.9000  147.4870 O   0  0  0  0  0  1  0  0  0  0  0  0
  184.7300  178.0760  145.8250 C   0  0  2  0  0  3  0  0  0  0  0  0
  185.0140  177.0270  146.8170 N   0  0  0  0  0  2  0  0  0  0  0  0
  185.5460  179.1060  143.8140 C   0  0  0  0  0  2  0  0  0  0  0  0
  184.1030  178.8910  143.3530 C   0  0  0  0  0  2  0  0  0  0  0  0
  184.1020  178.1550  142.0300 C   0  0  0  0  0  1  0  0  0  0  0  0
  1 12  1  0  0  0  0
  2 18  1  1  0  0  0
  2 17  1  0  0  0  0
  3  4  2  0  0  0  0
  3  8  1  0  0  0  0
  4 15  1  0  0  0  0
  5 17  1  0  0  0  0
  5 14  1  0  0  0  0
  6  9  1  0  0  0  0
  6 13  1  0  0  0  0
  7 13  1  0  0  0  0
  7  1  2  0  0  0  0
  8 10  2  0  0  0  0
  9 10  1  6  0  0  0
  9  2  1  0  0  0  0
 10 16  1  0  0  0  0
 11 24  1  1  0  0  0
 11 18  1  0  0  0  0
 12 14  2  0  0  0  0
 13  5  2  0  0  0  0
 15 16  2  0  0  0  0
 16 11  1  0  0  0  0
 19  1  1  0  0  0  0
 19 20  1  0  0  0  0
 21 22  1  6  0  0  0
 21 23  1  0  0  0  0
 21 20  1  0  0  0  0
 24 25  1  0  0  0  0
 26 27  1  6  0  0  0
 28 25  1  6  0  0  0
 28 29  1  0  0  0  0
 28 26  1  0  0  0  0
 29 26  1  0  0  0  0
 30 25  1  0  0  0  0
 31 30  1  0  0  0  0
 32 31  1  0  0  0  0
M  END
>  <MODEL>
1

>  <REMARK>
 VINA RESULT:      -7.1      0.000      0.000
  Name = 
  8 active torsions:
  status: ('A' for Active; 'I' for Inactive)
    1  A    between atoms: C_1  and  C_10
    2  A    between atoms: C_2  and  C_24
    3  A    between atoms: C_6  and  C_7
    4  A    between atoms: C_7  and  N_32
    5  A    between atoms: C_10  and  C_24
    6  A    between atoms: C_16  and  C_27
    7  A    between atoms: C_22  and  N_32
    8  A    between atoms: C_27  and  N_32
                            x       y       z     vdW  Elec       q    Type
                         _______ _______ _______ _____ _____    ______ ____

>  <TORSDO>
F 8

$$$$
=
 OpenBabel11052421353D

 32 36  0  0  1  0  0  0  0  0999 V2000
  184.5770  177.9210  141.9110 C   0  0  0  0  0  0  0  0  0  0  0  0
  189.3870  176.5630  142.8800 C   0  0  2  0  0  3  0  0  0  0  0  0
  189.2600  175.1170  147.5610 C   0  0  0  0  0  3  0  0  0  0  0  0
  190.6540  175.0750  147.5700 C   0  0  0  0  0  3  0  0  0  0  0  0
  187.2550  177.1310  141.7150 C   0  0  0  0  0  0  0  0  0  0  0  0
  187.2600  176.4860  144.0790 N   0  0  0  0  0  2  0  0  0  0  0  0
  185.2430  177.4330  143.0410 C   0  0  0  0  0  3  0  0  0  0  0  0
  188.5760  175.3640  146.3690 C   0  0  0  0  0  3  0  0  0  0  0  0
  188.5340  175.7920  143.8860 C   0  0  2  0  0  3  0  0  0  0  0  0
  189.2810  175.5800  145.1760 C   0  0  0  0  0  0  0  0  0  0  0  0
  191.5080  175.7410  143.9130 C   0  0  2  0  0  3  0  0  0  0  0  0
  185.2490  178.0050  140.6840 C   0  0  0  0  0  3  0  0  0  0  0  0
  186.5760  177.0260  142.9430 C   0  0  0  0  0  0  0  0  0  0  0  0
  186.5870  177.6100  140.5850 C   0  0  0  0  0  3  0  0  0  0  0  0
  191.3670  175.2620  146.3840 C   0  0  0  0  0  3  0  0  0  0  0  0
  190.6960  175.4840  145.1720 C   0  0  0  0  0  0  0  0  0  0  0  0
  188.6360  176.7590  141.6440 N   0  0  0  0  0  2  0  0  0  0  0  0
  190.6660  175.7890  142.6300 C   0  0  0  0  0  2  0  0  0  0  0  0
  183.1610  178.3680  142.0160 C   0  0  0  0  0  2  0  0  0  0  0  0
  182.4270  178.0860  140.7170 C   0  0  0  0  0  2  0  0  0  0  0  0
  181.1190  178.8540  140.6760 C   0  0  2  0  0  3  0  0  0  0  0  0
  180.6980  179.2020  142.0880 C   0  0  0  0  0  1  0  0  0  0  0  0
  180.1290  178.0740  140.0790 O   0  0  0  0  0  1  0  0  0  0  0  0
  192.6120  174.7030  143.7470 C   0  0  0  0  0  2  0  0  0  0  0  0
  193.8770  175.3530  143.4140 N   0  0  0  0  0  0  0  0  0  0  0  0
  194.9350  175.2970  141.2040 C   0  0  1  0  0  3  0  0  0  0  0  0
  194.5270  176.6350  141.2610 O   0  0  0  0  0  1  0  0  0  0  0  0
  194.5710  174.5370  142.4170 C   0  0  2  0  0  3  0  0  0  0  0  0
  193.7490  174.4290  141.2000 N   0  0  0  0  0  2  0  0  0  0  0  0
  194.7020  175.4720  144.6250 C   0  0  0  0  0  2  0  0  0  0  0  0
  194.9070  176.9170  145.0830 C   0  0  0  0  0  2  0  0  0  0  0  0
  194.3680  177.0810  146.4880 C   0  0  0  0  0  1  0  0  0  0  0  0
  1 19  1  0  0  0  0
  1  7  1  0  0  0  0
  2 18  1  6  0  0  0
  2  9  1  0  0  0  0
  3  4  1  0  0  0  0
  5 13  1  0  0  0  0
  8  3  2  0  0  0  0
  9  6  1  1  0  0  0
  9 10  1  0  0  0  0
 10  8  1  0  0  0  0
 11 24  1  6  0  0  0
 11 16  1  0  0  0  0
 12  1  2  0  0  0  0
 13  7  2  0  0  0  0
 13  6  1  0  0  0  0
 14 12  1  0  0  0  0
 14  5  2  0  0  0  0
 15  4  2  0  0  0  0
 16 10  2  0  0  0  0
 16 15  1  0  0  0  0
 17  5  1  0  0  0  0
 17  2  1  0  0  0  0
 18 11  1  0  0  0  0
 20 19  1  0  0  0  0
 21 20  1  0  0  0  0
 21 22  1  1  0  0  0
 23 21  1  0  0  0  0
 25 24  1  0  0  0  0
 25 30  1  0  0  0  0
 26 27  1  1  0  0  0
 26 28  1  0  0  0  0
 28 25  1  1  0  0  0
 29 26  1  0  0  0  0
 29 28  1  0  0  0  0
 30 31  1  0  0  0  0
 31 32  1  0  0  0  0
M  END
>  <MODEL>
2

>  <REMARK>
 VINA RESULT:      -6.9      3.046      9.937
  Name = 
  8 active torsions:
  status: ('A' for Active; 'I' for Inactive)
    1  A    between atoms: C_1  and  C_10
    2  A    between atoms: C_2  and  C_24
    3  A    between atoms: C_6  and  C_7
    4  A    between atoms: C_7  and  N_32
    5  A    between atoms: C_10  and  C_24
    6  A    between atoms: C_16  and  C_27
    7  A    between atoms: C_22  and  N_32
    8  A    between atoms: C_27  and  N_32
                            x       y       z     vdW  Elec       q    Type
                         _______ _______ _______ _____ _____    ______ ____

>  <TORSDO>
F 8

$$$$
=
 OpenBabel11052421353D

 32 36  0  0  1  0  0  0  0  0999 V2000
  186.8120  177.8420  143.5140 C   0  0  0  0  0  0  0  0  0  0  0  0
  190.6400  174.4870  143.5810 C   0  0  2  0  0  3  0  0  0  0  0  0
  193.8720  176.4820  146.6770 C   0  0  0  0  0  3  0  0  0  0  0  0
  194.8120  175.5280  146.2870 C   0  0  0  0  0  3  0  0  0  0  0  0
  188.3990  175.5470  143.2980 C   0  0  0  0  0  0  0  0  0  0  0  0
  190.0850  176.5500  144.7660 N   0  0  0  0  0  2  0  0  0  0  0  0
  188.0480  177.7880  144.1670 C   0  0  0  0  0  3  0  0  0  0  0  0
  192.5570  176.3970  146.2160 C   0  0  0  0  0  3  0  0  0  0  0  0
  190.7400  175.2480  144.9020 C   0  0  2  0  0  3  0  0  0  0  0  0
  192.1720  175.3620  145.3510 C   0  0  0  0  0  0  0  0  0  0  0  0
  192.7540  173.2360  144.0380 C   0  0  2  0  0  3  0  0  0  0  0  0
  186.3680  176.7460  142.7610 C   0  0  0  0  0  3  0  0  0  0  0  0
  188.8370  176.6380  144.0710 C   0  0  0  0  0  0  0  0  0  0  0  0
  187.1600  175.5990  142.6530 C   0  0  0  0  0  3  0  0  0  0  0  0
  194.4360  174.4780  145.4480 C   0  0  0  0  0  3  0  0  0  0  0  0
  193.1120  174.3610  144.9960 C   0  0  0  0  0  0  0  0  0  0  0  0
  189.2430  174.3980  143.1670 N   0  0  0  0  0  2  0  0  0  0  0  0
  191.2490  173.1110  143.7630 C   0  0  0  0  0  2  0  0  0  0  0  0
  185.9760  179.0710  143.6030 C   0  0  0  0  0  2  0  0  0  0  0  0
  185.7630  179.4520  145.0570 C   0  0  0  0  0  2  0  0  0  0  0  0
  184.3550  179.0950  145.4930 C   0  0  2  0  0  3  0  0  0  0  0  0
  184.3980  177.8560  146.3620 C   0  0  0  0  0  1  0  0  0  0  0  0
  183.5600  178.8450  144.3750 O   0  0  0  0  0  1  0  0  0  0  0  0
  193.2840  171.8970  144.5360 C   0  0  0  0  0  2  0  0  0  0  0  0
  194.1220  171.2710  143.5170 N   0  0  0  0  0  0  0  0  0  0  0  0
  193.2800  169.4930  142.0540 C   0  0  1  0  0  3  0  0  0  0  0  0
  193.2880  170.5750  141.1670 O   0  0  0  0  0  1  0  0  0  0  0  0
  193.7440  169.8610  143.4070 C   0  0  2  0  0  3  0  0  0  0  0  0
  192.3040  169.7500  143.1230 N   0  0  0  0  0  2  0  0  0  0  0  0
  195.5360  171.3810  143.9060 C   0  0  0  0  0  2  0  0  0  0  0  0
  195.8020  170.9740  145.3560 C   0  0  0  0  0  2  0  0  0  0  0  0
  196.8700  171.8730  145.9430 C   0  0  0  0  0  1  0  0  0  0  0  0
  1 19  1  0  0  0  0
  1  7  1  0  0  0  0
  2 18  1  1  0  0  0
  2  9  1  0  0  0  0
  4  3  1  0  0  0  0
  5 13  1  0  0  0  0
  8  3  2  0  0  0  0
  9  6  1  6  0  0  0
  9 10  1  0  0  0  0
 10  8  1  0  0  0  0
 11 24  1  1  0  0  0
 11 16  1  0  0  0  0
 12  1  2  0  0  0  0
 13  7  2  0  0  0  0
 13  6  1  0  0  0  0
 14 12  1  0  0  0  0
 14  5  2  0  0  0  0
 15  4  2  0  0  0  0
 16 10  2  0  0  0  0
 16 15  1  0  0  0  0
 17  5  1  0  0  0  0
 17  2  1  0  0  0  0
 18 11  1  0  0  0  0
 19 20  1  0  0  0  0
 20 21  1  0  0  0  0
 21 22  1  1  0  0  0
 23 21  1  0  0  0  0
 25 30  1  0  0  0  0
 25 24  1  0  0  0  0
 26 27  1  6  0  0  0
 26 29  1  0  0  0  0
 26 28  1  0  0  0  0
 28 25  1  6  0  0  0
 29 28  1  0  0  0  0
 30 31  1  0  0  0  0
 31 32  1  0  0  0  0
M  END
>  <MODEL>
3

>  <REMARK>
 VINA RESULT:      -6.8      2.483      9.632
  Name = 
  8 active torsions:
  status: ('A' for Active; 'I' for Inactive)
    1  A    between atoms: C_1  and  C_10
    2  A    between atoms: C_2  and  C_24
    3  A    between atoms: C_6  and  C_7
    4  A    between atoms: C_7  and  N_32
    5  A    between atoms: C_10  and  C_24
    6  A    between atoms: C_16  and  C_27
    7  A    between atoms: C_22  and  N_32
    8  A    between atoms: C_27  and  N_32
                            x       y       z     vdW  Elec       q    Type
                         _______ _______ _______ _____ _____    ______ ____

>  <TORSDO>
F 8

$$$$
=
 OpenBabel11052421353D

 32 36  0  0  1  0  0  0  0  0999 V2000
  182.5760  178.4280  141.6310 C   0  0  0  0  0  0  0  0  0  0  0  0
  187.6010  177.9120  142.2660 C   0  0  2  0  0  3  0  0  0  0  0  0
  188.1080  177.4010  147.1130 C   0  0  0  0  0  3  0  0  0  0  0  0
  189.4880  177.5410  146.9690 C   0  0  0  0  0  3  0  0  0  0  0  0
  185.3130  177.9640  141.2730 C   0  0  0  0  0  0  0  0  0  0  0  0
  185.6240  177.7990  143.6970 N   0  0  0  0  0  2  0  0  0  0  0  0
  183.4050  178.2590  142.7460 C   0  0  0  0  0  3  0  0  0  0  0  0
  187.2910  177.3220  145.9840 C   0  0  0  0  0  3  0  0  0  0  0  0
  186.9640  177.2490  143.4860 C   0  0  2  0  0  3  0  0  0  0  0  0
  187.8470  177.3900  144.6980 C   0  0  0  0  0  0  0  0  0  0  0  0
  189.9040  177.5850  143.1770 C   0  0  2  0  0  3  0  0  0  0  0  0
  183.1160  178.3570  140.3400 C   0  0  0  0  0  3  0  0  0  0  0  0
  184.7690  178.0150  142.5690 C   0  0  0  0  0  0  0  0  0  0  0  0
  184.4830  178.1250  140.1590 C   0  0  0  0  0  3  0  0  0  0  0  0
  190.0570  177.5830  145.6940 C   0  0  0  0  0  3  0  0  0  0  0  0
  189.2540  177.4770  144.5470 C   0  0  0  0  0  0  0  0  0  0  0  0
  186.7210  177.7660  141.1100 N   0  0  0  0  0  2  0  0  0  0  0  0
  188.9520  177.2750  142.0130 C   0  0  0  0  0  2  0  0  0  0  0  0
  181.1250  178.7020  141.8170 C   0  0  0  0  0  2  0  0  0  0  0  0
  180.3620  178.3610  140.5490 C   0  0  0  0  0  2  0  0  0  0  0  0
  178.9060  178.0830  140.8710 C   0  0  2  0  0  3  0  0  0  0  0  0
  178.7980  177.5440  142.2810 C   0  0  0  0  0  1  0  0  0  0  0  0
  178.3930  177.1430  139.9780 O   0  0  0  0  0  1  0  0  0  0  0  0
  191.1290  176.6850  143.0750 C   0  0  0  0  0  2  0  0  0  0  0  0
  190.7440  175.2830  143.2230 N   0  0  0  0  0  0  0  0  0  0  0  0
  191.4110  173.8960  145.1310 C   0  0  1  0  0  3  0  0  0  0  0  0
  190.0560  174.0950  145.4180 O   0  0  0  0  0  1  0  0  0  0  0  0
  191.8360  174.5690  143.8870 C   0  0  2  0  0  3  0  0  0  0  0  0
  192.1150  175.1860  145.1950 N   0  0  0  0  0  2  0  0  0  0  0  0
  190.4970  174.6980  141.8970 C   0  0  0  0  0  2  0  0  0  0  0  0
  189.6110  173.4520  141.9370 C   0  0  0  0  0  2  0  0  0  0  0  0
  188.1970  173.8510  142.3040 C   0  0  0  0  0  1  0  0  0  0  0  0
  1 19  1  0  0  0  0
  1  7  1  0  0  0  0
  2 18  1  6  0  0  0
  2  9  1  0  0  0  0
  4  3  1  0  0  0  0
  5 13  1  0  0  0  0
  8  3  2  0  0  0  0
  9  6  1  1  0  0  0
  9 10  1  0  0  0  0
 10  8  1  0  0  0  0
 11 24  1  1  0  0  0
 11 16  1  0  0  0  0
 12  1  2  0  0  0  0
 13  7  2  0  0  0  0
 13  6  1  0  0  0  0
 14 12  1  0  0  0  0
 14  5  2  0  0  0  0
 15  4  2  0  0  0  0
 16 10  2  0  0  0  0
 16 15  1  0  0  0  0
 17  5  1  0  0  0  0
 17  2  1  0  0  0  0
 18 11  1  0  0  0  0
 20 21  1  0  0  0  0
 20 19  1  0  0  0  0
 21 22  1  1  0  0  0
 23 21  1  0  0  0  0
 24 25  1  0  0  0  0
 26 29  1  0  0  0  0
 26 27  1  6  0  0  0
 28 25  1  6  0  0  0
 28 26  1  0  0  0  0
 28 29  1  0  0  0  0
 30 31  1  0  0  0  0
 30 25  1  0  0  0  0
 31 32  1  0  0  0  0
M  END
>  <MODEL>
4

>  <REMARK>
 VINA RESULT:      -6.7      3.161     10.002
  Name = 
  8 active torsions:
  status: ('A' for Active; 'I' for Inactive)
    1  A    between atoms: C_1  and  C_10
    2  A    between atoms: C_2  and  C_24
    3  A    between atoms: C_6  and  C_7
    4  A    between atoms: C_7  and  N_32
    5  A    between atoms: C_10  and  C_24
    6  A    between atoms: C_16  and  C_27
    7  A    between atoms: C_22  and  N_32
    8  A    between atoms: C_27  and  N_32
                            x       y       z     vdW  Elec       q    Type
                         _______ _______ _______ _____ _____    ______ ____

>  <TORSDO>
F 8

$$$$
=
 OpenBabel11052421353D

 32 36  0  0  1  0  0  0  0  0999 V2000
  186.4450  177.0460  146.0380 C   0  0  0  0  0  0  0  0  0  0  0  0
  190.9410  175.4170  144.2910 C   0  0  2  0  0  3  0  0  0  0  0  0
  189.8280  173.3400  139.9950 C   0  0  0  0  0  3  0  0  0  0  0  0
  191.1210  172.8180  139.9300 C   0  0  0  0  0  3  0  0  0  0  0  0
  189.1720  176.6430  145.5540 C   0  0  0  0  0  0  0  0  0  0  0  0
  188.6510  175.5110  143.4440 N   0  0  0  0  0  2  0  0  0  0  0  0
  186.8540  176.3630  144.8870 C   0  0  0  0  0  3  0  0  0  0  0  0
  189.4840  174.2260  141.0160 C   0  0  0  0  0  3  0  0  0  0  0  0
  190.0600  175.5910  143.0550 C   0  0  2  0  0  3  0  0  0  0  0  0
  190.4260  174.5930  141.9890 C   0  0  0  0  0  0  0  0  0  0  0  0
  192.8050  174.4480  142.9390 C   0  0  2  0  0  3  0  0  0  0  0  0
  187.4010  177.5330  146.9400 C   0  0  0  0  0  3  0  0  0  0  0  0
  188.2150  176.1710  144.6370 C   0  0  0  0  0  0  0  0  0  0  0  0
  188.7640  177.3320  146.6990 C   0  0  0  0  0  3  0  0  0  0  0  0
  192.0760  173.1950  140.8760 C   0  0  0  0  0  3  0  0  0  0  0  0
  191.7550  174.1070  141.8940 C   0  0  0  0  0  0  0  0  0  0  0  0
  190.5600  176.3920  145.3090 N   0  0  0  0  0  2  0  0  0  0  0  0
  192.3920  175.5840  143.8850 C   0  0  0  0  0  2  0  0  0  0  0  0
  184.9950  177.2390  146.3140 C   0  0  0  0  0  2  0  0  0  0  0  0
  184.5780  178.6530  145.9480 C   0  0  0  0  0  2  0  0  0  0  0  0
  184.6040  178.8350  144.4420 C   0  0  2  0  0  3  0  0  0  0  0  0
  185.4980  180.0060  144.0940 C   0  0  0  0  0  1  0  0  0  0  0  0
  183.3150  179.0840  143.9720 O   0  0  0  0  0  1  0  0  0  0  0  0
  194.1370  174.7990  142.2880 C   0  0  0  0  0  2  0  0  0  0  0  0
  195.1900  174.8820  143.2970 N   0  0  0  0  0  0  0  0  0  0  0  0
  196.8490  176.6850  143.2300 C   0  0  1  0  0  3  0  0  0  0  0  0
  196.0090  177.1460  144.2500 O   0  0  0  0  0  1  0  0  0  0  0  0
  196.4040  175.3980  142.6610 C   0  0  2  0  0  3  0  0  0  0  0  0
  196.1050  176.6590  141.9630 N   0  0  0  0  0  2  0  0  0  0  0  0
  195.4460  173.5460  143.8530 C   0  0  0  0  0  2  0  0  0  0  0  0
  195.3750  173.4960  145.3800 C   0  0  0  0  0  2  0  0  0  0  0  0
  196.7570  173.7190  145.9560 C   0  0  0  0  0  1  0  0  0  0  0  0
  1 19  1  0  0  0  0
  1 12  1  0  0  0  0
  2 18  1  6  0  0  0
  2 17  1  0  0  0  0
  3  8  1  0  0  0  0
  4  3  2  0  0  0  0
  4 15  1  0  0  0  0
  5 14  1  0  0  0  0
  6 13  1  0  0  0  0
  7  1  2  0  0  0  0
  8 10  2  0  0  0  0
  9 10  1  6  0  0  0
  9  6  1  0  0  0  0
  9  2  1  0  0  0  0
 11 24  1  6  0  0  0
 11 18  1  0  0  0  0
 13  7  1  0  0  0  0
 13  5  2  0  0  0  0
 14 12  2  0  0  0  0
 15 16  2  0  0  0  0
 16 10  1  0  0  0  0
 16 11  1  0  0  0  0
 17  5  1  0  0  0  0
 20 19  1  0  0  0  0
 21 22  1  1  0  0  0
 21 20  1  0  0  0  0
 23 21  1  0  0  0  0
 24 25  1  0  0  0  0
 25 30  1  0  0  0  0
 26 27  1  1  0  0  0
 28 26  1  0  0  0  0
 28 25  1  1  0  0  0
 29 28  1  0  0  0  0
 29 26  1  0  0  0  0
 30 31  1  0  0  0  0
 31 32  1  0  0  0  0
M  END
>  <MODEL>
5

>  <REMARK>
 VINA RESULT:      -6.7      2.343      8.895
  Name = 
  8 active torsions:
  status: ('A' for Active; 'I' for Inactive)
    1  A    between atoms: C_1  and  C_10
    2  A    between atoms: C_2  and  C_24
    3  A    between atoms: C_6  and  C_7
    4  A    between atoms: C_7  and  N_32
    5  A    between atoms: C_10  and  C_24
    6  A    between atoms: C_16  and  C_27
    7  A    between atoms: C_22  and  N_32
    8  A    between atoms: C_27  and  N_32
                            x       y       z     vdW  Elec       q    Type
                         _______ _______ _______ _____ _____    ______ ____

>  <TORSDO>
F 8

$$$$
=
 OpenBabel11052421353D

 32 36  0  0  1  0  0  0  0  0999 V2000
  186.2580  178.0490  143.9330 C   0  0  0  0  0  0  0  0  0  0  0  0
  190.8780  176.2580  142.7620 C   0  0  2  0  0  3  0  0  0  0  0  0
  193.3030  176.4480  147.0150 C   0  0  0  0  0  3  0  0  0  0  0  0
  194.4890  176.1680  146.3350 C   0  0  0  0  0  3  0  0  0  0  0  0
  188.4390  176.7830  142.7180 C   0  0  0  0  0  0  0  0  0  0  0  0
  189.7200  176.9460  144.8010 N   0  0  0  0  0  2  0  0  0  0  0  0
  187.4370  177.8440  144.6590 C   0  0  0  0  0  3  0  0  0  0  0  0
  192.0840  176.4120  146.3380 C   0  0  0  0  0  3  0  0  0  0  0  0
  190.7130  176.0150  144.2610 C   0  0  2  0  0  3  0  0  0  0  0  0
  192.0380  176.1040  144.9700 C   0  0  0  0  0  0  0  0  0  0  0  0
  193.2440  175.4560  142.8000 C   0  0  2  0  0  3  0  0  0  0  0  0
  186.1700  177.6140  142.6030 C   0  0  0  0  0  3  0  0  0  0  0  0
  188.5220  177.2010  144.0590 C   0  0  0  0  0  0  0  0  0  0  0  0
  187.2590  176.9800  141.9960 C   0  0  0  0  0  3  0  0  0  0  0  0
  194.4550  175.8340  144.9790 C   0  0  0  0  0  3  0  0  0  0  0  0
  193.2350  175.7660  144.2880 C   0  0  0  0  0  0  0  0  0  0  0  0
  189.5780  176.1730  142.1020 N   0  0  0  0  0  2  0  0  0  0  0  0
  191.8460  175.2350  142.2050 C   0  0  0  0  0  2  0  0  0  0  0  0
  185.1050  178.7460  144.5660 C   0  0  0  0  0  2  0  0  0  0  0  0
  185.5340  179.3780  145.8780 C   0  0  0  0  0  2  0  0  0  0  0  0
  184.8680  178.6720  147.0440 C   0  0  2  0  0  3  0  0  0  0  0  0
  185.9320  178.1100  147.9630 C   0  0  0  0  0  1  0  0  0  0  0  0
  184.0690  177.6300  146.5740 O   0  0  0  0  0  1  0  0  0  0  0  0
  194.1160  174.2440  142.4940 C   0  0  0  0  0  2  0  0  0  0  0  0
  194.9960  174.5240  141.3630 N   0  0  0  0  0  0  0  0  0  0  0  0
  194.5400  173.5160  139.1760 C   0  0  1  0  0  3  0  0  0  0  0  0
  194.0420  174.8070  138.9730 O   0  0  0  0  0  1  0  0  0  0  0  0
  195.0850  173.3200  140.5340 C   0  0  2  0  0  3  0  0  0  0  0  0
  193.7330  172.8410  140.2030 N   0  0  0  0  0  2  0  0  0  0  0  0
  196.3310  174.8900  141.8570 C   0  0  0  0  0  2  0  0  0  0  0  0
  196.5900  176.3970  141.8550 C   0  0  0  0  0  2  0  0  0  0  0  0
  197.2940  176.7900  143.1370 C   0  0  0  0  0  1  0  0  0  0  0  0
  1 19  1  0  0  0  0
  1  7  1  0  0  0  0
  2 18  1  6  0  0  0
  2  9  1  0  0  0  0
  4  3  2  0  0  0  0
  5 13  1  0  0  0  0
  8  3  1  0  0  0  0
  9  6  1  1  0  0  0
  9 10  1  0  0  0  0
 10  8  2  0  0  0  0
 11 24  1  1  0  0  0
 11 16  1  0  0  0  0
 12  1  2  0  0  0  0
 13  7  2  0  0  0  0
 13  6  1  0  0  0  0
 14 12  1  0  0  0  0
 14  5  2  0  0  0  0
 15  4  1  0  0  0  0
 16 10  1  0  0  0  0
 16 15  2  0  0  0  0
 17  5  1  0  0  0  0
 17  2  1  0  0  0  0
 18 11  1  0  0  0  0
 19 20  1  0  0  0  0
 20 21  1  0  0  0  0
 21 22  1  1  0  0  0
 23 21  1  0  0  0  0
 25 30  1  0  0  0  0
 25 24  1  0  0  0  0
 26 27  1  1  0  0  0
 26 29  1  0  0  0  0
 26 28  1  0  0  0  0
 28 25  1  1  0  0  0
 29 28  1  0  0  0  0
 31 30  1  0  0  0  0
 31 32  1  0  0  0  0
M  END
>  <MODEL>
6

>  <REMARK>
 VINA RESULT:      -6.5      2.657      9.407
  Name = 
  8 active torsions:
  status: ('A' for Active; 'I' for Inactive)
    1  A    between atoms: C_1  and  C_10
    2  A    between atoms: C_2  and  C_24
    3  A    between atoms: C_6  and  C_7
    4  A    between atoms: C_7  and  N_32
    5  A    between atoms: C_10  and  C_24
    6  A    between atoms: C_16  and  C_27
    7  A    between atoms: C_22  and  N_32
    8  A    between atoms: C_27  and  N_32
                            x       y       z     vdW  Elec       q    Type
                         _______ _______ _______ _____ _____    ______ ____

>  <TORSDO>
F 8

$$$$
=
 OpenBabel11052421353D

 32 36  0  0  1  0  0  0  0  0999 V2000
  190.3080  172.6430  138.8020 C   0  0  0  0  0  0  0  0  0  0  0  0
  187.9150  175.3380  142.3980 C   0  0  2  0  0  3  0  0  0  0  0  0
  190.8230  174.8760  146.3160 C   0  0  0  0  0  3  0  0  0  0  0  0
  189.8270  175.4540  147.1040 C   0  0  0  0  0  3  0  0  0  0  0  0
  188.6690  174.4310  140.2000 C   0  0  0  0  0  0  0  0  0  0  0  0
  190.0430  174.1510  142.2100 N   0  0  0  0  0  2  0  0  0  0  0  0
  190.5720  172.9220  140.1480 C   0  0  0  0  0  3  0  0  0  0  0  0
  190.6700  174.8180  144.9300 C   0  0  0  0  0  3  0  0  0  0  0  0
  189.3840  175.3080  142.8190 C   0  0  2  0  0  3  0  0  0  0  0  0
  189.5150  175.3270  144.3190 C   0  0  0  0  0  0  0  0  0  0  0  0
  187.2420  176.5040  144.5030 C   0  0  2  0  0  3  0  0  0  0  0  0
  189.2310  173.2640  138.1560 C   0  0  0  0  0  3  0  0  0  0  0  0
  189.7620  173.8230  140.8450 C   0  0  0  0  0  0  0  0  0  0  0  0
  188.4120  174.1580  138.8530 C   0  0  0  0  0  3  0  0  0  0  0  0
  188.6840  175.9900  146.5060 C   0  0  0  0  0  3  0  0  0  0  0  0
  188.5260  175.9640  145.1120 C   0  0  0  0  0  0  0  0  0  0  0  0
  187.8180  175.3110  140.9410 N   0  0  0  0  0  2  0  0  0  0  0  0
  187.2690  176.5840  142.9700 C   0  0  0  0  0  2  0  0  0  0  0  0
  191.1610  171.6730  138.0620 C   0  0  0  0  0  2  0  0  0  0  0  0
  190.3080  170.8430  137.1180 C   0  0  0  0  0  2  0  0  0  0  0  0
  190.7990  171.0020  135.6920 C   0  0  2  0  0  3  0  0  0  0  0  0
  189.6840  171.5680  134.8380 C   0  0  0  0  0  1  0  0  0  0  0  0
  191.1850  169.7630  135.1810 O   0  0  0  0  0  1  0  0  0  0  0  0
  186.8990  177.8770  145.0690 C   0  0  0  0  0  2  0  0  0  0  0  0
  185.4730  177.9580  145.3770 N   0  0  0  0  0  0  0  0  0  0  0  0
  184.1760  179.2230  143.7260 C   0  0  1  0  0  3  0  0  0  0  0  0
  184.0630  177.9290  143.2060 O   0  0  0  0  0  1  0  0  0  0  0  0
  184.9820  179.2730  144.9620 C   0  0  2  0  0  3  0  0  0  0  0  0
  185.5820  179.6470  143.6710 N   0  0  0  0  0  2  0  0  0  0  0  0
  185.2710  177.7820  146.8220 C   0  0  0  0  0  2  0  0  0  0  0  0
  185.5530  179.0460  147.6360 C   0  0  0  0  0  2  0  0  0  0  0  0
  186.8600  178.8840  148.3820 C   0  0  0  0  0  1  0  0  0  0  0  0
  1  7  1  0  0  0  0
  2  9  1  0  0  0  0
  2 18  1  6  0  0  0
  3  4  1  0  0  0  0
  5 13  1  0  0  0  0
  5 17  1  0  0  0  0
  7 13  2  0  0  0  0
  8  3  2  0  0  0  0
  9  6  1  1  0  0  0
  9 10  1  0  0  0  0
 10  8  1  0  0  0  0
 10 16  2  0  0  0  0
 11 24  1  1  0  0  0
 11 16  1  0  0  0  0
 12  1  2  0  0  0  0
 12 14  1  0  0  0  0
 13  6  1  0  0  0  0
 14  5  2  0  0  0  0
 15  4  2  0  0  0  0
 16 15  1  0  0  0  0
 17  2  1  0  0  0  0
 18 11  1  0  0  0  0
 19  1  1  0  0  0  0
 20 19  1  0  0  0  0
 21 22  1  6  0  0  0
 21 20  1  0  0  0  0
 23 21  1  0  0  0  0
 24 25  1  0  0  0  0
 25 30  1  0  0  0  0
 26 27  1  6  0  0  0
 26 28  1  0  0  0  0
 28 25  1  6  0  0  0
 29 26  1  0  0  0  0
 29 28  1  0  0  0  0
 30 31  1  0  0  0  0
 31 32  1  0  0  0  0
M  END
>  <MODEL>
7

>  <REMARK>
 VINA RESULT:      -6.5      3.725      6.482
  Name = 
  8 active torsions:
  status: ('A' for Active; 'I' for Inactive)
    1  A    between atoms: C_1  and  C_10
    2  A    between atoms: C_2  and  C_24
    3  A    between atoms: C_6  and  C_7
    4  A    between atoms: C_7  and  N_32
    5  A    between atoms: C_10  and  C_24
    6  A    between atoms: C_16  and  C_27
    7  A    between atoms: C_22  and  N_32
    8  A    between atoms: C_27  and  N_32
                            x       y       z     vdW  Elec       q    Type
                         _______ _______ _______ _____ _____    ______ ____

>  <TORSDO>
F 8

$$$$
=
 OpenBabel11052421353D

 32 36  0  0  1  0  0  0  0  0999 V2000
  187.2670  176.9000  144.6650 C   0  0  0  0  0  0  0  0  0  0  0  0
  191.8880  175.0000  143.6890 C   0  0  2  0  0  3  0  0  0  0  0  0
  191.1730  172.1910  139.7380 C   0  0  0  0  0  3  0  0  0  0  0  0
  192.4570  171.6690  139.8950 C   0  0  0  0  0  3  0  0  0  0  0  0
  190.0220  176.4240  144.5330 C   0  0  0  0  0  0  0  0  0  0  0  0
  189.6950  174.9350  142.6150 N   0  0  0  0  0  2  0  0  0  0  0  0
  187.7770  176.0240  143.6990 C   0  0  0  0  0  3  0  0  0  0  0  0
  190.7430  173.2430  140.5480 C   0  0  0  0  0  3  0  0  0  0  0  0
  191.1360  174.9490  142.3600 C   0  0  2  0  0  3  0  0  0  0  0  0
  191.5900  173.7780  141.5290 C   0  0  0  0  0  0  0  0  0  0  0  0
  193.8610  173.8110  142.7210 C   0  0  2  0  0  3  0  0  0  0  0  0
  188.1370  177.5410  145.5570 C   0  0  0  0  0  3  0  0  0  0  0  0
  189.1530  175.7950  143.6230 C   0  0  0  0  0  0  0  0  0  0  0  0
  189.5130  177.3050  145.4920 C   0  0  0  0  0  3  0  0  0  0  0  0
  193.3200  172.2100  140.8500 C   0  0  0  0  0  3  0  0  0  0  0  0
  192.9140  173.2870  141.6540 C   0  0  0  0  0  0  0  0  0  0  0  0
  191.4240  176.1380  144.4760 N   0  0  0  0  0  2  0  0  0  0  0  0
  193.3740  175.0950  143.4060 C   0  0  0  0  0  2  0  0  0  0  0  0
  185.8000  177.1350  144.7570 C   0  0  0  0  0  2  0  0  0  0  0  0
  185.3030  176.7950  146.1510 C   0  0  0  0  0  2  0  0  0  0  0  0
  184.4830  177.9420  146.7100 C   0  0  2  0  0  3  0  0  0  0  0  0
  184.0660  178.8580  145.5790 C   0  0  0  0  0  1  0  0  0  0  0  0
  185.2420  178.6640  147.6310 O   0  0  0  0  0  1  0  0  0  0  0  0
  195.2570  174.0450  142.1540 C   0  0  0  0  0  2  0  0  0  0  0  0
  196.1580  174.5210  143.2010 N   0  0  0  0  0  0  0  0  0  0  0  0
  197.0640  176.7970  143.1380 C   0  0  1  0  0  3  0  0  0  0  0  0
  196.0660  176.9440  144.1080 O   0  0  0  0  0  1  0  0  0  0  0  0
  197.1360  175.4260  142.5950 C   0  0  2  0  0  3  0  0  0  0  0  0
  196.4400  176.4840  141.8440 N   0  0  0  0  0  2  0  0  0  0  0  0
  196.8480  173.3770  143.8140 C   0  0  0  0  0  2  0  0  0  0  0  0
  197.1670  173.5810  145.2960 C   0  0  0  0  0  2  0  0  0  0  0  0
  195.9600  174.1680  145.9960 C   0  0  0  0  0  1  0  0  0  0  0  0
  1 19  1  0  0  0  0
  1 12  1  0  0  0  0
  2 18  1  6  0  0  0
  2 17  1  0  0  0  0
  3  4  2  0  0  0  0
  3  8  1  0  0  0  0
  4 15  1  0  0  0  0
  5 14  1  0  0  0  0
  6 13  1  0  0  0  0
  7  1  2  0  0  0  0
  8 10  2  0  0  0  0
  9 10  1  1  0  0  0
  9  6  1  0  0  0  0
  9  2  1  0  0  0  0
 10 16  1  0  0  0  0
 11 24  1  6  0  0  0
 11 18  1  0  0  0  0
 13  7  1  0  0  0  0
 13  5  2  0  0  0  0
 14 12  2  0  0  0  0
 15 16  2  0  0  0  0
 16 11  1  0  0  0  0
 17  5  1  0  0  0  0
 19 20  1  0  0  0  0
 20 21  1  0  0  0  0
 21 22  1  6  0  0  0
 21 23  1  0  0  0  0
 24 25  1  0  0  0  0
 25 30  1  0  0  0  0
 26 27  1  1  0  0  0
 28 26  1  0  0  0  0
 28 25  1  1  0  0  0
 29 28  1  0  0  0  0
 29 26  1  0  0  0  0
 30 31  1  0  0  0  0
 31 32  1  0  0  0  0
M  END
>  <MODEL>
8

>  <REMARK>
 VINA RESULT:      -6.5      2.529      9.059
  Name = 
  8 active torsions:
  status: ('A' for Active; 'I' for Inactive)
    1  A    between atoms: C_1  and  C_10
    2  A    between atoms: C_2  and  C_24
    3  A    between atoms: C_6  and  C_7
    4  A    between atoms: C_7  and  N_32
    5  A    between atoms: C_10  and  C_24
    6  A    between atoms: C_16  and  C_27
    7  A    between atoms: C_22  and  N_32
    8  A    between atoms: C_27  and  N_32
                            x       y       z     vdW  Elec       q    Type
                         _______ _______ _______ _____ _____    ______ ____

>  <TORSDO>
F 8

$$$$
=
 OpenBabel11052421353D

 32 36  0  0  1  0  0  0  0  0999 V2000
  194.4830  170.9890  144.4410 C   0  0  0  0  0  0  0  0  0  0  0  0
  190.7970  174.4980  144.3340 C   0  0  2  0  0  3  0  0  0  0  0  0
  191.5920  177.1340  148.3880 C   0  0  0  0  0  3  0  0  0  0  0  0
  190.3640  177.7690  148.1980 C   0  0  0  0  0  3  0  0  0  0  0  0
  192.4410  172.7420  143.6740 C   0  0  0  0  0  0  0  0  0  0  0  0
  192.7420  174.0300  145.7360 N   0  0  0  0  0  2  0  0  0  0  0  0
  194.1140  172.0400  145.2880 C   0  0  0  0  0  3  0  0  0  0  0  0
  192.0840  176.2600  147.4180 C   0  0  0  0  0  3  0  0  0  0  0  0
  191.9130  175.1030  145.1860 C   0  0  2  0  0  3  0  0  0  0  0  0
  191.3480  176.0050  146.2510 C   0  0  0  0  0  0  0  0  0  0  0  0
  189.2760  176.4250  144.7990 C   0  0  2  0  0  3  0  0  0  0  0  0
  193.8360  170.8200  143.2100 C   0  0  0  0  0  3  0  0  0  0  0  0
  193.1030  172.9240  144.9010 C   0  0  0  0  0  0  0  0  0  0  0  0
  192.8150  171.6960  142.8250 C   0  0  0  0  0  3  0  0  0  0  0  0
  189.6340  177.5440  147.0290 C   0  0  0  0  0  3  0  0  0  0  0  0
  190.1260  176.6890  146.0300 C   0  0  0  0  0  0  0  0  0  0  0  0
  191.3720  173.6240  143.3160 N   0  0  0  0  0  2  0  0  0  0  0  0
  189.9980  175.6230  143.7070 C   0  0  0  0  0  2  0  0  0  0  0  0
  195.5500  170.0370  144.8580 C   0  0  0  0  0  2  0  0  0  0  0  0
  195.8500  170.2040  146.3370 C   0  0  0  0  0  2  0  0  0  0  0  0
  195.9110  168.8490  147.0160 C   0  0  2  0  0  3  0  0  0  0  0  0
  194.5660  168.5390  147.6380 C   0  0  0  0  0  1  0  0  0  0  0  0
  196.8870  168.8600  148.0120 O   0  0  0  0  0  1  0  0  0  0  0  0
  188.7520  177.7250  144.2000 C   0  0  0  0  0  2  0  0  0  0  0  0
  187.3490  177.5820  143.8210 N   0  0  0  0  0  0  0  0  0  0  0  0
  186.9380  177.3810  141.4130 C   0  0  1  0  0  3  0  0  0  0  0  0
  187.0110  176.0320  141.7750 O   0  0  0  0  0  1  0  0  0  0  0  0
  187.1340  178.2920  142.5580 C   0  0  2  0  0  3  0  0  0  0  0  0
  188.2460  178.0140  141.6330 N   0  0  0  0  0  2  0  0  0  0  0  0
  186.4950  178.1580  144.8690 C   0  0  0  0  0  2  0  0  0  0  0  0
  185.5660  177.1360  145.5280 C   0  0  0  0  0  2  0  0  0  0  0  0
  186.0920  176.7910  146.9050 C   0  0  0  0  0  1  0  0  0  0  0  0
  1 19  1  0  0  0  0
  1  7  1  0  0  0  0
  2 18  1  6  0  0  0
  2  9  1  0  0  0  0
  4  3  1  0  0  0  0
  5 13  1  0  0  0  0
  8  3  2  0  0  0  0
  9  6  1  1  0  0  0
  9 10  1  0  0  0  0
 10  8  1  0  0  0  0
 11 24  1  6  0  0  0
 11 16  1  0  0  0  0
 12  1  2  0  0  0  0
 13  7  2  0  0  0  0
 13  6  1  0  0  0  0
 14 12  1  0  0  0  0
 14  5  2  0  0  0  0
 15  4  2  0  0  0  0
 16 10  2  0  0  0  0
 16 15  1  0  0  0  0
 17  5  1  0  0  0  0
 17  2  1  0  0  0  0
 18 11  1  0  0  0  0
 19 20  1  0  0  0  0
 20 21  1  0  0  0  0
 21 22  1  1  0  0  0
 21 23  1  0  0  0  0
 25 24  1  0  0  0  0
 25 30  1  0  0  0  0
 26 29  1  0  0  0  0
 26 27  1  1  0  0  0
 26 28  1  0  0  0  0
 28 25  1  1  0  0  0
 29 28  1  0  0  0  0
 30 31  1  0  0  0  0
 31 32  1  0  0  0  0
M  END
>  <MODEL>
9

>  <REMARK>
 VINA RESULT:      -6.5      2.744      4.664
  Name = 
  8 active torsions:
  status: ('A' for Active; 'I' for Inactive)
    1  A    between atoms: C_1  and  C_10
    2  A    between atoms: C_2  and  C_24
    3  A    between atoms: C_6  and  C_7
    4  A    between atoms: C_7  and  N_32
    5  A    between atoms: C_10  and  C_24
    6  A    between atoms: C_16  and  C_27
    7  A    between atoms: C_22  and  N_32
    8  A    between atoms: C_27  and  N_32
                            x       y       z     vdW  Elec       q    Type
                         _______ _______ _______ _____ _____    ______ ____

>  <TORSDO>
F 8

$$$$
