=
 OpenBabel11052418333D

 27 30  0  0  1  0  0  0  0  0999 V2000
  189.2370  176.2360  144.0830 C   0  0  2  0  0  3  0  0  0  0  0  0
  188.6850  177.6810  144.0190 C   0  0  1  0  0  3  0  0  0  0  0  0
  184.5490  178.7750  143.9890 C   0  0  0  0  0  2  0  0  0  0  0  0
  183.7960  178.7510  146.2520 O   0  0  0  0  0  0  0  0  0  0  0  0
  188.0580  177.9880  142.7300 N   0  0  0  0  0  2  0  0  0  0  0  0
  185.3720  177.0420  145.8400 C   0  0  0  0  0  3  0  0  0  0  0  0
  186.6570  176.8260  145.5220 C   0  0  0  0  0  3  0  0  0  0  0  0
  184.5810  178.2370  145.4140 C   0  0  0  0  0  0  0  0  0  0  0  0
  185.9000  179.1630  143.3650 C   0  0  0  0  0  2  0  0  0  0  0  0
  187.3770  177.8810  144.7630 C   0  0  2  0  0  3  0  0  0  0  0  0
  186.7670  177.9330  143.4030 C   0  0  2  0  0  3  0  0  0  0  0  0
  191.5910  177.3210  144.4670 C   0  0  1  0  0  3  0  0  0  0  0  0
  192.0990  175.6030  146.5350 O   0  0  0  0  0  0  0  0  0  0  0  0
  191.5550  177.8970  143.1980 O   0  0  0  0  0  1  0  0  0  0  0  0
  189.7580  175.6200  146.8390 C   0  0  0  0  0  1  0  0  0  0  0  0
  190.7070  176.0620  144.5260 C   0  0  1  0  0  3  0  0  0  0  0  0
  193.1510  175.6800  145.6020 C   0  0  0  0  0  2  0  0  0  0  0  0
  190.8420  173.9190  145.6070 O   0  0  0  0  0  1  0  0  0  0  0  0
  190.8840  175.2900  145.8690 C   0  0  1  0  0  0  0  0  0  0  0  0
  193.0440  176.9860  144.8150 C   0  0  0  0  0  2  0  0  0  0  0  0
  188.8260  175.3460  142.9910 N   0  0  0  0  0  2  0  0  0  0  0  0
  189.5900  174.3590  140.8420 C   0  0  2  0  0  3  0  0  0  0  0  0
  188.2060  174.4190  140.6310 O   0  0  0  0  0  1  0  0  0  0  0  0
  189.9750  173.3820  141.9570 C   0  0  1  0  0  3  0  0  0  0  0  0
  189.9880  174.8920  142.2220 C   0  0  2  0  0  3  0  0  0  0  0  0
  188.7900  172.6360  142.5740 C   0  0  0  0  0  2  0  0  0  0  0  0
  189.2920  171.6700  143.6280 C   0  0  0  0  0  1  0  0  0  0  0  0
  1 21  1  6  0  0  0
  2  1  1  6  0  0  0
  2 10  1  0  0  0  0
  3  8  1  0  0  0  0
  5 11  1  0  0  0  0
  5  2  1  0  0  0  0
  7  6  2  0  0  0  0
  8  6  1  0  0  0  0
  8  4  2  0  0  0  0
  9  3  1  0  0  0  0
 10  7  1  1  0  0  0
 11  9  1  1  0  0  0
 11 10  1  0  0  0  0
 12 14  1  6  0  0  0
 12 16  1  0  0  0  0
 12 20  1  0  0  0  0
 16  1  1  1  0  0  0
 16 19  1  0  0  0  0
 17 13  1  0  0  0  0
 18 19  1  0  0  0  0
 19 13  1  0  0  0  0
 19 15  1  1  0  0  0
 20 17  1  0  0  0  0
 22 23  1  1  0  0  0
 22 24  1  0  0  0  0
 22 25  1  0  0  0  0
 24 25  1  0  0  0  0
 24 26  1  1  0  0  0
 25 21  1  1  0  0  0
 26 27  1  0  0  0  0
M  END
>  <MODEL>
1

>  <REMARK>
 VINA RESULT:      -7.0      0.000      0.000
  Name = 
  5 active torsions:
  status: ('A' for Active; 'I' for Inactive)
    1  A    between atoms: C_1  and  C_2
    2  A    between atoms: C_1  and  N_15
    3  A    between atoms: C_1  and  C_18
    4  A    between atoms: C_7  and  C_25
    5  A    between atoms: N_15  and  C_27
                            x       y       z     vdW  Elec       q    Type
                         _______ _______ _______ _____ _____    ______ ____

>  <TORSDO>
F 5

$$$$
=
 OpenBabel11052418333D

 27 30  0  0  1  0  0  0  0  0999 V2000
  188.5170  176.2390  144.0900 C   0  0  2  0  0  3  0  0  0  0  0  0
  189.1530  176.3560  145.4950 C   0  0  1  0  0  3  0  0  0  0  0  0
  193.2130  175.4310  146.4820 C   0  0  0  0  0  2  0  0  0  0  0  0
  194.5310  177.3300  145.8960 O   0  0  0  0  0  0  0  0  0  0  0  0
  189.4410  175.0480  146.0940 N   0  0  0  0  0  2  0  0  0  0  0  0
  192.7630  176.9930  144.3690 C   0  0  0  0  0  3  0  0  0  0  0  0
  191.4250  177.0020  144.2620 C   0  0  0  0  0  3  0  0  0  0  0  0
  193.5120  176.6490  145.6150 C   0  0  0  0  0  0  0  0  0  0  0  0
  191.7830  175.3120  147.0370 C   0  0  0  0  0  2  0  0  0  0  0  0
  190.6240  176.7340  145.4840 C   0  0  2  0  0  3  0  0  0  0  0  0
  190.8550  175.3070  145.8520 C   0  0  2  0  0  3  0  0  0  0  0  0
  186.8770  178.1120  144.9080 C   0  0  1  0  0  3  0  0  0  0  0  0
  186.5560  179.0180  142.3460 O   0  0  0  0  0  0  0  0  0  0  0  0
  186.6780  177.4390  146.1130 O   0  0  0  0  0  1  0  0  0  0  0  0
  188.7510  178.2130  142.0170 C   0  0  0  0  0  1  0  0  0  0  0  0
  187.2920  177.1340  143.7940 C   0  0  1  0  0  3  0  0  0  0  0  0
  185.3390  178.8300  143.0280 C   0  0  0  0  0  2  0  0  0  0  0  0
  186.8530  176.9280  141.4390 O   0  0  0  0  0  1  0  0  0  0  0  0
  187.3280  177.8270  142.3970 C   0  0  1  0  0  0  0  0  0  0  0  0
  185.5870  178.8490  144.5370 C   0  0  0  0  0  2  0  0  0  0  0  0
  188.4160  174.8800  143.5440 N   0  0  0  0  0  2  0  0  0  0  0  0
  188.8960  173.5810  141.4800 C   0  0  2  0  0  3  0  0  0  0  0  0
  187.6960  172.9890  141.8960 O   0  0  0  0  0  1  0  0  0  0  0  0
  190.0470  173.3290  142.4580 C   0  0  1  0  0  3  0  0  0  0  0  0
  189.3500  174.6940  142.4300 C   0  0  2  0  0  3  0  0  0  0  0  0
  189.6750  172.4470  143.6520 C   0  0  0  0  0  2  0  0  0  0  0  0
  190.9360  171.9470  144.3260 C   0  0  0  0  0  1  0  0  0  0  0  0
  1 21  1  1  0  0  0
  2  1  1  6  0  0  0
  2  5  1  0  0  0  0
  3  9  1  0  0  0  0
  6  8  1  0  0  0  0
  7  6  2  0  0  0  0
  8  4  2  0  0  0  0
  8  3  1  0  0  0  0
 10  7  1  6  0  0  0
 10  2  1  0  0  0  0
 10 11  1  0  0  0  0
 11  5  1  0  0  0  0
 11  9  1  1  0  0  0
 12 14  1  1  0  0  0
 13 19  1  0  0  0  0
 13 17  1  0  0  0  0
 16  1  1  1  0  0  0
 16 12  1  0  0  0  0
 17 20  1  0  0  0  0
 18 19  1  0  0  0  0
 19 15  1  6  0  0  0
 19 16  1  0  0  0  0
 20 12  1  0  0  0  0
 22 23  1  1  0  0  0
 22 25  1  0  0  0  0
 22 24  1  0  0  0  0
 24 26  1  1  0  0  0
 25 24  1  0  0  0  0
 25 21  1  1  0  0  0
 26 27  1  0  0  0  0
M  END
>  <MODEL>
2

>  <REMARK>
 VINA RESULT:      -6.9      1.922      5.731
  Name = 
  5 active torsions:
  status: ('A' for Active; 'I' for Inactive)
    1  A    between atoms: C_1  and  C_2
    2  A    between atoms: C_1  and  N_15
    3  A    between atoms: C_1  and  C_18
    4  A    between atoms: C_7  and  C_25
    5  A    between atoms: N_15  and  C_27
                            x       y       z     vdW  Elec       q    Type
                         _______ _______ _______ _____ _____    ______ ____

>  <TORSDO>
F 5

$$$$
=
 OpenBabel11052418333D

 27 30  0  0  1  0  0  0  0  0999 V2000
  190.0880  176.0630  144.9110 C   0  0  2  0  0  3  0  0  0  0  0  0
  189.4000  177.4110  144.5850 C   0  0  1  0  0  3  0  0  0  0  0  0
  185.1890  178.0130  144.1130 C   0  0  0  0  0  2  0  0  0  0  0  0
  184.2610  178.2420  146.2980 O   0  0  0  0  0  0  0  0  0  0  0  0
  188.8530  177.4500  143.2250 N   0  0  0  0  0  2  0  0  0  0  0  0
  186.0310  176.6800  146.2630 C   0  0  0  0  0  3  0  0  0  0  0  0
  187.3530  176.5650  146.0670 C   0  0  0  0  0  3  0  0  0  0  0  0
  185.1600  177.7010  145.6040 C   0  0  0  0  0  0  0  0  0  0  0  0
  186.5410  178.4540  143.5260 C   0  0  0  0  0  2  0  0  0  0  0  0
  188.0210  177.5710  145.2010 C   0  0  2  0  0  3  0  0  0  0  0  0
  187.5230  177.3500  143.8120 C   0  0  2  0  0  3  0  0  0  0  0  0
  192.4690  177.1210  144.6310 C   0  0  1  0  0  3  0  0  0  0  0  0
  192.9850  176.7860  147.2970 O   0  0  0  0  0  0  0  0  0  0  0  0
  192.4190  176.9170  143.2520 O   0  0  0  0  0  1  0  0  0  0  0  0
  190.6510  177.0270  147.5570 C   0  0  0  0  0  1  0  0  0  0  0  0
  191.5640  176.1190  145.3680 C   0  0  1  0  0  3  0  0  0  0  0  0
  194.0200  176.3180  146.4650 C   0  0  0  0  0  2  0  0  0  0  0  0
  191.6790  174.9020  147.4380 O   0  0  0  0  0  1  0  0  0  0  0  0
  191.7520  176.1950  146.9140 C   0  0  1  0  0  0  0  0  0  0  0  0
  193.9230  176.9910  145.0950 C   0  0  0  0  0  2  0  0  0  0  0  0
  189.7780  174.9510  144.0040 N   0  0  0  0  0  2  0  0  0  0  0  0
  190.8800  172.7450  144.3140 C   0  0  2  0  0  3  0  0  0  0  0  0
  191.6950  173.3150  143.3270 O   0  0  0  0  0  1  0  0  0  0  0  0
  189.4550  172.4800  143.8210 C   0  0  1  0  0  3  0  0  0  0  0  0
  189.7410  173.6800  144.7320 C   0  0  2  0  0  3  0  0  0  0  0  0
  189.2240  172.8360  142.3510 C   0  0  0  0  0  2  0  0  0  0  0  0
  187.7540  172.6810  142.0160 C   0  0  0  0  0  1  0  0  0  0  0  0
  1 21  1  6  0  0  0
  2  1  1  1  0  0  0
  2 10  1  0  0  0  0
  3  8  1  0  0  0  0
  5 11  1  0  0  0  0
  5  2  1  0  0  0  0
  7  6  2  0  0  0  0
  8  6  1  0  0  0  0
  8  4  2  0  0  0  0
  9  3  1  0  0  0  0
 10  7  1  1  0  0  0
 11  9  1  6  0  0  0
 11 10  1  0  0  0  0
 12 14  1  6  0  0  0
 12 20  1  0  0  0  0
 12 16  1  0  0  0  0
 16  1  1  1  0  0  0
 16 19  1  0  0  0  0
 17 13  1  0  0  0  0
 19 13  1  0  0  0  0
 19 18  1  0  0  0  0
 19 15  1  1  0  0  0
 20 17  1  0  0  0  0
 22 23  1  6  0  0  0
 22 25  1  0  0  0  0
 24 26  1  6  0  0  0
 24 22  1  0  0  0  0
 24 25  1  0  0  0  0
 25 21  1  6  0  0  0
 27 26  1  0  0  0  0
M  END
>  <MODEL>
3

>  <REMARK>
 VINA RESULT:      -6.8      1.489      1.807
  Name = 
  5 active torsions:
  status: ('A' for Active; 'I' for Inactive)
    1  A    between atoms: C_1  and  C_2
    2  A    between atoms: C_1  and  N_15
    3  A    between atoms: C_1  and  C_18
    4  A    between atoms: C_7  and  C_25
    5  A    between atoms: N_15  and  C_27
                            x       y       z     vdW  Elec       q    Type
                         _______ _______ _______ _____ _____    ______ ____

>  <TORSDO>
F 5

$$$$
=
 OpenBabel11052418333D

 27 30  0  0  1  0  0  0  0  0999 V2000
  189.8210  175.9240  144.5440 C   0  0  2  0  0  3  0  0  0  0  0  0
  190.8260  176.7170  145.4150 C   0  0  1  0  0  3  0  0  0  0  0  0
  195.0070  175.8860  145.7830 C   0  0  0  0  0  2  0  0  0  0  0  0
  196.0910  176.8760  143.9040 O   0  0  0  0  0  0  0  0  0  0  0  0
  191.2820  175.9560  146.5830 N   0  0  0  0  0  2  0  0  0  0  0  0
  193.9680  176.0180  143.3320 C   0  0  0  0  0  3  0  0  0  0  0  0
  192.6540  176.1760  143.5540 C   0  0  0  0  0  3  0  0  0  0  0  0
  195.0400  176.3290  144.3250 C   0  0  0  0  0  0  0  0  0  0  0  0
  193.7920  176.3320  146.6140 C   0  0  0  0  0  2  0  0  0  0  0  0
  192.2300  176.7820  144.8420 C   0  0  2  0  0  3  0  0  0  0  0  0
  192.5680  175.8020  145.9160 C   0  0  2  0  0  3  0  0  0  0  0  0
  187.8800  177.4130  145.4830 C   0  0  1  0  0  3  0  0  0  0  0  0
  187.2470  178.2640  142.9610 O   0  0  0  0  0  0  0  0  0  0  0  0
  187.8860  176.7000  146.6820 O   0  0  0  0  0  1  0  0  0  0  0  0
  189.5390  177.9290  142.5070 C   0  0  0  0  0  1  0  0  0  0  0  0
  188.4260  176.5540  144.3300 C   0  0  1  0  0  3  0  0  0  0  0  0
  186.1310  177.8230  143.6980 C   0  0  0  0  0  2  0  0  0  0  0  0
  187.9150  176.2890  141.9950 O   0  0  0  0  0  1  0  0  0  0  0  0
  188.2470  177.2560  142.9480 C   0  0  1  0  0  0  0  0  0  0  0  0
  186.4490  177.8750  145.1920 C   0  0  0  0  0  2  0  0  0  0  0  0
  189.8020  174.4710  144.7510 N   0  0  0  0  0  2  0  0  0  0  0  0
  189.5160  172.2650  143.6440 C   0  0  2  0  0  3  0  0  0  0  0  0
  189.3390  171.9140  144.9890 O   0  0  0  0  0  1  0  0  0  0  0  0
  190.9380  172.7480  143.3430 C   0  0  1  0  0  3  0  0  0  0  0  0
  189.7950  173.7620  143.4700 C   0  0  2  0  0  3  0  0  0  0  0  0
  191.8840  172.7000  144.5440 C   0  0  0  0  0  2  0  0  0  0  0  0
  193.2980  172.4420  144.0670 C   0  0  0  0  0  1  0  0  0  0  0  0
  1 21  1  1  0  0  0
  2  1  1  6  0  0  0
  2  5  1  0  0  0  0
  3  9  1  0  0  0  0
  4  8  2  0  0  0  0
  6  7  2  0  0  0  0
  6  8  1  0  0  0  0
  8  3  1  0  0  0  0
 10  7  1  6  0  0  0
 10  2  1  0  0  0  0
 10 11  1  0  0  0  0
 11  5  1  0  0  0  0
 11  9  1  1  0  0  0
 12 14  1  1  0  0  0
 13 17  1  0  0  0  0
 16  1  1  1  0  0  0
 16 12  1  0  0  0  0
 17 20  1  0  0  0  0
 18 19  1  0  0  0  0
 19 15  1  6  0  0  0
 19 13  1  0  0  0  0
 19 16  1  0  0  0  0
 20 12  1  0  0  0  0
 22 23  1  1  0  0  0
 24 25  1  0  0  0  0
 24 22  1  0  0  0  0
 24 26  1  1  0  0  0
 25 22  1  0  0  0  0
 25 21  1  1  0  0  0
 27 26  1  0  0  0  0
M  END
>  <MODEL>
4

>  <REMARK>
 VINA RESULT:      -6.7      2.355      6.230
  Name = 
  5 active torsions:
  status: ('A' for Active; 'I' for Inactive)
    1  A    between atoms: C_1  and  C_2
    2  A    between atoms: C_1  and  N_15
    3  A    between atoms: C_1  and  C_18
    4  A    between atoms: C_7  and  C_25
    5  A    between atoms: N_15  and  C_27
                            x       y       z     vdW  Elec       q    Type
                         _______ _______ _______ _____ _____    ______ ____

>  <TORSDO>
F 5

$$$$
=
 OpenBabel11052418333D

 27 30  0  0  1  0  0  0  0  0999 V2000
  189.3180  176.4950  145.1590 C   0  0  2  0  0  3  0  0  0  0  0  0
  187.8830  175.9540  145.3660 C   0  0  1  0  0  3  0  0  0  0  0  0
  184.4060  178.3280  146.1290 C   0  0  0  0  0  2  0  0  0  0  0  0
  183.6310  179.1410  144.0250 O   0  0  0  0  0  0  0  0  0  0  0  0
  187.4250  176.0870  146.7520 N   0  0  0  0  0  2  0  0  0  0  0  0
  185.9880  179.0400  144.1050 C   0  0  0  0  0  3  0  0  0  0  0  0
  187.0200  178.1870  144.1960 C   0  0  0  0  0  3  0  0  0  0  0  0
  184.6380  178.8040  144.7000 C   0  0  0  0  0  0  0  0  0  0  0  0
  185.0660  176.9980  146.5310 C   0  0  0  0  0  2  0  0  0  0  0  0
  186.7900  176.8780  144.8590 C   0  0  2  0  0  3  0  0  0  0  0  0
  186.5450  177.1590  146.3040 C   0  0  2  0  0  3  0  0  0  0  0  0
  189.9050  174.1610  144.1200 C   0  0  1  0  0  3  0  0  0  0  0  0
  191.0320  175.3630  141.9350 O   0  0  0  0  0  0  0  0  0  0  0  0
  189.7430  173.5460  145.3610 O   0  0  0  0  0  1  0  0  0  0  0  0
  189.4770  177.0900  142.3540 C   0  0  0  0  0  1  0  0  0  0  0  0
  190.2710  175.6470  144.2870 C   0  0  1  0  0  3  0  0  0  0  0  0
  191.8470  174.3700  142.5090 C   0  0  0  0  0  2  0  0  0  0  0  0
  191.7040  177.2010  143.1390 O   0  0  0  0  0  1  0  0  0  0  0  0
  190.6510  176.3070  142.9260 C   0  0  1  0  0  0  0  0  0  0  0  0
  190.9890  173.4140  143.3380 C   0  0  0  0  0  2  0  0  0  0  0  0
  189.9520  177.0940  146.3400 N   0  0  0  0  0  2  0  0  0  0  0  0
  191.5100  175.5650  147.5280 C   0  0  2  0  0  3  0  0  0  0  0  0
  190.2940  175.2410  148.1450 O   0  0  0  0  0  1  0  0  0  0  0  0
  191.9580  176.9980  147.8260 C   0  0  1  0  0  3  0  0  0  0  0  0
  191.3440  176.6550  146.4640 C   0  0  2  0  0  3  0  0  0  0  0  0
  191.0290  177.7630  148.7700 C   0  0  0  0  0  2  0  0  0  0  0  0
  191.6910  177.9110  150.1250 C   0  0  0  0  0  1  0  0  0  0  0  0
  1 21  1  1  0  0  0
  2  1  1  1  0  0  0
  2  5  1  0  0  0  0
  3  9  1  0  0  0  0
  4  8  2  0  0  0  0
  6  7  2  0  0  0  0
  6  8  1  0  0  0  0
  8  3  1  0  0  0  0
 10  7  1  6  0  0  0
 10  2  1  0  0  0  0
 10 11  1  0  0  0  0
 11  9  1  6  0  0  0
 11  5  1  0  0  0  0
 12 16  1  0  0  0  0
 12 14  1  1  0  0  0
 13 17  1  0  0  0  0
 13 19  1  0  0  0  0
 16  1  1  6  0  0  0
 17 20  1  0  0  0  0
 19 15  1  6  0  0  0
 19 18  1  0  0  0  0
 19 16  1  0  0  0  0
 20 12  1  0  0  0  0
 22 24  1  0  0  0  0
 22 23  1  1  0  0  0
 24 26  1  1  0  0  0
 25 21  1  1  0  0  0
 25 22  1  0  0  0  0
 25 24  1  0  0  0  0
 26 27  1  0  0  0  0
M  END
>  <MODEL>
5

>  <REMARK>
 VINA RESULT:      -6.5      2.124      4.623
  Name = 
  5 active torsions:
  status: ('A' for Active; 'I' for Inactive)
    1  A    between atoms: C_1  and  C_2
    2  A    between atoms: C_1  and  N_15
    3  A    between atoms: C_1  and  C_18
    4  A    between atoms: C_7  and  C_25
    5  A    between atoms: N_15  and  C_27
                            x       y       z     vdW  Elec       q    Type
                         _______ _______ _______ _____ _____    ______ ____

>  <TORSDO>
F 5

$$$$
=
 OpenBabel11052418333D

 27 30  0  0  1  0  0  0  0  0999 V2000
  189.2870  176.1830  143.8180 C   0  0  2  0  0  3  0  0  0  0  0  0
  188.6650  177.5820  143.5860 C   0  0  1  0  0  3  0  0  0  0  0  0
  184.4880  178.5060  143.6870 C   0  0  0  0  0  2  0  0  0  0  0  0
  183.8840  178.7870  145.9770 O   0  0  0  0  0  0  0  0  0  0  0  0
  187.9440  177.6730  142.3120 N   0  0  0  0  0  2  0  0  0  0  0  0
  185.5080  177.0950  145.7070 C   0  0  0  0  0  3  0  0  0  0  0  0
  186.7790  176.8820  145.3330 C   0  0  0  0  0  3  0  0  0  0  0  0
  184.6370  178.1840  145.1690 C   0  0  0  0  0  0  0  0  0  0  0  0
  185.7780  178.8480  142.9210 C   0  0  0  0  0  2  0  0  0  0  0  0
  187.3990  177.8410  144.3820 C   0  0  2  0  0  3  0  0  0  0  0  0
  186.7020  177.6700  143.0740 C   0  0  2  0  0  3  0  0  0  0  0  0
  190.6790  174.7890  145.5460 C   0  0  1  0  0  3  0  0  0  0  0  0
  192.9910  176.0100  144.7410 O   0  0  0  0  0  0  0  0  0  0  0  0
  189.5200  174.4760  146.2560 O   0  0  0  0  0  1  0  0  0  0  0  0
  191.9110  176.1950  142.6500 C   0  0  0  0  0  1  0  0  0  0  0  0
  190.5060  176.1030  144.7640 C   0  0  1  0  0  3  0  0  0  0  0  0
  192.8240  175.9960  146.1390 C   0  0  0  0  0  2  0  0  0  0  0  0
  191.9170  177.9700  144.2120 O   0  0  0  0  0  1  0  0  0  0  0  0
  191.8460  176.5780  144.1230 C   0  0  1  0  0  0  0  0  0  0  0  0
  191.8480  174.8860  146.5300 C   0  0  0  0  0  2  0  0  0  0  0  0
  189.3840  175.3220  142.6330 N   0  0  0  0  0  2  0  0  0  0  0  0
  189.0840  172.8550  142.5940 C   0  0  2  0  0  3  0  0  0  0  0  0
  190.4730  172.9580  142.4460 O   0  0  0  0  0  1  0  0  0  0  0  0
  188.3200  173.4290  141.3980 C   0  0  1  0  0  3  0  0  0  0  0  0
  188.4120  174.2280  142.7030 C   0  0  2  0  0  3  0  0  0  0  0  0
  189.2160  173.9440  140.2700 C   0  0  0  0  0  2  0  0  0  0  0  0
  188.4310  173.9820  138.9740 C   0  0  0  0  0  1  0  0  0  0  0  0
  1 21  1  6  0  0  0
  2  1  1  1  0  0  0
  2 10  1  0  0  0  0
  3  8  1  0  0  0  0
  5 11  1  0  0  0  0
  5  2  1  0  0  0  0
  7  6  2  0  0  0  0
  8  6  1  0  0  0  0
  8  4  2  0  0  0  0
  9  3  1  0  0  0  0
 10  7  1  1  0  0  0
 11  9  1  6  0  0  0
 11 10  1  0  0  0  0
 12 14  1  1  0  0  0
 12 20  1  0  0  0  0
 13 17  1  0  0  0  0
 16  1  1  6  0  0  0
 16 12  1  0  0  0  0
 17 20  1  0  0  0  0
 19 15  1  6  0  0  0
 19 18  1  0  0  0  0
 19 13  1  0  0  0  0
 19 16  1  0  0  0  0
 22 23  1  6  0  0  0
 22 25  1  0  0  0  0
 24 26  1  6  0  0  0
 24 22  1  0  0  0  0
 24 25  1  0  0  0  0
 25 21  1  6  0  0  0
 27 26  1  0  0  0  0
M  END
>  <MODEL>
6

>  <REMARK>
 VINA RESULT:      -6.4      1.202      2.390
  Name = 
  5 active torsions:
  status: ('A' for Active; 'I' for Inactive)
    1  A    between atoms: C_1  and  C_2
    2  A    between atoms: C_1  and  N_15
    3  A    between atoms: C_1  and  C_18
    4  A    between atoms: C_7  and  C_25
    5  A    between atoms: N_15  and  C_27
                            x       y       z     vdW  Elec       q    Type
                         _______ _______ _______ _____ _____    ______ ____

>  <TORSDO>
F 5

$$$$
=
 OpenBabel11052418333D

 27 30  0  0  1  0  0  0  0  0999 V2000
  188.3250  177.0630  144.5860 C   0  0  2  0  0  3  0  0  0  0  0  0
  188.9740  177.0020  145.9900 C   0  0  1  0  0  3  0  0  0  0  0  0
  192.7640  175.2440  146.9160 C   0  0  0  0  0  2  0  0  0  0  0  0
  194.4380  176.8550  146.3810 O   0  0  0  0  0  0  0  0  0  0  0  0
  188.9920  175.6440  146.5440 N   0  0  0  0  0  2  0  0  0  0  0  0
  192.6360  176.9340  144.8580 C   0  0  0  0  0  3  0  0  0  0  0  0
  191.3280  177.2160  144.7610 C   0  0  0  0  0  3  0  0  0  0  0  0
  193.3020  176.4040  146.0860 C   0  0  0  0  0  0  0  0  0  0  0  0
  191.3400  175.3970  147.4770 C   0  0  0  0  0  2  0  0  0  0  0  0
  190.4900  177.0750  145.9800 C   0  0  2  0  0  3  0  0  0  0  0  0
  190.4280  175.6190  146.3000 C   0  0  2  0  0  3  0  0  0  0  0  0
  186.5780  178.1640  142.9740 C   0  0  1  0  0  3  0  0  0  0  0  0
  184.7450  178.3360  144.9980 O   0  0  0  0  0  0  0  0  0  0  0  0
  187.5870  178.4820  142.0650 O   0  0  0  0  0  1  0  0  0  0  0  0
  185.8280  176.4190  145.8490 C   0  0  0  0  0  1  0  0  0  0  0  0
  187.1410  178.0390  144.4000 C   0  0  1  0  0  3  0  0  0  0  0  0
  184.9030  179.5390  144.2830 C   0  0  0  0  0  2  0  0  0  0  0  0
  186.3640  178.5920  146.6070 O   0  0  0  0  0  1  0  0  0  0  0  0
  186.0080  177.8790  145.4600 C   0  0  1  0  0  0  0  0  0  0  0  0
  185.4950  179.2450  142.9050 C   0  0  0  0  0  2  0  0  0  0  0  0
  188.1610  175.7760  143.9010 N   0  0  0  0  0  2  0  0  0  0  0  0
  188.6220  174.6280  141.7460 C   0  0  2  0  0  3  0  0  0  0  0  0
  187.4140  174.0220  142.1190 O   0  0  0  0  0  1  0  0  0  0  0  0
  189.7700  174.2890  142.6990 C   0  0  1  0  0  3  0  0  0  0  0  0
  189.0910  175.6620  142.7750 C   0  0  2  0  0  3  0  0  0  0  0  0
  189.3880  173.3260  143.8250 C   0  0  0  0  0  2  0  0  0  0  0  0
  190.6210  172.5830  144.2980 C   0  0  0  0  0  1  0  0  0  0  0  0
  1 21  1  1  0  0  0
  2  1  1  6  0  0  0
  2  5  1  0  0  0  0
  3  9  1  0  0  0  0
  6  8  1  0  0  0  0
  7  6  2  0  0  0  0
  8  4  2  0  0  0  0
  8  3  1  0  0  0  0
 10  7  1  6  0  0  0
 10  2  1  0  0  0  0
 10 11  1  0  0  0  0
 11  5  1  0  0  0  0
 11  9  1  1  0  0  0
 12 14  1  6  0  0  0
 12 16  1  0  0  0  0
 13 19  1  0  0  0  0
 16  1  1  6  0  0  0
 16 19  1  0  0  0  0
 17 13  1  0  0  0  0
 19 15  1  1  0  0  0
 19 18  1  0  0  0  0
 20 12  1  0  0  0  0
 20 17  1  0  0  0  0
 22 23  1  1  0  0  0
 22 24  1  0  0  0  0
 22 25  1  0  0  0  0
 24 25  1  0  0  0  0
 24 26  1  1  0  0  0
 25 21  1  1  0  0  0
 26 27  1  0  0  0  0
M  END
>  <MODEL>
7

>  <REMARK>
 VINA RESULT:      -6.4      1.734      5.677
  Name = 
  5 active torsions:
  status: ('A' for Active; 'I' for Inactive)
    1  A    between atoms: C_1  and  C_2
    2  A    between atoms: C_1  and  N_15
    3  A    between atoms: C_1  and  C_18
    4  A    between atoms: C_7  and  C_25
    5  A    between atoms: N_15  and  C_27
                            x       y       z     vdW  Elec       q    Type
                         _______ _______ _______ _____ _____    ______ ____

>  <TORSDO>
F 5

$$$$
=
 OpenBabel11052418333D

 27 30  0  0  1  0  0  0  0  0999 V2000
  191.8780  175.0640  144.3620 C   0  0  2  0  0  3  0  0  0  0  0  0
  190.9720  174.5000  143.2410 C   0  0  1  0  0  3  0  0  0  0  0  0
  187.1030  175.9850  142.1750 C   0  0  0  0  0  2  0  0  0  0  0  0
  187.4380  177.8650  140.7450 O   0  0  0  0  0  0  0  0  0  0  0  0
  189.7920  173.8050  143.7680 N   0  0  0  0  0  2  0  0  0  0  0  0
  189.0930  177.7410  142.4240 C   0  0  0  0  0  3  0  0  0  0  0  0
  190.1190  176.9960  142.8630 C   0  0  0  0  0  3  0  0  0  0  0  0
  187.8960  177.2010  141.7120 C   0  0  0  0  0  0  0  0  0  0  0  0
  187.8840  174.6700  142.3350 C   0  0  0  0  0  2  0  0  0  0  0  0
  190.1130  175.5440  142.5490 C   0  0  2  0  0  3  0  0  0  0  0  0
  188.9900  174.9360  143.3210 C   0  0  2  0  0  3  0  0  0  0  0  0
  193.6190  173.1490  143.9490 C   0  0  1  0  0  3  0  0  0  0  0  0
  195.5200  174.9700  143.2040 O   0  0  0  0  0  0  0  0  0  0  0  0
  192.8530  172.2630  144.7060 O   0  0  0  0  0  1  0  0  0  0  0  0
  193.6840  176.2650  142.4790 C   0  0  0  0  0  1  0  0  0  0  0  0
  193.3540  174.6040  144.3710 C   0  0  1  0  0  3  0  0  0  0  0  0
  195.9810  174.0370  144.1510 C   0  0  0  0  0  2  0  0  0  0  0  0
  194.6830  176.5960  144.5950 O   0  0  0  0  0  1  0  0  0  0  0  0
  194.3380  175.5980  143.6800 C   0  0  1  0  0  0  0  0  0  0  0  0
  195.0980  172.7900  144.1170 C   0  0  0  0  0  2  0  0  0  0  0  0
  191.2670  175.1600  145.6920 N   0  0  0  0  0  2  0  0  0  0  0  0
  191.1830  176.6130  147.7060 C   0  0  2  0  0  3  0  0  0  0  0  0
  191.0800  175.3430  148.2890 O   0  0  0  0  0  1  0  0  0  0  0  0
  189.9710  176.9630  146.8380 C   0  0  1  0  0  3  0  0  0  0  0  0
  191.2900  176.5410  146.1800 C   0  0  2  0  0  3  0  0  0  0  0  0
  188.8790  175.8920  146.8230 C   0  0  0  0  0  2  0  0  0  0  0  0
  187.5730  176.5050  146.3620 C   0  0  0  0  0  1  0  0  0  0  0  0
  1 21  1  1  0  0  0
  2  5  1  0  0  0  0
  2  1  1  1  0  0  0
  3  9  1  0  0  0  0
  4  8  2  0  0  0  0
  6  7  2  0  0  0  0
  8  3  1  0  0  0  0
  8  6  1  0  0  0  0
 10  7  1  1  0  0  0
 10  2  1  0  0  0  0
 10 11  1  0  0  0  0
 11  9  1  6  0  0  0
 11  5  1  0  0  0  0
 12 20  1  0  0  0  0
 12 16  1  0  0  0  0
 12 14  1  1  0  0  0
 13 19  1  0  0  0  0
 13 17  1  0  0  0  0
 16  1  1  6  0  0  0
 19 15  1  6  0  0  0
 19 16  1  0  0  0  0
 19 18  1  0  0  0  0
 20 17  1  0  0  0  0
 22 23  1  1  0  0  0
 24 26  1  1  0  0  0
 24 22  1  0  0  0  0
 25 21  1  1  0  0  0
 25 24  1  0  0  0  0
 25 22  1  0  0  0  0
 27 26  1  0  0  0  0
M  END
>  <MODEL>
8

>  <REMARK>
 VINA RESULT:      -6.4      2.796      5.056
  Name = 
  5 active torsions:
  status: ('A' for Active; 'I' for Inactive)
    1  A    between atoms: C_1  and  C_2
    2  A    between atoms: C_1  and  N_15
    3  A    between atoms: C_1  and  C_18
    4  A    between atoms: C_7  and  C_25
    5  A    between atoms: N_15  and  C_27
                            x       y       z     vdW  Elec       q    Type
                         _______ _______ _______ _____ _____    ______ ____

>  <TORSDO>
F 5

$$$$
=
 OpenBabel11052418333D

 27 30  0  0  1  0  0  0  0  0999 V2000
  190.5140  175.3670  144.7820 C   0  0  2  0  0  3  0  0  0  0  0  0
  191.6730  175.8240  145.7010 C   0  0  1  0  0  3  0  0  0  0  0  0
  195.8390  175.1680  144.9780 C   0  0  0  0  0  2  0  0  0  0  0  0
  196.5690  176.8670  143.4700 O   0  0  0  0  0  0  0  0  0  0  0  0
  192.3270  174.7020  146.3820 N   0  0  0  0  0  2  0  0  0  0  0  0
  194.3660  176.1660  142.9930 C   0  0  0  0  0  3  0  0  0  0  0  0
  193.1180  176.1490  143.4850 C   0  0  0  0  0  3  0  0  0  0  0  0
  195.6070  176.1370  143.8240 C   0  0  0  0  0  0  0  0  0  0  0  0
  194.8040  175.1880  146.1160 C   0  0  0  0  0  2  0  0  0  0  0  0
  192.9480  176.1870  144.9610 C   0  0  2  0  0  3  0  0  0  0  0  0
  193.4660  174.8930  145.4930 C   0  0  2  0  0  3  0  0  0  0  0  0
  188.7830  176.0930  146.6110 C   0  0  1  0  0  3  0  0  0  0  0  0
  187.6650  177.9110  144.9000 O   0  0  0  0  0  0  0  0  0  0  0  0
  189.0280  174.9260  147.3340 O   0  0  0  0  0  1  0  0  0  0  0  0
  189.8270  178.0310  143.9580 C   0  0  0  0  0  1  0  0  0  0  0  0
  189.1000  175.8910  145.1190 C   0  0  1  0  0  3  0  0  0  0  0  0
  186.7180  177.0850  145.5340 C   0  0  0  0  0  2  0  0  0  0  0  0
  188.1440  176.6440  143.0440 O   0  0  0  0  0  1  0  0  0  0  0  0
  188.6500  177.1130  144.2590 C   0  0  1  0  0  0  0  0  0  0  0  0
  187.3200  176.4980  146.8110 C   0  0  0  0  0  2  0  0  0  0  0  0
  190.5520  173.9630  144.3560 N   0  0  0  0  0  2  0  0  0  0  0  0
  189.9040  172.4300  142.5090 C   0  0  2  0  0  3  0  0  0  0  0  0
  189.8500  171.5630  143.6090 O   0  0  0  0  0  1  0  0  0  0  0  0
  191.3240  172.9230  142.2180 C   0  0  1  0  0  3  0  0  0  0  0  0
  190.3180  173.8490  142.9140 C   0  0  2  0  0  3  0  0  0  0  0  0
  192.3940  172.3360  143.1410 C   0  0  0  0  0  2  0  0  0  0  0  0
  193.7660  172.5770  142.5450 C   0  0  0  0  0  1  0  0  0  0  0  0
  1 21  1  1  0  0  0
  2  1  1  6  0  0  0
  2  5  1  0  0  0  0
  3  9  1  0  0  0  0
  4  8  2  0  0  0  0
  6  7  2  0  0  0  0
  6  8  1  0  0  0  0
  8  3  1  0  0  0  0
 10  7  1  6  0  0  0
 10 11  1  0  0  0  0
 10  2  1  0  0  0  0
 11  9  1  1  0  0  0
 11  5  1  0  0  0  0
 12 20  1  0  0  0  0
 12 14  1  1  0  0  0
 13 17  1  0  0  0  0
 16  1  1  1  0  0  0
 16 12  1  0  0  0  0
 17 20  1  0  0  0  0
 18 19  1  0  0  0  0
 19 15  1  6  0  0  0
 19 13  1  0  0  0  0
 19 16  1  0  0  0  0
 22 25  1  0  0  0  0
 22 23  1  1  0  0  0
 24 22  1  0  0  0  0
 24 25  1  0  0  0  0
 24 26  1  1  0  0  0
 25 21  1  1  0  0  0
 27 26  1  0  0  0  0
M  END
>  <MODEL>
9

>  <REMARK>
 VINA RESULT:      -6.3      2.499      6.417
  Name = 
  5 active torsions:
  status: ('A' for Active; 'I' for Inactive)
    1  A    between atoms: C_1  and  C_2
    2  A    between atoms: C_1  and  N_15
    3  A    between atoms: C_1  and  C_18
    4  A    between atoms: C_7  and  C_25
    5  A    between atoms: N_15  and  C_27
                            x       y       z     vdW  Elec       q    Type
                         _______ _______ _______ _____ _____    ______ ____

>  <TORSDO>
F 5

$$$$
