=
 OpenBabel11052417433D

 31 33  0  0  1  0  0  0  0  0999 V2000
  188.2750  176.7460  144.7000 N   0  0  0  0  0  0  0  0  0  0  0  0
  187.1960  177.7080  144.6350 C   0  0  2  0  0  3  0  0  0  0  0  0
  185.8380  179.3850  143.4950 C   0  0  0  0  0  3  0  0  0  0  0  0
  186.9000  178.3690  143.5140 C   0  0  0  0  0  3  0  0  0  0  0  0
  186.8160  177.4320  147.0080 C   0  0  0  0  0  3  0  0  0  0  0  0
  185.1200  179.6360  144.5510 N   0  0  0  0  0  0  0  0  0  0  0  0
  188.6000  176.1780  145.9880 C   0  0  0  0  0  0  0  0  0  0  0  0
  184.0360  178.1810  146.0920 N   0  0  0  0  0  1  0  0  0  0  0  0
  187.9240  176.5210  147.0480 N   0  0  0  0  0  0  0  0  0  0  0  0
  186.4420  178.0100  145.8660 C   0  0  0  0  0  0  0  0  0  0  0  0
  185.2520  178.9330  145.8330 C   0  0  0  0  0  0  0  0  0  0  0  0
  189.7580  175.2350  146.1290 C   0  0  2  0  0  3  0  0  0  0  0  0
  189.4090  173.9580  145.6860 O   0  0  0  0  0  1  0  0  0  0  0  0
  190.2180  175.1810  147.5770 C   0  0  0  0  0  2  0  0  0  0  0  0
  191.5220  176.9580  148.0360 O   0  0  0  0  0  1  0  0  0  0  0  0
  191.5890  175.6520  147.6800 N   0  0  0  0  0  0  0  0  0  0  0  0
  192.1310  175.6110  146.3860 N   0  0  0  0  0  2  0  0  0  0  0  0
  194.3910  172.7900  145.4260 C   0  0  0  0  0  0  0  0  0  0  0  0
  195.7190  174.7730  145.8360 C   0  0  0  0  0  3  0  0  0  0  0  0
  194.3030  171.3550  145.0480 C   0  0  0  0  0  1  0  0  0  0  0  0
  193.2290  173.5050  145.7250 C   0  0  0  0  0  3  0  0  0  0  0  0
  194.5560  175.4880  146.1360 C   0  0  0  0  0  3  0  0  0  0  0  0
  193.3080  174.8590  146.0820 C   0  0  0  0  0  0  0  0  0  0  0  0
  195.6360  173.4230  145.4810 C   0  0  0  0  0  3  0  0  0  0  0  0
  189.0360  176.3020  143.5240 C   0  0  1  0  0  3  0  0  0  0  0  0
  188.9780  174.0300  142.4630 C   0  0  0  0  0  1  0  0  0  0  0  0
  187.8570  175.9100  141.2880 C   0  0  0  0  0  1  0  0  0  0  0  0
  188.2310  175.3360  142.6450 C   0  0  0  0  0  3  0  0  0  0  0  0
  189.7310  177.4600  142.8060 C   0  0  0  0  0  2  0  0  0  0  0  0
  192.2050  176.6320  142.9010 C   0  0  0  0  0  1  0  0  0  0  0  0
  191.2400  177.9480  143.6910 S   0  0  0  0  0  0  0  0  0  0  0  0
  1  7  1  0  0  0  0
  2  4  1  1  0  0  0
  2  1  1  0  0  0  0
  2 10  1  0  0  0  0
  3  4  2  0  0  0  0
  3  6  1  0  0  0  0
  5  9  1  0  0  0  0
  6 11  2  0  0  0  0
  7 12  1  0  0  0  0
  7  9  2  0  0  0  0
 10  5  2  0  0  0  0
 11 10  1  0  0  0  0
 11  8  1  0  0  0  0
 12 13  1  1  0  0  0
 12 14  1  0  0  0  0
 14 16  1  0  0  0  0
 16 15  1  0  0  0  0
 17 16  1  0  0  0  0
 18 24  2  0  0  0  0
 18 21  1  0  0  0  0
 19 22  2  0  0  0  0
 20 18  1  0  0  0  0
 21 23  2  0  0  0  0
 23 22  1  0  0  0  0
 23 17  1  0  0  0  0
 24 19  1  0  0  0  0
 25 29  1  6  0  0  0
 25  1  1  0  0  0  0
 26 28  1  0  0  0  0
 27 28  1  0  0  0  0
 28 25  1  0  0  0  0
 29 31  1  0  0  0  0
 30 31  1  0  0  0  0
M  END
>  <MODEL>
1

>  <REMARK>
 VINA RESULT:      -7.1      0.000      0.000
  Name = 
  9 active torsions:
  status: ('A' for Active; 'I' for Inactive)
    1  A    between atoms: N_3  and  N_9
    2  A    between atoms: N_3  and  C_22
    3  A    between atoms: N_4  and  C_12
    4  A    between atoms: N_9  and  C_23
    5  A    between atoms: C_12  and  C_25
    6  A    between atoms: C_12  and  C_27
    7  A    between atoms: C_15  and  C_21
    8  A    between atoms: C_15  and  C_23
    9  A    between atoms: C_27  and  S_28
                            x       y       z     vdW  Elec       q    Type
                         _______ _______ _______ _____ _____    ______ ____

>  <TORSDO>
F 9

$$$$
=
 OpenBabel11052417433D

 31 33  0  0  1  0  0  0  0  0999 V2000
  188.6800  176.1330  143.8210 N   0  0  0  0  0  0  0  0  0  0  0  0
  187.8170  176.8100  142.8770 C   0  0  0  0  0  0  0  0  0  0  0  0
  187.1300  177.4490  140.6230 C   0  0  0  0  0  3  0  0  0  0  0  0
  187.9840  176.7000  141.5570 C   0  0  0  0  0  3  0  0  0  0  0  0
  186.6730  177.8950  144.7110 C   0  0  0  0  0  3  0  0  0  0  0  0
  186.1560  178.2000  141.0490 N   0  0  0  0  0  0  0  0  0  0  0  0
  188.5010  176.4150  145.2250 C   0  0  0  0  0  0  0  0  0  0  0  0
  184.4530  177.7950  142.6630 N   0  0  0  0  0  1  0  0  0  0  0  0
  187.5770  177.2470  145.6170 N   0  0  0  0  0  0  0  0  0  0  0  0
  186.7610  177.6990  143.3940 C   0  0  0  0  0  0  0  0  0  0  0  0
  185.7790  178.3550  142.4590 C   0  0  1  0  0  3  0  0  0  0  0  0
  189.4160  175.8020  146.2440 C   0  0  2  0  0  3  0  0  0  0  0  0
  188.6810  175.1660  147.2460 O   0  0  0  0  0  1  0  0  0  0  0  0
  190.3180  176.8660  146.8480 C   0  0  0  0  0  2  0  0  0  0  0  0
  191.4230  176.8630  148.8090 O   0  0  0  0  0  1  0  0  0  0  0  0
  191.3860  176.2380  147.6080 N   0  0  0  0  0  0  0  0  0  0  0  0
  192.5870  176.5460  146.9510 N   0  0  0  0  0  2  0  0  0  0  0  0
  193.6960  173.3640  145.3300 C   0  0  0  0  0  0  0  0  0  0  0  0
  195.6250  174.7720  145.7250 C   0  0  0  0  0  3  0  0  0  0  0  0
  193.1100  172.0970  144.8190 C   0  0  0  0  0  1  0  0  0  0  0  0
  192.8680  174.3380  145.8940 C   0  0  0  0  0  3  0  0  0  0  0  0
  194.7960  175.7470  146.2890 C   0  0  0  0  0  3  0  0  0  0  0  0
  193.4170  175.5340  146.3770 C   0  0  0  0  0  0  0  0  0  0  0  0
  195.0740  173.5800  145.2450 C   0  0  0  0  0  3  0  0  0  0  0  0
  189.7070  175.1590  143.4250 C   0  0  1  0  0  3  0  0  0  0  0  0
  189.5760  172.7280  144.0310 C   0  0  0  0  0  1  0  0  0  0  0  0
  189.3830  173.3590  141.6360 C   0  0  0  0  0  1  0  0  0  0  0  0
  189.1010  173.7950  143.0640 C   0  0  0  0  0  3  0  0  0  0  0  0
  190.7150  175.7410  142.4330 C   0  0  0  0  0  2  0  0  0  0  0  0
  193.2730  176.2040  142.6590 C   0  0  0  0  0  1  0  0  0  0  0  0
  191.7490  176.9980  143.2370 S   0  0  0  0  0  0  0  0  0  0  0  0
  1  7  1  0  0  0  0
  2 10  1  0  0  0  0
  2  1  1  0  0  0  0
  3  6  2  0  0  0  0
  3  4  1  0  0  0  0
  4  2  2  0  0  0  0
  5  9  1  0  0  0  0
  6 11  1  0  0  0  0
  7  9  2  0  0  0  0
  7 12  1  0  0  0  0
 10  5  2  0  0  0  0
 11  8  1  6  0  0  0
 11 10  1  0  0  0  0
 12 14  1  0  0  0  0
 12 13  1  1  0  0  0
 14 16  1  0  0  0  0
 16 15  1  0  0  0  0
 17 16  1  0  0  0  0
 18 21  1  0  0  0  0
 19 22  2  0  0  0  0
 20 18  1  0  0  0  0
 21 23  2  0  0  0  0
 22 23  1  0  0  0  0
 23 17  1  0  0  0  0
 24 18  2  0  0  0  0
 24 19  1  0  0  0  0
 25 29  1  6  0  0  0
 25  1  1  0  0  0  0
 27 28  1  0  0  0  0
 28 25  1  0  0  0  0
 28 26  1  0  0  0  0
 29 31  1  0  0  0  0
 30 31  1  0  0  0  0
M  END
>  <MODEL>
2

>  <REMARK>
 VINA RESULT:      -6.9      1.446      1.988
  Name = 
  9 active torsions:
  status: ('A' for Active; 'I' for Inactive)
    1  A    between atoms: N_3  and  N_9
    2  A    between atoms: N_3  and  C_22
    3  A    between atoms: N_4  and  C_12
    4  A    between atoms: N_9  and  C_23
    5  A    between atoms: C_12  and  C_25
    6  A    between atoms: C_12  and  C_27
    7  A    between atoms: C_15  and  C_21
    8  A    between atoms: C_15  and  C_23
    9  A    between atoms: C_27  and  S_28
                            x       y       z     vdW  Elec       q    Type
                         _______ _______ _______ _____ _____    ______ ____

>  <TORSDO>
F 9

$$$$
=
 OpenBabel11052417433D

 31 33  0  0  1  0  0  0  0  0999 V2000
  191.5120  174.7940  143.9520 N   0  0  0  0  0  0  0  0  0  0  0  0
  191.1790  173.9640  142.8140 C   0  0  0  0  0  0  0  0  0  0  0  0
  191.2230  173.4040  140.4380 C   0  0  0  0  0  3  0  0  0  0  0  0
  191.6270  174.2310  141.5850 C   0  0  0  0  0  3  0  0  0  0  0  0
  189.7310  172.6310  144.2190 C   0  0  0  0  0  3  0  0  0  0  0  0
  190.4600  172.3610  140.5900 N   0  0  0  0  0  0  0  0  0  0  0  0
  190.8770  174.4990  145.2140 C   0  0  0  0  0  0  0  0  0  0  0  0
  190.5430  170.5720  142.1610 N   0  0  0  0  0  1  0  0  0  0  0  0
  190.0420  173.5030  145.3140 N   0  0  0  0  0  0  0  0  0  0  0  0
  190.2660  172.8240  143.0120 C   0  0  0  0  0  0  0  0  0  0  0  0
  189.9610  171.8750  141.8830 C   0  0  1  0  0  3  0  0  0  0  0  0
  191.1240  175.3720  146.4090 C   0  0  2  0  0  3  0  0  0  0  0  0
  192.1060  174.8160  147.2300 O   0  0  0  0  0  1  0  0  0  0  0  0
  189.8360  175.5690  147.1910 C   0  0  0  0  0  2  0  0  0  0  0  0
  189.4160  177.7790  147.2840 O   0  0  0  0  0  1  0  0  0  0  0  0
  189.0640  176.6560  146.6120 N   0  0  0  0  0  0  0  0  0  0  0  0
  187.7170  176.4050  146.9150 N   0  0  0  0  0  2  0  0  0  0  0  0
  185.6880  178.6890  144.7580 C   0  0  0  0  0  0  0  0  0  0  0  0
  184.5120  178.3030  146.8380 C   0  0  0  0  0  3  0  0  0  0  0  0
  185.7590  179.3320  143.4200 C   0  0  0  0  0  1  0  0  0  0  0  0
  186.7290  177.8650  145.1920 C   0  0  0  0  0  3  0  0  0  0  0  0
  185.5540  177.4780  147.2730 C   0  0  0  0  0  3  0  0  0  0  0  0
  186.6660  177.2560  146.4540 C   0  0  0  0  0  0  0  0  0  0  0  0
  184.5790  178.9080  145.5800 C   0  0  0  0  0  3  0  0  0  0  0  0
  192.4770  175.9010  143.8920 C   0  0  1  0  0  3  0  0  0  0  0  0
  194.6870  175.7050  145.0620 C   0  0  0  0  0  1  0  0  0  0  0  0
  194.6780  175.9550  142.5900 C   0  0  0  0  0  1  0  0  0  0  0  0
  193.9240  175.4010  143.7880 C   0  0  0  0  0  3  0  0  0  0  0  0
  192.0580  176.9900  142.9030 C   0  0  0  0  0  2  0  0  0  0  0  0
  189.5270  177.5860  142.6810 C   0  0  0  0  0  1  0  0  0  0  0  0
  190.9180  178.1640  143.6900 S   0  0  0  0  0  0  0  0  0  0  0  0
  1  7  1  0  0  0  0
  2 10  1  0  0  0  0
  2  1  1  0  0  0  0
  3  6  2  0  0  0  0
  3  4  1  0  0  0  0
  4  2  2  0  0  0  0
  5  9  1  0  0  0  0
  6 11  1  0  0  0  0
  7  9  2  0  0  0  0
  7 12  1  0  0  0  0
 10  5  2  0  0  0  0
 11  8  1  1  0  0  0
 11 10  1  0  0  0  0
 12 14  1  0  0  0  0
 12 13  1  1  0  0  0
 16 17  1  0  0  0  0
 16 14  1  0  0  0  0
 16 15  1  0  0  0  0
 18 21  2  0  0  0  0
 18 24  1  0  0  0  0
 19 22  1  0  0  0  0
 20 18  1  0  0  0  0
 21 23  1  0  0  0  0
 23 17  1  0  0  0  0
 23 22  2  0  0  0  0
 24 19  2  0  0  0  0
 25 29  1  6  0  0  0
 25  1  1  0  0  0  0
 27 28  1  0  0  0  0
 28 25  1  0  0  0  0
 28 26  1  0  0  0  0
 29 31  1  0  0  0  0
 30 31  1  0  0  0  0
M  END
>  <MODEL>
3

>  <REMARK>
 VINA RESULT:      -6.8      2.412      6.995
  Name = 
  9 active torsions:
  status: ('A' for Active; 'I' for Inactive)
    1  A    between atoms: N_3  and  N_9
    2  A    between atoms: N_3  and  C_22
    3  A    between atoms: N_4  and  C_12
    4  A    between atoms: N_9  and  C_23
    5  A    between atoms: C_12  and  C_25
    6  A    between atoms: C_12  and  C_27
    7  A    between atoms: C_15  and  C_21
    8  A    between atoms: C_15  and  C_23
    9  A    between atoms: C_27  and  S_28
                            x       y       z     vdW  Elec       q    Type
                         _______ _______ _______ _____ _____    ______ ____

>  <TORSDO>
F 9

$$$$
=
 OpenBabel11052417433D

 31 33  0  0  1  0  0  0  0  0999 V2000
  190.8480  174.8380  143.8450 N   0  0  0  0  0  0  0  0  0  0  0  0
  190.6270  173.8840  142.7800 C   0  0  0  0  0  0  0  0  0  0  0  0
  190.5860  173.2060  140.4360 C   0  0  0  0  0  3  0  0  0  0  0  0
  190.8780  174.1750  141.5020 C   0  0  0  0  0  3  0  0  0  0  0  0
  189.6920  172.3280  144.3780 C   0  0  0  0  0  3  0  0  0  0  0  0
  190.1230  172.0200  140.7060 N   0  0  0  0  0  0  0  0  0  0  0  0
  190.4260  174.4760  145.1780 C   0  0  0  0  0  0  0  0  0  0  0  0
  190.7920  170.4060  142.3230 N   0  0  0  0  0  1  0  0  0  0  0  0
  189.8780  173.3150  145.4020 N   0  0  0  0  0  0  0  0  0  0  0  0
  190.0470  172.5710  143.1160 C   0  0  0  0  0  0  0  0  0  0  0  0
  189.8830  171.5090  142.0600 C   0  0  1  0  0  3  0  0  0  0  0  0
  190.5600  175.4550  146.3070 C   0  0  2  0  0  3  0  0  0  0  0  0
  191.4550  174.9800  147.2670 O   0  0  0  0  0  1  0  0  0  0  0  0
  189.2030  175.7170  146.9390 C   0  0  0  0  0  2  0  0  0  0  0  0
  189.5140  177.8930  147.4240 O   0  0  0  0  0  1  0  0  0  0  0  0
  188.7710  177.0730  146.6430 N   0  0  0  0  0  0  0  0  0  0  0  0
  187.4430  177.1820  147.0870 N   0  0  0  0  0  2  0  0  0  0  0  0
  185.6490  178.7110  144.1830 C   0  0  0  0  0  0  0  0  0  0  0  0
  184.1710  178.6650  146.1010 C   0  0  0  0  0  3  0  0  0  0  0  0
  185.8980  179.0500  142.7580 C   0  0  0  0  0  1  0  0  0  0  0  0
  186.6580  178.1170  144.9460 C   0  0  0  0  0  3  0  0  0  0  0  0
  185.1810  178.0710  146.8640 C   0  0  0  0  0  3  0  0  0  0  0  0
  186.4270  177.7950  146.2910 C   0  0  0  0  0  0  0  0  0  0  0  0
  184.4060  178.9850  144.7600 C   0  0  0  0  0  3  0  0  0  0  0  0
  191.4980  176.1410  143.6430 C   0  0  1  0  0  3  0  0  0  0  0  0
  189.4790  177.3040  142.7160 C   0  0  0  0  0  1  0  0  0  0  0  0
  191.1940  178.6690  143.8850 C   0  0  0  0  0  1  0  0  0  0  0  0
  190.5180  177.3090  143.8190 C   0  0  0  0  0  3  0  0  0  0  0  0
  192.8310  176.2510  144.3850 C   0  0  0  0  0  2  0  0  0  0  0  0
  195.4030  175.8690  144.6080 C   0  0  0  0  0  1  0  0  0  0  0  0
  194.2200  176.0060  143.2420 S   0  0  0  0  0  0  0  0  0  0  0  0
  1  7  1  0  0  0  0
  2 10  1  0  0  0  0
  2  1  1  0  0  0  0
  3  6  2  0  0  0  0
  3  4  1  0  0  0  0
  4  2  2  0  0  0  0
  5  9  1  0  0  0  0
  6 11  1  0  0  0  0
  7  9  2  0  0  0  0
  7 12  1  0  0  0  0
 10  5  2  0  0  0  0
 11  8  1  1  0  0  0
 11 10  1  0  0  0  0
 12 14  1  0  0  0  0
 12 13  1  1  0  0  0
 16 14  1  0  0  0  0
 16 17  1  0  0  0  0
 16 15  1  0  0  0  0
 18 24  2  0  0  0  0
 18 21  1  0  0  0  0
 19 22  2  0  0  0  0
 20 18  1  0  0  0  0
 21 23  2  0  0  0  0
 23 22  1  0  0  0  0
 23 17  1  0  0  0  0
 24 19  1  0  0  0  0
 25 28  1  0  0  0  0
 25  1  1  0  0  0  0
 25 29  1  1  0  0  0
 26 28  1  0  0  0  0
 28 27  1  0  0  0  0
 31 29  1  0  0  0  0
 31 30  1  0  0  0  0
M  END
>  <MODEL>
4

>  <REMARK>
 VINA RESULT:      -6.7      2.470      6.927
  Name = 
  9 active torsions:
  status: ('A' for Active; 'I' for Inactive)
    1  A    between atoms: N_3  and  N_9
    2  A    between atoms: N_3  and  C_22
    3  A    between atoms: N_4  and  C_12
    4  A    between atoms: N_9  and  C_23
    5  A    between atoms: C_12  and  C_25
    6  A    between atoms: C_12  and  C_27
    7  A    between atoms: C_15  and  C_21
    8  A    between atoms: C_15  and  C_23
    9  A    between atoms: C_27  and  S_28
                            x       y       z     vdW  Elec       q    Type
                         _______ _______ _______ _____ _____    ______ ____

>  <TORSDO>
F 9

$$$$
=
 OpenBabel11052417433D

 31 33  0  0  1  0  0  0  0  0999 V2000
  191.5100  175.1170  144.4520 N   0  0  0  0  0  0  0  0  0  0  0  0
  192.9280  175.2290  144.7150 C   0  0  0  0  0  0  0  0  0  0  0  0
  194.9010  175.0420  146.1400 C   0  0  0  0  0  3  0  0  0  0  0  0
  193.4660  174.8600  145.8800 C   0  0  0  0  0  3  0  0  0  0  0  0
  193.2360  176.2970  142.5670 C   0  0  0  0  0  3  0  0  0  0  0  0
  195.7000  175.5170  145.2290 N   0  0  0  0  0  0  0  0  0  0  0  0
  191.0060  175.6600  143.2120 C   0  0  0  0  0  0  0  0  0  0  0  0
  195.9370  174.9900  142.9200 N   0  0  0  0  0  1  0  0  0  0  0  0
  191.8190  176.2170  142.3590 N   0  0  0  0  0  0  0  0  0  0  0  0
  193.7950  175.8260  143.6820 C   0  0  0  0  0  0  0  0  0  0  0  0
  195.2890  175.8800  143.8680 C   0  0  1  0  0  3  0  0  0  0  0  0
  189.5340  175.6420  142.9200 C   0  0  2  0  0  3  0  0  0  0  0  0
  189.2400  174.7010  141.9310 O   0  0  0  0  0  1  0  0  0  0  0  0
  189.0680  177.0230  142.4870 C   0  0  0  0  0  2  0  0  0  0  0  0
  187.3280  177.1100  141.0620 O   0  0  0  0  0  1  0  0  0  0  0  0
  187.6190  177.0470  142.3830 N   0  0  0  0  0  0  0  0  0  0  0  0
  187.1920  178.2580  142.9510 N   0  0  0  0  0  2  0  0  0  0  0  0
  185.7080  177.7740  146.3500 C   0  0  0  0  0  0  0  0  0  0  0  0
  184.1410  178.9900  144.9600 C   0  0  0  0  0  3  0  0  0  0  0  0
  186.0610  177.1580  147.6550 C   0  0  0  0  0  1  0  0  0  0  0  0
  186.6100  177.7180  145.2850 C   0  0  0  0  0  3  0  0  0  0  0  0
  185.0450  178.9340  143.8950 C   0  0  0  0  0  3  0  0  0  0  0  0
  186.2810  178.2980  144.0510 C   0  0  0  0  0  0  0  0  0  0  0  0
  184.4730  178.4100  146.1880 C   0  0  0  0  0  3  0  0  0  0  0  0
  190.5650  174.4620  145.3680 C   0  0  1  0  0  3  0  0  0  0  0  0
  190.3490  176.7270  146.4250 C   0  0  0  0  0  1  0  0  0  0  0  0
  188.8620  174.9040  147.2240 C   0  0  0  0  0  1  0  0  0  0  0  0
  189.6080  175.4660  146.0250 C   0  0  0  0  0  3  0  0  0  0  0  0
  189.9290  173.2120  144.7580 C   0  0  0  0  0  2  0  0  0  0  0  0
  190.2150  171.5010  142.8080 C   0  0  0  0  0  1  0  0  0  0  0  0
  191.2090  172.0400  144.2250 S   0  0  0  0  0  0  0  0  0  0  0  0
  1  2  1  0  0  0  0
  1 25  1  0  0  0  0
  2  4  2  0  0  0  0
  4  3  1  0  0  0  0
  5 10  2  0  0  0  0
  6  3  2  0  0  0  0
  7  1  1  0  0  0  0
  9  5  1  0  0  0  0
  9  7  2  0  0  0  0
 10 11  1  0  0  0  0
 10  2  1  0  0  0  0
 11  8  1  6  0  0  0
 11  6  1  0  0  0  0
 12 13  1  6  0  0  0
 12  7  1  0  0  0  0
 14 12  1  0  0  0  0
 15 16  1  0  0  0  0
 16 14  1  0  0  0  0
 16 17  1  0  0  0  0
 17 23  1  0  0  0  0
 18 20  1  0  0  0  0
 19 24  2  0  0  0  0
 21 18  2  0  0  0  0
 22 23  2  0  0  0  0
 22 19  1  0  0  0  0
 23 21  1  0  0  0  0
 24 18  1  0  0  0  0
 25 29  1  6  0  0  0
 25 28  1  0  0  0  0
 28 26  1  0  0  0  0
 28 27  1  0  0  0  0
 30 31  1  0  0  0  0
 31 29  1  0  0  0  0
M  END
>  <MODEL>
5

>  <REMARK>
 VINA RESULT:      -6.7      2.627      7.896
  Name = 
  9 active torsions:
  status: ('A' for Active; 'I' for Inactive)
    1  A    between atoms: N_3  and  N_9
    2  A    between atoms: N_3  and  C_22
    3  A    between atoms: N_4  and  C_12
    4  A    between atoms: N_9  and  C_23
    5  A    between atoms: C_12  and  C_25
    6  A    between atoms: C_12  and  C_27
    7  A    between atoms: C_15  and  C_21
    8  A    between atoms: C_15  and  C_23
    9  A    between atoms: C_27  and  S_28
                            x       y       z     vdW  Elec       q    Type
                         _______ _______ _______ _____ _____    ______ ____

>  <TORSDO>
F 9

$$$$
=
 OpenBabel11052417433D

 31 33  0  0  1  0  0  0  0  0999 V2000
  189.8580  174.9390  142.1810 N   0  0  0  0  0  0  0  0  0  0  0  0
  190.7140  174.0380  141.4410 C   0  0  0  0  0  0  0  0  0  0  0  0
  192.8370  172.9140  141.0050 C   0  0  0  0  0  3  0  0  0  0  0  0
  191.9710  173.7870  141.8120 C   0  0  0  0  0  3  0  0  0  0  0  0
  188.9810  173.7710  139.7750 C   0  0  0  0  0  3  0  0  0  0  0  0
  192.3920  172.3200  139.9360 N   0  0  0  0  0  0  0  0  0  0  0  0
  188.5590  175.2460  141.6300 C   0  0  0  0  0  0  0  0  0  0  0  0
  190.3830  171.1050  139.5380 N   0  0  0  0  0  1  0  0  0  0  0  0
  188.1770  174.7070  140.5060 N   0  0  0  0  0  0  0  0  0  0  0  0
  190.1970  173.4270  140.2030 C   0  0  0  0  0  0  0  0  0  0  0  0
  191.0120  172.4120  139.4450 C   0  0  1  0  0  3  0  0  0  0  0  0
  187.6590  176.2330  142.3140 C   0  0  2  0  0  3  0  0  0  0  0  0
  186.4900  175.6100  142.7550 O   0  0  0  0  0  1  0  0  0  0  0  0
  187.3220  177.3760  141.3720 C   0  0  0  0  0  2  0  0  0  0  0  0
  185.5070  178.2950  140.4070 O   0  0  0  0  0  1  0  0  0  0  0  0
  185.9540  177.8140  141.5920 N   0  0  0  0  0  0  0  0  0  0  0  0
  186.0130  178.9030  142.4760 N   0  0  0  0  0  2  0  0  0  0  0  0
  185.8880  178.3770  146.1770 C   0  0  0  0  0  0  0  0  0  0  0  0
  183.6950  179.0330  145.3890 C   0  0  0  0  0  3  0  0  0  0  0  0
  186.7930  177.9900  147.2900 C   0  0  0  0  0  1  0  0  0  0  0  0
  186.3800  178.4500  144.8710 C   0  0  0  0  0  3  0  0  0  0  0  0
  184.1870  179.1070  144.0820 C   0  0  0  0  0  3  0  0  0  0  0  0
  185.5290  178.8160  143.8180 C   0  0  0  0  0  0  0  0  0  0  0  0
  184.5460  178.6680  146.4370 C   0  0  0  0  0  3  0  0  0  0  0  0
  190.2330  175.5370  143.4700 C   0  0  1  0  0  3  0  0  0  0  0  0
  191.9520  177.3290  143.1130 C   0  0  0  0  0  1  0  0  0  0  0  0
  189.9970  177.8400  144.5590 C   0  0  0  0  0  1  0  0  0  0  0  0
  190.4830  177.0470  143.3560 C   0  0  0  0  0  3  0  0  0  0  0  0
  189.3270  175.0800  144.6140 C   0  0  0  0  0  2  0  0  0  0  0  0
  189.1560  174.9450  147.2150 C   0  0  0  0  0  1  0  0  0  0  0  0
  190.3090  174.3430  145.9520 S   0  0  0  0  0  0  0  0  0  0  0  0
  1 25  1  0  0  0  0
  2  4  2  0  0  0  0
  2  1  1  0  0  0  0
  3  4  1  0  0  0  0
  5 10  2  0  0  0  0
  5  9  1  0  0  0  0
  6  3  2  0  0  0  0
  7  1  1  0  0  0  0
  7 12  1  0  0  0  0
  9  7  2  0  0  0  0
 10  2  1  0  0  0  0
 11  8  1  1  0  0  0
 11  6  1  0  0  0  0
 11 10  1  0  0  0  0
 12 13  1  6  0  0  0
 14 16  1  0  0  0  0
 14 12  1  0  0  0  0
 15 16  1  0  0  0  0
 16 17  1  0  0  0  0
 17 23  1  0  0  0  0
 18 24  1  0  0  0  0
 18 20  1  0  0  0  0
 19 24  2  0  0  0  0
 21 18  2  0  0  0  0
 22 19  1  0  0  0  0
 23 22  2  0  0  0  0
 23 21  1  0  0  0  0
 25 29  1  1  0  0  0
 26 28  1  0  0  0  0
 28 25  1  0  0  0  0
 28 27  1  0  0  0  0
 29 31  1  0  0  0  0
 31 30  1  0  0  0  0
M  END
>  <MODEL>
6

>  <REMARK>
 VINA RESULT:      -6.6      3.525      8.055
  Name = 
  9 active torsions:
  status: ('A' for Active; 'I' for Inactive)
    1  A    between atoms: N_3  and  N_9
    2  A    between atoms: N_3  and  C_22
    3  A    between atoms: N_4  and  C_12
    4  A    between atoms: N_9  and  C_23
    5  A    between atoms: C_12  and  C_25
    6  A    between atoms: C_12  and  C_27
    7  A    between atoms: C_15  and  C_21
    8  A    between atoms: C_15  and  C_23
    9  A    between atoms: C_27  and  S_28
                            x       y       z     vdW  Elec       q    Type
                         _______ _______ _______ _____ _____    ______ ____

>  <TORSDO>
F 9

$$$$
=
 OpenBabel11052417433D

 31 33  0  0  1  0  0  0  0  0999 V2000
  191.8520  174.2370  144.9650 N   0  0  0  0  0  0  0  0  0  0  0  0
  193.2740  174.1440  145.2150 C   0  0  0  0  0  0  0  0  0  0  0  0
  195.3920  174.9840  146.0900 C   0  0  0  0  0  3  0  0  0  0  0  0
  193.9370  175.0750  145.9040 C   0  0  0  0  0  3  0  0  0  0  0  0
  193.3760  172.1480  143.8530 C   0  0  0  0  0  3  0  0  0  0  0  0
  196.0710  173.9720  145.6350 N   0  0  0  0  0  0  0  0  0  0  0  0
  191.2490  173.2480  144.1020 C   0  0  0  0  0  0  0  0  0  0  0  0
  195.6650  171.6290  145.7560 N   0  0  0  0  0  1  0  0  0  0  0  0
  191.9750  172.2970  143.5830 N   0  0  0  0  0  0  0  0  0  0  0  0
  194.0220  173.0130  144.6350 C   0  0  0  0  0  0  0  0  0  0  0  0
  195.4840  172.8190  144.9420 C   0  0  1  0  0  3  0  0  0  0  0  0
  189.7950  173.3390  143.7450 C   0  0  2  0  0  3  0  0  0  0  0  0
  189.1840  172.0880  143.8490 O   0  0  0  0  0  1  0  0  0  0  0  0
  189.6330  173.8870  142.3370 C   0  0  0  0  0  2  0  0  0  0  0  0
  187.9670  173.2040  140.9860 O   0  0  0  0  0  1  0  0  0  0  0  0
  188.2220  174.0380  142.0220 N   0  0  0  0  0  0  0  0  0  0  0  0
  188.0510  175.3470  141.5420 N   0  0  0  0  0  2  0  0  0  0  0  0
  186.3420  177.1020  144.3680 C   0  0  0  0  0  0  0  0  0  0  0  0
  186.6450  178.6510  142.5320 C   0  0  0  0  0  3  0  0  0  0  0  0
  185.8550  176.8150  145.7420 C   0  0  0  0  0  1  0  0  0  0  0  0
  186.9550  176.0940  143.6190 C   0  0  0  0  0  3  0  0  0  0  0  0
  187.2590  177.6420  141.7830 C   0  0  0  0  0  3  0  0  0  0  0  0
  187.4160  176.3610  142.3220 C   0  0  0  0  0  0  0  0  0  0  0  0
  186.1870  178.3810  143.8240 C   0  0  0  0  0  3  0  0  0  0  0  0
  190.9900  175.2680  145.5600 C   0  0  1  0  0  3  0  0  0  0  0  0
  189.1080  174.8720  147.1700 C   0  0  0  0  0  1  0  0  0  0  0  0
  191.1980  175.9040  148.0290 C   0  0  0  0  0  1  0  0  0  0  0  0
  190.6140  174.9380  147.0120 C   0  0  0  0  0  3  0  0  0  0  0  0
  191.5020  176.6840  145.2930 C   0  0  0  0  0  2  0  0  0  0  0  0
  190.9050  177.5490  142.9040 C   0  0  0  0  0  1  0  0  0  0  0  0
  190.1930  177.7090  144.5640 S   0  0  0  0  0  0  0  0  0  0  0  0
  1  2  1  0  0  0  0
  1 25  1  0  0  0  0
  2  4  2  0  0  0  0
  4  3  1  0  0  0  0
  5 10  2  0  0  0  0
  6  3  2  0  0  0  0
  7  1  1  0  0  0  0
  9  5  1  0  0  0  0
  9  7  2  0  0  0  0
 10 11  1  0  0  0  0
 10  2  1  0  0  0  0
 11  6  1  0  0  0  0
 11  8  1  1  0  0  0
 12 13  1  6  0  0  0
 12  7  1  0  0  0  0
 14 12  1  0  0  0  0
 15 16  1  0  0  0  0
 16 14  1  0  0  0  0
 17 16  1  0  0  0  0
 17 23  1  0  0  0  0
 18 20  1  0  0  0  0
 19 24  2  0  0  0  0
 21 18  2  0  0  0  0
 22 23  2  0  0  0  0
 22 19  1  0  0  0  0
 23 21  1  0  0  0  0
 24 18  1  0  0  0  0
 25 29  1  1  0  0  0
 25 28  1  0  0  0  0
 28 26  1  0  0  0  0
 28 27  1  0  0  0  0
 30 31  1  0  0  0  0
 31 29  1  0  0  0  0
M  END
>  <MODEL>
7

>  <REMARK>
 VINA RESULT:      -6.6      2.682      7.793
  Name = 
  9 active torsions:
  status: ('A' for Active; 'I' for Inactive)
    1  A    between atoms: N_3  and  N_9
    2  A    between atoms: N_3  and  C_22
    3  A    between atoms: N_4  and  C_12
    4  A    between atoms: N_9  and  C_23
    5  A    between atoms: C_12  and  C_25
    6  A    between atoms: C_12  and  C_27
    7  A    between atoms: C_15  and  C_21
    8  A    between atoms: C_15  and  C_23
    9  A    between atoms: C_27  and  S_28
                            x       y       z     vdW  Elec       q    Type
                         _______ _______ _______ _____ _____    ______ ____

>  <TORSDO>
F 9

$$$$
=
 OpenBabel11052417433D

 31 33  0  0  1  0  0  0  0  0999 V2000
  188.6190  176.3640  143.7720 N   0  0  0  0  0  0  0  0  0  0  0  0
  187.6600  177.0930  142.9710 C   0  0  0  0  0  0  0  0  0  0  0  0
  186.7390  177.8760  140.8500 C   0  0  0  0  0  3  0  0  0  0  0  0
  187.6900  177.0770  141.6370 C   0  0  0  0  0  3  0  0  0  0  0  0
  186.7030  178.0320  144.9840 C   0  0  0  0  0  3  0  0  0  0  0  0
  185.8100  178.5820  141.4250 N   0  0  0  0  0  0  0  0  0  0  0  0
  188.5840  176.5460  145.2040 C   0  0  0  0  0  0  0  0  0  0  0  0
  184.2850  178.0430  143.1720 N   0  0  0  0  0  1  0  0  0  0  0  0
  187.7000  177.3360  145.7460 N   0  0  0  0  0  0  0  0  0  0  0  0
  186.6570  177.9290  143.6550 C   0  0  0  0  0  0  0  0  0  0  0  0
  185.5790  178.6340  142.8730 C   0  0  1  0  0  3  0  0  0  0  0  0
  189.6030  175.8770  146.0780 C   0  0  2  0  0  3  0  0  0  0  0  0
  188.9840  175.0120  146.9830 O   0  0  0  0  0  1  0  0  0  0  0  0
  190.4210  176.9180  146.8230 C   0  0  0  0  0  2  0  0  0  0  0  0
  191.5110  176.7180  148.7830 O   0  0  0  0  0  1  0  0  0  0  0  0
  191.5380  176.2810  147.5010 N   0  0  0  0  0  0  0  0  0  0  0  0
  192.7100  176.7910  146.9210 N   0  0  0  0  0  2  0  0  0  0  0  0
  195.3050  175.7860  144.4220 C   0  0  0  0  0  0  0  0  0  0  0  0
  194.2610  173.8000  145.3330 C   0  0  0  0  0  3  0  0  0  0  0  0
  196.2950  176.4170  143.5120 C   0  0  0  0  0  1  0  0  0  0  0  0
  194.4870  176.5850  145.2260 C   0  0  0  0  0  3  0  0  0  0  0  0
  193.4430  174.5990  146.1370 C   0  0  0  0  0  3  0  0  0  0  0  0
  193.5510  175.9930  146.0870 C   0  0  0  0  0  0  0  0  0  0  0  0
  195.1930  174.3940  144.4750 C   0  0  0  0  0  3  0  0  0  0  0  0
  189.6070  175.4340  143.2060 C   0  0  1  0  0  3  0  0  0  0  0  0
  191.1640  177.4000  143.1380 C   0  0  0  0  0  1  0  0  0  0  0  0
  192.0790  175.1500  142.6160 C   0  0  0  0  0  1  0  0  0  0  0  0
  191.0470  175.9170  143.4270 C   0  0  0  0  0  3  0  0  0  0  0  0
  189.3130  173.9770  143.5650 C   0  0  0  0  0  2  0  0  0  0  0  0
  189.9300  171.8060  142.2540 C   0  0  0  0  0  1  0  0  0  0  0  0
  188.6520  173.0860  142.1280 S   0  0  0  0  0  0  0  0  0  0  0  0
  1  7  1  0  0  0  0
  2 10  1  0  0  0  0
  2  1  1  0  0  0  0
  3  6  2  0  0  0  0
  3  4  1  0  0  0  0
  4  2  2  0  0  0  0
  5  9  1  0  0  0  0
  6 11  1  0  0  0  0
  7  9  2  0  0  0  0
  7 12  1  0  0  0  0
 10  5  2  0  0  0  0
 11  8  1  6  0  0  0
 11 10  1  0  0  0  0
 12 14  1  0  0  0  0
 12 13  1  1  0  0  0
 14 16  1  0  0  0  0
 16 15  1  0  0  0  0
 17 16  1  0  0  0  0
 18 24  2  0  0  0  0
 18 21  1  0  0  0  0
 19 22  2  0  0  0  0
 20 18  1  0  0  0  0
 21 23  2  0  0  0  0
 23 22  1  0  0  0  0
 23 17  1  0  0  0  0
 24 19  1  0  0  0  0
 25 28  1  0  0  0  0
 25 29  1  1  0  0  0
 25  1  1  0  0  0  0
 26 28  1  0  0  0  0
 27 28  1  0  0  0  0
 31 30  1  0  0  0  0
 31 29  1  0  0  0  0
M  END
>  <MODEL>
8

>  <REMARK>
 VINA RESULT:      -6.6      1.857      2.875
  Name = 
  9 active torsions:
  status: ('A' for Active; 'I' for Inactive)
    1  A    between atoms: N_3  and  N_9
    2  A    between atoms: N_3  and  C_22
    3  A    between atoms: N_4  and  C_12
    4  A    between atoms: N_9  and  C_23
    5  A    between atoms: C_12  and  C_25
    6  A    between atoms: C_12  and  C_27
    7  A    between atoms: C_15  and  C_21
    8  A    between atoms: C_15  and  C_23
    9  A    between atoms: C_27  and  S_28
                            x       y       z     vdW  Elec       q    Type
                         _______ _______ _______ _____ _____    ______ ____

>  <TORSDO>
F 9

$$$$
=
 OpenBabel11052417433D

 31 33  0  0  1  0  0  0  0  0999 V2000
  190.1100  174.3700  141.5200 N   0  0  0  0  0  0  0  0  0  0  0  0
  190.7560  173.5120  140.5490 C   0  0  0  0  0  0  0  0  0  0  0  0
  192.6540  172.2460  139.6820 C   0  0  0  0  0  3  0  0  0  0  0  0
  192.0030  173.0660  140.7140 C   0  0  0  0  0  3  0  0  0  0  0  0
  188.8310  173.7140  139.0990 C   0  0  0  0  0  3  0  0  0  0  0  0
  192.0220  171.8870  138.6030 N   0  0  0  0  0  0  0  0  0  0  0  0
  188.8090  174.9040  141.1920 C   0  0  0  0  0  0  0  0  0  0  0  0
  189.8410  170.9840  138.2890 N   0  0  0  0  0  1  0  0  0  0  0  0
  188.2400  174.6020  140.0590 N   0  0  0  0  0  0  0  0  0  0  0  0
  190.0310  173.1730  139.3110 C   0  0  0  0  0  0  0  0  0  0  0  0
  190.6200  172.2110  138.3120 C   0  0  1  0  0  3  0  0  0  0  0  0
  188.1260  175.8590  142.1250 C   0  0  2  0  0  3  0  0  0  0  0  0
  186.9260  175.3190  142.5910 O   0  0  0  0  0  1  0  0  0  0  0  0
  187.8690  177.1830  141.4250 C   0  0  0  0  0  2  0  0  0  0  0  0
  186.0650  178.1680  140.5040 O   0  0  0  0  0  1  0  0  0  0  0  0
  186.5000  177.6120  141.6610 N   0  0  0  0  0  0  0  0  0  0  0  0
  186.5560  178.6440  142.6120 N   0  0  0  0  0  2  0  0  0  0  0  0
  185.9610  177.8210  146.2110 C   0  0  0  0  0  0  0  0  0  0  0  0
  184.0130  178.9470  145.3170 C   0  0  0  0  0  3  0  0  0  0  0  0
  186.6640  177.1720  147.3480 C   0  0  0  0  0  1  0  0  0  0  0  0
  186.5890  177.9170  144.9660 C   0  0  0  0  0  3  0  0  0  0  0  0
  184.6410  179.0430  144.0710 C   0  0  0  0  0  3  0  0  0  0  0  0
  185.9300  178.5290  143.8910 C   0  0  0  0  0  0  0  0  0  0  0  0
  184.6730  178.3350  146.3870 C   0  0  0  0  0  3  0  0  0  0  0  0
  190.6990  174.7030  142.8240 C   0  0  1  0  0  3  0  0  0  0  0  0
  189.8360  173.5780  144.8940 C   0  0  0  0  0  1  0  0  0  0  0  0
  192.2150  173.2330  144.2680 C   0  0  0  0  0  1  0  0  0  0  0  0
  190.8110  173.4750  143.7380 C   0  0  0  0  0  3  0  0  0  0  0  0
  191.9480  175.5750  142.6970 C   0  0  0  0  0  2  0  0  0  0  0  0
  192.3200  176.9250  144.9000 C   0  0  0  0  0  1  0  0  0  0  0  0
  191.6080  177.2650  143.2680 S   0  0  0  0  0  0  0  0  0  0  0  0
  1 25  1  0  0  0  0
  2  4  2  0  0  0  0
  2  1  1  0  0  0  0
  3  4  1  0  0  0  0
  5 10  2  0  0  0  0
  5  9  1  0  0  0  0
  6  3  2  0  0  0  0
  7  1  1  0  0  0  0
  7 12  1  0  0  0  0
  9  7  2  0  0  0  0
 10  2  1  0  0  0  0
 11  8  1  1  0  0  0
 11  6  1  0  0  0  0
 11 10  1  0  0  0  0
 12 13  1  6  0  0  0
 14 16  1  0  0  0  0
 14 12  1  0  0  0  0
 15 16  1  0  0  0  0
 16 17  1  0  0  0  0
 17 23  1  0  0  0  0
 18 24  1  0  0  0  0
 18 20  1  0  0  0  0
 19 24  2  0  0  0  0
 21 18  2  0  0  0  0
 22 19  1  0  0  0  0
 23 22  2  0  0  0  0
 23 21  1  0  0  0  0
 25 29  1  6  0  0  0
 25 28  1  0  0  0  0
 28 27  1  0  0  0  0
 28 26  1  0  0  0  0
 29 31  1  0  0  0  0
 31 30  1  0  0  0  0
M  END
>  <MODEL>
9

>  <REMARK>
 VINA RESULT:      -6.5      3.651      8.049
  Name = 
  9 active torsions:
  status: ('A' for Active; 'I' for Inactive)
    1  A    between atoms: N_3  and  N_9
    2  A    between atoms: N_3  and  C_22
    3  A    between atoms: N_4  and  C_12
    4  A    between atoms: N_9  and  C_23
    5  A    between atoms: C_12  and  C_25
    6  A    between atoms: C_12  and  C_27
    7  A    between atoms: C_15  and  C_21
    8  A    between atoms: C_15  and  C_23
    9  A    between atoms: C_27  and  S_28
                            x       y       z     vdW  Elec       q    Type
                         _______ _______ _______ _____ _____    ______ ____

>  <TORSDO>
F 9

$$$$
