=
 OpenBabel11052420143D

 34 39  0  0  1  0  0  0  0  0999 V2000
  190.0650  176.1020  143.4920 C   0  0  0  0  0  0  0  0  0  0  0  0
  186.2180  176.4250  143.2070 C   0  0  0  0  0  2  0  0  0  0  0  0
  187.9000  175.1420  141.9250 C   0  0  0  0  0  3  0  0  0  0  0  0
  192.4980  175.9390  143.7520 C   0  0  0  0  0  0  0  0  0  0  0  0
  191.2480  176.4870  144.1570 C   0  0  0  0  0  3  0  0  0  0  0  0
  191.3750  174.6650  142.0500 C   0  0  0  0  0  0  0  0  0  0  0  0
  191.0240  173.7810  140.9270 C   0  0  0  0  0  3  0  0  0  0  0  0
  192.5710  175.0170  142.6770 C   0  0  0  0  0  3  0  0  0  0  0  0
  189.2090  174.7270  141.7010 C   0  0  0  0  0  0  0  0  0  0  0  0
  190.2080  175.2000  142.4630 C   0  0  0  0  0  0  0  0  0  0  0  0
  189.7300  173.8220  140.7250 N   0  0  0  0  0  0  0  0  0  0  0  0
  186.0070  177.8960  143.5390 C   0  0  0  0  0  2  0  0  0  0  0  0
  186.1600  178.1700  145.0390 C   0  0  2  0  0  3  0  0  0  0  0  0
  187.3400  177.4360  145.6780 C   0  0  0  0  0  2  0  0  0  0  0  0
  187.6610  176.0790  142.9640 C   0  0  0  0  0  0  0  0  0  0  0  0
  188.5980  177.6170  144.8460 C   0  0  0  0  0  2  0  0  0  0  0  0
  188.7560  176.5620  143.7780 C   0  0  0  0  0  0  0  0  0  0  0  0
  184.8930  177.8780  145.7760 C   0  0  0  0  0  0  0  0  0  0  0  0
  184.8100  176.7480  146.5760 O   0  0  0  0  0  1  0  0  0  0  0  0
  183.9040  178.6540  145.6840 O   0  0  0  0  0  0  0  0  0  0  0  0
  193.7490  176.3700  144.4400 C   0  0  0  0  0  2  0  0  0  0  0  0
  196.7020  174.2040  145.4170 C   0  0  0  0  0  3  0  0  0  0  0  0
  193.9380  173.9420  145.0210 C   0  0  0  0  0  3  0  0  0  0  0  0
  196.2340  170.5960  146.1220 C   0  0  0  0  0  0  0  0  0  0  0  0
  196.8480  171.8450  145.9540 C   0  0  0  0  0  3  0  0  0  0  0  0
  196.0890  172.9600  145.5880 C   0  0  0  0  0  0  0  0  0  0  0  0
  194.0850  171.5830  145.5560 C   0  0  0  0  0  3  0  0  0  0  0  0
  194.6960  172.8280  145.3880 C   0  0  0  0  0  0  0  0  0  0  0  0
  194.8510  170.4730  145.9220 C   0  0  0  0  0  3  0  0  0  0  0  0
  194.5550  175.1870  144.8570 C   0  0  0  0  0  0  0  0  0  0  0  0
  195.9370  175.3150  145.0510 C   0  0  0  0  0  3  0  0  0  0  0  0
  197.0410  169.4260  146.5080 C   0  0  0  0  0  0  0  0  0  0  0  0
  197.9410  168.9920  145.7410 O   0  0  0  0  0  0  0  0  0  0  0  0
  196.8140  168.7890  147.7220 O   0  0  0  0  0  1  0  0  0  0  0  0
  1 17  1  0  0  0  0
  1  5  1  0  0  0  0
  2 12  1  0  0  0  0
  3 15  1  0  0  0  0
  4  5  2  0  0  0  0
  4 21  1  0  0  0  0
  6 10  1  0  0  0  0
  6  8  2  0  0  0  0
  7  6  1  0  0  0  0
  8  4  1  0  0  0  0
  9  3  2  0  0  0  0
  9 10  1  0  0  0  0
 10  1  2  0  0  0  0
 11  7  2  0  0  0  0
 11  9  1  0  0  0  0
 12 13  1  0  0  0  0
 13 14  1  0  0  0  0
 13 18  1  1  0  0  0
 15  2  1  0  0  0  0
 15 17  2  0  0  0  0
 16 14  1  0  0  0  0
 17 16  1  0  0  0  0
 18 19  1  0  0  0  0
 20 18  2  0  0  0  0
 21 30  1  0  0  0  0
 22 26  1  0  0  0  0
 23 28  1  0  0  0  0
 24 32  1  0  0  0  0
 25 24  1  0  0  0  0
 26 25  2  0  0  0  0
 27 29  1  0  0  0  0
 28 27  2  0  0  0  0
 28 26  1  0  0  0  0
 29 24  2  0  0  0  0
 30 23  2  0  0  0  0
 30 31  1  0  0  0  0
 31 22  2  0  0  0  0
 32 34  1  0  0  0  0
 33 32  2  0  0  0  0
M  END
>  <MODEL>
1

>  <REMARK>
 VINA RESULT:      -9.1      0.000      0.000
  Name = 
  4 active torsions:
  status: ('A' for Active; 'I' for Inactive)
    1  A    between atoms: C_3  and  C_25
    2  A    between atoms: C_7  and  C_11
    3  A    between atoms: C_8  and  C_18
    4  A    between atoms: C_18  and  C_30
                            x       y       z     vdW  Elec       q    Type
                         _______ _______ _______ _____ _____    ______ ____

>  <TORSDO>
F 4

$$$$
=
 OpenBabel11052420143D

 34 39  0  0  1  0  0  0  0  0999 V2000
  194.0890  173.1100  144.4560 C   0  0  0  0  0  0  0  0  0  0  0  0
  197.2140  171.2940  145.8420 C   0  0  0  0  0  2  0  0  0  0  0  0
  196.8290  173.5960  145.0240 C   0  0  0  0  0  3  0  0  0  0  0  0
  192.0590  174.1910  143.6060 C   0  0  0  0  0  0  0  0  0  0  0  0
  192.7240  173.0370  144.1070 C   0  0  0  0  0  3  0  0  0  0  0  0
  194.1040  175.4400  143.8000 C   0  0  0  0  0  0  0  0  0  0  0  0
  195.1560  176.4690  143.7750 C   0  0  0  0  0  3  0  0  0  0  0  0
  192.7570  175.4150  143.4410 C   0  0  0  0  0  3  0  0  0  0  0  0
  195.9930  174.5930  144.5320 C   0  0  0  0  0  0  0  0  0  0  0  0
  194.7020  174.3290  144.2760 C   0  0  0  0  0  0  0  0  0  0  0  0
  196.2800  175.9580  144.2150 N   0  0  0  0  0  0  0  0  0  0  0  0
  197.0450  169.8990  145.2550 C   0  0  0  0  0  2  0  0  0  0  0  0
  195.9610  169.1010  145.9860 C   0  0  2  0  0  3  0  0  0  0  0  0
  194.7090  169.9190  146.3050 C   0  0  0  0  0  2  0  0  0  0  0  0
  196.2820  172.3040  145.2330 C   0  0  0  0  0  0  0  0  0  0  0  0
  194.2440  170.6880  145.0800 C   0  0  0  0  0  2  0  0  0  0  0  0
  194.8830  172.0500  144.9610 C   0  0  0  0  0  0  0  0  0  0  0  0
  196.5010  168.4560  147.2220 C   0  0  0  0  0  0  0  0  0  0  0  0
  195.6440  168.1660  148.2740 O   0  0  0  0  0  1  0  0  0  0  0  0
  197.7240  168.1660  147.3130 O   0  0  0  0  0  0  0  0  0  0  0  0
  190.6240  174.1020  143.2130 C   0  0  0  0  0  2  0  0  0  0  0  0
  188.9610  175.2860  146.4060 C   0  0  0  0  0  3  0  0  0  0  0  0
  188.9350  175.8940  143.6680 C   0  0  0  0  0  3  0  0  0  0  0  0
  186.4750  178.0320  146.3240 C   0  0  0  0  0  0  0  0  0  0  0  0
  187.3100  177.0150  146.8050 C   0  0  0  0  0  3  0  0  0  0  0  0
  188.1300  176.3020  145.9270 C   0  0  0  0  0  0  0  0  0  0  0  0
  187.2840  177.6210  144.0680 C   0  0  0  0  0  3  0  0  0  0  0  0
  188.1160  176.6080  144.5470 C   0  0  0  0  0  0  0  0  0  0  0  0
  186.4670  178.3300  144.9530 C   0  0  0  0  0  3  0  0  0  0  0  0
  189.7700  174.8820  144.1540 C   0  0  0  0  0  0  0  0  0  0  0  0
  189.7780  174.5750  145.5220 C   0  0  0  0  0  3  0  0  0  0  0  0
  185.6140  178.7800  147.2550 C   0  0  0  0  0  0  0  0  0  0  0  0
  184.4020  178.4640  147.3980 O   0  0  0  0  0  0  0  0  0  0  0  0
  186.1300  179.8420  147.9870 O   0  0  0  0  0  1  0  0  0  0  0  0
  1 17  1  0  0  0  0
  3 15  1  0  0  0  0
  4  5  1  0  0  0  0
  5  1  2  0  0  0  0
  6 10  2  0  0  0  0
  7  6  1  0  0  0  0
  7 11  2  0  0  0  0
  8  4  2  0  0  0  0
  8  6  1  0  0  0  0
  9  3  2  0  0  0  0
 10  1  1  0  0  0  0
 10  9  1  0  0  0  0
 11  9  1  0  0  0  0
 12  2  1  0  0  0  0
 12 13  1  0  0  0  0
 13 14  1  0  0  0  0
 13 18  1  1  0  0  0
 15  2  1  0  0  0  0
 16 14  1  0  0  0  0
 17 16  1  0  0  0  0
 17 15  2  0  0  0  0
 18 20  2  0  0  0  0
 18 19  1  0  0  0  0
 21  4  1  0  0  0  0
 21 30  1  0  0  0  0
 23 30  2  0  0  0  0
 23 28  1  0  0  0  0
 24 25  1  0  0  0  0
 24 32  1  0  0  0  0
 26 22  1  0  0  0  0
 26 25  2  0  0  0  0
 27 28  2  0  0  0  0
 27 29  1  0  0  0  0
 28 26  1  0  0  0  0
 29 24  2  0  0  0  0
 30 31  1  0  0  0  0
 31 22  2  0  0  0  0
 32 33  2  0  0  0  0
 32 34  1  0  0  0  0
M  END
>  <MODEL>
2

>  <REMARK>
 VINA RESULT:      -9.1      1.951     10.042
  Name = 
  4 active torsions:
  status: ('A' for Active; 'I' for Inactive)
    1  A    between atoms: C_3  and  C_25
    2  A    between atoms: C_7  and  C_11
    3  A    between atoms: C_8  and  C_18
    4  A    between atoms: C_18  and  C_30
                            x       y       z     vdW  Elec       q    Type
                         _______ _______ _______ _____ _____    ______ ____

>  <TORSDO>
F 4

$$$$
=
 OpenBabel11052420143D

 34 39  0  0  1  0  0  0  0  0999 V2000
  193.7840  174.1150  145.7570 C   0  0  0  0  0  0  0  0  0  0  0  0
  196.9350  172.3990  144.3060 C   0  0  0  0  0  2  0  0  0  0  0  0
  196.2910  174.7690  144.5930 C   0  0  0  0  0  3  0  0  0  0  0  0
  191.7620  175.1230  146.7100 C   0  0  0  0  0  0  0  0  0  0  0  0
  192.5060  173.9690  146.3370 C   0  0  0  0  0  3  0  0  0  0  0  0
  193.5520  176.5200  145.9200 C   0  0  0  0  0  0  0  0  0  0  0  0
  194.4240  177.6400  145.5310 C   0  0  0  0  0  3  0  0  0  0  0  0
  192.2860  176.4240  146.4950 C   0  0  0  0  0  3  0  0  0  0  0  0
  195.4090  175.7500  145.0360 C   0  0  0  0  0  0  0  0  0  0  0  0
  194.2320  175.4050  145.5840 C   0  0  0  0  0  0  0  0  0  0  0  0
  195.5300  177.1740  145.0050 N   0  0  0  0  0  0  0  0  0  0  0  0
  196.3310  171.1950  143.5950 C   0  0  0  0  0  2  0  0  0  0  0  0
  195.8990  170.1070  144.5840 C   0  0  2  0  0  3  0  0  0  0  0  0
  195.1970  170.6530  145.8280 C   0  0  0  0  0  2  0  0  0  0  0  0
  195.9060  173.4090  144.7280 C   0  0  0  0  0  0  0  0  0  0  0  0
  194.1200  171.6520  145.4400 C   0  0  0  0  0  2  0  0  0  0  0  0
  194.6370  173.0660  145.3340 C   0  0  0  0  0  0  0  0  0  0  0  0
  197.0500  169.2330  144.9660 C   0  0  0  0  0  0  0  0  0  0  0  0
  197.5530  169.2900  146.2580 O   0  0  0  0  0  1  0  0  0  0  0  0
  197.5600  168.4410  144.1300 O   0  0  0  0  0  0  0  0  0  0  0  0
  190.4000  174.9640  147.2960 C   0  0  0  0  0  2  0  0  0  0  0  0
  188.5710  175.8590  144.0990 C   0  0  0  0  0  3  0  0  0  0  0  0
  188.2340  176.1470  146.8690 C   0  0  0  0  0  3  0  0  0  0  0  0
  185.3500  177.6850  144.2250 C   0  0  0  0  0  0  0  0  0  0  0  0
  186.4810  177.0260  143.7240 C   0  0  0  0  0  3  0  0  0  0  0  0
  187.4430  176.5130  144.5990 C   0  0  0  0  0  0  0  0  0  0  0  0
  186.1460  177.3150  146.4920 C   0  0  0  0  0  3  0  0  0  0  0  0
  187.2730  176.6590  145.9940 C   0  0  0  0  0  0  0  0  0  0  0  0
  185.1880  177.8260  145.6110 C   0  0  0  0  0  3  0  0  0  0  0  0
  189.3610  175.4870  146.3640 C   0  0  0  0  0  0  0  0  0  0  0  0
  189.5300  175.3480  144.9800 C   0  0  0  0  0  3  0  0  0  0  0  0
  184.3410  178.2230  143.2970 C   0  0  0  0  0  0  0  0  0  0  0  0
  183.4440  179.0040  143.7130 O   0  0  0  0  0  1  0  0  0  0  0  0
  184.3680  177.8730  141.9530 O   0  0  0  0  0  0  0  0  0  0  0  0
  1  5  1  0  0  0  0
  2 15  1  0  0  0  0
  3 15  2  0  0  0  0
  3  9  1  0  0  0  0
  4 21  1  0  0  0  0
  5  4  2  0  0  0  0
  6  8  2  0  0  0  0
  7  6  1  0  0  0  0
  8  4  1  0  0  0  0
  9 10  2  0  0  0  0
 10  1  1  0  0  0  0
 10  6  1  0  0  0  0
 11  9  1  0  0  0  0
 11  7  2  0  0  0  0
 12  2  1  0  0  0  0
 12 13  1  0  0  0  0
 13 18  1  1  0  0  0
 13 14  1  0  0  0  0
 15 17  1  0  0  0  0
 16 14  1  0  0  0  0
 17 16  1  0  0  0  0
 17  1  2  0  0  0  0
 18 19  1  0  0  0  0
 20 18  2  0  0  0  0
 22 26  2  0  0  0  0
 22 31  1  0  0  0  0
 24 29  1  0  0  0  0
 25 24  2  0  0  0  0
 25 26  1  0  0  0  0
 26 28  1  0  0  0  0
 28 27  1  0  0  0  0
 28 23  2  0  0  0  0
 29 27  2  0  0  0  0
 30 23  1  0  0  0  0
 30 21  1  0  0  0  0
 31 30  2  0  0  0  0
 32 33  1  0  0  0  0
 32 24  1  0  0  0  0
 34 32  2  0  0  0  0
M  END
>  <MODEL>
3

>  <REMARK>
 VINA RESULT:      -9.0      2.334     10.264
  Name = 
  4 active torsions:
  status: ('A' for Active; 'I' for Inactive)
    1  A    between atoms: C_3  and  C_25
    2  A    between atoms: C_7  and  C_11
    3  A    between atoms: C_8  and  C_18
    4  A    between atoms: C_18  and  C_30
                            x       y       z     vdW  Elec       q    Type
                         _______ _______ _______ _____ _____    ______ ____

>  <TORSDO>
F 4

$$$$
=
 OpenBabel11052420143D

 34 39  0  0  1  0  0  0  0  0999 V2000
  190.4280  176.6270  144.5990 C   0  0  0  0  0  0  0  0  0  0  0  0
  186.6140  177.2810  144.5550 C   0  0  0  0  0  2  0  0  0  0  0  0
  188.2860  177.1990  146.3740 C   0  0  0  0  0  3  0  0  0  0  0  0
  192.8460  176.2210  144.5370 C   0  0  0  0  0  0  0  0  0  0  0  0
  191.5960  176.3300  143.8640 C   0  0  0  0  0  3  0  0  0  0  0  0
  191.7510  176.6910  146.6250 C   0  0  0  0  0  0  0  0  0  0  0  0
  191.4120  176.9280  148.0380 C   0  0  0  0  0  3  0  0  0  0  0  0
  192.9310  176.3970  145.9420 C   0  0  0  0  0  3  0  0  0  0  0  0
  189.5960  177.0590  146.8240 C   0  0  0  0  0  0  0  0  0  0  0  0
  190.5850  176.7910  145.9570 C   0  0  0  0  0  0  0  0  0  0  0  0
  190.1250  177.1490  148.1490 N   0  0  0  0  0  0  0  0  0  0  0  0
  186.1470  176.3160  143.4730 C   0  0  0  0  0  2  0  0  0  0  0  0
  186.4940  176.8230  142.0700 C   0  0  2  0  0  3  0  0  0  0  0  0
  187.8970  177.4220  141.9630 C   0  0  0  0  0  2  0  0  0  0  0  0
  188.0320  177.0390  144.9870 C   0  0  0  0  0  0  0  0  0  0  0  0
  188.9230  176.4990  142.6000 C   0  0  0  0  0  2  0  0  0  0  0  0
  189.1200  176.7620  144.0720 C   0  0  0  0  0  0  0  0  0  0  0  0
  185.4660  177.7880  141.5730 C   0  0  0  0  0  0  0  0  0  0  0  0
  184.2960  177.9760  142.2950 O   0  0  0  0  0  1  0  0  0  0  0  0
  185.6580  178.4400  140.5110 O   0  0  0  0  0  0  0  0  0  0  0  0
  194.0720  175.8800  143.7610 C   0  0  0  0  0  2  0  0  0  0  0  0
  196.7750  173.8310  145.4530 C   0  0  0  0  0  3  0  0  0  0  0  0
  194.1820  173.4730  144.4460 C   0  0  0  0  0  3  0  0  0  0  0  0
  196.2470  170.2290  146.1460 C   0  0  0  0  0  0  0  0  0  0  0  0
  196.8520  171.4920  146.0830 C   0  0  0  0  0  3  0  0  0  0  0  0
  196.1700  172.5730  145.5190 C   0  0  0  0  0  0  0  0  0  0  0  0
  194.2610  171.1350  145.0730 C   0  0  0  0  0  3  0  0  0  0  0  0
  194.8640  172.3930  145.0100 C   0  0  0  0  0  0  0  0  0  0  0  0
  194.9500  170.0580  145.6390 C   0  0  0  0  0  3  0  0  0  0  0  0
  194.7900  174.7330  144.3880 C   0  0  0  0  0  0  0  0  0  0  0  0
  196.0870  174.9080  144.8870 C   0  0  0  0  0  3  0  0  0  0  0  0
  196.9720  169.0950  146.7410 C   0  0  0  0  0  0  0  0  0  0  0  0
  196.9090  168.8770  147.9810 O   0  0  0  0  0  1  0  0  0  0  0  0
  197.7340  168.2520  145.9410 O   0  0  0  0  0  0  0  0  0  0  0  0
  1 10  1  0  0  0  0
  2 15  1  0  0  0  0
  3  9  1  0  0  0  0
  4  8  1  0  0  0  0
  5  4  2  0  0  0  0
  5  1  1  0  0  0  0
  6  7  1  0  0  0  0
  7 11  2  0  0  0  0
  8  6  2  0  0  0  0
  9 11  1  0  0  0  0
 10  6  1  0  0  0  0
 10  9  2  0  0  0  0
 12  2  1  0  0  0  0
 13 18  1  1  0  0  0
 13 12  1  0  0  0  0
 14 13  1  0  0  0  0
 14 16  1  0  0  0  0
 15  3  2  0  0  0  0
 16 17  1  0  0  0  0
 17  1  2  0  0  0  0
 17 15  1  0  0  0  0
 18 19  1  0  0  0  0
 20 18  2  0  0  0  0
 21 30  1  0  0  0  0
 21  4  1  0  0  0  0
 22 26  1  0  0  0  0
 23 28  1  0  0  0  0
 24 32  1  0  0  0  0
 25 24  1  0  0  0  0
 26 25  2  0  0  0  0
 27 29  1  0  0  0  0
 28 27  2  0  0  0  0
 28 26  1  0  0  0  0
 29 24  2  0  0  0  0
 30 23  2  0  0  0  0
 30 31  1  0  0  0  0
 31 22  2  0  0  0  0
 32 33  1  0  0  0  0
 34 32  2  0  0  0  0
M  END
>  <MODEL>
4

>  <REMARK>
 VINA RESULT:      -9.0      2.184      3.266
  Name = 
  4 active torsions:
  status: ('A' for Active; 'I' for Inactive)
    1  A    between atoms: C_3  and  C_25
    2  A    between atoms: C_7  and  C_11
    3  A    between atoms: C_8  and  C_18
    4  A    between atoms: C_18  and  C_30
                            x       y       z     vdW  Elec       q    Type
                         _______ _______ _______ _____ _____    ______ ____

>  <TORSDO>
F 4

$$$$
=
 OpenBabel11052420143D

 34 39  0  0  1  0  0  0  0  0999 V2000
  191.6380  174.5400  144.8000 C   0  0  0  0  0  0  0  0  0  0  0  0
  192.9330  172.2690  141.9450 C   0  0  0  0  0  2  0  0  0  0  0  0
  194.0650  173.8000  143.5230 C   0  0  0  0  0  3  0  0  0  0  0  0
  190.7390  175.9370  146.6030 C   0  0  0  0  0  0  0  0  0  0  0  0
  190.5330  175.0220  145.5320 C   0  0  0  0  0  3  0  0  0  0  0  0
  193.1060  175.8760  146.1870 C   0  0  0  0  0  0  0  0  0  0  0  0
  194.5630  176.0800  146.1990 C   0  0  0  0  0  3  0  0  0  0  0  0
  192.0440  176.3800  146.9370 C   0  0  0  0  0  3  0  0  0  0  0  0
  194.0410  174.6800  144.6000 C   0  0  0  0  0  0  0  0  0  0  0  0
  192.8760  175.0060  145.1820 C   0  0  0  0  0  0  0  0  0  0  0  0
  195.1150  175.3630  145.2510 N   0  0  0  0  0  0  0  0  0  0  0  0
  191.8240  172.4120  140.9110 C   0  0  0  0  0  2  0  0  0  0  0  0
  190.5740  171.6170  141.3010 C   0  0  2  0  0  3  0  0  0  0  0  0
  190.2140  171.7310  142.7830 C   0  0  0  0  0  2  0  0  0  0  0  0
  192.8320  173.2740  143.0570 C   0  0  0  0  0  0  0  0  0  0  0  0
  190.2340  173.1830  143.2290 C   0  0  0  0  0  2  0  0  0  0  0  0
  191.5910  173.6340  143.7110 C   0  0  0  0  0  0  0  0  0  0  0  0
  190.6940  170.1830  140.8940 C   0  0  0  0  0  0  0  0  0  0  0  0
  190.7950  169.2010  141.8680 O   0  0  0  0  0  1  0  0  0  0  0  0
  190.6930  169.8600  139.6760 O   0  0  0  0  0  0  0  0  0  0  0  0
  189.5650  176.4660  147.3550 C   0  0  0  0  0  2  0  0  0  0  0  0
  186.0520  176.7360  145.9580 C   0  0  0  0  0  3  0  0  0  0  0  0
  188.6860  177.2560  145.1470 C   0  0  0  0  0  3  0  0  0  0  0  0
  185.4890  177.9930  142.5180 C   0  0  0  0  0  0  0  0  0  0  0  0
  185.2410  177.4880  143.8020 C   0  0  0  0  0  3  0  0  0  0  0  0
  186.2990  177.2410  144.6790 C   0  0  0  0  0  0  0  0  0  0  0  0
  187.8740  178.0060  142.9910 C   0  0  0  0  0  3  0  0  0  0  0  0
  187.6270  177.5030  144.2700 C   0  0  0  0  0  0  0  0  0  0  0  0
  186.8090  178.2500  142.1190 C   0  0  0  0  0  3  0  0  0  0  0  0
  188.4320  176.7550  146.4290 C   0  0  0  0  0  0  0  0  0  0  0  0
  187.1160  176.4910  146.8310 C   0  0  0  0  0  3  0  0  0  0  0  0
  184.3680  178.2500  141.5990 C   0  0  0  0  0  0  0  0  0  0  0  0
  184.5840  178.5070  140.3840 O   0  0  0  0  0  0  0  0  0  0  0  0
  183.0590  178.2120  142.0630 O   0  0  0  0  0  1  0  0  0  0  0  0
  1 10  1  0  0  0  0
  1  5  1  0  0  0  0
  2 15  1  0  0  0  0
  3  9  1  0  0  0  0
  4  8  1  0  0  0  0
  4 21  1  0  0  0  0
  5  4  2  0  0  0  0
  6  7  1  0  0  0  0
  6  8  2  0  0  0  0
  9 10  2  0  0  0  0
  9 11  1  0  0  0  0
 10  6  1  0  0  0  0
 11  7  2  0  0  0  0
 12 13  1  0  0  0  0
 12  2  1  0  0  0  0
 13 18  1  1  0  0  0
 13 14  1  0  0  0  0
 14 16  1  0  0  0  0
 15  3  2  0  0  0  0
 15 17  1  0  0  0  0
 16 17  1  0  0  0  0
 17  1  2  0  0  0  0
 18 19  1  0  0  0  0
 20 18  2  0  0  0  0
 22 31  1  0  0  0  0
 23 30  1  0  0  0  0
 24 25  2  0  0  0  0
 25 26  1  0  0  0  0
 26 22  2  0  0  0  0
 27 28  1  0  0  0  0
 28 26  1  0  0  0  0
 28 23  2  0  0  0  0
 29 24  1  0  0  0  0
 29 27  2  0  0  0  0
 30 31  2  0  0  0  0
 30 21  1  0  0  0  0
 32 34  1  0  0  0  0
 32 24  1  0  0  0  0
 33 32  2  0  0  0  0
M  END
>  <MODEL>
5

>  <REMARK>
 VINA RESULT:      -8.8      3.503      9.277
  Name = 
  4 active torsions:
  status: ('A' for Active; 'I' for Inactive)
    1  A    between atoms: C_3  and  C_25
    2  A    between atoms: C_7  and  C_11
    3  A    between atoms: C_8  and  C_18
    4  A    between atoms: C_18  and  C_30
                            x       y       z     vdW  Elec       q    Type
                         _______ _______ _______ _____ _____    ______ ____

>  <TORSDO>
F 4

$$$$
=
 OpenBabel11052420143D

 34 39  0  0  1  0  0  0  0  0999 V2000
  192.7910  173.7670  144.4220 C   0  0  0  0  0  0  0  0  0  0  0  0
  193.3550  171.2970  141.4950 C   0  0  0  0  0  2  0  0  0  0  0  0
  194.8950  172.6640  142.8650 C   0  0  0  0  0  3  0  0  0  0  0  0
  192.3490  175.3020  146.2820 C   0  0  0  0  0  0  0  0  0  0  0  0
  191.8740  174.4150  145.2760 C   0  0  0  0  0  3  0  0  0  0  0  0
  194.6060  174.8890  145.5650 C   0  0  0  0  0  0  0  0  0  0  0  0
  196.0660  174.8770  145.3820 C   0  0  0  0  0  3  0  0  0  0  0  0
  193.7380  175.5530  146.4300 C   0  0  0  0  0  3  0  0  0  0  0  0
  195.1410  173.5500  143.9080 C   0  0  0  0  0  0  0  0  0  0  0  0
  194.1220  174.0510  144.6260 C   0  0  0  0  0  0  0  0  0  0  0  0
  196.3790  174.0760  144.3930 N   0  0  0  0  0  0  0  0  0  0  0  0
  192.1510  171.5890  140.6090 C   0  0  0  0  0  2  0  0  0  0  0  0
  190.8620  170.9920  141.1820 C   0  0  2  0  0  3  0  0  0  0  0  0
  190.7220  171.1750  142.6940 C   0  0  0  0  0  2  0  0  0  0  0  0
  193.5480  172.3200  142.5790 C   0  0  0  0  0  0  0  0  0  0  0  0
  191.0100  172.6140  143.0880 C   0  0  0  0  0  2  0  0  0  0  0  0
  192.4700  172.8650  143.3770 C   0  0  0  0  0  0  0  0  0  0  0  0
  190.7190  169.5520  140.8080 C   0  0  0  0  0  0  0  0  0  0  0  0
  190.7380  168.5810  141.7990 O   0  0  0  0  0  1  0  0  0  0  0  0
  190.5710  169.2130  139.6030 O   0  0  0  0  0  0  0  0  0  0  0  0
  191.3740  176.0070  147.1630 C   0  0  0  0  0  2  0  0  0  0  0  0
  189.3820  177.7880  144.4760 C   0  0  0  0  0  3  0  0  0  0  0  0
  188.9130  176.2850  146.7970 C   0  0  0  0  0  3  0  0  0  0  0  0
  185.6780  177.8150  144.5890 C   0  0  0  0  0  0  0  0  0  0  0  0
  186.9930  178.0540  144.1660 C   0  0  0  0  0  3  0  0  0  0  0  0
  188.0710  177.5480  144.8960 C   0  0  0  0  0  0  0  0  0  0  0  0
  186.5250  176.5530  146.4870 C   0  0  0  0  0  3  0  0  0  0  0  0
  187.8350  176.7910  146.0660 C   0  0  0  0  0  0  0  0  0  0  0  0
  185.4510  177.0630  145.7510 C   0  0  0  0  0  3  0  0  0  0  0  0
  190.2230  176.5240  146.3680 C   0  0  0  0  0  0  0  0  0  0  0  0
  190.4560  177.2790  145.2110 C   0  0  0  0  0  3  0  0  0  0  0  0
  184.5470  178.3520  143.8140 C   0  0  0  0  0  0  0  0  0  0  0  0
  183.8130  179.2540  144.2990 O   0  0  0  0  0  1  0  0  0  0  0  0
  184.2780  177.8670  142.5400 O   0  0  0  0  0  0  0  0  0  0  0  0
  1 10  1  0  0  0  0
  1  5  1  0  0  0  0
  2 15  1  0  0  0  0
  3  9  1  0  0  0  0
  4  8  1  0  0  0  0
  4 21  1  0  0  0  0
  5  4  2  0  0  0  0
  6  8  2  0  0  0  0
  7  6  1  0  0  0  0
  9 11  1  0  0  0  0
  9 10  2  0  0  0  0
 10  6  1  0  0  0  0
 11  7  2  0  0  0  0
 12 13  1  0  0  0  0
 12  2  1  0  0  0  0
 13 18  1  1  0  0  0
 13 14  1  0  0  0  0
 14 16  1  0  0  0  0
 15  3  2  0  0  0  0
 15 17  1  0  0  0  0
 16 17  1  0  0  0  0
 17  1  2  0  0  0  0
 18 19  1  0  0  0  0
 20 18  2  0  0  0  0
 22 26  2  0  0  0  0
 22 31  1  0  0  0  0
 24 29  1  0  0  0  0
 25 24  2  0  0  0  0
 25 26  1  0  0  0  0
 26 28  1  0  0  0  0
 28 27  1  0  0  0  0
 28 23  2  0  0  0  0
 29 27  2  0  0  0  0
 30 23  1  0  0  0  0
 30 21  1  0  0  0  0
 31 30  2  0  0  0  0
 32 33  1  0  0  0  0
 32 24  1  0  0  0  0
 34 32  2  0  0  0  0
M  END
>  <MODEL>
6

>  <REMARK>
 VINA RESULT:      -8.7      3.311      9.062
  Name = 
  4 active torsions:
  status: ('A' for Active; 'I' for Inactive)
    1  A    between atoms: C_3  and  C_25
    2  A    between atoms: C_7  and  C_11
    3  A    between atoms: C_8  and  C_18
    4  A    between atoms: C_18  and  C_30
                            x       y       z     vdW  Elec       q    Type
                         _______ _______ _______ _____ _____    ______ ____

>  <TORSDO>
F 4

$$$$
=
 OpenBabel11052420143D

 34 39  0  0  1  0  0  0  0  0999 V2000
  193.4710  174.1470  145.8220 C   0  0  0  0  0  0  0  0  0  0  0  0
  196.6990  172.4790  144.4880 C   0  0  0  0  0  2  0  0  0  0  0  0
  196.0580  174.8360  144.8740 C   0  0  0  0  0  3  0  0  0  0  0  0
  191.3970  175.1220  146.6930 C   0  0  0  0  0  0  0  0  0  0  0  0
  192.1550  173.9820  146.3030 C   0  0  0  0  0  3  0  0  0  0  0  0
  193.2500  176.5400  146.1140 C   0  0  0  0  0  0  0  0  0  0  0  0
  194.1560  177.6700  145.8540 C   0  0  0  0  0  3  0  0  0  0  0  0
  191.9460  176.4270  146.5940 C   0  0  0  0  0  3  0  0  0  0  0  0
  195.1560  175.8000  145.3130 C   0  0  0  0  0  0  0  0  0  0  0  0
  193.9420  175.4390  145.7580 C   0  0  0  0  0  0  0  0  0  0  0  0
  195.2920  177.2220  145.3780 N   0  0  0  0  0  0  0  0  0  0  0  0
  196.1350  171.3280  143.6660 C   0  0  0  0  0  2  0  0  0  0  0  0
  195.6260  170.1890  144.5550 C   0  0  2  0  0  3  0  0  0  0  0  0
  194.8440  170.6690  145.7790 C   0  0  0  0  0  2  0  0  0  0  0  0
  195.6530  173.4760  144.8990 C   0  0  0  0  0  0  0  0  0  0  0  0
  193.8060  171.7030  145.3790 C   0  0  0  0  0  2  0  0  0  0  0  0
  194.3420  173.1140  145.3950 C   0  0  0  0  0  0  0  0  0  0  0  0
  196.7400  169.2790  144.9610 C   0  0  0  0  0  0  0  0  0  0  0  0
  196.7670  168.7610  146.2490 O   0  0  0  0  0  1  0  0  0  0  0  0
  197.6480  168.9700  144.1440 O   0  0  0  0  0  0  0  0  0  0  0  0
  189.9970  174.9460  147.1740 C   0  0  0  0  0  2  0  0  0  0  0  0
  187.1530  177.1280  145.9430 C   0  0  0  0  0  3  0  0  0  0  0  0
  189.0750  175.3810  144.8870 C   0  0  0  0  0  3  0  0  0  0  0  0
  186.3110  177.2620  142.3370 C   0  0  0  0  0  0  0  0  0  0  0  0
  186.2740  177.5080  143.7170 C   0  0  0  0  0  3  0  0  0  0  0  0
  187.1910  176.8850  144.5680 C   0  0  0  0  0  0  0  0  0  0  0  0
  188.1950  175.7590  142.6610 C   0  0  0  0  0  3  0  0  0  0  0  0
  188.1590  176.0040  144.0360 C   0  0  0  0  0  0  0  0  0  0  0  0
  187.2750  176.3860  141.8160 C   0  0  0  0  0  3  0  0  0  0  0  0
  189.0360  175.6320  146.2630 C   0  0  0  0  0  0  0  0  0  0  0  0
  188.0720  176.5020  146.7900 C   0  0  0  0  0  3  0  0  0  0  0  0
  185.3420  177.9210  141.4460 C   0  0  0  0  0  0  0  0  0  0  0  0
  185.6620  178.2200  140.2650 O   0  0  0  0  0  0  0  0  0  0  0  0
  184.0630  178.2210  141.9010 O   0  0  0  0  0  1  0  0  0  0  0  0
  1  5  1  0  0  0  0
  2 15  1  0  0  0  0
  3 15  2  0  0  0  0
  3  9  1  0  0  0  0
  4 21  1  0  0  0  0
  5  4  2  0  0  0  0
  6  8  2  0  0  0  0
  7  6  1  0  0  0  0
  8  4  1  0  0  0  0
  9 11  1  0  0  0  0
  9 10  2  0  0  0  0
 10  1  1  0  0  0  0
 10  6  1  0  0  0  0
 11  7  2  0  0  0  0
 12  2  1  0  0  0  0
 12 13  1  0  0  0  0
 13 18  1  1  0  0  0
 13 14  1  0  0  0  0
 15 17  1  0  0  0  0
 16 17  1  0  0  0  0
 16 14  1  0  0  0  0
 17  1  2  0  0  0  0
 18 19  1  0  0  0  0
 20 18  2  0  0  0  0
 22 31  1  0  0  0  0
 23 30  1  0  0  0  0
 24 25  2  0  0  0  0
 25 26  1  0  0  0  0
 26 22  2  0  0  0  0
 27 28  1  0  0  0  0
 28 26  1  0  0  0  0
 28 23  2  0  0  0  0
 29 24  1  0  0  0  0
 29 27  2  0  0  0  0
 30 31  2  0  0  0  0
 30 21  1  0  0  0  0
 32 34  1  0  0  0  0
 32 24  1  0  0  0  0
 33 32  2  0  0  0  0
M  END
>  <MODEL>
7

>  <REMARK>
 VINA RESULT:      -8.7      2.412     10.038
  Name = 
  4 active torsions:
  status: ('A' for Active; 'I' for Inactive)
    1  A    between atoms: C_3  and  C_25
    2  A    between atoms: C_7  and  C_11
    3  A    between atoms: C_8  and  C_18
    4  A    between atoms: C_18  and  C_30
                            x       y       z     vdW  Elec       q    Type
                         _______ _______ _______ _____ _____    ______ ____

>  <TORSDO>
F 4

$$$$
=
 OpenBabel11052420143D

 34 39  0  0  1  0  0  0  0  0999 V2000
  190.3090  176.7540  144.7760 C   0  0  0  0  0  0  0  0  0  0  0  0
  193.3580  175.1490  146.5380 C   0  0  0  0  0  2  0  0  0  0  0  0
  190.9590  175.2920  147.1220 C   0  0  0  0  0  3  0  0  0  0  0  0
  188.4270  177.7810  143.5860 C   0  0  0  0  0  0  0  0  0  0  0  0
  189.8170  177.4900  143.6770 C   0  0  0  0  0  3  0  0  0  0  0  0
  188.0590  176.6260  145.6610 C   0  0  0  0  0  0  0  0  0  0  0  0
  187.4930  176.0250  146.8800 C   0  0  0  0  0  3  0  0  0  0  0  0
  187.5280  177.3500  144.5950 C   0  0  0  0  0  3  0  0  0  0  0  0
  189.6530  175.6740  146.8340 C   0  0  0  0  0  0  0  0  0  0  0  0
  189.3800  176.3630  145.7140 C   0  0  0  0  0  0  0  0  0  0  0  0
  188.4490  175.4570  147.5740 N   0  0  0  0  0  0  0  0  0  0  0  0
  194.4570  176.1590  146.2350 C   0  0  0  0  0  2  0  0  0  0  0  0
  194.9380  176.0580  144.7840 C   0  0  2  0  0  3  0  0  0  0  0  0
  193.8040  175.8820  143.7730 C   0  0  0  0  0  2  0  0  0  0  0  0
  191.9830  175.6600  146.2110 C   0  0  0  0  0  0  0  0  0  0  0  0
  192.6970  176.8900  144.0290 C   0  0  0  0  0  2  0  0  0  0  0  0
  191.6590  176.3920  145.0050 C   0  0  0  0  0  0  0  0  0  0  0  0
  195.9620  174.9810  144.6250 C   0  0  0  0  0  0  0  0  0  0  0  0
  196.5630  174.4360  145.7510 O   0  0  0  0  0  1  0  0  0  0  0  0
  196.2760  174.5570  143.4810 O   0  0  0  0  0  0  0  0  0  0  0  0
  187.9170  178.5830  142.4370 C   0  0  0  0  0  2  0  0  0  0  0  0
  184.3480  179.0580  143.6210 C   0  0  0  0  0  3  0  0  0  0  0  0
  185.7070  178.2200  141.3160 C   0  0  0  0  0  3  0  0  0  0  0  0
  181.5030  178.2710  141.3810 C   0  0  0  0  0  0  0  0  0  0  0  0
  182.2280  178.6740  142.5110 C   0  0  0  0  0  3  0  0  0  0  0  0
  183.6250  178.6590  142.4940 C   0  0  0  0  0  0  0  0  0  0  0  0
  183.5870  177.8340  140.2070 C   0  0  0  0  0  3  0  0  0  0  0  0
  184.3100  178.2360  141.3320 C   0  0  0  0  0  0  0  0  0  0  0  0
  182.1900  177.8520  140.2320 C   0  0  0  0  0  3  0  0  0  0  0  0
  186.4260  178.6260  142.4460 C   0  0  0  0  0  0  0  0  0  0  0  0
  185.7450  179.0400  143.5980 C   0  0  0  0  0  3  0  0  0  0  0  0
  180.0310  178.2890  141.4060 C   0  0  0  0  0  0  0  0  0  0  0  0
  179.3960  177.5020  142.1570 O   0  0  0  0  0  1  0  0  0  0  0  0
  179.3280  179.1760  140.6000 O   0  0  0  0  0  0  0  0  0  0  0  0
  1 17  2  0  0  0  0
  1 10  1  0  0  0  0
  4  5  2  0  0  0  0
  4  8  1  0  0  0  0
  5  1  1  0  0  0  0
  6 10  1  0  0  0  0
  6  7  1  0  0  0  0
  7 11  2  0  0  0  0
  8  6  2  0  0  0  0
  9  3  1  0  0  0  0
  9 11  1  0  0  0  0
 10  9  2  0  0  0  0
 12  2  1  0  0  0  0
 13 18  1  1  0  0  0
 13 12  1  0  0  0  0
 14 16  1  0  0  0  0
 14 13  1  0  0  0  0
 15  2  1  0  0  0  0
 15  3  2  0  0  0  0
 16 17  1  0  0  0  0
 17 15  1  0  0  0  0
 18 19  1  0  0  0  0
 20 18  2  0  0  0  0
 21 30  1  0  0  0  0
 21  4  1  0  0  0  0
 23 28  2  0  0  0  0
 23 30  1  0  0  0  0
 24 32  1  0  0  0  0
 24 25  2  0  0  0  0
 26 25  1  0  0  0  0
 26 22  2  0  0  0  0
 27 29  2  0  0  0  0
 27 28  1  0  0  0  0
 28 26  1  0  0  0  0
 29 24  1  0  0  0  0
 30 31  2  0  0  0  0
 31 22  1  0  0  0  0
 32 33  1  0  0  0  0
 34 32  2  0  0  0  0
M  END
>  <MODEL>
8

>  <REMARK>
 VINA RESULT:      -8.6      3.508     11.130
  Name = 
  4 active torsions:
  status: ('A' for Active; 'I' for Inactive)
    1  A    between atoms: C_3  and  C_25
    2  A    between atoms: C_7  and  C_11
    3  A    between atoms: C_8  and  C_18
    4  A    between atoms: C_18  and  C_30
                            x       y       z     vdW  Elec       q    Type
                         _______ _______ _______ _____ _____    ______ ____

>  <TORSDO>
F 4

$$$$
=
 OpenBabel11052420143D

 34 39  0  0  1  0  0  0  0  0999 V2000
  192.9090  172.3600  144.0780 C   0  0  0  0  0  0  0  0  0  0  0  0
  194.4000  168.8880  144.9140 C   0  0  0  0  0  2  0  0  0  0  0  0
  192.5680  169.6180  143.4220 C   0  0  0  0  0  3  0  0  0  0  0  0
  192.0350  174.5990  143.5890 C   0  0  0  0  0  0  0  0  0  0  0  0
  192.9350  173.7540  144.2980 C   0  0  0  0  0  3  0  0  0  0  0  0
  191.1150  172.6730  142.4830 C   0  0  0  0  0  0  0  0  0  0  0  0
  190.3320  171.7390  141.6580 C   0  0  0  0  0  3  0  0  0  0  0  0
  191.1020  174.0550  142.6690 C   0  0  0  0  0  3  0  0  0  0  0  0
  191.7940  170.6150  142.8360 C   0  0  0  0  0  0  0  0  0  0  0  0
  191.9840  171.9020  143.1680 C   0  0  0  0  0  0  0  0  0  0  0  0
  190.7430  170.5130  141.8720 N   0  0  0  0  0  0  0  0  0  0  0  0
  194.7050  169.0320  146.3990 C   0  0  0  0  0  2  0  0  0  0  0  0
  195.9480  169.8930  146.6440 C   0  0  2  0  0  3  0  0  0  0  0  0
  196.0190  171.1360  145.7570 C   0  0  0  0  0  2  0  0  0  0  0  0
  193.5440  170.0010  144.3790 C   0  0  0  0  0  0  0  0  0  0  0  0
  194.6930  171.8790  145.7700 C   0  0  0  0  0  2  0  0  0  0  0  0
  193.7360  171.3980  144.7080 C   0  0  0  0  0  0  0  0  0  0  0  0
  197.2000  169.0840  146.5230 C   0  0  0  0  0  0  0  0  0  0  0  0
  197.5420  168.1940  147.5320 O   0  0  0  0  0  1  0  0  0  0  0  0
  197.9410  169.1960  145.5100 O   0  0  0  0  0  0  0  0  0  0  0  0
  192.0460  176.0670  143.8460 C   0  0  0  0  0  2  0  0  0  0  0  0
  188.7930  177.8910  143.1720 C   0  0  0  0  0  3  0  0  0  0  0  0
  189.9380  176.3020  145.1780 C   0  0  0  0  0  3  0  0  0  0  0  0
  186.0520  177.8300  145.6640 C   0  0  0  0  0  0  0  0  0  0  0  0
  186.7770  178.1120  144.4990 C   0  0  0  0  0  3  0  0  0  0  0  0
  188.0690  177.6070  144.3320 C   0  0  0  0  0  0  0  0  0  0  0  0
  187.9240  176.5250  146.5050 C   0  0  0  0  0  3  0  0  0  0  0  0
  188.6470  176.8070  145.3440 C   0  0  0  0  0  0  0  0  0  0  0  0
  186.6320  177.0350  146.6640 C   0  0  0  0  0  3  0  0  0  0  0  0
  190.6570  176.5840  144.0110 C   0  0  0  0  0  0  0  0  0  0  0  0
  190.0850  177.3830  143.0120 C   0  0  0  0  0  3  0  0  0  0  0  0
  184.6910  178.3660  145.8330 C   0  0  0  0  0  0  0  0  0  0  0  0
  184.0940  178.2580  146.9370 O   0  0  0  0  0  1  0  0  0  0  0  0
  184.0510  178.9980  144.7730 O   0  0  0  0  0  0  0  0  0  0  0  0
  1  5  1  0  0  0  0
  1 17  1  0  0  0  0
  2 12  1  0  0  0  0
  3 15  1  0  0  0  0
  4 21  1  0  0  0  0
  4  5  2  0  0  0  0
  6  8  2  0  0  0  0
  6 10  1  0  0  0  0
  7 11  2  0  0  0  0
  7  6  1  0  0  0  0
  8  4  1  0  0  0  0
  9 10  1  0  0  0  0
  9  3  2  0  0  0  0
 10  1  2  0  0  0  0
 11  9  1  0  0  0  0
 12 13  1  0  0  0  0
 13 18  1  6  0  0  0
 14 16  1  0  0  0  0
 14 13  1  0  0  0  0
 15 17  2  0  0  0  0
 15  2  1  0  0  0  0
 17 16  1  0  0  0  0
 18 19  1  0  0  0  0
 20 18  2  0  0  0  0
 21 30  1  0  0  0  0
 22 26  1  0  0  0  0
 23 28  1  0  0  0  0
 24 32  1  0  0  0  0
 24 29  1  0  0  0  0
 25 24  2  0  0  0  0
 26 25  1  0  0  0  0
 26 28  2  0  0  0  0
 27 29  2  0  0  0  0
 28 27  1  0  0  0  0
 30 23  2  0  0  0  0
 31 22  2  0  0  0  0
 31 30  1  0  0  0  0
 32 33  1  0  0  0  0
 34 32  2  0  0  0  0
M  END
>  <MODEL>
9

>  <REMARK>
 VINA RESULT:      -8.5      1.693      9.765
  Name = 
  4 active torsions:
  status: ('A' for Active; 'I' for Inactive)
    1  A    between atoms: C_3  and  C_25
    2  A    between atoms: C_7  and  C_11
    3  A    between atoms: C_8  and  C_18
    4  A    between atoms: C_18  and  C_30
                            x       y       z     vdW  Elec       q    Type
                         _______ _______ _______ _____ _____    ______ ____

>  <TORSDO>
F 4

$$$$
