=
 OpenBabel11052421003D

 43 47  0  0  1  0  0  0  0  0999 V2000
  185.3290  178.4620  146.9870 C   0  0  1  0  0  3  0  0  0  0  0  0
  189.7230  177.0940  144.8520 C   0  0  0  0  0  0  0  0  0  0  0  0
  189.0300  175.7340  142.5520 C   0  0  2  0  0  3  0  0  0  0  0  0
  187.6100  177.6210  146.7190 C   0  0  0  0  0  0  0  0  0  0  0  0
  184.8060  177.3520  146.0650 C   0  0  0  0  0  2  0  0  0  0  0  0
  184.4350  178.6800  148.0170 F   0  0  0  0  0  0  0  0  0  0  0  0
  187.2620  177.3930  145.2630 C   0  0  2  0  0  3  0  0  0  0  0  0
  186.6770  178.1070  147.5430 C   0  0  0  0  0  3  0  0  0  0  0  0
  185.8790  176.7370  145.1420 C   0  0  0  0  0  2  0  0  0  0  0  0
  188.0640  176.5590  143.1560 O   0  0  0  0  0  0  0  0  0  0  0  0
  188.3290  176.5590  144.5420 C   0  0  1  0  0  3  0  0  0  0  0  0
  190.0530  177.5360  146.2590 C   0  0  0  0  0  2  0  0  0  0  0  0
  190.6830  177.0270  143.9070 C   0  0  0  0  0  0  0  0  0  0  0  0
  190.3810  176.4470  142.5540 C   0  0  0  0  0  2  0  0  0  0  0  0
  188.9450  177.2070  147.2580 C   0  0  0  0  0  2  0  0  0  0  0  0
  188.6350  175.3900  141.1210 C   0  0  2  0  0  3  0  0  0  0  0  0
  187.5800  176.2010  140.6910 O   0  0  0  0  0  1  0  0  0  0  0  0
  188.2720  174.0170  141.0290 O   0  0  0  0  0  0  0  0  0  0  0  0
  188.7120  173.1970  139.9830 C   0  0  0  0  0  0  0  0  0  0  0  0
  188.6520  173.5980  138.7900 O   0  0  0  0  0  0  0  0  0  0  0  0
  189.2320  171.9310  140.2450 O   0  0  0  0  0  0  0  0  0  0  0  0
  190.5580  171.7360  140.7260 C   0  0  1  0  0  3  0  0  0  0  0  0
  191.1930  172.9730  140.8900 O   0  0  0  0  0  0  0  0  0  0  0  0
  192.9090  174.1320  140.3070 C   0  0  0  0  0  1  0  0  0  0  0  0
  192.3000  172.8840  140.1790 O   0  0  0  0  0  0  0  0  0  0  0  0
  190.5340  170.9800  142.0570 C   0  0  2  0  0  3  0  0  0  0  0  0
  190.7130  171.9140  143.2140 C   0  0  0  0  0  0  0  0  0  0  0  0
  192.1990  173.0970  144.7230 C   0  0  0  0  0  3  0  0  0  0  0  0
  189.8000  173.2970  144.9890 C   0  0  0  0  0  3  0  0  0  0  0  0
  191.0950  173.6250  145.4000 C   0  0  0  0  0  3  0  0  0  0  0  0
  189.6080  172.4420  143.8990 C   0  0  0  0  0  3  0  0  0  0  0  0
  192.0070  172.2410  143.6340 C   0  0  0  0  0  3  0  0  0  0  0  0
  191.4980  169.9660  142.0760 O   0  0  0  0  0  0  0  0  0  0  0  0
  190.8450  168.8400  141.5730 C   0  0  0  0  0  1  0  0  0  0  0  0
  192.0200  177.4890  144.1470 N   0  0  0  0  0  2  0  0  0  0  0  0
  194.6650  175.6120  146.0230 C   0  0  0  0  0  3  0  0  0  0  0  0
  195.3890  175.0460  144.9640 C   0  0  0  0  0  0  0  0  0  0  0  0
  193.8750  176.0950  143.3860 C   0  0  0  0  0  3  0  0  0  0  0  0
  193.5510  176.4140  145.7630 C   0  0  0  0  0  3  0  0  0  0  0  0
  193.1430  176.6510  144.4410 C   0  0  0  0  0  0  0  0  0  0  0  0
  194.9900  175.2940  143.6460 C   0  0  0  0  0  3  0  0  0  0  0  0
  196.5020  174.2420  145.2010 O   0  0  0  0  0  0  0  0  0  0  0  0
  196.7650  173.7650  146.4250 O   0  0  0  0  0  1  0  0  0  0  0  0
  1  8  1  0  0  0  0
  1  6  1  1  0  0  0
  2 12  1  0  0  0  0
  3 16  1  6  0  0  0
  3 14  1  0  0  0  0
  3 10  1  0  0  0  0
  4 15  1  0  0  0  0
  4  8  2  0  0  0  0
  5  1  1  0  0  0  0
  7  9  1  1  0  0  0
  7  4  1  0  0  0  0
  9  5  1  0  0  0  0
 11 10  1  6  0  0  0
 11  2  1  0  0  0  0
 11  7  1  0  0  0  0
 12 15  1  0  0  0  0
 13 35  1  0  0  0  0
 13  2  2  0  0  0  0
 14 13  1  0  0  0  0
 16 17  1  1  0  0  0
 18 16  1  0  0  0  0
 19 21  1  0  0  0  0
 19 18  1  0  0  0  0
 20 19  2  0  0  0  0
 22 21  1  1  0  0  0
 22 23  1  0  0  0  0
 22 26  1  0  0  0  0
 25 24  1  0  0  0  0
 25 23  1  0  0  0  0
 26 33  1  6  0  0  0
 26 27  1  0  0  0  0
 27 32  2  0  0  0  0
 27 31  1  0  0  0  0
 28 30  2  0  0  0  0
 29 30  1  0  0  0  0
 31 29  2  0  0  0  0
 32 28  1  0  0  0  0
 34 33  1  0  0  0  0
 35 40  1  0  0  0  0
 37 42  1  0  0  0  0
 37 36  2  0  0  0  0
 38 41  2  0  0  0  0
 38 40  1  0  0  0  0
 39 36  1  0  0  0  0
 40 39  2  0  0  0  0
 41 37  1  0  0  0  0
 42 43  1  0  0  0  0
M  END
>  <MODEL>
1

>  <REMARK>
 VINA RESULT:      -7.0      0.000      0.000
  Name = 
  13 active torsions:
  status: ('A' for Active; 'I' for Inactive)
    1  A    between atoms: N_1  and  C_34
    2  A    between atoms: N_1  and  C_35
    3  A    between atoms: C_2  and  O_6
    4  A    between atoms: C_2  and  C_13
    5  A    between atoms: O_3  and  C_4
    6  A    between atoms: O_3  and  C_12
    7  A    between atoms: C_4  and  O_15
    8  A    between atoms: C_4  and  C_22
    9  A    between atoms: O_6  and  C_12
   10  A    between atoms: C_11  and  C_22
   11  A    between atoms: O_14  and  C_22
   12  A    between atoms: O_15  and  O_42
   13  A    between atoms: C_19  and  O_25
                            x       y       z     vdW  Elec       q    Type
                         _______ _______ _______ _____ _____    ______ ____

>  <TORSDO>
F 13

$$$$
=
 OpenBabel11052421003D

 43 47  0  0  1  0  0  0  0  0999 V2000
  184.7500  177.8600  146.4400 C   0  0  1  0  0  3  0  0  0  0  0  0
  189.0270  176.6040  144.0180 C   0  0  0  0  0  0  0  0  0  0  0  0
  190.9680  176.4700  145.9760 C   0  0  2  0  0  3  0  0  0  0  0  0
  186.5300  177.8020  144.7640 C   0  0  0  0  0  0  0  0  0  0  0  0
  185.7620  178.3020  147.5070 C   0  0  0  0  0  2  0  0  0  0  0  0
  183.5480  178.5120  146.6310 F   0  0  0  0  0  0  0  0  0  0  0  0
  187.4080  177.2070  145.8440 C   0  0  2  0  0  3  0  0  0  0  0  0
  185.2700  178.1360  145.0600 C   0  0  0  0  0  3  0  0  0  0  0  0
  187.2300  177.9760  147.1610 C   0  0  0  0  0  2  0  0  0  0  0  0
  189.6180  176.4200  146.3700 O   0  0  0  0  0  0  0  0  0  0  0  0
  188.8850  177.1700  145.4270 C   0  0  1  0  0  3  0  0  0  0  0  0
  188.0370  177.0090  142.9510 C   0  0  0  0  0  2  0  0  0  0  0  0
  190.1150  175.8680  143.7070 C   0  0  0  0  0  0  0  0  0  0  0  0
  191.1700  175.5950  144.7410 C   0  0  0  0  0  2  0  0  0  0  0  0
  187.0910  178.1170  143.4110 C   0  0  0  0  0  2  0  0  0  0  0  0
  191.8810  175.9900  147.0980 C   0  0  2  0  0  3  0  0  0  0  0  0
  191.1820  175.9190  148.3070 O   0  0  0  0  0  1  0  0  0  0  0  0
  193.0000  176.8600  147.2250 O   0  0  0  0  0  0  0  0  0  0  0  0
  194.1830  176.6630  146.5030 C   0  0  0  0  0  0  0  0  0  0  0  0
  194.7410  177.6290  145.9160 O   0  0  0  0  0  0  0  0  0  0  0  0
  194.7680  175.4000  146.4310 O   0  0  0  0  0  0  0  0  0  0  0  0
  195.4580  174.9440  145.2730 C   0  0  1  0  0  3  0  0  0  0  0  0
  196.0960  173.7280  145.5460 O   0  0  0  0  0  0  0  0  0  0  0  0
  197.9400  173.9660  144.4640 C   0  0  0  0  0  1  0  0  0  0  0  0
  197.3640  174.0430  145.7310 O   0  0  0  0  0  0  0  0  0  0  0  0
  194.4820  174.7710  144.1070 C   0  0  2  0  0  3  0  0  0  0  0  0
  194.1270  173.3300  143.9060 C   0  0  0  0  0  0  0  0  0  0  0  0
  192.7770  171.4120  144.5280 C   0  0  0  0  0  3  0  0  0  0  0  0
  194.4720  171.1890  142.8130 C   0  0  0  0  0  3  0  0  0  0  0  0
  193.4560  170.6280  143.5900 C   0  0  0  0  0  3  0  0  0  0  0  0
  194.8100  172.5370  142.9710 C   0  0  0  0  0  3  0  0  0  0  0  0
  193.1140  172.7600  144.6860 C   0  0  0  0  0  3  0  0  0  0  0  0
  194.9990  175.3290  142.9320 O   0  0  0  0  0  0  0  0  0  0  0  0
  193.9900  176.1670  142.4580 C   0  0  0  0  0  1  0  0  0  0  0  0
  190.3180  175.3300  142.3920 N   0  0  0  0  0  2  0  0  0  0  0  0
  191.3700  172.1020  140.8080 C   0  0  0  0  0  3  0  0  0  0  0  0
  190.5080  171.2000  141.4490 C   0  0  0  0  0  0  0  0  0  0  0  0
  189.5420  173.0360  142.7050 C   0  0  0  0  0  3  0  0  0  0  0  0
  191.3180  173.4630  141.1170 C   0  0  0  0  0  3  0  0  0  0  0  0
  190.4100  173.9360  142.0760 C   0  0  0  0  0  0  0  0  0  0  0  0
  189.5940  171.6750  142.3950 C   0  0  0  0  0  3  0  0  0  0  0  0
  190.5450  169.8380  141.1570 O   0  0  0  0  0  0  0  0  0  0  0  0
  191.5310  169.0560  141.6170 O   0  0  0  0  0  1  0  0  0  0  0  0
  1  6  1  1  0  0  0
  1  5  1  0  0  0  0
  3 10  1  0  0  0  0
  3 16  1  1  0  0  0
  4  8  2  0  0  0  0
  4  7  1  0  0  0  0
  7  9  1  1  0  0  0
  8  1  1  0  0  0  0
  9  5  1  0  0  0  0
 11  2  1  6  0  0  0
 11  7  1  0  0  0  0
 11 10  1  0  0  0  0
 12 15  1  0  0  0  0
 12  2  1  0  0  0  0
 13  2  2  0  0  0  0
 13 14  1  0  0  0  0
 14  3  1  0  0  0  0
 15  4  1  0  0  0  0
 16 18  1  0  0  0  0
 16 17  1  1  0  0  0
 19 18  1  0  0  0  0
 20 19  2  0  0  0  0
 21 19  1  0  0  0  0
 22 23  1  1  0  0  0
 22 21  1  0  0  0  0
 23 25  1  0  0  0  0
 24 25  1  0  0  0  0
 26 33  1  6  0  0  0
 26 22  1  0  0  0  0
 27 26  1  0  0  0  0
 27 32  1  0  0  0  0
 28 32  2  0  0  0  0
 29 31  1  0  0  0  0
 29 30  2  0  0  0  0
 30 28  1  0  0  0  0
 31 27  2  0  0  0  0
 34 33  1  0  0  0  0
 35 13  1  0  0  0  0
 36 39  2  0  0  0  0
 36 37  1  0  0  0  0
 37 41  2  0  0  0  0
 39 40  1  0  0  0  0
 40 35  1  0  0  0  0
 40 38  2  0  0  0  0
 41 38  1  0  0  0  0
 42 37  1  0  0  0  0
 42 43  1  0  0  0  0
M  END
>  <MODEL>
2

>  <REMARK>
 VINA RESULT:      -6.8      2.204      5.667
  Name = 
  13 active torsions:
  status: ('A' for Active; 'I' for Inactive)
    1  A    between atoms: N_1  and  C_34
    2  A    between atoms: N_1  and  C_35
    3  A    between atoms: C_2  and  O_6
    4  A    between atoms: C_2  and  C_13
    5  A    between atoms: O_3  and  C_4
    6  A    between atoms: O_3  and  C_12
    7  A    between atoms: C_4  and  O_15
    8  A    between atoms: C_4  and  C_22
    9  A    between atoms: O_6  and  C_12
   10  A    between atoms: C_11  and  C_22
   11  A    between atoms: O_14  and  C_22
   12  A    between atoms: O_15  and  O_42
   13  A    between atoms: C_19  and  O_25
                            x       y       z     vdW  Elec       q    Type
                         _______ _______ _______ _____ _____    ______ ____

>  <TORSDO>
F 13

$$$$
=
 OpenBabel11052421003D

 43 47  0  0  1  0  0  0  0  0999 V2000
  184.8520  177.6360  146.2790 C   0  0  1  0  0  3  0  0  0  0  0  0
  188.8500  175.4260  144.0730 C   0  0  0  0  0  0  0  0  0  0  0  0
  190.9200  175.6810  145.8800 C   0  0  2  0  0  3  0  0  0  0  0  0
  186.4940  176.9790  144.5910 C   0  0  0  0  0  0  0  0  0  0  0  0
  185.9660  178.2720  147.1230 C   0  0  0  0  0  2  0  0  0  0  0  0
  183.7090  178.4100  146.3460 F   0  0  0  0  0  0  0  0  0  0  0  0
  187.4130  176.6350  145.7430 C   0  0  2  0  0  3  0  0  0  0  0  0
  185.2830  177.4800  144.8500 C   0  0  0  0  0  3  0  0  0  0  0  0
  187.3810  177.7480  146.8010 C   0  0  0  0  0  2  0  0  0  0  0  0
  189.6040  175.8490  146.3460 O   0  0  0  0  0  0  0  0  0  0  0  0
  188.8490  176.3680  145.2730 C   0  0  1  0  0  3  0  0  0  0  0  0
  187.8100  175.6000  142.9910 C   0  0  0  0  0  2  0  0  0  0  0  0
  189.8640  174.5500  143.9200 C   0  0  0  0  0  0  0  0  0  0  0  0
  190.9760  174.4870  144.9290 C   0  0  0  0  0  2  0  0  0  0  0  0
  186.9700  176.8640  143.1750 C   0  0  0  0  0  2  0  0  0  0  0  0
  191.8840  175.4570  147.0400 C   0  0  2  0  0  3  0  0  0  0  0  0
  191.1830  175.2820  148.2370 O   0  0  0  0  0  1  0  0  0  0  0  0
  192.7830  176.5540  147.1490 O   0  0  0  0  0  0  0  0  0  0  0  0
  194.0420  176.5500  146.5360 C   0  0  0  0  0  0  0  0  0  0  0  0
  194.6710  177.6290  146.3620 O   0  0  0  0  0  0  0  0  0  0  0  0
  194.6240  175.3540  146.1190 O   0  0  0  0  0  0  0  0  0  0  0  0
  194.5040  174.8720  144.7860 C   0  0  1  0  0  3  0  0  0  0  0  0
  194.9980  175.8250  143.8880 O   0  0  0  0  0  0  0  0  0  0  0  0
  196.8040  176.8390  143.3050 C   0  0  0  0  0  1  0  0  0  0  0  0
  196.3100  175.7060  143.9510 O   0  0  0  0  0  0  0  0  0  0  0  0
  195.2700  173.5570  144.6250 C   0  0  2  0  0  3  0  0  0  0  0  0
  194.4760  172.5580  143.8420 C   0  0  0  0  0  0  0  0  0  0  0  0
  192.5690  171.0660  143.6980 C   0  0  0  0  0  3  0  0  0  0  0  0
  194.1430  171.1920  141.8620 C   0  0  0  0  0  3  0  0  0  0  0  0
  192.9820  170.6560  142.4270 C   0  0  0  0  0  3  0  0  0  0  0  0
  194.8910  172.1390  142.5680 C   0  0  0  0  0  3  0  0  0  0  0  0
  193.3170  172.0130  144.4040 C   0  0  0  0  0  3  0  0  0  0  0  0
  195.6420  173.0370  145.8710 O   0  0  0  0  0  0  0  0  0  0  0  0
  196.9170  172.5080  145.6720 C   0  0  0  0  0  1  0  0  0  0  0  0
  189.9350  173.6560  142.7990 N   0  0  0  0  0  2  0  0  0  0  0  0
  191.7130  173.0520  139.5560 C   0  0  0  0  0  3  0  0  0  0  0  0
  192.8120  173.9120  139.6940 C   0  0  0  0  0  0  0  0  0  0  0  0
  191.9910  174.5930  141.8720 C   0  0  0  0  0  3  0  0  0  0  0  0
  190.7580  172.9660  140.5720 C   0  0  0  0  0  3  0  0  0  0  0  0
  190.8860  173.7450  141.7320 C   0  0  0  0  0  0  0  0  0  0  0  0
  192.9470  174.6790  140.8570 C   0  0  0  0  0  3  0  0  0  0  0  0
  193.7760  174.0150  138.6920 O   0  0  0  0  0  0  0  0  0  0  0  0
  194.3570  175.1880  138.4070 O   0  0  0  0  0  1  0  0  0  0  0  0
  1  6  1  6  0  0  0
  1  5  1  0  0  0  0
  3 10  1  0  0  0  0
  3 16  1  1  0  0  0
  4  8  2  0  0  0  0
  4  7  1  0  0  0  0
  7  9  1  1  0  0  0
  8  1  1  0  0  0  0
  9  5  1  0  0  0  0
 11  2  1  6  0  0  0
 11  7  1  0  0  0  0
 11 10  1  0  0  0  0
 12 15  1  0  0  0  0
 12  2  1  0  0  0  0
 13  2  2  0  0  0  0
 13 14  1  0  0  0  0
 14  3  1  0  0  0  0
 15  4  1  0  0  0  0
 16 18  1  0  0  0  0
 16 17  1  1  0  0  0
 19 18  1  0  0  0  0
 20 19  2  0  0  0  0
 21 19  1  0  0  0  0
 22 23  1  6  0  0  0
 22 21  1  0  0  0  0
 23 25  1  0  0  0  0
 24 25  1  0  0  0  0
 26 22  1  0  0  0  0
 26 33  1  1  0  0  0
 27 32  1  0  0  0  0
 27 26  1  0  0  0  0
 28 32  2  0  0  0  0
 29 30  2  0  0  0  0
 29 31  1  0  0  0  0
 30 28  1  0  0  0  0
 31 27  2  0  0  0  0
 34 33  1  0  0  0  0
 35 13  1  0  0  0  0
 36 37  2  0  0  0  0
 36 39  1  0  0  0  0
 37 41  1  0  0  0  0
 39 40  2  0  0  0  0
 40 38  1  0  0  0  0
 40 35  1  0  0  0  0
 41 38  2  0  0  0  0
 42 37  1  0  0  0  0
 43 42  1  0  0  0  0
M  END
>  <MODEL>
3

>  <REMARK>
 VINA RESULT:      -6.7      2.633      5.468
  Name = 
  13 active torsions:
  status: ('A' for Active; 'I' for Inactive)
    1  A    between atoms: N_1  and  C_34
    2  A    between atoms: N_1  and  C_35
    3  A    between atoms: C_2  and  O_6
    4  A    between atoms: C_2  and  C_13
    5  A    between atoms: O_3  and  C_4
    6  A    between atoms: O_3  and  C_12
    7  A    between atoms: C_4  and  O_15
    8  A    between atoms: C_4  and  C_22
    9  A    between atoms: O_6  and  C_12
   10  A    between atoms: C_11  and  C_22
   11  A    between atoms: O_14  and  C_22
   12  A    between atoms: O_15  and  O_42
   13  A    between atoms: C_19  and  O_25
                            x       y       z     vdW  Elec       q    Type
                         _______ _______ _______ _____ _____    ______ ____

>  <TORSDO>
F 13

$$$$
=
 OpenBabel11052421003D

 43 47  0  0  1  0  0  0  0  0999 V2000
  193.6110  175.5390  146.1260 C   0  0  1  0  0  3  0  0  0  0  0  0
  189.9360  176.4010  142.7370 C   0  0  0  0  0  0  0  0  0  0  0  0
  189.6030  174.0140  141.3910 C   0  0  2  0  0  3  0  0  0  0  0  0
  192.2630  176.6250  144.3990 C   0  0  0  0  0  0  0  0  0  0  0  0
  193.8840  174.3610  145.1800 C   0  0  0  0  0  2  0  0  0  0  0  0
  194.7420  175.8210  146.8670 F   0  0  0  0  0  0  0  0  0  0  0  0
  191.7220  175.2480  144.0780 C   0  0  2  0  0  3  0  0  0  0  0  0
  193.1830  176.7560  145.3590 C   0  0  0  0  0  3  0  0  0  0  0  0
  192.8650  174.2240  144.0290 C   0  0  0  0  0  2  0  0  0  0  0  0
  190.2690  173.9940  142.6300 O   0  0  0  0  0  0  0  0  0  0  0  0
  190.9220  175.2370  142.7690 C   0  0  1  0  0  3  0  0  0  0  0  0
  190.3680  177.7550  143.2480 C   0  0  0  0  0  2  0  0  0  0  0  0
  188.7470  176.2440  142.1190 C   0  0  0  0  0  0  0  0  0  0  0  0
  188.3860  174.9320  141.4810 C   0  0  0  0  0  2  0  0  0  0  0  0
  191.8590  177.8140  143.5810 C   0  0  0  0  0  2  0  0  0  0  0  0
  189.1580  172.6130  140.9890 C   0  0  2  0  0  3  0  0  0  0  0  0
  189.5350  171.6780  141.9590 O   0  0  0  0  0  1  0  0  0  0  0  0
  189.7140  172.2650  139.7260 O   0  0  0  0  0  0  0  0  0  0  0  0
  190.7300  171.3110  139.5950 C   0  0  0  0  0  0  0  0  0  0  0  0
  190.4520  170.0810  139.5790 O   0  0  0  0  0  0  0  0  0  0  0  0
  192.0610  171.7050  139.4720 O   0  0  0  0  0  0  0  0  0  0  0  0
  192.7450  172.4150  140.4990 C   0  0  1  0  0  3  0  0  0  0  0  0
  192.8790  171.6030  141.6320 O   0  0  0  0  0  0  0  0  0  0  0  0
  194.1340  170.0660  142.4650 C   0  0  0  0  0  1  0  0  0  0  0  0
  193.7100  170.6450  141.2690 O   0  0  0  0  0  0  0  0  0  0  0  0
  194.1250  172.8590  140.0090 C   0  0  2  0  0  3  0  0  0  0  0  0
  194.6510  173.9960  140.8290 C   0  0  0  0  0  0  0  0  0  0  0  0
  194.5400  176.3380  141.4550 C   0  0  0  0  0  3  0  0  0  0  0  0
  196.2340  174.9070  142.4300 C   0  0  0  0  0  3  0  0  0  0  0  0
  195.6300  176.1610  142.3140 C   0  0  0  0  0  3  0  0  0  0  0  0
  195.7480  173.8260  141.6870 C   0  0  0  0  0  3  0  0  0  0  0  0
  194.0550  175.2570  140.7130 C   0  0  0  0  0  3  0  0  0  0  0  0
  194.0920  173.1930  138.6500 O   0  0  0  0  0  0  0  0  0  0  0  0
  195.2310  172.5980  138.1070 C   0  0  0  0  0  1  0  0  0  0  0  0
  187.7880  177.3090  142.0330 N   0  0  0  0  0  2  0  0  0  0  0  0
  185.5370  177.1010  145.0210 C   0  0  0  0  0  3  0  0  0  0  0  0
  184.9620  178.3800  145.0070 C   0  0  0  0  0  0  0  0  0  0  0  0
  186.2660  178.9320  143.0390 C   0  0  0  0  0  3  0  0  0  0  0  0
  186.4730  176.7420  144.0470 C   0  0  0  0  0  3  0  0  0  0  0  0
  186.8510  177.6600  143.0570 C   0  0  0  0  0  0  0  0  0  0  0  0
  185.3300  179.2910  144.0110 C   0  0  0  0  0  3  0  0  0  0  0  0
  184.0290  178.7600  145.9700 O   0  0  0  0  0  0  0  0  0  0  0  0
  184.2770  178.6040  147.2770 O   0  0  0  0  0  1  0  0  0  0  0  0
  1  6  1  6  0  0  0
  2 11  1  0  0  0  0
  2 12  1  0  0  0  0
  3 16  1  1  0  0  0
  3 14  1  0  0  0  0
  3 10  1  0  0  0  0
  4  8  2  0  0  0  0
  5  1  1  0  0  0  0
  7  9  1  6  0  0  0
  7  4  1  0  0  0  0
  8  1  1  0  0  0  0
  9  5  1  0  0  0  0
 11 10  1  1  0  0  0
 11  7  1  0  0  0  0
 12 15  1  0  0  0  0
 13  2  2  0  0  0  0
 14 13  1  0  0  0  0
 15  4  1  0  0  0  0
 16 17  1  1  0  0  0
 18 16  1  0  0  0  0
 19 18  1  0  0  0  0
 20 19  2  0  0  0  0
 21 19  1  0  0  0  0
 22 21  1  6  0  0  0
 22 23  1  0  0  0  0
 25 23  1  0  0  0  0
 25 24  1  0  0  0  0
 26 33  1  6  0  0  0
 26 22  1  0  0  0  0
 26 27  1  0  0  0  0
 27 31  1  0  0  0  0
 28 30  2  0  0  0  0
 30 29  1  0  0  0  0
 31 29  2  0  0  0  0
 32 27  2  0  0  0  0
 32 28  1  0  0  0  0
 34 33  1  0  0  0  0
 35 13  1  0  0  0  0
 35 40  1  0  0  0  0
 37 36  1  0  0  0  0
 37 42  1  0  0  0  0
 38 40  2  0  0  0  0
 38 41  1  0  0  0  0
 39 36  2  0  0  0  0
 40 39  1  0  0  0  0
 41 37  2  0  0  0  0
 42 43  1  0  0  0  0
M  END
>  <MODEL>
4

>  <REMARK>
 VINA RESULT:      -6.4      3.023      6.464
  Name = 
  13 active torsions:
  status: ('A' for Active; 'I' for Inactive)
    1  A    between atoms: N_1  and  C_34
    2  A    between atoms: N_1  and  C_35
    3  A    between atoms: C_2  and  O_6
    4  A    between atoms: C_2  and  C_13
    5  A    between atoms: O_3  and  C_4
    6  A    between atoms: O_3  and  C_12
    7  A    between atoms: C_4  and  O_15
    8  A    between atoms: C_4  and  C_22
    9  A    between atoms: O_6  and  C_12
   10  A    between atoms: C_11  and  C_22
   11  A    between atoms: O_14  and  C_22
   12  A    between atoms: O_15  and  O_42
   13  A    between atoms: C_19  and  O_25
                            x       y       z     vdW  Elec       q    Type
                         _______ _______ _______ _____ _____    ______ ____

>  <TORSDO>
F 13

$$$$
=
 OpenBabel11052421003D

 43 47  0  0  1  0  0  0  0  0999 V2000
  196.1690  173.4580  145.9740 C   0  0  1  0  0  3  0  0  0  0  0  0
  191.5930  175.5630  145.3720 C   0  0  0  0  0  0  0  0  0  0  0  0
  190.2970  173.9850  143.5150 C   0  0  2  0  0  3  0  0  0  0  0  0
  194.4120  175.1330  145.6800 C   0  0  0  0  0  0  0  0  0  0  0  0
  195.7920  172.8180  144.6300 C   0  0  0  0  0  2  0  0  0  0  0  0
  197.5400  173.4330  146.1400 F   0  0  0  0  0  0  0  0  0  0  0  0
  193.5560  174.0120  145.1300 C   0  0  2  0  0  3  0  0  0  0  0  0
  195.6670  174.8690  146.0570 C   0  0  0  0  0  3  0  0  0  0  0  0
  194.3660  173.1540  144.1470 C   0  0  0  0  0  2  0  0  0  0  0  0
  191.4230  173.4550  144.1710 O   0  0  0  0  0  0  0  0  0  0  0  0
  192.2750  174.5390  144.4700 C   0  0  1  0  0  3  0  0  0  0  0  0
  192.4330  176.5760  146.1140 C   0  0  0  0  0  2  0  0  0  0  0  0
  190.2460  175.6440  145.3810 C   0  0  0  0  0  0  0  0  0  0  0  0
  189.4210  174.7260  144.5240 C   0  0  0  0  0  2  0  0  0  0  0  0
  193.9040  176.5420  145.7000 C   0  0  0  0  0  2  0  0  0  0  0  0
  189.4850  172.8810  142.8470 C   0  0  2  0  0  3  0  0  0  0  0  0
  189.2270  171.8440  143.7490 O   0  0  0  0  0  1  0  0  0  0  0  0
  190.1780  172.3840  141.7080 O   0  0  0  0  0  0  0  0  0  0  0  0
  190.3700  173.1560  140.5560 C   0  0  0  0  0  0  0  0  0  0  0  0
  189.4100  173.7980  140.0510 O   0  0  0  0  0  0  0  0  0  0  0  0
  191.6260  173.2360  139.9570 O   0  0  0  0  0  0  0  0  0  0  0  0
  192.8310  173.2720  140.7130 C   0  0  1  0  0  3  0  0  0  0  0  0
  193.2380  171.9690  141.0250 O   0  0  0  0  0  0  0  0  0  0  0  0
  192.9590  170.1230  139.9560 C   0  0  0  0  0  1  0  0  0  0  0  0
  193.4970  171.4060  139.8610 O   0  0  0  0  0  0  0  0  0  0  0  0
  193.9310  173.9880  139.9260 C   0  0  2  0  0  3  0  0  0  0  0  0
  194.9100  174.6520  140.8430 C   0  0  0  0  0  0  0  0  0  0  0  0
  197.1220  174.7080  141.8390 C   0  0  0  0  0  3  0  0  0  0  0  0
  195.4790  176.3780  142.4530 C   0  0  0  0  0  3  0  0  0  0  0  0
  196.7630  175.8400  142.5770 C   0  0  0  0  0  3  0  0  0  0  0  0
  194.5530  175.7850  141.5900 C   0  0  0  0  0  3  0  0  0  0  0  0
  196.1950  174.1150  140.9760 C   0  0  0  0  0  3  0  0  0  0  0  0
  193.3840  174.9080  139.0230 O   0  0  0  0  0  0  0  0  0  0  0  0
  194.2780  174.9340  137.9520 C   0  0  0  0  0  1  0  0  0  0  0  0
  189.5470  176.6030  146.1880 N   0  0  0  0  0  2  0  0  0  0  0  0
  185.8540  177.1480  146.5160 C   0  0  0  0  0  3  0  0  0  0  0  0
  185.6080  177.9600  145.3990 C   0  0  0  0  0  0  0  0  0  0  0  0
  187.9630  177.8690  144.8280 C   0  0  0  0  0  3  0  0  0  0  0  0
  187.1500  176.7010  146.7860 C   0  0  0  0  0  3  0  0  0  0  0  0
  188.2140  177.0690  145.9480 C   0  0  0  0  0  0  0  0  0  0  0  0
  186.6670  178.3150  144.5570 C   0  0  0  0  0  3  0  0  0  0  0  0
  184.3230  178.4180  145.1130 O   0  0  0  0  0  0  0  0  0  0  0  0
  184.0200  178.9280  143.9110 O   0  0  0  0  0  1  0  0  0  0  0  0
  1  8  1  0  0  0  0
  1  6  1  6  0  0  0
  2 13  2  0  0  0  0
  2 12  1  0  0  0  0
  3 16  1  1  0  0  0
  3 10  1  0  0  0  0
  3 14  1  0  0  0  0
  4 15  1  0  0  0  0
  4  8  2  0  0  0  0
  5  1  1  0  0  0  0
  7  9  1  6  0  0  0
  7  4  1  0  0  0  0
  9  5  1  0  0  0  0
 11 10  1  1  0  0  0
 11  7  1  0  0  0  0
 11  2  1  0  0  0  0
 13 35  1  0  0  0  0
 14 13  1  0  0  0  0
 15 12  1  0  0  0  0
 16 17  1  1  0  0  0
 18 16  1  0  0  0  0
 19 18  1  0  0  0  0
 20 19  2  0  0  0  0
 21 19  1  0  0  0  0
 22 21  1  6  0  0  0
 22 23  1  0  0  0  0
 25 24  1  0  0  0  0
 25 23  1  0  0  0  0
 26 33  1  6  0  0  0
 26 22  1  0  0  0  0
 26 27  1  0  0  0  0
 27 32  2  0  0  0  0
 27 31  1  0  0  0  0
 28 30  2  0  0  0  0
 29 30  1  0  0  0  0
 31 29  2  0  0  0  0
 32 28  1  0  0  0  0
 34 33  1  0  0  0  0
 36 39  1  0  0  0  0
 37 36  2  0  0  0  0
 38 40  1  0  0  0  0
 40 35  1  0  0  0  0
 40 39  2  0  0  0  0
 41 38  2  0  0  0  0
 41 37  1  0  0  0  0
 42 37  1  0  0  0  0
 43 42  1  0  0  0  0
M  END
>  <MODEL>
5

>  <REMARK>
 VINA RESULT:      -6.4      3.103      6.928
  Name = 
  13 active torsions:
  status: ('A' for Active; 'I' for Inactive)
    1  A    between atoms: N_1  and  C_34
    2  A    between atoms: N_1  and  C_35
    3  A    between atoms: C_2  and  O_6
    4  A    between atoms: C_2  and  C_13
    5  A    between atoms: O_3  and  C_4
    6  A    between atoms: O_3  and  C_12
    7  A    between atoms: C_4  and  O_15
    8  A    between atoms: C_4  and  C_22
    9  A    between atoms: O_6  and  C_12
   10  A    between atoms: C_11  and  C_22
   11  A    between atoms: O_14  and  C_22
   12  A    between atoms: O_15  and  O_42
   13  A    between atoms: C_19  and  O_25
                            x       y       z     vdW  Elec       q    Type
                         _______ _______ _______ _____ _____    ______ ____

>  <TORSDO>
F 13

$$$$
=
 OpenBabel11052421003D

 43 47  0  0  1  0  0  0  0  0999 V2000
  184.7340  178.1970  146.4080 C   0  0  1  0  0  3  0  0  0  0  0  0
  188.8170  176.6470  143.8270 C   0  0  0  0  0  0  0  0  0  0  0  0
  190.8010  176.3200  145.7180 C   0  0  2  0  0  3  0  0  0  0  0  0
  186.4500  178.0280  144.6740 C   0  0  0  0  0  0  0  0  0  0  0  0
  185.8110  178.5350  147.4480 C   0  0  0  0  0  2  0  0  0  0  0  0
  183.5950  178.9390  146.6480 F   0  0  0  0  0  0  0  0  0  0  0  0
  187.3100  177.3440  145.7140 C   0  0  2  0  0  3  0  0  0  0  0  0
  185.2310  178.4560  145.0160 C   0  0  0  0  0  3  0  0  0  0  0  0
  187.2360  178.0990  147.0490 C   0  0  0  0  0  2  0  0  0  0  0  0
  189.4650  176.3720  146.1550 O   0  0  0  0  0  0  0  0  0  0  0  0
  188.7650  177.1960  145.2490 C   0  0  1  0  0  3  0  0  0  0  0  0
  187.8310  177.1510  142.7990 C   0  0  0  0  0  2  0  0  0  0  0  0
  189.8310  175.8330  143.4690 C   0  0  0  0  0  0  0  0  0  0  0  0
  190.8940  175.4550  144.4630 C   0  0  0  0  0  2  0  0  0  0  0  0
  186.9920  178.3220  143.3090 C   0  0  0  0  0  2  0  0  0  0  0  0
  191.7070  175.7480  146.8020 C   0  0  2  0  0  3  0  0  0  0  0  0
  190.9910  175.5400  147.9850 O   0  0  0  0  0  1  0  0  0  0  0  0
  192.8050  176.6220  147.0350 O   0  0  0  0  0  0  0  0  0  0  0  0
  194.0520  176.4320  146.4270 C   0  0  0  0  0  0  0  0  0  0  0  0
  194.6830  177.4120  145.9480 O   0  0  0  0  0  0  0  0  0  0  0  0
  194.6170  175.1610  146.3500 O   0  0  0  0  0  0  0  0  0  0  0  0
  195.5730  174.8100  145.3560 C   0  0  1  0  0  3  0  0  0  0  0  0
  196.6320  174.1060  145.9410 O   0  0  0  0  0  0  0  0  0  0  0  0
  196.8150  171.9700  146.1340 C   0  0  0  0  0  1  0  0  0  0  0  0
  196.7610  173.0150  145.2110 O   0  0  0  0  0  0  0  0  0  0  0  0
  194.9180  173.9580  144.2670 C   0  0  2  0  0  3  0  0  0  0  0  0
  195.0500  174.6010  142.9210 C   0  0  0  0  0  0  0  0  0  0  0  0
  195.9920  174.5770  140.6850 C   0  0  0  0  0  3  0  0  0  0  0  0
  194.5720  176.4130  141.3770 C   0  0  0  0  0  3  0  0  0  0  0  0
  195.3570  175.7910  140.4030 C   0  0  0  0  0  3  0  0  0  0  0  0
  194.4200  175.8220  142.6350 C   0  0  0  0  0  3  0  0  0  0  0  0
  195.8390  173.9860  141.9440 C   0  0  0  0  0  3  0  0  0  0  0  0
  193.5760  173.7000  144.5700 O   0  0  0  0  0  0  0  0  0  0  0  0
  193.4590  172.3100  144.5250 C   0  0  0  0  0  1  0  0  0  0  0  0
  189.9500  175.3050  142.1390 N   0  0  0  0  0  2  0  0  0  0  0  0
  192.3530  172.7460  140.8280 C   0  0  0  0  0  3  0  0  0  0  0  0
  191.6530  171.5630  141.1010 C   0  0  0  0  0  0  0  0  0  0  0  0
  189.8470  172.8670  142.0600 C   0  0  0  0  0  3  0  0  0  0  0  0
  191.8020  173.9830  141.1720 C   0  0  0  0  0  3  0  0  0  0  0  0
  190.5490  174.0490  141.8000 C   0  0  0  0  0  0  0  0  0  0  0  0
  190.3980  171.6300  141.7150 C   0  0  0  0  0  3  0  0  0  0  0  0
  192.1860  170.3190  140.7690 O   0  0  0  0  0  0  0  0  0  0  0  0
  193.1570  169.7610  141.5040 O   0  0  0  0  0  1  0  0  0  0  0  0
  1  6  1  1  0  0  0
  1  5  1  0  0  0  0
  3 10  1  0  0  0  0
  3 16  1  1  0  0  0
  4  8  2  0  0  0  0
  4  7  1  0  0  0  0
  7  9  1  1  0  0  0
  8  1  1  0  0  0  0
  9  5  1  0  0  0  0
 11  2  1  6  0  0  0
 11  7  1  0  0  0  0
 11 10  1  0  0  0  0
 12 15  1  0  0  0  0
 12  2  1  0  0  0  0
 13  2  2  0  0  0  0
 13 14  1  0  0  0  0
 14  3  1  0  0  0  0
 15  4  1  0  0  0  0
 16 18  1  0  0  0  0
 16 17  1  1  0  0  0
 19 18  1  0  0  0  0
 20 19  2  0  0  0  0
 21 19  1  0  0  0  0
 22 23  1  1  0  0  0
 22 21  1  0  0  0  0
 25 23  1  0  0  0  0
 25 24  1  0  0  0  0
 26 33  1  1  0  0  0
 26 22  1  0  0  0  0
 27 26  1  0  0  0  0
 28 32  1  0  0  0  0
 29 31  2  0  0  0  0
 30 28  2  0  0  0  0
 30 29  1  0  0  0  0
 31 27  1  0  0  0  0
 32 27  2  0  0  0  0
 34 33  1  0  0  0  0
 35 13  1  0  0  0  0
 36 37  2  0  0  0  0
 36 39  1  0  0  0  0
 37 41  1  0  0  0  0
 39 40  2  0  0  0  0
 40 38  1  0  0  0  0
 40 35  1  0  0  0  0
 41 38  2  0  0  0  0
 42 37  1  0  0  0  0
 42 43  1  0  0  0  0
M  END
>  <MODEL>
6

>  <REMARK>
 VINA RESULT:      -6.4      2.251      5.617
  Name = 
  13 active torsions:
  status: ('A' for Active; 'I' for Inactive)
    1  A    between atoms: N_1  and  C_34
    2  A    between atoms: N_1  and  C_35
    3  A    between atoms: C_2  and  O_6
    4  A    between atoms: C_2  and  C_13
    5  A    between atoms: O_3  and  C_4
    6  A    between atoms: O_3  and  C_12
    7  A    between atoms: C_4  and  O_15
    8  A    between atoms: C_4  and  C_22
    9  A    between atoms: O_6  and  C_12
   10  A    between atoms: C_11  and  C_22
   11  A    between atoms: O_14  and  C_22
   12  A    between atoms: O_15  and  O_42
   13  A    between atoms: C_19  and  O_25
                            x       y       z     vdW  Elec       q    Type
                         _______ _______ _______ _____ _____    ______ ____

>  <TORSDO>
F 13

$$$$
=
 OpenBabel11052421003D

 43 47  0  0  1  0  0  0  0  0999 V2000
  185.5170  179.4580  144.0350 C   0  0  1  0  0  3  0  0  0  0  0  0
  188.8750  175.8120  145.1120 C   0  0  0  0  0  0  0  0  0  0  0  0
  189.1350  174.3430  142.7900 C   0  0  2  0  0  3  0  0  0  0  0  0
  186.6940  177.6720  145.2190 C   0  0  0  0  0  0  0  0  0  0  0  0
  185.1860  178.4890  142.8910 C   0  0  0  0  0  2  0  0  0  0  0  0
  184.4490  180.3030  144.2620 F   0  0  0  0  0  0  0  0  0  0  0  0
  187.2300  177.2480  143.8680 C   0  0  2  0  0  3  0  0  0  0  0  0
  185.8570  178.7100  145.2910 C   0  0  0  0  0  3  0  0  0  0  0  0
  186.1060  177.2520  142.8220 C   0  0  0  0  0  2  0  0  0  0  0  0
  188.5780  175.6310  142.7050 O   0  0  0  0  0  0  0  0  0  0  0  0
  187.9170  175.8770  143.9270 C   0  0  1  0  0  3  0  0  0  0  0  0
  188.4640  176.4150  146.4350 C   0  0  0  0  0  2  0  0  0  0  0  0
  190.0110  175.0900  145.0060 C   0  0  0  0  0  0  0  0  0  0  0  0
  190.3390  174.3690  143.7290 C   0  0  0  0  0  2  0  0  0  0  0  0
  187.0060  176.8740  146.4480 C   0  0  0  0  0  2  0  0  0  0  0  0
  189.5700  173.8450  141.4160 C   0  0  2  0  0  3  0  0  0  0  0  0
  188.9050  174.5470  140.4040 O   0  0  0  0  0  1  0  0  0  0  0  0
  189.3170  172.4500  141.2970 O   0  0  0  0  0  0  0  0  0  0  0  0
  190.3260  171.4930  141.4620 C   0  0  0  0  0  0  0  0  0  0  0  0
  190.0890  170.4150  142.0690 O   0  0  0  0  0  0  0  0  0  0  0  0
  191.6030  171.7140  140.9490 O   0  0  0  0  0  0  0  0  0  0  0  0
  192.7370  171.9100  141.7850 C   0  0  1  0  0  3  0  0  0  0  0  0
  193.1470  170.6860  142.3270 O   0  0  0  0  0  0  0  0  0  0  0  0
  193.0700  169.5140  144.1290 C   0  0  0  0  0  1  0  0  0  0  0  0
  192.9620  170.8100  143.6270 O   0  0  0  0  0  0  0  0  0  0  0  0
  193.8820  172.5380  140.9870 C   0  0  2  0  0  3  0  0  0  0  0  0
  194.2680  173.8720  141.5480 C   0  0  0  0  0  0  0  0  0  0  0  0
  196.0060  175.4160  142.2390 C   0  0  0  0  0  3  0  0  0  0  0  0
  193.6780  176.0330  142.4860 C   0  0  0  0  0  3  0  0  0  0  0  0
  195.0330  176.3410  142.6310 C   0  0  0  0  0  3  0  0  0  0  0  0
  193.2940  174.8000  141.9490 C   0  0  0  0  0  3  0  0  0  0  0  0
  195.6230  174.1840  141.7010 C   0  0  0  0  0  3  0  0  0  0  0  0
  193.5520  172.6410  139.6300 O   0  0  0  0  0  0  0  0  0  0  0  0
  194.4090  171.7490  138.9840 C   0  0  0  0  0  1  0  0  0  0  0  0
  190.9390  174.9690  146.0940 N   0  0  0  0  0  2  0  0  0  0  0  0
  194.3370  173.5440  145.4130 C   0  0  0  0  0  3  0  0  0  0  0  0
  195.1530  174.6290  145.7630 C   0  0  0  0  0  0  0  0  0  0  0  0
  193.1770  175.9200  146.3180 C   0  0  0  0  0  3  0  0  0  0  0  0
  192.9470  173.6500  145.5140 C   0  0  0  0  0  3  0  0  0  0  0  0
  192.3590  174.8440  145.9570 C   0  0  0  0  0  0  0  0  0  0  0  0
  194.5660  175.8150  146.2180 C   0  0  0  0  0  3  0  0  0  0  0  0
  196.5410  174.5460  145.6680 O   0  0  0  0  0  0  0  0  0  0  0  0
  197.1990  173.4490  146.0660 O   0  0  0  0  0  1  0  0  0  0  0  0
  1  6  1  1  0  0  0
  1  8  1  0  0  0  0
  2 12  1  0  0  0  0
  3 16  1  6  0  0  0
  3 14  1  0  0  0  0
  4  8  2  0  0  0  0
  4 15  1  0  0  0  0
  5  1  1  0  0  0  0
  7  9  1  6  0  0  0
  7 11  1  0  0  0  0
  7  4  1  0  0  0  0
  9  5  1  0  0  0  0
 10  3  1  0  0  0  0
 11 10  1  6  0  0  0
 11  2  1  0  0  0  0
 12 15  1  0  0  0  0
 13  2  2  0  0  0  0
 13 35  1  0  0  0  0
 14 13  1  0  0  0  0
 16 17  1  6  0  0  0
 18 16  1  0  0  0  0
 18 19  1  0  0  0  0
 19 20  2  0  0  0  0
 21 19  1  0  0  0  0
 22 21  1  6  0  0  0
 22 23  1  0  0  0  0
 23 25  1  0  0  0  0
 25 24  1  0  0  0  0
 26 33  1  6  0  0  0
 26 27  1  0  0  0  0
 26 22  1  0  0  0  0
 27 32  2  0  0  0  0
 27 31  1  0  0  0  0
 28 30  2  0  0  0  0
 29 30  1  0  0  0  0
 31 29  2  0  0  0  0
 32 28  1  0  0  0  0
 34 33  1  0  0  0  0
 36 39  2  0  0  0  0
 36 37  1  0  0  0  0
 37 41  2  0  0  0  0
 39 40  1  0  0  0  0
 40 35  1  0  0  0  0
 40 38  2  0  0  0  0
 41 38  1  0  0  0  0
 42 37  1  0  0  0  0
 42 43  1  0  0  0  0
M  END
>  <MODEL>
7

>  <REMARK>
 VINA RESULT:      -6.3      1.850      3.254
  Name = 
  13 active torsions:
  status: ('A' for Active; 'I' for Inactive)
    1  A    between atoms: N_1  and  C_34
    2  A    between atoms: N_1  and  C_35
    3  A    between atoms: C_2  and  O_6
    4  A    between atoms: C_2  and  C_13
    5  A    between atoms: O_3  and  C_4
    6  A    between atoms: O_3  and  C_12
    7  A    between atoms: C_4  and  O_15
    8  A    between atoms: C_4  and  C_22
    9  A    between atoms: O_6  and  C_12
   10  A    between atoms: C_11  and  C_22
   11  A    between atoms: O_14  and  C_22
   12  A    between atoms: O_15  and  O_42
   13  A    between atoms: C_19  and  O_25
                            x       y       z     vdW  Elec       q    Type
                         _______ _______ _______ _____ _____    ______ ____

>  <TORSDO>
F 13

$$$$
=
 OpenBabel11052421003D

 43 47  0  0  1  0  0  0  0  0999 V2000
  185.3560  178.6610  146.5590 C   0  0  1  0  0  3  0  0  0  0  0  0
  189.7210  176.8810  144.6840 C   0  0  0  0  0  0  0  0  0  0  0  0
  189.0200  175.4350  142.4390 C   0  0  2  0  0  3  0  0  0  0  0  0
  187.5820  177.6570  146.4310 C   0  0  0  0  0  0  0  0  0  0  0  0
  184.7920  177.5350  145.6810 C   0  0  0  0  0  2  0  0  0  0  0  0
  184.4430  178.9990  147.5390 F   0  0  0  0  0  0  0  0  0  0  0  0
  187.2720  177.3660  144.9780 C   0  0  2  0  0  3  0  0  0  0  0  0
  186.6560  178.2520  147.1880 C   0  0  0  0  0  3  0  0  0  0  0  0
  185.8530  176.7970  144.8380 C   0  0  0  0  0  2  0  0  0  0  0  0
  188.0920  176.3570  142.9550 O   0  0  0  0  0  0  0  0  0  0  0  0
  188.3050  176.4220  144.3490 C   0  0  1  0  0  3  0  0  0  0  0  0
  190.0290  177.3830  146.0750 C   0  0  0  0  0  2  0  0  0  0  0  0
  190.7080  176.6940  143.7830 C   0  0  0  0  0  0  0  0  0  0  0  0
  190.4160  176.0560  142.4540 C   0  0  0  0  0  2  0  0  0  0  0  0
  188.8650  177.1890  147.0460 C   0  0  0  0  0  2  0  0  0  0  0  0
  188.6550  175.0330  141.0150 C   0  0  2  0  0  3  0  0  0  0  0  0
  187.5270  175.7360  140.5770 O   0  0  0  0  0  1  0  0  0  0  0  0
  188.4200  173.6310  140.9460 O   0  0  0  0  0  0  0  0  0  0  0  0
  189.2750  172.7650  140.2550 C   0  0  0  0  0  0  0  0  0  0  0  0
  189.3690  172.8280  138.9990 O   0  0  0  0  0  0  0  0  0  0  0  0
  190.0430  171.8280  140.9440 O   0  0  0  0  0  0  0  0  0  0  0  0
  190.9580  172.1970  141.9690 C   0  0  1  0  0  3  0  0  0  0  0  0
  190.5470  171.6560  143.1930 O   0  0  0  0  0  0  0  0  0  0  0  0
  189.6100  172.5820  144.8940 C   0  0  0  0  0  1  0  0  0  0  0  0
  190.7370  172.6200  144.0730 O   0  0  0  0  0  0  0  0  0  0  0  0
  192.3660  171.7040  141.6270 C   0  0  2  0  0  3  0  0  0  0  0  0
  193.3480  172.8350  141.6120 C   0  0  0  0  0  0  0  0  0  0  0  0
  193.8400  175.1590  141.1200 C   0  0  0  0  0  3  0  0  0  0  0  0
  195.5820  173.7130  141.9790 C   0  0  0  0  0  3  0  0  0  0  0  0
  195.1630  174.9680  141.5310 C   0  0  0  0  0  3  0  0  0  0  0  0
  194.6780  172.6470  142.0180 C   0  0  0  0  0  3  0  0  0  0  0  0
  192.9360  174.0930  141.1590 C   0  0  0  0  0  3  0  0  0  0  0  0
  192.3750  171.0160  140.4080 O   0  0  0  0  0  0  0  0  0  0  0  0
  192.8560  169.7440  140.7190 C   0  0  0  0  0  1  0  0  0  0  0  0
  192.0640  177.0800  144.0490 N   0  0  0  0  0  2  0  0  0  0  0  0
  193.8310  174.0430  145.3500 C   0  0  0  0  0  3  0  0  0  0  0  0
  195.0800  174.5880  145.6840 C   0  0  0  0  0  0  0  0  0  0  0  0
  194.3200  176.7630  144.9270 C   0  0  0  0  0  3  0  0  0  0  0  0
  192.8340  174.8570  144.8060 C   0  0  0  0  0  3  0  0  0  0  0  0
  193.0770  176.2200  144.5810 C   0  0  0  0  0  0  0  0  0  0  0  0
  195.3170  175.9500  145.4720 C   0  0  0  0  0  3  0  0  0  0  0  0
  196.0890  173.7940  146.2250 O   0  0  0  0  0  0  0  0  0  0  0  0
  197.0500  173.2690  145.4520 O   0  0  0  0  0  1  0  0  0  0  0  0
  1  8  1  0  0  0  0
  1  6  1  1  0  0  0
  2 12  1  0  0  0  0
  3 16  1  6  0  0  0
  3 14  1  0  0  0  0
  3 10  1  0  0  0  0
  4 15  1  0  0  0  0
  4  8  2  0  0  0  0
  5  1  1  0  0  0  0
  7  9  1  1  0  0  0
  7  4  1  0  0  0  0
  9  5  1  0  0  0  0
 11 10  1  6  0  0  0
 11  2  1  0  0  0  0
 11  7  1  0  0  0  0
 12 15  1  0  0  0  0
 13 35  1  0  0  0  0
 13  2  2  0  0  0  0
 14 13  1  0  0  0  0
 16 17  1  1  0  0  0
 18 16  1  0  0  0  0
 19 21  1  0  0  0  0
 19 18  1  0  0  0  0
 20 19  2  0  0  0  0
 22 21  1  6  0  0  0
 22 23  1  0  0  0  0
 23 25  1  0  0  0  0
 25 24  1  0  0  0  0
 26 33  1  6  0  0  0
 26 22  1  0  0  0  0
 27 26  1  0  0  0  0
 27 31  1  0  0  0  0
 28 32  1  0  0  0  0
 28 30  2  0  0  0  0
 29 31  2  0  0  0  0
 30 29  1  0  0  0  0
 32 27  2  0  0  0  0
 33 34  1  0  0  0  0
 35 40  1  0  0  0  0
 36 37  1  0  0  0  0
 37 42  1  0  0  0  0
 38 41  1  0  0  0  0
 39 36  2  0  0  0  0
 40 39  1  0  0  0  0
 40 38  2  0  0  0  0
 41 37  2  0  0  0  0
 43 42  1  0  0  0  0
M  END
>  <MODEL>
8

>  <REMARK>
 VINA RESULT:      -6.3      1.311      2.388
  Name = 
  13 active torsions:
  status: ('A' for Active; 'I' for Inactive)
    1  A    between atoms: N_1  and  C_34
    2  A    between atoms: N_1  and  C_35
    3  A    between atoms: C_2  and  O_6
    4  A    between atoms: C_2  and  C_13
    5  A    between atoms: O_3  and  C_4
    6  A    between atoms: O_3  and  C_12
    7  A    between atoms: C_4  and  O_15
    8  A    between atoms: C_4  and  C_22
    9  A    between atoms: O_6  and  C_12
   10  A    between atoms: C_11  and  C_22
   11  A    between atoms: O_14  and  C_22
   12  A    between atoms: O_15  and  O_42
   13  A    between atoms: C_19  and  O_25
                            x       y       z     vdW  Elec       q    Type
                         _______ _______ _______ _____ _____    ______ ____

>  <TORSDO>
F 13

$$$$
=
 OpenBabel11052421003D

 43 47  0  0  1  0  0  0  0  0999 V2000
  184.1900  178.7350  144.7870 C   0  0  1  0  0  3  0  0  0  0  0  0
  188.2130  176.1430  143.1060 C   0  0  0  0  0  0  0  0  0  0  0  0
  189.4940  175.2240  145.3720 C   0  0  2  0  0  3  0  0  0  0  0  0
  186.1740  178.1220  143.4960 C   0  0  0  0  0  0  0  0  0  0  0  0
  185.0210  178.7300  146.0780 C   0  0  0  0  0  2  0  0  0  0  0  0
  183.2710  179.7660  144.8210 F   0  0  0  0  0  0  0  0  0  0  0  0
  186.5280  177.1990  144.6420 C   0  0  2  0  0  3  0  0  0  0  0  0
  185.0710  178.8720  143.5800 C   0  0  0  0  0  3  0  0  0  0  0  0
  186.3280  177.9150  145.9860 C   0  0  0  0  0  2  0  0  0  0  0  0
  188.1570  175.6440  145.4850 O   0  0  0  0  0  0  0  0  0  0  0  0
  187.9570  176.6540  144.5200 C   0  0  1  0  0  3  0  0  0  0  0  0
  187.6900  176.9290  141.9260 C   0  0  0  0  0  2  0  0  0  0  0  0
  189.0260  175.0820  142.9220 C   0  0  0  0  0  0  0  0  0  0  0  0
  189.6620  174.3960  144.0990 C   0  0  0  0  0  2  0  0  0  0  0  0
  187.1000  178.2800  142.3290 C   0  0  0  0  0  2  0  0  0  0  0  0
  189.9100  174.3940  146.5800 C   0  0  2  0  0  3  0  0  0  0  0  0
  189.0140  174.5800  147.6380 O   0  0  0  0  0  1  0  0  0  0  0  0
  191.2290  174.7420  146.9840 O   0  0  0  0  0  0  0  0  0  0  0  0
  191.7040  176.0570  146.9280 C   0  0  0  0  0  0  0  0  0  0  0  0
  191.1160  176.9750  147.5620 O   0  0  0  0  0  0  0  0  0  0  0  0
  192.8370  176.3720  146.1790 O   0  0  0  0  0  0  0  0  0  0  0  0
  192.8920  176.1950  144.7680 C   0  0  1  0  0  3  0  0  0  0  0  0
  192.7850  177.4360  144.1280 O   0  0  0  0  0  0  0  0  0  0  0  0
  190.9670  178.3690  143.4560 C   0  0  0  0  0  1  0  0  0  0  0  0
  191.8160  177.2820  143.2470 O   0  0  0  0  0  0  0  0  0  0  0  0
  194.2020  175.5120  144.3700 C   0  0  2  0  0  3  0  0  0  0  0  0
  194.1740  174.0510  144.6960 C   0  0  0  0  0  0  0  0  0  0  0  0
  195.2730  172.1090  145.6480 C   0  0  0  0  0  3  0  0  0  0  0  0
  193.0860  171.8810  144.6330 C   0  0  0  0  0  3  0  0  0  0  0  0
  194.1800  171.3130  145.2900 C   0  0  0  0  0  3  0  0  0  0  0  0
  193.0820  173.2470  144.3340 C   0  0  0  0  0  3  0  0  0  0  0  0
  195.2700  173.4750  145.3480 C   0  0  0  0  0  3  0  0  0  0  0  0
  195.2990  176.1400  144.9720 O   0  0  0  0  0  0  0  0  0  0  0  0
  196.0740  176.6040  143.9090 C   0  0  0  0  0  1  0  0  0  0  0  0
  189.3270  174.5710  141.6150 N   0  0  0  0  0  2  0  0  0  0  0  0
  190.8820  171.1970  141.1280 C   0  0  0  0  0  3  0  0  0  0  0  0
  192.2030  171.5570  140.8240 C   0  0  0  0  0  0  0  0  0  0  0  0
  191.6020  173.8970  141.0400 C   0  0  0  0  0  3  0  0  0  0  0  0
  189.9270  172.1840  141.3850 C   0  0  0  0  0  3  0  0  0  0  0  0
  190.2800  173.5410  141.3310 C   0  0  0  0  0  0  0  0  0  0  0  0
  192.5570  172.9100  140.7840 C   0  0  0  0  0  3  0  0  0  0  0  0
  193.1710  170.5890  140.5620 O   0  0  0  0  0  0  0  0  0  0  0  0
  193.0920  169.3650  141.1020 O   0  0  0  0  0  1  0  0  0  0  0  0
  1  6  1  1  0  0  0
  1  5  1  0  0  0  0
  3 10  1  0  0  0  0
  3 16  1  1  0  0  0
  4  8  2  0  0  0  0
  4  7  1  0  0  0  0
  7  9  1  1  0  0  0
  8  1  1  0  0  0  0
  9  5  1  0  0  0  0
 11  2  1  6  0  0  0
 11  7  1  0  0  0  0
 11 10  1  0  0  0  0
 12 15  1  0  0  0  0
 12  2  1  0  0  0  0
 13  2  2  0  0  0  0
 13 14  1  0  0  0  0
 14  3  1  0  0  0  0
 15  4  1  0  0  0  0
 16 18  1  0  0  0  0
 16 17  1  1  0  0  0
 19 18  1  0  0  0  0
 19 20  2  0  0  0  0
 21 19  1  0  0  0  0
 22 23  1  6  0  0  0
 22 21  1  0  0  0  0
 25 24  1  0  0  0  0
 25 23  1  0  0  0  0
 26 27  1  0  0  0  0
 26 22  1  0  0  0  0
 26 33  1  1  0  0  0
 27 32  1  0  0  0  0
 29 30  2  0  0  0  0
 30 28  1  0  0  0  0
 31 29  1  0  0  0  0
 31 27  2  0  0  0  0
 32 28  2  0  0  0  0
 34 33  1  0  0  0  0
 35 13  1  0  0  0  0
 36 39  1  0  0  0  0
 37 36  2  0  0  0  0
 38 40  1  0  0  0  0
 40 39  2  0  0  0  0
 40 35  1  0  0  0  0
 41 37  1  0  0  0  0
 41 38  2  0  0  0  0
 42 37  1  0  0  0  0
 42 43  1  0  0  0  0
M  END
>  <MODEL>
9

>  <REMARK>
 VINA RESULT:      -6.3      2.586      5.406
  Name = 
  13 active torsions:
  status: ('A' for Active; 'I' for Inactive)
    1  A    between atoms: N_1  and  C_34
    2  A    between atoms: N_1  and  C_35
    3  A    between atoms: C_2  and  O_6
    4  A    between atoms: C_2  and  C_13
    5  A    between atoms: O_3  and  C_4
    6  A    between atoms: O_3  and  C_12
    7  A    between atoms: C_4  and  O_15
    8  A    between atoms: C_4  and  C_22
    9  A    between atoms: O_6  and  C_12
   10  A    between atoms: C_11  and  C_22
   11  A    between atoms: O_14  and  C_22
   12  A    between atoms: O_15  and  O_42
   13  A    between atoms: C_19  and  O_25
                            x       y       z     vdW  Elec       q    Type
                         _______ _______ _______ _____ _____    ______ ____

>  <TORSDO>
F 13

$$$$
