=
 OpenBabel11052417163D

 30 33  0  0  1  0  0  0  0  0999 V2000
  190.9090  176.9680  144.8230 C   0  0  0  0  0  2  0  0  0  0  0  0
  192.6000  176.1540  146.5090 C   0  0  0  0  0  0  0  0  0  0  0  0
  191.3480  173.0290  142.4870 S   0  0  0  0  0  0  0  0  0  0  0  0
  189.9040  176.5890  143.7010 C   0  0  1  0  0  3  0  0  0  0  0  0
  189.7660  173.4640  141.6620 C   0  0  1  0  0  3  0  0  0  0  0  0
  193.9550  175.5860  146.5380 C   0  0  0  0  0  3  0  0  0  0  0  0
  192.2350  176.9290  147.4320 O   0  0  0  0  0  0  0  0  0  0  0  0
  191.4670  174.7300  143.0590 C   0  0  1  0  0  3  0  0  0  0  0  0
  194.3830  174.8030  145.5490 C   0  0  0  0  0  3  0  0  0  0  0  0
  191.6270  175.7500  145.4320 C   0  0  2  0  0  3  0  0  0  0  0  0
  190.0320  175.1190  143.2830 C   0  0  2  0  0  3  0  0  0  0  0  0
  188.7120  172.4290  142.0020 C   0  0  0  0  0  1  0  0  0  0  0  0
  189.3060  174.7950  142.0700 N   0  0  0  0  0  2  0  0  0  0  0  0
  193.5250  174.4990  144.3910 C   0  0  0  0  0  3  0  0  0  0  0  0
  192.2570  174.9220  144.3230 C   0  0  0  0  0  0  0  0  0  0  0  0
  188.4480  176.9110  144.0800 C   0  0  2  0  0  3  0  0  0  0  0  0
  188.6590  178.3400  141.9900 C   0  0  0  0  0  1  0  0  0  0  0  0
  187.7190  177.8220  143.0740 C   0  0  1  0  0  3  0  0  0  0  0  0
  185.2400  177.9400  142.7380 C   0  0  0  0  0  2  0  0  0  0  0  0
  186.5650  177.1300  140.9570 C   0  0  0  0  0  2  0  0  0  0  0  0
  186.4890  177.1390  142.4650 C   0  0  0  0  0  3  0  0  0  0  0  0
  184.5640  178.1250  141.4650 N   0  0  0  0  0  2  0  0  0  0  0  0
  185.5540  178.0560  140.4710 N   0  0  0  0  0  2  0  0  0  0  0  0
  188.2920  177.3790  145.5240 C   0  0  0  0  0  2  0  0  0  0  0  0
  187.7260  176.2620  146.3830 C   0  0  0  0  0  2  0  0  0  0  0  0
  186.5530  176.7690  147.2000 C   0  0  0  0  0  2  0  0  0  0  0  0
  185.3630  177.0500  146.2990 C   0  0  0  0  0  2  0  0  0  0  0  0
  183.8340  178.8430  145.9650 O   0  0  0  0  0  0  0  0  0  0  0  0
  184.9210  178.4590  146.4700 C   0  0  0  0  0  0  0  0  0  0  0  0
  185.6900  179.3420  147.2150 O   0  0  0  0  0  1  0  0  0  0  0  0
  2  6  1  0  0  0  0
  2  7  2  0  0  0  0
  4 16  1  1  0  0  0
  4  1  1  0  0  0  0
  5 12  1  1  0  0  0
  5 13  1  0  0  0  0
  5  3  1  0  0  0  0
  8  3  1  1  0  0  0
  8 11  1  0  0  0  0
  8 15  1  0  0  0  0
  9  6  2  0  0  0  0
 10  1  1  6  0  0  0
 10  2  1  0  0  0  0
 11 13  1  6  0  0  0
 11  4  1  0  0  0  0
 14  9  1  0  0  0  0
 15 14  2  0  0  0  0
 15 10  1  0  0  0  0
 16 24  1  1  0  0  0
 18 17  1  6  0  0  0
 18 16  1  0  0  0  0
 20 21  1  0  0  0  0
 21 19  1  0  0  0  0
 21 18  1  0  0  0  0
 22 19  1  0  0  0  0
 23 20  1  0  0  0  0
 23 22  1  0  0  0  0
 24 25  1  0  0  0  0
 25 26  1  0  0  0  0
 27 29  1  0  0  0  0
 27 26  1  0  0  0  0
 28 29  2  0  0  0  0
 29 30  1  0  0  0  0
M  END
>  <MODEL>
1

>  <REMARK>
 VINA RESULT:      -7.2      0.000      0.000
  Name = 
  8 active torsions:
  status: ('A' for Active; 'I' for Inactive)
    1  A    between atoms: C_4  and  C_13
    2  A    between atoms: C_7  and  C_15
    3  A    between atoms: C_7  and  C_16
    4  A    between atoms: C_8  and  C_12
    5  A    between atoms: C_8  and  C_13
    6  A    between atoms: C_13  and  C_27
    7  A    between atoms: C_16  and  C_30
    8  A    between atoms: C_27  and  C_30
                            x       y       z     vdW  Elec       q    Type
                         _______ _______ _______ _____ _____    ______ ____

>  <TORSDO>
F 8

$$$$
=
 OpenBabel11052417163D

 30 33  0  0  1  0  0  0  0  0999 V2000
  188.8920  176.9070  143.1700 C   0  0  0  0  0  2  0  0  0  0  0  0
  187.3190  176.5890  141.2230 C   0  0  0  0  0  0  0  0  0  0  0  0
  185.4050  178.4810  145.7250 S   0  0  0  0  0  0  0  0  0  0  0  0
  189.0420  177.0800  144.7060 C   0  0  1  0  0  3  0  0  0  0  0  0
  186.4700  178.1620  147.1870 C   0  0  1  0  0  3  0  0  0  0  0  0
  186.3180  177.3550  140.4670 C   0  0  0  0  0  3  0  0  0  0  0  0
  188.0380  175.7490  140.6200 O   0  0  0  0  0  0  0  0  0  0  0  0
  186.8640  178.3300  144.6830 C   0  0  1  0  0  3  0  0  0  0  0  0
  185.5790  178.2850  141.0700 C   0  0  0  0  0  3  0  0  0  0  0  0
  187.4300  176.7460  142.7170 C   0  0  2  0  0  3  0  0  0  0  0  0
  187.6910  177.2990  145.3980 C   0  0  2  0  0  3  0  0  0  0  0  0
  185.8290  177.1070  148.0650 C   0  0  0  0  0  1  0  0  0  0  0  0
  187.8080  177.7250  146.7790 N   0  0  0  0  0  2  0  0  0  0  0  0
  185.7530  178.5880  142.5010 C   0  0  0  0  0  3  0  0  0  0  0  0
  186.5940  177.8880  143.2720 C   0  0  0  0  0  0  0  0  0  0  0  0
  189.7940  175.9090  145.3610 C   0  0  2  0  0  3  0  0  0  0  0  0
  190.9740  175.8610  147.6100 C   0  0  0  0  0  1  0  0  0  0  0  0
  191.0440  176.3250  146.1590 C   0  0  1  0  0  3  0  0  0  0  0  0
  193.0370  177.0060  144.8020 C   0  0  0  0  0  2  0  0  0  0  0  0
  193.3510  175.4050  146.5120 C   0  0  0  0  0  2  0  0  0  0  0  0
  192.3390  175.8560  145.4860 C   0  0  0  0  0  3  0  0  0  0  0  0
  194.4170  177.0020  145.2590 N   0  0  0  0  0  2  0  0  0  0  0  0
  194.4170  176.3950  146.5260 N   0  0  0  0  0  2  0  0  0  0  0  0
  190.0630  174.7550  144.3980 C   0  0  0  0  0  2  0  0  0  0  0  0
  189.7160  173.4290  145.0530 C   0  0  0  0  0  2  0  0  0  0  0  0
  189.6540  172.3280  144.0110 C   0  0  0  0  0  2  0  0  0  0  0  0
  190.0390  172.8690  142.6450 C   0  0  0  0  0  2  0  0  0  0  0  0
  187.7450  172.7090  142.0310 O   0  0  0  0  0  1  0  0  0  0  0  0
  188.9470  172.6050  141.6720 C   0  0  0  0  0  0  0  0  0  0  0  0
  189.2510  172.2780  140.3580 O   0  0  0  0  0  0  0  0  0  0  0  0
  1  4  1  0  0  0  0
  2 10  1  0  0  0  0
  3  5  1  0  0  0  0
  4 16  1  1  0  0  0
  4 11  1  0  0  0  0
  5 12  1  1  0  0  0
  6  9  2  0  0  0  0
  6  2  1  0  0  0  0
  7  2  2  0  0  0  0
  8 15  1  6  0  0  0
  8 11  1  0  0  0  0
  8  3  1  0  0  0  0
  9 14  1  0  0  0  0
 10  1  1  6  0  0  0
 10 15  1  0  0  0  0
 11 13  1  1  0  0  0
 13  5  1  0  0  0  0
 14 15  2  0  0  0  0
 16 24  1  6  0  0  0
 16 18  1  0  0  0  0
 18 17  1  1  0  0  0
 19 22  1  0  0  0  0
 19 21  1  0  0  0  0
 20 23  1  0  0  0  0
 21 18  1  0  0  0  0
 21 20  1  0  0  0  0
 22 23  1  0  0  0  0
 24 25  1  0  0  0  0
 26 25  1  0  0  0  0
 27 26  1  0  0  0  0
 29 28  1  0  0  0  0
 29 27  1  0  0  0  0
 30 29  2  0  0  0  0
M  END
>  <MODEL>
2

>  <REMARK>
 VINA RESULT:      -6.9      3.847      7.389
  Name = 
  8 active torsions:
  status: ('A' for Active; 'I' for Inactive)
    1  A    between atoms: C_4  and  C_13
    2  A    between atoms: C_7  and  C_15
    3  A    between atoms: C_7  and  C_16
    4  A    between atoms: C_8  and  C_12
    5  A    between atoms: C_8  and  C_13
    6  A    between atoms: C_13  and  C_27
    7  A    between atoms: C_16  and  C_30
    8  A    between atoms: C_27  and  C_30
                            x       y       z     vdW  Elec       q    Type
                         _______ _______ _______ _____ _____    ______ ____

>  <TORSDO>
F 8

$$$$
=
 OpenBabel11052417163D

 30 33  0  0  1  0  0  0  0  0999 V2000
  187.9160  176.6110  146.4350 C   0  0  0  0  0  2  0  0  0  0  0  0
  186.5590  178.4000  147.5850 C   0  0  0  0  0  0  0  0  0  0  0  0
  185.5720  177.3370  142.5440 S   0  0  0  0  0  0  0  0  0  0  0  0
  188.4010  176.0100  145.0880 C   0  0  1  0  0  3  0  0  0  0  0  0
  186.9300  176.4510  141.6830 C   0  0  1  0  0  3  0  0  0  0  0  0
  185.1500  178.7650  147.7910 C   0  0  0  0  0  3  0  0  0  0  0  0
  187.3940  178.6170  148.5020 O   0  0  0  0  0  0  0  0  0  0  0  0
  186.1910  176.6840  144.1020 C   0  0  1  0  0  3  0  0  0  0  0  0
  184.2380  178.5010  146.8570 C   0  0  0  0  0  3  0  0  0  0  0  0
  187.0170  177.8480  146.2600 C   0  0  2  0  0  3  0  0  0  0  0  0
  187.6770  176.6290  143.8850 C   0  0  2  0  0  3  0  0  0  0  0  0
  187.6220  177.3920  140.7180 C   0  0  0  0  0  1  0  0  0  0  0  0
  187.9030  175.9180  142.6420 N   0  0  0  0  0  2  0  0  0  0  0  0
  184.6040  177.8210  145.6030 C   0  0  0  0  0  3  0  0  0  0  0  0
  185.8750  177.5180  145.3110 C   0  0  0  0  0  0  0  0  0  0  0  0
  189.9240  176.1170  144.9060 C   0  0  2  0  0  3  0  0  0  0  0  0
  189.7280  173.5840  144.8460 C   0  0  0  0  0  1  0  0  0  0  0  0
  190.6130  174.7890  144.5400 C   0  0  1  0  0  3  0  0  0  0  0  0
  191.8230  176.0470  142.7440 C   0  0  0  0  0  2  0  0  0  0  0  0
  192.1430  173.7090  142.8700 C   0  0  0  0  0  2  0  0  0  0  0  0
  191.0920  174.7710  143.0830 C   0  0  0  0  0  3  0  0  0  0  0  0
  193.0940  175.6660  142.1490 N   0  0  0  0  0  2  0  0  0  0  0  0
  193.4080  174.3940  142.6560 N   0  0  0  0  0  2  0  0  0  0  0  0
  190.6160  176.8450  146.0560 C   0  0  0  0  0  2  0  0  0  0  0  0
  191.5590  175.9050  146.7860 C   0  0  0  0  0  2  0  0  0  0  0  0
  192.9430  176.5180  146.8830 C   0  0  0  0  0  2  0  0  0  0  0  0
  193.9060  175.8010  145.9520 C   0  0  0  0  0  2  0  0  0  0  0  0
  194.8910  177.9610  145.7760 O   0  0  0  0  0  1  0  0  0  0  0  0
  194.8400  176.7810  145.3390 C   0  0  0  0  0  0  0  0  0  0  0  0
  195.6820  176.3880  144.3070 O   0  0  0  0  0  0  0  0  0  0  0  0
  2  6  1  0  0  0  0
  2  7  2  0  0  0  0
  4 16  1  6  0  0  0
  4  1  1  0  0  0  0
  5 12  1  6  0  0  0
  5  3  1  0  0  0  0
  5 13  1  0  0  0  0
  8  3  1  6  0  0  0
  8 15  1  0  0  0  0
  9  6  2  0  0  0  0
 10  1  1  1  0  0  0
 10  2  1  0  0  0  0
 11 13  1  6  0  0  0
 11  8  1  0  0  0  0
 11  4  1  0  0  0  0
 14  9  1  0  0  0  0
 15 14  2  0  0  0  0
 15 10  1  0  0  0  0
 16 24  1  1  0  0  0
 18 17  1  6  0  0  0
 18 16  1  0  0  0  0
 19 21  1  0  0  0  0
 20 21  1  0  0  0  0
 21 18  1  0  0  0  0
 22 23  1  0  0  0  0
 22 19  1  0  0  0  0
 23 20  1  0  0  0  0
 24 25  1  0  0  0  0
 25 26  1  0  0  0  0
 27 26  1  0  0  0  0
 29 28  1  0  0  0  0
 29 27  1  0  0  0  0
 30 29  2  0  0  0  0
M  END
>  <MODEL>
3

>  <REMARK>
 VINA RESULT:      -6.9      2.406      6.869
  Name = 
  8 active torsions:
  status: ('A' for Active; 'I' for Inactive)
    1  A    between atoms: C_4  and  C_13
    2  A    between atoms: C_7  and  C_15
    3  A    between atoms: C_7  and  C_16
    4  A    between atoms: C_8  and  C_12
    5  A    between atoms: C_8  and  C_13
    6  A    between atoms: C_13  and  C_27
    7  A    between atoms: C_16  and  C_30
    8  A    between atoms: C_27  and  C_30
                            x       y       z     vdW  Elec       q    Type
                         _______ _______ _______ _____ _____    ______ ____

>  <TORSDO>
F 8

$$$$
=
 OpenBabel11052417163D

 30 33  0  0  1  0  0  0  0  0999 V2000
  187.5590  176.4700  145.7090 C   0  0  0  0  0  2  0  0  0  0  0  0
  186.5070  178.3100  147.0780 C   0  0  0  0  0  0  0  0  0  0  0  0
  185.2020  177.8740  142.0170 S   0  0  0  0  0  0  0  0  0  0  0  0
  187.9060  175.9390  144.2920 C   0  0  1  0  0  3  0  0  0  0  0  0
  186.3920  176.8980  141.0150 C   0  0  1  0  0  3  0  0  0  0  0  0
  185.1710  178.8420  147.3840 C   0  0  0  0  0  3  0  0  0  0  0  0
  187.3960  178.3230  147.9700 O   0  0  0  0  0  0  0  0  0  0  0  0
  185.7790  176.9980  143.4780 C   0  0  1  0  0  3  0  0  0  0  0  0
  184.1980  178.7950  146.4750 C   0  0  0  0  0  3  0  0  0  0  0  0
  186.8360  177.8290  145.6890 C   0  0  2  0  0  3  0  0  0  0  0  0
  187.2340  176.7630  143.1860 C   0  0  2  0  0  3  0  0  0  0  0  0
  187.1740  177.8230  140.1050 C   0  0  0  0  0  1  0  0  0  0  0  0
  187.3140  176.1490  141.8750 N   0  0  0  0  0  2  0  0  0  0  0  0
  184.4210  178.1930  145.1490 C   0  0  0  0  0  3  0  0  0  0  0  0
  185.6260  177.7500  144.7710 C   0  0  0  0  0  0  0  0  0  0  0  0
  189.4220  175.8550  144.0480 C   0  0  2  0  0  3  0  0  0  0  0  0
  190.0320  173.8090  145.4240 C   0  0  0  0  0  1  0  0  0  0  0  0
  189.9820  174.4200  144.0270 C   0  0  1  0  0  3  0  0  0  0  0  0
  189.8860  173.4960  141.7010 C   0  0  0  0  0  2  0  0  0  0  0  0
  189.2790  172.0730  143.4870 C   0  0  0  0  0  2  0  0  0  0  0  0
  189.2160  173.5170  143.0530 C   0  0  0  0  0  3  0  0  0  0  0  0
  190.0630  172.1000  141.3340 N   0  0  0  0  0  2  0  0  0  0  0  0
  190.1290  171.3750  142.5350 N   0  0  0  0  0  2  0  0  0  0  0  0
  190.2280  176.7920  144.9440 C   0  0  0  0  0  2  0  0  0  0  0  0
  191.1880  177.6230  144.1110 C   0  0  0  0  0  2  0  0  0  0  0  0
  192.5970  177.0720  144.2230 C   0  0  0  0  0  2  0  0  0  0  0  0
  192.7980  176.4060  145.5740 C   0  0  0  0  0  2  0  0  0  0  0  0
  194.8380  175.6040  146.5020 O   0  0  0  0  0  1  0  0  0  0  0  0
  194.2070  176.5790  146.0170 C   0  0  0  0  0  0  0  0  0  0  0  0
  194.8370  177.8060  145.8650 O   0  0  0  0  0  0  0  0  0  0  0  0
  2  6  1  0  0  0  0
  2  7  2  0  0  0  0
  4 16  1  6  0  0  0
  4  1  1  0  0  0  0
  5 12  1  6  0  0  0
  5 13  1  0  0  0  0
  5  3  1  0  0  0  0
  8  3  1  6  0  0  0
  8 15  1  0  0  0  0
  9  6  2  0  0  0  0
 10  1  1  1  0  0  0
 10  2  1  0  0  0  0
 11 13  1  6  0  0  0
 11  8  1  0  0  0  0
 11  4  1  0  0  0  0
 14  9  1  0  0  0  0
 15 14  2  0  0  0  0
 15 10  1  0  0  0  0
 16 24  1  1  0  0  0
 18 16  1  0  0  0  0
 18 17  1  1  0  0  0
 19 21  1  0  0  0  0
 21 20  1  0  0  0  0
 21 18  1  0  0  0  0
 22 19  1  0  0  0  0
 22 23  1  0  0  0  0
 23 20  1  0  0  0  0
 25 26  1  0  0  0  0
 25 24  1  0  0  0  0
 26 27  1  0  0  0  0
 27 29  1  0  0  0  0
 29 28  1  0  0  0  0
 30 29  2  0  0  0  0
M  END
>  <MODEL>
4

>  <REMARK>
 VINA RESULT:      -6.8      2.334      6.763
  Name = 
  8 active torsions:
  status: ('A' for Active; 'I' for Inactive)
    1  A    between atoms: C_4  and  C_13
    2  A    between atoms: C_7  and  C_15
    3  A    between atoms: C_7  and  C_16
    4  A    between atoms: C_8  and  C_12
    5  A    between atoms: C_8  and  C_13
    6  A    between atoms: C_13  and  C_27
    7  A    between atoms: C_16  and  C_30
    8  A    between atoms: C_27  and  C_30
                            x       y       z     vdW  Elec       q    Type
                         _______ _______ _______ _____ _____    ______ ____

>  <TORSDO>
F 8

$$$$
=
 OpenBabel11052417163D

 30 33  0  0  1  0  0  0  0  0999 V2000
  188.2640  177.7560  141.9280 C   0  0  0  0  0  2  0  0  0  0  0  0
  186.2780  177.3520  140.4260 C   0  0  0  0  0  0  0  0  0  0  0  0
  185.4750  177.8620  145.5840 S   0  0  0  0  0  0  0  0  0  0  0  0
  188.8370  177.7020  143.3700 C   0  0  1  0  0  3  0  0  0  0  0  0
  186.9780  177.6060  146.6070 C   0  0  1  0  0  3  0  0  0  0  0  0
  184.9540  177.9300  140.1550 C   0  0  0  0  0  3  0  0  0  0  0  0
  186.9400  176.8550  139.4770 O   0  0  0  0  0  0  0  0  0  0  0  0
  186.5420  178.2930  144.2020 C   0  0  1  0  0  3  0  0  0  0  0  0
  184.2540  178.5070  141.1310 C   0  0  0  0  0  3  0  0  0  0  0  0
  186.8040  177.2790  141.8360 C   0  0  2  0  0  3  0  0  0  0  0  0
  187.7480  177.4230  144.4140 C   0  0  2  0  0  3  0  0  0  0  0  0
  186.8770  176.2830  147.3400 C   0  0  0  0  0  1  0  0  0  0  0  0
  188.1880  177.6260  145.7810 N   0  0  0  0  0  2  0  0  0  0  0  0
  184.7880  178.6020  142.5000 C   0  0  0  0  0  3  0  0  0  0  0  0
  185.9540  178.0390  142.8420 C   0  0  0  0  0  0  0  0  0  0  0  0
  189.9850  176.6890  143.5130 C   0  0  2  0  0  3  0  0  0  0  0  0
  191.3110  178.8440  143.7320 C   0  0  0  0  0  1  0  0  0  0  0  0
  191.3840  177.3260  143.6110 C   0  0  1  0  0  3  0  0  0  0  0  0
  191.3270  176.0100  145.7420 C   0  0  0  0  0  2  0  0  0  0  0  0
  193.1030  175.6080  144.2350 C   0  0  0  0  0  2  0  0  0  0  0  0
  192.2150  176.7170  144.7470 C   0  0  0  0  0  3  0  0  0  0  0  0
  191.8740  174.6770  145.9310 N   0  0  0  0  0  2  0  0  0  0  0  0
  192.5700  174.3580  144.7530 N   0  0  0  0  0  2  0  0  0  0  0  0
  189.9200  175.5590  142.4880 C   0  0  0  0  0  2  0  0  0  0  0  0
  189.2150  174.3500  143.0780 C   0  0  0  0  0  2  0  0  0  0  0  0
  188.1540  173.8400  142.1200 C   0  0  0  0  0  2  0  0  0  0  0  0
  188.5620  174.1150  140.6830 C   0  0  0  0  0  2  0  0  0  0  0  0
  188.0030  172.4370  139.0900 O   0  0  0  0  0  0  0  0  0  0  0  0
  188.8070  172.8310  139.9740 C   0  0  0  0  0  0  0  0  0  0  0  0
  189.9410  172.0830  140.2620 O   0  0  0  0  0  1  0  0  0  0  0  0
  1  4  1  0  0  0  0
  2 10  1  0  0  0  0
  3  5  1  0  0  0  0
  4 16  1  6  0  0  0
  4 11  1  0  0  0  0
  5 12  1  6  0  0  0
  6  2  1  0  0  0  0
  6  9  2  0  0  0  0
  7  2  2  0  0  0  0
  8 15  1  6  0  0  0
  8 11  1  0  0  0  0
  8  3  1  0  0  0  0
  9 14  1  0  0  0  0
 10  1  1  6  0  0  0
 10 15  1  0  0  0  0
 11 13  1  1  0  0  0
 13  5  1  0  0  0  0
 14 15  2  0  0  0  0
 16 24  1  6  0  0  0
 16 18  1  0  0  0  0
 18 17  1  1  0  0  0
 18 21  1  0  0  0  0
 19 22  1  0  0  0  0
 20 21  1  0  0  0  0
 20 23  1  0  0  0  0
 21 19  1  0  0  0  0
 23 22  1  0  0  0  0
 24 25  1  0  0  0  0
 26 25  1  0  0  0  0
 27 26  1  0  0  0  0
 28 29  2  0  0  0  0
 29 30  1  0  0  0  0
 29 27  1  0  0  0  0
M  END
>  <MODEL>
5

>  <REMARK>
 VINA RESULT:      -6.7      3.697      7.406
  Name = 
  8 active torsions:
  status: ('A' for Active; 'I' for Inactive)
    1  A    between atoms: C_4  and  C_13
    2  A    between atoms: C_7  and  C_15
    3  A    between atoms: C_7  and  C_16
    4  A    between atoms: C_8  and  C_12
    5  A    between atoms: C_8  and  C_13
    6  A    between atoms: C_13  and  C_27
    7  A    between atoms: C_16  and  C_30
    8  A    between atoms: C_27  and  C_30
                            x       y       z     vdW  Elec       q    Type
                         _______ _______ _______ _____ _____    ______ ____

>  <TORSDO>
F 8

$$$$
=
 OpenBabel11052417163D

 30 33  0  0  1  0  0  0  0  0999 V2000
  188.1920  177.7560  142.0940 C   0  0  0  0  0  2  0  0  0  0  0  0
  186.3200  177.3270  140.4590 C   0  0  0  0  0  0  0  0  0  0  0  0
  185.1350  178.0220  145.5210 S   0  0  0  0  0  0  0  0  0  0  0  0
  188.6530  177.7430  143.5770 C   0  0  1  0  0  3  0  0  0  0  0  0
  186.5520  177.7810  146.6640 C   0  0  1  0  0  3  0  0  0  0  0  0
  185.0290  177.9130  140.0690 C   0  0  0  0  0  3  0  0  0  0  0  0
  187.0450  176.7890  139.5810 O   0  0  0  0  0  0  0  0  0  0  0  0
  186.3100  178.3920  144.2110 C   0  0  1  0  0  3  0  0  0  0  0  0
  184.2660  178.5310  140.9690 C   0  0  0  0  0  3  0  0  0  0  0  0
  186.7360  177.2950  141.9060 C   0  0  2  0  0  3  0  0  0  0  0  0
  187.4840  177.5140  144.5430 C   0  0  2  0  0  3  0  0  0  0  0  0
  186.3750  176.4860  147.4300 C   0  0  0  0  0  1  0  0  0  0  0  0
  187.8220  177.7580  145.9320 N   0  0  0  0  0  2  0  0  0  0  0  0
  184.6970  178.6650  142.3710 C   0  0  0  0  0  3  0  0  0  0  0  0
  185.8240  178.1000  142.8190 C   0  0  0  0  0  0  0  0  0  0  0  0
  189.7710  176.7210  143.8400 C   0  0  2  0  0  3  0  0  0  0  0  0
  191.5820  178.5010  143.8940 C   0  0  0  0  0  1  0  0  0  0  0  0
  191.1570  177.1510  143.3250 C   0  0  1  0  0  3  0  0  0  0  0  0
  193.2260  176.0400  142.4530 C   0  0  0  0  0  2  0  0  0  0  0  0
  193.0730  176.4320  144.7780 C   0  0  0  0  0  2  0  0  0  0  0  0
  192.2240  176.0790  143.5800 C   0  0  0  0  0  3  0  0  0  0  0  0
  194.5480  176.1160  143.0520 N   0  0  0  0  0  2  0  0  0  0  0  0
  194.3930  176.7820  144.2800 N   0  0  0  0  0  2  0  0  0  0  0  0
  189.3970  175.3010  143.4200 C   0  0  0  0  0  2  0  0  0  0  0  0
  188.9290  174.5000  144.6220 C   0  0  0  0  0  2  0  0  0  0  0  0
  190.0630  174.3300  145.6150 C   0  0  0  0  0  2  0  0  0  0  0  0
  189.6290  174.7860  146.9980 C   0  0  0  0  0  2  0  0  0  0  0  0
  190.6140  176.9430  147.2110 O   0  0  0  0  0  0  0  0  0  0  0  0
  190.6320  175.7320  147.5550 C   0  0  0  0  0  0  0  0  0  0  0  0
  191.5660  175.2880  148.4800 O   0  0  0  0  0  1  0  0  0  0  0  0
  1  4  1  0  0  0  0
  2 10  1  0  0  0  0
  3  5  1  0  0  0  0
  4 16  1  6  0  0  0
  4 11  1  0  0  0  0
  5 12  1  6  0  0  0
  6  2  1  0  0  0  0
  6  9  2  0  0  0  0
  7  2  2  0  0  0  0
  8 15  1  6  0  0  0
  8 11  1  0  0  0  0
  8  3  1  0  0  0  0
  9 14  1  0  0  0  0
 10  1  1  6  0  0  0
 10 15  1  0  0  0  0
 11 13  1  1  0  0  0
 13  5  1  0  0  0  0
 14 15  2  0  0  0  0
 16 24  1  6  0  0  0
 18 21  1  0  0  0  0
 18 16  1  0  0  0  0
 18 17  1  1  0  0  0
 19 22  1  0  0  0  0
 19 21  1  0  0  0  0
 21 20  1  0  0  0  0
 22 23  1  0  0  0  0
 23 20  1  0  0  0  0
 24 25  1  0  0  0  0
 25 26  1  0  0  0  0
 26 27  1  0  0  0  0
 27 29  1  0  0  0  0
 28 29  2  0  0  0  0
 29 30  1  0  0  0  0
M  END
>  <MODEL>
6

>  <REMARK>
 VINA RESULT:      -6.4      3.197      7.056
  Name = 
  8 active torsions:
  status: ('A' for Active; 'I' for Inactive)
    1  A    between atoms: C_4  and  C_13
    2  A    between atoms: C_7  and  C_15
    3  A    between atoms: C_7  and  C_16
    4  A    between atoms: C_8  and  C_12
    5  A    between atoms: C_8  and  C_13
    6  A    between atoms: C_13  and  C_27
    7  A    between atoms: C_16  and  C_30
    8  A    between atoms: C_27  and  C_30
                            x       y       z     vdW  Elec       q    Type
                         _______ _______ _______ _____ _____    ______ ____

>  <TORSDO>
F 8

$$$$
=
 OpenBabel11052417163D

 30 33  0  0  1  0  0  0  0  0999 V2000
  189.3810  177.6300  142.7340 C   0  0  0  0  0  2  0  0  0  0  0  0
  187.0850  177.9230  141.7310 C   0  0  0  0  0  0  0  0  0  0  0  0
  187.4760  176.7310  146.8230 S   0  0  0  0  0  0  0  0  0  0  0  0
  190.2270  177.0450  143.8970 C   0  0  1  0  0  3  0  0  0  0  0  0
  189.0980  176.0200  147.3060 C   0  0  1  0  0  3  0  0  0  0  0  0
  185.8440  178.6680  141.9930 C   0  0  0  0  0  3  0  0  0  0  0  0
  187.4440  177.7210  140.5410 O   0  0  0  0  0  0  0  0  0  0  0  0
  188.2840  177.5120  145.4190 C   0  0  1  0  0  3  0  0  0  0  0  0
  185.4680  178.9380  143.2420 C   0  0  0  0  0  3  0  0  0  0  0  0
  187.8760  177.3360  142.8700 C   0  0  2  0  0  3  0  0  0  0  0  0
  189.3510  176.5230  145.0440 C   0  0  2  0  0  3  0  0  0  0  0  0
  188.9410  174.5410  147.5970 C   0  0  0  0  0  1  0  0  0  0  0  0
  190.0950  176.2160  146.2500 N   0  0  0  0  0  2  0  0  0  0  0  0
  186.2860  178.5210  144.3930 C   0  0  0  0  0  3  0  0  0  0  0  0
  187.3910  177.7810  144.2410 C   0  0  0  0  0  0  0  0  0  0  0  0
  191.2000  175.9510  143.4280 C   0  0  2  0  0  3  0  0  0  0  0  0
  193.2750  176.8000  144.6230 C   0  0  0  0  0  1  0  0  0  0  0  0
  192.6590  176.4210  143.2800 C   0  0  1  0  0  3  0  0  0  0  0  0
  194.4050  176.0660  141.5190 C   0  0  0  0  0  2  0  0  0  0  0  0
  194.5190  174.7480  143.4770 C   0  0  0  0  0  2  0  0  0  0  0  0
  193.5240  175.3920  142.5420 C   0  0  0  0  0  3  0  0  0  0  0  0
  195.7620  175.6010  141.7500 N   0  0  0  0  0  2  0  0  0  0  0  0
  195.8360  175.2400  143.1060 N   0  0  0  0  0  2  0  0  0  0  0  0
  190.6980  175.1840  142.2070 C   0  0  0  0  0  2  0  0  0  0  0  0
  190.0730  173.8670  142.6310 C   0  0  0  0  0  2  0  0  0  0  0  0
  188.8170  173.5960  141.8230 C   0  0  0  0  0  2  0  0  0  0  0  0
  188.7660  174.5020  140.6050 C   0  0  0  0  0  2  0  0  0  0  0  0
  190.2280  173.6520  138.9300 O   0  0  0  0  0  1  0  0  0  0  0  0
  189.0530  173.7140  139.3780 C   0  0  0  0  0  0  0  0  0  0  0  0
  188.0330  173.0190  138.7440 O   0  0  0  0  0  0  0  0  0  0  0  0
  1  4  1  0  0  0  0
  2  6  1  0  0  0  0
  2 10  1  0  0  0  0
  3  5  1  0  0  0  0
  4 16  1  6  0  0  0
  4 11  1  0  0  0  0
  5 12  1  6  0  0  0
  6  9  2  0  0  0  0
  7  2  2  0  0  0  0
  8 15  1  6  0  0  0
  8  3  1  0  0  0  0
  9 14  1  0  0  0  0
 10  1  1  6  0  0  0
 10 15  1  0  0  0  0
 11  8  1  0  0  0  0
 11 13  1  1  0  0  0
 13  5  1  0  0  0  0
 15 14  2  0  0  0  0
 16 24  1  6  0  0  0
 18 16  1  0  0  0  0
 18 17  1  1  0  0  0
 19 22  1  0  0  0  0
 19 21  1  0  0  0  0
 21 18  1  0  0  0  0
 21 20  1  0  0  0  0
 22 23  1  0  0  0  0
 23 20  1  0  0  0  0
 24 25  1  0  0  0  0
 26 25  1  0  0  0  0
 27 26  1  0  0  0  0
 28 29  1  0  0  0  0
 29 27  1  0  0  0  0
 30 29  2  0  0  0  0
M  END
>  <MODEL>
7

>  <REMARK>
 VINA RESULT:      -6.3      3.877      7.369
  Name = 
  8 active torsions:
  status: ('A' for Active; 'I' for Inactive)
    1  A    between atoms: C_4  and  C_13
    2  A    between atoms: C_7  and  C_15
    3  A    between atoms: C_7  and  C_16
    4  A    between atoms: C_8  and  C_12
    5  A    between atoms: C_8  and  C_13
    6  A    between atoms: C_13  and  C_27
    7  A    between atoms: C_16  and  C_30
    8  A    between atoms: C_27  and  C_30
                            x       y       z     vdW  Elec       q    Type
                         _______ _______ _______ _____ _____    ______ ____

>  <TORSDO>
F 8

$$$$
=
 OpenBabel11052417163D

 30 33  0  0  1  0  0  0  0  0999 V2000
  187.6880  177.7830  142.6480 C   0  0  0  0  0  2  0  0  0  0  0  0
  185.1850  178.0460  142.4760 C   0  0  0  0  0  0  0  0  0  0  0  0
  187.2680  176.7110  147.1010 S   0  0  0  0  0  0  0  0  0  0  0  0
  188.8830  177.1870  143.4410 C   0  0  1  0  0  3  0  0  0  0  0  0
  188.9690  176.0290  146.9910 C   0  0  1  0  0  3  0  0  0  0  0  0
  184.0920  178.7490  143.1630 C   0  0  0  0  0  3  0  0  0  0  0  0
  185.1310  177.8890  141.2280 O   0  0  0  0  0  0  0  0  0  0  0  0
  187.5500  177.5550  145.5390 C   0  0  1  0  0  3  0  0  0  0  0  0
  184.1490  178.9710  144.4750 C   0  0  0  0  0  3  0  0  0  0  0  0
  186.3200  177.4450  143.2650 C   0  0  2  0  0  3  0  0  0  0  0  0
  188.4470  176.6070  144.7930 C   0  0  2  0  0  3  0  0  0  0  0  0
  188.9410  174.5390  147.2620 C   0  0  0  0  0  1  0  0  0  0  0  0
  189.5540  176.2840  145.6710 N   0  0  0  0  0  2  0  0  0  0  0  0
  185.3100  178.5410  145.2730 C   0  0  0  0  0  3  0  0  0  0  0  0
  186.3120  177.8360  144.7350 C   0  0  0  0  0  0  0  0  0  0  0  0
  189.6610  176.1330  142.6350 C   0  0  2  0  0  3  0  0  0  0  0  0
  188.1730  174.1820  141.9750 C   0  0  0  0  0  1  0  0  0  0  0  0
  189.2520  174.6780  142.9330 C   0  0  1  0  0  3  0  0  0  0  0  0
  190.5760  173.0340  144.2810 C   0  0  0  0  0  2  0  0  0  0  0  0
  190.2670  172.5910  141.9800 C   0  0  0  0  0  2  0  0  0  0  0  0
  190.4590  173.7330  142.9490 C   0  0  0  0  0  3  0  0  0  0  0  0
  190.6930  171.6110  144.0080 N   0  0  0  0  0  2  0  0  0  0  0  0
  190.0650  171.3870  142.7710 N   0  0  0  0  0  2  0  0  0  0  0  0
  191.1720  176.3430  142.6730 C   0  0  0  0  0  2  0  0  0  0  0  0
  191.5250  177.4760  143.6210 C   0  0  0  0  0  2  0  0  0  0  0  0
  192.8900  177.2390  144.2390 C   0  0  0  0  0  2  0  0  0  0  0  0
  193.0900  175.7620  144.5310 C   0  0  0  0  0  2  0  0  0  0  0  0
  192.4660  175.0130  146.7020 O   0  0  0  0  0  1  0  0  0  0  0  0
  193.3400  175.5630  145.9830 C   0  0  0  0  0  0  0  0  0  0  0  0
  194.5510  175.9520  146.5390 O   0  0  0  0  0  0  0  0  0  0  0  0
  1  4  1  0  0  0  0
  2  6  1  0  0  0  0
  2 10  1  0  0  0  0
  4 16  1  6  0  0  0
  4 11  1  0  0  0  0
  5  3  1  0  0  0  0
  5 12  1  6  0  0  0
  6  9  2  0  0  0  0
  7  2  2  0  0  0  0
  8 15  1  6  0  0  0
  8  3  1  0  0  0  0
  9 14  1  0  0  0  0
 10  1  1  6  0  0  0
 10 15  1  0  0  0  0
 11  8  1  0  0  0  0
 11 13  1  1  0  0  0
 13  5  1  0  0  0  0
 15 14  2  0  0  0  0
 16 24  1  1  0  0  0
 16 18  1  0  0  0  0
 18 17  1  6  0  0  0
 18 21  1  0  0  0  0
 20 23  1  0  0  0  0
 20 21  1  0  0  0  0
 21 19  1  0  0  0  0
 22 19  1  0  0  0  0
 23 22  1  0  0  0  0
 24 25  1  0  0  0  0
 25 26  1  0  0  0  0
 26 27  1  0  0  0  0
 27 29  1  0  0  0  0
 29 30  2  0  0  0  0
 29 28  1  0  0  0  0
M  END
>  <MODEL>
8

>  <REMARK>
 VINA RESULT:      -6.3      2.963      7.028
  Name = 
  8 active torsions:
  status: ('A' for Active; 'I' for Inactive)
    1  A    between atoms: C_4  and  C_13
    2  A    between atoms: C_7  and  C_15
    3  A    between atoms: C_7  and  C_16
    4  A    between atoms: C_8  and  C_12
    5  A    between atoms: C_8  and  C_13
    6  A    between atoms: C_13  and  C_27
    7  A    between atoms: C_16  and  C_30
    8  A    between atoms: C_27  and  C_30
                            x       y       z     vdW  Elec       q    Type
                         _______ _______ _______ _____ _____    ______ ____

>  <TORSDO>
F 8

$$$$
=
 OpenBabel11052417163D

 30 33  0  0  1  0  0  0  0  0999 V2000
  191.5080  174.7640  143.6830 C   0  0  0  0  0  2  0  0  0  0  0  0
  193.6690  176.0650  143.7370 C   0  0  0  0  0  0  0  0  0  0  0  0
  189.9800  177.1570  147.3020 S   0  0  0  0  0  0  0  0  0  0  0  0
  190.0160  174.7020  144.1080 C   0  0  1  0  0  3  0  0  0  0  0  0
  188.3000  176.5690  146.8500 C   0  0  1  0  0  3  0  0  0  0  0  0
  194.7180  176.4380  144.6970 C   0  0  0  0  0  3  0  0  0  0  0  0
  193.9820  175.8320  142.5400 O   0  0  0  0  0  0  0  0  0  0  0  0
  190.6670  175.8940  146.2210 C   0  0  1  0  0  3  0  0  0  0  0  0
  194.4210  176.6400  145.9800 C   0  0  0  0  0  3  0  0  0  0  0  0
  192.2230  176.0410  144.1590 C   0  0  2  0  0  3  0  0  0  0  0  0
  189.6550  175.8030  145.1130 C   0  0  2  0  0  3  0  0  0  0  0  0
  187.4280  177.7520  146.4790 C   0  0  0  0  0  1  0  0  0  0  0  0
  188.3570  175.6220  145.7320 N   0  0  0  0  0  2  0  0  0  0  0  0
  193.0450  176.4790  146.4790 C   0  0  0  0  0  3  0  0  0  0  0  0
  192.0240  176.2100  145.6570 C   0  0  0  0  0  0  0  0  0  0  0  0
  189.0570  174.7420  142.9060 C   0  0  2  0  0  3  0  0  0  0  0  0
  187.8390  172.7180  141.9710 C   0  0  0  0  0  1  0  0  0  0  0  0
  189.1430  173.5100  141.9860 C   0  0  1  0  0  3  0  0  0  0  0  0
  190.8840  173.2040  140.2110 C   0  0  0  0  0  2  0  0  0  0  0  0
  188.6220  173.3340  139.5380 C   0  0  0  0  0  2  0  0  0  0  0  0
  189.5830  173.8820  140.5650 C   0  0  0  0  0  3  0  0  0  0  0  0
  190.6860  172.5400  138.9330 N   0  0  0  0  0  2  0  0  0  0  0  0
  189.3120  172.2640  138.8330 N   0  0  0  0  0  2  0  0  0  0  0  0
  189.1120  176.0600  142.1380 C   0  0  0  0  0  2  0  0  0  0  0  0
  187.7120  176.6180  141.9470 C   0  0  0  0  0  2  0  0  0  0  0  0
  187.4870  177.8010  142.8710 C   0  0  0  0  0  2  0  0  0  0  0  0
  186.3280  178.6480  142.3740 C   0  0  0  0  0  2  0  0  0  0  0  0
  185.6240  180.1380  144.0910 O   0  0  0  0  0  1  0  0  0  0  0  0
  185.4570  179.0310  143.5160 C   0  0  0  0  0  0  0  0  0  0  0  0
  184.4370  178.1840  143.9260 O   0  0  0  0  0  0  0  0  0  0  0  0
  1  4  1  0  0  0  0
  2 10  1  0  0  0  0
  2  6  1  0  0  0  0
  4 16  1  6  0  0  0
  4 11  1  0  0  0  0
  5 12  1  6  0  0  0
  5  3  1  0  0  0  0
  6  9  2  0  0  0  0
  7  2  2  0  0  0  0
  8 15  1  6  0  0  0
  8  3  1  0  0  0  0
  9 14  1  0  0  0  0
 10  1  1  1  0  0  0
 10 15  1  0  0  0  0
 11 13  1  1  0  0  0
 11  8  1  0  0  0  0
 13  5  1  0  0  0  0
 15 14  2  0  0  0  0
 16 24  1  6  0  0  0
 18 17  1  6  0  0  0
 18 16  1  0  0  0  0
 19 21  1  0  0  0  0
 20 21  1  0  0  0  0
 21 18  1  0  0  0  0
 22 19  1  0  0  0  0
 23 22  1  0  0  0  0
 23 20  1  0  0  0  0
 25 24  1  0  0  0  0
 25 26  1  0  0  0  0
 27 26  1  0  0  0  0
 27 29  1  0  0  0  0
 29 30  2  0  0  0  0
 29 28  1  0  0  0  0
M  END
>  <MODEL>
9

>  <REMARK>
 VINA RESULT:      -6.2      2.747      4.572
  Name = 
  8 active torsions:
  status: ('A' for Active; 'I' for Inactive)
    1  A    between atoms: C_4  and  C_13
    2  A    between atoms: C_7  and  C_15
    3  A    between atoms: C_7  and  C_16
    4  A    between atoms: C_8  and  C_12
    5  A    between atoms: C_8  and  C_13
    6  A    between atoms: C_13  and  C_27
    7  A    between atoms: C_16  and  C_30
    8  A    between atoms: C_27  and  C_30
                            x       y       z     vdW  Elec       q    Type
                         _______ _______ _______ _____ _____    ______ ____

>  <TORSDO>
F 8

$$$$
