=
 OpenBabel11052419123D

 32 37  0  0  0  0  0  0  0  0999 V2000
  189.9970  175.6110  145.3750 C   0  0  0  0  0  0  0  0  0  0  0  0
  191.0530  173.9140  143.8570 C   0  0  0  0  0  0  0  0  0  0  0  0
  189.9870  176.3860  146.5480 C   0  0  0  0  0  3  0  0  0  0  0  0
  191.0990  174.7230  145.1140 C   0  0  0  0  0  0  0  0  0  0  0  0
  191.9890  173.0270  143.4150 C   0  0  0  0  0  0  0  0  0  0  0  0
  188.5270  172.7220  139.7930 C   0  0  0  0  0  3  0  0  0  0  0  0
  189.8480  174.1000  142.9940 C   0  0  0  0  0  0  0  0  0  0  0  0
  190.6780  171.7400  140.2990 C   0  0  0  0  0  3  0  0  0  0  0  0
  190.7500  172.4920  141.4760 C   0  0  0  0  0  0  0  0  0  0  0  0
  193.7080  173.0900  145.1320 C   0  0  0  0  0  0  0  0  0  0  0  0
  192.1490  174.6730  146.0720 C   0  0  0  0  0  0  0  0  0  0  0  0
  191.8020  172.3670  142.2690 O   0  0  0  0  0  0  0  0  0  0  0  0
  193.2430  173.9460  146.0160 O   0  0  0  0  0  0  0  0  0  0  0  0
  192.0770  175.4620  147.2230 C   0  0  0  0  0  3  0  0  0  0  0  0
  188.8620  174.9980  143.3700 C   0  0  0  0  0  3  0  0  0  0  0  0
  194.8570  172.5590  145.3880 N   0  0  0  0  0  2  0  0  0  0  0  0
  188.9400  175.7220  144.5080 N   0  0  0  0  0  0  0  0  0  0  0  0
  189.7160  173.3680  141.8120 C   0  0  0  0  0  0  0  0  0  0  0  0
  193.1220  172.7140  144.0130 O   0  0  0  0  0  0  0  0  0  0  0  0
  191.0150  176.3150  147.4650 C   0  0  0  0  0  3  0  0  0  0  0  0
  189.5680  171.8540  139.4580 C   0  0  0  0  0  3  0  0  0  0  0  0
  188.5990  173.4800  140.9660 C   0  0  0  0  0  3  0  0  0  0  0  0
  186.4740  178.3460  143.6020 C   0  0  0  0  0  0  0  0  0  0  0  0
  184.0500  178.6660  146.2570 C   0  0  0  0  0  1  0  0  0  0  0  0
  186.4130  179.4160  142.7630 F   0  0  0  0  0  0  0  0  0  0  0  0
  185.9940  177.2100  146.3930 C   0  0  0  0  0  3  0  0  0  0  0  0
  187.8450  176.6150  144.7710 C   0  0  0  0  0  0  0  0  0  0  0  0
  185.1910  177.7900  144.1310 C   0  0  0  0  0  2  0  0  0  0  0  0
  187.1360  176.4160  145.8990 C   0  0  0  0  0  3  0  0  0  0  0  0
  187.6610  177.7800  143.8620 C   0  0  0  0  0  0  0  0  0  0  0  0
  188.7870  178.2880  143.2210 O   0  0  0  0  0  1  0  0  0  0  0  0
  185.1420  177.8840  145.6200 C   0  0  0  0  0  0  0  0  0  0  0  0
  1  3  1  0  0  0  0
  2  4  1  0  0  0  0
  3 20  2  0  0  0  0
  4  1  2  0  0  0  0
  4 11  1  0  0  0  0
  5  2  2  0  0  0  0
  5 19  1  0  0  0  0
  6 22  1  0  0  0  0
  7 15  2  0  0  0  0
  7  2  1  0  0  0  0
  8  9  2  0  0  0  0
  9 18  1  0  0  0  0
  9 12  1  0  0  0  0
 10 16  2  0  0  0  0
 10 13  1  0  0  0  0
 11 14  2  0  0  0  0
 12  5  1  0  0  0  0
 13 11  1  0  0  0  0
 14 20  1  0  0  0  0
 15 17  1  0  0  0  0
 17 27  1  0  0  0  0
 17  1  1  0  0  0  0
 18  7  1  0  0  0  0
 19 10  1  0  0  0  0
 21  6  2  0  0  0  0
 21  8  1  0  0  0  0
 22 18  2  0  0  0  0
 23 30  2  0  0  0  0
 23 28  1  0  0  0  0
 25 23  1  0  0  0  0
 27 29  2  0  0  0  0
 28 32  1  0  0  0  0
 29 26  1  0  0  0  0
 30 27  1  0  0  0  0
 31 30  1  0  0  0  0
 32 24  1  0  0  0  0
 32 26  2  0  0  0  0
M  END
>  <MODEL>
1

>  <REMARK>
 VINA RESULT:      -9.1      0.000      0.000
  Name = 
  1 active torsions:
  status: ('A' for Active; 'I' for Inactive)
    1  A    between atoms: C_16  and  N_27
                            x       y       z     vdW  Elec       q    Type
                         _______ _______ _______ _____ _____    ______ ____

>  <TORSDO>
F 1

$$$$
=
 OpenBabel11052419123D

 32 37  0  0  0  0  0  0  0  0999 V2000
  188.9460  174.6560  142.9800 C   0  0  0  0  0  0  0  0  0  0  0  0
  191.3210  173.9480  143.3790 C   0  0  0  0  0  0  0  0  0  0  0  0
  187.7100  174.5250  142.3240 C   0  0  0  0  0  3  0  0  0  0  0  0
  190.0240  173.7580  142.6590 C   0  0  0  0  0  0  0  0  0  0  0  0
  192.4580  173.2100  143.2340 C   0  0  0  0  0  0  0  0  0  0  0  0
  193.8840  176.5920  146.6600 C   0  0  0  0  0  3  0  0  0  0  0  0
  191.3730  175.0720  144.3610 C   0  0  0  0  0  0  0  0  0  0  0  0
  194.8510  174.7030  145.5000 C   0  0  0  0  0  3  0  0  0  0  0  0
  193.6460  174.4970  144.8200 C   0  0  0  0  0  0  0  0  0  0  0  0
  191.8660  171.5480  141.5640 C   0  0  0  0  0  0  0  0  0  0  0  0
  189.7820  172.7590  141.6750 C   0  0  0  0  0  0  0  0  0  0  0  0
  193.5490  173.5100  143.9450 O   0  0  0  0  0  0  0  0  0  0  0  0
  190.6220  171.8400  141.2520 O   0  0  0  0  0  0  0  0  0  0  0  0
  188.5340  172.6860  141.0520 C   0  0  0  0  0  3  0  0  0  0  0  0
  190.2510  175.8560  144.5740 C   0  0  0  0  0  3  0  0  0  0  0  0
  192.3950  170.5400  140.9540 N   0  0  0  0  0  2  0  0  0  0  0  0
  189.0910  175.6500  143.9140 N   0  0  0  0  0  0  0  0  0  0  0  0
  192.5530  175.3320  145.0620 C   0  0  0  0  0  0  0  0  0  0  0  0
  192.6310  172.1790  142.4310 O   0  0  0  0  0  0  0  0  0  0  0  0
  187.5020  173.5520  141.3690 C   0  0  0  0  0  3  0  0  0  0  0  0
  194.9700  175.7480  146.4190 C   0  0  0  0  0  3  0  0  0  0  0  0
  192.6760  176.3850  145.9860 C   0  0  0  0  0  3  0  0  0  0  0  0
  186.4600  178.1420  143.1050 C   0  0  0  0  0  0  0  0  0  0  0  0
  184.3550  178.6290  145.9960 C   0  0  0  0  0  1  0  0  0  0  0  0
  186.2690  179.1380  142.1970 F   0  0  0  0  0  0  0  0  0  0  0  0
  186.3430  177.2280  146.0130 C   0  0  0  0  0  3  0  0  0  0  0  0
  188.0080  176.5390  144.2350 C   0  0  0  0  0  0  0  0  0  0  0  0
  185.2640  177.6060  143.8250 C   0  0  0  0  0  2  0  0  0  0  0  0
  187.4420  176.4190  145.4520 C   0  0  0  0  0  3  0  0  0  0  0  0
  187.6840  177.6220  143.2650 C   0  0  0  0  0  0  0  0  0  0  0  0
  188.7120  178.0990  142.4560 O   0  0  0  0  0  1  0  0  0  0  0  0
  185.3870  177.8200  145.2970 C   0  0  0  0  0  0  0  0  0  0  0  0
  1 17  1  0  0  0  0
  2  7  1  0  0  0  0
  3  1  2  0  0  0  0
  4  1  1  0  0  0  0
  4  2  1  0  0  0  0
  5  2  2  0  0  0  0
  5 12  1  0  0  0  0
  7 15  2  0  0  0  0
  7 18  1  0  0  0  0
  8 21  2  0  0  0  0
  9 18  2  0  0  0  0
  9  8  1  0  0  0  0
 10 19  1  0  0  0  0
 11  4  2  0  0  0  0
 12  9  1  0  0  0  0
 13 10  1  0  0  0  0
 13 11  1  0  0  0  0
 14 20  2  0  0  0  0
 14 11  1  0  0  0  0
 16 10  2  0  0  0  0
 17 27  1  0  0  0  0
 17 15  1  0  0  0  0
 18 22  1  0  0  0  0
 19  5  1  0  0  0  0
 20  3  1  0  0  0  0
 21  6  1  0  0  0  0
 22  6  2  0  0  0  0
 23 30  2  0  0  0  0
 23 28  1  0  0  0  0
 25 23  1  0  0  0  0
 27 29  2  0  0  0  0
 28 32  1  0  0  0  0
 29 26  1  0  0  0  0
 30 27  1  0  0  0  0
 31 30  1  0  0  0  0
 32 24  1  0  0  0  0
 32 26  2  0  0  0  0
M  END
>  <MODEL>
2

>  <REMARK>
 VINA RESULT:      -9.0      1.498      4.421
  Name = 
  1 active torsions:
  status: ('A' for Active; 'I' for Inactive)
    1  A    between atoms: C_16  and  N_27
                            x       y       z     vdW  Elec       q    Type
                         _______ _______ _______ _____ _____    ______ ____

>  <TORSDO>
F 1

$$$$
=
 OpenBabel11052419123D

 32 37  0  0  0  0  0  0  0  0999 V2000
  189.5150  175.5450  144.4800 C   0  0  0  0  0  0  0  0  0  0  0  0
  187.2650  176.6520  144.3810 C   0  0  0  0  0  0  0  0  0  0  0  0
  190.5890  174.9850  145.1940 C   0  0  0  0  0  3  0  0  0  0  0  0
  188.3730  176.0570  145.1900 C   0  0  0  0  0  0  0  0  0  0  0  0
  186.0990  177.1820  144.8480 C   0  0  0  0  0  0  0  0  0  0  0  0
  185.5980  177.8540  139.8990 C   0  0  0  0  0  3  0  0  0  0  0  0
  187.4610  176.6670  142.9010 C   0  0  0  0  0  0  0  0  0  0  0  0
  184.3160  178.2910  141.9030 C   0  0  0  0  0  3  0  0  0  0  0  0
  185.3340  177.7310  142.6820 C   0  0  0  0  0  0  0  0  0  0  0  0
  186.2630  176.9190  147.2590 C   0  0  0  0  0  0  0  0  0  0  0  0
  188.3830  175.9680  146.6100 C   0  0  0  0  0  0  0  0  0  0  0  0
  185.2020  177.6880  143.9970 O   0  0  0  0  0  0  0  0  0  0  0  0
  187.4400  176.3600  147.4380 O   0  0  0  0  0  0  0  0  0  0  0  0
  189.4840  175.4080  147.2630 C   0  0  0  0  0  3  0  0  0  0  0  0
  188.6150  176.1320  142.3520 C   0  0  0  0  0  3  0  0  0  0  0  0
  185.5660  177.1570  148.3200 N   0  0  0  0  0  2  0  0  0  0  0  0
  189.5930  175.5920  143.1110 N   0  0  0  0  0  0  0  0  0  0  0  0
  186.4830  177.2230  142.0730 C   0  0  0  0  0  0  0  0  0  0  0  0
  185.7210  177.2670  146.1090 O   0  0  0  0  0  0  0  0  0  0  0  0
  190.5770  174.9160  146.5720 C   0  0  0  0  0  3  0  0  0  0  0  0
  184.4470  178.3520  140.5130 C   0  0  0  0  0  3  0  0  0  0  0  0
  186.6140  177.2880  140.6750 C   0  0  0  0  0  3  0  0  0  0  0  0
  193.2270  175.2390  142.4340 C   0  0  0  0  0  0  0  0  0  0  0  0
  193.7400  172.5620  140.0690 C   0  0  0  0  0  1  0  0  0  0  0  0
  194.3440  176.0080  142.5410 F   0  0  0  0  0  0  0  0  0  0  0  0
  191.5380  173.3420  140.7450 C   0  0  0  0  0  3  0  0  0  0  0  0
  190.7330  175.0730  142.4070 C   0  0  0  0  0  0  0  0  0  0  0  0
  193.3980  173.7590  142.3130 C   0  0  0  0  0  2  0  0  0  0  0  0
  190.5350  174.0250  141.5850 C   0  0  0  0  0  3  0  0  0  0  0  0
  192.0200  175.8160  142.5210 C   0  0  0  0  0  0  0  0  0  0  0  0
  191.9600  177.1850  142.7630 O   0  0  0  0  0  1  0  0  0  0  0  0
  192.8380  173.2600  141.0220 C   0  0  0  0  0  0  0  0  0  0  0  0
  1  4  2  0  0  0  0
  1  3  1  0  0  0  0
  2  5  2  0  0  0  0
  2  4  1  0  0  0  0
  3 20  2  0  0  0  0
  4 11  1  0  0  0  0
  5 19  1  0  0  0  0
  6 21  2  0  0  0  0
  6 22  1  0  0  0  0
  7  2  1  0  0  0  0
  8  9  2  0  0  0  0
  9 12  1  0  0  0  0
 10 13  1  0  0  0  0
 10 16  2  0  0  0  0
 11 14  2  0  0  0  0
 11 13  1  0  0  0  0
 12  5  1  0  0  0  0
 15  7  2  0  0  0  0
 15 17  1  0  0  0  0
 17  1  1  0  0  0  0
 18  9  1  0  0  0  0
 18  7  1  0  0  0  0
 19 10  1  0  0  0  0
 20 14  1  0  0  0  0
 21  8  1  0  0  0  0
 22 18  2  0  0  0  0
 23 30  2  0  0  0  0
 23 25  1  0  0  0  0
 24 32  1  0  0  0  0
 26 32  2  0  0  0  0
 26 29  1  0  0  0  0
 27 30  1  0  0  0  0
 27 17  1  0  0  0  0
 28 23  1  0  0  0  0
 29 27  2  0  0  0  0
 30 31  1  0  0  0  0
 32 28  1  0  0  0  0
M  END
>  <MODEL>
3

>  <REMARK>
 VINA RESULT:      -8.9      2.948      6.774
  Name = 
  1 active torsions:
  status: ('A' for Active; 'I' for Inactive)
    1  A    between atoms: C_16  and  N_27
                            x       y       z     vdW  Elec       q    Type
                         _______ _______ _______ _____ _____    ______ ____

>  <TORSDO>
F 1

$$$$
=
 OpenBabel11052419123D

 32 37  0  0  0  0  0  0  0  0999 V2000
  190.8330  175.6930  144.2460 C   0  0  0  0  0  0  0  0  0  0  0  0
  189.1230  175.2650  142.4590 C   0  0  0  0  0  0  0  0  0  0  0  0
  191.2340  176.2760  145.4610 C   0  0  0  0  0  3  0  0  0  0  0  0
  189.4930  175.8990  143.7620 C   0  0  0  0  0  0  0  0  0  0  0  0
  187.9160  175.3260  141.8290 C   0  0  0  0  0  0  0  0  0  0  0  0
  190.5920  172.5520  138.6120 C   0  0  0  0  0  3  0  0  0  0  0  0
  190.1960  174.4820  141.7760 C   0  0  0  0  0  0  0  0  0  0  0  0
  188.3410  173.4180  138.7840 C   0  0  0  0  0  3  0  0  0  0  0  0
  188.6580  174.0140  140.0100 C   0  0  0  0  0  0  0  0  0  0  0  0
  186.5500  176.6800  143.3140 C   0  0  0  0  0  0  0  0  0  0  0  0
  188.6200  176.6970  144.5520 C   0  0  0  0  0  0  0  0  0  0  0  0
  187.7390  174.7110  140.6550 O   0  0  0  0  0  0  0  0  0  0  0  0
  187.3640  176.9930  144.2980 O   0  0  0  0  0  0  0  0  0  0  0  0
  189.0810  177.2560  145.7470 C   0  0  0  0  0  3  0  0  0  0  0  0
  191.4450  174.3620  142.3640 C   0  0  0  0  0  3  0  0  0  0  0  0
  185.3430  177.1340  143.3930 N   0  0  0  0  0  2  0  0  0  0  0  0
  191.7430  174.9400  143.5490 N   0  0  0  0  0  0  0  0  0  0  0  0
  189.9400  173.8740  140.5450 C   0  0  0  0  0  0  0  0  0  0  0  0
  186.8370  175.9540  142.2520 O   0  0  0  0  0  0  0  0  0  0  0  0
  190.3700  177.0510  146.2070 C   0  0  0  0  0  3  0  0  0  0  0  0
  189.3060  172.6880  138.0860 C   0  0  0  0  0  3  0  0  0  0  0  0
  190.9110  173.1410  139.8400 C   0  0  0  0  0  3  0  0  0  0  0  0
  195.1730  176.0240  144.4690 C   0  0  0  0  0  0  0  0  0  0  0  0
  196.8390  173.3400  146.2150 C   0  0  0  0  0  1  0  0  0  0  0  0
  196.0690  176.9630  144.0620 F   0  0  0  0  0  0  0  0  0  0  0  0
  194.6250  173.1210  145.2320 C   0  0  0  0  0  3  0  0  0  0  0  0
  193.0770  174.7320  144.0410 C   0  0  0  0  0  0  0  0  0  0  0  0
  195.3650  175.4030  145.8160 C   0  0  0  0  0  2  0  0  0  0  0  0
  193.3360  173.5680  144.6690 C   0  0  0  0  0  3  0  0  0  0  0  0
  194.1130  175.7460  143.6980 C   0  0  0  0  0  0  0  0  0  0  0  0
  193.9490  176.4690  142.5200 O   0  0  0  0  0  1  0  0  0  0  0  0
  195.5760  173.9290  145.6990 C   0  0  0  0  0  0  0  0  0  0  0  0
  1  3  1  0  0  0  0
  2  4  1  0  0  0  0
  3 20  2  0  0  0  0
  4  1  2  0  0  0  0
  4 11  1  0  0  0  0
  5 19  1  0  0  0  0
  5  2  2  0  0  0  0
  6 22  1  0  0  0  0
  7 15  2  0  0  0  0
  7  2  1  0  0  0  0
  8  9  2  0  0  0  0
  9 18  1  0  0  0  0
  9 12  1  0  0  0  0
 10 16  2  0  0  0  0
 10 13  1  0  0  0  0
 11 14  2  0  0  0  0
 12  5  1  0  0  0  0
 13 11  1  0  0  0  0
 14 20  1  0  0  0  0
 15 17  1  0  0  0  0
 17 27  1  0  0  0  0
 17  1  1  0  0  0  0
 18  7  1  0  0  0  0
 19 10  1  0  0  0  0
 21  6  2  0  0  0  0
 21  8  1  0  0  0  0
 22 18  2  0  0  0  0
 23 28  1  0  0  0  0
 25 23  1  0  0  0  0
 26 32  2  0  0  0  0
 27 29  2  0  0  0  0
 29 26  1  0  0  0  0
 30 27  1  0  0  0  0
 30 23  2  0  0  0  0
 31 30  1  0  0  0  0
 32 28  1  0  0  0  0
 32 24  1  0  0  0  0
M  END
>  <MODEL>
4

>  <REMARK>
 VINA RESULT:      -8.8      2.954      6.376
  Name = 
  1 active torsions:
  status: ('A' for Active; 'I' for Inactive)
    1  A    between atoms: C_16  and  N_27
                            x       y       z     vdW  Elec       q    Type
                         _______ _______ _______ _____ _____    ______ ____

>  <TORSDO>
F 1

$$$$
=
 OpenBabel11052419123D

 32 37  0  0  0  0  0  0  0  0999 V2000
  190.1950  176.4990  144.7310 C   0  0  0  0  0  0  0  0  0  0  0  0
  187.8920  177.4180  144.3440 C   0  0  0  0  0  0  0  0  0  0  0  0
  191.2730  176.1750  145.5730 C   0  0  0  0  0  3  0  0  0  0  0  0
  189.0040  177.0840  145.2870 C   0  0  0  0  0  0  0  0  0  0  0  0
  186.6840  177.9670  144.6580 C   0  0  0  0  0  0  0  0  0  0  0  0
  186.3120  177.5020  139.6730 C   0  0  0  0  0  3  0  0  0  0  0  0
  188.1370  177.1200  142.9010 C   0  0  0  0  0  0  0  0  0  0  0  0
  184.9420  178.2910  141.5040 C   0  0  0  0  0  3  0  0  0  0  0  0
  185.9630  177.9790  142.4080 C   0  0  0  0  0  0  0  0  0  0  0  0
  186.7820  178.2510  147.0690 C   0  0  0  0  0  0  0  0  0  0  0  0
  188.9710  177.3100  146.6910 C   0  0  0  0  0  0  0  0  0  0  0  0
  185.7900  178.2180  143.6970 O   0  0  0  0  0  0  0  0  0  0  0  0
  187.9810  177.8170  147.3920 O   0  0  0  0  0  0  0  0  0  0  0  0
  190.0780  176.9750  147.4740 C   0  0  0  0  0  3  0  0  0  0  0  0
  189.3350  176.5470  142.5070 C   0  0  0  0  0  3  0  0  0  0  0  0
  186.0390  178.6740  148.0370 N   0  0  0  0  0  2  0  0  0  0  0  0
  190.3150  176.2470  143.3880 N   0  0  0  0  0  0  0  0  0  0  0  0
  187.1580  177.4200  141.9510 C   0  0  0  0  0  0  0  0  0  0  0  0
  186.2610  178.3040  145.8600 O   0  0  0  0  0  0  0  0  0  0  0  0
  191.2190  176.4100  146.9320 C   0  0  0  0  0  3  0  0  0  0  0  0
  185.1160  178.0530  140.1380 C   0  0  0  0  0  3  0  0  0  0  0  0
  187.3310  177.1830  140.5760 C   0  0  0  0  0  3  0  0  0  0  0  0
  192.2110  173.6270  141.5630 C   0  0  0  0  0  0  0  0  0  0  0  0
  195.5720  174.7970  140.9590 C   0  0  0  0  0  1  0  0  0  0  0  0
  192.1260  172.2830  141.3670 F   0  0  0  0  0  0  0  0  0  0  0  0
  193.9410  176.0410  142.2650 C   0  0  0  0  0  3  0  0  0  0  0  0
  191.5050  175.6560  142.8400 C   0  0  0  0  0  0  0  0  0  0  0  0
  193.0550  174.4250  140.6220 C   0  0  0  0  0  2  0  0  0  0  0  0
  192.6070  176.4280  142.7630 C   0  0  0  0  0  3  0  0  0  0  0  0
  191.4820  174.1990  142.5310 C   0  0  0  0  0  0  0  0  0  0  0  0
  190.6260  173.3910  143.2750 O   0  0  0  0  0  1  0  0  0  0  0  0
  194.1700  175.1030  141.3470 C   0  0  0  0  0  0  0  0  0  0  0  0
  1  4  2  0  0  0  0
  1  3  1  0  0  0  0
  2  5  2  0  0  0  0
  2  4  1  0  0  0  0
  3 20  2  0  0  0  0
  4 11  1  0  0  0  0
  5 19  1  0  0  0  0
  6 21  2  0  0  0  0
  6 22  1  0  0  0  0
  7  2  1  0  0  0  0
  8  9  2  0  0  0  0
  9 12  1  0  0  0  0
 10 13  1  0  0  0  0
 10 16  2  0  0  0  0
 11 13  1  0  0  0  0
 11 14  2  0  0  0  0
 12  5  1  0  0  0  0
 15  7  2  0  0  0  0
 15 17  1  0  0  0  0
 17  1  1  0  0  0  0
 18  9  1  0  0  0  0
 18  7  1  0  0  0  0
 19 10  1  0  0  0  0
 20 14  1  0  0  0  0
 21  8  1  0  0  0  0
 22 18  2  0  0  0  0
 23 30  2  0  0  0  0
 24 32  1  0  0  0  0
 25 23  1  0  0  0  0
 26 29  1  0  0  0  0
 27 17  1  0  0  0  0
 28 32  1  0  0  0  0
 28 23  1  0  0  0  0
 29 27  2  0  0  0  0
 30 27  1  0  0  0  0
 30 31  1  0  0  0  0
 32 26  2  0  0  0  0
M  END
>  <MODEL>
5

>  <REMARK>
 VINA RESULT:      -8.8      3.128      6.843
  Name = 
  1 active torsions:
  status: ('A' for Active; 'I' for Inactive)
    1  A    between atoms: C_16  and  N_27
                            x       y       z     vdW  Elec       q    Type
                         _______ _______ _______ _____ _____    ______ ____

>  <TORSDO>
F 1

$$$$
=
 OpenBabel11052419123D

 32 37  0  0  0  0  0  0  0  0999 V2000
  192.2770  175.8790  144.7080 C   0  0  0  0  0  0  0  0  0  0  0  0
  193.5000  175.1460  142.6430 C   0  0  0  0  0  0  0  0  0  0  0  0
  192.2530  176.4130  146.0080 C   0  0  0  0  0  3  0  0  0  0  0  0
  193.5320  175.7280  144.0200 C   0  0  0  0  0  0  0  0  0  0  0  0
  194.5630  174.9260  141.8190 C   0  0  0  0  0  0  0  0  0  0  0  0
  190.7550  173.2290  139.0230 C   0  0  0  0  0  3  0  0  0  0  0  0
  192.1560  174.7620  142.1180 C   0  0  0  0  0  0  0  0  0  0  0  0
  193.1540  173.4670  138.8230 C   0  0  0  0  0  3  0  0  0  0  0  0
  193.2100  174.0230  140.1060 C   0  0  0  0  0  0  0  0  0  0  0  0
  196.4720  175.7030  143.1080 C   0  0  0  0  0  0  0  0  0  0  0  0
  194.7120  176.1370  144.7010 C   0  0  0  0  0  0  0  0  0  0  0  0
  194.3770  174.3850  140.6110 O   0  0  0  0  0  0  0  0  0  0  0  0
  195.9460  176.0960  144.2470 O   0  0  0  0  0  0  0  0  0  0  0  0
  194.6240  176.6520  145.9960 C   0  0  0  0  0  3  0  0  0  0  0  0
  191.0260  174.9710  142.8930 C   0  0  0  0  0  3  0  0  0  0  0  0
  197.7510  175.8250  142.9860 N   0  0  0  0  0  2  0  0  0  0  0  0
  191.0890  175.5100  144.1300 N   0  0  0  0  0  0  0  0  0  0  0  0
  192.0390  174.1930  140.8480 C   0  0  0  0  0  0  0  0  0  0  0  0
  195.8290  175.1910  142.0770 O   0  0  0  0  0  0  0  0  0  0  0  0
  193.4130  176.7960  146.6500 C   0  0  0  0  0  3  0  0  0  0  0  0
  191.9280  173.0700  138.2820 C   0  0  0  0  0  3  0  0  0  0  0  0
  190.8070  173.7910  140.3020 C   0  0  0  0  0  3  0  0  0  0  0  0
  188.7790  175.0800  147.0050 C   0  0  0  0  0  0  0  0  0  0  0  0
  185.8310  177.0930  146.4720 C   0  0  0  0  0  1  0  0  0  0  0  0
  188.5660  174.1660  147.9900 F   0  0  0  0  0  0  0  0  0  0  0  0
  187.6050  176.8620  144.8240 C   0  0  0  0  0  3  0  0  0  0  0  0
  189.8380  175.6690  144.8200 C   0  0  0  0  0  0  0  0  0  0  0  0
  188.2130  176.4520  147.1820 C   0  0  0  0  0  2  0  0  0  0  0  0
  188.9530  176.5480  144.3110 C   0  0  0  0  0  3  0  0  0  0  0  0
  189.5480  174.7530  145.9570 C   0  0  0  0  0  0  0  0  0  0  0  0
  190.1380  173.4920  145.9430 O   0  0  0  0  0  1  0  0  0  0  0  0
  187.2340  176.7700  146.1010 C   0  0  0  0  0  0  0  0  0  0  0  0
  1  3  1  0  0  0  0
  2  4  1  0  0  0  0
  3 20  2  0  0  0  0
  4 11  1  0  0  0  0
  4  1  2  0  0  0  0
  5 19  1  0  0  0  0
  5  2  2  0  0  0  0
  6 22  1  0  0  0  0
  7  2  1  0  0  0  0
  7 15  2  0  0  0  0
  8  9  2  0  0  0  0
  9 12  1  0  0  0  0
  9 18  1  0  0  0  0
 10 13  1  0  0  0  0
 11 14  2  0  0  0  0
 12  5  1  0  0  0  0
 13 11  1  0  0  0  0
 14 20  1  0  0  0  0
 15 17  1  0  0  0  0
 16 10  2  0  0  0  0
 17  1  1  0  0  0  0
 17 27  1  0  0  0  0
 18  7  1  0  0  0  0
 19 10  1  0  0  0  0
 21  8  1  0  0  0  0
 21  6  2  0  0  0  0
 22 18  2  0  0  0  0
 23 28  1  0  0  0  0
 23 25  1  0  0  0  0
 26 32  2  0  0  0  0
 27 30  1  0  0  0  0
 29 27  2  0  0  0  0
 29 26  1  0  0  0  0
 30 23  2  0  0  0  0
 31 30  1  0  0  0  0
 32 24  1  0  0  0  0
 32 28  1  0  0  0  0
M  END
>  <MODEL>
6

>  <REMARK>
 VINA RESULT:      -8.6      2.940      3.559
  Name = 
  1 active torsions:
  status: ('A' for Active; 'I' for Inactive)
    1  A    between atoms: C_16  and  N_27
                            x       y       z     vdW  Elec       q    Type
                         _______ _______ _______ _____ _____    ______ ____

>  <TORSDO>
F 1

$$$$
=
 OpenBabel11052419123D

 32 37  0  0  0  0  0  0  0  0999 V2000
  191.5590  175.0180  144.6590 C   0  0  0  0  0  0  0  0  0  0  0  0
  189.9110  176.4830  145.8580 C   0  0  0  0  0  0  0  0  0  0  0  0
  192.8270  174.4230  144.5380 C   0  0  0  0  0  3  0  0  0  0  0  0
  191.2720  175.8670  145.7850 C   0  0  0  0  0  0  0  0  0  0  0  0
  189.4320  177.3040  146.8340 C   0  0  0  0  0  0  0  0  0  0  0  0
  185.5040  177.0460  143.7170 C   0  0  0  0  0  3  0  0  0  0  0  0
  188.9800  176.1630  144.7350 C   0  0  0  0  0  0  0  0  0  0  0  0
  186.0540  178.1100  145.8190 C   0  0  0  0  0  3  0  0  0  0  0  0
  187.3300  177.5390  145.7800 C   0  0  0  0  0  0  0  0  0  0  0  0
  191.2880  177.5070  148.3890 C   0  0  0  0  0  0  0  0  0  0  0  0
  192.3040  176.0660  146.7430 C   0  0  0  0  0  0  0  0  0  0  0  0
  188.1880  177.7870  146.7550 O   0  0  0  0  0  0  0  0  0  0  0  0
  192.2410  176.7860  147.8410 O   0  0  0  0  0  0  0  0  0  0  0  0
  193.5470  175.4530  146.5630 C   0  0  0  0  0  3  0  0  0  0  0  0
  189.3910  175.3210  143.7140 C   0  0  0  0  0  3  0  0  0  0  0  0
  191.5660  178.0800  149.5130 N   0  0  0  0  0  2  0  0  0  0  0  0
  190.6250  174.7720  143.6850 N   0  0  0  0  0  0  0  0  0  0  0  0
  187.6960  176.7130  144.7150 C   0  0  0  0  0  0  0  0  0  0  0  0
  190.0770  177.7110  147.9090 O   0  0  0  0  0  0  0  0  0  0  0  0
  193.8140  174.6360  145.4790 C   0  0  0  0  0  3  0  0  0  0  0  0
  185.1410  177.8640  144.7900 C   0  0  0  0  0  3  0  0  0  0  0  0
  186.7770  176.4690  143.6790 C   0  0  0  0  0  3  0  0  0  0  0  0
  190.3040  171.6640  141.6780 C   0  0  0  0  0  0  0  0  0  0  0  0
  191.9320  172.1330  138.4920 C   0  0  0  0  0  1  0  0  0  0  0  0
  190.0660  170.3440  141.9080 F   0  0  0  0  0  0  0  0  0  0  0  0
  191.9790  173.7910  140.2710 C   0  0  0  0  0  3  0  0  0  0  0  0
  190.9160  173.9190  142.5660 C   0  0  0  0  0  0  0  0  0  0  0  0
  190.1030  172.1860  140.2920 C   0  0  0  0  0  2  0  0  0  0  0  0
  191.5540  174.4660  141.5130 C   0  0  0  0  0  3  0  0  0  0  0  0
  190.6260  172.4640  142.7040 C   0  0  0  0  0  0  0  0  0  0  0  0
  190.6640  171.9130  143.9820 O   0  0  0  0  0  1  0  0  0  0  0  0
  191.3770  172.7290  139.7360 C   0  0  0  0  0  0  0  0  0  0  0  0
  1  4  1  0  0  0  0
  2  5  2  0  0  0  0
  3  1  2  0  0  0  0
  3 20  1  0  0  0  0
  4  2  1  0  0  0  0
  4 11  2  0  0  0  0
  5 19  1  0  0  0  0
  6 21  1  0  0  0  0
  7  2  1  0  0  0  0
  9  8  1  0  0  0  0
  9 12  1  0  0  0  0
 10 16  2  0  0  0  0
 11 13  1  0  0  0  0
 12  5  1  0  0  0  0
 13 10  1  0  0  0  0
 14 11  1  0  0  0  0
 15  7  2  0  0  0  0
 17 15  1  0  0  0  0
 17  1  1  0  0  0  0
 18  7  1  0  0  0  0
 18  9  2  0  0  0  0
 19 10  1  0  0  0  0
 20 14  2  0  0  0  0
 21  8  2  0  0  0  0
 22  6  2  0  0  0  0
 22 18  1  0  0  0  0
 23 25  1  0  0  0  0
 23 30  2  0  0  0  0
 24 32  1  0  0  0  0
 26 29  1  0  0  0  0
 27 30  1  0  0  0  0
 27 17  1  0  0  0  0
 28 23  1  0  0  0  0
 29 27  2  0  0  0  0
 30 31  1  0  0  0  0
 32 26  2  0  0  0  0
 32 28  1  0  0  0  0
M  END
>  <MODEL>
7

>  <REMARK>
 VINA RESULT:      -8.6      2.712      6.535
  Name = 
  1 active torsions:
  status: ('A' for Active; 'I' for Inactive)
    1  A    between atoms: C_16  and  N_27
                            x       y       z     vdW  Elec       q    Type
                         _______ _______ _______ _____ _____    ______ ____

>  <TORSDO>
F 1

$$$$
=
 OpenBabel11052419123D

 32 37  0  0  0  0  0  0  0  0999 V2000
  191.5750  175.6340  143.7440 C   0  0  0  0  0  0  0  0  0  0  0  0
  192.2400  174.6530  141.5320 C   0  0  0  0  0  0  0  0  0  0  0  0
  191.8810  176.2990  144.9450 C   0  0  0  0  0  3  0  0  0  0  0  0
  192.6180  175.3720  142.7870 C   0  0  0  0  0  0  0  0  0  0  0  0
  193.0620  174.3150  140.4990 C   0  0  0  0  0  0  0  0  0  0  0  0
  188.6650  172.4680  138.9310 C   0  0  0  0  0  3  0  0  0  0  0  0
  190.8040  174.2630  141.4000 C   0  0  0  0  0  0  0  0  0  0  0  0
  190.9400  172.6050  138.1200 C   0  0  0  0  0  3  0  0  0  0  0  0
  191.3180  173.2870  139.2810 C   0  0  0  0  0  0  0  0  0  0  0  0
  195.2370  175.1560  141.1840 C   0  0  0  0  0  0  0  0  0  0  0  0
  193.9340  175.8090  143.1070 C   0  0  0  0  0  0  0  0  0  0  0  0
  192.5770  173.6600  139.4400 O   0  0  0  0  0  0  0  0  0  0  0  0
  195.0150  175.6810  142.3690 O   0  0  0  0  0  0  0  0  0  0  0  0
  194.1750  176.4560  144.3210 C   0  0  0  0  0  3  0  0  0  0  0  0
  189.9050  174.5870  142.4030 C   0  0  0  0  0  3  0  0  0  0  0  0
  196.4470  175.2230  140.7380 N   0  0  0  0  0  2  0  0  0  0  0  0
  190.2790  175.2480  143.5210 N   0  0  0  0  0  0  0  0  0  0  0  0
  190.3710  173.5700  140.2670 C   0  0  0  0  0  0  0  0  0  0  0  0
  194.3540  174.5630  140.4060 O   0  0  0  0  0  0  0  0  0  0  0  0
  193.1660  176.7070  145.2350 C   0  0  0  0  0  3  0  0  0  0  0  0
  189.6160  172.1960  137.9440 C   0  0  0  0  0  3  0  0  0  0  0  0
  189.0390  173.1560  140.0900 C   0  0  0  0  0  3  0  0  0  0  0  0
  188.7350  175.1470  146.8960 C   0  0  0  0  0  0  0  0  0  0  0  0
  185.8040  177.2530  146.9260 C   0  0  0  0  0  1  0  0  0  0  0  0
  188.7450  174.3210  147.9780 F   0  0  0  0  0  0  0  0  0  0  0  0
  187.1120  176.8140  144.9230 C   0  0  0  0  0  3  0  0  0  0  0  0
  189.2410  175.5180  144.4770 C   0  0  0  0  0  0  0  0  0  0  0  0
  188.2680  176.5540  147.0880 C   0  0  0  0  0  2  0  0  0  0  0  0
  188.2830  176.3980  144.1260 C   0  0  0  0  0  3  0  0  0  0  0  0
  189.2130  174.7050  145.7250 C   0  0  0  0  0  0  0  0  0  0  0  0
  189.7460  173.4200  145.6750 O   0  0  0  0  0  1  0  0  0  0  0  0
  187.0630  176.8360  146.2540 C   0  0  0  0  0  0  0  0  0  0  0  0
  1  3  1  0  0  0  0
  2  4  1  0  0  0  0
  3 20  2  0  0  0  0
  4 11  1  0  0  0  0
  4  1  2  0  0  0  0
  5  2  2  0  0  0  0
  6 22  1  0  0  0  0
  7  2  1  0  0  0  0
  7 15  2  0  0  0  0
  8  9  2  0  0  0  0
  9 12  1  0  0  0  0
  9 18  1  0  0  0  0
 10 13  1  0  0  0  0
 11 14  2  0  0  0  0
 12  5  1  0  0  0  0
 13 11  1  0  0  0  0
 14 20  1  0  0  0  0
 15 17  1  0  0  0  0
 16 10  2  0  0  0  0
 17  1  1  0  0  0  0
 17 27  1  0  0  0  0
 18  7  1  0  0  0  0
 19  5  1  0  0  0  0
 19 10  1  0  0  0  0
 21  8  1  0  0  0  0
 21  6  2  0  0  0  0
 22 18  2  0  0  0  0
 23 28  1  0  0  0  0
 23 25  1  0  0  0  0
 26 32  2  0  0  0  0
 27 30  1  0  0  0  0
 29 27  2  0  0  0  0
 29 26  1  0  0  0  0
 30 23  2  0  0  0  0
 31 30  1  0  0  0  0
 32 24  1  0  0  0  0
 32 28  1  0  0  0  0
M  END
>  <MODEL>
8

>  <REMARK>
 VINA RESULT:      -8.5      2.791      3.426
  Name = 
  1 active torsions:
  status: ('A' for Active; 'I' for Inactive)
    1  A    between atoms: C_16  and  N_27
                            x       y       z     vdW  Elec       q    Type
                         _______ _______ _______ _____ _____    ______ ____

>  <TORSDO>
F 1

$$$$
=
 OpenBabel11052419123D

 32 37  0  0  0  0  0  0  0  0999 V2000
  189.8000  174.2640  142.8890 C   0  0  0  0  0  0  0  0  0  0  0  0
  192.1640  173.4370  142.7290 C   0  0  0  0  0  0  0  0  0  0  0  0
  188.4770  174.3270  142.4180 C   0  0  0  0  0  3  0  0  0  0  0  0
  190.7690  173.4610  142.1910 C   0  0  0  0  0  0  0  0  0  0  0  0
  193.2260  172.7420  142.2310 C   0  0  0  0  0  0  0  0  0  0  0  0
  195.3140  175.1040  146.1380 C   0  0  0  0  0  3  0  0  0  0  0  0
  192.4190  174.2690  143.9420 C   0  0  0  0  0  0  0  0  0  0  0  0
  195.9980  173.5600  144.4060 C   0  0  0  0  0  3  0  0  0  0  0  0
  194.6980  173.5570  143.8890 C   0  0  0  0  0  0  0  0  0  0  0  0
  192.3090  171.5760  140.3060 C   0  0  0  0  0  0  0  0  0  0  0  0
  190.3330  172.7530  141.0360 C   0  0  0  0  0  0  0  0  0  0  0  0
  194.4230  172.8300  142.8190 O   0  0  0  0  0  0  0  0  0  0  0  0
  191.0510  171.9600  140.2720 O   0  0  0  0  0  0  0  0  0  0  0  0
  189.0070  172.8640  140.6140 C   0  0  0  0  0  3  0  0  0  0  0  0
  191.3850  174.9910  144.5150 C   0  0  0  0  0  3  0  0  0  0  0  0
  192.6880  170.7500  139.3890 N   0  0  0  0  0  2  0  0  0  0  0  0
  190.1320  174.9810  144.0100 N   0  0  0  0  0  0  0  0  0  0  0  0
  193.7000  174.3200  144.4970 C   0  0  0  0  0  0  0  0  0  0  0  0
  193.2240  171.9490  141.1770 O   0  0  0  0  0  0  0  0  0  0  0  0
  188.0800  173.6360  141.2920 C   0  0  0  0  0  3  0  0  0  0  0  0
  196.3060  174.3320  145.5290 C   0  0  0  0  0  3  0  0  0  0  0  0
  194.0120  175.0980  145.6260 C   0  0  0  0  0  3  0  0  0  0  0  0
  187.4370  177.5260  144.2340 C   0  0  0  0  0  0  0  0  0  0  0  0
  185.9950  177.4410  147.5410 C   0  0  0  0  0  1  0  0  0  0  0  0
  187.0790  178.6660  143.5820 F   0  0  0  0  0  0  0  0  0  0  0  0
  187.9160  176.1000  146.8880 C   0  0  0  0  0  3  0  0  0  0  0  0
  189.1580  175.7760  144.7060 C   0  0  0  0  0  0  0  0  0  0  0  0
  186.4100  176.8450  145.0790 C   0  0  0  0  0  2  0  0  0  0  0  0
  188.8570  175.4270  145.9720 C   0  0  0  0  0  3  0  0  0  0  0  0
  188.6580  177.0100  144.0370 C   0  0  0  0  0  0  0  0  0  0  0  0
  189.5020  177.6450  143.1310 O   0  0  0  0  0  1  0  0  0  0  0  0
  186.8430  176.7910  146.5070 C   0  0  0  0  0  0  0  0  0  0  0  0
  1 17  1  0  0  0  0
  2  7  1  0  0  0  0
  3  1  1  0  0  0  0
  4  2  1  0  0  0  0
  4  1  2  0  0  0  0
  5  2  2  0  0  0  0
  5 12  1  0  0  0  0
  7 18  1  0  0  0  0
  7 15  2  0  0  0  0
  8 21  1  0  0  0  0
  9  8  2  0  0  0  0
  9 18  1  0  0  0  0
 10 19  1  0  0  0  0
 11  4  1  0  0  0  0
 12  9  1  0  0  0  0
 13 10  1  0  0  0  0
 13 11  1  0  0  0  0
 14 11  2  0  0  0  0
 14 20  1  0  0  0  0
 16 10  2  0  0  0  0
 17 15  1  0  0  0  0
 17 27  1  0  0  0  0
 18 22  2  0  0  0  0
 19  5  1  0  0  0  0
 20  3  2  0  0  0  0
 21  6  2  0  0  0  0
 22  6  1  0  0  0  0
 23 28  1  0  0  0  0
 25 23  1  0  0  0  0
 27 29  2  0  0  0  0
 28 32  1  0  0  0  0
 29 26  1  0  0  0  0
 30 23  2  0  0  0  0
 30 27  1  0  0  0  0
 31 30  1  0  0  0  0
 32 26  2  0  0  0  0
 32 24  1  0  0  0  0
M  END
>  <MODEL>
9

>  <REMARK>
 VINA RESULT:      -8.4      1.882      4.685
  Name = 
  1 active torsions:
  status: ('A' for Active; 'I' for Inactive)
    1  A    between atoms: C_16  and  N_27
                            x       y       z     vdW  Elec       q    Type
                         _______ _______ _______ _____ _____    ______ ____

>  <TORSDO>
F 1

$$$$
