=
 OpenBabel11052418083D

 28 32  0  0  1  0  0  0  0  0999 V2000
  191.1690  174.3490  143.0430 C   0  0  0  0  0  0  0  0  0  0  0  0
  186.8800  176.9090  143.0430 C   0  0  0  0  0  2  0  0  0  0  0  0
  190.9480  175.9060  147.7370 C   0  0  0  0  0  1  0  0  0  0  0  0
  186.9390  177.9030  145.3040 C   0  0  1  0  0  3  0  0  0  0  0  0
  188.5080  176.0350  144.7670 C   0  0  0  0  0  0  0  0  0  0  0  0
  184.9190  178.2860  143.9070 C   0  0  0  0  0  0  0  0  0  0  0  0
  187.1340  176.6010  144.5170 C   0  0  2  0  0  3  0  0  0  0  0  0
  188.5100  177.1580  147.0180 N   0  0  0  0  0  2  0  0  0  0  0  0
  185.5840  178.4940  145.0490 C   0  0  0  0  0  3  0  0  0  0  0  0
  190.9200  174.6460  145.4830 C   0  0  2  0  0  3  0  0  0  0  0  0
  189.1130  175.3400  143.8470 N   0  0  0  0  0  0  0  0  0  0  0  0
  187.1580  177.6590  146.7900 C   0  0  0  0  0  2  0  0  0  0  0  0
  193.1120  174.1030  144.4920 C   0  0  0  0  0  3  0  0  0  0  0  0
  190.3190  175.6800  146.4010 C   0  0  0  0  0  0  0  0  0  0  0  0
  192.3510  174.6500  145.5320 O   0  0  0  0  0  0  0  0  0  0  0  0
  183.6920  178.9080  143.7200 O   0  0  0  0  0  1  0  0  0  0  0  0
  185.4230  177.3380  142.8440 C   0  0  0  0  0  2  0  0  0  0  0  0
  189.1470  176.2650  146.0930 C   0  0  0  0  0  0  0  0  0  0  0  0
  192.5620  173.9260  143.2890 C   0  0  0  0  0  3  0  0  0  0  0  0
  190.4130  174.7810  144.0670 C   0  0  0  0  0  0  0  0  0  0  0  0
  190.6740  174.4070  141.6260 C   0  0  0  0  0  2  0  0  0  0  0  0
  189.9480  173.1280  141.2020 C   0  0  2  0  0  3  0  0  0  0  0  0
  188.4200  172.6780  139.5410 C   0  0  1  0  0  3  0  0  0  0  0  0
  190.6610  172.4650  140.1870 O   0  0  0  0  0  0  0  0  0  0  0  0
  187.6880  172.8420  141.7470 C   0  0  0  0  0  1  0  0  0  0  0  0
  188.5880  173.4250  140.7650 N   0  0  0  0  0  0  0  0  0  0  0  0
  188.2420  173.6430  138.3830 C   0  0  0  0  0  1  0  0  0  0  0  0
  189.6920  171.9000  139.3540 C   0  0  0  0  0  2  0  0  0  0  0  0
  1 19  1  0  0  0  0
  1 20  2  0  0  0  0
  4  9  1  1  0  0  0
  4 12  1  0  0  0  0
  5 18  1  0  0  0  0
  6  9  2  0  0  0  0
  7  2  1  6  0  0  0
  7  5  1  0  0  0  0
  7  4  1  0  0  0  0
 10 20  1  6  0  0  0
 10 15  1  0  0  0  0
 10 14  1  0  0  0  0
 11 20  1  0  0  0  0
 11  5  2  0  0  0  0
 12  8  1  0  0  0  0
 13 15  1  0  0  0  0
 14  3  1  0  0  0  0
 16  6  1  0  0  0  0
 17  2  1  0  0  0  0
 17  6  1  0  0  0  0
 18 14  2  0  0  0  0
 18  8  1  0  0  0  0
 19 13  2  0  0  0  0
 21  1  1  0  0  0  0
 22 21  1  6  0  0  0
 23 27  1  6  0  0  0
 23 26  1  0  0  0  0
 24 22  1  0  0  0  0
 26 22  1  0  0  0  0
 26 25  1  0  0  0  0
 28 23  1  0  0  0  0
 28 24  1  0  0  0  0
M  END
>  <MODEL>
1

>  <REMARK>
 VINA RESULT:      -7.6      0.000      0.000
  Name = 
  2 active torsions:
  status: ('A' for Active; 'I' for Inactive)
    1  A    between atoms: C_1  and  C_2
    2  A    between atoms: C_2  and  C_3
                            x       y       z     vdW  Elec       q    Type
                         _______ _______ _______ _____ _____    ______ ____

>  <TORSDO>
F 2

$$$$
=
 OpenBabel11052418083D

 28 32  0  0  1  0  0  0  0  0999 V2000
  189.0470  173.7560  142.3260 C   0  0  0  0  0  0  0  0  0  0  0  0
  187.2750  176.7990  145.8690 C   0  0  0  0  0  2  0  0  0  0  0  0
  186.6700  177.1480  139.6150 C   0  0  0  0  0  1  0  0  0  0  0  0
  185.8670  178.3090  144.5140 C   0  0  1  0  0  3  0  0  0  0  0  0
  187.5200  176.8390  143.3540 C   0  0  0  0  0  0  0  0  0  0  0  0
  186.0970  178.7860  146.9420 C   0  0  0  0  0  0  0  0  0  0  0  0
  187.2460  177.6440  144.5980 C   0  0  2  0  0  3  0  0  0  0  0  0
  185.9970  178.3820  142.0770 N   0  0  0  0  0  2  0  0  0  0  0  0
  185.5660  179.0970  145.7540 C   0  0  0  0  0  3  0  0  0  0  0  0
  188.3290  175.6240  140.8770 C   0  0  2  0  0  3  0  0  0  0  0  0
  188.2700  175.7770  143.4070 N   0  0  0  0  0  0  0  0  0  0  0  0
  185.7790  179.1880  143.2740 C   0  0  0  0  0  2  0  0  0  0  0  0
  188.6860  173.3680  139.9480 C   0  0  0  0  0  3  0  0  0  0  0  0
  187.2500  176.6760  140.9090 C   0  0  0  0  0  0  0  0  0  0  0  0
  188.0810  174.6290  139.8790 O   0  0  0  0  0  0  0  0  0  0  0  0
  185.7340  179.5280  148.0570 O   0  0  0  0  0  1  0  0  0  0  0  0
  187.1370  177.7010  147.0980 C   0  0  0  0  0  2  0  0  0  0  0  0
  186.9360  177.2960  142.0610 C   0  0  0  0  0  0  0  0  0  0  0  0
  189.1800  172.9310  141.1090 C   0  0  0  0  0  3  0  0  0  0  0  0
  188.5550  175.0030  142.2360 C   0  0  0  0  0  0  0  0  0  0  0  0
  189.3460  173.1270  143.6570 C   0  0  0  0  0  2  0  0  0  0  0  0
  190.7700  173.4160  144.1390 C   0  0  2  0  0  3  0  0  0  0  0  0
  192.3060  175.0380  143.5850 C   0  0  1  0  0  3  0  0  0  0  0  0
  190.7570  174.3420  145.1980 O   0  0  0  0  0  0  0  0  0  0  0  0
  192.5910  172.8740  142.7710 C   0  0  0  0  0  1  0  0  0  0  0  0
  191.6000  173.9020  143.0420 N   0  0  0  0  0  0  0  0  0  0  0  0
  191.8630  176.2980  142.8650 C   0  0  0  0  0  1  0  0  0  0  0  0
  191.9060  175.1200  145.0320 C   0  0  0  0  0  2  0  0  0  0  0  0
  1 21  1  0  0  0  0
  2 17  1  0  0  0  0
  3 14  1  0  0  0  0
  4 12  1  6  0  0  0
  4  7  1  0  0  0  0
  4  9  1  0  0  0  0
  5 11  2  0  0  0  0
  5  7  1  0  0  0  0
  6 17  1  0  0  0  0
  6 16  1  0  0  0  0
  7  2  1  1  0  0  0
  8 12  1  0  0  0  0
  9  6  2  0  0  0  0
 10 15  1  6  0  0  0
 10 14  1  0  0  0  0
 10 20  1  0  0  0  0
 13 19  2  0  0  0  0
 14 18  2  0  0  0  0
 15 13  1  0  0  0  0
 18  8  1  0  0  0  0
 18  5  1  0  0  0  0
 19  1  1  0  0  0  0
 20  1  2  0  0  0  0
 20 11  1  0  0  0  0
 22 21  1  6  0  0  0
 22 24  1  0  0  0  0
 23 27  1  6  0  0  0
 23 28  1  0  0  0  0
 25 26  1  0  0  0  0
 26 23  1  0  0  0  0
 26 22  1  0  0  0  0
 28 24  1  0  0  0  0
M  END
>  <MODEL>
2

>  <REMARK>
 VINA RESULT:      -7.6      2.129      4.739
  Name = 
  2 active torsions:
  status: ('A' for Active; 'I' for Inactive)
    1  A    between atoms: C_1  and  C_2
    2  A    between atoms: C_2  and  C_3
                            x       y       z     vdW  Elec       q    Type
                         _______ _______ _______ _____ _____    ______ ____

>  <TORSDO>
F 2

$$$$
=
 OpenBabel11052418083D

 28 32  0  0  1  0  0  0  0  0999 V2000
  187.3790  177.0330  142.4300 C   0  0  0  0  0  0  0  0  0  0  0  0
  191.9680  175.8680  144.0190 C   0  0  0  0  0  2  0  0  0  0  0  0
  186.9560  177.7850  147.3050 C   0  0  0  0  0  1  0  0  0  0  0  0
  191.6480  175.9780  146.4650 C   0  0  1  0  0  3  0  0  0  0  0  0
  189.9100  176.9770  144.9760 C   0  0  0  0  0  0  0  0  0  0  0  0
  193.9360  175.5320  145.6010 C   0  0  0  0  0  0  0  0  0  0  0  0
  191.3830  176.7140  145.1470 C   0  0  2  0  0  3  0  0  0  0  0  0
  189.6690  176.9840  147.4810 N   0  0  0  0  0  2  0  0  0  0  0  0
  193.1090  175.6870  146.6430 C   0  0  0  0  0  3  0  0  0  0  0  0
  187.1980  177.9000  144.7360 C   0  0  2  0  0  3  0  0  0  0  0  0
  189.3810  177.0290  143.7880 N   0  0  0  0  0  0  0  0  0  0  0  0
  191.1060  176.7830  147.6380 C   0  0  0  0  0  2  0  0  0  0  0  0
  185.1800  177.4010  143.4110 C   0  0  0  0  0  3  0  0  0  0  0  0
  187.7830  177.5520  146.0810 C   0  0  0  0  0  0  0  0  0  0  0  0
  185.8090  177.5670  144.6510 O   0  0  0  0  0  0  0  0  0  0  0  0
  195.2650  175.2130  145.8400 O   0  0  0  0  0  1  0  0  0  0  0  0
  193.4880  175.7660  144.1770 C   0  0  0  0  0  2  0  0  0  0  0  0
  189.0760  177.1990  146.1920 C   0  0  0  0  0  0  0  0  0  0  0  0
  185.9120  177.1650  142.3210 C   0  0  0  0  0  3  0  0  0  0  0  0
  187.9860  177.2900  143.6010 C   0  0  0  0  0  0  0  0  0  0  0  0
  188.1410  176.4870  141.2560 C   0  0  0  0  0  2  0  0  0  0  0  0
  187.9170  174.9860  141.0540 C   0  0  2  0  0  3  0  0  0  0  0  0
  189.3560  173.1930  140.9500 C   0  0  1  0  0  3  0  0  0  0  0  0
  187.8080  174.3280  142.2920 O   0  0  0  0  0  0  0  0  0  0  0  0
  188.4110  174.0090  138.9840 C   0  0  0  0  0  1  0  0  0  0  0  0
  188.9920  174.4050  140.2560 N   0  0  0  0  0  0  0  0  0  0  0  0
  190.7750  173.3200  141.4730 C   0  0  0  0  0  1  0  0  0  0  0  0
  188.4040  173.0780  142.1080 C   0  0  0  0  0  2  0  0  0  0  0  0
  1 20  2  0  0  0  0
  2 17  1  0  0  0  0
  4  9  1  1  0  0  0
  4 12  1  0  0  0  0
  5  7  1  0  0  0  0
  5 18  1  0  0  0  0
  6 16  1  0  0  0  0
  6  9  2  0  0  0  0
  7  2  1  6  0  0  0
  7  4  1  0  0  0  0
  8 12  1  0  0  0  0
 10 20  1  6  0  0  0
 10 14  1  0  0  0  0
 11  5  2  0  0  0  0
 13 15  1  0  0  0  0
 14 18  2  0  0  0  0
 14  3  1  0  0  0  0
 15 10  1  0  0  0  0
 17  6  1  0  0  0  0
 18  8  1  0  0  0  0
 19  1  1  0  0  0  0
 19 13  2  0  0  0  0
 20 11  1  0  0  0  0
 21  1  1  0  0  0  0
 22 21  1  1  0  0  0
 22 24  1  0  0  0  0
 23 27  1  1  0  0  0
 23 28  1  0  0  0  0
 25 26  1  0  0  0  0
 26 23  1  0  0  0  0
 26 22  1  0  0  0  0
 28 24  1  0  0  0  0
M  END
>  <MODEL>
3

>  <REMARK>
 VINA RESULT:      -7.5      1.706      5.432
  Name = 
  2 active torsions:
  status: ('A' for Active; 'I' for Inactive)
    1  A    between atoms: C_1  and  C_2
    2  A    between atoms: C_2  and  C_3
                            x       y       z     vdW  Elec       q    Type
                         _______ _______ _______ _____ _____    ______ ____

>  <TORSDO>
F 2

$$$$
=
 OpenBabel11052418083D

 28 32  0  0  1  0  0  0  0  0999 V2000
  189.3510  174.2450  142.2720 C   0  0  0  0  0  0  0  0  0  0  0  0
  187.4530  177.0610  145.9340 C   0  0  0  0  0  2  0  0  0  0  0  0
  186.3450  177.2570  139.7430 C   0  0  0  0  0  1  0  0  0  0  0  0
  185.7580  178.3530  144.6870 C   0  0  1  0  0  3  0  0  0  0  0  0
  187.5030  177.1060  143.4080 C   0  0  0  0  0  0  0  0  0  0  0  0
  186.1010  178.8830  147.0910 C   0  0  0  0  0  0  0  0  0  0  0  0
  187.2160  177.8800  144.6680 C   0  0  2  0  0  3  0  0  0  0  0  0
  185.6960  178.4160  142.2470 N   0  0  0  0  0  2  0  0  0  0  0  0
  185.4460  179.1080  145.9460 C   0  0  0  0  0  3  0  0  0  0  0  0
  188.2830  175.9840  140.8790 C   0  0  2  0  0  3  0  0  0  0  0  0
  188.3920  176.1550  143.4060 N   0  0  0  0  0  0  0  0  0  0  0  0
  185.4610  179.1990  143.4570 C   0  0  0  0  0  2  0  0  0  0  0  0
  188.8710  173.7870  139.9280 C   0  0  0  0  0  3  0  0  0  0  0  0
  187.0770  176.8820  140.9910 C   0  0  0  0  0  0  0  0  0  0  0  0
  188.0980  174.9540  139.9030 O   0  0  0  0  0  0  0  0  0  0  0  0
  185.7240  179.5820  148.2290 O   0  0  0  0  0  1  0  0  0  0  0  0
  187.2860  177.9500  147.1700 C   0  0  0  0  0  2  0  0  0  0  0  0
  186.7690  177.4670  142.1630 C   0  0  0  0  0  0  0  0  0  0  0  0
  189.5040  173.4330  141.0480 C   0  0  0  0  0  3  0  0  0  0  0  0
  188.6910  175.4140  142.2170 C   0  0  0  0  0  0  0  0  0  0  0  0
  189.8310  173.6770  143.5770 C   0  0  0  0  0  2  0  0  0  0  0  0
  191.3420  173.8290  143.7670 C   0  0  2  0  0  3  0  0  0  0  0  0
  192.6170  174.7980  145.4200 C   0  0  1  0  0  3  0  0  0  0  0  0
  191.8550  172.7680  144.5350 O   0  0  0  0  0  0  0  0  0  0  0  0
  192.3560  175.9050  143.3870 C   0  0  0  0  0  1  0  0  0  0  0  0
  191.6590  175.1110  144.3860 N   0  0  0  0  0  0  0  0  0  0  0  0
  192.0100  175.1000  146.7770 C   0  0  0  0  0  1  0  0  0  0  0  0
  192.8800  173.3220  145.3060 C   0  0  0  0  0  2  0  0  0  0  0  0
  1 21  1  0  0  0  0
  2 17  1  0  0  0  0
  3 14  1  0  0  0  0
  4 12  1  6  0  0  0
  4  9  1  0  0  0  0
  5  7  1  0  0  0  0
  6 17  1  0  0  0  0
  6 16  1  0  0  0  0
  7  4  1  0  0  0  0
  7  2  1  1  0  0  0
  8 12  1  0  0  0  0
  9  6  2  0  0  0  0
 10 15  1  6  0  0  0
 10 14  1  0  0  0  0
 10 20  1  0  0  0  0
 11  5  2  0  0  0  0
 13 19  2  0  0  0  0
 14 18  2  0  0  0  0
 15 13  1  0  0  0  0
 18  8  1  0  0  0  0
 18  5  1  0  0  0  0
 19  1  1  0  0  0  0
 20  1  2  0  0  0  0
 20 11  1  0  0  0  0
 22 21  1  1  0  0  0
 22 26  1  0  0  0  0
 22 24  1  0  0  0  0
 23 27  1  1  0  0  0
 24 28  1  0  0  0  0
 25 26  1  0  0  0  0
 26 23  1  0  0  0  0
 28 23  1  0  0  0  0
M  END
>  <MODEL>
4

>  <REMARK>
 VINA RESULT:      -7.5      2.132      5.023
  Name = 
  2 active torsions:
  status: ('A' for Active; 'I' for Inactive)
    1  A    between atoms: C_1  and  C_2
    2  A    between atoms: C_2  and  C_3
                            x       y       z     vdW  Elec       q    Type
                         _______ _______ _______ _____ _____    ______ ____

>  <TORSDO>
F 2

$$$$
=
 OpenBabel11052418083D

 28 32  0  0  1  0  0  0  0  0999 V2000
  190.4990  173.7880  143.5570 C   0  0  0  0  0  0  0  0  0  0  0  0
  187.1880  176.4220  146.2140 C   0  0  0  0  0  2  0  0  0  0  0  0
  187.6330  175.6640  139.9830 C   0  0  0  0  0  1  0  0  0  0  0  0
  185.6170  177.1080  144.4370 C   0  0  1  0  0  3  0  0  0  0  0  0
  187.8520  176.2040  143.7850 C   0  0  0  0  0  0  0  0  0  0  0  0
  185.2300  177.9640  146.7380 C   0  0  0  0  0  0  0  0  0  0  0  0
  187.1010  177.0140  144.8090 C   0  0  2  0  0  3  0  0  0  0  0  0
  186.1500  176.8890  142.0640 N   0  0  0  0  0  2  0  0  0  0  0  0
  184.8470  177.8930  145.4580 C   0  0  0  0  0  3  0  0  0  0  0  0
  189.4580  175.0450  141.7020 C   0  0  2  0  0  3  0  0  0  0  0  0
  188.8980  175.5100  144.1300 N   0  0  0  0  0  0  0  0  0  0  0  0
  185.4580  177.7140  143.0490 C   0  0  0  0  0  2  0  0  0  0  0  0
  190.7250  172.9730  141.2730 C   0  0  0  0  0  3  0  0  0  0  0  0
  188.0970  175.6210  141.4030 C   0  0  0  0  0  0  0  0  0  0  0  0
  189.7480  173.9010  140.8920 O   0  0  0  0  0  0  0  0  0  0  0  0
  184.4410  178.6660  147.6380 O   0  0  0  0  0  1  0  0  0  0  0  0
  186.5320  177.3690  147.2220 C   0  0  0  0  0  2  0  0  0  0  0  0
  187.3890  176.2340  142.3690 C   0  0  0  0  0  0  0  0  0  0  0  0
  191.1220  172.9120  142.5460 C   0  0  0  0  0  3  0  0  0  0  0  0
  189.6350  174.7430  143.1710 C   0  0  0  0  0  0  0  0  0  0  0  0
  190.7510  173.5020  145.0100 C   0  0  0  0  0  2  0  0  0  0  0  0
  191.8810  174.3560  145.5920 C   0  0  2  0  0  3  0  0  0  0  0  0
  192.7300  176.4180  145.0250 C   0  0  1  0  0  3  0  0  0  0  0  0
  191.3800  175.2580  146.5480 O   0  0  0  0  0  0  0  0  0  0  0  0
  193.9260  174.5000  144.4610 C   0  0  0  0  0  1  0  0  0  0  0  0
  192.5890  175.0680  144.5350 N   0  0  0  0  0  0  0  0  0  0  0  0
  191.9290  177.3600  144.1450 C   0  0  0  0  0  1  0  0  0  0  0  0
  192.1510  176.4160  146.4130 C   0  0  0  0  0  2  0  0  0  0  0  0
  1 21  1  0  0  0  0
  2 17  1  0  0  0  0
  3 14  1  0  0  0  0
  4 12  1  6  0  0  0
  4  7  1  0  0  0  0
  4  9  1  0  0  0  0
  5 11  2  0  0  0  0
  5  7  1  0  0  0  0
  6 17  1  0  0  0  0
  6 16  1  0  0  0  0
  7  2  1  1  0  0  0
  8 18  1  0  0  0  0
  8 12  1  0  0  0  0
  9  6  2  0  0  0  0
 10 15  1  6  0  0  0
 10 20  1  0  0  0  0
 13 19  2  0  0  0  0
 14 10  1  0  0  0  0
 14 18  2  0  0  0  0
 15 13  1  0  0  0  0
 18  5  1  0  0  0  0
 19  1  1  0  0  0  0
 20  1  2  0  0  0  0
 20 11  1  0  0  0  0
 22 21  1  6  0  0  0
 22 24  1  0  0  0  0
 23 27  1  6  0  0  0
 23 28  1  0  0  0  0
 25 26  1  0  0  0  0
 26 23  1  0  0  0  0
 26 22  1  0  0  0  0
 28 24  1  0  0  0  0
M  END
>  <MODEL>
5

>  <REMARK>
 VINA RESULT:      -7.5      1.953      4.863
  Name = 
  2 active torsions:
  status: ('A' for Active; 'I' for Inactive)
    1  A    between atoms: C_1  and  C_2
    2  A    between atoms: C_2  and  C_3
                            x       y       z     vdW  Elec       q    Type
                         _______ _______ _______ _____ _____    ______ ____

>  <TORSDO>
F 2

$$$$
=
 OpenBabel11052418083D

 28 32  0  0  1  0  0  0  0  0999 V2000
  188.8990  176.7960  145.5340 C   0  0  0  0  0  0  0  0  0  0  0  0
  188.6970  173.8290  141.5210 C   0  0  0  0  0  2  0  0  0  0  0  0
  193.3620  174.6580  145.6620 C   0  0  0  0  0  1  0  0  0  0  0  0
  190.8100  172.5750  141.7710 C   0  0  1  0  0  3  0  0  0  0  0  0
  190.4700  174.6460  143.1250 C   0  0  0  0  0  0  0  0  0  0  0  0
  189.4340  172.1600  139.7430 C   0  0  0  0  0  0  0  0  0  0  0  0
  190.1890  173.9760  141.8050 C   0  0  2  0  0  3  0  0  0  0  0  0
  192.5590  173.2590  143.3310 N   0  0  0  0  0  0  0  0  0  0  0  0
  190.5210  171.8820  140.4720 C   0  0  0  0  0  3  0  0  0  0  0  0
  191.2880  176.1770  145.4170 C   0  0  2  0  0  3  0  0  0  0  0  0
  189.6290  175.5080  143.6210 N   0  0  0  0  0  0  0  0  0  0  0  0
  192.3080  172.6540  142.0260 C   0  0  0  0  0  2  0  0  0  0  0  0
  190.3110  177.0600  147.5010 C   0  0  0  0  0  3  0  0  0  0  0  0
  192.0830  174.9810  144.9580 C   0  0  1  0  0  3  0  0  0  0  0  0
  191.2950  176.3140  146.8410 O   0  0  0  0  0  0  0  0  0  0  0  0
  189.2040  171.4440  138.5770 O   0  0  0  0  0  1  0  0  0  0  0  0
  188.4860  173.2800  140.1070 C   0  0  0  0  0  2  0  0  0  0  0  0
  191.7370  174.3210  143.8380 C   0  0  0  0  0  0  0  0  0  0  0  0
  189.1560  177.3270  146.8870 C   0  0  0  0  0  3  0  0  0  0  0  0
  189.8810  176.1660  144.8670 C   0  0  0  0  0  0  0  0  0  0  0  0
  187.5010  176.8640  144.9890 C   0  0  0  0  0  2  0  0  0  0  0  0
  187.2410  178.1410  144.1870 C   0  0  2  0  0  3  0  0  0  0  0  0
  185.6350  178.7140  142.6400 C   0  0  1  0  0  3  0  0  0  0  0  0
  186.3300  178.9740  144.8620 O   0  0  0  0  0  0  0  0  0  0  0  0
  187.7920  178.2160  141.9120 C   0  0  0  0  0  1  0  0  0  0  0  0
  186.7520  177.8230  142.8500 N   0  0  0  0  0  0  0  0  0  0  0  0
  184.3590  177.9020  142.5260 C   0  0  0  0  0  1  0  0  0  0  0  0
  185.5680  179.5860  143.8630 C   0  0  0  0  0  2  0  0  0  0  0  0
  1 19  1  0  0  0  0
  4  9  1  6  0  0  0
  4  7  1  0  0  0  0
  4 12  1  0  0  0  0
  5 11  2  0  0  0  0
  5 18  1  0  0  0  0
  6 17  1  0  0  0  0
  6  9  2  0  0  0  0
  7  2  1  1  0  0  0
  7  5  1  0  0  0  0
  8 18  2  0  0  0  0
 10 20  1  1  0  0  0
 10 15  1  0  0  0  0
 11 20  1  0  0  0  0
 12  8  1  0  0  0  0
 14 10  1  0  0  0  0
 14  3  1  6  0  0  0
 15 13  1  0  0  0  0
 16  6  1  0  0  0  0
 17  2  1  0  0  0  0
 18 14  1  0  0  0  0
 19 13  2  0  0  0  0
 20  1  2  0  0  0  0
 21  1  1  0  0  0  0
 22 24  1  0  0  0  0
 22 21  1  1  0  0  0
 23 27  1  1  0  0  0
 23 26  1  0  0  0  0
 23 28  1  0  0  0  0
 25 26  1  0  0  0  0
 26 22  1  0  0  0  0
 28 24  1  0  0  0  0
M  END
>  <MODEL>
6

>  <REMARK>
 VINA RESULT:      -7.4      1.731      6.165
  Name = 
  2 active torsions:
  status: ('A' for Active; 'I' for Inactive)
    1  A    between atoms: C_1  and  C_2
    2  A    between atoms: C_2  and  C_3
                            x       y       z     vdW  Elec       q    Type
                         _______ _______ _______ _____ _____    ______ ____

>  <TORSDO>
F 2

$$$$
=
 OpenBabel11052418083D

 28 32  0  0  1  0  0  0  0  0999 V2000
  192.0200  174.8840  143.4920 C   0  0  0  0  0  0  0  0  0  0  0  0
  187.4030  176.7360  143.0380 C   0  0  0  0  0  2  0  0  0  0  0  0
  191.2320  176.6950  148.0310 C   0  0  0  0  0  1  0  0  0  0  0  0
  187.1500  177.8750  145.2150 C   0  0  1  0  0  3  0  0  0  0  0  0
  189.0180  176.2440  144.9180 C   0  0  0  0  0  0  0  0  0  0  0  0
  185.2000  177.8450  143.6740 C   0  0  0  0  0  0  0  0  0  0  0  0
  187.5960  176.5710  144.5430 C   0  0  2  0  0  3  0  0  0  0  0  0
  188.6900  177.5010  147.0730 N   0  0  0  0  0  2  0  0  0  0  0  0
  185.7430  178.2300  144.8350 C   0  0  0  0  0  3  0  0  0  0  0  0
  191.5560  175.2990  145.8830 C   0  0  2  0  0  3  0  0  0  0  0  0
  189.7860  175.5920  144.0930 N   0  0  0  0  0  0  0  0  0  0  0  0
  187.2970  177.7680  146.7260 C   0  0  0  0  0  2  0  0  0  0  0  0
  193.8690  175.0410  145.0700 C   0  0  0  0  0  3  0  0  0  0  0  0
  190.7410  176.2850  146.6800 C   0  0  0  0  0  0  0  0  0  0  0  0
  192.9620  175.5300  146.0170 O   0  0  0  0  0  0  0  0  0  0  0  0
  183.9100  178.2530  143.3660 O   0  0  0  0  0  1  0  0  0  0  0  0
  185.9170  176.9180  142.7190 C   0  0  0  0  0  2  0  0  0  0  0  0
  189.5190  176.6580  146.2590 C   0  0  0  0  0  0  0  0  0  0  0  0
  193.4400  174.7000  143.8530 C   0  0  0  0  0  3  0  0  0  0  0  0
  191.1360  175.2590  144.4330 C   0  0  0  0  0  0  0  0  0  0  0  0
  191.6240  174.7690  142.0480 C   0  0  0  0  0  2  0  0  0  0  0  0
  190.9880  173.4160  141.7160 C   0  0  2  0  0  3  0  0  0  0  0  0
  190.0780  171.7560  143.0240 C   0  0  1  0  0  3  0  0  0  0  0  0
  189.5930  173.5410  141.5870 O   0  0  0  0  0  0  0  0  0  0  0  0
  192.1930  171.4440  142.0970 C   0  0  0  0  0  1  0  0  0  0  0  0
  191.3240  172.4230  142.7310 N   0  0  0  0  0  0  0  0  0  0  0  0
  189.6780  172.0450  144.4590 C   0  0  0  0  0  1  0  0  0  0  0  0
  189.0610  172.3510  142.0900 C   0  0  0  0  0  2  0  0  0  0  0  0
  1 19  1  0  0  0  0
  1 20  2  0  0  0  0
  4  9  1  1  0  0  0
  4 12  1  0  0  0  0
  5 18  1  0  0  0  0
  6  9  2  0  0  0  0
  7  2  1  6  0  0  0
  7  5  1  0  0  0  0
  7  4  1  0  0  0  0
 10 20  1  6  0  0  0
 10 15  1  0  0  0  0
 10 14  1  0  0  0  0
 11 20  1  0  0  0  0
 11  5  2  0  0  0  0
 12  8  1  0  0  0  0
 13 15  1  0  0  0  0
 14  3  1  0  0  0  0
 16  6  1  0  0  0  0
 17  2  1  0  0  0  0
 17  6  1  0  0  0  0
 18 14  2  0  0  0  0
 18  8  1  0  0  0  0
 19 13  2  0  0  0  0
 21  1  1  0  0  0  0
 22 21  1  1  0  0  0
 22 26  1  0  0  0  0
 23 27  1  1  0  0  0
 24 22  1  0  0  0  0
 24 28  1  0  0  0  0
 25 26  1  0  0  0  0
 26 23  1  0  0  0  0
 28 23  1  0  0  0  0
M  END
>  <MODEL>
7

>  <REMARK>
 VINA RESULT:      -7.4      1.513      2.069
  Name = 
  2 active torsions:
  status: ('A' for Active; 'I' for Inactive)
    1  A    between atoms: C_1  and  C_2
    2  A    between atoms: C_2  and  C_3
                            x       y       z     vdW  Elec       q    Type
                         _______ _______ _______ _____ _____    ______ ____

>  <TORSDO>
F 2

$$$$
=
 OpenBabel11052418083D

 28 32  0  0  1  0  0  0  0  0999 V2000
  186.2310  177.8230  141.4990 C   0  0  0  0  0  0  0  0  0  0  0  0
  190.0750  176.7040  144.4860 C   0  0  0  0  0  2  0  0  0  0  0  0
  184.3220  178.7790  145.9660 C   0  0  0  0  0  1  0  0  0  0  0  0
  189.0100  176.9170  146.7040 C   0  0  1  0  0  3  0  0  0  0  0  0
  187.8400  177.8610  144.7090 C   0  0  0  0  0  0  0  0  0  0  0  0
  191.4440  176.4250  146.6160 C   0  0  0  0  0  0  0  0  0  0  0  0
  189.1820  177.5980  145.3420 C   0  0  2  0  0  3  0  0  0  0  0  0
  186.8300  177.9740  147.0110 N   0  0  0  0  0  2  0  0  0  0  0  0
  190.3370  176.6260  147.3400 C   0  0  0  0  0  3  0  0  0  0  0  0
  185.3550  178.7870  143.5990 C   0  0  2  0  0  3  0  0  0  0  0  0
  187.7100  177.8660  143.4140 N   0  0  0  0  0  0  0  0  0  0  0  0
  188.1430  177.7730  147.6170 C   0  0  0  0  0  2  0  0  0  0  0  0
  183.8430  178.2420  141.7290 C   0  0  0  0  0  3  0  0  0  0  0  0
  185.4850  178.4920  145.0720 C   0  0  0  0  0  0  0  0  0  0  0  0
  184.0560  178.4570  143.0960 O   0  0  0  0  0  0  0  0  0  0  0  0
  192.6270  176.1100  147.2690 O   0  0  0  0  0  1  0  0  0  0  0  0
  191.4680  176.6020  145.1150 C   0  0  0  0  0  2  0  0  0  0  0  0
  186.6730  178.1380  145.5940 C   0  0  0  0  0  0  0  0  0  0  0  0
  184.8750  177.9570  140.9330 C   0  0  0  0  0  3  0  0  0  0  0  0
  186.4470  178.1260  142.7910 C   0  0  0  0  0  0  0  0  0  0  0  0
  187.3120  177.2250  140.6450 C   0  0  0  0  0  2  0  0  0  0  0  0
  187.2760  175.6940  140.6330 C   0  0  2  0  0  3  0  0  0  0  0  0
  188.8990  174.0930  140.9440 C   0  0  1  0  0  3  0  0  0  0  0  0
  187.0820  175.1920  141.9320 O   0  0  0  0  0  0  0  0  0  0  0  0
  188.1280  174.5280  138.7890 C   0  0  0  0  0  1  0  0  0  0  0  0
  188.4990  175.1520  140.0500 N   0  0  0  0  0  0  0  0  0  0  0  0
  190.2190  174.4570  141.5970 C   0  0  0  0  0  1  0  0  0  0  0  0
  187.8260  174.0100  141.9940 C   0  0  0  0  0  2  0  0  0  0  0  0
  1 20  2  0  0  0  0
  2 17  1  0  0  0  0
  4  9  1  1  0  0  0
  4 12  1  0  0  0  0
  5  7  1  0  0  0  0
  5 18  1  0  0  0  0
  6 16  1  0  0  0  0
  6  9  2  0  0  0  0
  7  2  1  6  0  0  0
  7  4  1  0  0  0  0
  8 12  1  0  0  0  0
 10 20  1  6  0  0  0
 10 14  1  0  0  0  0
 11  5  2  0  0  0  0
 13 15  1  0  0  0  0
 14 18  2  0  0  0  0
 14  3  1  0  0  0  0
 15 10  1  0  0  0  0
 17  6  1  0  0  0  0
 18  8  1  0  0  0  0
 19  1  1  0  0  0  0
 19 13  2  0  0  0  0
 20 11  1  0  0  0  0
 21  1  1  0  0  0  0
 22 21  1  1  0  0  0
 22 24  1  0  0  0  0
 23 27  1  1  0  0  0
 23 28  1  0  0  0  0
 24 28  1  0  0  0  0
 25 26  1  0  0  0  0
 26 22  1  0  0  0  0
 26 23  1  0  0  0  0
M  END
>  <MODEL>
8

>  <REMARK>
 VINA RESULT:      -7.4      1.938      5.590
  Name = 
  2 active torsions:
  status: ('A' for Active; 'I' for Inactive)
    1  A    between atoms: C_1  and  C_2
    2  A    between atoms: C_2  and  C_3
                            x       y       z     vdW  Elec       q    Type
                         _______ _______ _______ _____ _____    ______ ____

>  <TORSDO>
F 2

$$$$
=
 OpenBabel11052418083D

 28 32  0  0  1  0  0  0  0  0999 V2000
  189.6390  177.1650  146.0400 C   0  0  0  0  0  0  0  0  0  0  0  0
  188.5610  174.8520  141.7450 C   0  0  0  0  0  2  0  0  0  0  0  0
  193.2960  173.8410  145.7640 C   0  0  0  0  0  1  0  0  0  0  0  0
  190.2250  173.0270  141.7780 C   0  0  1  0  0  3  0  0  0  0  0  0
  190.5060  174.9420  143.3560 C   0  0  0  0  0  0  0  0  0  0  0  0
  188.7740  173.2550  139.7730 C   0  0  0  0  0  0  0  0  0  0  0  0
  190.0350  174.5350  141.9850 C   0  0  2  0  0  3  0  0  0  0  0  0
  192.1080  173.0030  143.3310 N   0  0  0  0  0  0  0  0  0  0  0  0
  189.7400  172.5980  140.4240 C   0  0  0  0  0  3  0  0  0  0  0  0
  191.7460  175.9070  145.7640 C   0  0  2  0  0  3  0  0  0  0  0  0
  189.9530  175.9460  143.9730 N   0  0  0  0  0  0  0  0  0  0  0  0
  191.6840  172.6460  141.9810 C   0  0  0  0  0  2  0  0  0  0  0  0
  191.0810  176.7900  147.9670 C   0  0  0  0  0  3  0  0  0  0  0  0
  192.1600  174.5930  145.1500 C   0  0  1  0  0  3  0  0  0  0  0  0
  191.8030  175.8740  147.1930 O   0  0  0  0  0  0  0  0  0  0  0  0
  188.3390  172.7710  138.5470 O   0  0  0  0  0  1  0  0  0  0  0  0
  188.1910  174.5500  140.2900 C   0  0  0  0  0  2  0  0  0  0  0  0
  191.6310  174.1910  143.9800 C   0  0  0  0  0  0  0  0  0  0  0  0
  190.0480  177.4440  147.4310 C   0  0  0  0  0  3  0  0  0  0  0  0
  190.3920  176.3600  145.2720 C   0  0  0  0  0  0  0  0  0  0  0  0
  188.3150  177.6900  145.5600 C   0  0  0  0  0  2  0  0  0  0  0  0
  187.1830  177.4340  146.5580 C   0  0  2  0  0  3  0  0  0  0  0  0
  185.0460  178.2710  146.7410 C   0  0  1  0  0  3  0  0  0  0  0  0
  186.3270  176.4210  146.0890 O   0  0  0  0  0  0  0  0  0  0  0  0
  186.6980  179.0350  148.1970 C   0  0  0  0  0  1  0  0  0  0  0  0
  186.4340  178.6600  146.8170 N   0  0  0  0  0  0  0  0  0  0  0  0
  184.3920  178.9650  145.5620 C   0  0  0  0  0  1  0  0  0  0  0  0
  185.0460  176.7850  146.5120 C   0  0  0  0  0  2  0  0  0  0  0  0
  1 19  1  0  0  0  0
  4  9  1  6  0  0  0
  4 12  1  0  0  0  0
  4  7  1  0  0  0  0
  5 11  2  0  0  0  0
  5 18  1  0  0  0  0
  6 17  1  0  0  0  0
  6  9  2  0  0  0  0
  7  2  1  1  0  0  0
  7  5  1  0  0  0  0
  8 18  2  0  0  0  0
 10 20  1  1  0  0  0
 10 15  1  0  0  0  0
 11 20  1  0  0  0  0
 12  8  1  0  0  0  0
 14 10  1  0  0  0  0
 14  3  1  6  0  0  0
 15 13  1  0  0  0  0
 16  6  1  0  0  0  0
 17  2  1  0  0  0  0
 18 14  1  0  0  0  0
 19 13  2  0  0  0  0
 20  1  2  0  0  0  0
 21  1  1  0  0  0  0
 22 21  1  6  0  0  0
 22 26  1  0  0  0  0
 23 27  1  6  0  0  0
 23 26  1  0  0  0  0
 24 28  1  0  0  0  0
 24 22  1  0  0  0  0
 26 25  1  0  0  0  0
 28 23  1  0  0  0  0
M  END
>  <MODEL>
9

>  <REMARK>
 VINA RESULT:      -7.3      1.999      6.408
  Name = 
  2 active torsions:
  status: ('A' for Active; 'I' for Inactive)
    1  A    between atoms: C_1  and  C_2
    2  A    between atoms: C_2  and  C_3
                            x       y       z     vdW  Elec       q    Type
                         _______ _______ _______ _____ _____    ______ ____

>  <TORSDO>
F 2

$$$$
