=
 OpenBabel11052419333D

 55 59  0  0  1  0  0  0  0  0999 V2000
  188.6720  173.9520  140.9260 C   0  0  0  0  0  2  0  0  0  0  0  0
  194.4760  171.4190  142.5840 C   0  0  0  0  0  2  0  0  0  0  0  0
  193.4990  171.8630  145.2050 O   0  0  0  0  0  0  0  0  0  0  0  0
  194.7150  170.4000  140.3770 N   0  0  0  0  0  0  0  0  0  0  0  0
  191.9110  175.2640  147.4760 C   0  0  0  0  0  2  0  0  0  0  0  0
  191.5520  176.4490  148.3290 C   0  0  0  0  0  3  0  0  0  0  0  0
  190.3340  176.0980  145.7390 C   0  0  2  0  0  3  0  0  0  0  0  0
  190.0460  177.2240  146.6240 N   0  0  0  0  0  2  0  0  0  0  0  0
  193.4230  174.2340  145.0150 C   0  0  0  0  0  2  0  0  0  0  0  0
  190.6500  177.3420  147.9190 C   0  0  0  0  0  3  0  0  0  0  0  0
  189.2420  173.8000  138.4840 C   0  0  0  0  0  2  0  0  0  0  0  0
  191.7570  175.5820  145.9850 C   0  0  2  0  0  3  0  0  0  0  0  0
  190.1810  171.2430  139.2270 C   0  0  0  0  0  0  0  0  0  0  0  0
  189.1670  173.8820  142.2350 O   0  0  0  0  0  0  0  0  0  0  0  0
  190.2980  172.2200  140.1440 C   0  0  0  0  0  3  0  0  0  0  0  0
  189.2190  175.6360  143.8710 C   0  0  2  0  0  3  0  0  0  0  0  0
  195.0260  171.5740  141.1780 C   0  0  0  0  0  2  0  0  0  0  0  0
  190.1780  176.5020  144.4090 O   0  0  0  0  0  0  0  0  0  0  0  0
  194.2670  172.7280  143.1770 N   0  0  0  0  0  2  0  0  0  0  0  0
  193.7280  172.8750  144.4900 C   0  0  0  0  0  0  0  0  0  0  0  0
  188.5450  172.6000  138.0240 N   0  0  0  0  0  2  0  0  0  0  0  0
  193.3730  170.1720  140.0350 C   0  0  0  0  0  0  0  0  0  0  0  0
  189.7600  173.6110  139.9150 C   0  0  2  0  0  3  0  0  0  0  0  0
  191.9870  174.3760  145.2020 N   0  0  0  0  0  2  0  0  0  0  0  0
  189.6920  175.1490  142.5060 C   0  0  0  0  0  2  0  0  0  0  0  0
  192.2100  170.0120  139.7660 C   0  0  0  0  0  0  0  0  0  0  0  0
  190.7760  169.8900  139.4800 C   0  0  0  0  0  2  0  0  0  0  0  0
  189.5320  171.5270  137.9000 C   0  0  0  0  0  2  0  0  0  0  0  0
  187.9840  177.7560  143.3170 C   0  0  0  0  0  3  0  0  0  0  0  0
  185.8430  178.2630  144.3770 C   0  0  0  0  0  0  0  0  0  0  0  0
  187.0790  176.2560  145.1240 C   0  0  0  0  0  2  0  0  0  0  0  0
  185.8480  177.1200  145.0760 C   0  0  0  0  0  3  0  0  0  0  0  0
  187.0150  178.6420  143.5640 C   0  0  0  0  0  3  0  0  0  0  0  0
  187.8570  176.3350  143.8010 C   0  0  2  0  0  3  0  0  0  0  0  0
  184.4170  179.3210  144.4000 S   0  0  2  0  0  0  0  0  0  0  0  0
  183.7310  178.9900  145.7190 O   0  0  0  0  0  0  0  0  0  0  0  0
  183.3250  178.6390  143.1420 C   0  0  0  0  0  1  0  0  0  0  0  0
  195.7410  169.8030  139.6270 N   0  0  0  0  0  2  0  0  0  0  0  0
  196.8700  169.8940  137.2230 O   0  0  0  0  0  0  0  0  0  0  0  0
  195.9000  170.6280  138.1060 S   0  0  0  0  0  0  0  0  0  0  0  0
  194.5500  170.6350  137.4440 O   0  0  0  0  0  0  0  0  0  0  0  0
  196.4550  172.3180  138.3600 C   0  0  1  0  0  3  0  0  0  0  0  0
  197.9410  172.3840  138.6550 C   0  0  0  0  0  1  0  0  0  0  0  0
  197.0060  173.2080  136.0710 C   0  0  0  0  0  1  0  0  0  0  0  0
  196.0540  173.3150  137.2550 C   0  0  2  0  0  3  0  0  0  0  0  0
  195.2870  176.2580  135.7790 C   0  0  0  0  0  0  0  0  0  0  0  0
  196.4350  175.1030  138.8370 O   0  0  0  0  0  1  0  0  0  0  0  0
  195.7960  177.1910  134.7410 C   0  0  0  0  0  1  0  0  0  0  0  0
  194.2220  174.9410  138.0090 C   0  0  1  0  0  3  0  0  0  0  0  0
  193.9150  175.9980  135.8580 O   0  0  0  0  0  0  0  0  0  0  0  0
  195.7240  174.7800  137.6790 C   0  0  2  0  0  0  0  0  0  0  0  0
  193.3910  175.0020  136.7310 C   0  0  0  0  0  2  0  0  0  0  0  0
  196.1180  175.7220  136.6230 N   0  0  0  0  0  0  0  0  0  0  0  0
  193.7660  173.9090  138.8350 O   0  0  0  0  0  0  0  0  0  0  0  0
  193.2640  174.5520  139.9680 C   0  0  0  0  0  1  0  0  0  0  0  0
  1 14  1  0  0  0  0
  2 19  1  0  0  0  0
  4 17  1  0  0  0  0
  5  6  1  0  0  0  0
  7 18  1  6  0  0  0
  7 12  1  0  0  0  0
  7  8  1  0  0  0  0
  8 10  1  0  0  0  0
  9 24  1  0  0  0  0
 10  6  2  0  0  0  0
 12  5  1  1  0  0  0
 13 27  1  0  0  0  0
 13 15  2  0  0  0  0
 14 25  1  0  0  0  0
 16 25  1  6  0  0  0
 16 18  1  0  0  0  0
 17  2  1  0  0  0  0
 19 20  1  0  0  0  0
 20  9  1  0  0  0  0
 20  3  2  0  0  0  0
 21 11  1  0  0  0  0
 22  4  1  0  0  0  0
 23 11  1  6  0  0  0
 23 15  1  0  0  0  0
 23  1  1  0  0  0  0
 24 12  1  0  0  0  0
 26 22  3  0  0  0  0
 27 26  1  0  0  0  0
 28 21  1  0  0  0  0
 28 13  1  0  0  0  0
 29 33  2  0  0  0  0
 30 35  1  0  0  0  0
 30 32  2  0  0  0  0
 32 31  1  0  0  0  0
 33 30  1  0  0  0  0
 34 29  1  1  0  0  0
 34 16  1  0  0  0  0
 34 31  1  0  0  0  0
 35 37  1  6  0  0  0
 35 36  2  0  0  0  0
 38  4  1  0  0  0  0
 39 40  2  0  0  0  0
 40 42  1  0  0  0  0
 40 38  1  0  0  0  0
 41 40  2  0  0  0  0
 42 43  1  6  0  0  0
 45 44  1  6  0  0  0
 45 51  1  0  0  0  0
 45 42  1  0  0  0  0
 46 50  1  0  0  0  0
 46 53  2  0  0  0  0
 48 46  1  0  0  0  0
 49 54  1  1  0  0  0
 50 52  1  0  0  0  0
 51 49  1  0  0  0  0
 51 47  1  1  0  0  0
 52 49  1  0  0  0  0
 53 51  1  0  0  0  0
 54 55  1  0  0  0  0
M  END
>  <MODEL>
1

>  <REMARK>
 VINA RESULT:      -7.3      0.000      0.000
  Name = 
  8 active torsions:
  status: ('A' for Active; 'I' for Inactive)
    1  A    between atoms: C_6  and  C_14
    2  A    between atoms: C_6  and  S_20
    3  A    between atoms: N_8  and  N_22
    4  A    between atoms: S_10  and  C_32
    5  A    between atoms: O_11  and  C_29
    6  A    between atoms: C_14  and  C_38
    7  A    between atoms: S_20  and  N_22
    8  A    between atoms: C_33  and  C_52
                            x       y       z     vdW  Elec       q    Type
                         _______ _______ _______ _____ _____    ______ ____

>  <TORSDO>
F 8

$$$$
=
 OpenBabel11052419333D

 55 59  0  0  1  0  0  0  0  0999 V2000
  188.7580  173.9440  141.4280 C   0  0  0  0  0  2  0  0  0  0  0  0
  194.7250  171.8500  143.1210 C   0  0  0  0  0  2  0  0  0  0  0  0
  193.7600  172.3820  145.7300 O   0  0  0  0  0  0  0  0  0  0  0  0
  194.9920  170.7250  140.9690 N   0  0  0  0  0  0  0  0  0  0  0  0
  192.0060  175.8070  147.8380 C   0  0  0  0  0  2  0  0  0  0  0  0
  191.5890  177.0140  148.6310 C   0  0  0  0  0  3  0  0  0  0  0  0
  190.3580  176.4480  146.0860 C   0  0  2  0  0  3  0  0  0  0  0  0
  190.0170  177.6040  146.9130 N   0  0  0  0  0  2  0  0  0  0  0  0
  193.5420  174.7310  145.4110 C   0  0  0  0  0  2  0  0  0  0  0  0
  190.6310  177.8290  148.1880 C   0  0  0  0  0  3  0  0  0  0  0  0
  189.3010  173.6890  138.9880 C   0  0  0  0  0  2  0  0  0  0  0  0
  191.8120  176.0320  146.3350 C   0  0  2  0  0  3  0  0  0  0  0  0
  190.4000  171.2370  139.8540 C   0  0  0  0  0  0  0  0  0  0  0  0
  189.2750  173.9760  142.7300 O   0  0  0  0  0  0  0  0  0  0  0  0
  190.4720  172.2690  140.7130 C   0  0  0  0  0  3  0  0  0  0  0  0
  189.2460  175.8190  144.2660 C   0  0  2  0  0  3  0  0  0  0  0  0
  195.2440  171.9590  141.6990 C   0  0  0  0  0  2  0  0  0  0  0  0
  190.1590  176.7680  144.7380 O   0  0  0  0  0  0  0  0  0  0  0  0
  194.4460  173.1760  143.6450 N   0  0  0  0  0  2  0  0  0  0  0  0
  193.9190  173.3640  144.9570 C   0  0  0  0  0  0  0  0  0  0  0  0
  188.6700  172.4270  138.6070 N   0  0  0  0  0  2  0  0  0  0  0  0
  193.6610  170.4010  140.6640 C   0  0  0  0  0  0  0  0  0  0  0  0
  189.8500  173.6110  140.4180 C   0  0  2  0  0  3  0  0  0  0  0  0
  192.1020  174.7990  145.6150 N   0  0  0  0  0  2  0  0  0  0  0  0
  189.7270  175.2850  142.9220 C   0  0  0  0  0  2  0  0  0  0  0  0
  192.5050  170.1590  140.4240 C   0  0  0  0  0  0  0  0  0  0  0  0
  191.0770  169.9370  140.1700 C   0  0  0  0  0  2  0  0  0  0  0  0
  189.7160  171.4080  138.5240 C   0  0  0  0  0  2  0  0  0  0  0  0
  187.8650  177.7810  143.5100 C   0  0  0  0  0  3  0  0  0  0  0  0
  185.7530  178.3150  144.6120 C   0  0  0  0  0  0  0  0  0  0  0  0
  187.1370  176.4920  145.5450 C   0  0  0  0  0  2  0  0  0  0  0  0
  185.8580  177.2780  145.4530 C   0  0  0  0  0  3  0  0  0  0  0  0
  186.8600  178.6420  143.6920 C   0  0  0  0  0  3  0  0  0  0  0  0
  187.8440  176.4320  144.1820 C   0  0  2  0  0  3  0  0  0  0  0  0
  184.2710  179.2930  144.5770 S   0  0  2  0  0  0  0  0  0  0  0  0
  183.4510  178.7690  145.7480 O   0  0  0  0  0  0  0  0  0  0  0  0
  183.3860  178.7230  143.1170 C   0  0  0  0  0  1  0  0  0  0  0  0
  196.0400  170.1480  140.2350 N   0  0  0  0  0  2  0  0  0  0  0  0
  195.5140  172.3610  138.8610 O   0  0  0  0  0  0  0  0  0  0  0  0
  196.4100  171.1540  138.8670 S   0  0  0  0  0  0  0  0  0  0  0  0
  197.8370  171.6090  139.0050 O   0  0  0  0  0  0  0  0  0  0  0  0
  196.2170  170.2340  137.3360 C   0  0  1  0  0  3  0  0  0  0  0  0
  196.9100  168.8860  137.3980 C   0  0  0  0  0  1  0  0  0  0  0  0
  194.1580  168.7860  137.2960 C   0  0  0  0  0  1  0  0  0  0  0  0
  194.7680  170.1010  136.8270 C   0  0  2  0  0  3  0  0  0  0  0  0
  192.1540  171.0360  134.8980 C   0  0  0  0  0  0  0  0  0  0  0  0
  195.3110  169.6610  134.5130 O   0  0  0  0  0  1  0  0  0  0  0  0
  190.7700  170.6190  134.5570 C   0  0  0  0  0  1  0  0  0  0  0  0
  194.8090  171.9180  135.0210 C   0  0  1  0  0  3  0  0  0  0  0  0
  192.4410  172.3930  135.0800 O   0  0  0  0  0  0  0  0  0  0  0  0
  194.4870  170.4380  135.3300 C   0  0  2  0  0  0  0  0  0  0  0  0
  193.7100  172.8330  135.5520 C   0  0  0  0  0  2  0  0  0  0  0  0
  193.0900  170.1380  134.9890 N   0  0  0  0  0  0  0  0  0  0  0  0
  196.0490  172.2940  135.5470 O   0  0  0  0  0  0  0  0  0  0  0  0
  195.9740  173.6800  135.6870 C   0  0  0  0  0  1  0  0  0  0  0  0
  1 14  1  0  0  0  0
  2 19  1  0  0  0  0
  4 17  1  0  0  0  0
  5  6  1  0  0  0  0
  7 18  1  6  0  0  0
  7 12  1  0  0  0  0
  7  8  1  0  0  0  0
  8 10  1  0  0  0  0
  9 24  1  0  0  0  0
 10  6  2  0  0  0  0
 12  5  1  1  0  0  0
 13 27  1  0  0  0  0
 13 15  2  0  0  0  0
 14 25  1  0  0  0  0
 16 25  1  6  0  0  0
 16 18  1  0  0  0  0
 17  2  1  0  0  0  0
 19 20  1  0  0  0  0
 20  9  1  0  0  0  0
 20  3  2  0  0  0  0
 21 11  1  0  0  0  0
 22  4  1  0  0  0  0
 23 11  1  6  0  0  0
 23 15  1  0  0  0  0
 23  1  1  0  0  0  0
 24 12  1  0  0  0  0
 26 22  3  0  0  0  0
 27 26  1  0  0  0  0
 28 21  1  0  0  0  0
 28 13  1  0  0  0  0
 29 33  2  0  0  0  0
 30 32  2  0  0  0  0
 32 31  1  0  0  0  0
 33 30  1  0  0  0  0
 34 29  1  1  0  0  0
 34 16  1  0  0  0  0
 34 31  1  0  0  0  0
 35 37  1  6  0  0  0
 35 30  1  0  0  0  0
 35 36  2  0  0  0  0
 38  4  1  0  0  0  0
 39 40  2  0  0  0  0
 40 41  2  0  0  0  0
 40 38  1  0  0  0  0
 42 43  1  1  0  0  0
 42 40  1  0  0  0  0
 45 44  1  6  0  0  0
 45 42  1  0  0  0  0
 46 53  2  0  0  0  0
 46 50  1  0  0  0  0
 48 46  1  0  0  0  0
 49 51  1  0  0  0  0
 49 54  1  1  0  0  0
 49 52  1  0  0  0  0
 50 52  1  0  0  0  0
 51 47  1  6  0  0  0
 51 45  1  0  0  0  0
 53 51  1  0  0  0  0
 54 55  1  0  0  0  0
M  END
>  <MODEL>
2

>  <REMARK>
 VINA RESULT:      -6.7      1.828      2.731
  Name = 
  8 active torsions:
  status: ('A' for Active; 'I' for Inactive)
    1  A    between atoms: C_6  and  C_14
    2  A    between atoms: C_6  and  S_20
    3  A    between atoms: N_8  and  N_22
    4  A    between atoms: S_10  and  C_32
    5  A    between atoms: O_11  and  C_29
    6  A    between atoms: C_14  and  C_38
    7  A    between atoms: S_20  and  N_22
    8  A    between atoms: C_33  and  C_52
                            x       y       z     vdW  Elec       q    Type
                         _______ _______ _______ _____ _____    ______ ____

>  <TORSDO>
F 8

$$$$
=
 OpenBabel11052419333D

 55 59  0  0  1  0  0  0  0  0999 V2000
  194.9340  173.9740  141.8970 C   0  0  0  0  0  2  0  0  0  0  0  0
  188.7780  173.9420  144.1230 C   0  0  0  0  0  2  0  0  0  0  0  0
  188.5560  171.7250  142.3730 O   0  0  0  0  0  0  0  0  0  0  0  0
  189.4290  175.2520  146.0800 N   0  0  0  0  0  0  0  0  0  0  0  0
  189.3090  170.9370  138.1240 C   0  0  0  0  0  2  0  0  0  0  0  0
  189.3700  170.6960  136.6420 C   0  0  0  0  0  3  0  0  0  0  0  0
  191.5540  172.0050  137.9950 C   0  0  2  0  0  3  0  0  0  0  0  0
  191.5320  171.7420  136.5580 N   0  0  0  0  0  2  0  0  0  0  0  0
  188.9280  172.9760  140.3830 C   0  0  0  0  0  2  0  0  0  0  0  0
  190.4400  171.0580  135.9310 C   0  0  0  0  0  3  0  0  0  0  0  0
  195.4710  176.0210  143.2520 C   0  0  0  0  0  2  0  0  0  0  0  0
  190.1250  172.1710  138.5240 C   0  0  2  0  0  3  0  0  0  0  0  0
  194.0680  174.6210  145.2640 C   0  0  0  0  0  0  0  0  0  0  0  0
  193.9150  173.1440  141.4120 O   0  0  0  0  0  0  0  0  0  0  0  0
  193.6560  174.4340  143.9970 C   0  0  0  0  0  3  0  0  0  0  0  0
  193.3220  172.7490  139.1220 C   0  0  2  0  0  3  0  0  0  0  0  0
  188.9110  175.3300  144.7210 C   0  0  0  0  0  2  0  0  0  0  0  0
  192.3100  173.1560  138.2440 O   0  0  0  0  0  0  0  0  0  0  0  0
  188.8300  174.0240  142.6740 N   0  0  0  0  0  2  0  0  0  0  0  0
  188.7560  172.8570  141.8570 C   0  0  0  0  0  0  0  0  0  0  0  0
  196.1830  175.5050  144.4200 N   0  0  0  0  0  2  0  0  0  0  0  0
  190.7580  174.8380  146.2550 C   0  0  0  0  0  0  0  0  0  0  0  0
  194.3670  175.0490  142.8170 C   0  0  2  0  0  3  0  0  0  0  0  0
  190.1460  172.2920  139.9750 N   0  0  0  0  0  2  0  0  0  0  0  0
  193.4460  173.7650  140.2510 C   0  0  0  0  0  2  0  0  0  0  0  0
  191.9020  174.4760  146.3620 C   0  0  0  0  0  0  0  0  0  0  0  0
  193.3000  174.0310  146.4070 C   0  0  0  0  0  2  0  0  0  0  0  0
  195.2540  175.5040  145.5500 C   0  0  0  0  0  2  0  0  0  0  0  0
  194.4050  172.4020  136.8780 C   0  0  0  0  0  3  0  0  0  0  0  0
  196.5720  171.2930  136.7000 C   0  0  0  0  0  0  0  0  0  0  0  0
  195.4940  171.4150  138.9210 C   0  0  0  0  0  2  0  0  0  0  0  0
  196.6710  171.1360  138.0270 C   0  0  0  0  0  3  0  0  0  0  0  0
  195.3370  171.8370  136.1050 C   0  0  0  0  0  3  0  0  0  0  0  0
  194.6370  172.5610  138.3580 C   0  0  2  0  0  3  0  0  0  0  0  0
  197.9370  170.8720  135.6450 S   0  0  2  0  0  0  0  0  0  0  0  0
  197.8590  171.8890  134.5130 O   0  0  0  0  0  0  0  0  0  0  0  0
  197.4570  169.3140  134.8820 C   0  0  0  0  0  1  0  0  0  0  0  0
  188.7800  175.9770  147.0920 N   0  0  0  0  0  2  0  0  0  0  0  0
  188.5390  178.5820  147.5560 O   0  0  0  0  0  0  0  0  0  0  0  0
  188.3370  177.5440  146.4870 S   0  0  0  0  0  0  0  0  0  0  0  0
  189.2380  177.8600  145.3270 O   0  0  0  0  0  0  0  0  0  0  0  0
  186.6250  177.5480  145.9400 C   0  0  1  0  0  3  0  0  0  0  0  0
  185.7050  178.1680  146.9750 C   0  0  0  0  0  1  0  0  0  0  0  0
  185.6680  179.4850  144.6490 C   0  0  0  0  0  1  0  0  0  0  0  0
  186.3840  178.1450  144.5400 C   0  0  2  0  0  3  0  0  0  0  0  0
  184.0780  178.2610  142.0710 C   0  0  0  0  0  0  0  0  0  0  0  0
  185.8240  175.8860  143.8910 O   0  0  0  0  0  1  0  0  0  0  0  0
  182.6450  178.5820  141.8500 C   0  0  0  0  0  1  0  0  0  0  0  0
  186.6880  177.2490  142.1590 C   0  0  1  0  0  3  0  0  0  0  0  0
  185.0300  178.6750  141.1330 O   0  0  0  0  0  0  0  0  0  0  0  0
  185.8140  177.2050  143.4340 C   0  0  2  0  0  0  0  0  0  0  0  0
  186.4260  178.5270  141.3680 C   0  0  0  0  0  2  0  0  0  0  0  0
  184.4270  177.5680  143.1150 N   0  0  0  0  0  0  0  0  0  0  0  0
  188.0470  177.1380  142.4660 O   0  0  0  0  0  0  0  0  0  0  0  0
  188.6300  178.2910  141.9370 C   0  0  0  0  0  1  0  0  0  0  0  0
  2 17  1  0  0  0  0
  4 22  1  0  0  0  0
  4 38  1  0  0  0  0
  6  5  1  0  0  0  0
  7  8  1  6  0  0  0
  7 18  1  0  0  0  0
  7 12  1  0  0  0  0
  9 20  1  0  0  0  0
 10  8  1  0  0  0  0
 10  6  2  0  0  0  0
 11 21  1  0  0  0  0
 12  5  1  1  0  0  0
 12 24  1  0  0  0  0
 13 28  1  0  0  0  0
 13 27  1  0  0  0  0
 14  1  1  0  0  0  0
 15 13  2  0  0  0  0
 16 25  1  1  0  0  0
 17  4  1  0  0  0  0
 18 16  1  0  0  0  0
 19  2  1  0  0  0  0
 20  3  2  0  0  0  0
 20 19  1  0  0  0  0
 21 28  1  0  0  0  0
 22 26  3  0  0  0  0
 23  1  1  1  0  0  0
 23 11  1  0  0  0  0
 23 15  1  0  0  0  0
 24  9  1  0  0  0  0
 25 14  1  0  0  0  0
 26 27  1  0  0  0  0
 30 32  2  0  0  0  0
 32 31  1  0  0  0  0
 33 30  1  0  0  0  0
 33 29  2  0  0  0  0
 34 29  1  6  0  0  0
 34 31  1  0  0  0  0
 34 16  1  0  0  0  0
 35 37  1  6  0  0  0
 35 30  1  0  0  0  0
 36 35  2  0  0  0  0
 40 38  1  0  0  0  0
 40 39  2  0  0  0  0
 41 40  2  0  0  0  0
 42 40  1  0  0  0  0
 42 43  1  1  0  0  0
 45 44  1  1  0  0  0
 45 42  1  0  0  0  0
 46 53  2  0  0  0  0
 48 46  1  0  0  0  0
 49 54  1  1  0  0  0
 49 51  1  0  0  0  0
 50 52  1  0  0  0  0
 50 46  1  0  0  0  0
 51 47  1  1  0  0  0
 51 45  1  0  0  0  0
 52 49  1  0  0  0  0
 53 51  1  0  0  0  0
 55 54  1  0  0  0  0
M  END
>  <MODEL>
3

>  <REMARK>
 VINA RESULT:      -6.0      2.786     11.024
  Name = 
  8 active torsions:
  status: ('A' for Active; 'I' for Inactive)
    1  A    between atoms: C_6  and  C_14
    2  A    between atoms: C_6  and  S_20
    3  A    between atoms: N_8  and  N_22
    4  A    between atoms: S_10  and  C_32
    5  A    between atoms: O_11  and  C_29
    6  A    between atoms: C_14  and  C_38
    7  A    between atoms: S_20  and  N_22
    8  A    between atoms: C_33  and  C_52
                            x       y       z     vdW  Elec       q    Type
                         _______ _______ _______ _____ _____    ______ ____

>  <TORSDO>
F 8

$$$$
=
 OpenBabel11052419333D

 55 59  0  0  1  0  0  0  0  0999 V2000
  188.0600  174.4380  141.7480 C   0  0  0  0  0  2  0  0  0  0  0  0
  192.9830  174.3630  146.0620 C   0  0  0  0  0  2  0  0  0  0  0  0
  190.9040  175.0060  147.8760 O   0  0  0  0  0  0  0  0  0  0  0  0
  194.3590  173.0370  144.5410 N   0  0  0  0  0  0  0  0  0  0  0  0
  187.8070  178.0960  148.2030 C   0  0  0  0  0  2  0  0  0  0  0  0
  186.8720  179.2490  148.4380 C   0  0  0  0  0  3  0  0  0  0  0  0
  186.9910  177.9770  145.8530 C   0  0  2  0  0  3  0  0  0  0  0  0
  186.1170  179.1070  146.1620 N   0  0  0  0  0  2  0  0  0  0  0  0
  190.4120  177.1240  146.9080 C   0  0  0  0  0  2  0  0  0  0  0  0
  186.0660  179.6880  147.4710 C   0  0  0  0  0  3  0  0  0  0  0  0
  189.6420  173.9680  139.8530 C   0  0  0  0  0  2  0  0  0  0  0  0
  188.2440  178.0230  146.7360 C   0  0  2  0  0  3  0  0  0  0  0  0
  190.6940  172.0800  141.6690 C   0  0  0  0  0  0  0  0  0  0  0  0
  187.9480  174.8130  143.0930 O   0  0  0  0  0  0  0  0  0  0  0  0
  190.1940  173.2120  142.1950 C   0  0  0  0  0  3  0  0  0  0  0  0
  186.9150  176.7910  143.9740 C   0  0  2  0  0  3  0  0  0  0  0  0
  194.0360  174.3900  144.9700 C   0  0  0  0  0  2  0  0  0  0  0  0
  187.3390  178.0170  144.4990 O   0  0  0  0  0  0  0  0  0  0  0  0
  192.2640  175.6250  146.0820 N   0  0  0  0  0  2  0  0  0  0  0  0
  191.1960  175.8620  146.9980 C   0  0  0  0  0  0  0  0  0  0  0  0
  189.4850  172.5370  139.5970 N   0  0  0  0  0  2  0  0  0  0  0  0
  193.3770  172.3140  143.8460 C   0  0  0  0  0  0  0  0  0  0  0  0
  189.5220  174.2670  141.3520 C   0  0  2  0  0  3  0  0  0  0  0  0
  189.0410  176.8220  146.5230 N   0  0  0  0  0  2  0  0  0  0  0  0
  188.0200  176.2090  143.1000 C   0  0  0  0  0  2  0  0  0  0  0  0
  192.5060  171.7280  143.2540 C   0  0  0  0  0  0  0  0  0  0  0  0
  191.3970  171.0840  142.5410 C   0  0  0  0  0  2  0  0  0  0  0  0
  190.6340  171.8470  140.1840 C   0  0  0  0  0  2  0  0  0  0  0  0
  185.8410  177.3390  141.7660 C   0  0  0  0  0  3  0  0  0  0  0  0
  183.5930  178.2880  141.6770 C   0  0  0  0  0  0  0  0  0  0  0  0
  184.6440  177.9640  143.8900 C   0  0  0  0  0  2  0  0  0  0  0  0
  183.4620  178.2630  143.0100 C   0  0  0  0  0  3  0  0  0  0  0  0
  184.8780  177.9240  141.0490 C   0  0  0  0  0  3  0  0  0  0  0  0
  185.5990  176.9720  143.2080 C   0  0  2  0  0  3  0  0  0  0  0  0
  182.2140  178.7330  140.6490 S   0  0  2  0  0  0  0  0  0  0  0  0
  181.0420  178.8220  141.6180 O   0  0  0  0  0  0  0  0  0  0  0  0
  181.8800  177.2570  139.6740 C   0  0  0  0  0  1  0  0  0  0  0  0
  195.7090  172.6650  144.4360 N   0  0  0  0  0  2  0  0  0  0  0  0
  197.6830  172.7730  142.6610 O   0  0  0  0  0  0  0  0  0  0  0  0
  196.1860  172.6840  142.7650 S   0  0  0  0  0  0  0  0  0  0  0  0
  195.7310  171.3930  142.1440 O   0  0  0  0  0  0  0  0  0  0  0  0
  195.4240  174.0670  141.9070 C   0  0  1  0  0  3  0  0  0  0  0  0
  195.9510  175.3990  142.4080 C   0  0  0  0  0  1  0  0  0  0  0  0
  196.5470  174.9010  139.8140 C   0  0  0  0  0  1  0  0  0  0  0  0
  195.4620  173.9880  140.3690 C   0  0  2  0  0  3  0  0  0  0  0  0
  194.3470  174.8620  137.3000 C   0  0  0  0  0  0  0  0  0  0  0  0
  193.0830  174.4000  140.4920 O   0  0  0  0  0  1  0  0  0  0  0  0
  194.4000  175.9910  136.3350 C   0  0  0  0  0  1  0  0  0  0  0  0
  193.7370  172.7030  138.9750 C   0  0  1  0  0  3  0  0  0  0  0  0
  194.4580  173.5490  136.8300 O   0  0  0  0  0  0  0  0  0  0  0  0
  194.1060  174.0680  139.6010 C   0  0  2  0  0  0  0  0  0  0  0  0
  194.5640  172.4430  137.7200 C   0  0  0  0  0  2  0  0  0  0  0  0
  194.1640  175.1060  138.5630 N   0  0  0  0  0  0  0  0  0  0  0  0
  193.9020  171.6590  139.8900 O   0  0  0  0  0  0  0  0  0  0  0  0
  194.1220  170.5260  139.1050 C   0  0  0  0  0  1  0  0  0  0  0  0
  1 14  1  0  0  0  0
  2 19  1  0  0  0  0
  4 17  1  0  0  0  0
  5  6  1  0  0  0  0
  7 18  1  6  0  0  0
  7  8  1  0  0  0  0
  7 12  1  0  0  0  0
  8 10  1  0  0  0  0
  9 20  1  0  0  0  0
 10  6  2  0  0  0  0
 12  5  1  1  0  0  0
 13 15  2  0  0  0  0
 13 27  1  0  0  0  0
 14 25  1  0  0  0  0
 16 25  1  6  0  0  0
 16 18  1  0  0  0  0
 17  2  1  0  0  0  0
 19 20  1  0  0  0  0
 20  3  2  0  0  0  0
 21 11  1  0  0  0  0
 21 28  1  0  0  0  0
 22  4  1  0  0  0  0
 23 11  1  6  0  0  0
 23  1  1  0  0  0  0
 23 15  1  0  0  0  0
 24 12  1  0  0  0  0
 24  9  1  0  0  0  0
 26 22  3  0  0  0  0
 27 26  1  0  0  0  0
 28 13  1  0  0  0  0
 30 32  2  0  0  0  0
 32 31  1  0  0  0  0
 33 30  1  0  0  0  0
 33 29  2  0  0  0  0
 34 29  1  6  0  0  0
 34 31  1  0  0  0  0
 34 16  1  0  0  0  0
 35 37  1  6  0  0  0
 35 36  2  0  0  0  0
 35 30  1  0  0  0  0
 38  4  1  0  0  0  0
 39 40  2  0  0  0  0
 40 38  1  0  0  0  0
 41 40  2  0  0  0  0
 42 43  1  6  0  0  0
 42 40  1  0  0  0  0
 45 44  1  6  0  0  0
 45 42  1  0  0  0  0
 46 53  2  0  0  0  0
 48 46  1  0  0  0  0
 49 51  1  0  0  0  0
 49 54  1  1  0  0  0
 50 46  1  0  0  0  0
 50 52  1  0  0  0  0
 51 45  1  0  0  0  0
 51 47  1  1  0  0  0
 52 49  1  0  0  0  0
 53 51  1  0  0  0  0
 55 54  1  0  0  0  0
M  END
>  <MODEL>
4

>  <REMARK>
 VINA RESULT:      -6.0      2.500      3.820
  Name = 
  8 active torsions:
  status: ('A' for Active; 'I' for Inactive)
    1  A    between atoms: C_6  and  C_14
    2  A    between atoms: C_6  and  S_20
    3  A    between atoms: N_8  and  N_22
    4  A    between atoms: S_10  and  C_32
    5  A    between atoms: O_11  and  C_29
    6  A    between atoms: C_14  and  C_38
    7  A    between atoms: S_20  and  N_22
    8  A    between atoms: C_33  and  C_52
                            x       y       z     vdW  Elec       q    Type
                         _______ _______ _______ _____ _____    ______ ____

>  <TORSDO>
F 8

$$$$
=
 OpenBabel11052419333D

 55 59  0  0  1  0  0  0  0  0999 V2000
  185.9410  176.8180  139.2240 C   0  0  0  0  0  2  0  0  0  0  0  0
  191.0570  174.2760  142.4190 C   0  0  0  0  0  2  0  0  0  0  0  0
  189.2180  174.2470  144.5730 O   0  0  0  0  0  0  0  0  0  0  0  0
  192.1180  173.6410  140.3120 N   0  0  0  0  0  0  0  0  0  0  0  0
  186.6500  177.1670  146.6060 C   0  0  0  0  0  2  0  0  0  0  0  0
  185.9170  178.1810  147.4370 C   0  0  0  0  0  3  0  0  0  0  0  0
  185.6800  178.2110  144.5640 C   0  0  2  0  0  3  0  0  0  0  0  0
  185.0080  179.1650  145.4430 N   0  0  0  0  0  2  0  0  0  0  0  0
  188.9910  176.6120  144.7030 C   0  0  0  0  0  2  0  0  0  0  0  0
  185.1270  179.0930  146.8700 C   0  0  0  0  0  3  0  0  0  0  0  0
  187.3110  177.0900  137.1350 C   0  0  0  0  0  2  0  0  0  0  0  0
  186.9780  177.7180  145.2140 C   0  0  2  0  0  3  0  0  0  0  0  0
  188.1780  174.4840  137.7920 C   0  0  0  0  0  0  0  0  0  0  0  0
  185.9710  176.5540  140.6000 O   0  0  0  0  0  0  0  0  0  0  0  0
  187.8880  175.3020  138.8190 C   0  0  0  0  0  3  0  0  0  0  0  0
  185.3060  178.0180  142.3800 C   0  0  2  0  0  3  0  0  0  0  0  0
  192.0310  174.6800  141.3280 C   0  0  0  0  0  2  0  0  0  0  0  0
  185.9430  178.8210  143.3330 O   0  0  0  0  0  0  0  0  0  0  0  0
  190.5400  175.4610  143.0800 N   0  0  0  0  0  2  0  0  0  0  0  0
  189.5790  175.3700  144.1320 C   0  0  0  0  0  0  0  0  0  0  0  0
  186.9240  175.9550  136.2990 N   0  0  0  0  0  2  0  0  0  0  0  0
  190.9970  173.4200  139.4980 C   0  0  0  0  0  0  0  0  0  0  0  0
  187.3320  176.6890  138.6150 C   0  0  2  0  0  3  0  0  0  0  0  0
  187.5690  176.6660  144.3980 N   0  0  0  0  0  2  0  0  0  0  0  0
  186.2530  177.7790  141.2100 C   0  0  0  0  0  2  0  0  0  0  0  0
  190.0120  173.2620  138.8220 C   0  0  0  0  0  0  0  0  0  0  0  0
  188.7750  173.1320  138.0420 C   0  0  0  0  0  2  0  0  0  0  0  0
  187.9900  174.9560  136.3750 C   0  0  0  0  0  2  0  0  0  0  0  0
  183.0460  178.8530  143.1020 C   0  0  0  0  0  3  0  0  0  0  0  0
  181.1850  178.9310  141.5230 C   0  0  0  0  0  0  0  0  0  0  0  0
  183.3140  177.9150  140.7820 C   0  0  0  0  0  2  0  0  0  0  0  0
  181.9360  178.4610  140.5190 C   0  0  0  0  0  3  0  0  0  0  0  0
  181.7370  179.0120  142.8890 C   0  0  0  0  0  3  0  0  0  0  0  0
  183.9880  178.6650  141.9410 C   0  0  2  0  0  3  0  0  0  0  0  0
  179.5270  179.4870  141.2170 S   0  0  2  0  0  0  0  0  0  0  0  0
  178.9330  178.4100  140.3190 O   0  0  0  0  0  0  0  0  0  0  0  0
  179.7190  180.9150  140.1380 C   0  0  0  0  0  1  0  0  0  0  0  0
  193.3870  173.2150  139.8890 N   0  0  0  0  0  2  0  0  0  0  0  0
  192.8520  171.5090  141.8540 O   0  0  0  0  0  0  0  0  0  0  0  0
  193.9640  171.9700  140.9540 S   0  0  0  0  0  0  0  0  0  0  0  0
  194.4150  170.8130  140.1060 O   0  0  0  0  0  0  0  0  0  0  0  0
  195.3440  172.5700  141.9370 C   0  0  1  0  0  3  0  0  0  0  0  0
  196.5930  172.7590  141.0970 C   0  0  0  0  0  1  0  0  0  0  0  0
  195.4540  175.0820  142.0560 C   0  0  0  0  0  1  0  0  0  0  0  0
  195.0470  173.8140  142.7960 C   0  0  2  0  0  3  0  0  0  0  0  0
  194.4950  175.5950  145.6160 C   0  0  0  0  0  0  0  0  0  0  0  0
  196.7790  173.2920  144.3990 O   0  0  0  0  0  1  0  0  0  0  0  0
  194.5660  176.9870  146.1290 C   0  0  0  0  0  1  0  0  0  0  0  0
  194.5690  172.8410  145.1180 C   0  0  1  0  0  3  0  0  0  0  0  0
  193.4160  174.7820  145.9790 O   0  0  0  0  0  0  0  0  0  0  0  0
  195.4760  173.7850  144.2960 C   0  0  2  0  0  0  0  0  0  0  0  0
  193.2200  173.4960  145.3980 C   0  0  0  0  0  2  0  0  0  0  0  0
  195.4520  175.1390  144.8640 N   0  0  0  0  0  0  0  0  0  0  0  0
  194.3860  171.6140  144.4720 O   0  0  0  0  0  0  0  0  0  0  0  0
  194.5660  170.6540  145.4690 C   0  0  0  0  0  1  0  0  0  0  0  0
  1 14  1  0  0  0  0
  2 19  1  0  0  0  0
  4 17  1  0  0  0  0
  5  6  1  0  0  0  0
  7 18  1  6  0  0  0
  7 12  1  0  0  0  0
  7  8  1  0  0  0  0
  8 10  1  0  0  0  0
 10  6  2  0  0  0  0
 12  5  1  1  0  0  0
 13 27  1  0  0  0  0
 13 15  2  0  0  0  0
 14 25  1  0  0  0  0
 16 25  1  6  0  0  0
 16 18  1  0  0  0  0
 17  2  1  0  0  0  0
 19 20  1  0  0  0  0
 20  3  2  0  0  0  0
 20  9  1  0  0  0  0
 21 28  1  0  0  0  0
 21 11  1  0  0  0  0
 22  4  1  0  0  0  0
 23 11  1  6  0  0  0
 23 15  1  0  0  0  0
 23  1  1  0  0  0  0
 24  9  1  0  0  0  0
 24 12  1  0  0  0  0
 26 22  3  0  0  0  0
 27 26  1  0  0  0  0
 28 13  1  0  0  0  0
 30 33  1  0  0  0  0
 32 31  1  0  0  0  0
 32 30  2  0  0  0  0
 33 29  2  0  0  0  0
 34 31  1  6  0  0  0
 34 16  1  0  0  0  0
 34 29  1  0  0  0  0
 35 37  1  6  0  0  0
 35 30  1  0  0  0  0
 36 35  2  0  0  0  0
 38  4  1  0  0  0  0
 38 40  1  0  0  0  0
 40 39  2  0  0  0  0
 40 42  1  0  0  0  0
 41 40  2  0  0  0  0
 42 43  1  6  0  0  0
 42 45  1  0  0  0  0
 45 44  1  6  0  0  0
 45 51  1  0  0  0  0
 46 50  1  0  0  0  0
 46 48  1  0  0  0  0
 49 54  1  6  0  0  0
 49 52  1  0  0  0  0
 51 47  1  1  0  0  0
 51 53  1  0  0  0  0
 51 49  1  0  0  0  0
 52 50  1  0  0  0  0
 53 46  2  0  0  0  0
 54 55  1  0  0  0  0
M  END
>  <MODEL>
5

>  <REMARK>
 VINA RESULT:      -5.7      3.316      5.703
  Name = 
  8 active torsions:
  status: ('A' for Active; 'I' for Inactive)
    1  A    between atoms: C_6  and  C_14
    2  A    between atoms: C_6  and  S_20
    3  A    between atoms: N_8  and  N_22
    4  A    between atoms: S_10  and  C_32
    5  A    between atoms: O_11  and  C_29
    6  A    between atoms: C_14  and  C_38
    7  A    between atoms: S_20  and  N_22
    8  A    between atoms: C_33  and  C_52
                            x       y       z     vdW  Elec       q    Type
                         _______ _______ _______ _____ _____    ______ ____

>  <TORSDO>
F 8

$$$$
=
 OpenBabel11052419333D

 55 59  0  0  1  0  0  0  0  0999 V2000
  187.6710  174.6310  141.7900 C   0  0  0  0  0  2  0  0  0  0  0  0
  192.7150  174.3950  145.9560 C   0  0  0  0  0  2  0  0  0  0  0  0
  190.7020  175.0430  147.8410 O   0  0  0  0  0  0  0  0  0  0  0  0
  194.0220  173.0700  144.3730 N   0  0  0  0  0  0  0  0  0  0  0  0
  187.6740  178.1820  148.3100 C   0  0  0  0  0  2  0  0  0  0  0  0
  186.7670  179.3470  148.5920 C   0  0  0  0  0  3  0  0  0  0  0  0
  186.7880  178.1190  145.9840 C   0  0  2  0  0  3  0  0  0  0  0  0
  185.9440  179.2590  146.3360 N   0  0  0  0  0  2  0  0  0  0  0  0
  190.2210  177.1860  146.9230 C   0  0  0  0  0  2  0  0  0  0  0  0
  185.9410  179.8180  147.6560 C   0  0  0  0  0  3  0  0  0  0  0  0
  189.1880  174.1660  139.8420 C   0  0  0  0  0  2  0  0  0  0  0  0
  188.0670  178.1260  146.8290 C   0  0  2  0  0  3  0  0  0  0  0  0
  190.2580  172.2280  141.5950 C   0  0  0  0  0  0  0  0  0  0  0  0
  187.6050  174.9850  143.1440 O   0  0  0  0  0  0  0  0  0  0  0  0
  189.7940  173.3600  142.1540 C   0  0  0  0  0  3  0  0  0  0  0  0
  186.6350  176.9660  144.0880 C   0  0  2  0  0  3  0  0  0  0  0  0
  193.7360  174.4210  144.8330 C   0  0  0  0  0  2  0  0  0  0  0  0
  187.0970  178.1750  144.6200 O   0  0  0  0  0  0  0  0  0  0  0  0
  192.0200  175.6690  146.0170 N   0  0  0  0  0  2  0  0  0  0  0  0
  190.9840  175.9080  146.9680 C   0  0  0  0  0  0  0  0  0  0  0  0
  188.9970  172.7430  139.5670 N   0  0  0  0  0  2  0  0  0  0  0  0
  193.0070  172.3770  143.6950 C   0  0  0  0  0  0  0  0  0  0  0  0
  189.1180  174.4410  141.3490 C   0  0  2  0  0  3  0  0  0  0  0  0
  188.8350  176.9150  146.5730 N   0  0  0  0  0  2  0  0  0  0  0  0
  187.7030  176.3800  143.1720 C   0  0  0  0  0  2  0  0  0  0  0  0
  192.1080  171.8160  143.1190 C   0  0  0  0  0  0  0  0  0  0  0  0
  190.9670  171.2050  142.4290 C   0  0  0  0  0  2  0  0  0  0  0  0
  190.1500  172.0220  140.1080 C   0  0  0  0  0  2  0  0  0  0  0  0
  185.5030  177.4560  141.8950 C   0  0  0  0  0  3  0  0  0  0  0  0
  183.3120  178.5320  141.8380 C   0  0  0  0  0  0  0  0  0  0  0  0
  184.4350  178.2680  144.0250 C   0  0  0  0  0  2  0  0  0  0  0  0
  183.2360  178.5890  143.1750 C   0  0  0  0  0  3  0  0  0  0  0  0
  184.5460  178.0580  141.1830 C   0  0  0  0  0  3  0  0  0  0  0  0
  185.3010  177.1840  143.3640 C   0  0  2  0  0  3  0  0  0  0  0  0
  181.9200  179.0030  140.8410 S   0  0  2  0  0  0  0  0  0  0  0  0
  180.7660  179.0890  141.8310 O   0  0  0  0  0  0  0  0  0  0  0  0
  181.5550  177.5430  139.8530 C   0  0  0  0  0  1  0  0  0  0  0  0
  195.3610  172.6760  144.2220 N   0  0  0  0  0  2  0  0  0  0  0  0
  195.1220  174.6300  142.4380 O   0  0  0  0  0  0  0  0  0  0  0  0
  196.1110  173.6390  142.9860 S   0  0  0  0  0  0  0  0  0  0  0  0
  197.2510  174.3890  143.6170 O   0  0  0  0  0  0  0  0  0  0  0  0
  196.7350  172.5950  141.6630 C   0  0  1  0  0  3  0  0  0  0  0  0
  197.2840  171.2840  142.1940 C   0  0  0  0  0  1  0  0  0  0  0  0
  194.9690  171.0820  140.6990 C   0  0  0  0  0  1  0  0  0  0  0  0
  195.7620  172.3660  140.4910 C   0  0  2  0  0  3  0  0  0  0  0  0
  194.5600  172.4650  137.3330 C   0  0  0  0  0  0  0  0  0  0  0  0
  197.5880  171.9980  138.9510 O   0  0  0  0  0  1  0  0  0  0  0  0
  193.7280  171.6700  136.3940 C   0  0  0  0  0  1  0  0  0  0  0  0
  196.4360  174.0490  138.6800 C   0  0  1  0  0  3  0  0  0  0  0  0
  194.4080  173.8550  137.3800 O   0  0  0  0  0  0  0  0  0  0  0  0
  196.3080  172.5510  139.0420 C   0  0  2  0  0  0  0  0  0  0  0  0
  195.0690  174.6460  138.3630 C   0  0  0  0  0  2  0  0  0  0  0  0
  195.4430  171.8640  138.0740 N   0  0  0  0  0  0  0  0  0  0  0  0
  197.0560  174.7720  139.7030 O   0  0  0  0  0  0  0  0  0  0  0  0
  197.9380  175.6340  139.0500 C   0  0  0  0  0  1  0  0  0  0  0  0
  1 14  1  0  0  0  0
  2 19  1  0  0  0  0
  4 17  1  0  0  0  0
  5  6  1  0  0  0  0
  7 18  1  6  0  0  0
  7  8  1  0  0  0  0
  7 12  1  0  0  0  0
  8 10  1  0  0  0  0
  9 20  1  0  0  0  0
 10  6  2  0  0  0  0
 12  5  1  1  0  0  0
 13 15  2  0  0  0  0
 13 27  1  0  0  0  0
 14 25  1  0  0  0  0
 16 25  1  6  0  0  0
 16 18  1  0  0  0  0
 17  2  1  0  0  0  0
 19 20  1  0  0  0  0
 20  3  2  0  0  0  0
 21 11  1  0  0  0  0
 21 28  1  0  0  0  0
 22  4  1  0  0  0  0
 23 11  1  6  0  0  0
 23  1  1  0  0  0  0
 23 15  1  0  0  0  0
 24 12  1  0  0  0  0
 24  9  1  0  0  0  0
 26 22  3  0  0  0  0
 27 26  1  0  0  0  0
 28 13  1  0  0  0  0
 30 32  2  0  0  0  0
 32 31  1  0  0  0  0
 33 30  1  0  0  0  0
 33 29  2  0  0  0  0
 34 29  1  6  0  0  0
 34 31  1  0  0  0  0
 34 16  1  0  0  0  0
 35 37  1  6  0  0  0
 35 36  2  0  0  0  0
 35 30  1  0  0  0  0
 38  4  1  0  0  0  0
 39 40  2  0  0  0  0
 40 41  2  0  0  0  0
 40 38  1  0  0  0  0
 42 43  1  1  0  0  0
 42 40  1  0  0  0  0
 45 44  1  6  0  0  0
 45 42  1  0  0  0  0
 46 50  1  0  0  0  0
 46 53  2  0  0  0  0
 48 46  1  0  0  0  0
 49 51  1  0  0  0  0
 49 54  1  1  0  0  0
 50 52  1  0  0  0  0
 51 47  1  6  0  0  0
 51 45  1  0  0  0  0
 52 49  1  0  0  0  0
 53 51  1  0  0  0  0
 55 54  1  0  0  0  0
M  END
>  <MODEL>
6

>  <REMARK>
 VINA RESULT:      -5.7      2.499      4.131
  Name = 
  8 active torsions:
  status: ('A' for Active; 'I' for Inactive)
    1  A    between atoms: C_6  and  C_14
    2  A    between atoms: C_6  and  S_20
    3  A    between atoms: N_8  and  N_22
    4  A    between atoms: S_10  and  C_32
    5  A    between atoms: O_11  and  C_29
    6  A    between atoms: C_14  and  C_38
    7  A    between atoms: S_20  and  N_22
    8  A    between atoms: C_33  and  C_52
                            x       y       z     vdW  Elec       q    Type
                         _______ _______ _______ _____ _____    ______ ____

>  <TORSDO>
F 8

$$$$
=
 OpenBabel11052419333D

 55 59  0  0  1  0  0  0  0  0999 V2000
  187.2300  174.8440  141.3970 C   0  0  0  0  0  2  0  0  0  0  0  0
  192.5690  174.5280  145.1720 C   0  0  0  0  0  2  0  0  0  0  0  0
  190.6910  175.0700  147.2230 O   0  0  0  0  0  0  0  0  0  0  0  0
  193.7730  173.2870  143.4470 N   0  0  0  0  0  0  0  0  0  0  0  0
  187.6640  178.1400  148.0350 C   0  0  0  0  0  2  0  0  0  0  0  0
  186.7650  179.2780  148.4290 C   0  0  0  0  0  3  0  0  0  0  0  0
  186.6100  178.1520  145.7800 C   0  0  2  0  0  3  0  0  0  0  0  0
  185.7800  179.2640  146.2370 N   0  0  0  0  0  2  0  0  0  0  0  0
  190.1150  177.2390  146.4280 C   0  0  0  0  0  2  0  0  0  0  0  0
  185.8660  179.7710  147.5750 C   0  0  0  0  0  3  0  0  0  0  0  0
  188.6060  174.4790  139.3270 C   0  0  0  0  0  2  0  0  0  0  0  0
  187.9470  178.1470  146.5290 C   0  0  2  0  0  3  0  0  0  0  0  0
  189.8270  172.4930  140.9190 C   0  0  0  0  0  0  0  0  0  0  0  0
  187.2590  175.1440  142.7660 O   0  0  0  0  0  0  0  0  0  0  0  0
  189.3910  173.5940  141.5550 C   0  0  0  0  0  3  0  0  0  0  0  0
  186.3340  177.0710  143.8550 C   0  0  2  0  0  3  0  0  0  0  0  0
  193.5040  174.6140  143.9810 C   0  0  0  0  0  2  0  0  0  0  0  0
  186.8180  178.2660  144.4000 O   0  0  0  0  0  0  0  0  0  0  0  0
  191.8630  175.7870  145.3350 N   0  0  0  0  0  2  0  0  0  0  0  0
  190.8960  175.9730  146.3680 C   0  0  0  0  0  0  0  0  0  0  0  0
  188.4150  173.0650  139.0110 N   0  0  0  0  0  2  0  0  0  0  0  0
  192.7210  172.6040  142.8180 C   0  0  0  0  0  0  0  0  0  0  0  0
  188.6430  174.6950  140.8450 C   0  0  2  0  0  3  0  0  0  0  0  0
  188.7110  176.9600  146.1700 N   0  0  0  0  0  2  0  0  0  0  0  0
  187.3400  176.5380  142.8420 C   0  0  0  0  0  2  0  0  0  0  0  0
  191.7900  172.0520  142.2880 C   0  0  0  0  0  0  0  0  0  0  0  0
  190.6100  171.4490  141.6580 C   0  0  0  0  0  2  0  0  0  0  0  0
  189.6140  172.3420  139.4370 C   0  0  0  0  0  2  0  0  0  0  0  0
  185.0350  177.5860  141.7630 C   0  0  0  0  0  3  0  0  0  0  0  0
  182.8450  178.6580  141.8900 C   0  0  0  0  0  0  0  0  0  0  0  0
  184.1340  178.3690  143.9790 C   0  0  0  0  0  2  0  0  0  0  0  0
  182.8730  178.6980  143.2280 C   0  0  0  0  0  3  0  0  0  0  0  0
  184.0260  178.1950  141.1350 C   0  0  0  0  0  3  0  0  0  0  0  0
  184.9480  177.2950  143.2390 C   0  0  2  0  0  3  0  0  0  0  0  0
  181.3800  179.1390  141.0090 S   0  0  2  0  0  0  0  0  0  0  0  0
  180.3430  179.3540  142.1030 O   0  0  0  0  0  0  0  0  0  0  0  0
  180.8430  177.6390  140.1700 C   0  0  0  0  0  1  0  0  0  0  0  0
  195.1030  172.9210  143.1840 N   0  0  0  0  0  2  0  0  0  0  0  0
  196.9250  172.2160  144.9840 O   0  0  0  0  0  0  0  0  0  0  0  0
  195.6290  171.7650  144.3700 S   0  0  0  0  0  0  0  0  0  0  0  0
  194.5800  171.6990  145.4440 O   0  0  0  0  0  0  0  0  0  0  0  0
  195.8320  170.1430  143.6250 C   0  0  1  0  0  3  0  0  0  0  0  0
  196.1530  169.0830  144.6620 C   0  0  0  0  0  1  0  0  0  0  0  0
  193.6760  168.8530  143.4680 C   0  0  0  0  0  1  0  0  0  0  0  0
  194.6830  169.6970  142.6990 C   0  0  2  0  0  3  0  0  0  0  0  0
  193.1430  168.9530  139.7830 C   0  0  0  0  0  0  0  0  0  0  0  0
  196.0960  168.2000  141.4310 O   0  0  0  0  0  1  0  0  0  0  0  0
  191.9960  168.1700  139.2560 C   0  0  0  0  0  1  0  0  0  0  0  0
  195.5630  170.2400  140.3540 C   0  0  1  0  0  3  0  0  0  0  0  0
  193.4090  170.2230  139.2600 O   0  0  0  0  0  0  0  0  0  0  0  0
  195.0570  169.1240  141.2970 C   0  0  2  0  0  0  0  0  0  0  0  0
  194.3990  171.0740  139.8300 C   0  0  0  0  0  2  0  0  0  0  0  0
  193.9060  168.4350  140.6990 N   0  0  0  0  0  0  0  0  0  0  0  0
  196.5000  171.0620  140.9890 O   0  0  0  0  0  0  0  0  0  0  0  0
  196.6630  172.1500  140.1310 C   0  0  0  0  0  1  0  0  0  0  0  0
  1 14  1  0  0  0  0
  2 19  1  0  0  0  0
  4 17  1  0  0  0  0
  5  6  1  0  0  0  0
  7 18  1  6  0  0  0
  7  8  1  0  0  0  0
  7 12  1  0  0  0  0
  8 10  1  0  0  0  0
 10  6  2  0  0  0  0
 12  5  1  1  0  0  0
 13 15  2  0  0  0  0
 13 27  1  0  0  0  0
 14 25  1  0  0  0  0
 16 25  1  6  0  0  0
 16 18  1  0  0  0  0
 17  2  1  0  0  0  0
 19 20  1  0  0  0  0
 20  9  1  0  0  0  0
 20  3  2  0  0  0  0
 21 11  1  0  0  0  0
 21 28  1  0  0  0  0
 22  4  1  0  0  0  0
 23 11  1  6  0  0  0
 23  1  1  0  0  0  0
 23 15  1  0  0  0  0
 24  9  1  0  0  0  0
 24 12  1  0  0  0  0
 26 22  3  0  0  0  0
 27 26  1  0  0  0  0
 28 13  1  0  0  0  0
 30 32  2  0  0  0  0
 32 31  1  0  0  0  0
 33 29  2  0  0  0  0
 33 30  1  0  0  0  0
 34 29  1  6  0  0  0
 34 16  1  0  0  0  0
 34 31  1  0  0  0  0
 35 37  1  6  0  0  0
 35 30  1  0  0  0  0
 35 36  2  0  0  0  0
 38  4  1  0  0  0  0
 38 40  1  0  0  0  0
 40 39  2  0  0  0  0
 40 41  2  0  0  0  0
 42 40  1  0  0  0  0
 42 43  1  1  0  0  0
 45 44  1  1  0  0  0
 45 42  1  0  0  0  0
 46 53  2  0  0  0  0
 48 46  1  0  0  0  0
 49 54  1  1  0  0  0
 49 51  1  0  0  0  0
 50 46  1  0  0  0  0
 50 52  1  0  0  0  0
 51 47  1  1  0  0  0
 51 45  1  0  0  0  0
 52 49  1  0  0  0  0
 53 51  1  0  0  0  0
 55 54  1  0  0  0  0
M  END
>  <MODEL>
7

>  <REMARK>
 VINA RESULT:      -5.6      3.070      5.139
  Name = 
  8 active torsions:
  status: ('A' for Active; 'I' for Inactive)
    1  A    between atoms: C_6  and  C_14
    2  A    between atoms: C_6  and  S_20
    3  A    between atoms: N_8  and  N_22
    4  A    between atoms: S_10  and  C_32
    5  A    between atoms: O_11  and  C_29
    6  A    between atoms: C_14  and  C_38
    7  A    between atoms: S_20  and  N_22
    8  A    between atoms: C_33  and  C_52
                            x       y       z     vdW  Elec       q    Type
                         _______ _______ _______ _____ _____    ______ ____

>  <TORSDO>
F 8

$$$$
=
 OpenBabel11052419333D

 55 59  0  0  1  0  0  0  0  0999 V2000
  188.0330  174.3800  141.8100 C   0  0  0  0  0  2  0  0  0  0  0  0
  192.7840  174.3160  146.3120 C   0  0  0  0  0  2  0  0  0  0  0  0
  190.6450  175.0070  148.0350 O   0  0  0  0  0  0  0  0  0  0  0  0
  194.2030  172.9530  144.8640 N   0  0  0  0  0  0  0  0  0  0  0  0
  187.5730  178.1350  148.1980 C   0  0  0  0  0  2  0  0  0  0  0  0
  186.6420  179.3010  148.3810 C   0  0  0  0  0  3  0  0  0  0  0  0
  186.8470  177.9910  145.8210 C   0  0  2  0  0  3  0  0  0  0  0  0
  185.9740  179.1350  146.0790 N   0  0  0  0  0  2  0  0  0  0  0  0
  190.2140  177.1160  147.0180 C   0  0  0  0  0  2  0  0  0  0  0  0
  185.8790  179.7350  147.3770 C   0  0  0  0  0  3  0  0  0  0  0  0
  189.6810  173.8670  139.9840 C   0  0  0  0  0  2  0  0  0  0  0  0
  188.0650  178.0350  146.7500 C   0  0  2  0  0  3  0  0  0  0  0  0
  190.6410  171.9940  141.8670 C   0  0  0  0  0  0  0  0  0  0  0  0
  187.8730  174.7760  143.1440 O   0  0  0  0  0  0  0  0  0  0  0  0
  190.1340  173.1390  142.3570 C   0  0  0  0  0  3  0  0  0  0  0  0
  186.8290  176.7780  143.9560 C   0  0  2  0  0  3  0  0  0  0  0  0
  193.8790  174.3150  145.2610 C   0  0  0  0  0  2  0  0  0  0  0  0
  187.2470  178.0070  144.4800 O   0  0  0  0  0  0  0  0  0  0  0  0
  192.0790  175.5860  146.2860 N   0  0  0  0  0  2  0  0  0  0  0  0
  190.9800  175.8470  147.1570 C   0  0  0  0  0  0  0  0  0  0  0  0
  189.5180  172.4340  139.7430 N   0  0  0  0  0  2  0  0  0  0  0  0
  193.2410  172.2300  144.1420 C   0  0  0  0  0  0  0  0  0  0  0  0
  189.5070  174.1880  141.4730 C   0  0  2  0  0  3  0  0  0  0  0  0
  188.8560  176.8230  146.5850 N   0  0  0  0  0  2  0  0  0  0  0  0
  187.9600  176.1720  143.1350 C   0  0  0  0  0  2  0  0  0  0  0  0
  192.3870  171.6450  143.5250 C   0  0  0  0  0  0  0  0  0  0  0  0
  191.2990  171.0030  142.7790 C   0  0  0  0  0  2  0  0  0  0  0  0
  190.6350  171.7400  140.3830 C   0  0  0  0  0  2  0  0  0  0  0  0
  185.8470  177.3270  141.7070 C   0  0  0  0  0  3  0  0  0  0  0  0
  183.6070  178.2820  141.5260 C   0  0  0  0  0  0  0  0  0  0  0  0
  184.5670  177.9570  143.7800 C   0  0  0  0  0  2  0  0  0  0  0  0
  183.4220  178.2590  142.8520 C   0  0  0  0  0  3  0  0  0  0  0  0
  184.9150  177.9150  140.9500 C   0  0  0  0  0  3  0  0  0  0  0  0
  185.5460  176.9620  143.1370 C   0  0  2  0  0  3  0  0  0  0  0  0
  182.2720  178.7300  140.4430 S   0  0  2  0  0  0  0  0  0  0  0  0
  181.8750  180.1270  140.9010 O   0  0  0  0  0  0  0  0  0  0  0  0
  180.9010  177.6830  140.9550 C   0  0  0  0  0  1  0  0  0  0  0  0
  195.5510  172.5650  144.8170 N   0  0  0  0  0  2  0  0  0  0  0  0
  196.0400  175.1390  145.2590 O   0  0  0  0  0  0  0  0  0  0  0  0
  196.5410  173.9540  144.4820 S   0  0  0  0  0  0  0  0  0  0  0  0
  197.9410  173.6380  144.9270 O   0  0  0  0  0  0  0  0  0  0  0  0
  196.5360  174.3230  142.7230 C   0  0  1  0  0  3  0  0  0  0  0  0
  197.9400  174.5340  142.1890 C   0  0  0  0  0  1  0  0  0  0  0  0
  196.6840  172.3810  141.1290 C   0  0  0  0  0  1  0  0  0  0  0  0
  195.7400  173.3370  141.8470 C   0  0  2  0  0  3  0  0  0  0  0  0
  193.5120  175.8790  141.9030 C   0  0  0  0  0  0  0  0  0  0  0  0
  193.9870  172.8730  140.2480 O   0  0  0  0  0  1  0  0  0  0  0  0
  192.4480  176.4570  142.7640 C   0  0  0  0  0  1  0  0  0  0  0  0
  195.1790  174.8860  139.8840 C   0  0  1  0  0  3  0  0  0  0  0  0
  194.3930  176.7320  141.2300 O   0  0  0  0  0  0  0  0  0  0  0  0
  194.6070  173.9140  140.9420 C   0  0  2  0  0  0  0  0  0  0  0  0
  195.5190  176.2330  140.5150 C   0  0  0  0  0  2  0  0  0  0  0  0
  193.5910  174.5900  141.7590 N   0  0  0  0  0  0  0  0  0  0  0  0
  196.3040  174.3500  139.2500 O   0  0  0  0  0  0  0  0  0  0  0  0
  196.2720  174.8750  137.9580 C   0  0  0  0  0  1  0  0  0  0  0  0
  1 14  1  0  0  0  0
  4 17  1  0  0  0  0
  5  6  1  0  0  0  0
  7 18  1  6  0  0  0
  7  8  1  0  0  0  0
  7 12  1  0  0  0  0
  8 10  1  0  0  0  0
  9 20  1  0  0  0  0
 10  6  2  0  0  0  0
 12  5  1  1  0  0  0
 13 15  2  0  0  0  0
 13 27  1  0  0  0  0
 16 25  1  6  0  0  0
 16 18  1  0  0  0  0
 17  2  1  0  0  0  0
 19  2  1  0  0  0  0
 19 20  1  0  0  0  0
 20  3  2  0  0  0  0
 21 11  1  0  0  0  0
 21 28  1  0  0  0  0
 22  4  1  0  0  0  0
 23 11  1  6  0  0  0
 23  1  1  0  0  0  0
 23 15  1  0  0  0  0
 24 12  1  0  0  0  0
 24  9  1  0  0  0  0
 25 14  1  0  0  0  0
 26 22  3  0  0  0  0
 27 26  1  0  0  0  0
 28 13  1  0  0  0  0
 30 32  2  0  0  0  0
 32 31  1  0  0  0  0
 33 30  1  0  0  0  0
 33 29  2  0  0  0  0
 34 29  1  6  0  0  0
 34 31  1  0  0  0  0
 34 16  1  0  0  0  0
 35 36  2  0  0  0  0
 35 37  1  1  0  0  0
 35 30  1  0  0  0  0
 38  4  1  0  0  0  0
 40 38  1  0  0  0  0
 40 41  2  0  0  0  0
 40 39  2  0  0  0  0
 42 43  1  6  0  0  0
 42 40  1  0  0  0  0
 45 44  1  6  0  0  0
 45 42  1  0  0  0  0
 46 48  1  0  0  0  0
 49 54  1  1  0  0  0
 49 52  1  0  0  0  0
 49 51  1  0  0  0  0
 50 46  1  0  0  0  0
 51 47  1  6  0  0  0
 51 53  1  0  0  0  0
 51 45  1  0  0  0  0
 52 50  1  0  0  0  0
 53 46  2  0  0  0  0
 55 54  1  0  0  0  0
M  END
>  <MODEL>
8

>  <REMARK>
 VINA RESULT:      -5.1      2.735      4.591
  Name = 
  8 active torsions:
  status: ('A' for Active; 'I' for Inactive)
    1  A    between atoms: C_6  and  C_14
    2  A    between atoms: C_6  and  S_20
    3  A    between atoms: N_8  and  N_22
    4  A    between atoms: S_10  and  C_32
    5  A    between atoms: O_11  and  C_29
    6  A    between atoms: C_14  and  C_38
    7  A    between atoms: S_20  and  N_22
    8  A    between atoms: C_33  and  C_52
                            x       y       z     vdW  Elec       q    Type
                         _______ _______ _______ _____ _____    ______ ____

>  <TORSDO>
F 8

$$$$
=
 OpenBabel11052419333D

 55 59  0  0  1  0  0  0  0  0999 V2000
  190.0040  175.7180  143.0520 C   0  0  0  0  0  2  0  0  0  0  0  0
  193.5420  172.8890  138.3270 C   0  0  0  0  0  2  0  0  0  0  0  0
  192.1120  174.7040  136.6880 O   0  0  0  0  0  0  0  0  0  0  0  0
  195.1660  172.0780  139.9620 N   0  0  0  0  0  0  0  0  0  0  0  0
  187.9000  175.6700  135.9330 C   0  0  0  0  0  2  0  0  0  0  0  0
  186.4720  175.8820  135.5140 C   0  0  0  0  0  3  0  0  0  0  0  0
  187.1690  175.7850  138.3100 C   0  0  2  0  0  3  0  0  0  0  0  0
  185.8050  175.9780  137.8200 N   0  0  0  0  0  2  0  0  0  0  0  0
  189.9760  173.7370  137.0980 C   0  0  0  0  0  2  0  0  0  0  0  0
  185.5080  176.0530  136.4200 C   0  0  0  0  0  3  0  0  0  0  0  0
  190.9980  174.1930  144.7840 C   0  0  0  0  0  2  0  0  0  0  0  0
  187.9850  174.9750  137.2960 C   0  0  2  0  0  3  0  0  0  0  0  0
  193.3990  174.8060  143.4310 C   0  0  0  0  0  0  0  0  0  0  0  0
  189.8430  175.9610  141.6810 O   0  0  0  0  0  0  0  0  0  0  0  0
  192.2810  174.7520  142.6850 C   0  0  0  0  0  3  0  0  0  0  0  0
  187.7930  175.9840  140.4350 C   0  0  2  0  0  3  0  0  0  0  0  0
  193.9560  171.7390  139.2260 C   0  0  0  0  0  2  0  0  0  0  0  0
  187.1290  175.1310  139.5460 O   0  0  0  0  0  0  0  0  0  0  0  0
  192.1170  172.8120  138.0570 N   0  0  0  0  0  2  0  0  0  0  0  0
  191.4550  173.7900  137.2560 C   0  0  0  0  0  0  0  0  0  0  0  0
  192.0220  175.0070  145.4370 N   0  0  0  0  0  2  0  0  0  0  0  0
  195.0800  173.0740  140.9470 C   0  0  0  0  0  0  0  0  0  0  0  0
  190.9180  174.5210  143.2880 C   0  0  2  0  0  3  0  0  0  0  0  0
  189.3750  174.9060  137.7230 N   0  0  0  0  0  2  0  0  0  0  0  0
  188.7610  175.1690  141.2850 C   0  0  0  0  0  2  0  0  0  0  0  0
  194.9630  173.9340  141.7830 C   0  0  0  0  0  0  0  0  0  0  0  0
  194.7380  174.9870  142.7800 C   0  0  0  0  0  2  0  0  0  0  0  0
  193.3250  174.5920  144.9190 C   0  0  0  0  0  2  0  0  0  0  0  0
  187.2230  178.1720  141.5380 C   0  0  0  0  0  3  0  0  0  0  0  0
  185.7630  178.2380  143.4930 C   0  0  0  0  0  0  0  0  0  0  0  0
  186.4260  176.0320  142.5950 C   0  0  0  0  0  2  0  0  0  0  0  0
  185.5880  176.9100  143.4850 C   0  0  0  0  0  3  0  0  0  0  0  0
  186.7130  178.8690  142.5570 C   0  0  0  0  0  3  0  0  0  0  0  0
  186.7770  176.7550  141.2850 C   0  0  2  0  0  3  0  0  0  0  0  0
  184.8350  179.2570  144.6130 S   0  0  2  0  0  0  0  0  0  0  0  0
  185.2220  180.6790  144.2300 O   0  0  0  0  0  0  0  0  0  0  0  0
  185.6130  178.9950  146.2150 C   0  0  0  0  0  1  0  0  0  0  0  0
  196.2210  171.1540  139.9900 N   0  0  0  0  0  2  0  0  0  0  0  0
  194.0840  169.6100  140.3220 O   0  0  0  0  0  0  0  0  0  0  0  0
  195.5820  169.5530  140.2100 S   0  0  0  0  0  0  0  0  0  0  0  0
  195.9480  168.7420  138.9980 O   0  0  0  0  0  0  0  0  0  0  0  0
  196.2820  168.7900  141.6790 C   0  0  1  0  0  3  0  0  0  0  0  0
  197.7370  168.4090  141.4760 C   0  0  0  0  0  1  0  0  0  0  0  0
  197.4220  169.8410  143.6620 C   0  0  0  0  0  1  0  0  0  0  0  0
  196.0820  169.5780  142.9880 C   0  0  2  0  0  3  0  0  0  0  0  0
  195.6800  169.0260  146.2980 C   0  0  0  0  0  0  0  0  0  0  0  0
  194.1400  168.1760  143.3140 O   0  0  0  0  0  1  0  0  0  0  0  0
  196.2970  168.2750  147.4220 C   0  0  0  0  0  1  0  0  0  0  0  0
  194.0570  170.2820  144.3930 C   0  0  1  0  0  3  0  0  0  0  0  0
  195.2180  170.3290  146.5110 O   0  0  0  0  0  0  0  0  0  0  0  0
  194.9600  169.1020  143.9620 C   0  0  2  0  0  0  0  0  0  0  0  0
  194.7580  171.1440  145.4380 C   0  0  0  0  0  2  0  0  0  0  0  0
  195.5450  168.4500  145.1400 N   0  0  0  0  0  0  0  0  0  0  0  0
  193.6760  171.0620  143.2970 O   0  0  0  0  0  0  0  0  0  0  0  0
  192.2810  171.0590  143.3230 C   0  0  0  0  0  1  0  0  0  0  0  0
  1 23  1  0  0  0  0
  2 17  1  0  0  0  0
  3 20  2  0  0  0  0
  4 38  1  0  0  0  0
  4 22  1  0  0  0  0
  6  5  1  0  0  0  0
  6 10  2  0  0  0  0
  7  8  1  6  0  0  0
  7 18  1  0  0  0  0
  9 20  1  0  0  0  0
  9 24  1  0  0  0  0
 10  8  1  0  0  0  0
 11 21  1  0  0  0  0
 12  5  1  6  0  0  0
 12 24  1  0  0  0  0
 12  7  1  0  0  0  0
 13 28  1  0  0  0  0
 14  1  1  0  0  0  0
 15 13  2  0  0  0  0
 16 34  1  0  0  0  0
 16 25  1  1  0  0  0
 17  4  1  0  0  0  0
 18 16  1  0  0  0  0
 19  2  1  0  0  0  0
 20 19  1  0  0  0  0
 22 26  3  0  0  0  0
 23 15  1  1  0  0  0
 23 11  1  0  0  0  0
 25 14  1  0  0  0  0
 26 27  1  0  0  0  0
 27 13  1  0  0  0  0
 28 21  1  0  0  0  0
 29 33  2  0  0  0  0
 30 35  1  0  0  0  0
 31 32  1  0  0  0  0
 32 30  2  0  0  0  0
 33 30  1  0  0  0  0
 34 29  1  1  0  0  0
 34 31  1  0  0  0  0
 35 37  1  1  0  0  0
 36 35  2  0  0  0  0
 38 40  1  0  0  0  0
 40 39  2  0  0  0  0
 40 42  1  0  0  0  0
 41 40  2  0  0  0  0
 42 43  1  6  0  0  0
 42 45  1  0  0  0  0
 45 44  1  1  0  0  0
 45 51  1  0  0  0  0
 46 50  1  0  0  0  0
 46 48  1  0  0  0  0
 49 54  1  6  0  0  0
 49 52  1  0  0  0  0
 51 47  1  6  0  0  0
 51 49  1  0  0  0  0
 51 53  1  0  0  0  0
 52 50  1  0  0  0  0
 53 46  2  0  0  0  0
 54 55  1  0  0  0  0
M  END
>  <MODEL>
9

>  <REMARK>
 VINA RESULT:      -5.0      2.765      7.110
  Name = 
  8 active torsions:
  status: ('A' for Active; 'I' for Inactive)
    1  A    between atoms: C_6  and  C_14
    2  A    between atoms: C_6  and  S_20
    3  A    between atoms: N_8  and  N_22
    4  A    between atoms: S_10  and  C_32
    5  A    between atoms: O_11  and  C_29
    6  A    between atoms: C_14  and  C_38
    7  A    between atoms: S_20  and  N_22
    8  A    between atoms: C_33  and  C_52
                            x       y       z     vdW  Elec       q    Type
                         _______ _______ _______ _____ _____    ______ ____

>  <TORSDO>
F 8

$$$$
