=
 OpenBabel11052420003D

 37 40  0  0  1  0  0  0  0  0999 V2000
  189.6170  175.3120  142.2590 C   0  0  2  0  0  3  0  0  0  0  0  0
  189.2960  177.4950  145.0450 C   0  0  0  0  0  2  0  0  0  0  0  0
  190.8980  174.7960  141.6530 C   0  0  1  0  0  3  0  0  0  0  0  0
  189.7420  175.6890  143.5840 O   0  0  0  0  0  0  0  0  0  0  0  0
  192.1650  175.2770  142.2480 N   0  0  0  0  0  0  0  0  0  0  0  0
  188.8510  176.7490  143.7820 C   0  0  1  0  0  3  0  0  0  0  0  0
  190.7000  173.2950  141.6800 C   0  0  0  0  0  2  0  0  0  0  0  0
  193.4030  174.9540  141.5760 C   0  0  0  0  0  0  0  0  0  0  0  0
  187.2900  174.4040  141.9940 C   0  0  0  0  0  2  0  0  0  0  0  0
  189.3180  173.0770  141.5250 O   0  0  0  0  0  0  0  0  0  0  0  0
  194.4360  175.6410  141.7950 O   0  0  0  0  0  0  0  0  0  0  0  0
  190.8140  177.7390  145.0950 C   0  0  0  0  0  2  0  0  0  0  0  0
  188.7480  174.0870  142.3120 C   0  0  1  0  0  3  0  0  0  0  0  0
  192.1580  176.3560  143.0880 O   0  0  0  0  0  0  0  0  0  0  0  0
  187.3880  176.2160  143.8880 C   0  0  2  0  0  3  0  0  0  0  0  0
  191.6580  176.5020  145.4950 C   0  0  2  0  0  3  0  0  0  0  0  0
  192.5250  175.8900  144.3660 C   0  0  2  0  0  3  0  0  0  0  0  0
  186.8300  175.7870  142.5100 C   0  0  0  0  0  2  0  0  0  0  0  0
  185.6750  176.8380  145.6010 C   0  0  0  0  0  3  0  0  0  0  0  0
  186.4510  177.2170  144.5010 C   0  0  0  0  0  0  0  0  0  0  0  0
  186.3440  178.5210  143.9910 C   0  0  0  0  0  3  0  0  0  0  0  0
  185.3640  180.6920  144.0880 F   0  0  0  0  0  0  0  0  0  0  0  0
  184.6920  179.0500  145.6810 C   0  0  0  0  0  3  0  0  0  0  0  0
  185.4650  179.4340  144.5820 C   0  0  0  0  0  0  0  0  0  0  0  0
  184.7960  177.7520  146.1910 C   0  0  0  0  0  3  0  0  0  0  0  0
  191.0420  174.1770  145.7780 O   0  0  0  0  0  1  0  0  0  0  0  0
  190.9150  175.4500  146.3380 C   0  0  1  0  0  3  0  0  0  0  0  0
  191.4640  175.4310  147.7560 C   0  0  0  0  0  2  0  0  0  0  0  0
  191.4780  176.8340  148.3280 C   0  0  0  0  0  1  0  0  0  0  0  0
  193.9860  176.2450  144.6240 C   0  0  0  0  0  2  0  0  0  0  0  0
  194.6520  175.2410  145.5480 C   0  0  2  0  0  3  0  0  0  0  0  0
  194.7750  175.7770  146.8160 F   0  0  0  0  0  0  0  0  0  0  0  0
  196.0310  174.9130  145.0140 C   0  0  0  0  0  1  0  0  0  0  0  0
  193.4870  173.8530  140.5690 C   0  0  0  0  0  2  0  0  0  0  0  0
  193.4130  174.3880  139.2830 O   0  0  0  0  0  0  0  0  0  0  0  0
  191.4800  173.8370  138.2110 O   0  0  0  0  0  1  0  0  0  0  0  0
  192.7670  173.4060  138.5330 C   0  0  0  0  0  2  0  0  0  0  0  0
  1 13  1  0  0  0  0
  1  4  1  1  0  0  0
  2 12  1  0  0  0  0
  3  7  1  1  0  0  0
  3  5  1  0  0  0  0
  3  1  1  0  0  0  0
  4  6  1  0  0  0  0
  5 14  1  0  0  0  0
  6 15  1  0  0  0  0
  6  2  1  1  0  0  0
  8 11  2  0  0  0  0
  8  5  1  0  0  0  0
  9 18  1  0  0  0  0
 10  7  1  0  0  0  0
 10 13  1  0  0  0  0
 12 16  1  0  0  0  0
 13  9  1  6  0  0  0
 14 17  1  0  0  0  0
 15 20  1  6  0  0  0
 16 27  1  6  0  0  0
 17 30  1  1  0  0  0
 17 16  1  0  0  0  0
 18 15  1  0  0  0  0
 19 25  1  0  0  0  0
 20 19  2  0  0  0  0
 21 20  1  0  0  0  0
 21 24  2  0  0  0  0
 22 24  1  0  0  0  0
 23 25  2  0  0  0  0
 24 23  1  0  0  0  0
 27 26  1  6  0  0  0
 27 28  1  0  0  0  0
 28 29  1  0  0  0  0
 30 31  1  0  0  0  0
 31 33  1  6  0  0  0
 31 32  1  0  0  0  0
 34  8  1  0  0  0  0
 35 34  1  0  0  0  0
 36 37  1  0  0  0  0
 37 35  1  0  0  0  0
M  END
>  <MODEL>
1

>  <REMARK>
 VINA RESULT:      -7.8      0.000      0.000
  Name = 
  8 active torsions:
  status: ('A' for Active; 'I' for Inactive)
    1  A    between atoms: C_1  and  C_5
    2  A    between atoms: C_1  and  C_36
    3  A    between atoms: O_3  and  C_30
    4  A    between atoms: O_3  and  C_32
    5  A    between atoms: C_6  and  C_31
    6  A    between atoms: C_11  and  C_26
    7  A    between atoms: C_20  and  C_30
    8  A    between atoms: C_26  and  C_33
                            x       y       z     vdW  Elec       q    Type
                         _______ _______ _______ _____ _____    ______ ____

>  <TORSDO>
F 8

$$$$
=
 OpenBabel11052420003D

 37 40  0  0  1  0  0  0  0  0999 V2000
  189.7120  175.1850  142.2000 C   0  0  2  0  0  3  0  0  0  0  0  0
  189.2920  177.5330  144.8340 C   0  0  0  0  0  2  0  0  0  0  0  0
  191.0120  174.6220  141.6840 C   0  0  1  0  0  3  0  0  0  0  0  0
  189.7820  175.6400  143.5050 O   0  0  0  0  0  0  0  0  0  0  0  0
  192.2570  175.1260  142.3060 N   0  0  0  0  0  0  0  0  0  0  0  0
  188.8950  176.7170  143.5990 C   0  0  1  0  0  3  0  0  0  0  0  0
  190.7960  173.1270  141.7910 C   0  0  0  0  0  2  0  0  0  0  0  0
  193.5200  174.7530  141.7120 C   0  0  0  0  0  0  0  0  0  0  0  0
  187.3880  174.2830  141.8850 C   0  0  0  0  0  2  0  0  0  0  0  0
  189.4200  172.9130  141.5880 O   0  0  0  0  0  0  0  0  0  0  0  0
  194.5500  175.4420  141.9350 O   0  0  0  0  0  0  0  0  0  0  0  0
  190.8100  177.7670  144.9380 C   0  0  0  0  0  2  0  0  0  0  0  0
  188.8270  173.9720  142.2860 C   0  0  1  0  0  3  0  0  0  0  0  0
  192.2250  176.2540  143.0790 O   0  0  0  0  0  0  0  0  0  0  0  0
  187.4230  176.2050  143.6690 C   0  0  2  0  0  3  0  0  0  0  0  0
  191.6210  176.5480  145.4490 C   0  0  2  0  0  3  0  0  0  0  0  0
  192.5300  175.8610  144.3990 C   0  0  2  0  0  3  0  0  0  0  0  0
  186.9220  175.6990  142.2960 C   0  0  0  0  0  2  0  0  0  0  0  0
  186.3860  178.4760  143.5120 C   0  0  0  0  0  3  0  0  0  0  0  0
  186.4720  177.2490  144.1790 C   0  0  0  0  0  0  0  0  0  0  0  0
  185.6700  177.0140  145.3080 C   0  0  0  0  0  3  0  0  0  0  0  0
  184.0180  177.7740  146.8490 F   0  0  0  0  0  0  0  0  0  0  0  0
  184.7090  179.2260  145.0900 C   0  0  0  0  0  3  0  0  0  0  0  0
  184.7900  178.0030  145.7600 C   0  0  0  0  0  0  0  0  0  0  0  0
  185.5070  179.4640  143.9660 C   0  0  0  0  0  3  0  0  0  0  0  0
  190.8730  174.2670  145.7780 O   0  0  0  0  0  1  0  0  0  0  0  0
  190.8280  175.5550  146.3180 C   0  0  1  0  0  3  0  0  0  0  0  0
  191.3930  175.5260  147.7300 C   0  0  0  0  0  2  0  0  0  0  0  0
  191.3920  176.9220  148.3190 C   0  0  0  0  0  1  0  0  0  0  0  0
  193.9810  176.2180  144.7000 C   0  0  0  0  0  2  0  0  0  0  0  0
  194.5950  175.2640  145.7100 C   0  0  2  0  0  3  0  0  0  0  0  0
  194.7150  175.8900  146.9370 F   0  0  0  0  0  0  0  0  0  0  0  0
  195.9700  174.8500  145.2300 C   0  0  0  0  0  1  0  0  0  0  0  0
  193.6360  173.5930  140.7760 C   0  0  0  0  0  2  0  0  0  0  0  0
  194.3340  173.9810  139.6330 O   0  0  0  0  0  0  0  0  0  0  0  0
  192.3900  173.3440  138.6300 O   0  0  0  0  0  1  0  0  0  0  0  0
  193.3420  174.3590  138.7290 C   0  0  0  0  0  2  0  0  0  0  0  0
  1 13  1  0  0  0  0
  1  4  1  1  0  0  0
  2 12  1  0  0  0  0
  3  7  1  1  0  0  0
  3  1  1  0  0  0  0
  3  5  1  0  0  0  0
  4  6  1  0  0  0  0
  5 14  1  0  0  0  0
  6 15  1  0  0  0  0
  6  2  1  1  0  0  0
  8 11  2  0  0  0  0
  8  5  1  0  0  0  0
  9 18  1  0  0  0  0
 10  7  1  0  0  0  0
 10 13  1  0  0  0  0
 12 16  1  0  0  0  0
 13  9  1  6  0  0  0
 14 17  1  0  0  0  0
 15 20  1  6  0  0  0
 16 27  1  6  0  0  0
 17 30  1  1  0  0  0
 17 16  1  0  0  0  0
 18 15  1  0  0  0  0
 19 25  2  0  0  0  0
 19 20  1  0  0  0  0
 20 21  2  0  0  0  0
 21 24  1  0  0  0  0
 23 24  2  0  0  0  0
 24 22  1  0  0  0  0
 25 23  1  0  0  0  0
 27 26  1  6  0  0  0
 27 28  1  0  0  0  0
 28 29  1  0  0  0  0
 30 31  1  0  0  0  0
 31 33  1  6  0  0  0
 31 32  1  0  0  0  0
 34  8  1  0  0  0  0
 35 34  1  0  0  0  0
 36 37  1  0  0  0  0
 37 35  1  0  0  0  0
M  END
>  <MODEL>
2

>  <REMARK>
 VINA RESULT:      -7.7      0.807      1.132
  Name = 
  8 active torsions:
  status: ('A' for Active; 'I' for Inactive)
    1  A    between atoms: C_1  and  C_5
    2  A    between atoms: C_1  and  C_36
    3  A    between atoms: O_3  and  C_30
    4  A    between atoms: O_3  and  C_32
    5  A    between atoms: C_6  and  C_31
    6  A    between atoms: C_11  and  C_26
    7  A    between atoms: C_20  and  C_30
    8  A    between atoms: C_26  and  C_33
                            x       y       z     vdW  Elec       q    Type
                         _______ _______ _______ _____ _____    ______ ____

>  <TORSDO>
F 8

$$$$
=
 OpenBabel11052420003D

 37 40  0  0  1  0  0  0  0  0999 V2000
  190.4010  175.8480  145.0060 C   0  0  2  0  0  3  0  0  0  0  0  0
  192.6100  173.7330  143.1950 C   0  0  0  0  0  2  0  0  0  0  0  0
  189.1420  176.4990  144.4920 C   0  0  1  0  0  3  0  0  0  0  0  0
  190.7650  174.7110  144.3050 O   0  0  0  0  0  0  0  0  0  0  0  0
  188.8010  176.2730  143.0690 N   0  0  0  0  0  0  0  0  0  0  0  0
  192.1630  174.6580  144.3330 C   0  0  1  0  0  3  0  0  0  0  0  0
  188.0970  176.0390  145.4860 C   0  0  0  0  0  2  0  0  0  0  0  0
  187.7130  177.0310  142.4970 C   0  0  0  0  0  0  0  0  0  0  0  0
  191.0990  175.4680  147.3900 C   0  0  0  0  0  2  0  0  0  0  0  0
  188.7620  175.8970  146.7180 O   0  0  0  0  0  0  0  0  0  0  0  0
  187.6350  177.1790  141.2490 O   0  0  0  0  0  0  0  0  0  0  0  0
  191.8700  174.0040  141.8730 C   0  0  0  0  0  2  0  0  0  0  0  0
  189.9880  175.3250  146.3540 C   0  0  1  0  0  3  0  0  0  0  0  0
  189.7410  175.7640  142.2150 O   0  0  0  0  0  0  0  0  0  0  0  0
  192.6610  174.1720  145.7290 C   0  0  2  0  0  3  0  0  0  0  0  0
  190.4290  173.4340  141.8080 C   0  0  2  0  0  3  0  0  0  0  0  0
  189.2920  174.4870  141.8200 C   0  0  2  0  0  3  0  0  0  0  0  0
  192.5170  175.2710  146.8070 C   0  0  0  0  0  2  0  0  0  0  0  0
  195.1170  174.6480  145.7110 C   0  0  0  0  0  3  0  0  0  0  0  0
  194.0870  173.7010  145.7020 C   0  0  0  0  0  0  0  0  0  0  0  0
  194.4010  172.3330  145.6690 C   0  0  0  0  0  3  0  0  0  0  0  0
  196.0370  170.6000  145.6140 F   0  0  0  0  0  0  0  0  0  0  0  0
  196.7620  172.8710  145.6560 C   0  0  0  0  0  3  0  0  0  0  0  0
  195.7370  171.9210  145.6460 C   0  0  0  0  0  0  0  0  0  0  0  0
  196.4530  174.2350  145.6880 C   0  0  0  0  0  3  0  0  0  0  0  0
  188.8410  172.2280  143.1820 O   0  0  0  0  0  1  0  0  0  0  0  0
  190.1610  172.2290  142.7270 C   0  0  1  0  0  3  0  0  0  0  0  0
  190.4370  170.9310  141.9850 C   0  0  0  0  0  2  0  0  0  0  0  0
  191.6750  170.2620  142.5470 C   0  0  0  0  0  1  0  0  0  0  0  0
  188.6970  174.5810  140.4190 C   0  0  0  0  0  2  0  0  0  0  0  0
  189.2700  173.5210  139.4940 C   0  0  2  0  0  3  0  0  0  0  0  0
  189.7950  174.1170  138.3630 F   0  0  0  0  0  0  0  0  0  0  0  0
  188.1660  172.5700  139.0850 C   0  0  0  0  0  1  0  0  0  0  0  0
  186.6900  177.7070  143.3530 C   0  0  0  0  0  2  0  0  0  0  0  0
  186.3390  178.9320  142.7840 O   0  0  0  0  0  0  0  0  0  0  0  0
  186.0580  179.2050  145.0280 O   0  0  0  0  0  1  0  0  0  0  0  0
  185.5840  179.5700  143.7680 C   0  0  0  0  0  2  0  0  0  0  0  0
  1  4  1  6  0  0  0
  1 13  1  0  0  0  0
  3  1  1  0  0  0  0
  3  7  1  1  0  0  0
  4  6  1  0  0  0  0
  5  3  1  0  0  0  0
  6  2  1  6  0  0  0
  6 15  1  0  0  0  0
  7 10  1  0  0  0  0
  8  5  1  0  0  0  0
  8 34  1  0  0  0  0
 11  8  2  0  0  0  0
 12  2  1  0  0  0  0
 13 10  1  0  0  0  0
 13  9  1  1  0  0  0
 14  5  1  0  0  0  0
 15 20  1  6  0  0  0
 15 18  1  0  0  0  0
 16 17  1  0  0  0  0
 16 12  1  0  0  0  0
 16 27  1  1  0  0  0
 17 30  1  6  0  0  0
 17 14  1  0  0  0  0
 18  9  1  0  0  0  0
 20 19  1  0  0  0  0
 21 20  2  0  0  0  0
 22 24  1  0  0  0  0
 23 25  1  0  0  0  0
 24 23  2  0  0  0  0
 24 21  1  0  0  0  0
 25 19  2  0  0  0  0
 27 26  1  6  0  0  0
 28 29  1  0  0  0  0
 28 27  1  0  0  0  0
 31 33  1  6  0  0  0
 31 30  1  0  0  0  0
 32 31  1  0  0  0  0
 35 34  1  0  0  0  0
 35 37  1  0  0  0  0
 37 36  1  0  0  0  0
M  END
>  <MODEL>
3

>  <REMARK>
 VINA RESULT:      -7.2      2.920      7.897
  Name = 
  8 active torsions:
  status: ('A' for Active; 'I' for Inactive)
    1  A    between atoms: C_1  and  C_5
    2  A    between atoms: C_1  and  C_36
    3  A    between atoms: O_3  and  C_30
    4  A    between atoms: O_3  and  C_32
    5  A    between atoms: C_6  and  C_31
    6  A    between atoms: C_11  and  C_26
    7  A    between atoms: C_20  and  C_30
    8  A    between atoms: C_26  and  C_33
                            x       y       z     vdW  Elec       q    Type
                         _______ _______ _______ _____ _____    ______ ____

>  <TORSDO>
F 8

$$$$
=
 OpenBabel11052420003D

 37 40  0  0  1  0  0  0  0  0999 V2000
  190.6250  176.2040  145.3210 C   0  0  2  0  0  3  0  0  0  0  0  0
  192.6780  174.3710  143.0720 C   0  0  0  0  0  2  0  0  0  0  0  0
  189.1430  176.4530  145.2000 C   0  0  1  0  0  3  0  0  0  0  0  0
  191.0570  175.0780  144.6420 O   0  0  0  0  0  0  0  0  0  0  0  0
  188.4670  175.9160  143.9970 N   0  0  0  0  0  0  0  0  0  0  0  0
  192.3580  175.3500  144.2070 C   0  0  1  0  0  3  0  0  0  0  0  0
  188.6090  175.9430  146.5220 C   0  0  0  0  0  2  0  0  0  0  0  0
  187.0940  176.2960  143.7560 C   0  0  0  0  0  0  0  0  0  0  0  0
  192.0790  176.4060  147.3600 C   0  0  0  0  0  2  0  0  0  0  0  0
  189.6240  176.1690  147.4700 O   0  0  0  0  0  0  0  0  0  0  0  0
  186.6100  176.2080  142.5970 O   0  0  0  0  0  0  0  0  0  0  0  0
  191.5320  174.2370  142.0530 C   0  0  0  0  0  2  0  0  0  0  0  0
  190.7910  175.8390  146.7700 C   0  0  1  0  0  3  0  0  0  0  0  0
  189.2090  175.4960  142.9280 O   0  0  0  0  0  0  0  0  0  0  0  0
  193.3630  175.2360  145.3950 C   0  0  2  0  0  3  0  0  0  0  0  0
  190.3490  173.3510  142.5210 C   0  0  2  0  0  3  0  0  0  0  0  0
  189.0270  174.1020  142.8190 C   0  0  2  0  0  3  0  0  0  0  0  0
  193.2560  176.4410  146.3590 C   0  0  0  0  0  2  0  0  0  0  0  0
  195.5270  173.9820  145.3230 C   0  0  0  0  0  3  0  0  0  0  0  0
  194.7870  175.1060  144.9370 C   0  0  0  0  0  0  0  0  0  0  0  0
  195.3850  176.0870  144.1300 C   0  0  0  0  0  3  0  0  0  0  0  0
  197.2860  176.8890  142.9370 F   0  0  0  0  0  0  0  0  0  0  0  0
  197.4460  174.8160  144.1030 C   0  0  0  0  0  3  0  0  0  0  0  0
  196.7120  175.9400  143.7150 C   0  0  0  0  0  0  0  0  0  0  0  0
  196.8540  173.8370  144.9070 C   0  0  0  0  0  3  0  0  0  0  0  0
  189.6190  172.0370  144.4210 O   0  0  0  0  0  1  0  0  0  0  0  0
  190.7050  172.2910  143.5800 C   0  0  1  0  0  3  0  0  0  0  0  0
  191.1310  170.9970  142.9050 C   0  0  0  0  0  2  0  0  0  0  0  0
  190.4280  170.8510  141.5700 C   0  0  0  0  0  1  0  0  0  0  0  0
  188.0380  173.8170  141.6930 C   0  0  0  0  0  2  0  0  0  0  0  0
  188.5960  174.2210  140.3410 C   0  0  2  0  0  3  0  0  0  0  0  0
  187.9600  175.3630  139.8890 F   0  0  0  0  0  0  0  0  0  0  0  0
  188.3610  173.1000  139.3500 C   0  0  0  0  0  1  0  0  0  0  0  0
  186.2310  176.8570  144.8410 C   0  0  0  0  0  2  0  0  0  0  0  0
  185.3820  177.8280  144.3090 O   0  0  0  0  0  0  0  0  0  0  0  0
  185.5760  180.0560  143.8780 O   0  0  0  0  0  1  0  0  0  0  0  0
  185.8990  179.0370  144.7730 C   0  0  0  0  0  2  0  0  0  0  0  0
  1  4  1  6  0  0  0
  1 13  1  0  0  0  0
  3  1  1  0  0  0  0
  3  7  1  1  0  0  0
  5  3  1  0  0  0  0
  6  2  1  6  0  0  0
  6  4  1  0  0  0  0
  6 15  1  0  0  0  0
  7 10  1  0  0  0  0
  8  5  1  0  0  0  0
  8 34  1  0  0  0  0
 11  8  2  0  0  0  0
 12 16  1  0  0  0  0
 12  2  1  0  0  0  0
 13  9  1  1  0  0  0
 13 10  1  0  0  0  0
 14  5  1  0  0  0  0
 15 20  1  6  0  0  0
 15 18  1  0  0  0  0
 16 17  1  0  0  0  0
 16 27  1  1  0  0  0
 17 30  1  6  0  0  0
 17 14  1  0  0  0  0
 18  9  1  0  0  0  0
 20 19  1  0  0  0  0
 21 20  2  0  0  0  0
 22 24  1  0  0  0  0
 23 25  1  0  0  0  0
 24 23  2  0  0  0  0
 24 21  1  0  0  0  0
 25 19  2  0  0  0  0
 27 26  1  1  0  0  0
 28 27  1  0  0  0  0
 29 28  1  0  0  0  0
 31 33  1  6  0  0  0
 31 30  1  0  0  0  0
 32 31  1  0  0  0  0
 35 37  1  0  0  0  0
 35 34  1  0  0  0  0
 36 37  1  0  0  0  0
M  END
>  <MODEL>
4

>  <REMARK>
 VINA RESULT:      -7.2      2.594      7.878
  Name = 
  8 active torsions:
  status: ('A' for Active; 'I' for Inactive)
    1  A    between atoms: C_1  and  C_5
    2  A    between atoms: C_1  and  C_36
    3  A    between atoms: O_3  and  C_30
    4  A    between atoms: O_3  and  C_32
    5  A    between atoms: C_6  and  C_31
    6  A    between atoms: C_11  and  C_26
    7  A    between atoms: C_20  and  C_30
    8  A    between atoms: C_26  and  C_33
                            x       y       z     vdW  Elec       q    Type
                         _______ _______ _______ _____ _____    ______ ____

>  <TORSDO>
F 8

$$$$
=
 OpenBabel11052420003D

 37 40  0  0  1  0  0  0  0  0999 V2000
  188.1960  175.5810  143.0030 C   0  0  2  0  0  3  0  0  0  0  0  0
  191.0490  173.7900  144.1380 C   0  0  0  0  0  2  0  0  0  0  0  0
  187.4310  176.6400  143.7560 C   0  0  1  0  0  3  0  0  0  0  0  0
  189.5050  175.4350  143.4270 O   0  0  0  0  0  0  0  0  0  0  0  0
  187.8820  176.9460  145.1330 N   0  0  0  0  0  0  0  0  0  0  0  0
  189.8320  174.0860  143.2550 C   0  0  1  0  0  3  0  0  0  0  0  0
  187.4480  177.8110  142.7960 C   0  0  0  0  0  2  0  0  0  0  0  0
  187.0610  177.8130  145.9460 C   0  0  0  0  0  0  0  0  0  0  0  0
  188.1900  175.1100  140.5360 C   0  0  0  0  0  2  0  0  0  0  0  0
  187.4540  177.2590  141.5020 O   0  0  0  0  0  0  0  0  0  0  0  0
  187.1700  177.7900  147.2000 O   0  0  0  0  0  0  0  0  0  0  0  0
  190.9240  174.3830  145.5530 C   0  0  0  0  0  2  0  0  0  0  0  0
  188.3250  176.1690  141.6260 C   0  0  1  0  0  3  0  0  0  0  0  0
  188.7400  176.0950  145.7740 O   0  0  0  0  0  0  0  0  0  0  0  0
  190.0980  173.7790  141.7480 C   0  0  2  0  0  3  0  0  0  0  0  0
  191.1920  175.9070  145.6440 C   0  0  2  0  0  3  0  0  0  0  0  0
  189.9550  176.7880  145.9500 C   0  0  2  0  0  3  0  0  0  0  0  0
  188.7870  173.7390  140.9280 C   0  0  0  0  0  2  0  0  0  0  0  0
  192.1500  172.5290  141.0520 C   0  0  0  0  0  3  0  0  0  0  0  0
  190.8400  172.4910  141.5430 C   0  0  0  0  0  0  0  0  0  0  0  0
  190.2450  171.2530  141.8360 C   0  0  0  0  0  3  0  0  0  0  0  0
  190.3820  168.8750  141.9220 F   0  0  0  0  0  0  0  0  0  0  0  0
  192.2670  170.1120  141.1480 C   0  0  0  0  0  3  0  0  0  0  0  0
  190.9590  170.0670  141.6390 C   0  0  0  0  0  0  0  0  0  0  0  0
  192.8630  171.3420  140.8540 C   0  0  0  0  0  3  0  0  0  0  0  0
  191.6580  177.7440  144.1350 O   0  0  0  0  0  1  0  0  0  0  0  0
  192.0940  176.4780  144.5350 C   0  0  1  0  0  3  0  0  0  0  0  0
  193.5310  176.5740  145.0240 C   0  0  0  0  0  2  0  0  0  0  0  0
  194.4680  175.9390  144.0160 C   0  0  0  0  0  1  0  0  0  0  0  0
  190.0450  177.2740  147.3930 C   0  0  0  0  0  2  0  0  0  0  0  0
  191.3270  176.8100  148.0620 C   0  0  2  0  0  3  0  0  0  0  0  0
  191.1590  175.5350  148.5690 F   0  0  0  0  0  0  0  0  0  0  0  0
  191.6650  177.7530  149.1970 C   0  0  0  0  0  1  0  0  0  0  0  0
  186.0260  178.7080  145.3440 C   0  0  0  0  0  2  0  0  0  0  0  0
  185.1060  179.0860  146.3220 O   0  0  0  0  0  0  0  0  0  0  0  0
  183.8080  179.0360  144.4510 O   0  0  0  0  0  1  0  0  0  0  0  0
  183.8690  178.7040  145.8040 C   0  0  0  0  0  2  0  0  0  0  0  0
  1  4  1  1  0  0  0
  1  3  1  0  0  0  0
  2 12  1  0  0  0  0
  3  7  1  6  0  0  0
  3  5  1  0  0  0  0
  5 14  1  0  0  0  0
  5  8  1  0  0  0  0
  6  4  1  0  0  0  0
  6  2  1  1  0  0  0
  8 11  2  0  0  0  0
  9 18  1  0  0  0  0
 10 13  1  0  0  0  0
 10  7  1  0  0  0  0
 12 16  1  0  0  0  0
 13  9  1  6  0  0  0
 13  1  1  0  0  0  0
 14 17  1  0  0  0  0
 15 20  1  1  0  0  0
 15  6  1  0  0  0  0
 16 27  1  6  0  0  0
 16 17  1  0  0  0  0
 17 30  1  1  0  0  0
 18 15  1  0  0  0  0
 19 20  1  0  0  0  0
 20 21  2  0  0  0  0
 23 24  2  0  0  0  0
 24 21  1  0  0  0  0
 24 22  1  0  0  0  0
 25 19  2  0  0  0  0
 25 23  1  0  0  0  0
 27 26  1  1  0  0  0
 27 28  1  0  0  0  0
 29 28  1  0  0  0  0
 30 31  1  0  0  0  0
 31 32  1  0  0  0  0
 31 33  1  1  0  0  0
 34  8  1  0  0  0  0
 34 35  1  0  0  0  0
 36 37  1  0  0  0  0
 37 35  1  0  0  0  0
M  END
>  <MODEL>
5

>  <REMARK>
 VINA RESULT:      -7.1      3.060      7.073
  Name = 
  8 active torsions:
  status: ('A' for Active; 'I' for Inactive)
    1  A    between atoms: C_1  and  C_5
    2  A    between atoms: C_1  and  C_36
    3  A    between atoms: O_3  and  C_30
    4  A    between atoms: O_3  and  C_32
    5  A    between atoms: C_6  and  C_31
    6  A    between atoms: C_11  and  C_26
    7  A    between atoms: C_20  and  C_30
    8  A    between atoms: C_26  and  C_33
                            x       y       z     vdW  Elec       q    Type
                         _______ _______ _______ _____ _____    ______ ____

>  <TORSDO>
F 8

$$$$
=
 OpenBabel11052420003D

 37 40  0  0  1  0  0  0  0  0999 V2000
  190.4830  174.6000  141.9090 C   0  0  2  0  0  3  0  0  0  0  0  0
  189.1600  177.4420  143.5840 C   0  0  0  0  0  2  0  0  0  0  0  0
  191.9240  174.1580  141.8700 C   0  0  1  0  0  3  0  0  0  0  0  0
  190.1710  175.3830  143.0060 O   0  0  0  0  0  0  0  0  0  0  0  0
  192.9090  175.0160  142.5670 N   0  0  0  0  0  0  0  0  0  0  0  0
  189.1780  176.2760  142.5890 C   0  0  1  0  0  3  0  0  0  0  0  0
  191.8500  172.7290  142.3640 C   0  0  0  0  0  2  0  0  0  0  0  0
  194.3140  174.7280  142.3910 C   0  0  0  0  0  0  0  0  0  0  0  0
  188.4260  173.2560  141.3870 C   0  0  0  0  0  2  0  0  0  0  0  0
  190.6020  172.2320  141.9450 O   0  0  0  0  0  0  0  0  0  0  0  0
  195.1740  175.6200  142.6160 O   0  0  0  0  0  0  0  0  0  0  0  0
  190.5670  177.9550  143.9350 C   0  0  0  0  0  2  0  0  0  0  0  0
  189.7410  173.3160  142.1580 C   0  0  1  0  0  3  0  0  0  0  0  0
  192.5620  176.2830  142.9490 O   0  0  0  0  0  0  0  0  0  0  0  0
  187.8000  175.5510  142.4920 C   0  0  2  0  0  3  0  0  0  0  0  0
  191.3490  177.0720  144.9420 C   0  0  2  0  0  3  0  0  0  0  0  0
  192.5630  176.3060  144.3580 C   0  0  2  0  0  3  0  0  0  0  0  0
  187.7210  174.6260  141.2550 C   0  0  0  0  0  2  0  0  0  0  0  0
  185.9050  176.7250  143.6250 C   0  0  0  0  0  3  0  0  0  0  0  0
  186.6450  176.5080  142.4580 C   0  0  0  0  0  0  0  0  0  0  0  0
  186.2970  177.1870  141.2790 C   0  0  0  0  0  3  0  0  0  0  0  0
  184.8840  178.7300  140.1360 F   0  0  0  0  0  0  0  0  0  0  0  0
  184.4820  178.2890  142.4440 C   0  0  0  0  0  3  0  0  0  0  0  0
  185.2170  178.0760  141.2750 C   0  0  0  0  0  0  0  0  0  0  0  0
  184.8250  177.6140  143.6200 C   0  0  0  0  0  3  0  0  0  0  0  0
  190.8490  174.8720  145.8240 O   0  0  0  0  0  1  0  0  0  0  0  0
  190.4730  176.2170  145.8760 C   0  0  1  0  0  3  0  0  0  0  0  0
  190.5900  176.7150  147.3070 C   0  0  0  0  0  2  0  0  0  0  0  0
  191.1920  175.6380  148.1870 C   0  0  0  0  0  1  0  0  0  0  0  0
  193.8430  176.9760  144.8430 C   0  0  0  0  0  2  0  0  0  0  0  0
  194.2230  176.5170  146.2390 C   0  0  2  0  0  3  0  0  0  0  0  0
  194.9190  177.5170  146.8930 F   0  0  0  0  0  0  0  0  0  0  0  0
  195.1040  175.2890  146.1360 C   0  0  0  0  0  1  0  0  0  0  0  0
  194.7870  173.4030  141.8850 C   0  0  0  0  0  2  0  0  0  0  0  0
  195.6620  172.8330  142.8100 O   0  0  0  0  0  0  0  0  0  0  0  0
  194.7460  170.7500  142.9120 O   0  0  0  0  0  1  0  0  0  0  0  0
  195.7960  171.5090  142.3950 C   0  0  0  0  0  2  0  0  0  0  0  0
  1 13  1  0  0  0  0
  1  4  1  1  0  0  0
  2 12  1  0  0  0  0
  3  1  1  0  0  0  0
  3  7  1  1  0  0  0
  3  5  1  0  0  0  0
  5 14  1  0  0  0  0
  6  4  1  0  0  0  0
  6  2  1  1  0  0  0
  8  5  1  0  0  0  0
  8 11  2  0  0  0  0
 10 13  1  0  0  0  0
 10  7  1  0  0  0  0
 12 16  1  0  0  0  0
 13  9  1  6  0  0  0
 14 17  1  0  0  0  0
 15 20  1  6  0  0  0
 15  6  1  0  0  0  0
 16 27  1  6  0  0  0
 17 30  1  6  0  0  0
 17 16  1  0  0  0  0
 18  9  1  0  0  0  0
 18 15  1  0  0  0  0
 20 19  2  0  0  0  0
 21 20  1  0  0  0  0
 22 24  1  0  0  0  0
 23 25  2  0  0  0  0
 24 21  2  0  0  0  0
 24 23  1  0  0  0  0
 25 19  1  0  0  0  0
 27 26  1  1  0  0  0
 27 28  1  0  0  0  0
 28 29  1  0  0  0  0
 30 31  1  0  0  0  0
 31 33  1  6  0  0  0
 31 32  1  0  0  0  0
 34  8  1  0  0  0  0
 34 35  1  0  0  0  0
 37 35  1  0  0  0  0
 37 36  1  0  0  0  0
M  END
>  <MODEL>
6

>  <REMARK>
 VINA RESULT:      -7.0      1.849      2.351
  Name = 
  8 active torsions:
  status: ('A' for Active; 'I' for Inactive)
    1  A    between atoms: C_1  and  C_5
    2  A    between atoms: C_1  and  C_36
    3  A    between atoms: O_3  and  C_30
    4  A    between atoms: O_3  and  C_32
    5  A    between atoms: C_6  and  C_31
    6  A    between atoms: C_11  and  C_26
    7  A    between atoms: C_20  and  C_30
    8  A    between atoms: C_26  and  C_33
                            x       y       z     vdW  Elec       q    Type
                         _______ _______ _______ _____ _____    ______ ____

>  <TORSDO>
F 8

$$$$
=
 OpenBabel11052420003D

 37 40  0  0  1  0  0  0  0  0999 V2000
  188.1580  175.5170  142.9380 C   0  0  2  0  0  3  0  0  0  0  0  0
  190.9620  173.7090  144.1630 C   0  0  0  0  0  2  0  0  0  0  0  0
  187.3980  176.6070  143.6520 C   0  0  1  0  0  3  0  0  0  0  0  0
  189.4580  175.3610  143.3870 O   0  0  0  0  0  0  0  0  0  0  0  0
  187.8320  176.9380  145.0280 N   0  0  0  0  0  0  0  0  0  0  0  0
  189.7640  174.0030  143.2520 C   0  0  1  0  0  3  0  0  0  0  0  0
  187.4510  177.7540  142.6650 C   0  0  0  0  0  2  0  0  0  0  0  0
  187.0120  177.8380  145.8060 C   0  0  0  0  0  0  0  0  0  0  0  0
  188.1850  174.9870  140.4830 C   0  0  0  0  0  2  0  0  0  0  0  0
  187.4690  177.1700  141.3840 O   0  0  0  0  0  0  0  0  0  0  0  0
  187.1000  177.8440  147.0620 O   0  0  0  0  0  0  0  0  0  0  0  0
  190.8230  174.3370  145.5610 C   0  0  0  0  0  2  0  0  0  0  0  0
  188.3190  176.0690  141.5490 C   0  0  1  0  0  3  0  0  0  0  0  0
  188.6650  176.0900  145.7040 O   0  0  0  0  0  0  0  0  0  0  0  0
  190.0510  173.6550  141.7580 C   0  0  2  0  0  3  0  0  0  0  0  0
  191.1160  175.8590  145.6200 C   0  0  2  0  0  3  0  0  0  0  0  0
  189.8880  176.7670  145.8840 C   0  0  2  0  0  3  0  0  0  0  0  0
  188.7530  173.6160  140.9170 C   0  0  0  0  0  2  0  0  0  0  0  0
  190.1550  171.1700  142.0240 C   0  0  0  0  0  3  0  0  0  0  0  0
  190.7740  172.3500  141.5970 C   0  0  0  0  0  0  0  0  0  0  0  0
  192.0560  172.2940  141.0270 C   0  0  0  0  0  3  0  0  0  0  0  0
  193.9450  171.0140  140.3350 F   0  0  0  0  0  0  0  0  0  0  0  0
  192.0840  169.8900  141.3140 C   0  0  0  0  0  3  0  0  0  0  0  0
  192.7080  171.0650  140.8860 C   0  0  0  0  0  0  0  0  0  0  0  0
  190.8080  169.9420  141.8830 C   0  0  0  0  0  3  0  0  0  0  0  0
  191.6570  177.6650  144.1000 O   0  0  0  0  0  1  0  0  0  0  0  0
  192.0450  176.3880  144.5130 C   0  0  1  0  0  3  0  0  0  0  0  0
  193.4800  176.4380  145.0120 C   0  0  0  0  0  2  0  0  0  0  0  0
  194.3900  175.6910  144.0570 C   0  0  0  0  0  1  0  0  0  0  0  0
  189.9620  177.2860  147.3160 C   0  0  0  0  0  2  0  0  0  0  0  0
  191.2120  176.7960  148.0260 C   0  0  2  0  0  3  0  0  0  0  0  0
  190.9860  175.5440  148.5690 F   0  0  0  0  0  0  0  0  0  0  0  0
  191.5620  177.7610  149.1400 C   0  0  0  0  0  1  0  0  0  0  0  0
  186.0020  178.7350  145.1650 C   0  0  0  0  0  2  0  0  0  0  0  0
  184.7310  178.1740  145.2890 O   0  0  0  0  0  0  0  0  0  0  0  0
  184.0680  178.2750  143.1120 O   0  0  0  0  0  1  0  0  0  0  0  0
  183.9500  178.8710  144.3670 C   0  0  0  0  0  2  0  0  0  0  0  0
  1  4  1  1  0  0  0
  1  3  1  0  0  0  0
  2 12  1  0  0  0  0
  3  7  1  6  0  0  0
  3  5  1  0  0  0  0
  5 14  1  0  0  0  0
  5  8  1  0  0  0  0
  6  4  1  0  0  0  0
  6  2  1  1  0  0  0
  8 11  2  0  0  0  0
  9 18  1  0  0  0  0
 10 13  1  0  0  0  0
 10  7  1  0  0  0  0
 12 16  1  0  0  0  0
 13  9  1  6  0  0  0
 13  1  1  0  0  0  0
 14 17  1  0  0  0  0
 15 20  1  1  0  0  0
 15  6  1  0  0  0  0
 16 27  1  6  0  0  0
 16 17  1  0  0  0  0
 17 30  1  1  0  0  0
 18 15  1  0  0  0  0
 20 19  2  0  0  0  0
 21 20  1  0  0  0  0
 22 24  1  0  0  0  0
 23 25  2  0  0  0  0
 24 21  2  0  0  0  0
 24 23  1  0  0  0  0
 25 19  1  0  0  0  0
 27 26  1  1  0  0  0
 27 28  1  0  0  0  0
 29 28  1  0  0  0  0
 30 31  1  0  0  0  0
 31 32  1  0  0  0  0
 31 33  1  1  0  0  0
 34 35  1  0  0  0  0
 34  8  1  0  0  0  0
 36 37  1  0  0  0  0
 37 35  1  0  0  0  0
M  END
>  <MODEL>
7

>  <REMARK>
 VINA RESULT:      -6.9      2.908      6.946
  Name = 
  8 active torsions:
  status: ('A' for Active; 'I' for Inactive)
    1  A    between atoms: C_1  and  C_5
    2  A    between atoms: C_1  and  C_36
    3  A    between atoms: O_3  and  C_30
    4  A    between atoms: O_3  and  C_32
    5  A    between atoms: C_6  and  C_31
    6  A    between atoms: C_11  and  C_26
    7  A    between atoms: C_20  and  C_30
    8  A    between atoms: C_26  and  C_33
                            x       y       z     vdW  Elec       q    Type
                         _______ _______ _______ _____ _____    ______ ____

>  <TORSDO>
F 8

$$$$
=
 OpenBabel11052420003D

 37 40  0  0  1  0  0  0  0  0999 V2000
  191.1210  175.4120  143.6850 C   0  0  2  0  0  3  0  0  0  0  0  0
  187.9100  174.7330  142.3200 C   0  0  0  0  0  2  0  0  0  0  0  0
  192.2200  174.4170  143.9570 C   0  0  1  0  0  3  0  0  0  0  0  0
  190.2270  175.0010  142.7120 O   0  0  0  0  0  0  0  0  0  0  0  0
  191.9280  172.9950  143.6650 N   0  0  0  0  0  0  0  0  0  0  0  0
  188.9840  175.5390  143.0600 C   0  0  1  0  0  3  0  0  0  0  0  0
  193.3950  175.0020  143.2010 C   0  0  0  0  0  2  0  0  0  0  0  0
  192.8840  171.9990  144.0890 C   0  0  0  0  0  0  0  0  0  0  0  0
  191.2930  177.9110  143.4830 C   0  0  0  0  0  2  0  0  0  0  0  0
  193.2290  176.3990  143.2360 O   0  0  0  0  0  0  0  0  0  0  0  0
  192.5260  170.8000  144.2290 O   0  0  0  0  0  0  0  0  0  0  0  0
  188.1440  173.2140  142.3880 C   0  0  0  0  0  2  0  0  0  0  0  0
  191.8510  176.5600  143.0450 C   0  0  1  0  0  3  0  0  0  0  0  0
  190.6370  172.5920  143.4600 O   0  0  0  0  0  0  0  0  0  0  0  0
  188.9330  177.0600  142.7150 C   0  0  2  0  0  3  0  0  0  0  0  0
  189.2430  172.6820  141.4320 C   0  0  2  0  0  3  0  0  0  0  0  0
  190.5400  172.1830  142.1140 C   0  0  2  0  0  3  0  0  0  0  0  0
  189.7630  177.9050  143.7100 C   0  0  0  0  0  2  0  0  0  0  0  0
  186.8800  177.8960  143.8730 C   0  0  0  0  0  3  0  0  0  0  0  0
  187.5320  177.5970  142.6720 C   0  0  0  0  0  0  0  0  0  0  0  0
  186.8680  177.8030  141.4520 C   0  0  0  0  0  3  0  0  0  0  0  0
  184.9260  178.5040  140.2610 F   0  0  0  0  0  0  0  0  0  0  0  0
  184.9180  178.6040  142.6430 C   0  0  0  0  0  3  0  0  0  0  0  0
  185.5630  178.3060  141.4400 C   0  0  0  0  0  0  0  0  0  0  0  0
  185.5760  178.3990  143.8600 C   0  0  0  0  0  3  0  0  0  0  0  0
  190.8510  173.5450  139.8400 O   0  0  0  0  0  1  0  0  0  0  0  0
  189.4980  173.5500  140.1860 C   0  0  1  0  0  3  0  0  0  0  0  0
  188.6790  173.0370  139.0120 C   0  0  0  0  0  2  0  0  0  0  0  0
  188.1900  174.1990  138.1710 C   0  0  0  0  0  1  0  0  0  0  0  0
  190.5680  170.6590  142.0560 C   0  0  0  0  0  2  0  0  0  0  0  0
  191.5530  170.1560  141.0160 C   0  0  2  0  0  3  0  0  0  0  0  0
  192.5340  171.1050  140.7960 F   0  0  0  0  0  0  0  0  0  0  0  0
  190.8170  169.8960  139.7190 C   0  0  0  0  0  1  0  0  0  0  0  0
  194.2950  172.3580  144.4310 C   0  0  0  0  0  2  0  0  0  0  0  0
  194.5520  172.0320  145.7620 O   0  0  0  0  0  0  0  0  0  0  0  0
  196.7880  172.3040  146.1020 O   0  0  0  0  0  1  0  0  0  0  0  0
  195.7940  171.3980  145.7330 C   0  0  0  0  0  2  0  0  0  0  0  0
  1  4  1  6  0  0  0
  1  3  1  0  0  0  0
  2 12  1  0  0  0  0
  3  7  1  6  0  0  0
  4  6  1  0  0  0  0
  5  3  1  0  0  0  0
  5  8  1  0  0  0  0
  6  2  1  6  0  0  0
  7 10  1  0  0  0  0
  8 11  2  0  0  0  0
  8 34  1  0  0  0  0
  9 18  1  0  0  0  0
 13 10  1  0  0  0  0
 13  9  1  1  0  0  0
 13  1  1  0  0  0  0
 14  5  1  0  0  0  0
 15 20  1  1  0  0  0
 15  6  1  0  0  0  0
 15 18  1  0  0  0  0
 16 27  1  6  0  0  0
 16 17  1  0  0  0  0
 16 12  1  0  0  0  0
 17 30  1  1  0  0  0
 17 14  1  0  0  0  0
 20 19  2  0  0  0  0
 21 20  1  0  0  0  0
 22 24  1  0  0  0  0
 23 25  2  0  0  0  0
 24 21  2  0  0  0  0
 24 23  1  0  0  0  0
 25 19  1  0  0  0  0
 27 26  1  6  0  0  0
 28 27  1  0  0  0  0
 29 28  1  0  0  0  0
 31 33  1  6  0  0  0
 31 30  1  0  0  0  0
 32 31  1  0  0  0  0
 34 35  1  0  0  0  0
 37 35  1  0  0  0  0
 37 36  1  0  0  0  0
M  END
>  <MODEL>
8

>  <REMARK>
 VINA RESULT:      -6.8      2.908      5.536
  Name = 
  8 active torsions:
  status: ('A' for Active; 'I' for Inactive)
    1  A    between atoms: C_1  and  C_5
    2  A    between atoms: C_1  and  C_36
    3  A    between atoms: O_3  and  C_30
    4  A    between atoms: O_3  and  C_32
    5  A    between atoms: C_6  and  C_31
    6  A    between atoms: C_11  and  C_26
    7  A    between atoms: C_20  and  C_30
    8  A    between atoms: C_26  and  C_33
                            x       y       z     vdW  Elec       q    Type
                         _______ _______ _______ _____ _____    ______ ____

>  <TORSDO>
F 8

$$$$
=
 OpenBabel11052420003D

 37 40  0  0  1  0  0  0  0  0999 V2000
  187.9280  175.0860  141.7350 C   0  0  2  0  0  3  0  0  0  0  0  0
  191.0480  173.5580  142.4860 C   0  0  0  0  0  2  0  0  0  0  0  0
  187.0920  175.9420  142.6530 C   0  0  1  0  0  3  0  0  0  0  0  0
  189.2710  175.0620  142.0680 O   0  0  0  0  0  0  0  0  0  0  0  0
  187.5960  176.1410  144.0310 N   0  0  0  0  0  0  0  0  0  0  0  0
  189.7470  173.7950  141.7120 C   0  0  1  0  0  3  0  0  0  0  0  0
  186.9020  177.2090  141.8460 C   0  0  0  0  0  2  0  0  0  0  0  0
  186.7320  176.7940  144.9870 C   0  0  0  0  0  0  0  0  0  0  0  0
  187.8120  174.9080  139.2320 C   0  0  0  0  0  2  0  0  0  0  0  0
  186.8870  176.8170  140.4950 O   0  0  0  0  0  0  0  0  0  0  0  0
  186.9280  176.6390  146.2220 O   0  0  0  0  0  0  0  0  0  0  0  0
  190.9480  173.9610  143.9680 C   0  0  0  0  0  2  0  0  0  0  0  0
  187.8900  175.8410  140.4360 C   0  0  1  0  0  3  0  0  0  0  0  0
  188.5930  175.3390  144.5160 O   0  0  0  0  0  0  0  0  0  0  0  0
  189.9460  173.7030  140.1670 C   0  0  2  0  0  3  0  0  0  0  0  0
  191.0350  175.4860  144.2340 C   0  0  2  0  0  3  0  0  0  0  0  0
  189.7240  176.1580  144.7120 C   0  0  2  0  0  3  0  0  0  0  0  0
  188.5970  173.5890  139.4180 C   0  0  0  0  0  2  0  0  0  0  0  0
  192.0610  172.8180  139.1690 C   0  0  0  0  0  3  0  0  0  0  0  0
  190.8230  172.5540  139.7650 C   0  0  0  0  0  0  0  0  0  0  0  0
  190.4250  171.2240  139.9770 C   0  0  0  0  0  3  0  0  0  0  0  0
  190.8750  168.8900  139.8020 F   0  0  0  0  0  0  0  0  0  0  0  0
  192.4980  170.4420  139.0010 C   0  0  0  0  0  3  0  0  0  0  0  0
  191.2620  170.1710  139.5950 C   0  0  0  0  0  0  0  0  0  0  0  0
  192.8980  171.7650  138.7870 C   0  0  0  0  0  3  0  0  0  0  0  0
  191.2380  177.5730  143.0220 O   0  0  0  0  0  1  0  0  0  0  0  0
  191.7830  176.2940  143.1580 C   0  0  1  0  0  3  0  0  0  0  0  0
  193.2550  176.4120  143.5200 C   0  0  0  0  0  2  0  0  0  0  0  0
  193.4050  176.7470  144.9900 C   0  0  0  0  0  1  0  0  0  0  0  0
  189.8520  176.4790  146.1970 C   0  0  0  0  0  2  0  0  0  0  0  0
  190.1560  175.2380  147.0160 C   0  0  2  0  0  3  0  0  0  0  0  0
  189.0060  174.7930  147.6420 F   0  0  0  0  0  0  0  0  0  0  0  0
  191.1920  175.5760  148.0670 C   0  0  0  0  0  1  0  0  0  0  0  0
  185.5580  177.6120  144.5570 C   0  0  0  0  0  2  0  0  0  0  0  0
  185.4800  178.7670  145.3350 O   0  0  0  0  0  0  0  0  0  0  0  0
  184.4340  178.5420  147.3460 O   0  0  0  0  0  1  0  0  0  0  0  0
  184.2430  178.6770  145.9710 C   0  0  0  0  0  2  0  0  0  0  0  0
  1  4  1  1  0  0  0
  1  3  1  0  0  0  0
  2 12  1  0  0  0  0
  3  7  1  6  0  0  0
  3  5  1  0  0  0  0
  5 14  1  0  0  0  0
  5  8  1  0  0  0  0
  6  4  1  0  0  0  0
  6  2  1  1  0  0  0
  8 11  2  0  0  0  0
  9 18  1  0  0  0  0
 10  7  1  0  0  0  0
 12 16  1  0  0  0  0
 13  9  1  6  0  0  0
 13 10  1  0  0  0  0
 13  1  1  0  0  0  0
 14 17  1  0  0  0  0
 15 20  1  1  0  0  0
 15  6  1  0  0  0  0
 16 27  1  6  0  0  0
 16 17  1  0  0  0  0
 17 30  1  1  0  0  0
 18 15  1  0  0  0  0
 19 20  1  0  0  0  0
 20 21  2  0  0  0  0
 23 24  2  0  0  0  0
 24 22  1  0  0  0  0
 24 21  1  0  0  0  0
 25 23  1  0  0  0  0
 25 19  2  0  0  0  0
 27 26  1  1  0  0  0
 27 28  1  0  0  0  0
 28 29  1  0  0  0  0
 30 31  1  0  0  0  0
 31 32  1  0  0  0  0
 31 33  1  1  0  0  0
 34  8  1  0  0  0  0
 34 35  1  0  0  0  0
 35 37  1  0  0  0  0
 37 36  1  0  0  0  0
M  END
>  <MODEL>
9

>  <REMARK>
 VINA RESULT:      -6.7      3.220      7.338
  Name = 
  8 active torsions:
  status: ('A' for Active; 'I' for Inactive)
    1  A    between atoms: C_1  and  C_5
    2  A    between atoms: C_1  and  C_36
    3  A    between atoms: O_3  and  C_30
    4  A    between atoms: O_3  and  C_32
    5  A    between atoms: C_6  and  C_31
    6  A    between atoms: C_11  and  C_26
    7  A    between atoms: C_20  and  C_30
    8  A    between atoms: C_26  and  C_33
                            x       y       z     vdW  Elec       q    Type
                         _______ _______ _______ _____ _____    ______ ____

>  <TORSDO>
F 8

$$$$
