=
 OpenBabel11052418383D

 34 38  0  0  1  0  0  0  0  0999 V2000
  191.2210  176.3050  143.4630 C   0  0  2  0  0  3  0  0  0  0  0  0
  191.2640  175.2540  145.7090 N   0  0  2  0  0  0  0  0  0  0  0  0
  190.3010  177.4740  145.5490 C   0  0  0  0  0  2  0  0  0  0  0  0
  190.5570  175.5580  146.9440 C   0  0  0  0  0  2  0  0  0  0  0  0
  192.1720  175.2390  142.8870 C   0  0  0  0  0  2  0  0  0  0  0  0
  194.2740  176.3160  143.8460 C   0  0  0  0  0  1  0  0  0  0  0  0
  192.6290  174.8970  146.0660 C   0  0  0  0  0  2  0  0  0  0  0  0
  193.3140  174.1720  144.9030 C   0  0  1  0  0  3  0  0  0  0  0  0
  189.6140  176.7050  146.6510 C   0  0  2  0  0  3  0  0  0  0  0  0
  191.3380  176.5160  144.9840 C   0  0  2  0  0  3  0  0  0  0  0  0
  193.4940  175.0230  143.6330 C   0  0  1  0  0  3  0  0  0  0  0  0
  189.2660  174.8940  143.1510 N   0  0  0  0  0  0  0  0  0  0  0  0
  188.9820  177.0080  142.3030 C   0  0  0  0  0  0  0  0  0  0  0  0
  187.9160  174.7550  142.6140 C   0  0  1  0  0  3  0  0  0  0  0  0
  187.4070  176.3410  141.8380 S   0  0  0  0  0  0  0  0  0  0  0  0
  189.8120  176.0530  143.0070 C   0  0  0  0  0  0  0  0  0  0  0  0
  187.8940  173.6530  141.5730 C   0  0  0  0  0  1  0  0  0  0  0  0
  189.3330  178.1870  142.0360 O   0  0  0  0  0  0  0  0  0  0  0  0
  195.8300  171.5150  145.6520 C   0  0  0  0  0  0  0  0  0  0  0  0
  196.9450  172.2420  146.0730 C   0  0  0  0  0  3  0  0  0  0  0  0
  194.5930  173.5190  145.3290 C   0  0  0  0  0  0  0  0  0  0  0  0
  196.8730  173.6350  146.1160 C   0  0  0  0  0  3  0  0  0  0  0  0
  194.6900  172.1630  145.2900 N   0  0  0  0  0  0  0  0  0  0  0  0
  195.6950  174.2820  145.7430 C   0  0  0  0  0  3  0  0  0  0  0  0
  195.9000  169.7680  145.5860 Cl  0  0  0  0  0  0  0  0  0  0  0  0
  188.4090  176.1940  146.1650 O   0  0  0  0  0  0  0  0  0  0  0  0
  187.4290  177.0830  146.6190 C   0  0  0  0  0  2  0  0  0  0  0  0
  184.5190  176.4710  146.6310 O   0  0  0  0  0  0  0  0  0  0  0  0
  186.4110  177.3720  145.5210 C   0  0  1  0  0  3  0  0  0  0  0  0
  185.0070  177.4360  146.0680 C   0  0  0  0  0  0  0  0  0  0  0  0
  184.3030  179.2540  144.4940 C   0  0  0  0  0  2  0  0  0  0  0  0
  185.6660  179.0490  143.8070 C   0  0  0  0  0  2  0  0  0  0  0  0
  186.7760  178.6630  144.7840 C   0  0  0  0  0  2  0  0  0  0  0  0
  184.2080  178.6970  145.9200 C   0  0  0  0  0  2  0  0  0  0  0  0
  1 16  1  1  0  0  0
  1 10  1  0  0  0  0
  2  7  1  1  0  0  0
  2  4  1  0  0  0  0
  3  9  1  0  0  0  0
  5  1  1  0  0  0  0
  5 11  1  0  0  0  0
  8 21  1  1  0  0  0
  8  7  1  0  0  0  0
  9 26  1  6  0  0  0
  9  4  1  0  0  0  0
 10  3  1  1  0  0  0
 10  2  1  0  0  0  0
 11  6  1  1  0  0  0
 11  8  1  0  0  0  0
 13 16  1  0  0  0  0
 14 17  1  6  0  0  0
 14 12  1  0  0  0  0
 15 13  1  0  0  0  0
 15 14  1  0  0  0  0
 16 12  2  0  0  0  0
 18 13  2  0  0  0  0
 19 20  1  0  0  0  0
 20 22  2  0  0  0  0
 21 24  2  0  0  0  0
 23 21  1  0  0  0  0
 23 19  2  0  0  0  0
 24 22  1  0  0  0  0
 25 19  1  0  0  0  0
 26 27  1  0  0  0  0
 29 30  1  0  0  0  0
 29 27  1  1  0  0  0
 30 28  2  0  0  0  0
 31 34  1  0  0  0  0
 32 31  1  0  0  0  0
 32 33  1  0  0  0  0
 33 29  1  0  0  0  0
 34 30  1  0  0  0  0
M  END
>  <MODEL>
1

>  <REMARK>
 VINA RESULT:      -8.5      0.000      0.000
  Name = 
  5 active torsions:
  status: ('A' for Active; 'I' for Inactive)
    1  A    between atoms: C_3  and  C_13
    2  A    between atoms: C_3  and  O_17
    3  A    between atoms: C_4  and  C_15
    4  A    between atoms: C_12  and  C_28
    5  A    between atoms: O_17  and  C_29
                            x       y       z     vdW  Elec       q    Type
                         _______ _______ _______ _____ _____    ______ ____

>  <TORSDO>
F 5

$$$$
=
 OpenBabel11052418383D

 34 38  0  0  1  0  0  0  0  0999 V2000
  191.3980  176.3430  143.1630 C   0  0  2  0  0  3  0  0  0  0  0  0
  190.1700  174.9990  144.8460 N   0  0  2  0  0  0  0  0  0  0  0  0
  191.3090  173.7840  143.0840 C   0  0  0  0  0  2  0  0  0  0  0  0
  190.2190  173.5870  145.1940 C   0  0  0  0  0  2  0  0  0  0  0  0
  190.7420  177.6500  143.6480 C   0  0  0  0  0  2  0  0  0  0  0  0
  188.5590  177.2470  142.3950 C   0  0  0  0  0  1  0  0  0  0  0  0
  188.7740  175.4090  144.8890 C   0  0  0  0  0  2  0  0  0  0  0  0
  188.6670  176.9370  144.9490 C   0  0  1  0  0  3  0  0  0  0  0  0
  191.2960  172.9510  144.3420 C   0  0  2  0  0  3  0  0  0  0  0  0
  190.5830  175.0690  143.4510 C   0  0  2  0  0  3  0  0  0  0  0  0
  189.2100  177.6680  143.7090 C   0  0  1  0  0  3  0  0  0  0  0  0
  193.1100  176.4540  144.8860 N   0  0  0  0  0  0  0  0  0  0  0  0
  193.9750  176.0550  142.7970 C   0  0  0  0  0  0  0  0  0  0  0  0
  194.5300  176.4060  145.2220 C   0  0  1  0  0  3  0  0  0  0  0  0
  195.5030  176.0990  143.6940 S   0  0  0  0  0  0  0  0  0  0  0  0
  192.8190  176.2590  143.6460 C   0  0  0  0  0  0  0  0  0  0  0  0
  194.9520  177.7260  145.8340 C   0  0  0  0  0  1  0  0  0  0  0  0
  193.9140  175.8720  141.5530 O   0  0  0  0  0  0  0  0  0  0  0  0
  185.5270  178.9580  145.0030 C   0  0  0  0  0  0  0  0  0  0  0  0
  184.7120  178.2570  145.8950 C   0  0  0  0  0  3  0  0  0  0  0  0
  187.2830  177.3850  145.3060 C   0  0  0  0  0  0  0  0  0  0  0  0
  185.2010  177.0970  146.4960 C   0  0  0  0  0  3  0  0  0  0  0  0
  186.7810  178.5090  144.7280 N   0  0  0  0  0  0  0  0  0  0  0  0
  186.4910  176.6540  146.2040 C   0  0  0  0  0  3  0  0  0  0  0  0
  184.9310  180.4130  144.2350 Cl  0  0  0  0  0  0  0  0  0  0  0  0
  192.5280  173.0840  144.9870 O   0  0  0  0  0  0  0  0  0  0  0  0
  193.3510  172.1190  144.3980 C   0  0  0  0  0  2  0  0  0  0  0  0
  193.9410  169.3650  145.3520 O   0  0  0  0  0  0  0  0  0  0  0  0
  194.4460  171.6820  145.3640 C   0  0  1  0  0  3  0  0  0  0  0  0
  194.7910  170.2240  145.1900 C   0  0  0  0  0  0  0  0  0  0  0  0
  197.2270  170.5770  145.6620 C   0  0  0  0  0  2  0  0  0  0  0  0
  196.8420  172.0200  146.0340 C   0  0  0  0  0  2  0  0  0  0  0  0
  195.6850  172.5660  145.1990 C   0  0  0  0  0  2  0  0  0  0  0  0
  196.1890  169.8300  144.8140 C   0  0  0  0  0  2  0  0  0  0  0  0
  1 10  1  0  0  0  0
  1 16  1  1  0  0  0
  1  5  1  0  0  0  0
  2  7  1  6  0  0  0
  2  4  1  0  0  0  0
  3  9  1  0  0  0  0
  5 11  1  0  0  0  0
  7  8  1  0  0  0  0
  8 21  1  6  0  0  0
  9 26  1  1  0  0  0
  9  4  1  0  0  0  0
 10  3  1  1  0  0  0
 10  2  1  0  0  0  0
 11  6  1  6  0  0  0
 11  8  1  0  0  0  0
 12 14  1  0  0  0  0
 13 16  1  0  0  0  0
 13 15  1  0  0  0  0
 14 17  1  6  0  0  0
 15 14  1  0  0  0  0
 16 12  2  0  0  0  0
 18 13  2  0  0  0  0
 19 20  1  0  0  0  0
 20 22  2  0  0  0  0
 21 24  2  0  0  0  0
 23 19  2  0  0  0  0
 23 21  1  0  0  0  0
 24 22  1  0  0  0  0
 25 19  1  0  0  0  0
 27 26  1  0  0  0  0
 29 27  1  6  0  0  0
 30 28  2  0  0  0  0
 30 29  1  0  0  0  0
 31 32  1  0  0  0  0
 33 29  1  0  0  0  0
 33 32  1  0  0  0  0
 34 30  1  0  0  0  0
 34 31  1  0  0  0  0
M  END
>  <MODEL>
2

>  <REMARK>
 VINA RESULT:      -8.1      3.972      8.907
  Name = 
  5 active torsions:
  status: ('A' for Active; 'I' for Inactive)
    1  A    between atoms: C_3  and  C_13
    2  A    between atoms: C_3  and  O_17
    3  A    between atoms: C_4  and  C_15
    4  A    between atoms: C_12  and  C_28
    5  A    between atoms: O_17  and  C_29
                            x       y       z     vdW  Elec       q    Type
                         _______ _______ _______ _____ _____    ______ ____

>  <TORSDO>
F 5

$$$$
=
 OpenBabel11052418383D

 34 38  0  0  1  0  0  0  0  0999 V2000
  191.2630  176.2660  142.9080 C   0  0  2  0  0  3  0  0  0  0  0  0
  191.3620  175.7650  145.3340 N   0  0  2  0  0  0  0  0  0  0  0  0
  190.5760  177.9680  144.6950 C   0  0  0  0  0  2  0  0  0  0  0  0
  190.7620  176.4130  146.4910 C   0  0  0  0  0  2  0  0  0  0  0  0
  192.0850  175.0100  142.5600 C   0  0  0  0  0  2  0  0  0  0  0  0
  194.3250  176.0770  143.1480 C   0  0  0  0  0  1  0  0  0  0  0  0
  192.7130  175.3730  145.7080 C   0  0  0  0  0  2  0  0  0  0  0  0
  193.2610  174.3370  144.7210 C   0  0  1  0  0  3  0  0  0  0  0  0
  189.8990  177.5450  145.9760 C   0  0  2  0  0  3  0  0  0  0  0  0
  191.4930  176.8120  144.3290 C   0  0  2  0  0  3  0  0  0  0  0  0
  193.4290  174.8490  143.2800 C   0  0  1  0  0  3  0  0  0  0  0  0
  189.1170  176.9700  142.0080 N   0  0  0  0  0  0  0  0  0  0  0  0
  189.0430  174.8780  142.9510 C   0  0  0  0  0  0  0  0  0  0  0  0
  187.7040  176.6650  141.8010 C   0  0  1  0  0  3  0  0  0  0  0  0
  187.3370  175.0010  142.4860 S   0  0  0  0  0  0  0  0  0  0  0  0
  189.8110  176.0500  142.5840 C   0  0  0  0  0  0  0  0  0  0  0  0
  186.8530  177.7020  142.5060 C   0  0  0  0  0  1  0  0  0  0  0  0
  189.5220  173.8760  143.5440 O   0  0  0  0  0  0  0  0  0  0  0  0
  195.6740  171.6750  145.7410 C   0  0  0  0  0  0  0  0  0  0  0  0
  196.7960  172.4000  146.1460 C   0  0  0  0  0  3  0  0  0  0  0  0
  194.5060  173.6830  145.2350 C   0  0  0  0  0  0  0  0  0  0  0  0
  196.7630  173.7940  146.0880 C   0  0  0  0  0  3  0  0  0  0  0  0
  194.5650  172.3250  145.2960 N   0  0  0  0  0  0  0  0  0  0  0  0
  195.6170  174.4430  145.6300 C   0  0  0  0  0  3  0  0  0  0  0  0
  195.6950  169.9260  145.8030 Cl  0  0  0  0  0  0  0  0  0  0  0  0
  188.6280  177.0520  145.6760 O   0  0  0  0  0  0  0  0  0  0  0  0
  188.1510  176.5230  146.8790 C   0  0  0  0  0  2  0  0  0  0  0  0
  187.2280  178.8660  148.4610 O   0  0  0  0  0  0  0  0  0  0  0  0
  186.7160  176.9690  147.1340 C   0  0  1  0  0  3  0  0  0  0  0  0
  186.6420  178.4340  147.4820 C   0  0  0  0  0  0  0  0  0  0  0  0
  184.4680  178.7770  146.2840 C   0  0  0  0  0  2  0  0  0  0  0  0
  184.4440  177.2480  146.1020 C   0  0  0  0  0  2  0  0  0  0  0  0
  185.8360  176.6440  145.9240 C   0  0  0  0  0  2  0  0  0  0  0  0
  185.8450  179.3650  146.6170 C   0  0  0  0  0  2  0  0  0  0  0  0
  1 16  1  1  0  0  0
  1 10  1  0  0  0  0
  2  7  1  1  0  0  0
  2  4  1  0  0  0  0
  3  9  1  0  0  0  0
  5  1  1  0  0  0  0
  5 11  1  0  0  0  0
  8 21  1  1  0  0  0
  8  7  1  0  0  0  0
  9 26  1  6  0  0  0
  9  4  1  0  0  0  0
 10  3  1  1  0  0  0
 10  2  1  0  0  0  0
 11  6  1  1  0  0  0
 11  8  1  0  0  0  0
 12 16  2  0  0  0  0
 13 18  2  0  0  0  0
 14 12  1  0  0  0  0
 14 15  1  0  0  0  0
 14 17  1  1  0  0  0
 15 13  1  0  0  0  0
 16 13  1  0  0  0  0
 19 25  1  0  0  0  0
 19 20  1  0  0  0  0
 21 23  1  0  0  0  0
 21 24  2  0  0  0  0
 22 20  2  0  0  0  0
 23 19  2  0  0  0  0
 24 22  1  0  0  0  0
 26 27  1  0  0  0  0
 29 27  1  6  0  0  0
 29 30  1  0  0  0  0
 30 28  2  0  0  0  0
 31 34  1  0  0  0  0
 32 31  1  0  0  0  0
 33 32  1  0  0  0  0
 33 29  1  0  0  0  0
 34 30  1  0  0  0  0
M  END
>  <MODEL>
3

>  <REMARK>
 VINA RESULT:      -8.0      1.428      1.823
  Name = 
  5 active torsions:
  status: ('A' for Active; 'I' for Inactive)
    1  A    between atoms: C_3  and  C_13
    2  A    between atoms: C_3  and  O_17
    3  A    between atoms: C_4  and  C_15
    4  A    between atoms: C_12  and  C_28
    5  A    between atoms: O_17  and  C_29
                            x       y       z     vdW  Elec       q    Type
                         _______ _______ _______ _____ _____    ______ ____

>  <TORSDO>
F 5

$$$$
=
 OpenBabel11052418383D

 34 38  0  0  1  0  0  0  0  0999 V2000
  191.2210  174.4120  145.3590 C   0  0  2  0  0  3  0  0  0  0  0  0
  190.6320  176.3560  143.9380 N   0  0  2  0  0  0  0  0  0  0  0  0
  192.9690  176.0920  144.5290 C   0  0  0  0  0  2  0  0  0  0  0  0
  191.4380  177.2420  143.1100 C   0  0  0  0  0  2  0  0  0  0  0  0
  189.7410  174.1340  145.6860 C   0  0  0  0  0  2  0  0  0  0  0  0
  189.5900  175.9590  147.4610 C   0  0  0  0  0  1  0  0  0  0  0  0
  189.6300  177.1760  144.6030 C   0  0  0  0  0  2  0  0  0  0  0  0
  188.5000  176.2980  145.1520 C   0  0  1  0  0  3  0  0  0  0  0  0
  192.8640  176.7390  143.1710 C   0  0  2  0  0  3  0  0  0  0  0  0
  191.5320  175.8710  144.9760 C   0  0  2  0  0  3  0  0  0  0  0  0
  188.9300  175.3080  146.2490 C   0  0  1  0  0  3  0  0  0  0  0  0
  191.0750  173.1600  143.2810 N   0  0  0  0  0  0  0  0  0  0  0  0
  192.9160  172.5960  144.5320 C   0  0  0  0  0  0  0  0  0  0  0  0
  191.6430  172.1280  142.4170 C   0  0  1  0  0  3  0  0  0  0  0  0
  193.1710  171.4650  143.1920 S   0  0  0  0  0  0  0  0  0  0  0  0
  191.7330  173.4140  144.3590 C   0  0  0  0  0  0  0  0  0  0  0  0
  190.6390  171.0070  142.2380 C   0  0  0  0  0  1  0  0  0  0  0  0
  193.6840  172.6660  145.5270 O   0  0  0  0  0  0  0  0  0  0  0  0
  185.8480  178.9280  145.1020 C   0  0  0  0  0  0  0  0  0  0  0  0
  185.0980  178.6450  146.2450 C   0  0  0  0  0  3  0  0  0  0  0  0
  187.3120  177.1120  145.5620 C   0  0  0  0  0  0  0  0  0  0  0  0
  185.4680  177.5710  147.0540 C   0  0  0  0  0  3  0  0  0  0  0  0
  186.9270  178.1610  144.7870 N   0  0  0  0  0  0  0  0  0  0  0  0
  186.5790  176.7970  146.7160 C   0  0  0  0  0  3  0  0  0  0  0  0
  185.3990  180.2690  144.0720 Cl  0  0  0  0  0  0  0  0  0  0  0  0
  193.0470  175.7640  142.1880 O   0  0  0  0  0  0  0  0  0  0  0  0
  194.3140  175.2280  142.4410 C   0  0  0  0  0  2  0  0  0  0  0  0
  196.8010  176.7690  142.9730 O   0  0  0  0  0  0  0  0  0  0  0  0
  195.3290  175.7410  141.4250 C   0  0  1  0  0  3  0  0  0  0  0  0
  196.6790  175.9750  142.0570 C   0  0  0  0  0  0  0  0  0  0  0  0
  197.9400  175.2370  140.0210 C   0  0  0  0  0  2  0  0  0  0  0  0
  196.5740  175.1900  139.3140 C   0  0  0  0  0  2  0  0  0  0  0  0
  195.4340  174.7740  140.2430 C   0  0  0  0  0  2  0  0  0  0  0  0
  197.8750  175.2230  141.5540 C   0  0  0  0  0  2  0  0  0  0  0  0
  1 16  1  6  0  0  0
  1  5  1  0  0  0  0
  2  4  1  6  0  0  0
  2  7  1  0  0  0  0
  2 10  1  0  0  0  0
  4  9  1  0  0  0  0
  5 11  1  0  0  0  0
  7  8  1  0  0  0  0
  8 21  1  1  0  0  0
  8 11  1  0  0  0  0
  9 26  1  6  0  0  0
  9  3  1  0  0  0  0
 10  3  1  6  0  0  0
 10  1  1  0  0  0  0
 11  6  1  1  0  0  0
 12 16  2  0  0  0  0
 13 18  2  0  0  0  0
 14 17  1  1  0  0  0
 14 15  1  0  0  0  0
 14 12  1  0  0  0  0
 15 13  1  0  0  0  0
 16 13  1  0  0  0  0
 19 20  1  0  0  0  0
 20 22  2  0  0  0  0
 21 24  2  0  0  0  0
 23 19  2  0  0  0  0
 23 21  1  0  0  0  0
 24 22  1  0  0  0  0
 25 19  1  0  0  0  0
 26 27  1  0  0  0  0
 29 30  1  0  0  0  0
 29 27  1  1  0  0  0
 30 28  2  0  0  0  0
 31 34  1  0  0  0  0
 32 31  1  0  0  0  0
 32 33  1  0  0  0  0
 33 29  1  0  0  0  0
 34 30  1  0  0  0  0
M  END
>  <MODEL>
4

>  <REMARK>
 VINA RESULT:      -7.9      4.195      8.723
  Name = 
  5 active torsions:
  status: ('A' for Active; 'I' for Inactive)
    1  A    between atoms: C_3  and  C_13
    2  A    between atoms: C_3  and  O_17
    3  A    between atoms: C_4  and  C_15
    4  A    between atoms: C_12  and  C_28
    5  A    between atoms: O_17  and  C_29
                            x       y       z     vdW  Elec       q    Type
                         _______ _______ _______ _____ _____    ______ ____

>  <TORSDO>
F 5

$$$$
=
 OpenBabel11052418383D

 34 38  0  0  1  0  0  0  0  0999 V2000
  191.6270  175.4100  146.1630 C   0  0  2  0  0  3  0  0  0  0  0  0
  190.6040  176.3520  144.1100 N   0  0  2  0  0  0  0  0  0  0  0  0
  192.9620  176.7890  144.4650 C   0  0  0  0  0  2  0  0  0  0  0  0
  191.1820  176.8800  142.8840 C   0  0  0  0  0  2  0  0  0  0  0  0
  190.2490  175.0680  146.7590 C   0  0  0  0  0  2  0  0  0  0  0  0
  189.7800  177.4490  147.5420 C   0  0  0  0  0  1  0  0  0  0  0  0
  189.4760  177.2030  144.4610 C   0  0  0  0  0  2  0  0  0  0  0  0
  188.5700  176.4990  145.4760 C   0  0  1  0  0  3  0  0  0  0  0  0
  192.6830  176.7110  142.9850 C   0  0  2  0  0  3  0  0  0  0  0  0
  191.6170  176.5580  145.1360 C   0  0  2  0  0  3  0  0  0  0  0  0
  189.2310  176.2130  146.8360 C   0  0  1  0  0  3  0  0  0  0  0  0
  193.5240  173.9020  145.9710 N   0  0  0  0  0  0  0  0  0  0  0  0
  191.7180  173.2240  144.7250 C   0  0  0  0  0  0  0  0  0  0  0  0
  194.0900  172.6980  145.3680 C   0  0  1  0  0  3  0  0  0  0  0  0
  192.8340  171.9220  144.2750 S   0  0  0  0  0  0  0  0  0  0  0  0
  192.3030  174.1670  145.6560 C   0  0  0  0  0  0  0  0  0  0  0  0
  195.3120  173.0660  144.5510 C   0  0  0  0  0  1  0  0  0  0  0  0
  190.5480  173.3130  144.2710 O   0  0  0  0  0  0  0  0  0  0  0  0
  185.7960  178.9370  144.9210 C   0  0  0  0  0  0  0  0  0  0  0  0
  184.8180  178.5170  145.8250 C   0  0  0  0  0  3  0  0  0  0  0  0
  187.2530  177.1960  145.6260 C   0  0  0  0  0  0  0  0  0  0  0  0
  185.0710  177.4120  146.6380 C   0  0  0  0  0  3  0  0  0  0  0  0
  186.9800  178.2720  144.8400 N   0  0  0  0  0  0  0  0  0  0  0  0
  186.2920  176.7440  146.5420 C   0  0  0  0  0  3  0  0  0  0  0  0
  185.4970  180.3180  143.8900 Cl  0  0  0  0  0  0  0  0  0  0  0  0
  193.0320  175.4400  142.5230 O   0  0  0  0  0  0  0  0  0  0  0  0
  193.6840  175.6630  141.3070 C   0  0  0  0  0  2  0  0  0  0  0  0
  194.9020  173.8870  139.2560 O   0  0  0  0  0  0  0  0  0  0  0  0
  195.0770  175.0420  141.3190 C   0  0  1  0  0  3  0  0  0  0  0  0
  195.5370  174.6810  139.9290 C   0  0  0  0  0  0  0  0  0  0  0  0
  197.9280  175.2700  140.3920 C   0  0  0  0  0  2  0  0  0  0  0  0
  197.4960  175.4450  141.8590 C   0  0  0  0  0  2  0  0  0  0  0  0
  196.0720  175.9820  142.0030 C   0  0  0  0  0  2  0  0  0  0  0  0
  196.7820  175.3050  139.3730 C   0  0  0  0  0  2  0  0  0  0  0  0
  1 16  1  6  0  0  0
  1  5  1  0  0  0  0
  2  4  1  6  0  0  0
  2  7  1  0  0  0  0
  2 10  1  0  0  0  0
  4  9  1  0  0  0  0
  5 11  1  0  0  0  0
  7  8  1  0  0  0  0
  8 21  1  1  0  0  0
  8 11  1  0  0  0  0
  9 26  1  1  0  0  0
  9  3  1  0  0  0  0
 10  3  1  6  0  0  0
 10  1  1  0  0  0  0
 11  6  1  6  0  0  0
 13 16  1  0  0  0  0
 14 17  1  6  0  0  0
 14 12  1  0  0  0  0
 15 13  1  0  0  0  0
 15 14  1  0  0  0  0
 16 12  2  0  0  0  0
 18 13  2  0  0  0  0
 19 20  1  0  0  0  0
 20 22  2  0  0  0  0
 21 24  2  0  0  0  0
 23 19  2  0  0  0  0
 23 21  1  0  0  0  0
 24 22  1  0  0  0  0
 25 19  1  0  0  0  0
 27 26  1  0  0  0  0
 28 30  2  0  0  0  0
 29 27  1  6  0  0  0
 29 33  1  0  0  0  0
 30 29  1  0  0  0  0
 31 32  1  0  0  0  0
 32 33  1  0  0  0  0
 34 30  1  0  0  0  0
 34 31  1  0  0  0  0
M  END
>  <MODEL>
5

>  <REMARK>
 VINA RESULT:      -7.6      3.953      8.843
  Name = 
  5 active torsions:
  status: ('A' for Active; 'I' for Inactive)
    1  A    between atoms: C_3  and  C_13
    2  A    between atoms: C_3  and  O_17
    3  A    between atoms: C_4  and  C_15
    4  A    between atoms: C_12  and  C_28
    5  A    between atoms: O_17  and  C_29
                            x       y       z     vdW  Elec       q    Type
                         _______ _______ _______ _____ _____    ______ ____

>  <TORSDO>
F 5

$$$$
=
 OpenBabel11052418383D

 34 38  0  0  1  0  0  0  0  0999 V2000
  189.9740  173.7070  143.3940 C   0  0  2  0  0  3  0  0  0  0  0  0
  189.2470  174.7220  141.2520 N   0  0  2  0  0  0  0  0  0  0  0  0
  187.6030  174.6080  143.0310 C   0  0  0  0  0  2  0  0  0  0  0  0
  188.1070  175.5560  140.9030 C   0  0  0  0  0  2  0  0  0  0  0  0
  191.2640  173.1560  142.7570 C   0  0  0  0  0  2  0  0  0  0  0  0
  190.1090  171.1540  141.6800 C   0  0  0  0  0  1  0  0  0  0  0  0
  189.4480  173.7810  140.1600 C   0  0  0  0  0  2  0  0  0  0  0  0
  190.8460  173.1590  140.2410 C   0  0  1  0  0  3  0  0  0  0  0  0
  187.3390  175.8250  142.1790 C   0  0  2  0  0  3  0  0  0  0  0  0
  188.8170  173.9410  142.4040 C   0  0  2  0  0  3  0  0  0  0  0  0
  191.0960  172.3020  141.4940 C   0  0  1  0  0  3  0  0  0  0  0  0
  190.9550  175.8990  143.7700 N   0  0  0  0  0  0  0  0  0  0  0  0
  189.9490  175.0400  145.6470 C   0  0  0  0  0  0  0  0  0  0  0  0
  191.2400  176.9810  144.7090 C   0  0  1  0  0  3  0  0  0  0  0  0
  190.5400  176.5550  146.3530 S   0  0  0  0  0  0  0  0  0  0  0  0
  190.2790  174.9080  144.2430 C   0  0  0  0  0  0  0  0  0  0  0  0
  192.7390  177.1650  144.8300 C   0  0  0  0  0  1  0  0  0  0  0  0
  189.3170  174.1760  146.3080 O   0  0  0  0  0  0  0  0  0  0  0  0
  190.5500  171.6770  136.8250 C   0  0  0  0  0  0  0  0  0  0  0  0
  191.8150  171.1280  136.6060 C   0  0  0  0  0  3  0  0  0  0  0  0
  191.2060  172.4330  138.9810 C   0  0  0  0  0  0  0  0  0  0  0  0
  192.7880  171.2410  137.5990 C   0  0  0  0  0  3  0  0  0  0  0  0
  190.2770  172.3140  137.9960 N   0  0  0  0  0  0  0  0  0  0  0  0
  192.4890  171.8960  138.7940 C   0  0  0  0  0  3  0  0  0  0  0  0
  189.3160  171.5490  135.5910 Cl  0  0  0  0  0  0  0  0  0  0  0  0
  187.8800  176.9470  142.8110 O   0  0  0  0  0  0  0  0  0  0  0  0
  186.7880  177.7840  143.0600 C   0  0  0  0  0  2  0  0  0  0  0  0
  185.5660  180.2640  144.1540 O   0  0  0  0  0  0  0  0  0  0  0  0
  186.8000  178.2700  144.5050 C   0  0  1  0  0  3  0  0  0  0  0  0
  185.6640  179.2220  144.7810 C   0  0  0  0  0  0  0  0  0  0  0  0
  185.3180  178.3900  147.1190 C   0  0  0  0  0  2  0  0  0  0  0  0
  186.5990  177.5640  146.9070 C   0  0  0  0  0  2  0  0  0  0  0  0
  186.7680  177.0800  145.4670 C   0  0  0  0  0  2  0  0  0  0  0  0
  184.6470  178.8840  145.8300 C   0  0  0  0  0  2  0  0  0  0  0  0
  1 16  1  6  0  0  0
  2  7  1  6  0  0  0
  2 10  1  0  0  0  0
  4  2  1  0  0  0  0
  4  9  1  0  0  0  0
  5  1  1  0  0  0  0
  7  8  1  0  0  0  0
  8 21  1  6  0  0  0
  8 11  1  0  0  0  0
  9 26  1  1  0  0  0
  9  3  1  0  0  0  0
 10  3  1  1  0  0  0
 10  1  1  0  0  0  0
 11  6  1  1  0  0  0
 11  5  1  0  0  0  0
 12 16  2  0  0  0  0
 12 14  1  0  0  0  0
 13 18  2  0  0  0  0
 13 15  1  0  0  0  0
 14 17  1  1  0  0  0
 14 15  1  0  0  0  0
 16 13  1  0  0  0  0
 19 23  1  0  0  0  0
 20 19  2  0  0  0  0
 20 22  1  0  0  0  0
 22 24  2  0  0  0  0
 23 21  2  0  0  0  0
 24 21  1  0  0  0  0
 25 19  1  0  0  0  0
 26 27  1  0  0  0  0
 28 30  2  0  0  0  0
 29 27  1  6  0  0  0
 29 30  1  0  0  0  0
 29 33  1  0  0  0  0
 30 34  1  0  0  0  0
 32 31  1  0  0  0  0
 33 32  1  0  0  0  0
 34 31  1  0  0  0  0
M  END
>  <MODEL>
6

>  <REMARK>
 VINA RESULT:      -7.5      3.809      5.884
  Name = 
  5 active torsions:
  status: ('A' for Active; 'I' for Inactive)
    1  A    between atoms: C_3  and  C_13
    2  A    between atoms: C_3  and  O_17
    3  A    between atoms: C_4  and  C_15
    4  A    between atoms: C_12  and  C_28
    5  A    between atoms: O_17  and  C_29
                            x       y       z     vdW  Elec       q    Type
                         _______ _______ _______ _____ _____    ______ ____

>  <TORSDO>
F 5

$$$$
=
 OpenBabel11052418383D

 34 38  0  0  1  0  0  0  0  0999 V2000
  191.5790  176.3960  142.8380 C   0  0  2  0  0  3  0  0  0  0  0  0
  190.5880  175.0300  144.6540 N   0  0  2  0  0  0  0  0  0  0  0  0
  191.5950  173.8340  142.8010 C   0  0  0  0  0  2  0  0  0  0  0  0
  190.7330  173.6280  145.0130 C   0  0  0  0  0  2  0  0  0  0  0  0
  190.9190  177.6820  143.3710 C   0  0  0  0  0  2  0  0  0  0  0  0
  188.6400  177.1660  142.3510 C   0  0  0  0  0  1  0  0  0  0  0  0
  189.1870  175.3820  144.8340 C   0  0  0  0  0  2  0  0  0  0  0  0
  189.0190  176.9040  144.8850 C   0  0  1  0  0  3  0  0  0  0  0  0
  191.7460  173.0240  144.0640 C   0  0  2  0  0  3  0  0  0  0  0  0
  190.8540  175.0930  143.2230 C   0  0  2  0  0  3  0  0  0  0  0  0
  189.4020  177.6360  143.5860 C   0  0  1  0  0  3  0  0  0  0  0  0
  193.9250  176.0810  142.2820 N   0  0  0  0  0  0  0  0  0  0  0  0
  193.5960  176.5950  144.4960 C   0  0  0  0  0  0  0  0  0  0  0  0
  195.3100  176.0400  142.7440 C   0  0  1  0  0  3  0  0  0  0  0  0
  195.3590  176.4150  144.5420 S   0  0  0  0  0  0  0  0  0  0  0  0
  193.0440  176.3800  143.1740 C   0  0  0  0  0  0  0  0  0  0  0  0
  195.8850  174.6590  142.5000 C   0  0  0  0  0  1  0  0  0  0  0  0
  192.9080  176.8730  145.5120 O   0  0  0  0  0  0  0  0  0  0  0  0
  185.7440  178.6830  145.1230 C   0  0  0  0  0  0  0  0  0  0  0  0
  185.1220  178.0610  146.2080 C   0  0  0  0  0  3  0  0  0  0  0  0
  187.6600  177.2990  145.3750 C   0  0  0  0  0  0  0  0  0  0  0  0
  185.7900  177.0380  146.8800 C   0  0  0  0  0  3  0  0  0  0  0  0
  186.9860  178.2900  144.7320 N   0  0  0  0  0  0  0  0  0  0  0  0
  187.0640  176.6500  146.4660 C   0  0  0  0  0  3  0  0  0  0  0  0
  184.9230  179.9670  144.2630 Cl  0  0  0  0  0  0  0  0  0  0  0  0
  193.0290  173.2200  144.5780 O   0  0  0  0  0  0  0  0  0  0  0  0
  193.4420  171.9560  145.0130 C   0  0  0  0  0  2  0  0  0  0  0  0
  195.9850  173.2160  145.9010 O   0  0  0  0  0  0  0  0  0  0  0  0
  194.8540  171.6520  144.5240 C   0  0  1  0  0  3  0  0  0  0  0  0
  195.8930  172.0550  145.5400 C   0  0  0  0  0  0  0  0  0  0  0  0
  197.3960  170.1220  145.0100 C   0  0  0  0  0  2  0  0  0  0  0  0
  196.4380  169.8260  143.8430 C   0  0  0  0  0  2  0  0  0  0  0  0
  194.9830  170.1700  144.1610 C   0  0  0  0  0  2  0  0  0  0  0  0
  196.8160  171.0200  146.1110 C   0  0  0  0  0  2  0  0  0  0  0  0
  1 16  1  1  0  0  0
  1 10  1  0  0  0  0
  1  5  1  0  0  0  0
  2  7  1  6  0  0  0
  2  4  1  0  0  0  0
  3  9  1  0  0  0  0
  5 11  1  0  0  0  0
  7  8  1  0  0  0  0
  8 21  1  6  0  0  0
  9 26  1  1  0  0  0
  9  4  1  0  0  0  0
 10  3  1  1  0  0  0
 10  2  1  0  0  0  0
 11  6  1  6  0  0  0
 11  8  1  0  0  0  0
 12 14  1  0  0  0  0
 12 16  2  0  0  0  0
 13 15  1  0  0  0  0
 13 18  2  0  0  0  0
 14 17  1  1  0  0  0
 14 15  1  0  0  0  0
 16 13  1  0  0  0  0
 19 20  1  0  0  0  0
 20 22  2  0  0  0  0
 21 24  2  0  0  0  0
 23 19  2  0  0  0  0
 23 21  1  0  0  0  0
 24 22  1  0  0  0  0
 25 19  1  0  0  0  0
 26 27  1  0  0  0  0
 29 27  1  1  0  0  0
 29 30  1  0  0  0  0
 30 28  2  0  0  0  0
 30 34  1  0  0  0  0
 31 34  1  0  0  0  0
 32 33  1  0  0  0  0
 32 31  1  0  0  0  0
 33 29  1  0  0  0  0
M  END
>  <MODEL>
7

>  <REMARK>
 VINA RESULT:      -7.4      3.932      8.884
  Name = 
  5 active torsions:
  status: ('A' for Active; 'I' for Inactive)
    1  A    between atoms: C_3  and  C_13
    2  A    between atoms: C_3  and  O_17
    3  A    between atoms: C_4  and  C_15
    4  A    between atoms: C_12  and  C_28
    5  A    between atoms: O_17  and  C_29
                            x       y       z     vdW  Elec       q    Type
                         _______ _______ _______ _____ _____    ______ ____

>  <TORSDO>
F 5

$$$$
=
 OpenBabel11052418383D

 34 38  0  0  1  0  0  0  0  0999 V2000
  187.9140  176.1480  146.0230 C   0  0  2  0  0  3  0  0  0  0  0  0
  189.1760  177.2610  144.2030 N   0  0  2  0  0  0  0  0  0  0  0  0
  187.0320  176.2880  143.6220 C   0  0  0  0  0  2  0  0  0  0  0  0
  188.7790  177.7330  142.8850 C   0  0  0  0  0  2  0  0  0  0  0  0
  189.1360  176.1740  146.9600 C   0  0  0  0  0  2  0  0  0  0  0  0
  190.2490  174.1490  145.8820 C   0  0  0  0  0  1  0  0  0  0  0  0
  190.4940  176.6600  144.0700 C   0  0  0  0  0  2  0  0  0  0  0  0
  191.1590  176.5180  145.4440 C   0  0  1  0  0  3  0  0  0  0  0  0
  187.2900  177.4930  142.7510 C   0  0  2  0  0  3  0  0  0  0  0  0
  188.2530  176.1800  144.5220 C   0  0  2  0  0  3  0  0  0  0  0  0
  190.4340  175.5670  146.4120 C   0  0  1  0  0  3  0  0  0  0  0  0
  187.3060  178.3910  146.7380 N   0  0  0  0  0  0  0  0  0  0  0  0
  185.4990  176.9800  146.6020 C   0  0  0  0  0  0  0  0  0  0  0  0
  186.2550  179.3070  147.1740 C   0  0  1  0  0  3  0  0  0  0  0  0
  184.6440  178.4230  147.1740 S   0  0  0  0  0  0  0  0  0  0  0  0
  186.9200  177.2000  146.4290 C   0  0  0  0  0  0  0  0  0  0  0  0
  186.5610  179.8000  148.5740 C   0  0  0  0  0  1  0  0  0  0  0  0
  184.9230  175.8830  146.3800 O   0  0  0  0  0  0  0  0  0  0  0  0
  194.5300  175.9630  143.9360 C   0  0  0  0  0  0  0  0  0  0  0  0
  195.3260  175.6510  145.0410 C   0  0  0  0  0  3  0  0  0  0  0  0
  192.6170  176.1990  145.3270 C   0  0  0  0  0  0  0  0  0  0  0  0
  194.7460  175.6190  146.3090 C   0  0  0  0  0  3  0  0  0  0  0  0
  193.2070  176.2300  144.1020 N   0  0  0  0  0  0  0  0  0  0  0  0
  193.3870  175.8940  146.4600 C   0  0  0  0  0  3  0  0  0  0  0  0
  195.2380  176.0120  142.3360 Cl  0  0  0  0  0  0  0  0  0  0  0  0
  186.6020  178.5890  143.2770 O   0  0  0  0  0  0  0  0  0  0  0  0
  185.8750  179.1100  142.2020 C   0  0  0  0  0  2  0  0  0  0  0  0
  183.5970  178.4180  143.9840 O   0  0  0  0  0  0  0  0  0  0  0  0
  184.6760  178.2240  141.8810 C   0  0  1  0  0  3  0  0  0  0  0  0
  183.5010  178.5350  142.7740 C   0  0  0  0  0  0  0  0  0  0  0  0
  181.8120  178.1210  140.9690 C   0  0  0  0  0  2  0  0  0  0  0  0
  182.9920  177.6120  140.1210 C   0  0  0  0  0  2  0  0  0  0  0  0
  184.2970  178.3560  140.4040 C   0  0  0  0  0  2  0  0  0  0  0  0
  182.2070  178.9930  142.1680 C   0  0  0  0  0  2  0  0  0  0  0  0
  1 16  1  1  0  0  0
  1  5  1  0  0  0  0
  2  4  1  6  0  0  0
  2 10  1  0  0  0  0
  7  2  1  0  0  0  0
  7  8  1  0  0  0  0
  8 21  1  6  0  0  0
  8 11  1  0  0  0  0
  9  4  1  0  0  0  0
  9 26  1  1  0  0  0
  9  3  1  0  0  0  0
 10  3  1  6  0  0  0
 10  1  1  0  0  0  0
 11  6  1  6  0  0  0
 11  5  1  0  0  0  0
 12 14  1  0  0  0  0
 13 15  1  0  0  0  0
 14 15  1  0  0  0  0
 14 17  1  1  0  0  0
 16 13  1  0  0  0  0
 16 12  2  0  0  0  0
 18 13  2  0  0  0  0
 19 23  2  0  0  0  0
 19 20  1  0  0  0  0
 20 22  2  0  0  0  0
 21 24  2  0  0  0  0
 22 24  1  0  0  0  0
 23 21  1  0  0  0  0
 25 19  1  0  0  0  0
 27 26  1  0  0  0  0
 29 27  1  1  0  0  0
 29 30  1  0  0  0  0
 30 28  2  0  0  0  0
 31 34  1  0  0  0  0
 32 33  1  0  0  0  0
 32 31  1  0  0  0  0
 33 29  1  0  0  0  0
 34 30  1  0  0  0  0
M  END
>  <MODEL>
8

>  <REMARK>
 VINA RESULT:      -7.3      2.867      4.848
  Name = 
  5 active torsions:
  status: ('A' for Active; 'I' for Inactive)
    1  A    between atoms: C_3  and  C_13
    2  A    between atoms: C_3  and  O_17
    3  A    between atoms: C_4  and  C_15
    4  A    between atoms: C_12  and  C_28
    5  A    between atoms: O_17  and  C_29
                            x       y       z     vdW  Elec       q    Type
                         _______ _______ _______ _____ _____    ______ ____

>  <TORSDO>
F 5

$$$$
=
 OpenBabel11052418383D

 34 38  0  0  1  0  0  0  0  0999 V2000
  191.8320  176.3240  143.0220 C   0  0  2  0  0  3  0  0  0  0  0  0
  190.2440  174.6650  143.9570 N   0  0  2  0  0  0  0  0  0  0  0  0
  191.2990  174.1110  141.8450 C   0  0  0  0  0  2  0  0  0  0  0  0
  190.0130  173.2590  143.6610 C   0  0  0  0  0  2  0  0  0  0  0  0
  191.3770  177.4040  144.0220 C   0  0  0  0  0  2  0  0  0  0  0  0
  189.2740  178.0070  142.7130 C   0  0  0  0  0  1  0  0  0  0  0  0
  188.9440  175.2840  144.1700 C   0  0  0  0  0  2  0  0  0  0  0  0
  189.1040  176.6300  144.8840 C   0  0  1  0  0  3  0  0  0  0  0  0
  191.0310  172.8450  142.6200 C   0  0  2  0  0  3  0  0  0  0  0  0
  190.7820  175.2360  142.7290 C   0  0  2  0  0  3  0  0  0  0  0  0
  189.8730  177.6950  144.0810 C   0  0  1  0  0  3  0  0  0  0  0  0
  193.3270  175.1800  144.5600 N   0  0  0  0  0  0  0  0  0  0  0  0
  194.3900  175.9020  142.6580 C   0  0  0  0  0  0  0  0  0  0  0  0
  194.6840  174.7340  144.8630 C   0  0  1  0  0  3  0  0  0  0  0  0
  195.7960  175.1980  143.4760 S   0  0  0  0  0  0  0  0  0  0  0  0
  193.1680  175.7660  143.4230 C   0  0  0  0  0  0  0  0  0  0  0  0
  195.1630  175.3970  146.1390 C   0  0  0  0  0  1  0  0  0  0  0  0
  194.4610  176.4640  141.5340 O   0  0  0  0  0  0  0  0  0  0  0  0
  185.9790  178.6600  145.1390 C   0  0  0  0  0  0  0  0  0  0  0  0
  185.3500  178.1350  146.2700 C   0  0  0  0  0  3  0  0  0  0  0  0
  187.7950  177.1480  145.3960 C   0  0  0  0  0  0  0  0  0  0  0  0
  185.9620  177.0940  146.9680 C   0  0  0  0  0  3  0  0  0  0  0  0
  187.1750  178.1590  144.7290 N   0  0  0  0  0  0  0  0  0  0  0  0
  187.1900  176.5940  146.5330 C   0  0  0  0  0  3  0  0  0  0  0  0
  185.2270  179.9640  144.2470 Cl  0  0  0  0  0  0  0  0  0  0  0  0
  192.2060  172.4480  143.2610 O   0  0  0  0  0  0  0  0  0  0  0  0
  192.8070  171.5390  142.3850 C   0  0  0  0  0  2  0  0  0  0  0  0
  195.6430  171.6960  143.2670 O   0  0  0  0  0  0  0  0  0  0  0  0
  193.6030  170.4920  143.1560 C   0  0  1  0  0  3  0  0  0  0  0  0
  194.7710  171.1070  143.8850 C   0  0  0  0  0  0  0  0  0  0  0  0
  194.5690  169.5640  145.8480 C   0  0  0  0  0  2  0  0  0  0  0  0
  193.5120  168.8110  145.0200 C   0  0  0  0  0  2  0  0  0  0  0  0
  192.6890  169.7340  144.1210 C   0  0  0  0  0  2  0  0  0  0  0  0
  194.8600  170.9950  145.3780 C   0  0  0  0  0  2  0  0  0  0  0  0
  1 16  1  1  0  0  0
  1  5  1  0  0  0  0
  2  4  1  6  0  0  0
  2  7  1  0  0  0  0
  3  9  1  0  0  0  0
  5 11  1  0  0  0  0
  7  8  1  0  0  0  0
  8 21  1  6  0  0  0
  9 26  1  1  0  0  0
  9  4  1  0  0  0  0
 10  3  1  6  0  0  0
 10  1  1  0  0  0  0
 10  2  1  0  0  0  0
 11  6  1  6  0  0  0
 11  8  1  0  0  0  0
 12 14  1  0  0  0  0
 13 16  1  0  0  0  0
 13 15  1  0  0  0  0
 14 17  1  1  0  0  0
 15 14  1  0  0  0  0
 16 12  2  0  0  0  0
 18 13  2  0  0  0  0
 19 20  1  0  0  0  0
 20 22  2  0  0  0  0
 21 24  2  0  0  0  0
 23 19  2  0  0  0  0
 23 21  1  0  0  0  0
 24 22  1  0  0  0  0
 25 19  1  0  0  0  0
 27 26  1  0  0  0  0
 28 30  2  0  0  0  0
 29 27  1  1  0  0  0
 29 30  1  0  0  0  0
 29 33  1  0  0  0  0
 30 34  1  0  0  0  0
 32 31  1  0  0  0  0
 33 32  1  0  0  0  0
 34 31  1  0  0  0  0
M  END
>  <MODEL>
9

>  <REMARK>
 VINA RESULT:      -7.3      4.105      8.662
  Name = 
  5 active torsions:
  status: ('A' for Active; 'I' for Inactive)
    1  A    between atoms: C_3  and  C_13
    2  A    between atoms: C_3  and  O_17
    3  A    between atoms: C_4  and  C_15
    4  A    between atoms: C_12  and  C_28
    5  A    between atoms: O_17  and  C_29
                            x       y       z     vdW  Elec       q    Type
                         _______ _______ _______ _____ _____    ______ ____

>  <TORSDO>
F 5

$$$$
