=
 OpenBabel11052418543D

 34 41  0  0  1  0  0  0  0  0999 V2000
  186.9590  177.4920  146.7860 C   0  0  0  0  0  0  0  0  0  0  0  0
  184.9100  178.4160  145.8840 C   0  0  0  0  0  0  0  0  0  0  0  0
  181.4310  178.8950  141.6420 C   0  0  0  0  0  3  0  0  0  0  0  0
  186.5440  177.3570  144.4170 C   0  0  0  0  0  0  0  0  0  0  0  0
  185.9830  177.2410  142.1050 C   0  0  0  0  0  0  0  0  0  0  0  0
  185.3760  178.5200  148.1770 N   0  0  0  0  0  0  0  0  0  0  0  0
  184.5660  178.7800  147.1440 N   0  0  0  0  0  0  0  0  0  0  0  0
  184.5080  178.2530  143.5060 C   0  0  0  0  0  0  0  0  0  0  0  0
  186.1450  177.7570  145.6920 C   0  0  0  0  0  0  0  0  0  0  0  0
  182.6810  178.6060  141.9070 C   0  0  0  0  0  0  0  0  0  0  0  0
  184.8600  177.6200  141.1850 C   0  0  0  0  0  2  0  0  0  0  0  0
  186.5460  177.8890  148.0160 N   0  0  0  0  0  0  0  0  0  0  0  0
  187.7510  176.6780  144.1780 C   0  0  0  0  0  0  0  0  0  0  0  0
  188.1760  176.8150  146.5920 C   0  0  0  0  0  3  0  0  0  0  0  0
  184.0620  178.6710  144.7730 C   0  0  0  0  0  3  0  0  0  0  0  0
  187.1350  176.5720  141.8280 N   0  0  0  0  0  0  0  0  0  0  0  0
  188.0470  176.2840  142.8250 C   0  0  0  0  0  0  0  0  0  0  0  0
  183.9250  178.3110  142.1640 C   0  0  0  0  0  0  0  0  0  0  0  0
  185.7060  177.6250  143.3710 C   0  0  0  0  0  0  0  0  0  0  0  0
  188.5650  176.4080  145.2980 C   0  0  0  0  0  3  0  0  0  0  0  0
  191.7180  175.3700  142.3530 C   0  0  0  0  0  0  0  0  0  0  0  0
  191.6060  174.1790  141.6330 C   0  0  0  0  0  3  0  0  0  0  0  0
  189.2910  175.5630  142.4390 C   0  0  0  0  0  0  0  0  0  0  0  0
  190.3430  173.6780  141.3090 C   0  0  0  0  0  3  0  0  0  0  0  0
  190.5680  176.0590  142.7480 C   0  0  0  0  0  3  0  0  0  0  0  0
  189.1940  174.3680  141.7060 C   0  0  0  0  0  3  0  0  0  0  0  0
  192.9410  175.8600  142.6660 F   0  0  0  0  0  0  0  0  0  0  0  0
  178.7770  178.9950  142.5920 O   0  0  0  0  0  1  0  0  0  0  0  0
  180.4560  177.9300  141.0150 C   0  0  1  0  0  3  0  0  0  0  0  0
  179.0630  178.0390  141.6160 C   0  0  2  0  0  0  0  0  0  0  0  0
  177.6910  176.8470  140.1640 C   0  0  0  0  0  2  0  0  0  0  0  0
  178.6470  177.6540  139.3080 C   0  0  0  0  0  2  0  0  0  0  0  0
  179.3140  178.6230  140.2510 C   0  0  2  0  0  3  0  0  0  0  0  0
  178.1860  176.8800  141.5340 N   0  0  0  0  0  2  0  0  0  0  0  0
  1 12  1  0  0  0  0
  2  7  2  0  0  0  0
  3 10  2  0  0  0  0
  4  9  1  0  0  0  0
  5 19  1  0  0  0  0
  7  6  1  0  0  0  0
  8 15  2  0  0  0  0
  9  2  1  0  0  0  0
  9  1  2  0  0  0  0
 10 18  2  0  0  0  0
 11  5  1  0  0  0  0
 11 18  1  0  0  0  0
 12  6  2  0  0  0  0
 13  4  1  0  0  0  0
 13 20  1  0  0  0  0
 14  1  1  0  0  0  0
 15  2  1  0  0  0  0
 16  5  2  0  0  0  0
 16 17  1  0  0  0  0
 17 13  2  0  0  0  0
 18  8  1  0  0  0  0
 19  8  1  0  0  0  0
 19  4  2  0  0  0  0
 20 14  2  0  0  0  0
 21 27  1  0  0  0  0
 21 25  1  0  0  0  0
 22 21  2  0  0  0  0
 23 25  2  0  0  0  0
 23 17  1  0  0  0  0
 24 22  1  0  0  0  0
 24 26  2  0  0  0  0
 26 23  1  0  0  0  0
 29 30  1  0  0  0  0
 29  3  1  1  0  0  0
 30 28  1  1  0  0  0
 31 34  1  0  0  0  0
 32 31  1  0  0  0  0
 33 32  1  6  0  0  0
 33 29  1  0  0  0  0
 33 30  1  0  0  0  0
 34 30  1  0  0  0  0
M  END
>  <MODEL>
1

>  <REMARK>
 VINA RESULT:      -9.7      0.000      0.000
  Name = 
  2 active torsions:
  status: ('A' for Active; 'I' for Inactive)
    1  A    between atoms: C_3  and  C_13
    2  A    between atoms: C_12  and  C_28
                            x       y       z     vdW  Elec       q    Type
                         _______ _______ _______ _____ _____    ______ ____

>  <TORSDO>
F 2

$$$$
=
 OpenBabel11052418543D

 34 41  0  0  1  0  0  0  0  0999 V2000
  191.3210  175.8330  145.9470 C   0  0  0  0  0  0  0  0  0  0  0  0
  191.7860  173.9720  144.4670 C   0  0  0  0  0  0  0  0  0  0  0  0
  190.4720  171.1110  139.9490 C   0  0  0  0  0  3  0  0  0  0  0  0
  189.6900  175.2050  144.2890 C   0  0  0  0  0  0  0  0  0  0  0  0
  188.1920  174.5160  142.5710 C   0  0  0  0  0  0  0  0  0  0  0  0
  193.3270  174.6290  146.1040 N   0  0  0  0  0  0  0  0  0  0  0  0
  192.9770  173.8210  145.0970 N   0  0  0  0  0  0  0  0  0  0  0  0
  190.1410  173.3730  142.8000 C   0  0  0  0  0  0  0  0  0  0  0  0
  190.9260  175.0030  144.9050 C   0  0  0  0  0  0  0  0  0  0  0  0
  189.9480  171.9340  140.8220 C   0  0  0  0  0  0  0  0  0  0  0  0
  188.1140  173.5040  141.4650 C   0  0  0  0  0  2  0  0  0  0  0  0
  192.5280  175.6170  146.5270 N   0  0  0  0  0  0  0  0  0  0  0  0
  188.8110  176.2320  144.6720 C   0  0  0  0  0  0  0  0  0  0  0  0
  190.4710  176.8720  146.3620 C   0  0  0  0  0  3  0  0  0  0  0  0
  191.3980  173.1340  143.3880 C   0  0  0  0  0  3  0  0  0  0  0  0
  187.3130  175.5020  142.8990 N   0  0  0  0  0  0  0  0  0  0  0  0
  187.5750  176.3680  143.9440 C   0  0  0  0  0  0  0  0  0  0  0  0
  189.4200  172.7580  141.6840 C   0  0  0  0  0  0  0  0  0  0  0  0
  189.3470  174.3750  143.2580 C   0  0  0  0  0  0  0  0  0  0  0  0
  189.2270  177.0720  145.7260 C   0  0  0  0  0  3  0  0  0  0  0  0
  184.6340  178.2230  145.5050 C   0  0  0  0  0  0  0  0  0  0  0  0
  184.6260  179.3960  144.7480 C   0  0  0  0  0  3  0  0  0  0  0  0
  186.5570  177.4090  144.2510 C   0  0  0  0  0  0  0  0  0  0  0  0
  185.5760  179.5800  143.7410 C   0  0  0  0  0  3  0  0  0  0  0  0
  185.5900  177.2350  145.2550 C   0  0  0  0  0  3  0  0  0  0  0  0
  186.5320  178.5910  143.4930 C   0  0  0  0  0  3  0  0  0  0  0  0
  183.7120  178.0400  146.4810 F   0  0  0  0  0  0  0  0  0  0  0  0
  191.9380  169.2540  138.4120 O   0  0  0  0  0  1  0  0  0  0  0  0
  190.6120  171.4170  138.4790 C   0  0  1  0  0  3  0  0  0  0  0  0
  191.4440  170.3760  137.7450 C   0  0  2  0  0  0  0  0  0  0  0  0
  191.0760  170.8000  135.4880 C   0  0  0  0  0  2  0  0  0  0  0  0
  189.7370  170.9270  136.1850 C   0  0  0  0  0  2  0  0  0  0  0  0
  189.9480  170.3670  137.5690 C   0  0  2  0  0  3  0  0  0  0  0  0
  192.1110  170.7720  136.5130 N   0  0  0  0  0  2  0  0  0  0  0  0
  1 14  1  0  0  0  0
  1 12  1  0  0  0  0
  2  9  1  0  0  0  0
  2  7  2  0  0  0  0
  3 10  2  0  0  0  0
  4 13  1  0  0  0  0
  4  9  1  0  0  0  0
  5 16  2  0  0  0  0
  5 19  1  0  0  0  0
  6 12  2  0  0  0  0
  7  6  1  0  0  0  0
  8 19  1  0  0  0  0
  8 15  2  0  0  0  0
  9  1  2  0  0  0  0
 10 18  2  0  0  0  0
 11 18  1  0  0  0  0
 11  5  1  0  0  0  0
 13 20  1  0  0  0  0
 15  2  1  0  0  0  0
 16 17  1  0  0  0  0
 17 23  1  0  0  0  0
 17 13  2  0  0  0  0
 18  8  1  0  0  0  0
 19  4  2  0  0  0  0
 20 14  2  0  0  0  0
 21 27  1  0  0  0  0
 22 21  2  0  0  0  0
 23 25  2  0  0  0  0
 24 22  1  0  0  0  0
 25 21  1  0  0  0  0
 26 24  2  0  0  0  0
 26 23  1  0  0  0  0
 29  3  1  1  0  0  0
 30 28  1  1  0  0  0
 30 29  1  0  0  0  0
 31 32  1  0  0  0  0
 31 34  1  0  0  0  0
 33 32  1  6  0  0  0
 33 30  1  0  0  0  0
 33 29  1  0  0  0  0
 34 30  1  0  0  0  0
M  END
>  <MODEL>
2

>  <REMARK>
 VINA RESULT:      -9.3      5.272      9.086
  Name = 
  2 active torsions:
  status: ('A' for Active; 'I' for Inactive)
    1  A    between atoms: C_3  and  C_13
    2  A    between atoms: C_12  and  C_28
                            x       y       z     vdW  Elec       q    Type
                         _______ _______ _______ _____ _____    ______ ____

>  <TORSDO>
F 2

$$$$
=
 OpenBabel11052418543D

 34 41  0  0  1  0  0  0  0  0999 V2000
  191.3860  176.3250  146.2810 C   0  0  0  0  0  0  0  0  0  0  0  0
  192.1500  174.9330  144.4520 C   0  0  0  0  0  0  0  0  0  0  0  0
  191.2730  172.8740  139.4210 C   0  0  0  0  0  3  0  0  0  0  0  0
  189.8570  175.7580  144.5080 C   0  0  0  0  0  0  0  0  0  0  0  0
  188.4680  175.1680  142.6650 C   0  0  0  0  0  0  0  0  0  0  0  0
  193.5850  175.5160  146.2090 N   0  0  0  0  0  0  0  0  0  0  0  0
  193.3650  174.8820  145.0510 N   0  0  0  0  0  0  0  0  0  0  0  0
  190.6020  174.3920  142.6760 C   0  0  0  0  0  0  0  0  0  0  0  0
  191.1240  175.6690  145.0850 C   0  0  0  0  0  0  0  0  0  0  0  0
  190.6280  173.3840  140.4400 C   0  0  0  0  0  0  0  0  0  0  0  0
  188.5500  174.4120  141.3720 C   0  0  0  0  0  2  0  0  0  0  0  0
  192.6270  176.2260  146.8190 N   0  0  0  0  0  0  0  0  0  0  0  0
  188.8110  176.4980  145.0850 C   0  0  0  0  0  0  0  0  0  0  0  0
  190.3670  177.0760  146.8930 C   0  0  0  0  0  3  0  0  0  0  0  0
  191.8970  174.2790  143.2170 C   0  0  0  0  0  3  0  0  0  0  0  0
  187.4290  175.8810  143.1810 N   0  0  0  0  0  0  0  0  0  0  0  0
  187.5520  176.5450  144.3870 C   0  0  0  0  0  0  0  0  0  0  0  0
  189.9790  173.8970  141.4480 C   0  0  0  0  0  0  0  0  0  0  0  0
  189.6470  175.1090  143.3230 C   0  0  0  0  0  0  0  0  0  0  0  0
  189.0910  177.1650  146.2970 C   0  0  0  0  0  3  0  0  0  0  0  0
  184.8420  179.1890  144.8290 C   0  0  0  0  0  0  0  0  0  0  0  0
  184.1450  178.6760  145.9260 C   0  0  0  0  0  3  0  0  0  0  0  0
  186.3660  177.2890  144.8910 C   0  0  0  0  0  0  0  0  0  0  0  0
  184.5570  177.4760  146.5110 C   0  0  0  0  0  3  0  0  0  0  0  0
  185.9470  178.5020  144.3200 C   0  0  0  0  0  3  0  0  0  0  0  0
  185.6610  176.7910  145.9990 C   0  0  0  0  0  3  0  0  0  0  0  0
  184.4480  180.3530  144.2610 F   0  0  0  0  0  0  0  0  0  0  0  0
  193.6910  174.1240  138.6760 O   0  0  0  0  0  1  0  0  0  0  0  0
  191.3130  173.4980  138.0480 C   0  0  1  0  0  3  0  0  0  0  0  0
  192.6430  174.1730  137.7540 C   0  0  2  0  0  0  0  0  0  0  0  0
  192.6130  174.5840  135.4650 C   0  0  0  0  0  2  0  0  0  0  0  0
  192.0420  173.1960  135.6730 C   0  0  0  0  0  2  0  0  0  0  0  0
  192.3430  172.8460  137.1080 C   0  0  2  0  0  3  0  0  0  0  0  0
  192.6710  175.2400  136.7650 N   0  0  0  0  0  2  0  0  0  0  0  0
  1 12  1  0  0  0  0
  1 14  1  0  0  0  0
  2  7  2  0  0  0  0
  2  9  1  0  0  0  0
  3 10  2  0  0  0  0
  4  9  1  0  0  0  0
  4 13  1  0  0  0  0
  5 16  2  0  0  0  0
  5 19  1  0  0  0  0
  6 12  2  0  0  0  0
  7  6  1  0  0  0  0
  8 15  2  0  0  0  0
  8 19  1  0  0  0  0
  9  1  2  0  0  0  0
 10 18  2  0  0  0  0
 11 18  1  0  0  0  0
 11  5  1  0  0  0  0
 13 20  1  0  0  0  0
 15  2  1  0  0  0  0
 16 17  1  0  0  0  0
 17 23  1  0  0  0  0
 17 13  2  0  0  0  0
 18  8  1  0  0  0  0
 19  4  2  0  0  0  0
 20 14  2  0  0  0  0
 21 22  1  0  0  0  0
 22 24  2  0  0  0  0
 23 26  2  0  0  0  0
 25 21  2  0  0  0  0
 25 23  1  0  0  0  0
 26 24  1  0  0  0  0
 27 21  1  0  0  0  0
 29  3  1  1  0  0  0
 30 29  1  0  0  0  0
 30 28  1  1  0  0  0
 31 32  1  0  0  0  0
 31 34  1  0  0  0  0
 33 32  1  6  0  0  0
 33 30  1  0  0  0  0
 33 29  1  0  0  0  0
 34 30  1  0  0  0  0
M  END
>  <MODEL>
3

>  <REMARK>
 VINA RESULT:      -9.1      5.170      9.062
  Name = 
  2 active torsions:
  status: ('A' for Active; 'I' for Inactive)
    1  A    between atoms: C_3  and  C_13
    2  A    between atoms: C_12  and  C_28
                            x       y       z     vdW  Elec       q    Type
                         _______ _______ _______ _____ _____    ______ ____

>  <TORSDO>
F 2

$$$$
=
 OpenBabel11052418543D

 34 41  0  0  1  0  0  0  0  0999 V2000
  188.8830  174.5490  140.9740 C   0  0  0  0  0  0  0  0  0  0  0  0
  191.0440  173.5530  141.4270 C   0  0  0  0  0  0  0  0  0  0  0  0
  194.8860  172.1140  145.1000 C   0  0  0  0  0  3  0  0  0  0  0  0
  189.8750  174.8180  143.1530 C   0  0  0  0  0  0  0  0  0  0  0  0
  190.9430  174.9580  145.2770 C   0  0  0  0  0  0  0  0  0  0  0  0
  190.0270  173.3330  139.3280 N   0  0  0  0  0  0  0  0  0  0  0  0
  191.0490  173.0830  140.1550 N   0  0  0  0  0  0  0  0  0  0  0  0
  192.0110  173.8220  143.6250 C   0  0  0  0  0  0  0  0  0  0  0  0
  189.9330  174.3150  141.8530 C   0  0  0  0  0  0  0  0  0  0  0  0
  193.8760  172.9350  144.9500 C   0  0  0  0  0  0  0  0  0  0  0  0
  192.1870  174.4730  145.9620 C   0  0  0  0  0  2  0  0  0  0  0  0
  188.9630  174.0460  139.7170 N   0  0  0  0  0  0  0  0  0  0  0  0
  188.7820  175.5590  143.6310 C   0  0  0  0  0  0  0  0  0  0  0  0
  187.7690  175.2880  141.4120 C   0  0  0  0  0  3  0  0  0  0  0  0
  192.1110  173.2900  142.3260 C   0  0  0  0  0  3  0  0  0  0  0  0
  189.9020  175.6710  145.7870 N   0  0  0  0  0  0  0  0  0  0  0  0
  188.8150  176.0030  145.0010 C   0  0  0  0  0  0  0  0  0  0  0  0
  192.8680  173.7500  144.8100 C   0  0  0  0  0  0  0  0  0  0  0  0
  190.9240  174.5510  143.9880 C   0  0  0  0  0  0  0  0  0  0  0  0
  187.7190  175.7840  142.7320 C   0  0  0  0  0  3  0  0  0  0  0  0
  186.1820  178.6840  145.6430 C   0  0  0  0  0  0  0  0  0  0  0  0
  185.6960  178.2870  146.8910 C   0  0  0  0  0  3  0  0  0  0  0  0
  187.7240  176.7970  145.6280 C   0  0  0  0  0  0  0  0  0  0  0  0
  186.2220  177.1520  147.5130 C   0  0  0  0  0  3  0  0  0  0  0  0
  187.1920  177.9460  145.0190 C   0  0  0  0  0  3  0  0  0  0  0  0
  187.2310  176.4160  146.8870 C   0  0  0  0  0  3  0  0  0  0  0  0
  185.6770  179.7850  145.0380 F   0  0  0  0  0  0  0  0  0  0  0  0
  194.6570  169.4670  144.1510 O   0  0  0  0  0  1  0  0  0  0  0  0
  194.9380  171.0210  146.1380 C   0  0  1  0  0  3  0  0  0  0  0  0
  194.7740  169.6360  145.5320 C   0  0  2  0  0  0  0  0  0  0  0  0
  195.3910  168.1660  147.2260 C   0  0  0  0  0  2  0  0  0  0  0  0
  196.3870  169.3070  147.2470 C   0  0  0  0  0  2  0  0  0  0  0  0
  196.1440  170.0780  145.9750 C   0  0  2  0  0  3  0  0  0  0  0  0
  194.2710  168.5670  146.3830 N   0  0  0  0  0  2  0  0  0  0  0  0
  1 14  2  0  0  0  0
  1  9  1  0  0  0  0
  2  9  1  0  0  0  0
  2 15  1  0  0  0  0
  4 13  1  0  0  0  0
  4 19  1  0  0  0  0
  5 16  1  0  0  0  0
  5 11  1  0  0  0  0
  6 12  2  0  0  0  0
  6  7  1  0  0  0  0
  7  2  2  0  0  0  0
  8 19  1  0  0  0  0
  8 18  1  0  0  0  0
  9  4  2  0  0  0  0
 10  3  2  0  0  0  0
 12  1  1  0  0  0  0
 13 17  1  0  0  0  0
 14 20  1  0  0  0  0
 15  8  2  0  0  0  0
 17 23  1  0  0  0  0
 17 16  2  0  0  0  0
 18 10  2  0  0  0  0
 18 11  1  0  0  0  0
 19  5  2  0  0  0  0
 20 13  2  0  0  0  0
 21 22  1  0  0  0  0
 22 24  2  0  0  0  0
 23 26  2  0  0  0  0
 25 23  1  0  0  0  0
 25 21  2  0  0  0  0
 26 24  1  0  0  0  0
 27 21  1  0  0  0  0
 29  3  1  6  0  0  0
 30 28  1  6  0  0  0
 30 33  1  0  0  0  0
 30 29  1  0  0  0  0
 30 34  1  0  0  0  0
 31 32  1  0  0  0  0
 33 29  1  0  0  0  0
 33 32  1  1  0  0  0
 34 31  1  0  0  0  0
M  END
>  <MODEL>
4

>  <REMARK>
 VINA RESULT:      -9.0      5.919     11.349
  Name = 
  2 active torsions:
  status: ('A' for Active; 'I' for Inactive)
    1  A    between atoms: C_3  and  C_13
    2  A    between atoms: C_12  and  C_28
                            x       y       z     vdW  Elec       q    Type
                         _______ _______ _______ _____ _____    ______ ____

>  <TORSDO>
F 2

$$$$
=
 OpenBabel11052418543D

 34 41  0  0  1  0  0  0  0  0999 V2000
  193.7680  174.2050  143.4870 C   0  0  0  0  0  0  0  0  0  0  0  0
  192.2730  176.0930  143.7460 C   0  0  0  0  0  0  0  0  0  0  0  0
  187.1840  178.1560  143.3400 C   0  0  0  0  0  3  0  0  0  0  0  0
  191.5550  174.0990  142.5420 C   0  0  0  0  0  0  0  0  0  0  0  0
  189.3240  174.1050  141.7070 C   0  0  0  0  0  0  0  0  0  0  0  0
  194.4390  176.1350  144.6360 N   0  0  0  0  0  0  0  0  0  0  0  0
  193.2560  176.7260  144.4320 N   0  0  0  0  0  0  0  0  0  0  0  0
  190.0520  175.9560  142.8030 C   0  0  0  0  0  0  0  0  0  0  0  0
  192.5340  174.7960  143.2510 C   0  0  0  0  0  0  0  0  0  0  0  0
  187.9310  177.1870  142.8720 C   0  0  0  0  0  0  0  0  0  0  0  0
  188.1160  174.9940  141.6910 C   0  0  0  0  0  2  0  0  0  0  0  0
  194.7010  174.9030  144.1810 N   0  0  0  0  0  0  0  0  0  0  0  0
  191.7570  172.7980  142.0500 C   0  0  0  0  0  0  0  0  0  0  0  0
  194.0130  172.9040  143.0120 C   0  0  0  0  0  3  0  0  0  0  0  0
  191.0060  176.6950  143.5270 C   0  0  0  0  0  3  0  0  0  0  0  0
  189.4700  172.8410  141.2220 N   0  0  0  0  0  0  0  0  0  0  0  0
  190.6650  172.1610  141.3590 C   0  0  0  0  0  0  0  0  0  0  0  0
  188.6670  176.2160  142.4070 C   0  0  0  0  0  0  0  0  0  0  0  0
  190.3490  174.7120  142.3440 C   0  0  0  0  0  0  0  0  0  0  0  0
  193.0120  172.2050  142.3030 C   0  0  0  0  0  3  0  0  0  0  0  0
  190.8330  169.2550  138.8980 C   0  0  0  0  0  0  0  0  0  0  0  0
  190.8590  168.1660  139.7710 C   0  0  0  0  0  3  0  0  0  0  0  0
  190.7500  170.7890  140.7890 C   0  0  0  0  0  0  0  0  0  0  0  0
  190.8250  168.3810  141.1510 C   0  0  0  0  0  3  0  0  0  0  0  0
  190.7750  170.5560  139.4040 C   0  0  0  0  0  3  0  0  0  0  0  0
  190.7680  169.6830  141.6550 C   0  0  0  0  0  3  0  0  0  0  0  0
  190.8630  169.0510  137.5590 F   0  0  0  0  0  0  0  0  0  0  0  0
  187.5470  177.6820  146.0970 O   0  0  0  0  0  1  0  0  0  0  0  0
  185.9340  177.9400  144.1550 C   0  0  1  0  0  3  0  0  0  0  0  0
  186.2350  177.6610  145.6190 C   0  0  2  0  0  0  0  0  0  0  0  0
  184.1880  177.8730  146.7020 C   0  0  0  0  0  2  0  0  0  0  0  0
  184.2770  179.0050  145.6990 C   0  0  0  0  0  2  0  0  0  0  0  0
  185.7090  179.0180  145.2310 C   0  0  2  0  0  3  0  0  0  0  0  0
  185.2500  176.9230  146.3970 N   0  0  0  0  0  2  0  0  0  0  0  0
  1 12  1  0  0  0  0
  2  7  2  0  0  0  0
  4  9  1  0  0  0  0
  5 19  1  0  0  0  0
  7  6  1  0  0  0  0
  8 15  2  0  0  0  0
  9  1  2  0  0  0  0
  9  2  1  0  0  0  0
 10  3  2  0  0  0  0
 11  5  1  0  0  0  0
 11 18  1  0  0  0  0
 12  6  2  0  0  0  0
 13 20  1  0  0  0  0
 13  4  1  0  0  0  0
 14  1  1  0  0  0  0
 15  2  1  0  0  0  0
 16 17  1  0  0  0  0
 16  5  2  0  0  0  0
 17 13  2  0  0  0  0
 18  8  1  0  0  0  0
 18 10  2  0  0  0  0
 19  4  2  0  0  0  0
 19  8  1  0  0  0  0
 20 14  2  0  0  0  0
 21 25  2  0  0  0  0
 21 22  1  0  0  0  0
 22 24  2  0  0  0  0
 23 17  1  0  0  0  0
 23 26  2  0  0  0  0
 24 26  1  0  0  0  0
 25 23  1  0  0  0  0
 27 21  1  0  0  0  0
 29  3  1  6  0  0  0
 29 33  1  0  0  0  0
 29 30  1  0  0  0  0
 30 28  1  1  0  0  0
 30 34  1  0  0  0  0
 32 31  1  0  0  0  0
 33 30  1  0  0  0  0
 33 32  1  1  0  0  0
 34 31  1  0  0  0  0
M  END
>  <MODEL>
5

>  <REMARK>
 VINA RESULT:      -8.3      4.395      7.145
  Name = 
  2 active torsions:
  status: ('A' for Active; 'I' for Inactive)
    1  A    between atoms: C_3  and  C_13
    2  A    between atoms: C_12  and  C_28
                            x       y       z     vdW  Elec       q    Type
                         _______ _______ _______ _____ _____    ______ ____

>  <TORSDO>
F 2

$$$$
=
 OpenBabel11052418543D

 34 41  0  0  1  0  0  0  0  0999 V2000
  193.1800  172.1430  143.6340 C   0  0  0  0  0  0  0  0  0  0  0  0
  192.1420  174.0970  144.6200 C   0  0  0  0  0  0  0  0  0  0  0  0
  188.0900  177.8240  144.5280 C   0  0  0  0  0  3  0  0  0  0  0  0
  191.4610  173.3100  142.4150 C   0  0  0  0  0  0  0  0  0  0  0  0
  189.7130  174.5230  141.3450 C   0  0  0  0  0  0  0  0  0  0  0  0
  193.8230  172.9210  145.7510 N   0  0  0  0  0  0  0  0  0  0  0  0
  192.9430  173.9270  145.7010 N   0  0  0  0  0  0  0  0  0  0  0  0
  190.4080  175.2410  143.3850 C   0  0  0  0  0  0  0  0  0  0  0  0
  192.2650  173.1840  143.5490 C   0  0  0  0  0  0  0  0  0  0  0  0
  188.7190  176.9830  143.7450 C   0  0  0  0  0  0  0  0  0  0  0  0
  188.8110  175.6920  141.6080 C   0  0  0  0  0  2  0  0  0  0  0  0
  193.9470  172.0410  144.7490 N   0  0  0  0  0  0  0  0  0  0  0  0
  191.5280  172.4130  141.3350 C   0  0  0  0  0  0  0  0  0  0  0  0
  193.2800  171.2230  142.5760 C   0  0  0  0  0  3  0  0  0  0  0  0
  191.1930  175.1500  144.5500 C   0  0  0  0  0  3  0  0  0  0  0  0
  189.7350  173.6740  140.2810 N   0  0  0  0  0  0  0  0  0  0  0  0
  190.6290  172.6210  140.2290 C   0  0  0  0  0  0  0  0  0  0  0  0
  189.3370  176.1440  142.9610 C   0  0  0  0  0  0  0  0  0  0  0  0
  190.5640  174.3400  142.3790 C   0  0  0  0  0  0  0  0  0  0  0  0
  192.4570  171.3560  141.4370 C   0  0  0  0  0  3  0  0  0  0  0  0
  191.2980  171.2030  136.7550 C   0  0  0  0  0  0  0  0  0  0  0  0
  190.4630  170.0830  136.7590 C   0  0  0  0  0  3  0  0  0  0  0  0
  190.6010  171.7480  139.0250 C   0  0  0  0  0  0  0  0  0  0  0  0
  189.6930  169.7940  137.8880 C   0  0  0  0  0  3  0  0  0  0  0  0
  191.3620  172.0310  137.8790 C   0  0  0  0  0  3  0  0  0  0  0  0
  189.7590  170.6230  139.0100 C   0  0  0  0  0  3  0  0  0  0  0  0
  192.0440  171.4880  135.6620 F   0  0  0  0  0  0  0  0  0  0  0  0
  187.4040  177.9170  147.2630 O   0  0  0  0  0  1  0  0  0  0  0  0
  186.6200  177.7330  144.8560 C   0  0  1  0  0  3  0  0  0  0  0  0
  186.3560  177.7600  146.3540 C   0  0  2  0  0  0  0  0  0  0  0  0
  184.0660  178.1160  146.5510 C   0  0  0  0  0  2  0  0  0  0  0  0
  184.5620  179.0290  145.4490 C   0  0  0  0  0  2  0  0  0  0  0  0
  186.0670  178.9950  145.5430 C   0  0  2  0  0  3  0  0  0  0  0  0
  185.1250  177.1590  146.8470 N   0  0  0  0  0  2  0  0  0  0  0  0
  1 12  1  0  0  0  0
  2  7  2  0  0  0  0
  4  9  1  0  0  0  0
  5 11  1  0  0  0  0
  5 19  1  0  0  0  0
  7  6  1  0  0  0  0
  8 15  2  0  0  0  0
  9  1  2  0  0  0  0
  9  2  1  0  0  0  0
 10  3  2  0  0  0  0
 11 18  1  0  0  0  0
 12  6  2  0  0  0  0
 13 20  1  0  0  0  0
 13  4  1  0  0  0  0
 14  1  1  0  0  0  0
 15  2  1  0  0  0  0
 16  5  2  0  0  0  0
 17 16  1  0  0  0  0
 17 13  2  0  0  0  0
 18  8  1  0  0  0  0
 18 10  2  0  0  0  0
 19  4  2  0  0  0  0
 19  8  1  0  0  0  0
 20 14  2  0  0  0  0
 21 22  2  0  0  0  0
 21 25  1  0  0  0  0
 22 24  1  0  0  0  0
 23 17  1  0  0  0  0
 24 26  2  0  0  0  0
 25 23  2  0  0  0  0
 26 23  1  0  0  0  0
 27 21  1  0  0  0  0
 29  3  1  1  0  0  0
 29 33  1  0  0  0  0
 29 30  1  0  0  0  0
 30 34  1  0  0  0  0
 30 28  1  1  0  0  0
 31 34  1  0  0  0  0
 32 31  1  0  0  0  0
 33 32  1  6  0  0  0
 33 30  1  0  0  0  0
M  END
>  <MODEL>
6

>  <REMARK>
 VINA RESULT:      -7.9      4.434      7.477
  Name = 
  2 active torsions:
  status: ('A' for Active; 'I' for Inactive)
    1  A    between atoms: C_3  and  C_13
    2  A    between atoms: C_12  and  C_28
                            x       y       z     vdW  Elec       q    Type
                         _______ _______ _______ _____ _____    ______ ____

>  <TORSDO>
F 2

$$$$
=
 OpenBabel11052418543D

 34 41  0  0  1  0  0  0  0  0999 V2000
  190.7140  176.3480  145.7550 C   0  0  0  0  0  0  0  0  0  0  0  0
  191.5670  174.2830  144.8200 C   0  0  0  0  0  0  0  0  0  0  0  0
  191.2230  170.3680  140.9620 C   0  0  0  0  0  3  0  0  0  0  0  0
  189.4170  175.1770  144.0960 C   0  0  0  0  0  0  0  0  0  0  0  0
  188.2670  173.9490  142.4110 C   0  0  0  0  0  0  0  0  0  0  0  0
  192.7760  175.4670  146.4390 N   0  0  0  0  0  0  0  0  0  0  0  0
  192.6590  174.4220  145.6120 N   0  0  0  0  0  0  0  0  0  0  0  0
  190.2570  173.1350  143.1440 C   0  0  0  0  0  0  0  0  0  0  0  0
  190.5590  175.2690  144.8940 C   0  0  0  0  0  0  0  0  0  0  0  0
  190.4980  171.2890  141.5470 C   0  0  0  0  0  0  0  0  0  0  0  0
  188.4510  172.7200  141.5700 C   0  0  0  0  0  2  0  0  0  0  0  0
  191.8340  176.4150  146.5170 N   0  0  0  0  0  0  0  0  0  0  0  0
  188.3980  176.1440  144.1160 C   0  0  0  0  0  0  0  0  0  0  0  0
  189.7170  177.3380  145.8070 C   0  0  0  0  0  3  0  0  0  0  0  0
  191.4260  173.1890  143.9250 C   0  0  0  0  0  3  0  0  0  0  0  0
  187.2600  174.8650  142.3880 N   0  0  0  0  0  0  0  0  0  0  0  0
  187.2790  175.9630  143.2270 C   0  0  0  0  0  0  0  0  0  0  0  0
  189.7720  172.2080  142.1200 C   0  0  0  0  0  0  0  0  0  0  0  0
  189.3120  174.1060  143.2530 C   0  0  0  0  0  0  0  0  0  0  0  0
  188.5710  177.2380  144.9900 C   0  0  0  0  0  3  0  0  0  0  0  0
  184.5730  178.2910  141.8910 C   0  0  0  0  0  0  0  0  0  0  0  0
  184.0000  178.7450  143.0810 C   0  0  0  0  0  3  0  0  0  0  0  0
  186.1350  176.9110  143.1530 C   0  0  0  0  0  0  0  0  0  0  0  0
  184.4920  178.2910  144.3070 C   0  0  0  0  0  3  0  0  0  0  0  0
  185.6350  177.3840  141.9280 C   0  0  0  0  0  3  0  0  0  0  0  0
  185.5540  177.3840  144.3420 C   0  0  0  0  0  3  0  0  0  0  0  0
  184.1000  178.7310  140.7010 F   0  0  0  0  0  0  0  0  0  0  0  0
  193.8640  171.0750  140.2640 O   0  0  0  0  0  1  0  0  0  0  0  0
  191.5540  170.3620  139.4910 C   0  0  1  0  0  3  0  0  0  0  0  0
  192.9880  170.7870  139.2150 C   0  0  2  0  0  0  0  0  0  0  0  0
  193.3670  170.2100  136.9940 C   0  0  0  0  0  2  0  0  0  0  0  0
  192.6020  169.0640  137.6250 C   0  0  0  0  0  2  0  0  0  0  0  0
  192.6290  169.3290  139.1080 C   0  0  2  0  0  3  0  0  0  0  0  0
  193.3020  171.3440  137.9070 N   0  0  0  0  0  2  0  0  0  0  0  0
  1 14  1  0  0  0  0
  1 12  1  0  0  0  0
  2  9  1  0  0  0  0
  2  7  2  0  0  0  0
  3 10  2  0  0  0  0
  4 13  1  0  0  0  0
  4  9  1  0  0  0  0
  5 19  1  0  0  0  0
  6 12  2  0  0  0  0
  7  6  1  0  0  0  0
  8 19  1  0  0  0  0
  8 15  2  0  0  0  0
  9  1  2  0  0  0  0
 10 18  2  0  0  0  0
 11 18  1  0  0  0  0
 11  5  1  0  0  0  0
 13 20  1  0  0  0  0
 15  2  1  0  0  0  0
 16  5  2  0  0  0  0
 16 17  1  0  0  0  0
 17 13  2  0  0  0  0
 18  8  1  0  0  0  0
 19  4  2  0  0  0  0
 20 14  2  0  0  0  0
 21 25  2  0  0  0  0
 21 22  1  0  0  0  0
 22 24  2  0  0  0  0
 23 17  1  0  0  0  0
 23 26  2  0  0  0  0
 24 26  1  0  0  0  0
 25 23  1  0  0  0  0
 27 21  1  0  0  0  0
 29  3  1  1  0  0  0
 30 29  1  0  0  0  0
 30 28  1  1  0  0  0
 31 32  1  0  0  0  0
 31 34  1  0  0  0  0
 33 32  1  6  0  0  0
 33 30  1  0  0  0  0
 33 29  1  0  0  0  0
 34 30  1  0  0  0  0
M  END
>  <MODEL>
7

>  <REMARK>
 VINA RESULT:      -7.9      4.935      9.541
  Name = 
  2 active torsions:
  status: ('A' for Active; 'I' for Inactive)
    1  A    between atoms: C_3  and  C_13
    2  A    between atoms: C_12  and  C_28
                            x       y       z     vdW  Elec       q    Type
                         _______ _______ _______ _____ _____    ______ ____

>  <TORSDO>
F 2

$$$$
=
 OpenBabel11052418543D

 34 41  0  0  1  0  0  0  0  0999 V2000
  189.8330  177.0280  146.7880 C   0  0  0  0  0  0  0  0  0  0  0  0
  191.7340  175.6990  146.0880 C   0  0  0  0  0  0  0  0  0  0  0  0
  194.5860  173.3510  142.0050 C   0  0  0  0  0  3  0  0  0  0  0  0
  189.9160  176.1760  144.5360 C   0  0  0  0  0  0  0  0  0  0  0  0
  190.1500  175.3210  142.3260 C   0  0  0  0  0  0  0  0  0  0  0  0
  191.5910  176.5510  148.2650 N   0  0  0  0  0  0  0  0  0  0  0  0
  192.2480  175.8500  147.3340 N   0  0  0  0  0  0  0  0  0  0  0  0
  191.8020  174.8700  143.8190 C   0  0  0  0  0  0  0  0  0  0  0  0
  190.4870  176.2980  145.8030 C   0  0  0  0  0  0  0  0  0  0  0  0
  193.3870  173.7970  142.2850 C   0  0  0  0  0  0  0  0  0  0  0  0
  191.1330  174.5390  141.5050 C   0  0  0  0  0  2  0  0  0  0  0  0
  190.4120  177.1330  148.0110 N   0  0  0  0  0  0  0  0  0  0  0  0
  188.6900  176.7740  144.1970 C   0  0  0  0  0  0  0  0  0  0  0  0
  188.6040  177.6410  146.4910 C   0  0  0  0  0  3  0  0  0  0  0  0
  192.4180  174.9700  145.0800 C   0  0  0  0  0  3  0  0  0  0  0  0
  188.9730  175.8910  141.9480 N   0  0  0  0  0  0  0  0  0  0  0  0
  188.2090  176.6090  142.8490 C   0  0  0  0  0  0  0  0  0  0  0  0
  192.1920  174.2440  142.5540 C   0  0  0  0  0  0  0  0  0  0  0  0
  190.5990  175.4610  143.5930 C   0  0  0  0  0  0  0  0  0  0  0  0
  188.0400  177.5180  145.2030 C   0  0  0  0  0  3  0  0  0  0  0  0
  184.6640  178.0050  142.7440 C   0  0  0  0  0  0  0  0  0  0  0  0
  184.5070  178.2310  141.3750 C   0  0  0  0  0  3  0  0  0  0  0  0
  186.9270  177.1870  142.3630 C   0  0  0  0  0  0  0  0  0  0  0  0
  185.5510  177.9320  140.4960 C   0  0  0  0  0  3  0  0  0  0  0  0
  185.8650  177.4830  143.2330 C   0  0  0  0  0  3  0  0  0  0  0  0
  186.7500  177.4100  140.9880 C   0  0  0  0  0  3  0  0  0  0  0  0
  183.6530  178.2910  143.5980 F   0  0  0  0  0  0  0  0  0  0  0  0
  196.4060  175.3560  142.7970 O   0  0  0  0  0  1  0  0  0  0  0  0
  195.4680  173.9240  140.9240 C   0  0  1  0  0  3  0  0  0  0  0  0
  196.3890  175.0170  141.4420 C   0  0  2  0  0  0  0  0  0  0  0  0
  197.9410  175.3490  139.7420 C   0  0  0  0  0  2  0  0  0  0  0  0
  197.7370  173.8530  139.8690 C   0  0  0  0  0  2  0  0  0  0  0  0
  196.9680  173.6580  141.1500 C   0  0  2  0  0  3  0  0  0  0  0  0
  196.8830  176.0080  140.4970 N   0  0  0  0  0  2  0  0  0  0  0  0
  1 12  1  0  0  0  0
  2  7  2  0  0  0  0
  3 10  2  0  0  0  0
  4  9  1  0  0  0  0
  5 19  1  0  0  0  0
  7  6  1  0  0  0  0
  8 15  2  0  0  0  0
  9  2  1  0  0  0  0
  9  1  2  0  0  0  0
 10 18  2  0  0  0  0
 11  5  1  0  0  0  0
 11 18  1  0  0  0  0
 12  6  2  0  0  0  0
 13  4  1  0  0  0  0
 13 20  1  0  0  0  0
 14  1  1  0  0  0  0
 15  2  1  0  0  0  0
 16  5  2  0  0  0  0
 16 17  1  0  0  0  0
 17 13  2  0  0  0  0
 18  8  1  0  0  0  0
 19  8  1  0  0  0  0
 19  4  2  0  0  0  0
 20 14  2  0  0  0  0
 21 25  1  0  0  0  0
 21 27  1  0  0  0  0
 22 21  2  0  0  0  0
 23 17  1  0  0  0  0
 23 25  2  0  0  0  0
 24 26  2  0  0  0  0
 24 22  1  0  0  0  0
 26 23  1  0  0  0  0
 29 33  1  0  0  0  0
 29 30  1  0  0  0  0
 29  3  1  1  0  0  0
 30 28  1  1  0  0  0
 31 32  1  0  0  0  0
 31 34  1  0  0  0  0
 33 32  1  6  0  0  0
 33 30  1  0  0  0  0
 34 30  1  0  0  0  0
M  END
>  <MODEL>
8

>  <REMARK>
 VINA RESULT:      -7.8      4.947     10.240
  Name = 
  2 active torsions:
  status: ('A' for Active; 'I' for Inactive)
    1  A    between atoms: C_3  and  C_13
    2  A    between atoms: C_12  and  C_28
                            x       y       z     vdW  Elec       q    Type
                         _______ _______ _______ _____ _____    ______ ____

>  <TORSDO>
F 2

$$$$
=
 OpenBabel11052418543D

 34 41  0  0  1  0  0  0  0  0999 V2000
  192.6490  172.5010  139.7550 C   0  0  0  0  0  0  0  0  0  0  0  0
  190.4420  173.4570  140.0370 C   0  0  0  0  0  0  0  0  0  0  0  0
  186.8070  176.0320  143.2740 C   0  0  0  0  0  3  0  0  0  0  0  0
  191.8890  173.0880  141.9640 C   0  0  0  0  0  0  0  0  0  0  0  0
  191.0350  173.7650  144.0810 C   0  0  0  0  0  0  0  0  0  0  0  0
  191.2380  172.8590  137.9170 N   0  0  0  0  0  0  0  0  0  0  0  0
  190.2730  173.3620  138.6950 N   0  0  0  0  0  0  0  0  0  0  0  0
  189.7080  174.0540  142.2610 C   0  0  0  0  0  0  0  0  0  0  0  0
  191.6610  173.0090  140.5890 C   0  0  0  0  0  0  0  0  0  0  0  0
  187.8820  175.2870  143.3410 C   0  0  0  0  0  0  0  0  0  0  0  0
  189.8110  174.4100  144.6640 C   0  0  0  0  0  2  0  0  0  0  0  0
  192.4040  172.4370  138.4220 N   0  0  0  0  0  0  0  0  0  0  0  0
  193.0940  172.6790  142.5580 C   0  0  0  0  0  0  0  0  0  0  0  0
  193.8700  172.0790  140.3080 C   0  0  0  0  0  3  0  0  0  0  0  0
  189.4360  173.9980  140.8810 C   0  0  0  0  0  3  0  0  0  0  0  0
  192.1890  173.3920  144.7000 N   0  0  0  0  0  0  0  0  0  0  0  0
  193.2310  172.8360  143.9830 C   0  0  0  0  0  0  0  0  0  0  0  0
  188.9560  174.5520  143.4150 C   0  0  0  0  0  0  0  0  0  0  0  0
  190.8950  173.6080  142.7470 C   0  0  0  0  0  0  0  0  0  0  0  0
  194.0920  172.1720  141.6990 C   0  0  0  0  0  3  0  0  0  0  0  0
  196.6080  172.9530  145.7480 C   0  0  0  0  0  0  0  0  0  0  0  0
  196.7650  171.6150  146.1120 C   0  0  0  0  0  3  0  0  0  0  0  0
  194.4530  172.4390  144.7340 C   0  0  0  0  0  0  0  0  0  0  0  0
  195.7760  170.6840  145.7860 C   0  0  0  0  0  3  0  0  0  0  0  0
  195.4620  173.3610  145.0600 C   0  0  0  0  0  3  0  0  0  0  0  0
  194.6300  171.0940  145.1000 C   0  0  0  0  0  3  0  0  0  0  0  0
  197.5670  173.8580  146.0580 F   0  0  0  0  0  0  0  0  0  0  0  0
  184.5890  177.5540  142.4240 O   0  0  0  0  0  1  0  0  0  0  0  0
  186.7280  177.4490  143.7850 C   0  0  1  0  0  3  0  0  0  0  0  0
  185.5180  178.1950  143.2460 C   0  0  2  0  0  0  0  0  0  0  0  0
  185.3670  180.1140  144.5520 C   0  0  0  0  0  2  0  0  0  0  0  0
  185.6960  178.9670  145.4860 C   0  0  0  0  0  2  0  0  0  0  0  0
  185.4990  177.7140  144.6720 C   0  0  2  0  0  3  0  0  0  0  0  0
  185.5740  179.6490  143.1860 N   0  0  0  0  0  2  0  0  0  0  0  0
  1 14  2  0  0  0  0
  1  9  1  0  0  0  0
  2  9  1  0  0  0  0
  2 15  1  0  0  0  0
  3 10  2  0  0  0  0
  4 13  1  0  0  0  0
  4 19  1  0  0  0  0
  5 11  1  0  0  0  0
  5 16  1  0  0  0  0
  6 12  2  0  0  0  0
  6  7  1  0  0  0  0
  7  2  2  0  0  0  0
  8 19  1  0  0  0  0
  8 18  1  0  0  0  0
  9  4  2  0  0  0  0
 10 18  2  0  0  0  0
 12  1  1  0  0  0  0
 13 17  1  0  0  0  0
 14 20  1  0  0  0  0
 15  8  2  0  0  0  0
 17 16  2  0  0  0  0
 17 23  1  0  0  0  0
 18 11  1  0  0  0  0
 19  5  2  0  0  0  0
 20 13  2  0  0  0  0
 21 27  1  0  0  0  0
 21 22  1  0  0  0  0
 23 25  1  0  0  0  0
 23 26  2  0  0  0  0
 24 22  2  0  0  0  0
 25 21  2  0  0  0  0
 26 24  1  0  0  0  0
 29  3  1  6  0  0  0
 29 33  1  0  0  0  0
 30 28  1  6  0  0  0
 30 29  1  0  0  0  0
 30 33  1  0  0  0  0
 31 32  1  0  0  0  0
 33 32  1  1  0  0  0
 34 30  1  0  0  0  0
 34 31  1  0  0  0  0
M  END
>  <MODEL>
9

>  <REMARK>
 VINA RESULT:      -7.7      4.086      8.026
  Name = 
  2 active torsions:
  status: ('A' for Active; 'I' for Inactive)
    1  A    between atoms: C_3  and  C_13
    2  A    between atoms: C_12  and  C_28
                            x       y       z     vdW  Elec       q    Type
                         _______ _______ _______ _____ _____    ______ ____

>  <TORSDO>
F 2

$$$$
