=
 OpenBabel11052418073D

 28 31  0  0  1  0  0  0  0  0999 V2000
  186.3320  178.8760  144.4110 C   0  0  1  0  0  3  0  0  0  0  0  0
  186.0270  177.6670  148.3680 O   0  0  0  0  0  0  0  0  0  0  0  0
  188.6200  175.8040  144.4220 C   0  0  2  0  0  3  0  0  0  0  0  0
  187.0570  177.3410  146.2490 C   0  0  0  0  0  0  0  0  0  0  0  0
  188.0840  177.0990  144.1260 O   0  0  0  0  0  0  0  0  0  0  0  0
  185.2330  179.0650  146.6430 C   0  0  0  0  0  3  0  0  0  0  0  0
  187.9630  176.2900  146.7500 C   0  0  0  0  0  3  0  0  0  0  0  0
  186.1060  178.0070  147.1570 C   0  0  0  0  0  0  0  0  0  0  0  0
  188.7310  175.5950  145.9110 C   0  0  0  0  0  3  0  0  0  0  0  0
  185.3260  179.4620  145.3730 C   0  0  0  0  0  3  0  0  0  0  0  0
  187.1560  177.7310  144.9650 C   0  0  0  0  0  0  0  0  0  0  0  0
  191.0390  175.2360  144.7460 C   0  0  0  0  0  2  0  0  0  0  0  0
  191.1970  173.8440  142.2770 C   0  0  0  0  0  2  0  0  0  0  0  0
  192.9560  175.4880  143.1020 C   0  0  0  0  0  0  0  0  0  0  0  0
  189.9640  175.5870  143.7190 C   0  0  1  0  0  3  0  0  0  0  0  0
  189.2280  174.9640  141.5110 O   0  0  0  0  0  1  0  0  0  0  0  0
  192.2280  174.9070  141.9150 C   0  0  0  0  0  2  0  0  0  0  0  0
  189.8530  174.4730  142.6590 C   0  0  1  0  0  3  0  0  0  0  0  0
  194.2680  175.9880  142.8840 N   0  0  0  0  0  1  0  0  0  0  0  0
  192.4030  175.6850  144.3080 C   0  0  0  0  0  3  0  0  0  0  0  0
  185.6870  178.5170  143.1050 C   0  0  0  0  0  0  0  0  0  0  0  0
  184.2960  178.4030  143.0560 C   0  0  0  0  0  3  0  0  0  0  0  0
  185.7740  177.9890  140.7440 C   0  0  0  0  0  0  0  0  0  0  0  0
  183.6730  178.0830  141.8490 C   0  0  0  0  0  3  0  0  0  0  0  0
  187.7920  178.4170  141.9510 F   0  0  0  0  0  0  0  0  0  0  0  0
  186.4380  178.3080  141.9350 C   0  0  0  0  0  0  0  0  0  0  0  0
  186.6760  177.7230  139.2640 Cl  0  0  0  0  0  0  0  0  0  0  0  0
  184.4180  177.8840  140.7280 N   0  0  0  0  0  0  0  0  0  0  0  0
  1 21  1  6  0  0  0
  1 11  1  0  0  0  0
  1 10  1  0  0  0  0
  3  9  1  1  0  0  0
  4  7  1  0  0  0  0
  4  8  1  0  0  0  0
  5  3  1  0  0  0  0
  5 11  1  0  0  0  0
  6  8  1  0  0  0  0
  8  2  2  0  0  0  0
  9  7  2  0  0  0  0
 10  6  2  0  0  0  0
 11  4  2  0  0  0  0
 13 18  1  0  0  0  0
 14 20  2  0  0  0  0
 15  3  1  0  0  0  0
 15 12  1  1  0  0  0
 17 13  1  0  0  0  0
 17 14  1  0  0  0  0
 18 16  1  6  0  0  0
 18 15  1  0  0  0  0
 19 14  1  0  0  0  0
 20 12  1  0  0  0  0
 22 21  1  0  0  0  0
 23 26  1  0  0  0  0
 24 22  2  0  0  0  0
 26 25  1  0  0  0  0
 26 21  2  0  0  0  0
 27 23  1  0  0  0  0
 28 23  2  0  0  0  0
 28 24  1  0  0  0  0
M  END
>  <MODEL>
1

>  <REMARK>
 VINA RESULT:      -8.7      0.000      0.000
  Name = 
  2 active torsions:
  status: ('A' for Active; 'I' for Inactive)
    1  A    between atoms: C_1  and  C_2
    2  A    between atoms: C_10  and  C_13
                            x       y       z     vdW  Elec       q    Type
                         _______ _______ _______ _____ _____    ______ ____

>  <TORSDO>
F 2

$$$$
=
 OpenBabel11052418073D

 28 31  0  0  1  0  0  0  0  0999 V2000
  186.5620  178.8180  144.3670 C   0  0  1  0  0  3  0  0  0  0  0  0
  185.8880  177.5490  148.2600 O   0  0  0  0  0  0  0  0  0  0  0  0
  188.7580  175.6820  144.5120 C   0  0  2  0  0  3  0  0  0  0  0  0
  187.0860  177.2310  146.2290 C   0  0  0  0  0  0  0  0  0  0  0  0
  188.2840  176.9970  144.1970 O   0  0  0  0  0  0  0  0  0  0  0  0
  185.2820  178.9990  146.5010 C   0  0  0  0  0  3  0  0  0  0  0  0
  187.9170  176.1460  146.7850 C   0  0  0  0  0  3  0  0  0  0  0  0
  186.0790  177.9070  147.0670 C   0  0  0  0  0  0  0  0  0  0  0  0
  188.7360  175.4450  146.0010 C   0  0  0  0  0  3  0  0  0  0  0  0
  185.4930  179.4140  145.2520 C   0  0  0  0  0  3  0  0  0  0  0  0
  187.3040  177.6400  144.9660 C   0  0  0  0  0  0  0  0  0  0  0  0
  191.1080  176.5410  144.3720 C   0  0  0  0  0  2  0  0  0  0  0  0
  192.2130  173.9310  144.2410 C   0  0  0  0  0  2  0  0  0  0  0  0
  192.9440  175.8640  142.7570 C   0  0  0  0  0  0  0  0  0  0  0  0
  190.1500  175.4390  143.9210 C   0  0  1  0  0  3  0  0  0  0  0  0
  190.0900  173.0560  143.5750 O   0  0  0  0  0  1  0  0  0  0  0  0
  192.7230  174.3770  142.8750 C   0  0  0  0  0  2  0  0  0  0  0  0
  190.6900  174.0580  144.3410 C   0  0  1  0  0  3  0  0  0  0  0  0
  193.9260  176.3070  141.8300 N   0  0  0  0  0  1  0  0  0  0  0  0
  192.1900  176.7930  143.3620 C   0  0  0  0  0  3  0  0  0  0  0  0
  186.0210  178.4990  143.0050 C   0  0  0  0  0  0  0  0  0  0  0  0
  186.9230  178.2570  141.9670 C   0  0  0  0  0  3  0  0  0  0  0  0
  184.1990  178.1080  141.4600 C   0  0  0  0  0  0  0  0  0  0  0  0
  186.4410  177.9450  140.6950 C   0  0  0  0  0  3  0  0  0  0  0  0
  183.7390  178.6500  143.7420 F   0  0  0  0  0  0  0  0  0  0  0  0
  184.6390  178.4240  142.7510 C   0  0  0  0  0  0  0  0  0  0  0  0
  182.4840  178.0030  141.1040 Cl  0  0  0  0  0  0  0  0  0  0  0  0
  185.1020  177.8780  140.4690 N   0  0  0  0  0  0  0  0  0  0  0  0
  1 21  1  6  0  0  0
  1 11  1  0  0  0  0
  1 10  1  0  0  0  0
  3  9  1  1  0  0  0
  4  7  1  0  0  0  0
  4  8  1  0  0  0  0
  5  3  1  0  0  0  0
  5 11  1  0  0  0  0
  6  8  1  0  0  0  0
  8  2  2  0  0  0  0
  9  7  2  0  0  0  0
 10  6  2  0  0  0  0
 11  4  2  0  0  0  0
 13 18  1  0  0  0  0
 14 17  1  0  0  0  0
 14 20  2  0  0  0  0
 15 18  1  0  0  0  0
 15 12  1  1  0  0  0
 15  3  1  0  0  0  0
 17 13  1  0  0  0  0
 18 16  1  6  0  0  0
 19 14  1  0  0  0  0
 20 12  1  0  0  0  0
 22 21  2  0  0  0  0
 23 26  2  0  0  0  0
 24 22  1  0  0  0  0
 26 21  1  0  0  0  0
 26 25  1  0  0  0  0
 27 23  1  0  0  0  0
 28 24  2  0  0  0  0
 28 23  1  0  0  0  0
M  END
>  <MODEL>
2

>  <REMARK>
 VINA RESULT:      -8.5      1.513      1.795
  Name = 
  2 active torsions:
  status: ('A' for Active; 'I' for Inactive)
    1  A    between atoms: C_1  and  C_2
    2  A    between atoms: C_10  and  C_13
                            x       y       z     vdW  Elec       q    Type
                         _______ _______ _______ _____ _____    ______ ____

>  <TORSDO>
F 2

$$$$
=
 OpenBabel11052418073D

 28 31  0  0  1  0  0  0  0  0999 V2000
  188.6370  177.1080  144.4490 C   0  0  1  0  0  3  0  0  0  0  0  0
  190.0640  174.9650  147.7020 O   0  0  0  0  0  0  0  0  0  0  0  0
  188.9990  173.6110  142.9280 C   0  0  2  0  0  3  0  0  0  0  0  0
  189.5150  174.9610  145.3880 C   0  0  0  0  0  0  0  0  0  0  0  0
  188.9970  175.0350  143.0750 O   0  0  0  0  0  0  0  0  0  0  0  0
  189.1400  176.9760  146.8890 C   0  0  0  0  0  3  0  0  0  0  0  0
  189.9990  173.5830  145.1830 C   0  0  0  0  0  3  0  0  0  0  0  0
  189.6040  175.5970  146.7150 C   0  0  0  0  0  0  0  0  0  0  0  0
  189.8040  172.9570  144.0220 C   0  0  0  0  0  3  0  0  0  0  0  0
  188.6820  177.6730  145.8480 C   0  0  0  0  0  3  0  0  0  0  0  0
  189.0500  175.6550  144.3320 C   0  0  0  0  0  0  0  0  0  0  0  0
  189.9730  171.7480  141.5640 C   0  0  0  0  0  2  0  0  0  0  0  0
  188.5930  172.5440  139.2160 C   0  0  0  0  0  2  0  0  0  0  0  0
  191.0450  171.8640  139.2660 C   0  0  0  0  0  0  0  0  0  0  0  0
  189.4950  173.1990  141.5380 C   0  0  1  0  0  3  0  0  0  0  0  0
  188.2590  174.7230  140.1410 O   0  0  0  0  0  1  0  0  0  0  0  0
  189.9920  172.7440  138.6420 C   0  0  0  0  0  2  0  0  0  0  0  0
  188.3830  173.3760  140.4850 C   0  0  1  0  0  3  0  0  0  0  0  0
  192.1700  171.5240  138.4690 N   0  0  0  0  0  1  0  0  0  0  0  0
  191.0570  171.4950  140.5560 C   0  0  0  0  0  3  0  0  0  0  0  0
  187.3050  177.3600  143.8050 C   0  0  0  0  0  0  0  0  0  0  0  0
  186.1650  177.3710  144.6120 C   0  0  0  0  0  3  0  0  0  0  0  0
  185.9070  177.8430  141.8890 C   0  0  0  0  0  0  0  0  0  0  0  0
  184.9180  177.6180  144.0360 C   0  0  0  0  0  3  0  0  0  0  0  0
  188.2700  177.6000  141.6180 F   0  0  0  0  0  0  0  0  0  0  0  0
  187.1780  177.6000  142.4250 C   0  0  0  0  0  0  0  0  0  0  0  0
  185.7080  178.1480  140.1730 Cl  0  0  0  0  0  0  0  0  0  0  0  0
  184.8150  177.8460  142.7000 N   0  0  0  0  0  0  0  0  0  0  0  0
  1 21  1  1  0  0  0
  1 10  1  0  0  0  0
  3  5  1  0  0  0  0
  3  9  1  1  0  0  0
  4  8  1  0  0  0  0
  5 11  1  0  0  0  0
  7  4  1  0  0  0  0
  8  6  1  0  0  0  0
  8  2  2  0  0  0  0
  9  7  2  0  0  0  0
 10  6  2  0  0  0  0
 11  1  1  0  0  0  0
 11  4  2  0  0  0  0
 13 18  1  0  0  0  0
 14 20  2  0  0  0  0
 15 12  1  1  0  0  0
 15  3  1  0  0  0  0
 17 13  1  0  0  0  0
 17 14  1  0  0  0  0
 18 16  1  6  0  0  0
 18 15  1  0  0  0  0
 19 14  1  0  0  0  0
 20 12  1  0  0  0  0
 21 22  1  0  0  0  0
 23 26  1  0  0  0  0
 23 28  2  0  0  0  0
 24 22  2  0  0  0  0
 25 26  1  0  0  0  0
 26 21  2  0  0  0  0
 27 23  1  0  0  0  0
 28 24  1  0  0  0  0
M  END
>  <MODEL>
3

>  <REMARK>
 VINA RESULT:      -8.0      2.501      3.608
  Name = 
  2 active torsions:
  status: ('A' for Active; 'I' for Inactive)
    1  A    between atoms: C_1  and  C_2
    2  A    between atoms: C_10  and  C_13
                            x       y       z     vdW  Elec       q    Type
                         _______ _______ _______ _____ _____    ______ ____

>  <TORSDO>
F 2

$$$$
=
 OpenBabel11052418073D

 28 31  0  0  1  0  0  0  0  0999 V2000
  187.5490  176.4890  142.7320 C   0  0  1  0  0  3  0  0  0  0  0  0
  185.2750  177.1930  146.1300 O   0  0  0  0  0  0  0  0  0  0  0  0
  189.9970  175.4460  145.4880 C   0  0  2  0  0  3  0  0  0  0  0  0
  187.3820  176.5580  145.2280 C   0  0  0  0  0  0  0  0  0  0  0  0
  189.4710  175.9800  144.2670 O   0  0  0  0  0  0  0  0  0  0  0  0
  185.3510  177.0380  143.7790 C   0  0  0  0  0  3  0  0  0  0  0  0
  188.0280  176.4850  146.5520 C   0  0  0  0  0  3  0  0  0  0  0  0
  185.9650  176.9480  145.1060 C   0  0  0  0  0  0  0  0  0  0  0  0
  189.2670  176.0090  146.6810 C   0  0  0  0  0  3  0  0  0  0  0  0
  186.0750  176.8160  142.6810 C   0  0  0  0  0  3  0  0  0  0  0  0
  188.1200  176.3280  144.1260 C   0  0  0  0  0  0  0  0  0  0  0  0
  191.9370  176.7570  144.5950 C   0  0  0  0  0  2  0  0  0  0  0  0
  193.2510  176.8100  147.1100 C   0  0  0  0  0  2  0  0  0  0  0  0
  194.4170  176.3170  144.9030 C   0  0  0  0  0  0  0  0  0  0  0  0
  191.5080  175.6780  145.5890 C   0  0  1  0  0  3  0  0  0  0  0  0
  191.9310  174.9590  147.8480 O   0  0  0  0  0  1  0  0  0  0  0  0
  194.3500  176.0420  146.3840 C   0  0  0  0  0  2  0  0  0  0  0  0
  191.9050  176.0840  147.0220 C   0  0  1  0  0  3  0  0  0  0  0  0
  195.6790  176.1660  144.2670 N   0  0  0  0  0  1  0  0  0  0  0  0
  193.3500  176.5600  144.1280 C   0  0  0  0  0  3  0  0  0  0  0  0
  187.8730  175.3140  141.8590 C   0  0  0  0  0  0  0  0  0  0  0  0
  188.1670  174.0910  142.4650 C   0  0  0  0  0  3  0  0  0  0  0  0
  188.1720  174.2680  139.6960 C   0  0  0  0  0  0  0  0  0  0  0  0
  188.4580  172.9810  141.6710 C   0  0  0  0  0  3  0  0  0  0  0  0
  187.5870  176.5820  139.8380 F   0  0  0  0  0  0  0  0  0  0  0  0
  187.8740  175.4060  140.4550 C   0  0  0  0  0  0  0  0  0  0  0  0
  188.1810  174.3440  137.9430 Cl  0  0  0  0  0  0  0  0  0  0  0  0
  188.4540  173.0910  140.3160 N   0  0  0  0  0  0  0  0  0  0  0  0
  1 21  1  6  0  0  0
  1 11  1  0  0  0  0
  3 15  1  0  0  0  0
  3  9  1  1  0  0  0
  4  7  1  0  0  0  0
  5  3  1  0  0  0  0
  6  8  1  0  0  0  0
  7  9  2  0  0  0  0
  8  4  1  0  0  0  0
  8  2  2  0  0  0  0
 10  1  1  0  0  0  0
 10  6  2  0  0  0  0
 11  5  1  0  0  0  0
 11  4  2  0  0  0  0
 14 17  1  0  0  0  0
 15 12  1  6  0  0  0
 15 18  1  0  0  0  0
 17 13  1  0  0  0  0
 18 13  1  0  0  0  0
 18 16  1  1  0  0  0
 19 14  1  0  0  0  0
 20 12  1  0  0  0  0
 20 14  2  0  0  0  0
 21 22  1  0  0  0  0
 23 28  2  0  0  0  0
 23 26  1  0  0  0  0
 24 22  2  0  0  0  0
 25 26  1  0  0  0  0
 26 21  2  0  0  0  0
 27 23  1  0  0  0  0
 28 24  1  0  0  0  0
M  END
>  <MODEL>
4

>  <REMARK>
 VINA RESULT:      -7.9      2.636      3.840
  Name = 
  2 active torsions:
  status: ('A' for Active; 'I' for Inactive)
    1  A    between atoms: C_1  and  C_2
    2  A    between atoms: C_10  and  C_13
                            x       y       z     vdW  Elec       q    Type
                         _______ _______ _______ _____ _____    ______ ____

>  <TORSDO>
F 2

$$$$
=
 OpenBabel11052418073D

 28 31  0  0  1  0  0  0  0  0999 V2000
  188.2810  176.1960  143.3820 C   0  0  1  0  0  3  0  0  0  0  0  0
  186.5960  176.6910  147.1400 O   0  0  0  0  0  0  0  0  0  0  0  0
  190.9940  174.6700  145.6140 C   0  0  2  0  0  3  0  0  0  0  0  0
  188.4830  176.0010  145.8680 C   0  0  0  0  0  0  0  0  0  0  0  0
  190.3490  175.3750  144.5470 O   0  0  0  0  0  0  0  0  0  0  0  0
  186.3170  176.7920  144.8010 C   0  0  0  0  0  3  0  0  0  0  0  0
  189.3040  175.7320  147.0640 C   0  0  0  0  0  3  0  0  0  0  0  0
  187.1060  176.5090  146.0030 C   0  0  0  0  0  0  0  0  0  0  0  0
  190.4990  175.1520  146.9540 C   0  0  0  0  0  3  0  0  0  0  0  0
  186.8520  176.6370  143.5890 C   0  0  0  0  0  3  0  0  0  0  0  0
  189.0300  175.8380  144.6490 C   0  0  0  0  0  0  0  0  0  0  0  0
  193.1040  173.4270  145.0830 C   0  0  0  0  0  2  0  0  0  0  0  0
  194.3440  175.7150  143.9490 C   0  0  0  0  0  2  0  0  0  0  0  0
  195.5030  174.1120  145.5500 C   0  0  0  0  0  0  0  0  0  0  0  0
  192.5190  174.7740  145.5050 C   0  0  1  0  0  3  0  0  0  0  0  0
  192.7880  177.1300  145.0850 O   0  0  0  0  0  1  0  0  0  0  0  0
  195.3610  175.5350  145.0710 C   0  0  0  0  0  2  0  0  0  0  0  0
  192.9230  175.8700  144.4990 C   0  0  1  0  0  3  0  0  0  0  0  0
  196.7540  173.7310  146.1060 N   0  0  0  0  0  1  0  0  0  0  0  0
  194.4950  173.2290  145.6110 C   0  0  0  0  0  3  0  0  0  0  0  0
  188.3660  175.1020  142.3580 C   0  0  0  0  0  0  0  0  0  0  0  0
  188.6370  173.8020  142.7890 C   0  0  0  0  0  3  0  0  0  0  0  0
  188.2460  174.2810  140.0840 C   0  0  0  0  0  0  0  0  0  0  0  0
  188.7080  172.7680  141.8550 C   0  0  0  0  0  3  0  0  0  0  0  0
  187.8970  176.6010  140.5400 F   0  0  0  0  0  0  0  0  0  0  0  0
  188.1670  175.3480  140.9880 C   0  0  0  0  0  0  0  0  0  0  0  0
  188.0010  174.5470  138.3680 Cl  0  0  0  0  0  0  0  0  0  0  0  0
  188.5120  173.0260  140.5340 N   0  0  0  0  0  0  0  0  0  0  0  0
  1 21  1  6  0  0  0
  1 10  1  0  0  0  0
  1 11  1  0  0  0  0
  3  9  1  1  0  0  0
  4  8  1  0  0  0  0
  4  7  1  0  0  0  0
  5 11  1  0  0  0  0
  5  3  1  0  0  0  0
  6  8  1  0  0  0  0
  8  2  2  0  0  0  0
  9  7  2  0  0  0  0
 10  6  2  0  0  0  0
 11  4  2  0  0  0  0
 12 20  1  0  0  0  0
 13 18  1  0  0  0  0
 13 17  1  0  0  0  0
 14 20  2  0  0  0  0
 14 19  1  0  0  0  0
 15 12  1  6  0  0  0
 15  3  1  0  0  0  0
 17 14  1  0  0  0  0
 18 16  1  1  0  0  0
 18 15  1  0  0  0  0
 21 22  1  0  0  0  0
 23 28  2  0  0  0  0
 23 26  1  0  0  0  0
 24 22  2  0  0  0  0
 25 26  1  0  0  0  0
 26 21  2  0  0  0  0
 27 23  1  0  0  0  0
 28 24  1  0  0  0  0
M  END
>  <MODEL>
5

>  <REMARK>
 VINA RESULT:      -7.8      2.685      3.914
  Name = 
  2 active torsions:
  status: ('A' for Active; 'I' for Inactive)
    1  A    between atoms: C_1  and  C_2
    2  A    between atoms: C_10  and  C_13
                            x       y       z     vdW  Elec       q    Type
                         _______ _______ _______ _____ _____    ______ ____

>  <TORSDO>
F 2

$$$$
=
 OpenBabel11052418073D

 28 31  0  0  1  0  0  0  0  0999 V2000
  187.8000  177.3740  144.3060 C   0  0  1  0  0  3  0  0  0  0  0  0
  185.9350  176.7360  147.9570 O   0  0  0  0  0  0  0  0  0  0  0  0
  190.0970  174.7290  145.8560 C   0  0  2  0  0  3  0  0  0  0  0  0
  187.7910  176.2610  146.5470 C   0  0  0  0  0  0  0  0  0  0  0  0
  189.6390  175.8660  145.1150 O   0  0  0  0  0  0  0  0  0  0  0  0
  185.8450  177.7210  145.8160 C   0  0  0  0  0  3  0  0  0  0  0  0
  188.4760  175.4490  147.5710 C   0  0  0  0  0  3  0  0  0  0  0  0
  186.4950  176.8990  146.8400 C   0  0  0  0  0  0  0  0  0  0  0  0
  189.5800  174.7640  147.2720 C   0  0  0  0  0  3  0  0  0  0  0  0
  186.4380  177.9330  144.6410 C   0  0  0  0  0  3  0  0  0  0  0  0
  188.3960  176.4650  145.3620 C   0  0  0  0  0  0  0  0  0  0  0  0
  192.0560  173.7950  144.6030 C   0  0  0  0  0  2  0  0  0  0  0  0
  193.7050  176.0180  145.2250 C   0  0  0  0  0  2  0  0  0  0  0  0
  194.4690  173.5950  145.3630 C   0  0  0  0  0  0  0  0  0  0  0  0
  191.6250  174.6190  145.8140 C   0  0  1  0  0  3  0  0  0  0  0  0
  192.2580  176.5950  147.0380 O   0  0  0  0  0  1  0  0  0  0  0  0
  194.5730  174.9850  145.9360 C   0  0  0  0  0  2  0  0  0  0  0  0
  192.2730  176.0170  145.7680 C   0  0  1  0  0  3  0  0  0  0  0  0
  195.5950  172.7400  145.5100 N   0  0  0  0  0  1  0  0  0  0  0  0
  193.3470  173.0700  144.8470 C   0  0  0  0  0  3  0  0  0  0  0  0
  187.8010  176.7280  142.9520 C   0  0  0  0  0  0  0  0  0  0  0  0
  188.3180  175.4360  142.8280 C   0  0  0  0  0  3  0  0  0  0  0  0
  187.3040  176.7140  140.5830 C   0  0  0  0  0  0  0  0  0  0  0  0
  188.3170  174.8110  141.5800 C   0  0  0  0  0  3  0  0  0  0  0  0
  186.7740  178.6320  141.9080 F   0  0  0  0  0  0  0  0  0  0  0  0
  187.2860  177.3780  141.8160 C   0  0  0  0  0  0  0  0  0  0  0  0
  186.6690  177.4910  139.1440 Cl  0  0  0  0  0  0  0  0  0  0  0  0
  187.8150  175.4570  140.4940 N   0  0  0  0  0  0  0  0  0  0  0  0
  1 21  1  6  0  0  0
  1 10  1  0  0  0  0
  1 11  1  0  0  0  0
  3  9  1  1  0  0  0
  4  8  1  0  0  0  0
  4  7  1  0  0  0  0
  5 11  1  0  0  0  0
  5  3  1  0  0  0  0
  6  8  1  0  0  0  0
  8  2  2  0  0  0  0
  9  7  2  0  0  0  0
 10  6  2  0  0  0  0
 11  4  2  0  0  0  0
 12 20  1  0  0  0  0
 13 18  1  0  0  0  0
 13 17  1  0  0  0  0
 14 19  1  0  0  0  0
 14 17  1  0  0  0  0
 15 12  1  6  0  0  0
 15  3  1  0  0  0  0
 18 15  1  0  0  0  0
 18 16  1  1  0  0  0
 20 14  2  0  0  0  0
 22 21  1  0  0  0  0
 23 26  1  0  0  0  0
 24 22  2  0  0  0  0
 26 25  1  0  0  0  0
 26 21  2  0  0  0  0
 27 23  1  0  0  0  0
 28 23  2  0  0  0  0
 28 24  1  0  0  0  0
M  END
>  <MODEL>
6

>  <REMARK>
 VINA RESULT:      -7.8      2.188      3.132
  Name = 
  2 active torsions:
  status: ('A' for Active; 'I' for Inactive)
    1  A    between atoms: C_1  and  C_2
    2  A    between atoms: C_10  and  C_13
                            x       y       z     vdW  Elec       q    Type
                         _______ _______ _______ _____ _____    ______ ____

>  <TORSDO>
F 2

$$$$
=
 OpenBabel11052418073D

 28 31  0  0  1  0  0  0  0  0999 V2000
  189.2180  177.0890  145.2510 C   0  0  1  0  0  3  0  0  0  0  0  0
  191.9470  175.1170  147.6750 O   0  0  0  0  0  0  0  0  0  0  0  0
  189.3140  173.6360  143.5970 C   0  0  2  0  0  3  0  0  0  0  0  0
  190.5790  175.0450  145.7310 C   0  0  0  0  0  0  0  0  0  0  0  0
  189.2330  175.0540  143.7790 O   0  0  0  0  0  0  0  0  0  0  0  0
  190.6030  177.0230  147.3260 C   0  0  0  0  0  3  0  0  0  0  0  0
  191.0790  173.7200  145.3180 C   0  0  0  0  0  3  0  0  0  0  0  0
  191.0960  175.6950  146.9490 C   0  0  0  0  0  0  0  0  0  0  0  0
  190.5250  173.0710  144.2940 C   0  0  0  0  0  3  0  0  0  0  0  0
  189.7270  177.6650  146.5520 C   0  0  0  0  0  3  0  0  0  0  0  0
  189.6930  175.6830  144.9450 C   0  0  0  0  0  0  0  0  0  0  0  0
  189.4090  174.5280  141.2580 C   0  0  0  0  0  2  0  0  0  0  0  0
  190.8100  172.2580  140.2890 C   0  0  0  0  0  2  0  0  0  0  0  0
  188.8440  173.3390  139.0880 C   0  0  0  0  0  0  0  0  0  0  0  0
  189.2930  173.2660  142.1100 C   0  0  1  0  0  3  0  0  0  0  0  0
  190.1000  170.9980  142.1920 O   0  0  0  0  0  1  0  0  0  0  0  0
  189.5810  172.0630  139.4060 C   0  0  0  0  0  2  0  0  0  0  0  0
  190.4350  172.2870  141.7740 C   0  0  1  0  0  3  0  0  0  0  0  0
  188.1120  173.3850  137.8710 N   0  0  0  0  0  1  0  0  0  0  0  0
  188.7230  174.3750  139.9310 C   0  0  0  0  0  3  0  0  0  0  0  0
  187.7250  177.2060  145.1560 C   0  0  0  0  0  0  0  0  0  0  0  0
  186.9500  176.7450  146.2220 C   0  0  0  0  0  3  0  0  0  0  0  0
  185.6950  177.8690  144.0170 C   0  0  0  0  0  0  0  0  0  0  0  0
  185.5600  176.8560  146.1600 C   0  0  0  0  0  3  0  0  0  0  0  0
  187.8220  178.2380  142.9890 F   0  0  0  0  0  0  0  0  0  0  0  0
  187.0920  177.7770  144.0380 C   0  0  0  0  0  0  0  0  0  0  0  0
  184.8700  178.5770  142.6400 Cl  0  0  0  0  0  0  0  0  0  0  0  0
  184.9670  177.4100  145.0690 N   0  0  0  0  0  0  0  0  0  0  0  0
  1 21  1  1  0  0  0
  1 10  1  0  0  0  0
  3  5  1  0  0  0  0
  3  9  1  6  0  0  0
  4  8  1  0  0  0  0
  5 11  1  0  0  0  0
  7  4  1  0  0  0  0
  8  6  1  0  0  0  0
  8  2  2  0  0  0  0
  9  7  2  0  0  0  0
 10  6  2  0  0  0  0
 11  1  1  0  0  0  0
 11  4  2  0  0  0  0
 13 18  1  0  0  0  0
 14 17  1  0  0  0  0
 14 20  2  0  0  0  0
 15 12  1  6  0  0  0
 15  3  1  0  0  0  0
 17 13  1  0  0  0  0
 18 15  1  0  0  0  0
 18 16  1  6  0  0  0
 19 14  1  0  0  0  0
 20 12  1  0  0  0  0
 21 22  1  0  0  0  0
 23 26  1  0  0  0  0
 23 28  2  0  0  0  0
 24 22  2  0  0  0  0
 25 26  1  0  0  0  0
 26 21  2  0  0  0  0
 27 23  1  0  0  0  0
 28 24  1  0  0  0  0
M  END
>  <MODEL>
7

>  <REMARK>
 VINA RESULT:      -7.8      2.911      4.369
  Name = 
  2 active torsions:
  status: ('A' for Active; 'I' for Inactive)
    1  A    between atoms: C_1  and  C_2
    2  A    between atoms: C_10  and  C_13
                            x       y       z     vdW  Elec       q    Type
                         _______ _______ _______ _____ _____    ______ ____

>  <TORSDO>
F 2

$$$$
=
 OpenBabel11052418073D

 28 31  0  0  1  0  0  0  0  0999 V2000
  192.0850  175.2290  142.2730 C   0  0  1  0  0  3  0  0  0  0  0  0
  190.2260  172.9830  139.3210 O   0  0  0  0  0  0  0  0  0  0  0  0
  188.4460  175.3110  143.4650 C   0  0  2  0  0  3  0  0  0  0  0  0
  189.9790  174.3220  141.2720 C   0  0  0  0  0  0  0  0  0  0  0  0
  189.7950  175.7040  143.1890 O   0  0  0  0  0  0  0  0  0  0  0  0
  192.2440  173.7240  140.2890 C   0  0  0  0  0  3  0  0  0  0  0  0
  188.5050  174.2730  141.2280 C   0  0  0  0  0  3  0  0  0  0  0  0
  190.7820  173.6420  140.2390 C   0  0  0  0  0  0  0  0  0  0  0  0
  187.7760  174.7730  142.2260 C   0  0  0  0  0  3  0  0  0  0  0  0
  192.8500  174.4460  141.2330 C   0  0  0  0  0  3  0  0  0  0  0  0
  190.5810  175.0490  142.2310 C   0  0  0  0  0  0  0  0  0  0  0  0
  186.2660  176.5470  143.4370 C   0  0  0  0  0  2  0  0  0  0  0  0
  186.3510  177.0630  146.2260 C   0  0  0  0  0  2  0  0  0  0  0  0
  185.7100  178.7950  144.4760 C   0  0  0  0  0  0  0  0  0  0  0  0
  187.6480  176.4640  144.0830 C   0  0  1  0  0  3  0  0  0  0  0  0
  188.7050  176.6470  146.2400 O   0  0  0  0  0  1  0  0  0  0  0  0
  186.3730  178.5280  145.8030 C   0  0  0  0  0  2  0  0  0  0  0  0
  187.5150  176.2820  145.6080 C   0  0  1  0  0  3  0  0  0  0  0  0
  185.1510  180.0850  144.2710 N   0  0  0  0  0  1  0  0  0  0  0  0
  185.7300  177.9490  143.4350 C   0  0  0  0  0  3  0  0  0  0  0  0
  192.6360  174.9860  143.6470 C   0  0  0  0  0  0  0  0  0  0  0  0
  192.7860  173.6680  144.0830 C   0  0  0  0  0  3  0  0  0  0  0  0
  193.5380  175.7480  145.7600 C   0  0  0  0  0  0  0  0  0  0  0  0
  193.3100  173.4190  145.3520 C   0  0  0  0  0  3  0  0  0  0  0  0
  192.8870  177.3330  144.0940 F   0  0  0  0  0  0  0  0  0  0  0  0
  193.0170  176.0420  144.4940 C   0  0  0  0  0  0  0  0  0  0  0  0
  194.0260  177.0370  146.8440 Cl  0  0  0  0  0  0  0  0  0  0  0  0
  193.6720  174.4540  146.1570 N   0  0  0  0  0  0  0  0  0  0  0  0
  1 21  1  1  0  0  0
  2  8  2  0  0  0  0
  3  9  1  6  0  0  0
  3 15  1  0  0  0  0
  4 11  2  0  0  0  0
  5  3  1  0  0  0  0
  6 10  2  0  0  0  0
  7  4  1  0  0  0  0
  7  9  2  0  0  0  0
  8  6  1  0  0  0  0
  8  4  1  0  0  0  0
 10  1  1  0  0  0  0
 11  1  1  0  0  0  0
 11  5  1  0  0  0  0
 14 17  1  0  0  0  0
 15 12  1  6  0  0  0
 15 18  1  0  0  0  0
 17 13  1  0  0  0  0
 18 13  1  0  0  0  0
 18 16  1  1  0  0  0
 19 14  1  0  0  0  0
 20 12  1  0  0  0  0
 20 14  2  0  0  0  0
 21 22  2  0  0  0  0
 21 26  1  0  0  0  0
 22 24  1  0  0  0  0
 23 28  1  0  0  0  0
 23 27  1  0  0  0  0
 24 28  2  0  0  0  0
 25 26  1  0  0  0  0
 26 23  2  0  0  0  0
M  END
>  <MODEL>
8

>  <REMARK>
 VINA RESULT:      -7.8      2.943      7.811
  Name = 
  2 active torsions:
  status: ('A' for Active; 'I' for Inactive)
    1  A    between atoms: C_1  and  C_2
    2  A    between atoms: C_10  and  C_13
                            x       y       z     vdW  Elec       q    Type
                         _______ _______ _______ _____ _____    ______ ____

>  <TORSDO>
F 2

$$$$
=
 OpenBabel11052418073D

 28 31  0  0  1  0  0  0  0  0999 V2000
  190.4190  175.7790  144.7980 C   0  0  1  0  0  3  0  0  0  0  0  0
  191.4660  177.2040  148.5510 O   0  0  0  0  0  0  0  0  0  0  0  0
  194.1250  174.8210  144.9430 C   0  0  2  0  0  3  0  0  0  0  0  0
  192.1860  176.2000  146.5180 C   0  0  0  0  0  0  0  0  0  0  0  0
  192.8490  175.2480  144.4510 O   0  0  0  0  0  0  0  0  0  0  0  0
  189.7490  176.7280  147.0060 C   0  0  0  0  0  3  0  0  0  0  0  0
  193.6100  176.2250  146.9050 C   0  0  0  0  0  3  0  0  0  0  0  0
  191.1550  176.7410  147.4210 C   0  0  0  0  0  0  0  0  0  0  0  0
  194.5310  175.6230  146.1530 C   0  0  0  0  0  3  0  0  0  0  0  0
  189.4040  176.2740  145.8000 C   0  0  0  0  0  3  0  0  0  0  0  0
  191.8470  175.7360  145.3010 C   0  0  0  0  0  0  0  0  0  0  0  0
  195.2330  176.2750  143.2300 C   0  0  0  0  0  2  0  0  0  0  0  0
  197.7470  174.9990  143.5530 C   0  0  0  0  0  2  0  0  0  0  0  0
  196.7260  175.5850  141.2970 C   0  0  0  0  0  0  0  0  0  0  0  0
  195.1900  174.8770  143.8430 C   0  0  1  0  0  3  0  0  0  0  0  0
  196.6690  173.1110  144.5490 O   0  0  0  0  0  1  0  0  0  0  0  0
  197.5750  174.6210  142.0860 C   0  0  0  0  0  2  0  0  0  0  0  0
  196.5750  174.4960  144.4030 C   0  0  1  0  0  3  0  0  0  0  0  0
  196.9770  175.6890  139.9020 N   0  0  0  0  0  1  0  0  0  0  0  0
  195.6690  176.2460  141.7940 C   0  0  0  0  0  3  0  0  0  0  0  0
  189.9980  174.4670  144.2050 C   0  0  0  0  0  0  0  0  0  0  0  0
  190.0290  173.3280  145.0130 C   0  0  0  0  0  3  0  0  0  0  0  0
  189.1690  173.1040  142.3840 C   0  0  0  0  0  0  0  0  0  0  0  0
  189.6290  172.0990  144.4860 C   0  0  0  0  0  3  0  0  0  0  0  0
  189.5180  175.4470  142.0650 F   0  0  0  0  0  0  0  0  0  0  0  0
  189.5620  174.3560  142.8720 C   0  0  0  0  0  0  0  0  0  0  0  0
  188.6180  172.9270  140.7280 Cl  0  0  0  0  0  0  0  0  0  0  0  0
  189.2110  172.0130  143.1950 N   0  0  0  0  0  0  0  0  0  0  0  0
  1 21  1  1  0  0  0
  1 11  1  0  0  0  0
  1 10  1  0  0  0  0
  3  9  1  1  0  0  0
  4  7  1  0  0  0  0
  4  8  1  0  0  0  0
  5  3  1  0  0  0  0
  5 11  1  0  0  0  0
  6  8  1  0  0  0  0
  8  2  2  0  0  0  0
  9  7  2  0  0  0  0
 10  6  2  0  0  0  0
 11  4  2  0  0  0  0
 13 18  1  0  0  0  0
 14 20  2  0  0  0  0
 14 17  1  0  0  0  0
 15 12  1  1  0  0  0
 15 18  1  0  0  0  0
 15  3  1  0  0  0  0
 17 13  1  0  0  0  0
 18 16  1  6  0  0  0
 19 14  1  0  0  0  0
 20 12  1  0  0  0  0
 21 22  1  0  0  0  0
 23 26  1  0  0  0  0
 23 28  2  0  0  0  0
 24 22  2  0  0  0  0
 25 26  1  0  0  0  0
 26 21  2  0  0  0  0
 27 23  1  0  0  0  0
 28 24  1  0  0  0  0
M  END
>  <MODEL>
9

>  <REMARK>
 VINA RESULT:      -7.8      4.219      5.824
  Name = 
  2 active torsions:
  status: ('A' for Active; 'I' for Inactive)
    1  A    between atoms: C_1  and  C_2
    2  A    between atoms: C_10  and  C_13
                            x       y       z     vdW  Elec       q    Type
                         _______ _______ _______ _____ _____    ______ ____

>  <TORSDO>
F 2

$$$$
