=
 OpenBabel11052417533D

 31 35  0  0  1  0  0  0  0  0999 V2000
  185.4530  177.7820  140.8360 C   0  0  0  0  0  0  0  0  0  0  0  0
  187.2990  177.2730  143.9780 C   0  0  0  0  0  0  0  0  0  0  0  0
  186.2860  177.6970  145.0420 C   0  0  2  0  0  3  0  0  0  0  0  0
  184.4680  179.3970  145.3130 C   0  0  0  0  0  3  0  0  0  0  0  0
  186.9910  177.3150  142.5970 C   0  0  0  0  0  0  0  0  0  0  0  0
  186.3960  177.4130  139.8770 C   0  0  0  0  0  3  0  0  0  0  0  0
  185.5850  178.9810  144.6970 C   0  0  0  0  0  3  0  0  0  0  0  0
  189.5040  176.3500  143.4270 C   0  0  0  0  0  0  0  0  0  0  0  0
  184.1640  178.2230  140.4310 N   0  0  0  0  0  1  0  0  0  0  0  0
  187.7780  176.6460  146.7750 C   0  0  0  0  0  2  0  0  0  0  0  0
  183.7120  178.6540  146.3960 C   0  0  0  0  0  2  0  0  0  0  0  0
  189.2030  176.4560  142.0650 C   0  0  0  0  0  3  0  0  0  0  0  0
  188.5410  176.7200  144.3790 C   0  0  0  0  0  0  0  0  0  0  0  0
  185.7660  177.7250  142.1580 N   0  0  0  0  0  0  0  0  0  0  0  0
  184.5040  177.6280  147.2180 C   0  0  0  0  0  2  0  0  0  0  0  0
  187.9600  176.9190  141.6490 C   0  0  0  0  0  0  0  0  0  0  0  0
  187.6560  176.9780  140.2880 C   0  0  0  0  0  3  0  0  0  0  0  0
  188.8220  176.5230  145.7710 N   0  0  0  0  0  2  0  0  0  0  0  0
  186.9200  177.8520  146.4440 C   0  0  2  0  0  3  0  0  0  0  0  0
  185.9080  178.1130  147.5680 C   0  0  0  0  0  2  0  0  0  0  0  0
  191.9640  177.8500  144.0260 O   0  0  0  0  0  0  0  0  0  0  0  0
  191.9610  176.5950  144.1530 C   0  0  0  0  0  0  0  0  0  0  0  0
  190.7710  175.8400  143.8730 N   0  0  0  0  0  2  0  0  0  0  0  0
  195.5150  174.5140  145.3590 C   0  0  0  0  0  0  0  0  0  0  0  0
  193.8690  175.0760  143.6790 C   0  0  0  0  0  3  0  0  0  0  0  0
  193.0620  176.7760  146.8370 F   0  0  0  0  0  0  0  0  0  0  0  0
  196.7460  173.7860  145.7620 C   0  0  0  0  0  1  0  0  0  0  0  0
  195.0270  174.3920  144.0560 C   0  0  0  0  0  3  0  0  0  0  0  0
  193.6850  176.0050  145.9100 C   0  0  0  0  0  0  0  0  0  0  0  0
  193.1840  175.8880  144.5950 C   0  0  0  0  0  0  0  0  0  0  0  0
  194.8440  175.3170  146.2820 C   0  0  0  0  0  3  0  0  0  0  0  0
  1 14  1  0  0  0  0
  2 13  2  0  0  0  0
  2  3  1  0  0  0  0
  3  7  1  6  0  0  0
  3 19  1  0  0  0  0
  4 11  1  0  0  0  0
  5  2  1  0  0  0  0
  6 17  1  0  0  0  0
  6  1  2  0  0  0  0
  7  4  2  0  0  0  0
  8 23  1  0  0  0  0
  8 13  1  0  0  0  0
  9  1  1  0  0  0  0
 11 15  1  0  0  0  0
 12  8  2  0  0  0  0
 13 18  1  0  0  0  0
 14  5  2  0  0  0  0
 15 20  1  0  0  0  0
 16 12  1  0  0  0  0
 16  5  1  0  0  0  0
 17 16  2  0  0  0  0
 18 10  1  0  0  0  0
 19 10  1  1  0  0  0
 19 20  1  0  0  0  0
 21 22  2  0  0  0  0
 22 30  1  0  0  0  0
 23 22  1  0  0  0  0
 24 27  1  0  0  0  0
 24 31  1  0  0  0  0
 25 28  1  0  0  0  0
 25 30  2  0  0  0  0
 28 24  2  0  0  0  0
 29 31  2  0  0  0  0
 29 26  1  0  0  0  0
 30 29  1  0  0  0  0
M  END
>  <MODEL>
1

>  <REMARK>
 VINA RESULT:      -9.1      0.000      0.000
  Name = 
  2 active torsions:
  status: ('A' for Active; 'I' for Inactive)
    1  A    between atoms: C_9  and  C_22
    2  A    between atoms: C_15  and  N_23
                            x       y       z     vdW  Elec       q    Type
                         _______ _______ _______ _____ _____    ______ ____

>  <TORSDO>
F 2

$$$$
=
 OpenBabel11052417533D

 31 35  0  0  1  0  0  0  0  0999 V2000
  191.1550  176.7950  147.6290 C   0  0  0  0  0  0  0  0  0  0  0  0
  188.7610  176.4200  144.8610 C   0  0  0  0  0  0  0  0  0  0  0  0
  187.5440  177.2030  145.3530 C   0  0  2  0  0  3  0  0  0  0  0  0
  186.3740  177.6650  147.5180 C   0  0  0  0  0  3  0  0  0  0  0  0
  189.9380  176.3050  145.6390 C   0  0  0  0  0  0  0  0  0  0  0  0
  192.2490  176.0570  147.1750 C   0  0  0  0  0  3  0  0  0  0  0  0
  187.2010  176.9030  146.7850 C   0  0  0  0  0  3  0  0  0  0  0  0
  189.8510  175.1350  143.0780 C   0  0  0  0  0  0  0  0  0  0  0  0
  191.2070  177.4320  148.8990 N   0  0  0  0  0  1  0  0  0  0  0  0
  186.6170  177.0870  143.0160 C   0  0  0  0  0  2  0  0  0  0  0  0
  185.6990  178.9450  147.0680 C   0  0  0  0  0  2  0  0  0  0  0  0
  190.9820  174.9800  143.8860 C   0  0  0  0  0  3  0  0  0  0  0  0
  188.7610  175.8840  143.5480 C   0  0  0  0  0  0  0  0  0  0  0  0
  190.0380  176.9020  146.8610 N   0  0  0  0  0  0  0  0  0  0  0  0
  185.5090  179.1360  145.5570 C   0  0  0  0  0  2  0  0  0  0  0  0
  191.0360  175.5660  145.1460 C   0  0  0  0  0  0  0  0  0  0  0  0
  192.1870  175.4420  145.9260 C   0  0  0  0  0  3  0  0  0  0  0  0
  187.6450  176.1150  142.6790 N   0  0  0  0  0  2  0  0  0  0  0  0
  186.2840  176.9570  144.4900 C   0  0  2  0  0  3  0  0  0  0  0  0
  185.0890  177.8500  144.8500 C   0  0  0  0  0  2  0  0  0  0  0  0
  188.6580  172.5760  142.2480 O   0  0  0  0  0  0  0  0  0  0  0  0
  189.2090  173.3080  141.3820 C   0  0  0  0  0  0  0  0  0  0  0  0
  189.7940  174.5650  141.7600 N   0  0  0  0  0  2  0  0  0  0  0  0
  189.3890  171.9990  137.2990 C   0  0  0  0  0  0  0  0  0  0  0  0
  189.9110  171.6830  139.6390 C   0  0  0  0  0  3  0  0  0  0  0  0
  188.0180  174.8020  139.1910 F   0  0  0  0  0  0  0  0  0  0  0  0
  189.4600  171.5340  135.8890 C   0  0  0  0  0  1  0  0  0  0  0  0
  189.9790  171.2440  138.3140 C   0  0  0  0  0  3  0  0  0  0  0  0
  188.6640  173.6380  138.9320 C   0  0  0  0  0  0  0  0  0  0  0  0
  189.2560  172.8800  139.9660 C   0  0  0  0  0  0  0  0  0  0  0  0
  188.7350  173.1920  137.6080 C   0  0  0  0  0  3  0  0  0  0  0  0
  1  9  1  0  0  0  0
  2  3  1  0  0  0  0
  2  5  1  0  0  0  0
  3  7  1  1  0  0  0
  5 14  1  0  0  0  0
  6  1  1  0  0  0  0
  7  4  2  0  0  0  0
  8 13  1  0  0  0  0
  8 12  2  0  0  0  0
 11  4  1  0  0  0  0
 12 16  1  0  0  0  0
 13  2  2  0  0  0  0
 14  1  2  0  0  0  0
 15 11  1  0  0  0  0
 16  5  2  0  0  0  0
 16 17  1  0  0  0  0
 17  6  2  0  0  0  0
 18 10  1  0  0  0  0
 18 13  1  0  0  0  0
 19 10  1  6  0  0  0
 19 20  1  0  0  0  0
 19  3  1  0  0  0  0
 20 15  1  0  0  0  0
 22 23  1  0  0  0  0
 22 21  2  0  0  0  0
 23  8  1  0  0  0  0
 24 31  2  0  0  0  0
 24 28  1  0  0  0  0
 25 30  1  0  0  0  0
 27 24  1  0  0  0  0
 28 25  2  0  0  0  0
 29 26  1  0  0  0  0
 29 30  2  0  0  0  0
 30 22  1  0  0  0  0
 31 29  1  0  0  0  0
M  END
>  <MODEL>
2

>  <REMARK>
 VINA RESULT:      -8.9      3.694      6.479
  Name = 
  2 active torsions:
  status: ('A' for Active; 'I' for Inactive)
    1  A    between atoms: C_9  and  C_22
    2  A    between atoms: C_15  and  N_23
                            x       y       z     vdW  Elec       q    Type
                         _______ _______ _______ _____ _____    ______ ____

>  <TORSDO>
F 2

$$$$
=
 OpenBabel11052417533D

 31 35  0  0  1  0  0  0  0  0999 V2000
  185.5490  177.7510  140.7990 C   0  0  0  0  0  0  0  0  0  0  0  0
  187.3460  176.8580  143.8820 C   0  0  0  0  0  0  0  0  0  0  0  0
  186.4720  177.4700  144.9770 C   0  0  2  0  0  3  0  0  0  0  0  0
  185.0420  179.4990  145.3060 C   0  0  0  0  0  3  0  0  0  0  0  0
  187.0120  176.9710  142.5120 C   0  0  0  0  0  0  0  0  0  0  0  0
  186.3700  177.2070  139.8100 C   0  0  0  0  0  3  0  0  0  0  0  0
  186.0340  178.8710  144.6550 C   0  0  0  0  0  3  0  0  0  0  0  0
  189.3020  175.5130  143.2630 C   0  0  0  0  0  0  0  0  0  0  0  0
  184.3630  178.4460  140.4330 N   0  0  0  0  0  1  0  0  0  0  0  0
  187.7720  176.1270  146.6620 C   0  0  0  0  0  2  0  0  0  0  0  0
  184.1840  178.9160  146.4100 C   0  0  0  0  0  2  0  0  0  0  0  0
  188.9890  175.6870  141.9110 C   0  0  0  0  0  3  0  0  0  0  0  0
  188.4630  176.0630  144.2450 C   0  0  0  0  0  0  0  0  0  0  0  0
  185.8830  177.6230  142.1110 N   0  0  0  0  0  0  0  0  0  0  0  0
  184.7770  177.7450  147.2060 C   0  0  0  0  0  2  0  0  0  0  0  0
  187.8530  176.3950  141.5340 C   0  0  0  0  0  0  0  0  0  0  0  0
  187.5270  176.5240  140.1830 C   0  0  0  0  0  3  0  0  0  0  0  0
  188.7390  175.8030  145.6270 N   0  0  0  0  0  2  0  0  0  0  0  0
  187.1650  177.4830  146.3590 C   0  0  2  0  0  3  0  0  0  0  0  0
  186.2600  177.9350  147.5140 C   0  0  0  0  0  2  0  0  0  0  0  0
  189.4690  172.6410  143.8820 O   0  0  0  0  0  0  0  0  0  0  0  0
  190.5070  173.3520  143.9720 C   0  0  0  0  0  0  0  0  0  0  0  0
  190.4540  174.7550  143.6700 N   0  0  0  0  0  2  0  0  0  0  0  0
  194.2490  171.6630  145.2200 C   0  0  0  0  0  0  0  0  0  0  0  0
  192.6680  173.4920  145.1900 C   0  0  0  0  0  3  0  0  0  0  0  0
  191.3540  170.6720  143.2320 F   0  0  0  0  0  0  0  0  0  0  0  0
  195.5490  171.0920  145.6590 C   0  0  0  0  0  1  0  0  0  0  0  0
  193.8900  172.9570  145.6030 C   0  0  0  0  0  3  0  0  0  0  0  0
  192.1640  171.4380  144.0050 C   0  0  0  0  0  0  0  0  0  0  0  0
  191.7910  172.7450  144.3880 C   0  0  0  0  0  0  0  0  0  0  0  0
  193.3880  170.9080  144.4230 C   0  0  0  0  0  3  0  0  0  0  0  0
  1 14  1  0  0  0  0
  2 13  2  0  0  0  0
  2  3  1  0  0  0  0
  3  7  1  6  0  0  0
  3 19  1  0  0  0  0
  4 11  1  0  0  0  0
  5  2  1  0  0  0  0
  6 17  1  0  0  0  0
  6  1  2  0  0  0  0
  7  4  2  0  0  0  0
  8 23  1  0  0  0  0
  8 13  1  0  0  0  0
  9  1  1  0  0  0  0
 11 15  1  0  0  0  0
 12  8  2  0  0  0  0
 13 18  1  0  0  0  0
 14  5  2  0  0  0  0
 15 20  1  0  0  0  0
 16 12  1  0  0  0  0
 16  5  1  0  0  0  0
 17 16  2  0  0  0  0
 18 10  1  0  0  0  0
 19 10  1  1  0  0  0
 19 20  1  0  0  0  0
 21 22  2  0  0  0  0
 22 30  1  0  0  0  0
 23 22  1  0  0  0  0
 24 28  1  0  0  0  0
 24 27  1  0  0  0  0
 25 28  2  0  0  0  0
 26 29  1  0  0  0  0
 29 30  2  0  0  0  0
 29 31  1  0  0  0  0
 30 25  1  0  0  0  0
 31 24  2  0  0  0  0
M  END
>  <MODEL>
3

>  <REMARK>
 VINA RESULT:      -8.8      2.371      2.539
  Name = 
  2 active torsions:
  status: ('A' for Active; 'I' for Inactive)
    1  A    between atoms: C_9  and  C_22
    2  A    between atoms: C_15  and  N_23
                            x       y       z     vdW  Elec       q    Type
                         _______ _______ _______ _____ _____    ______ ____

>  <TORSDO>
F 2

$$$$
=
 OpenBabel11052417533D

 31 35  0  0  1  0  0  0  0  0999 V2000
  184.5470  178.0230  141.3590 C   0  0  0  0  0  0  0  0  0  0  0  0
  187.1890  177.7920  143.9090 C   0  0  0  0  0  0  0  0  0  0  0  0
  186.4070  177.8750  145.2200 C   0  0  2  0  0  3  0  0  0  0  0  0
  184.3760  179.0390  146.1090 C   0  0  0  0  0  3  0  0  0  0  0  0
  186.5430  177.8440  142.6510 C   0  0  0  0  0  0  0  0  0  0  0  0
  185.2780  177.9690  140.1720 C   0  0  0  0  0  3  0  0  0  0  0  0
  185.3670  178.9600  145.2080 C   0  0  0  0  0  3  0  0  0  0  0  0
  189.3360  177.4930  142.7590 C   0  0  0  0  0  0  0  0  0  0  0  0
  183.1320  178.1500  141.3160 N   0  0  0  0  0  1  0  0  0  0  0  0
  188.4860  177.1230  146.4220 C   0  0  0  0  0  2  0  0  0  0  0  0
  184.1080  178.0600  147.2340 C   0  0  0  0  0  2  0  0  0  0  0  0
  188.6870  177.6090  141.5260 C   0  0  0  0  0  3  0  0  0  0  0  0
  188.5850  177.5450  143.9450 C   0  0  0  0  0  0  0  0  0  0  0  0
  185.1870  177.9600  142.5580 N   0  0  0  0  0  0  0  0  0  0  0  0
  185.2940  177.2150  147.7180 C   0  0  0  0  0  2  0  0  0  0  0  0
  187.3070  177.7700  141.4660 C   0  0  0  0  0  0  0  0  0  0  0  0
  186.6650  177.8390  140.2280 C   0  0  0  0  0  3  0  0  0  0  0  0
  189.2440  177.3340  145.2000 N   0  0  0  0  0  2  0  0  0  0  0  0
  187.3200  178.0920  146.4490 C   0  0  2  0  0  3  0  0  0  0  0  0
  186.5910  178.0140  147.7980 C   0  0  0  0  0  2  0  0  0  0  0  0
  190.8220  174.9520  142.7400 O   0  0  0  0  0  0  0  0  0  0  0  0
  191.4570  176.0380  142.8320 C   0  0  0  0  0  0  0  0  0  0  0  0
  190.7570  177.2920  142.8380 N   0  0  0  0  0  2  0  0  0  0  0  0
  195.7330  176.0380  143.2040 C   0  0  0  0  0  0  0  0  0  0  0  0
  193.5360  176.4110  144.1420 C   0  0  0  0  0  3  0  0  0  0  0  0
  193.2300  175.2690  140.6610 F   0  0  0  0  0  0  0  0  0  0  0  0
  197.2120  176.0440  143.3470 C   0  0  0  0  0  1  0  0  0  0  0  0
  194.9260  176.4170  144.2780 C   0  0  0  0  0  3  0  0  0  0  0  0
  193.7590  175.6480  141.8520 C   0  0  0  0  0  0  0  0  0  0  0  0
  192.9340  176.0290  142.9330 C   0  0  0  0  0  0  0  0  0  0  0  0
  195.1500  175.6560  141.9950 C   0  0  0  0  0  3  0  0  0  0  0  0
  1 14  1  0  0  0  0
  2 13  2  0  0  0  0
  2  3  1  0  0  0  0
  3  7  1  6  0  0  0
  3 19  1  0  0  0  0
  4 11  1  0  0  0  0
  5  2  1  0  0  0  0
  6 17  1  0  0  0  0
  6  1  2  0  0  0  0
  7  4  2  0  0  0  0
  8 23  1  0  0  0  0
  8 13  1  0  0  0  0
  9  1  1  0  0  0  0
 11 15  1  0  0  0  0
 12  8  2  0  0  0  0
 13 18  1  0  0  0  0
 14  5  2  0  0  0  0
 15 20  1  0  0  0  0
 16 12  1  0  0  0  0
 16  5  1  0  0  0  0
 17 16  2  0  0  0  0
 18 10  1  0  0  0  0
 19 10  1  1  0  0  0
 19 20  1  0  0  0  0
 21 22  2  0  0  0  0
 22 23  1  0  0  0  0
 22 30  1  0  0  0  0
 24 27  1  0  0  0  0
 24 28  1  0  0  0  0
 25 28  2  0  0  0  0
 26 29  1  0  0  0  0
 29 31  1  0  0  0  0
 29 30  2  0  0  0  0
 30 25  1  0  0  0  0
 31 24  2  0  0  0  0
M  END
>  <MODEL>
4

>  <REMARK>
 VINA RESULT:      -8.6      1.838      2.120
  Name = 
  2 active torsions:
  status: ('A' for Active; 'I' for Inactive)
    1  A    between atoms: C_9  and  C_22
    2  A    between atoms: C_15  and  N_23
                            x       y       z     vdW  Elec       q    Type
                         _______ _______ _______ _____ _____    ______ ____

>  <TORSDO>
F 2

$$$$
=
 OpenBabel11052417533D

 31 35  0  0  1  0  0  0  0  0999 V2000
  185.9010  177.8320  146.2170 C   0  0  0  0  0  0  0  0  0  0  0  0
  188.7730  176.1850  144.6120 C   0  0  0  0  0  0  0  0  0  0  0  0
  189.8270  176.1810  145.7190 C   0  0  2  0  0  3  0  0  0  0  0  0
  190.5550  177.6560  147.6060 C   0  0  0  0  0  3  0  0  0  0  0  0
  187.4860  176.7400  144.8100 C   0  0  0  0  0  0  0  0  0  0  0  0
  184.9570  177.8490  145.1890 C   0  0  0  0  0  3  0  0  0  0  0  0
  189.9260  177.5000  146.4310 C   0  0  0  0  0  3  0  0  0  0  0  0
  188.1080  175.5350  142.3410 C   0  0  0  0  0  0  0  0  0  0  0  0
  185.5790  178.3920  147.4830 N   0  0  0  0  0  1  0  0  0  0  0  0
  191.1640  174.5580  144.3360 C   0  0  0  0  0  2  0  0  0  0  0  0
  191.2140  176.5620  148.4220 C   0  0  0  0  0  2  0  0  0  0  0  0
  186.8640  176.1420  142.5350 C   0  0  0  0  0  3  0  0  0  0  0  0
  189.0440  175.5220  143.3880 C   0  0  0  0  0  0  0  0  0  0  0  0
  187.1280  177.2850  146.0080 N   0  0  0  0  0  0  0  0  0  0  0  0
  191.6590  175.3030  147.6650 C   0  0  0  0  0  2  0  0  0  0  0  0
  186.5450  176.7270  143.7560 C   0  0  0  0  0  0  0  0  0  0  0  0
  185.2840  177.2910  143.9530 C   0  0  0  0  0  3  0  0  0  0  0  0
  190.2800  174.8190  143.2120 N   0  0  0  0  0  2  0  0  0  0  0  0
  191.2340  175.8000  145.2040 C   0  0  2  0  0  3  0  0  0  0  0  0
  192.2840  175.6220  146.3100 C   0  0  0  0  0  2  0  0  0  0  0  0
  187.7270  172.7170  141.5810 O   0  0  0  0  0  0  0  0  0  0  0  0
  188.2480  173.5130  140.7540 C   0  0  0  0  0  0  0  0  0  0  0  0
  188.4390  174.8950  141.0970 N   0  0  0  0  0  2  0  0  0  0  0  0
  189.4910  172.0490  136.9160 C   0  0  0  0  0  0  0  0  0  0  0  0
  189.3850  171.8310  139.3220 C   0  0  0  0  0  3  0  0  0  0  0  0
  187.6660  174.9050  138.2690 F   0  0  0  0  0  0  0  0  0  0  0  0
  189.9290  171.5310  135.5940 C   0  0  0  0  0  1  0  0  0  0  0  0
  189.7970  171.3420  138.0800 C   0  0  0  0  0  3  0  0  0  0  0  0
  188.3600  173.7400  138.2350 C   0  0  0  0  0  0  0  0  0  0  0  0
  188.6640  173.0310  139.4180 C   0  0  0  0  0  0  0  0  0  0  0  0
  188.7750  173.2450  136.9950 C   0  0  0  0  0  3  0  0  0  0  0  0
  1  9  1  0  0  0  0
  2  5  1  0  0  0  0
  2  3  1  0  0  0  0
  3  7  1  6  0  0  0
  4 11  1  0  0  0  0
  5 14  2  0  0  0  0
  6  1  2  0  0  0  0
  7  4  2  0  0  0  0
  8 12  2  0  0  0  0
  8 13  1  0  0  0  0
 12 16  1  0  0  0  0
 13  2  2  0  0  0  0
 14  1  1  0  0  0  0
 15 11  1  0  0  0  0
 16 17  2  0  0  0  0
 16  5  1  0  0  0  0
 17  6  1  0  0  0  0
 18 13  1  0  0  0  0
 18 10  1  0  0  0  0
 19 10  1  1  0  0  0
 19  3  1  0  0  0  0
 19 20  1  0  0  0  0
 20 15  1  0  0  0  0
 22 23  1  0  0  0  0
 22 21  2  0  0  0  0
 23  8  1  0  0  0  0
 24 31  2  0  0  0  0
 24 28  1  0  0  0  0
 25 30  1  0  0  0  0
 27 24  1  0  0  0  0
 28 25  2  0  0  0  0
 29 26  1  0  0  0  0
 29 30  2  0  0  0  0
 30 22  1  0  0  0  0
 31 29  1  0  0  0  0
M  END
>  <MODEL>
5

>  <REMARK>
 VINA RESULT:      -8.2      3.971      6.620
  Name = 
  2 active torsions:
  status: ('A' for Active; 'I' for Inactive)
    1  A    between atoms: C_9  and  C_22
    2  A    between atoms: C_15  and  N_23
                            x       y       z     vdW  Elec       q    Type
                         _______ _______ _______ _____ _____    ______ ____

>  <TORSDO>
F 2

$$$$
=
 OpenBabel11052417533D

 31 35  0  0  1  0  0  0  0  0999 V2000
  190.4080  177.2730  147.6460 C   0  0  0  0  0  0  0  0  0  0  0  0
  188.4400  176.2210  144.7210 C   0  0  0  0  0  0  0  0  0  0  0  0
  187.2960  177.2340  144.6960 C   0  0  2  0  0  3  0  0  0  0  0  0
  185.8910  178.5010  146.3370 C   0  0  0  0  0  3  0  0  0  0  0  0
  189.4520  176.2630  145.7100 C   0  0  0  0  0  0  0  0  0  0  0  0
  191.4330  176.3270  147.6680 C   0  0  0  0  0  3  0  0  0  0  0  0
  186.6940  177.4640  146.0540 C   0  0  0  0  0  3  0  0  0  0  0  0
  189.5840  174.3170  143.6770 C   0  0  0  0  0  0  0  0  0  0  0  0
  190.3600  178.2900  148.6380 N   0  0  0  0  0  1  0  0  0  0  0  0
  186.7330  176.4310  142.3780 C   0  0  0  0  0  2  0  0  0  0  0  0
  185.4960  179.6140  145.3870 C   0  0  0  0  0  2  0  0  0  0  0  0
  190.5390  174.3360  144.6980 C   0  0  0  0  0  3  0  0  0  0  0  0
  188.5610  175.2800  143.6670 C   0  0  0  0  0  0  0  0  0  0  0  0
  189.4520  177.2220  146.6800 N   0  0  0  0  0  0  0  0  0  0  0  0
  185.5730  179.3050  143.8850 C   0  0  0  0  0  2  0  0  0  0  0  0
  190.4870  175.3020  145.6970 C   0  0  0  0  0  0  0  0  0  0  0  0
  191.4720  175.3380  146.6860 C   0  0  0  0  0  3  0  0  0  0  0  0
  187.6400  175.3110  142.5690 N   0  0  0  0  0  2  0  0  0  0  0  0
  186.1620  176.8330  143.7240 C   0  0  2  0  0  3  0  0  0  0  0  0
  185.0760  177.9030  143.5460 C   0  0  0  0  0  2  0  0  0  0  0  0
  191.3590  174.2880  141.3300 O   0  0  0  0  0  0  0  0  0  0  0  0
  190.5180  173.3610  141.4780 C   0  0  0  0  0  0  0  0  0  0  0  0
  189.6440  173.3480  142.6180 N   0  0  0  0  0  2  0  0  0  0  0  0
  190.1920  170.2510  138.5380 C   0  0  0  0  0  0  0  0  0  0  0  0
  189.5240  172.4050  139.4110 C   0  0  0  0  0  3  0  0  0  0  0  0
  192.1040  170.9270  141.5720 F   0  0  0  0  0  0  0  0  0  0  0  0
  190.0680  169.1820  137.5130 C   0  0  0  0  0  1  0  0  0  0  0  0
  189.4060  171.4010  138.4470 C   0  0  0  0  0  3  0  0  0  0  0  0
  191.2160  171.1060  140.5620 C   0  0  0  0  0  0  0  0  0  0  0  0
  190.4260  172.2730  140.4780 C   0  0  0  0  0  0  0  0  0  0  0  0
  191.0930  170.1050  139.5930 C   0  0  0  0  0  3  0  0  0  0  0  0
  1  6  1  0  0  0  0
  1  9  1  0  0  0  0
  2  5  1  0  0  0  0
  3  2  1  0  0  0  0
  3  7  1  1  0  0  0
  5 14  1  0  0  0  0
  7  4  2  0  0  0  0
  8 12  2  0  0  0  0
 10 18  1  0  0  0  0
 11  4  1  0  0  0  0
 12 16  1  0  0  0  0
 13  8  1  0  0  0  0
 13  2  2  0  0  0  0
 14  1  2  0  0  0  0
 15 11  1  0  0  0  0
 16  5  2  0  0  0  0
 16 17  1  0  0  0  0
 17  6  2  0  0  0  0
 18 13  1  0  0  0  0
 19 10  1  6  0  0  0
 19  3  1  0  0  0  0
 20 19  1  0  0  0  0
 20 15  1  0  0  0  0
 21 22  2  0  0  0  0
 22 23  1  0  0  0  0
 23  8  1  0  0  0  0
 24 31  1  0  0  0  0
 25 30  2  0  0  0  0
 27 24  1  0  0  0  0
 28 24  2  0  0  0  0
 28 25  1  0  0  0  0
 29 26  1  0  0  0  0
 30 29  1  0  0  0  0
 30 22  1  0  0  0  0
 31 29  2  0  0  0  0
M  END
>  <MODEL>
6

>  <REMARK>
 VINA RESULT:      -8.2      3.907      6.089
  Name = 
  2 active torsions:
  status: ('A' for Active; 'I' for Inactive)
    1  A    between atoms: C_9  and  C_22
    2  A    between atoms: C_15  and  N_23
                            x       y       z     vdW  Elec       q    Type
                         _______ _______ _______ _____ _____    ______ ____

>  <TORSDO>
F 2

$$$$
=
 OpenBabel11052417533D

 31 35  0  0  1  0  0  0  0  0999 V2000
  192.9170  169.9350  142.3800 C   0  0  0  0  0  0  0  0  0  0  0  0
  192.3920  173.1300  144.1270 C   0  0  0  0  0  0  0  0  0  0  0  0
  193.7770  173.4410  144.6930 C   0  0  2  0  0  3  0  0  0  0  0  0
  195.7300  172.1910  145.6380 C   0  0  0  0  0  3  0  0  0  0  0  0
  192.1430  171.9620  143.3680 C   0  0  0  0  0  0  0  0  0  0  0  0
  191.6410  169.6540  141.8890 C   0  0  0  0  0  3  0  0  0  0  0  0
  194.4240  172.2470  145.3370 C   0  0  0  0  0  3  0  0  0  0  0  0
  190.0600  173.8120  143.7860 C   0  0  0  0  0  0  0  0  0  0  0  0
  193.9870  169.0330  142.1310 N   0  0  0  0  0  1  0  0  0  0  0  0
  192.9710  175.7750  145.1830 C   0  0  0  0  0  2  0  0  0  0  0  0
  196.7620  173.2640  145.3530 C   0  0  0  0  0  2  0  0  0  0  0  0
  189.8180  172.6230  143.0910 C   0  0  0  0  0  3  0  0  0  0  0  0
  191.3510  174.0820  144.2690 C   0  0  0  0  0  0  0  0  0  0  0  0
  193.1370  171.0690  143.0980 N   0  0  0  0  0  0  0  0  0  0  0  0
  196.2450  174.6990  145.1860 C   0  0  0  0  0  2  0  0  0  0  0  0
  190.8450  171.7120  142.8700 C   0  0  0  0  0  0  0  0  0  0  0  0
  190.6010  170.5500  142.1360 C   0  0  0  0  0  3  0  0  0  0  0  0
  191.6120  175.3420  144.9000 N   0  0  0  0  0  2  0  0  0  0  0  0
  193.7580  174.5960  145.7220 C   0  0  2  0  0  3  0  0  0  0  0  0
  195.1490  175.0490  146.1880 C   0  0  0  0  0  2  0  0  0  0  0  0
  189.0240  175.8100  141.8890 O   0  0  0  0  0  0  0  0  0  0  0  0
  188.5350  175.7500  143.0490 C   0  0  0  0  0  0  0  0  0  0  0  0
  189.0180  174.7800  143.9930 N   0  0  0  0  0  2  0  0  0  0  0  0
  185.3480  178.4030  144.1580 C   0  0  0  0  0  0  0  0  0  0  0  0
  186.1840  176.5360  142.8680 C   0  0  0  0  0  3  0  0  0  0  0  0
  188.8630  177.8870  144.9920 F   0  0  0  0  0  0  0  0  0  0  0  0
  184.2360  179.3140  144.5310 C   0  0  0  0  0  1  0  0  0  0  0  0
  185.1370  177.3920  143.2180 C   0  0  0  0  0  3  0  0  0  0  0  0
  187.6570  177.7040  144.3990 C   0  0  0  0  0  0  0  0  0  0  0  0
  187.4530  176.6790  143.4500 C   0  0  0  0  0  0  0  0  0  0  0  0
  186.6050  178.5570  144.7450 C   0  0  0  0  0  3  0  0  0  0  0  0
  1 14  1  0  0  0  0
  2 13  2  0  0  0  0
  2  3  1  0  0  0  0
  3  7  1  1  0  0  0
  3 19  1  0  0  0  0
  5  2  1  0  0  0  0
  6 17  1  0  0  0  0
  6  1  2  0  0  0  0
  7  4  2  0  0  0  0
  8 23  1  0  0  0  0
  8 13  1  0  0  0  0
  9  1  1  0  0  0  0
 11  4  1  0  0  0  0
 12  8  2  0  0  0  0
 13 18  1  0  0  0  0
 14  5  2  0  0  0  0
 15 11  1  0  0  0  0
 15 20  1  0  0  0  0
 16 12  1  0  0  0  0
 16  5  1  0  0  0  0
 17 16  2  0  0  0  0
 18 10  1  0  0  0  0
 19 10  1  6  0  0  0
 19 20  1  0  0  0  0
 21 22  2  0  0  0  0
 22 30  1  0  0  0  0
 22 23  1  0  0  0  0
 24 27  1  0  0  0  0
 24 31  1  0  0  0  0
 25 28  1  0  0  0  0
 25 30  2  0  0  0  0
 28 24  2  0  0  0  0
 29 31  2  0  0  0  0
 29 26  1  0  0  0  0
 30 29  1  0  0  0  0
M  END
>  <MODEL>
7

>  <REMARK>
 VINA RESULT:      -7.9      3.248      8.683
  Name = 
  2 active torsions:
  status: ('A' for Active; 'I' for Inactive)
    1  A    between atoms: C_9  and  C_22
    2  A    between atoms: C_15  and  N_23
                            x       y       z     vdW  Elec       q    Type
                         _______ _______ _______ _____ _____    ______ ____

>  <TORSDO>
F 2

$$$$
=
 OpenBabel11052417533D

 31 35  0  0  1  0  0  0  0  0999 V2000
  191.3200  176.0150  146.6480 C   0  0  0  0  0  0  0  0  0  0  0  0
  189.3780  175.3710  143.5910 C   0  0  0  0  0  0  0  0  0  0  0  0
  190.2870  174.4310  142.7990 C   0  0  2  0  0  3  0  0  0  0  0  0
  192.7380  174.0940  142.4150 C   0  0  0  0  0  3  0  0  0  0  0  0
  189.7500  175.8760  144.8590 C   0  0  0  0  0  0  0  0  0  0  0  0
  190.4880  176.8900  147.3480 C   0  0  0  0  0  3  0  0  0  0  0  0
  191.7200  174.8860  142.7850 C   0  0  0  0  0  3  0  0  0  0  0  0
  187.2330  176.5460  143.7880 C   0  0  0  0  0  0  0  0  0  0  0  0
  192.5710  175.6300  147.2030 N   0  0  0  0  0  1  0  0  0  0  0  0
  188.3380  173.9410  141.2850 C   0  0  0  0  0  2  0  0  0  0  0  0
  192.6390  172.6390  142.0040 C   0  0  0  0  0  2  0  0  0  0  0  0
  187.6440  177.0840  145.0110 C   0  0  0  0  0  3  0  0  0  0  0  0
  188.0800  175.6630  143.0990 C   0  0  0  0  0  0  0  0  0  0  0  0
  190.9380  175.5330  145.4360 N   0  0  0  0  0  0  0  0  0  0  0  0
  191.2810  172.1570  141.4750 C   0  0  0  0  0  2  0  0  0  0  0  0
  188.8800  176.7470  145.5520 C   0  0  0  0  0  0  0  0  0  0  0  0
  189.2610  177.2550  146.7950 C   0  0  0  0  0  3  0  0  0  0  0  0
  187.6140  175.0450  141.8930 N   0  0  0  0  0  2  0  0  0  0  0  0
  189.8240  174.2400  141.3370 C   0  0  2  0  0  3  0  0  0  0  0  0
  190.6120  173.1770  140.5590 C   0  0  0  0  0  2  0  0  0  0  0  0
  186.4060  178.9730  142.3420 O   0  0  0  0  0  0  0  0  0  0  0  0
  185.5650  178.0540  142.5350 C   0  0  0  0  0  0  0  0  0  0  0  0
  185.9440  176.8570  143.2330 N   0  0  0  0  0  2  0  0  0  0  0  0
  181.5650  178.4500  141.0300 C   0  0  0  0  0  0  0  0  0  0  0  0
  183.8880  177.8550  140.7130 C   0  0  0  0  0  3  0  0  0  0  0  0
  183.3560  179.0240  144.1570 F   0  0  0  0  0  0  0  0  0  0  0  0
  180.1850  178.5830  140.4950 C   0  0  0  0  0  1  0  0  0  0  0  0
  182.5910  177.9790  140.2080 C   0  0  0  0  0  3  0  0  0  0  0  0
  183.1330  178.6770  142.8650 C   0  0  0  0  0  0  0  0  0  0  0  0
  184.1770  178.2010  142.0420 C   0  0  0  0  0  0  0  0  0  0  0  0
  181.8370  178.7980  142.3540 C   0  0  0  0  0  3  0  0  0  0  0  0
  1  9  1  0  0  0  0
  1  6  1  0  0  0  0
  2  5  1  0  0  0  0
  3  7  1  6  0  0  0
  3  2  1  0  0  0  0
  4  7  2  0  0  0  0
  5 14  1  0  0  0  0
  5 16  2  0  0  0  0
  8 12  2  0  0  0  0
 10 19  1  0  0  0  0
 10 18  1  0  0  0  0
 11  4  1  0  0  0  0
 12 16  1  0  0  0  0
 13  2  2  0  0  0  0
 13  8  1  0  0  0  0
 14  1  2  0  0  0  0
 15 11  1  0  0  0  0
 16 17  1  0  0  0  0
 17  6  2  0  0  0  0
 18 13  1  0  0  0  0
 19 20  1  1  0  0  0
 19  3  1  0  0  0  0
 20 15  1  0  0  0  0
 21 22  2  0  0  0  0
 22 23  1  0  0  0  0
 23  8  1  0  0  0  0
 24 31  1  0  0  0  0
 25 30  2  0  0  0  0
 27 24  1  0  0  0  0
 28 25  1  0  0  0  0
 28 24  2  0  0  0  0
 29 26  1  0  0  0  0
 30 22  1  0  0  0  0
 30 29  1  0  0  0  0
 31 29  2  0  0  0  0
M  END
>  <MODEL>
8

>  <REMARK>
 VINA RESULT:      -7.8      3.380      9.040
  Name = 
  2 active torsions:
  status: ('A' for Active; 'I' for Inactive)
    1  A    between atoms: C_9  and  C_22
    2  A    between atoms: C_15  and  N_23
                            x       y       z     vdW  Elec       q    Type
                         _______ _______ _______ _____ _____    ______ ____

>  <TORSDO>
F 2

$$$$
=
 OpenBabel11052417533D

 31 35  0  0  1  0  0  0  0  0999 V2000
  185.3570  178.2880  146.6430 C   0  0  0  0  0  0  0  0  0  0  0  0
  187.7690  176.7330  144.3410 C   0  0  0  0  0  0  0  0  0  0  0  0
  187.1770  177.0420  142.9650 C   0  0  2  0  0  3  0  0  0  0  0  0
  184.9150  177.2560  141.9140 C   0  0  0  0  0  3  0  0  0  0  0  0
  187.1410  177.1590  145.5350 C   0  0  0  0  0  0  0  0  0  0  0  0
  185.8980  177.9780  147.8910 C   0  0  0  0  0  3  0  0  0  0  0  0
  185.6970  176.7920  142.9000 C   0  0  0  0  0  3  0  0  0  0  0  0
  189.5900  175.7740  145.6770 C   0  0  0  0  0  0  0  0  0  0  0  0
  184.1480  179.0310  146.5590 N   0  0  0  0  0  1  0  0  0  0  0  0
  189.3650  176.3290  141.9460 C   0  0  0  0  0  2  0  0  0  0  0  0
  185.3580  178.1250  140.7540 C   0  0  0  0  0  2  0  0  0  0  0  0
  188.9230  176.1490  146.8470 C   0  0  0  0  0  3  0  0  0  0  0  0
  189.0340  176.0980  144.4290 C   0  0  0  0  0  0  0  0  0  0  0  0
  185.9830  177.8780  145.5070 N   0  0  0  0  0  0  0  0  0  0  0  0
  186.8410  178.0650  140.3660 C   0  0  0  0  0  2  0  0  0  0  0  0
  187.7210  176.8450  146.7840 C   0  0  0  0  0  0  0  0  0  0  0  0
  187.0880  177.2540  147.9590 C   0  0  0  0  0  3  0  0  0  0  0  0
  189.7670  175.7910  143.2360 N   0  0  0  0  0  2  0  0  0  0  0  0
  187.8560  176.2430  141.8280 C   0  0  2  0  0  3  0  0  0  0  0  0
  187.4050  176.6480  140.4180 C   0  0  0  0  0  2  0  0  0  0  0  0
  192.2910  176.8880  145.3220 O   0  0  0  0  0  0  0  0  0  0  0  0
  192.1570  175.6540  145.5420 C   0  0  0  0  0  0  0  0  0  0  0  0
  190.8500  175.0860  145.7250 N   0  0  0  0  0  2  0  0  0  0  0  0
  195.5640  173.0500  145.7340 C   0  0  0  0  0  0  0  0  0  0  0  0
  193.2140  173.4190  145.2940 C   0  0  0  0  0  3  0  0  0  0  0  0
  194.8030  176.5700  146.3240 F   0  0  0  0  0  0  0  0  0  0  0  0
  196.7340  172.1370  145.7970 C   0  0  0  0  0  1  0  0  0  0  0  0
  194.3140  172.5590  145.3530 C   0  0  0  0  0  3  0  0  0  0  0  0
  194.6160  175.2660  146.0020 C   0  0  0  0  0  0  0  0  0  0  0  0
  193.3490  174.7780  145.6170 C   0  0  0  0  0  0  0  0  0  0  0  0
  195.7130  174.3990  146.0580 C   0  0  0  0  0  3  0  0  0  0  0  0
  1  6  1  0  0  0  0
  2 13  2  0  0  0  0
  2  5  1  0  0  0  0
  3  7  1  1  0  0  0
  3  2  1  0  0  0  0
  4  7  2  0  0  0  0
  5 16  2  0  0  0  0
  6 17  2  0  0  0  0
  8 23  1  0  0  0  0
  8 12  2  0  0  0  0
  9  1  1  0  0  0  0
 10 18  1  0  0  0  0
 11  4  1  0  0  0  0
 13  8  1  0  0  0  0
 14  5  1  0  0  0  0
 14  1  2  0  0  0  0
 15 20  1  0  0  0  0
 15 11  1  0  0  0  0
 16 12  1  0  0  0  0
 16 17  1  0  0  0  0
 18 13  1  0  0  0  0
 19 20  1  6  0  0  0
 19 10  1  0  0  0  0
 19  3  1  0  0  0  0
 21 22  2  0  0  0  0
 22 30  1  0  0  0  0
 22 23  1  0  0  0  0
 24 27  1  0  0  0  0
 24 31  1  0  0  0  0
 25 28  1  0  0  0  0
 25 30  2  0  0  0  0
 28 24  2  0  0  0  0
 29 31  2  0  0  0  0
 29 26  1  0  0  0  0
 30 29  1  0  0  0  0
M  END
>  <MODEL>
9

>  <REMARK>
 VINA RESULT:      -7.8      1.713      4.167
  Name = 
  2 active torsions:
  status: ('A' for Active; 'I' for Inactive)
    1  A    between atoms: C_9  and  C_22
    2  A    between atoms: C_15  and  N_23
                            x       y       z     vdW  Elec       q    Type
                         _______ _______ _______ _____ _____    ______ ____

>  <TORSDO>
F 2

$$$$
