=
 OpenBabel11052419533D

 37 45  0  0  1  0  0  0  0  0999 V2000
  193.4790  174.0050  144.6530 C   0  0  1  0  0  3  0  0  0  0  0  0
  187.7690  177.8990  144.7030 C   0  0  0  0  0  2  0  0  0  0  0  0
  193.1680  173.5490  138.5700 C   0  0  0  0  0  2  0  0  0  0  0  0
  189.9920  173.9690  141.6110 C   0  0  1  0  0  3  0  0  0  0  0  0
  193.1150  173.8480  146.1110 C   0  0  0  0  0  2  0  0  0  0  0  0
  188.9910  177.7460  143.7670 C   0  0  2  0  0  0  0  0  0  0  0  0
  190.3450  177.9470  144.4040 C   0  0  0  0  0  2  0  0  0  0  0  0
  188.8320  177.8820  142.2520 C   0  0  2  0  0  3  0  0  0  0  0  0
  190.3960  172.5750  139.6860 C   0  0  0  0  0  2  0  0  0  0  0  0
  190.7800  174.5200  142.8040 C   0  0  2  0  0  3  0  0  0  0  0  0
  194.9520  173.1660  143.0720 O   0  0  0  0  0  1  0  0  0  0  0  0
  190.7600  172.8480  141.0880 N   0  0  1  0  0  0  0  0  0  0  0  0
  190.5880  176.0470  142.9730 C   0  0  2  0  0  3  0  0  0  0  0  0
  187.0920  177.7510  140.6610 O   0  0  0  0  0  0  0  0  0  0  0  0
  190.6810  173.7290  138.7280 C   0  0  0  0  0  2  0  0  0  0  0  0
  192.2320  175.0180  146.5690 C   0  0  0  0  0  2  0  0  0  0  0  0
  186.3700  178.5780  142.7400 C   0  0  0  0  0  2  0  0  0  0  0  0
  187.4020  178.0360  141.8060 C   0  0  0  0  0  0  0  0  0  0  0  0
  192.1330  173.3240  141.2120 C   0  0  2  0  0  3  0  0  0  0  0  0
  194.5100  172.7780  140.4200 C   0  0  0  0  0  2  0  0  0  0  0  0
  187.7560  174.8610  142.0880 C   0  0  0  0  0  2  0  0  0  0  0  0
  194.0550  172.7620  144.0520 C   0  0  2  0  0  3  0  0  0  0  0  0
  187.9780  172.7210  141.1170 O   0  0  0  0  0  1  0  0  0  0  0  0
  193.1580  172.2390  140.8520 C   0  0  2  0  0  3  0  0  0  0  0  0
  192.6970  176.4260  146.1240 C   0  0  2  0  0  3  0  0  0  0  0  0
  190.9800  176.5780  144.3430 C   0  0  1  0  0  3  0  0  0  0  0  0
  188.5730  173.5860  142.0370 C   0  0  1  0  0  3  0  0  0  0  0  0
  192.2340  174.0600  142.5650 C   0  0  2  0  0  3  0  0  0  0  0  0
  191.8530  173.3710  137.8310 C   0  0  0  0  0  2  0  0  0  0  0  0
  189.1150  176.5010  142.8720 C   0  0  1  0  0  0  0  0  0  0  0  0
  193.5560  172.2980  139.3600 C   0  0  1  0  0  3  0  0  0  0  0  0
  192.4630  176.6760  144.6300 C   0  0  0  0  0  2  0  0  0  0  0  0
  186.4080  177.7710  144.0220 C   0  0  0  0  0  2  0  0  0  0  0  0
  192.5910  173.1600  143.7620 C   0  0  2  0  0  3  0  0  0  0  0  0
  188.0940  175.5950  143.2280 O   0  0  0  0  0  0  0  0  0  0  0  0
  194.1440  176.7160  146.4980 C   0  0  0  0  0  2  0  0  0  0  0  0
  194.8560  177.4210  145.3580 C   0  0  0  0  0  1  0  0  0  0  0  0
  1  5  1  1  0  0  0
  3 31  1  0  0  0  0
  4 27  1  0  0  0  0
  4 10  1  0  0  0  0
  5 16  1  0  0  0  0
  6  7  1  0  0  0  0
  6  2  1  0  0  0  0
  8 30  1  0  0  0  0
  8  6  1  0  0  0  0
  9 12  1  0  0  0  0
 10 13  1  0  0  0  0
 11 22  1  0  0  0  0
 12 19  1  0  0  0  0
 12  4  1  0  0  0  0
 13 26  1  0  0  0  0
 14 18  2  0  0  0  0
 15  9  1  0  0  0  0
 17 33  1  0  0  0  0
 18  8  1  0  0  0  0
 18 17  1  0  0  0  0
 19 28  1  0  0  0  0
 20 24  1  0  0  0  0
 21 35  1  0  0  0  0
 22  1  1  0  0  0  0
 23 27  1  0  0  0  0
 24 19  1  0  0  0  0
 25 36  1  0  0  0  0
 25 16  1  0  0  0  0
 26  7  1  0  0  0  0
 26 32  1  0  0  0  0
 27 21  1  0  0  0  0
 28 10  1  0  0  0  0
 28 34  1  0  0  0  0
 29  3  1  0  0  0  0
 29 15  1  0  0  0  0
 30 13  1  0  0  0  0
 30 35  1  0  0  0  0
 30  6  1  0  0  0  0
 31 20  1  0  0  0  0
 31 24  1  0  0  0  0
 32 25  1  0  0  0  0
 33  2  1  0  0  0  0
 34 22  1  0  0  0  0
 34  1  1  0  0  0  0
 37 36  1  0  0  0  0
M  END
>  <MODEL>
1

>  <REMARK>
 VINA RESULT:      -9.3      0.000      0.000
  Name = 
  1 active torsions:
  status: ('A' for Active; 'I' for Inactive)
    1  A    between atoms: C_11  and  C_26
                            x       y       z     vdW  Elec       q    Type
                         _______ _______ _______ _____ _____    ______ ____

>  <TORSDO>
F 1

$$$$
=
 OpenBabel11052419533D

 37 45  0  0  1  0  0  0  0  0999 V2000
  189.3120  175.8890  143.4270 C   0  0  1  0  0  3  0  0  0  0  0  0
  195.6750  174.6910  145.8460 C   0  0  0  0  0  2  0  0  0  0  0  0
  189.8270  171.1540  139.6040 C   0  0  0  0  0  2  0  0  0  0  0  0
  192.8680  173.9240  141.2110 C   0  0  1  0  0  3  0  0  0  0  0  0
  189.5650  177.2350  144.0650 C   0  0  0  0  0  2  0  0  0  0  0  0
  194.4950  173.8140  145.3660 C   0  0  2  0  0  0  0  0  0  0  0  0
  193.1790  174.0260  146.0740 C   0  0  0  0  0  2  0  0  0  0  0  0
  194.7530  172.5120  144.6060 C   0  0  2  0  0  3  0  0  0  0  0  0
  192.2900  173.0260  139.0500 C   0  0  0  0  0  2  0  0  0  0  0  0
  192.1480  174.4930  142.4380 C   0  0  2  0  0  3  0  0  0  0  0  0
  187.7820  174.8120  142.0600 O   0  0  0  0  0  1  0  0  0  0  0  0
  191.9190  173.9820  140.1090 N   0  0  1  0  0  0  0  0  0  0  0  0
  192.6320  173.8350  143.7540 C   0  0  2  0  0  3  0  0  0  0  0  0
  196.5080  171.5330  143.3670 O   0  0  0  0  0  0  0  0  0  0  0  0
  192.2890  171.5660  139.4950 C   0  0  0  0  0  2  0  0  0  0  0  0
  190.6400  177.1150  145.1550 C   0  0  0  0  0  2  0  0  0  0  0  0
  197.2770  172.9130  145.1080 C   0  0  0  0  0  2  0  0  0  0  0  0
  196.2040  172.2780  144.2850 C   0  0  0  0  0  0  0  0  0  0  0  0
  190.6640  173.6170  140.7570 C   0  0  2  0  0  3  0  0  0  0  0  0
  188.2680  172.8960  140.1960 C   0  0  0  0  0  2  0  0  0  0  0  0
  195.2110  174.1770  141.8980 C   0  0  0  0  0  2  0  0  0  0  0  0
  188.5300  175.9770  142.1550 C   0  0  2  0  0  3  0  0  0  0  0  0
  194.6150  174.4990  139.6370 O   0  0  0  0  0  1  0  0  0  0  0  0
  189.4620  173.7520  139.8110 C   0  0  2  0  0  3  0  0  0  0  0  0
  190.4880  175.9140  146.1210 C   0  0  2  0  0  3  0  0  0  0  0  0
  192.2870  174.6200  145.0090 C   0  0  1  0  0  3  0  0  0  0  0  0
  194.1590  174.7000  140.9410 C   0  0  1  0  0  3  0  0  0  0  0  0
  190.6450  174.3220  142.1300 C   0  0  2  0  0  3  0  0  0  0  0  0
  191.1150  170.8400  138.8620 C   0  0  0  0  0  2  0  0  0  0  0  0
  194.1690  173.7300  143.8650 C   0  0  1  0  0  0  0  0  0  0  0  0
  189.1580  172.4260  139.0780 C   0  0  1  0  0  3  0  0  0  0  0  0
  190.8410  174.5790  145.4550 C   0  0  0  0  0  2  0  0  0  0  0  0
  197.0150  174.4050  145.1720 C   0  0  0  0  0  2  0  0  0  0  0  0
  190.0560  175.7460  142.1150 C   0  0  2  0  0  3  0  0  0  0  0  0
  194.9700  174.6700  143.1830 O   0  0  0  0  0  0  0  0  0  0  0  0
  189.1110  175.8460  146.7670 C   0  0  0  0  0  2  0  0  0  0  0  0
  188.9160  174.5090  147.4590 C   0  0  0  0  0  1  0  0  0  0  0  0
  1  5  1  6  0  0  0
  4 10  1  0  0  0  0
  5 16  1  0  0  0  0
  6  2  1  0  0  0  0
  6  7  1  0  0  0  0
  8  6  1  0  0  0  0
  9 15  1  0  0  0  0
  9 12  1  0  0  0  0
 10 13  1  0  0  0  0
 11 22  1  0  0  0  0
 12 19  1  0  0  0  0
 12  4  1  0  0  0  0
 13 30  1  0  0  0  0
 13 26  1  0  0  0  0
 14 18  2  0  0  0  0
 16 25  1  0  0  0  0
 17 33  1  0  0  0  0
 18  8  1  0  0  0  0
 18 17  1  0  0  0  0
 19 28  1  0  0  0  0
 21 35  1  0  0  0  0
 22  1  1  0  0  0  0
 23 27  1  0  0  0  0
 24 20  1  0  0  0  0
 24 19  1  0  0  0  0
 25 36  1  0  0  0  0
 26 32  1  0  0  0  0
 26  7  1  0  0  0  0
 27  4  1  0  0  0  0
 27 21  1  0  0  0  0
 28 10  1  0  0  0  0
 29 15  1  0  0  0  0
 29  3  1  0  0  0  0
 30  8  1  0  0  0  0
 30  6  1  0  0  0  0
 31  3  1  0  0  0  0
 31 24  1  0  0  0  0
 31 20  1  0  0  0  0
 32 25  1  0  0  0  0
 33  2  1  0  0  0  0
 34 28  1  0  0  0  0
 34 22  1  0  0  0  0
 34  1  1  0  0  0  0
 35 30  1  0  0  0  0
 36 37  1  0  0  0  0
M  END
>  <MODEL>
2

>  <REMARK>
 VINA RESULT:      -7.9      1.890      6.115
  Name = 
  1 active torsions:
  status: ('A' for Active; 'I' for Inactive)
    1  A    between atoms: C_11  and  C_26
                            x       y       z     vdW  Elec       q    Type
                         _______ _______ _______ _____ _____    ______ ____

>  <TORSDO>
F 1

$$$$
=
 OpenBabel11052419533D

 37 45  0  0  1  0  0  0  0  0999 V2000
  189.9770  173.1540  139.6800 C   0  0  1  0  0  3  0  0  0  0  0  0
  195.4020  173.1230  143.9630 C   0  0  0  0  0  2  0  0  0  0  0  0
  187.7620  178.1250  142.4520 C   0  0  0  0  0  2  0  0  0  0  0  0
  190.1860  174.7780  144.0090 C   0  0  1  0  0  3  0  0  0  0  0  0
  190.4240  171.7270  139.4640 C   0  0  0  0  0  2  0  0  0  0  0  0
  194.5510  174.2130  143.2700 C   0  0  2  0  0  0  0  0  0  0  0  0
  194.4640  174.1300  141.7650 C   0  0  0  0  0  2  0  0  0  0  0  0
  194.2480  175.5320  143.9810 C   0  0  2  0  0  3  0  0  0  0  0  0
  188.2060  175.9700  144.6950 C   0  0  0  0  0  2  0  0  0  0  0  0
  190.7780  174.2010  142.7180 C   0  0  2  0  0  3  0  0  0  0  0  0
  188.2300  174.5850  139.1590 O   0  0  0  0  0  1  0  0  0  0  0  0
  188.7650  174.9780  143.7600 N   0  0  1  0  0  0  0  0  0  0  0  0
  192.2480  174.6400  142.5060 C   0  0  2  0  0  3  0  0  0  0  0  0
  194.2290  176.3570  146.1930 O   0  0  0  0  0  0  0  0  0  0  0  0
  188.8270  177.3600  144.5780 C   0  0  0  0  0  2  0  0  0  0  0  0
  191.9070  171.5700  139.8300 C   0  0  0  0  0  2  0  0  0  0  0  0
  195.8650  174.7050  145.8480 C   0  0  0  0  0  2  0  0  0  0  0  0
  194.7360  175.5770  145.4040 C   0  0  0  0  0  0  0  0  0  0  0  0
  188.7530  175.4580  142.3830 C   0  0  2  0  0  3  0  0  0  0  0  0
  187.2020  176.5870  140.6810 C   0  0  0  0  0  2  0  0  0  0  0  0
  191.8950  174.1050  145.6370 C   0  0  0  0  0  2  0  0  0  0  0  0
  188.4910  173.3160  139.6600 C   0  0  2  0  0  3  0  0  0  0  0  0
  189.6200  174.1110  146.2650 O   0  0  0  0  0  1  0  0  0  0  0  0
  187.3270  175.6050  141.8330 C   0  0  2  0  0  3  0  0  0  0  0  0
  192.8520  172.6750  139.2970 C   0  0  2  0  0  3  0  0  0  0  0  0
  193.0150  173.7900  141.5050 C   0  0  1  0  0  3  0  0  0  0  0  0
  190.4700  173.8480  145.1900 C   0  0  1  0  0  3  0  0  0  0  0  0
  189.7960  174.6270  141.6060 C   0  0  2  0  0  3  0  0  0  0  0  0
  187.8240  178.3160  143.9570 C   0  0  0  0  0  2  0  0  0  0  0  0
  193.1250  174.4990  143.7700 C   0  0  1  0  0  0  0  0  0  0  0  0
  186.7710  177.0300  142.0530 C   0  0  1  0  0  3  0  0  0  0  0  0
  192.6820  174.0030  140.0430 C   0  0  0  0  0  2  0  0  0  0  0  0
  195.5420  173.2710  145.4770 C   0  0  0  0  0  2  0  0  0  0  0  0
  189.2550  173.3180  141.0010 C   0  0  2  0  0  3  0  0  0  0  0  0
  192.7880  173.5240  144.7320 O   0  0  0  0  0  0  0  0  0  0  0  0
  192.7280  172.8830  137.7930 C   0  0  0  0  0  2  0  0  0  0  0  0
  192.7290  174.3640  137.4610 C   0  0  0  0  0  1  0  0  0  0  0  0
  1  5  1  1  0  0  0
  1 34  1  0  0  0  0
  2 33  1  0  0  0  0
  3 29  1  0  0  0  0
  4 27  1  0  0  0  0
  5 16  1  0  0  0  0
  6 30  1  0  0  0  0
  6  2  1  0  0  0  0
  6  8  1  0  0  0  0
  7  6  1  0  0  0  0
  8 18  1  0  0  0  0
 10  4  1  0  0  0  0
 11 22  1  0  0  0  0
 12  4  1  0  0  0  0
 12  9  1  0  0  0  0
 13 10  1  0  0  0  0
 13 30  1  0  0  0  0
 15  9  1  0  0  0  0
 18 17  1  0  0  0  0
 18 14  2  0  0  0  0
 19 12  1  0  0  0  0
 20 24  1  0  0  0  0
 20 31  1  0  0  0  0
 22  1  1  0  0  0  0
 22 34  1  0  0  0  0
 24 31  1  0  0  0  0
 24 19  1  0  0  0  0
 25 16  1  0  0  0  0
 25 32  1  0  0  0  0
 26  7  1  0  0  0  0
 26 13  1  0  0  0  0
 27 21  1  0  0  0  0
 27 23  1  0  0  0  0
 28 19  1  0  0  0  0
 28 10  1  0  0  0  0
 29 15  1  0  0  0  0
 30  8  1  0  0  0  0
 30 35  1  0  0  0  0
 31  3  1  0  0  0  0
 32 26  1  0  0  0  0
 33 17  1  0  0  0  0
 34 28  1  0  0  0  0
 35 21  1  0  0  0  0
 36 25  1  0  0  0  0
 37 36  1  0  0  0  0
M  END
>  <MODEL>
3

>  <REMARK>
 VINA RESULT:      -7.9      1.898      6.859
  Name = 
  1 active torsions:
  status: ('A' for Active; 'I' for Inactive)
    1  A    between atoms: C_11  and  C_26
                            x       y       z     vdW  Elec       q    Type
                         _______ _______ _______ _____ _____    ______ ____

>  <TORSDO>
F 1

$$$$
=
 OpenBabel11052419533D

 37 45  0  0  1  0  0  0  0  0999 V2000
  188.2760  176.7640  145.1130 C   0  0  1  0  0  3  0  0  0  0  0  0
  188.1910  172.8900  139.3900 C   0  0  0  0  0  2  0  0  0  0  0  0
  194.3340  176.1080  145.5210 C   0  0  0  0  0  2  0  0  0  0  0  0
  191.2300  173.4100  143.9110 C   0  0  1  0  0  3  0  0  0  0  0  0
  186.8050  176.4150  145.1010 C   0  0  0  0  0  2  0  0  0  0  0  0
  189.1530  173.9390  139.9970 C   0  0  2  0  0  0  0  0  0  0  0  0
  188.5550  175.2910  140.2980 C   0  0  0  0  0  2  0  0  0  0  0  0
  190.6670  173.7910  139.8360 C   0  0  2  0  0  3  0  0  0  0  0  0
  193.1250  173.2100  145.3880 C   0  0  0  0  0  2  0  0  0  0  0  0
  190.0710  174.3840  143.6710 C   0  0  2  0  0  3  0  0  0  0  0  0
  189.8690  177.7730  146.4600 O   0  0  0  0  0  1  0  0  0  0  0  0
  191.7410  173.6950  145.2450 N   0  0  1  0  0  0  0  0  0  0  0  0
  189.9390  174.7720  142.1770 C   0  0  2  0  0  3  0  0  0  0  0  0
  192.2100  172.0730  139.3440 O   0  0  0  0  0  0  0  0  0  0  0  0
  194.1200  173.8670  144.4350 C   0  0  0  0  0  2  0  0  0  0  0  0
  186.3570  176.0390  143.6820 C   0  0  0  0  0  2  0  0  0  0  0  0
  190.1380  171.7740  138.2750 C   0  0  0  0  0  2  0  0  0  0  0  0
  191.0810  172.5040  139.1740 C   0  0  0  0  0  0  0  0  0  0  0  0
  191.6630  175.1500  145.3060 C   0  0  2  0  0  3  0  0  0  0  0  0
  192.4980  177.1330  146.7010 C   0  0  0  0  0  2  0  0  0  0  0  0
  190.7220  171.6750  142.2520 C   0  0  0  0  0  2  0  0  0  0  0  0
  188.8570  176.8220  146.4900 C   0  0  2  0  0  3  0  0  0  0  0  0
  191.6400  171.0630  144.3380 O   0  0  0  0  0  1  0  0  0  0  0  0
  192.0180  175.6920  146.6980 C   0  0  2  0  0  3  0  0  0  0  0  0
  186.8520  176.9750  142.5500 C   0  0  2  0  0  3  0  0  0  0  0  0
  188.5940  175.3760  141.8060 C   0  0  1  0  0  3  0  0  0  0  0  0
  190.7590  171.9640  143.7380 C   0  0  1  0  0  3  0  0  0  0  0  0
  190.3340  175.5590  144.6370 C   0  0  2  0  0  3  0  0  0  0  0  0
  195.0360  174.7960  145.2140 C   0  0  0  0  0  2  0  0  0  0  0  0
  190.0160  173.5670  141.2140 C   0  0  1  0  0  0  0  0  0  0  0  0
  193.5200  176.0340  146.8140 C   0  0  1  0  0  3  0  0  0  0  0  0
  188.3460  176.8000  142.2560 C   0  0  0  0  0  2  0  0  0  0  0  0
  188.8350  171.5550  139.0190 C   0  0  0  0  0  2  0  0  0  0  0  0
  189.1210  175.5980  145.5860 C   0  0  2  0  0  3  0  0  0  0  0  0
  189.6110  172.2960  141.6750 O   0  0  0  0  0  0  0  0  0  0  0  0
  186.5210  178.4390  142.8080 C   0  0  0  0  0  2  0  0  0  0  0  0
  185.0220  178.6650  142.7280 C   0  0  0  0  0  1  0  0  0  0  0  0
  1  5  1  1  0  0  0
  1 34  1  0  0  0  0
  1 22  1  0  0  0  0
  2  6  1  0  0  0  0
  3 31  1  0  0  0  0
  4 12  1  0  0  0  0
  6  7  1  0  0  0  0
  6 30  1  0  0  0  0
  7 26  1  0  0  0  0
  8  6  1  0  0  0  0
  8 30  1  0  0  0  0
 10  4  1  0  0  0  0
 10 28  1  0  0  0  0
 11 22  1  0  0  0  0
 12 19  1  0  0  0  0
 12  9  1  0  0  0  0
 13 10  1  0  0  0  0
 15 29  1  0  0  0  0
 15  9  1  0  0  0  0
 16  5  1  0  0  0  0
 17 33  1  0  0  0  0
 17 18  1  0  0  0  0
 18 14  2  0  0  0  0
 18  8  1  0  0  0  0
 19 24  1  0  0  0  0
 20 31  1  0  0  0  0
 21 27  1  0  0  0  0
 24 20  1  0  0  0  0
 24 31  1  0  0  0  0
 25 36  1  0  0  0  0
 25 16  1  0  0  0  0
 26 13  1  0  0  0  0
 26 32  1  0  0  0  0
 27  4  1  0  0  0  0
 27 23  1  0  0  0  0
 28 19  1  0  0  0  0
 28 34  1  0  0  0  0
 29  3  1  0  0  0  0
 30 35  1  0  0  0  0
 30 13  1  0  0  0  0
 32 25  1  0  0  0  0
 33  2  1  0  0  0  0
 34 22  1  0  0  0  0
 35 21  1  0  0  0  0
 37 36  1  0  0  0  0
M  END
>  <MODEL>
4

>  <REMARK>
 VINA RESULT:      -7.8      2.182      6.252
  Name = 
  1 active torsions:
  status: ('A' for Active; 'I' for Inactive)
    1  A    between atoms: C_11  and  C_26
                            x       y       z     vdW  Elec       q    Type
                         _______ _______ _______ _____ _____    ______ ____

>  <TORSDO>
F 1

$$$$
=
 OpenBabel11052419533D

 37 45  0  0  1  0  0  0  0  0999 V2000
  190.3030  172.8170  139.9990 C   0  0  1  0  0  3  0  0  0  0  0  0
  196.9760  173.9960  141.3600 C   0  0  0  0  0  2  0  0  0  0  0  0
  188.7070  177.5710  143.4840 C   0  0  0  0  0  2  0  0  0  0  0  0
  192.1260  174.7900  143.7670 C   0  0  1  0  0  3  0  0  0  0  0  0
  190.8550  171.4670  139.6000 C   0  0  0  0  0  2  0  0  0  0  0  0
  195.7260  174.8770  141.1300 C   0  0  2  0  0  0  0  0  0  0  0  0
  194.9930  174.6630  139.8280 C   0  0  0  0  0  2  0  0  0  0  0  0
  195.5410  176.1820  141.9050 C   0  0  2  0  0  3  0  0  0  0  0  0
  190.4830  175.6990  145.2790 C   0  0  0  0  0  2  0  0  0  0  0  0
  192.1730  174.2160  142.3470 C   0  0  2  0  0  3  0  0  0  0  0  0
  188.2830  173.9030  140.3290 O   0  0  0  0  0  1  0  0  0  0  0  0
  190.7330  174.7390  144.1890 N   0  0  1  0  0  0  0  0  0  0  0  0
  193.2890  174.8660  141.4940 C   0  0  2  0  0  3  0  0  0  0  0  0
  196.3630  177.1660  143.8880 O   0  0  0  0  0  0  0  0  0  0  0  0
  190.7260  177.1570  144.8960 C   0  0  0  0  0  2  0  0  0  0  0  0
  192.3460  171.5800  139.2550 C   0  0  0  0  0  2  0  0  0  0  0  0
  197.9400  175.7760  142.8350 C   0  0  0  0  0  2  0  0  0  0  0  0
  196.5950  176.4170  142.9530 C   0  0  0  0  0  0  0  0  0  0  0  0
  190.0220  175.1010  142.9680 C   0  0  2  0  0  3  0  0  0  0  0  0
  187.7010  175.8270  142.1550 C   0  0  0  0  0  2  0  0  0  0  0  0
  194.4710  174.5310  144.4430 C   0  0  0  0  0  2  0  0  0  0  0  0
  188.9620  172.7360  140.6540 C   0  0  2  0  0  3  0  0  0  0  0  0
  192.7550  174.2220  146.0340 O   0  0  0  0  0  1  0  0  0  0  0  0
  188.5000  174.9720  143.1240 C   0  0  2  0  0  3  0  0  0  0  0  0
  192.7390  172.7770  138.3540 C   0  0  2  0  0  3  0  0  0  0  0  0
  193.6670  174.0740  140.2510 C   0  0  1  0  0  3  0  0  0  0  0  0
  193.0690  174.0140  144.6900 C   0  0  1  0  0  3  0  0  0  0  0  0
  190.7400  174.3890  141.8010 C   0  0  2  0  0  3  0  0  0  0  0  0
  189.3980  177.8880  144.7990 C   0  0  0  0  0  2  0  0  0  0  0  0
  194.6470  174.9690  142.2230 C   0  0  1  0  0  0  0  0  0  0  0  0
  187.8560  176.3020  143.5750 C   0  0  1  0  0  3  0  0  0  0  0  0
  192.6860  174.1150  139.1000 C   0  0  0  0  0  2  0  0  0  0  0  0
  197.7480  174.2840  142.6470 C   0  0  0  0  0  2  0  0  0  0  0  0
  190.2300  172.9660  141.5050 C   0  0  2  0  0  3  0  0  0  0  0  0
  194.9550  174.0320  143.2310 O   0  0  0  0  0  0  0  0  0  0  0  0
  191.9230  172.8430  137.0700 C   0  0  0  0  0  2  0  0  0  0  0  0
  191.5100  174.2740  136.7780 C   0  0  0  0  0  1  0  0  0  0  0  0
  1  5  1  1  0  0  0
  1 22  1  0  0  0  0
  1 34  1  0  0  0  0
  2 33  1  0  0  0  0
  3 31  1  0  0  0  0
  3 29  1  0  0  0  0
  4 12  1  0  0  0  0
  4 27  1  0  0  0  0
  6  2  1  0  0  0  0
  6  8  1  0  0  0  0
  6 30  1  0  0  0  0
  7 26  1  0  0  0  0
  7  6  1  0  0  0  0
  8 30  1  0  0  0  0
  8 18  1  0  0  0  0
 10  4  1  0  0  0  0
 11 22  1  0  0  0  0
 12  9  1  0  0  0  0
 13 30  1  0  0  0  0
 13 10  1  0  0  0  0
 15  9  1  0  0  0  0
 16  5  1  0  0  0  0
 17 18  1  0  0  0  0
 18 14  2  0  0  0  0
 19 24  1  0  0  0  0
 19 12  1  0  0  0  0
 20 24  1  0  0  0  0
 20 31  1  0  0  0  0
 21 27  1  0  0  0  0
 22 34  1  0  0  0  0
 24 31  1  0  0  0  0
 25 32  1  0  0  0  0
 25 16  1  0  0  0  0
 26 13  1  0  0  0  0
 27 23  1  0  0  0  0
 28 10  1  0  0  0  0
 28 19  1  0  0  0  0
 29 15  1  0  0  0  0
 30 35  1  0  0  0  0
 32 26  1  0  0  0  0
 33 17  1  0  0  0  0
 34 28  1  0  0  0  0
 35 21  1  0  0  0  0
 36 25  1  0  0  0  0
 37 36  1  0  0  0  0
M  END
>  <MODEL>
5

>  <REMARK>
 VINA RESULT:      -7.7      2.120      7.325
  Name = 
  1 active torsions:
  status: ('A' for Active; 'I' for Inactive)
    1  A    between atoms: C_11  and  C_26
                            x       y       z     vdW  Elec       q    Type
                         _______ _______ _______ _____ _____    ______ ____

>  <TORSDO>
F 1

$$$$
=
 OpenBabel11052419533D

 37 45  0  0  1  0  0  0  0  0999 V2000
  193.3420  172.7500  140.2340 C   0  0  1  0  0  3  0  0  0  0  0  0
  188.5660  175.5860  144.3470 C   0  0  0  0  0  2  0  0  0  0  0  0
  197.0290  171.8970  145.0280 C   0  0  0  0  0  2  0  0  0  0  0  0
  194.0070  175.0140  144.2150 C   0  0  1  0  0  3  0  0  0  0  0  0
  192.5260  173.4560  139.1750 C   0  0  0  0  0  2  0  0  0  0  0  0
  189.5900  174.4340  144.4780 C   0  0  2  0  0  0  0  0  0  0  0  0
  189.4960  173.3410  143.4410 C   0  0  0  0  0  2  0  0  0  0  0  0
  190.2920  174.1650  145.8100 C   0  0  2  0  0  3  0  0  0  0  0  0
  196.2860  174.9510  144.9990 C   0  0  0  0  0  2  0  0  0  0  0  0
  193.1570  174.3430  143.1320 C   0  0  2  0  0  3  0  0  0  0  0  0
  195.3320  171.5900  140.4870 O   0  0  0  0  0  1  0  0  0  0  0  0
  195.3980  174.8180  143.8310 N   0  0  1  0  0  0  0  0  0  0  0  0
  191.8330  173.7750  143.7010 C   0  0  2  0  0  3  0  0  0  0  0  0
  190.7520  175.3350  147.8080 O   0  0  0  0  0  0  0  0  0  0  0  0
  196.0320  173.9230  146.0990 C   0  0  0  0  0  2  0  0  0  0  0  0
  191.1000  173.7090  139.6820 C   0  0  0  0  0  2  0  0  0  0  0  0
  188.7220  175.9830  146.8160 C   0  0  0  0  0  2  0  0  0  0  0  0
  189.9830  175.1850  146.8720 C   0  0  0  0  0  0  0  0  0  0  0  0
  195.3890  173.4580  143.3040 C   0  0  2  0  0  3  0  0  0  0  0  0
  196.9900  171.5680  142.6390 C   0  0  0  0  0  2  0  0  0  0  0  0
  192.3630  176.5440  145.2060 C   0  0  0  0  0  2  0  0  0  0  0  0
  194.8110  172.7590  139.9500 C   0  0  2  0  0  3  0  0  0  0  0  0
  194.6170  177.2160  145.0130 O   0  0  0  0  0  1  0  0  0  0  0  0
  196.7400  173.0660  142.6880 C   0  0  2  0  0  3  0  0  0  0  0  0
  190.4170  172.5150  140.3950 C   0  0  2  0  0  3  0  0  0  0  0  0
  190.7750  173.4830  142.6490 C   0  0  1  0  0  3  0  0  0  0  0  0
  193.6200  176.4870  144.3620 C   0  0  1  0  0  3  0  0  0  0  0  0
  194.0930  173.3030  142.4800 C   0  0  2  0  0  3  0  0  0  0  0  0
  197.1750  172.9230  146.1380 C   0  0  0  0  0  2  0  0  0  0  0  0
  191.0860  174.7570  144.6300 C   0  0  1  0  0  0  0  0  0  0  0  0
  197.6600  172.3740  143.7190 C   0  0  1  0  0  3  0  0  0  0  0  0
  190.9970  172.2560  141.7900 C   0  0  0  0  0  2  0  0  0  0  0  0
  188.6280  176.6390  145.4520 C   0  0  0  0  0  2  0  0  0  0  0  0
  194.2170  173.7200  141.0020 C   0  0  2  0  0  3  0  0  0  0  0  0
  191.2630  176.1440  144.4430 O   0  0  0  0  0  0  0  0  0  0  0  0
  190.4320  171.2420  139.5610 C   0  0  0  0  0  2  0  0  0  0  0  0
  190.8170  170.0500  140.4190 C   0  0  0  0  0  1  0  0  0  0  0  0
  1  5  1  6  0  0  0
  1 34  1  0  0  0  0
  2  6  1  0  0  0  0
  2 33  1  0  0  0  0
  3 29  1  0  0  0  0
  4 27  1  0  0  0  0
  5 16  1  0  0  0  0
  6 30  1  0  0  0  0
  6  8  1  0  0  0  0
  7  6  1  0  0  0  0
  8 18  1  0  0  0  0
  9 15  1  0  0  0  0
 10 13  1  0  0  0  0
 10  4  1  0  0  0  0
 12  4  1  0  0  0  0
 12  9  1  0  0  0  0
 13 30  1  0  0  0  0
 15 29  1  0  0  0  0
 16 25  1  0  0  0  0
 17 18  1  0  0  0  0
 18 14  2  0  0  0  0
 19 12  1  0  0  0  0
 20 24  1  0  0  0  0
 20 31  1  0  0  0  0
 22  1  1  0  0  0  0
 22 11  1  0  0  0  0
 22 34  1  0  0  0  0
 24 19  1  0  0  0  0
 24 31  1  0  0  0  0
 25 32  1  0  0  0  0
 26  7  1  0  0  0  0
 26 13  1  0  0  0  0
 27 23  1  0  0  0  0
 27 21  1  0  0  0  0
 28 10  1  0  0  0  0
 28 19  1  0  0  0  0
 30  8  1  0  0  0  0
 31  3  1  0  0  0  0
 32 26  1  0  0  0  0
 33 17  1  0  0  0  0
 34 28  1  0  0  0  0
 35 30  1  0  0  0  0
 35 21  1  0  0  0  0
 36 25  1  0  0  0  0
 36 37  1  0  0  0  0
M  END
>  <MODEL>
6

>  <REMARK>
 VINA RESULT:      -7.7      2.562      5.914
  Name = 
  1 active torsions:
  status: ('A' for Active; 'I' for Inactive)
    1  A    between atoms: C_11  and  C_26
                            x       y       z     vdW  Elec       q    Type
                         _______ _______ _______ _____ _____    ______ ____

>  <TORSDO>
F 1

$$$$
=
 OpenBabel11052419533D

 37 45  0  0  1  0  0  0  0  0999 V2000
  195.7700  171.9720  143.3790 C   0  0  1  0  0  3  0  0  0  0  0  0
  191.9940  176.2080  147.3250 C   0  0  0  0  0  2  0  0  0  0  0  0
  191.9600  172.8720  138.6900 C   0  0  0  0  0  2  0  0  0  0  0  0
  191.2430  172.8770  143.0480 C   0  0  1  0  0  3  0  0  0  0  0  0
  196.2810  171.5330  144.7310 C   0  0  0  0  0  2  0  0  0  0  0  0
  192.4050  176.1650  145.8340 C   0  0  2  0  0  0  0  0  0  0  0  0
  193.8870  176.1130  145.5550 C   0  0  0  0  0  2  0  0  0  0  0  0
  191.4390  176.6380  144.7470 C   0  0  2  0  0  3  0  0  0  0  0  0
  190.1980  171.9050  141.1060 C   0  0  0  0  0  2  0  0  0  0  0  0
  192.6590  173.0900  143.5930 C   0  0  2  0  0  3  0  0  0  0  0  0
  195.8800  171.3810  141.1400 O   0  0  0  0  0  1  0  0  0  0  0  0
  191.3410  171.8380  142.0330 N   0  0  1  0  0  0  0  0  0  0  0  0
  192.8980  174.5550  144.0350 C   0  0  2  0  0  3  0  0  0  0  0  0
  189.1170  176.9940  144.5100 O   0  0  0  0  0  0  0  0  0  0  0  0
  190.1010  173.2130  140.3240 C   0  0  0  0  0  2  0  0  0  0  0  0
  196.0640  172.6420  145.7700 C   0  0  0  0  0  2  0  0  0  0  0  0
  189.8870  177.4070  146.6920 C   0  0  0  0  0  2  0  0  0  0  0  0
  190.0740  176.9990  145.2680 C   0  0  0  0  0  0  0  0  0  0  0  0
  192.6000  172.1640  141.3710 C   0  0  2  0  0  3  0  0  0  0  0  0
  193.9390  171.6140  139.2550 C   0  0  0  0  0  2  0  0  0  0  0  0
  189.9030  173.8200  144.8760 C   0  0  0  0  0  2  0  0  0  0  0  0
  195.6460  170.8470  142.4010 C   0  0  2  0  0  3  0  0  0  0  0  0
  189.1130  171.9310  143.7020 O   0  0  0  0  0  1  0  0  0  0  0  0
  193.0030  171.1040  140.3370 C   0  0  2  0  0  3  0  0  0  0  0  0
  196.4530  174.0720  145.3190 C   0  0  2  0  0  3  0  0  0  0  0  0
  194.0950  174.7430  144.9540 C   0  0  1  0  0  3  0  0  0  0  0  0
  190.2800  172.5260  144.1850 C   0  0  1  0  0  3  0  0  0  0  0  0
  193.5950  172.5790  142.4760 C   0  0  2  0  0  3  0  0  0  0  0  0
  190.4550  172.9650  138.8680 C   0  0  0  0  0  2  0  0  0  0  0  0
  191.7530  175.1370  144.8930 C   0  0  1  0  0  0  0  0  0  0  0  0
  192.4790  171.4520  138.9250 C   0  0  1  0  0  3  0  0  0  0  0  0
  195.4620  174.6580  144.3080 C   0  0  0  0  0  2  0  0  0  0  0  0
  190.4940  176.3400  147.5820 C   0  0  0  0  0  2  0  0  0  0  0  0
  194.3890  171.4140  143.0970 C   0  0  2  0  0  3  0  0  0  0  0  0
  190.9660  174.2600  145.6700 O   0  0  0  0  0  0  0  0  0  0  0  0
  197.8780  174.1560  144.7880 C   0  0  0  0  0  2  0  0  0  0  0  0
  197.9240  175.0000  143.5270 C   0  0  0  0  0  1  0  0  0  0  0  0
  1  5  1  1  0  0  0
  2 33  1  0  0  0  0
  3 29  1  0  0  0  0
  3 31  1  0  0  0  0
  4 10  1  0  0  0  0
  4 27  1  0  0  0  0
  5 16  1  0  0  0  0
  6  2  1  0  0  0  0
  7  6  1  0  0  0  0
  8 30  1  0  0  0  0
  8 18  1  0  0  0  0
  8  6  1  0  0  0  0
  9 12  1  0  0  0  0
 10 13  1  0  0  0  0
 11 22  1  0  0  0  0
 12  4  1  0  0  0  0
 13 30  1  0  0  0  0
 13 26  1  0  0  0  0
 14 18  2  0  0  0  0
 15  9  1  0  0  0  0
 17 33  1  0  0  0  0
 18 17  1  0  0  0  0
 19 12  1  0  0  0  0
 19 28  1  0  0  0  0
 20 24  1  0  0  0  0
 21 35  1  0  0  0  0
 22 34  1  0  0  0  0
 22  1  1  0  0  0  0
 23 27  1  0  0  0  0
 24 19  1  0  0  0  0
 25 16  1  0  0  0  0
 26  7  1  0  0  0  0
 27 21  1  0  0  0  0
 28 34  1  0  0  0  0
 28 10  1  0  0  0  0
 29 15  1  0  0  0  0
 30 35  1  0  0  0  0
 30  6  1  0  0  0  0
 31 20  1  0  0  0  0
 31 24  1  0  0  0  0
 32 26  1  0  0  0  0
 32 25  1  0  0  0  0
 34  1  1  0  0  0  0
 36 25  1  0  0  0  0
 37 36  1  0  0  0  0
M  END
>  <MODEL>
7

>  <REMARK>
 VINA RESULT:      -7.6      2.231      3.466
  Name = 
  1 active torsions:
  status: ('A' for Active; 'I' for Inactive)
    1  A    between atoms: C_11  and  C_26
                            x       y       z     vdW  Elec       q    Type
                         _______ _______ _______ _____ _____    ______ ____

>  <TORSDO>
F 1

$$$$
=
 OpenBabel11052419533D

 37 45  0  0  1  0  0  0  0  0999 V2000
  192.1830  176.0120  146.4650 C   0  0  1  0  0  3  0  0  0  0  0  0
  187.8050  173.1450  141.9510 C   0  0  0  0  0  2  0  0  0  0  0  0
  196.3120  176.7910  142.0330 C   0  0  0  0  0  2  0  0  0  0  0  0
  193.2110  173.6960  142.5930 C   0  0  1  0  0  3  0  0  0  0  0  0
  191.2670  175.3230  147.4500 C   0  0  0  0  0  2  0  0  0  0  0  0
  188.8420  174.2910  141.9040 C   0  0  2  0  0  0  0  0  0  0  0  0
  188.6560  175.3960  142.9150 C   0  0  0  0  0  2  0  0  0  0  0  0
  189.6690  174.5410  140.6420 C   0  0  2  0  0  3  0  0  0  0  0  0
  195.5550  173.7410  142.0270 C   0  0  0  0  0  2  0  0  0  0  0  0
  192.2650  174.3850  143.5820 C   0  0  2  0  0  3  0  0  0  0  0  0
  194.1940  177.1610  146.3880 O   0  0  0  0  0  1  0  0  0  0  0  0
  194.5600  173.8910  143.1050 N   0  0  1  0  0  0  0  0  0  0  0  0
  191.0050  174.9510  142.8830 C   0  0  2  0  0  3  0  0  0  0  0  0
  190.3100  173.3430  138.7110 O   0  0  0  0  0  0  0  0  0  0  0  0
  195.4110  174.7560  140.8970 C   0  0  0  0  0  2  0  0  0  0  0  0
  189.8930  175.0690  146.8130 C   0  0  0  0  0  2  0  0  0  0  0  0
  188.1920  172.7160  139.5140 C   0  0  0  0  0  2  0  0  0  0  0  0
  189.4570  173.5090  139.5680 C   0  0  0  0  0  0  0  0  0  0  0  0
  194.5080  175.2580  143.6120 C   0  0  2  0  0  3  0  0  0  0  0  0
  196.0490  177.1490  144.4030 C   0  0  0  0  0  2  0  0  0  0  0  0
  191.6610  172.1610  141.4690 C   0  0  0  0  0  2  0  0  0  0  0  0
  193.6180  176.0010  146.8880 C   0  0  2  0  0  3  0  0  0  0  0  0
  193.8830  171.4820  141.8830 O   0  0  0  0  0  1  0  0  0  0  0  0
  195.7960  175.6530  144.3490 C   0  0  2  0  0  3  0  0  0  0  0  0
  189.2880  176.2570  146.0240 C   0  0  2  0  0  3  0  0  0  0  0  0
  189.8520  175.2600  143.8260 C   0  0  1  0  0  3  0  0  0  0  0  0
  192.8330  172.2230  142.4270 C   0  0  1  0  0  3  0  0  0  0  0  0
  193.1410  175.4280  144.3080 C   0  0  2  0  0  3  0  0  0  0  0  0
  196.5580  175.7510  140.9540 C   0  0  0  0  0  2  0  0  0  0  0  0
  190.3440  173.9600  141.8990 C   0  0  1  0  0  0  0  0  0  0  0  0
  196.8140  176.3270  143.4020 C   0  0  1  0  0  3  0  0  0  0  0  0
  189.9980  176.4960  144.6880 C   0  0  0  0  0  2  0  0  0  0  0  0
  187.9650  172.0770  140.8700 C   0  0  0  0  0  2  0  0  0  0  0  0
  193.1220  175.0290  145.7950 C   0  0  2  0  0  3  0  0  0  0  0  0
  190.4950  172.5750  142.1190 O   0  0  0  0  0  0  0  0  0  0  0  0
  189.2300  177.5400  146.8410 C   0  0  0  0  0  2  0  0  0  0  0  0
  187.7960  177.8630  147.2200 C   0  0  0  0  0  1  0  0  0  0  0  0
  1 22  1  0  0  0  0
  1  5  1  1  0  0  0
  3 31  1  0  0  0  0
  4 12  1  0  0  0  0
  4 10  1  0  0  0  0
  6  2  1  0  0  0  0
  6  7  1  0  0  0  0
  7 26  1  0  0  0  0
  8 30  1  0  0  0  0
  8  6  1  0  0  0  0
  9 12  1  0  0  0  0
 10 28  1  0  0  0  0
 11 22  1  0  0  0  0
 12 19  1  0  0  0  0
 13 10  1  0  0  0  0
 13 26  1  0  0  0  0
 14 18  2  0  0  0  0
 15 29  1  0  0  0  0
 15  9  1  0  0  0  0
 16  5  1  0  0  0  0
 17 18  1  0  0  0  0
 17 33  1  0  0  0  0
 18  8  1  0  0  0  0
 19 28  1  0  0  0  0
 19 24  1  0  0  0  0
 21 35  1  0  0  0  0
 21 27  1  0  0  0  0
 23 27  1  0  0  0  0
 24 20  1  0  0  0  0
 25 16  1  0  0  0  0
 25 36  1  0  0  0  0
 26 32  1  0  0  0  0
 27  4  1  0  0  0  0
 28 34  1  0  0  0  0
 29  3  1  0  0  0  0
 30  6  1  0  0  0  0
 30 35  1  0  0  0  0
 30 13  1  0  0  0  0
 31 24  1  0  0  0  0
 31 20  1  0  0  0  0
 32 25  1  0  0  0  0
 33  2  1  0  0  0  0
 34  1  1  0  0  0  0
 34 22  1  0  0  0  0
 36 37  1  0  0  0  0
M  END
>  <MODEL>
8

>  <REMARK>
 VINA RESULT:      -7.5      2.343      4.672
  Name = 
  1 active torsions:
  status: ('A' for Active; 'I' for Inactive)
    1  A    between atoms: C_11  and  C_26
                            x       y       z     vdW  Elec       q    Type
                         _______ _______ _______ _____ _____    ______ ____

>  <TORSDO>
F 1

$$$$
=
 OpenBabel11052419533D

 37 45  0  0  1  0  0  0  0  0999 V2000
  195.2660  176.1780  144.7210 C   0  0  1  0  0  3  0  0  0  0  0  0
  193.7820  171.1650  140.2010 C   0  0  0  0  0  2  0  0  0  0  0  0
  189.9790  175.1940  147.6160 C   0  0  0  0  0  2  0  0  0  0  0  0
  191.0870  174.7230  143.3660 C   0  0  1  0  0  3  0  0  0  0  0  0
  196.2410  176.5640  143.6320 C   0  0  0  0  0  2  0  0  0  0  0  0
  193.5510  171.3890  141.7140 C   0  0  2  0  0  0  0  0  0  0  0  0
  194.7840  171.6570  142.5410 C   0  0  0  0  0  2  0  0  0  0  0  0
  192.2720  170.8890  142.3870 C   0  0  2  0  0  3  0  0  0  0  0  0
  189.2670  175.7140  144.5990 C   0  0  0  0  0  2  0  0  0  0  0  0
  192.6150  174.6510  143.4540 C   0  0  2  0  0  3  0  0  0  0  0  0
  194.4120  176.9680  146.7260 O   0  0  0  0  0  1  0  0  0  0  0  0
  190.6780  175.8490  144.1940 N   0  0  1  0  0  0  0  0  0  0  0  0
  193.1360  173.1970  143.3350 C   0  0  2  0  0  3  0  0  0  0  0  0
  190.0920  170.2540  141.7390 O   0  0  0  0  0  0  0  0  0  0  0  0
  188.9750  174.4760  145.4430 C   0  0  0  0  0  2  0  0  0  0  0  0
  196.5580  175.3510  142.7460 C   0  0  0  0  0  2  0  0  0  0  0  0
  191.7110  169.7610  140.1070 C   0  0  0  0  0  2  0  0  0  0  0  0
  191.2700  170.3100  141.4250 C   0  0  0  0  0  0  0  0  0  0  0  0
  191.5840  175.7480  145.3320 C   0  0  2  0  0  3  0  0  0  0  0  0
  191.9020  176.6460  147.7130 C   0  0  0  0  0  2  0  0  0  0  0  0
  190.6860  173.4610  141.3000 C   0  0  0  0  0  2  0  0  0  0  0  0
  194.6630  177.3570  145.4160 C   0  0  2  0  0  3  0  0  0  0  0  0
  189.3310  175.3250  141.8130 O   0  0  0  0  0  1  0  0  0  0  0  0
  191.4430  176.9360  146.2940 C   0  0  2  0  0  3  0  0  0  0  0  0
  196.8510  174.0280  143.4960 C   0  0  2  0  0  3  0  0  0  0  0  0
  194.6140  173.0890  142.9920 C   0  0  1  0  0  3  0  0  0  0  0  0
  190.6400  174.8480  141.9080 C   0  0  1  0  0  3  0  0  0  0  0  0
  192.9720  175.3730  144.7700 C   0  0  2  0  0  3  0  0  0  0  0  0
  188.6880  174.8910  146.8760 C   0  0  0  0  0  2  0  0  0  0  0  0
  192.4890  172.4000  142.1800 C   0  0  1  0  0  0  0  0  0  0  0  0
  190.4260  176.6440  147.4200 C   0  0  1  0  0  3  0  0  0  0  0  0
  195.5900  173.4060  144.1050 C   0  0  0  0  0  2  0  0  0  0  0  0
  192.5320  170.8180  139.3950 C   0  0  0  0  0  2  0  0  0  0  0  0
  193.8480  176.5740  144.3640 C   0  0  2  0  0  3  0  0  0  0  0  0
  192.0120  173.0970  141.0510 O   0  0  0  0  0  0  0  0  0  0  0  0
  197.9410  174.1750  144.5490 C   0  0  0  0  0  2  0  0  0  0  0  0
  197.4630  173.6390  145.8860 C   0  0  0  0  0  1  0  0  0  0  0  0
  1  5  1  6  0  0  0
  1 22  1  0  0  0  0
  2  6  1  0  0  0  0
  4 10  1  0  0  0  0
  4 12  1  0  0  0  0
  6 30  1  0  0  0  0
  6  8  1  0  0  0  0
  6  7  1  0  0  0  0
  7 26  1  0  0  0  0
  9 15  1  0  0  0  0
 10 28  1  0  0  0  0
 12  9  1  0  0  0  0
 12 19  1  0  0  0  0
 13 10  1  0  0  0  0
 15 29  1  0  0  0  0
 16 25  1  0  0  0  0
 16  5  1  0  0  0  0
 17 18  1  0  0  0  0
 18 14  2  0  0  0  0
 18  8  1  0  0  0  0
 19 24  1  0  0  0  0
 21 27  1  0  0  0  0
 22 11  1  0  0  0  0
 23 27  1  0  0  0  0
 24 31  1  0  0  0  0
 24 20  1  0  0  0  0
 25 32  1  0  0  0  0
 25 36  1  0  0  0  0
 26 13  1  0  0  0  0
 26 32  1  0  0  0  0
 27  4  1  0  0  0  0
 28 19  1  0  0  0  0
 29  3  1  0  0  0  0
 30  8  1  0  0  0  0
 30 13  1  0  0  0  0
 31  3  1  0  0  0  0
 31 20  1  0  0  0  0
 33 17  1  0  0  0  0
 33  2  1  0  0  0  0
 34  1  1  0  0  0  0
 34 28  1  0  0  0  0
 34 22  1  0  0  0  0
 35 21  1  0  0  0  0
 35 30  1  0  0  0  0
 36 37  1  0  0  0  0
M  END
>  <MODEL>
9

>  <REMARK>
 VINA RESULT:      -7.5      2.498      6.483
  Name = 
  1 active torsions:
  status: ('A' for Active; 'I' for Inactive)
    1  A    between atoms: C_11  and  C_26
                            x       y       z     vdW  Elec       q    Type
                         _______ _______ _______ _____ _____    ______ ____

>  <TORSDO>
F 1

$$$$
