=
 OpenBabel11052420083D

 37 42  0  0  1  0  0  0  0  0999 V2000
  197.0250  175.7830  143.0710 C   0  0  0  0  0  1  0  0  0  0  0  0
  192.7580  175.8620  146.3810 C   0  0  1  0  0  3  0  0  0  0  0  0
  195.2000  174.9930  146.1310 C   0  0  0  0  0  2  0  0  0  0  0  0
  191.8700  176.0430  145.1050 C   0  0  2  0  0  3  0  0  0  0  0  0
  192.1460  176.1640  142.5670 C   0  0  0  0  0  2  0  0  0  0  0  0
  190.4770  175.4280  145.2730 C   0  0  0  0  0  2  0  0  0  0  0  0
  194.2700  176.1880  146.2630 C   0  0  1  0  0  3  0  0  0  0  0  0
  193.3870  176.5510  143.2470 N   0  0  1  0  0  0  0  0  0  0  0  0
  195.7130  175.9500  143.8060 C   0  0  2  0  0  0  0  0  0  0  0  0
  191.2350  175.8810  148.0320 C   0  0  0  0  0  2  0  0  0  0  0  0
  194.6720  177.3850  145.3950 C   0  0  0  0  0  2  0  0  0  0  0  0
  195.8120  177.1490  144.5790 O   0  0  0  0  0  0  0  0  0  0  0  0
  192.2510  176.6360  147.4350 O   0  0  0  0  0  0  0  0  0  0  0  0
  192.5140  175.5010  143.8290 C   0  0  1  0  0  0  0  0  0  0  0  0
  195.5500  174.7010  144.6770 C   0  0  0  0  0  2  0  0  0  0  0  0
  189.5810  176.1950  146.2110 C   0  0  0  0  0  0  0  0  0  0  0  0
  194.6120  175.9820  142.7170 C   0  0  0  0  0  2  0  0  0  0  0  0
  189.9210  176.3500  147.4970 C   0  0  0  0  0  3  0  0  0  0  0  0
  192.3710  172.9860  144.7290 C   0  0  0  0  0  2  0  0  0  0  0  0
  193.2620  171.7860  144.6260 C   0  0  0  0  0  0  0  0  0  0  0  0
  191.3760  172.1460  142.2450 C   0  0  1  0  0  3  0  0  0  0  0  0
  193.1980  170.9040  143.6110 C   0  0  0  0  0  3  0  0  0  0  0  0
  192.2320  170.8920  142.4470 C   0  0  0  0  0  2  0  0  0  0  0  0
  192.1700  173.4630  142.1790 C   0  0  1  0  0  3  0  0  0  0  0  0
  190.5550  171.9920  141.0560 N   0  0  0  0  0  1  0  0  0  0  0  0
  192.6280  173.9560  143.5640 C   0  0  1  0  0  3  0  0  0  0  0  0
  193.0440  174.0530  140.0300 O   0  0  0  0  0  1  0  0  0  0  0  0
  193.3500  173.3880  141.2160 C   0  0  0  0  0  2  0  0  0  0  0  0
  195.5560  170.9760  145.0930 C   0  0  0  0  0  1  0  0  0  0  0  0
  194.3040  171.6040  145.6790 C   0  0  0  0  0  2  0  0  0  0  0  0
  188.2340  177.5130  144.5650 C   0  0  0  0  0  3  0  0  0  0  0  0
  188.2830  176.7110  145.7150 C   0  0  0  0  0  0  0  0  0  0  0  0
  187.0820  176.4150  146.3860 C   0  0  0  0  0  3  0  0  0  0  0  0
  184.7140  176.6170  146.5690 F   0  0  0  0  0  0  0  0  0  0  0  0
  185.8300  177.7060  144.7660 C   0  0  0  0  0  3  0  0  0  0  0  0
  185.8630  176.9100  145.9140 C   0  0  0  0  0  0  0  0  0  0  0  0
  187.0140  178.0080  144.0920 C   0  0  0  0  0  3  0  0  0  0  0  0
  2 13  1  1  0  0  0
  3  7  1  0  0  0  0
  4  6  1  1  0  0  0
  4  2  1  0  0  0  0
  6 16  1  0  0  0  0
  7 11  1  6  0  0  0
  7  2  1  0  0  0  0
  8  5  1  6  0  0  0
  8 14  1  0  0  0  0
  9  1  1  6  0  0  0
  9 12  1  0  0  0  0
  9 15  1  0  0  0  0
 12 11  1  0  0  0  0
 13 10  1  0  0  0  0
 14  5  1  6  0  0  0
 14  4  1  0  0  0  0
 15  3  1  0  0  0  0
 16 18  2  0  0  0  0
 17  8  1  0  0  0  0
 17  9  1  0  0  0  0
 18 10  1  0  0  0  0
 20 19  1  0  0  0  0
 20 30  1  0  0  0  0
 21 25  1  6  0  0  0
 21 23  1  0  0  0  0
 22 20  2  0  0  0  0
 23 22  1  0  0  0  0
 24 28  1  6  0  0  0
 24 21  1  0  0  0  0
 24 26  1  0  0  0  0
 26 14  1  0  0  0  0
 26 19  1  1  0  0  0
 27 28  1  0  0  0  0
 29 30  1  0  0  0  0
 31 32  1  0  0  0  0
 32 16  1  0  0  0  0
 32 33  2  0  0  0  0
 35 36  2  0  0  0  0
 36 33  1  0  0  0  0
 36 34  1  0  0  0  0
 37 31  2  0  0  0  0
 37 35  1  0  0  0  0
M  END
>  <MODEL>
1

>  <REMARK>
 VINA RESULT:      -8.7      0.000      0.000
  Name = 
  4 active torsions:
  status: ('A' for Active; 'I' for Inactive)
    1  A    between atoms: C_5  and  C_23
    2  A    between atoms: C_6  and  C_31
    3  A    between atoms: C_27  and  C_33
    4  A    between atoms: C_29  and  C_36
                            x       y       z     vdW  Elec       q    Type
                         _______ _______ _______ _____ _____    ______ ____

>  <TORSDO>
F 4

$$$$
=
 OpenBabel11052420083D

 37 42  0  0  1  0  0  0  0  0999 V2000
  191.9650  170.6850  142.4750 C   0  0  0  0  0  1  0  0  0  0  0  0
  189.0560  175.2150  142.0400 C   0  0  1  0  0  3  0  0  0  0  0  0
  190.9020  173.7910  140.8800 C   0  0  0  0  0  2  0  0  0  0  0  0
  188.9330  175.1920  143.6000 C   0  0  2  0  0  3  0  0  0  0  0  0
  189.7480  173.7930  145.5770 C   0  0  0  0  0  2  0  0  0  0  0  0
  188.8170  176.5990  144.1960 C   0  0  0  0  0  2  0  0  0  0  0  0
  189.4530  173.8960  141.3260 C   0  0  1  0  0  3  0  0  0  0  0  0
  189.7260  172.9960  144.3460 N   0  0  1  0  0  0  0  0  0  0  0  0
  191.0380  171.8760  142.5830 C   0  0  2  0  0  0  0  0  0  0  0  0
  187.8780  177.0470  141.4920 C   0  0  0  0  0  2  0  0  0  0  0  0
  188.8780  172.5880  141.8810 C   0  0  0  0  0  2  0  0  0  0  0  0
  189.8160  171.5220  141.9310 O   0  0  0  0  0  0  0  0  0  0  0  0
  187.8510  175.6480  141.4670 O   0  0  0  0  0  0  0  0  0  0  0  0
  190.0680  174.4390  144.2940 C   0  0  1  0  0  0  0  0  0  0  0  0
  191.7570  173.0390  141.8930 C   0  0  0  0  0  2  0  0  0  0  0  0
  187.4910  177.2650  143.9320 C   0  0  0  0  0  0  0  0  0  0  0  0
  190.8930  172.1700  144.0970 C   0  0  0  0  0  2  0  0  0  0  0  0
  187.0960  177.5130  142.6770 C   0  0  0  0  0  3  0  0  0  0  0  0
  191.9140  176.1590  143.4050 C   0  0  0  0  0  2  0  0  0  0  0  0
  193.3600  176.0410  143.0330 C   0  0  0  0  0  0  0  0  0  0  0  0
  192.8750  176.4900  146.0200 C   0  0  1  0  0  3  0  0  0  0  0  0
  194.3640  176.1850  143.9170 C   0  0  0  0  0  3  0  0  0  0  0  0
  194.2690  176.5340  145.3860 C   0  0  0  0  0  2  0  0  0  0  0  0
  192.1120  175.1700  145.8030 C   0  0  1  0  0  3  0  0  0  0  0  0
  192.9720  176.7900  147.4380 N   0  0  0  0  0  1  0  0  0  0  0  0
  191.5130  175.0480  144.3900 C   0  0  1  0  0  3  0  0  0  0  0  0
  193.3700  173.3120  144.9660 O   0  0  0  0  0  1  0  0  0  0  0  0
  192.9560  173.9440  146.1380 C   0  0  0  0  0  2  0  0  0  0  0  0
  194.9410  176.4130  141.1630 C   0  0  0  0  0  1  0  0  0  0  0  0
  193.6850  175.6920  141.6180 C   0  0  0  0  0  2  0  0  0  0  0  0
  187.1800  177.6730  146.3820 C   0  0  0  0  0  3  0  0  0  0  0  0
  186.6630  177.7130  145.0770 C   0  0  0  0  0  0  0  0  0  0  0  0
  185.3500  178.1780  144.8840 C   0  0  0  0  0  3  0  0  0  0  0  0
  183.3120  179.0410  145.7690 F   0  0  0  0  0  0  0  0  0  0  0  0
  185.1030  178.5500  147.2630 C   0  0  0  0  0  3  0  0  0  0  0  0
  184.5750  178.5950  145.9700 C   0  0  0  0  0  0  0  0  0  0  0  0
  186.4050  178.0890  147.4690 C   0  0  0  0  0  3  0  0  0  0  0  0
  2 13  1  6  0  0  0
  2  4  1  0  0  0  0
  3 15  1  0  0  0  0
  4  6  1  1  0  0  0
  4 14  1  0  0  0  0
  7  3  1  1  0  0  0
  7 11  1  0  0  0  0
  7  2  1  0  0  0  0
  8 17  1  1  0  0  0
  8  5  1  0  0  0  0
  9  1  1  6  0  0  0
  9 17  1  0  0  0  0
 10 18  1  0  0  0  0
 11 12  1  0  0  0  0
 12  9  1  0  0  0  0
 13 10  1  0  0  0  0
 14  8  1  0  0  0  0
 14 26  1  0  0  0  0
 14  5  1  1  0  0  0
 15  9  1  0  0  0  0
 16  6  1  0  0  0  0
 16 32  1  0  0  0  0
 18 16  2  0  0  0  0
 20 19  1  0  0  0  0
 20 22  2  0  0  0  0
 21 25  1  1  0  0  0
 22 23  1  0  0  0  0
 23 21  1  0  0  0  0
 24 21  1  0  0  0  0
 24 28  1  6  0  0  0
 26 19  1  1  0  0  0
 26 24  1  0  0  0  0
 27 28  1  0  0  0  0
 29 30  1  0  0  0  0
 30 20  1  0  0  0  0
 31 37  1  0  0  0  0
 32 31  2  0  0  0  0
 33 32  1  0  0  0  0
 33 36  2  0  0  0  0
 34 36  1  0  0  0  0
 35 37  2  0  0  0  0
 36 35  1  0  0  0  0
M  END
>  <MODEL>
2

>  <REMARK>
 VINA RESULT:      -8.3      2.308      5.350
  Name = 
  4 active torsions:
  status: ('A' for Active; 'I' for Inactive)
    1  A    between atoms: C_5  and  C_23
    2  A    between atoms: C_6  and  C_31
    3  A    between atoms: C_27  and  C_33
    4  A    between atoms: C_29  and  C_36
                            x       y       z     vdW  Elec       q    Type
                         _______ _______ _______ _____ _____    ______ ____

>  <TORSDO>
F 4

$$$$
=
 OpenBabel11052420083D

 37 42  0  0  1  0  0  0  0  0999 V2000
  196.0620  174.7580  142.9750 C   0  0  0  0  0  1  0  0  0  0  0  0
  191.6470  175.0410  146.0720 C   0  0  1  0  0  3  0  0  0  0  0  0
  193.9170  173.8020  145.7690 C   0  0  0  0  0  2  0  0  0  0  0  0
  190.8950  175.5910  144.8140 C   0  0  2  0  0  3  0  0  0  0  0  0
  191.3670  176.0880  142.3520 C   0  0  0  0  0  2  0  0  0  0  0  0
  189.4090  175.2160  144.8130 C   0  0  0  0  0  2  0  0  0  0  0  0
  193.1960  175.1050  146.0750 C   0  0  1  0  0  3  0  0  0  0  0  0
  192.6040  176.1250  143.1400 N   0  0  1  0  0  0  0  0  0  0  0  0
  194.7490  175.0310  143.6750 C   0  0  2  0  0  0  0  0  0  0  0  0
  190.0350  175.0530  147.6370 C   0  0  0  0  0  2  0  0  0  0  0  0
  193.8560  176.3400  145.4530 C   0  0  0  0  0  2  0  0  0  0  0  0
  194.9940  176.0440  144.6540 O   0  0  0  0  0  0  0  0  0  0  0  0
  191.2040  175.7040  147.2270 O   0  0  0  0  0  0  0  0  0  0  0  0
  191.5260  175.1660  143.4880 C   0  0  1  0  0  0  0  0  0  0  0  0
  194.3140  173.7030  144.3010 C   0  0  0  0  0  2  0  0  0  0  0  0
  188.5920  175.9620  145.8370 C   0  0  0  0  0  0  0  0  0  0  0  0
  193.7490  175.4440  142.5660 C   0  0  0  0  0  2  0  0  0  0  0  0
  188.8610  175.8340  147.1430 C   0  0  0  0  0  3  0  0  0  0  0  0
  190.9430  172.5930  143.9310 C   0  0  0  0  0  2  0  0  0  0  0  0
  191.6280  171.2980  143.6230 C   0  0  0  0  0  0  0  0  0  0  0  0
  189.9090  172.3740  141.3320 C   0  0  1  0  0  3  0  0  0  0  0  0
  191.4550  170.6270  142.4680 C   0  0  0  0  0  3  0  0  0  0  0  0
  190.5410  170.9780  141.3150 C   0  0  0  0  0  2  0  0  0  0  0  0
  190.9100  173.5310  141.5040 C   0  0  1  0  0  3  0  0  0  0  0  0
  189.1170  172.5670  140.1300 N   0  0  0  0  0  1  0  0  0  0  0  0
  191.3950  173.6930  142.9560 C   0  0  1  0  0  3  0  0  0  0  0  0
  191.8450  174.1660  139.3930 O   0  0  0  0  0  1  0  0  0  0  0  0
  192.0950  173.4270  140.5490 C   0  0  0  0  0  2  0  0  0  0  0  0
  193.0610  169.3740  144.2440 C   0  0  0  0  0  1  0  0  0  0  0  0
  192.5890  170.7640  144.6330 C   0  0  0  0  0  2  0  0  0  0  0  0
  186.2490  176.7900  146.1360 C   0  0  0  0  0  3  0  0  0  0  0  0
  187.4380  176.7790  145.3900 C   0  0  0  0  0  0  0  0  0  0  0  0
  187.5070  177.5490  144.2150 C   0  0  0  0  0  3  0  0  0  0  0  0
  186.4930  179.0500  142.6660 F   0  0  0  0  0  0  0  0  0  0  0  0
  185.2360  178.3140  144.5520 C   0  0  0  0  0  3  0  0  0  0  0  0
  186.4130  178.3130  143.7990 C   0  0  0  0  0  0  0  0  0  0  0  0
  185.1540  177.5530  145.7200 C   0  0  0  0  0  3  0  0  0  0  0  0
  2  7  1  0  0  0  0
  2 13  1  1  0  0  0
  3  7  1  0  0  0  0
  4  6  1  6  0  0  0
  4  2  1  0  0  0  0
  6 16  1  0  0  0  0
  7 11  1  6  0  0  0
  8  5  1  6  0  0  0
  8 14  1  0  0  0  0
  9  1  1  6  0  0  0
  9 15  1  0  0  0  0
  9 12  1  0  0  0  0
 12 11  1  0  0  0  0
 13 10  1  0  0  0  0
 14  5  1  6  0  0  0
 14  4  1  0  0  0  0
 15  3  1  0  0  0  0
 16 18  2  0  0  0  0
 17  8  1  0  0  0  0
 17  9  1  0  0  0  0
 18 10  1  0  0  0  0
 20 19  1  0  0  0  0
 20 30  1  0  0  0  0
 21 25  1  6  0  0  0
 21 24  1  0  0  0  0
 22 20  2  0  0  0  0
 23 21  1  0  0  0  0
 23 22  1  0  0  0  0
 24 28  1  6  0  0  0
 24 26  1  0  0  0  0
 26 14  1  0  0  0  0
 26 19  1  1  0  0  0
 27 28  1  0  0  0  0
 29 30  1  0  0  0  0
 32 16  1  0  0  0  0
 32 31  2  0  0  0  0
 33 32  1  0  0  0  0
 34 36  1  0  0  0  0
 35 37  2  0  0  0  0
 36 33  2  0  0  0  0
 36 35  1  0  0  0  0
 37 31  1  0  0  0  0
M  END
>  <MODEL>
3

>  <REMARK>
 VINA RESULT:      -7.8      1.537      1.851
  Name = 
  4 active torsions:
  status: ('A' for Active; 'I' for Inactive)
    1  A    between atoms: C_5  and  C_23
    2  A    between atoms: C_6  and  C_31
    3  A    between atoms: C_27  and  C_33
    4  A    between atoms: C_29  and  C_36
                            x       y       z     vdW  Elec       q    Type
                         _______ _______ _______ _____ _____    ______ ____

>  <TORSDO>
F 4

$$$$
=
 OpenBabel11052420083D

 37 42  0  0  1  0  0  0  0  0999 V2000
  195.3830  175.2220  142.7980 C   0  0  0  0  0  1  0  0  0  0  0  0
  191.0620  175.1110  146.0370 C   0  0  1  0  0  3  0  0  0  0  0  0
  193.2950  173.8930  145.4810 C   0  0  0  0  0  2  0  0  0  0  0  0
  190.2880  175.8590  144.9000 C   0  0  2  0  0  3  0  0  0  0  0  0
  190.7020  176.7140  142.5280 C   0  0  0  0  0  2  0  0  0  0  0  0
  188.7950  175.5140  144.8890 C   0  0  0  0  0  2  0  0  0  0  0  0
  192.6120  175.1470  146.0020 C   0  0  1  0  0  3  0  0  0  0  0  0
  191.9610  176.6100  143.2740 N   0  0  1  0  0  0  0  0  0  0  0  0
  194.0960  175.4100  143.5710 C   0  0  2  0  0  0  0  0  0  0  0  0
  189.4960  174.9150  147.6350 C   0  0  0  0  0  2  0  0  0  0  0  0
  193.2820  176.4510  145.5520 C   0  0  0  0  0  2  0  0  0  0  0  0
  194.3910  176.2590  144.6830 O   0  0  0  0  0  0  0  0  0  0  0  0
  190.6670  175.6000  147.2920 O   0  0  0  0  0  0  0  0  0  0  0  0
  190.8730  175.6280  143.5070 C   0  0  1  0  0  0  0  0  0  0  0  0
  193.6500  174.0100  144.0040 C   0  0  0  0  0  2  0  0  0  0  0  0
  188.0240  176.1110  146.0380 C   0  0  0  0  0  0  0  0  0  0  0  0
  193.0740  176.0030  142.5680 C   0  0  0  0  0  2  0  0  0  0  0  0
  188.3260  175.7820  147.3000 C   0  0  0  0  0  3  0  0  0  0  0  0
  191.2470  174.1100  141.3350 C   0  0  0  0  0  2  0  0  0  0  0  0
  190.3620  173.2290  140.5110 C   0  0  0  0  0  0  0  0  0  0  0  0
  191.5620  171.8470  142.9620 C   0  0  1  0  0  3  0  0  0  0  0  0
  190.1600  171.9250  140.7810 C   0  0  0  0  0  3  0  0  0  0  0  0
  190.7880  171.0920  141.8760 C   0  0  0  0  0  2  0  0  0  0  0  0
  190.7770  172.9880  143.6350 C   0  0  1  0  0  3  0  0  0  0  0  0
  192.0440  170.9090  143.9620 N   0  0  0  0  0  1  0  0  0  0  0  0
  190.6950  174.2550  142.7630 C   0  0  1  0  0  3  0  0  0  0  0  0
  189.4400  172.0550  145.3880 O   0  0  0  0  0  1  0  0  0  0  0  0
  189.3870  172.5550  144.0880 C   0  0  0  0  0  2  0  0  0  0  0  0
  188.4260  173.0150  138.9800 C   0  0  0  0  0  1  0  0  0  0  0  0
  189.6310  173.8530  139.3690 C   0  0  0  0  0  2  0  0  0  0  0  0
  185.6890  176.8890  146.4960 C   0  0  0  0  0  3  0  0  0  0  0  0
  186.8760  177.0060  145.7550 C   0  0  0  0  0  0  0  0  0  0  0  0
  186.9480  177.9780  144.7410 C   0  0  0  0  0  3  0  0  0  0  0  0
  185.9430  179.7470  143.5000 F   0  0  0  0  0  0  0  0  0  0  0  0
  184.6850  178.6880  145.2250 C   0  0  0  0  0  3  0  0  0  0  0  0
  185.8590  178.8150  144.4790 C   0  0  0  0  0  0  0  0  0  0  0  0
  184.6000  177.7260  146.2330 C   0  0  0  0  0  3  0  0  0  0  0  0
  2 13  1  1  0  0  0
  4  6  1  6  0  0  0
  4  2  1  0  0  0  0
  6 16  1  0  0  0  0
  7  3  1  6  0  0  0
  7  2  1  0  0  0  0
  8  5  1  6  0  0  0
  8 14  1  0  0  0  0
  9  1  1  6  0  0  0
  9 15  1  0  0  0  0
  9 12  1  0  0  0  0
 11  7  1  0  0  0  0
 12 11  1  0  0  0  0
 13 10  1  0  0  0  0
 14  5  1  6  0  0  0
 14  4  1  0  0  0  0
 15  3  1  0  0  0  0
 16 18  2  0  0  0  0
 17  8  1  0  0  0  0
 17  9  1  0  0  0  0
 18 10  1  0  0  0  0
 20 22  2  0  0  0  0
 20 19  1  0  0  0  0
 21 24  1  0  0  0  0
 21 25  1  1  0  0  0
 22 23  1  0  0  0  0
 23 21  1  0  0  0  0
 24 28  1  6  0  0  0
 26 19  1  6  0  0  0
 26 14  1  0  0  0  0
 26 24  1  0  0  0  0
 28 27  1  0  0  0  0
 29 30  1  0  0  0  0
 30 20  1  0  0  0  0
 32 16  1  0  0  0  0
 32 31  2  0  0  0  0
 33 32  1  0  0  0  0
 34 36  1  0  0  0  0
 35 37  2  0  0  0  0
 36 33  2  0  0  0  0
 36 35  1  0  0  0  0
 37 31  1  0  0  0  0
M  END
>  <MODEL>
4

>  <REMARK>
 VINA RESULT:      -7.4      2.120      3.398
  Name = 
  4 active torsions:
  status: ('A' for Active; 'I' for Inactive)
    1  A    between atoms: C_5  and  C_23
    2  A    between atoms: C_6  and  C_31
    3  A    between atoms: C_27  and  C_33
    4  A    between atoms: C_29  and  C_36
                            x       y       z     vdW  Elec       q    Type
                         _______ _______ _______ _____ _____    ______ ____

>  <TORSDO>
F 4

$$$$
=
 OpenBabel11052420083D

 37 42  0  0  1  0  0  0  0  0999 V2000
  193.4760  169.7530  142.1490 C   0  0  0  0  0  1  0  0  0  0  0  0
  189.7920  173.6630  141.5950 C   0  0  1  0  0  3  0  0  0  0  0  0
  191.5320  172.2260  140.2970 C   0  0  0  0  0  2  0  0  0  0  0  0
  190.0470  174.0090  143.1000 C   0  0  2  0  0  3  0  0  0  0  0  0
  191.5430  173.2440  145.0260 C   0  0  0  0  0  2  0  0  0  0  0  0
  189.8290  175.4960  143.4010 C   0  0  0  0  0  2  0  0  0  0  0  0
  190.2350  172.2660  141.0880 C   0  0  1  0  0  3  0  0  0  0  0  0
  191.3710  172.1730  144.0390 N   0  0  1  0  0  0  0  0  0  0  0  0
  192.4050  170.8170  142.2570 C   0  0  2  0  0  0  0  0  0  0  0  0
  188.2120  175.1540  141.0220 C   0  0  0  0  0  2  0  0  0  0  0  0
  190.0490  171.0760  142.0360 C   0  0  0  0  0  2  0  0  0  0  0  0
  191.1460  170.1720  142.0480 O   0  0  0  0  0  0  0  0  0  0  0  0
  188.4280  173.7980  141.2940 O   0  0  0  0  0  0  0  0  0  0  0  0
  191.4300  173.5890  143.5990 C   0  0  1  0  0  0  0  0  0  0  0  0
  192.7220  171.8520  141.1720 C   0  0  0  0  0  2  0  0  0  0  0  0
  188.3820  175.9160  143.3750 C   0  0  0  0  0  0  0  0  0  0  0  0
  192.5730  171.4540  143.6590 C   0  0  0  0  0  2  0  0  0  0  0  0
  187.6620  175.8010  142.2510 C   0  0  0  0  0  3  0  0  0  0  0  0
  192.6280  175.3910  142.0260 C   0  0  0  0  0  2  0  0  0  0  0  0
  193.8860  175.3970  141.2140 C   0  0  0  0  0  0  0  0  0  0  0  0
  194.2970  176.1450  144.1510 C   0  0  1  0  0  3  0  0  0  0  0  0
  195.0830  175.7620  141.7090 C   0  0  0  0  0  3  0  0  0  0  0  0
  195.4010  176.2740  143.0960 C   0  0  0  0  0  2  0  0  0  0  0  0
  193.7100  174.7300  144.2980 C   0  0  1  0  0  3  0  0  0  0  0  0
  194.7860  176.6250  145.4320 N   0  0  0  0  0  1  0  0  0  0  0  0
  192.7250  174.3680  143.1710 C   0  0  1  0  0  3  0  0  0  0  0  0
  194.9760  173.3340  145.7760 O   0  0  0  0  0  1  0  0  0  0  0  0
  194.7890  173.6600  144.4340 C   0  0  0  0  0  2  0  0  0  0  0  0
  195.1770  174.8970  139.1590 C   0  0  0  0  0  1  0  0  0  0  0  0
  193.8010  174.9190  139.8020 C   0  0  0  0  0  2  0  0  0  0  0  0
  188.5900  176.8540  145.6860 C   0  0  0  0  0  3  0  0  0  0  0  0
  187.7820  176.5310  144.5840 C   0  0  0  0  0  0  0  0  0  0  0  0
  186.4030  176.7950  144.6550 C   0  0  0  0  0  3  0  0  0  0  0  0
  184.5160  177.6210  145.8550 F   0  0  0  0  0  0  0  0  0  0  0  0
  186.6620  177.6890  146.8890 C   0  0  0  0  0  3  0  0  0  0  0  0
  185.8460  177.3710  145.8000 C   0  0  0  0  0  0  0  0  0  0  0  0
  188.0330  177.4300  146.8330 C   0  0  0  0  0  3  0  0  0  0  0  0
  2 13  1  1  0  0  0
  2  4  1  0  0  0  0
  3 15  1  0  0  0  0
  4  6  1  6  0  0  0
  4 14  1  0  0  0  0
  7  3  1  1  0  0  0
  7  2  1  0  0  0  0
  7 11  1  0  0  0  0
  8 17  1  6  0  0  0
  8  5  1  0  0  0  0
  9  1  1  6  0  0  0
  9 17  1  0  0  0  0
 10 13  1  0  0  0  0
 10 18  1  0  0  0  0
 11 12  1  0  0  0  0
 12  9  1  0  0  0  0
 14  8  1  0  0  0  0
 14  5  1  1  0  0  0
 15  9  1  0  0  0  0
 16  6  1  0  0  0  0
 16 32  1  0  0  0  0
 18 16  2  0  0  0  0
 20 22  2  0  0  0  0
 20 19  1  0  0  0  0
 21 24  1  0  0  0  0
 21 25  1  1  0  0  0
 22 23  1  0  0  0  0
 23 21  1  0  0  0  0
 24 28  1  6  0  0  0
 26 19  1  1  0  0  0
 26 14  1  0  0  0  0
 26 24  1  0  0  0  0
 28 27  1  0  0  0  0
 29 30  1  0  0  0  0
 30 20  1  0  0  0  0
 31 37  1  0  0  0  0
 32 33  1  0  0  0  0
 32 31  2  0  0  0  0
 33 36  2  0  0  0  0
 36 34  1  0  0  0  0
 36 35  1  0  0  0  0
 37 35  2  0  0  0  0
M  END
>  <MODEL>
5

>  <REMARK>
 VINA RESULT:      -7.2      2.192      5.293
  Name = 
  4 active torsions:
  status: ('A' for Active; 'I' for Inactive)
    1  A    between atoms: C_5  and  C_23
    2  A    between atoms: C_6  and  C_31
    3  A    between atoms: C_27  and  C_33
    4  A    between atoms: C_29  and  C_36
                            x       y       z     vdW  Elec       q    Type
                         _______ _______ _______ _____ _____    ______ ____

>  <TORSDO>
F 4

$$$$
=
 OpenBabel11052420083D

 37 42  0  0  1  0  0  0  0  0999 V2000
  192.2430  170.8470  143.1080 C   0  0  0  0  0  1  0  0  0  0  0  0
  188.9770  175.0210  142.0660 C   0  0  1  0  0  3  0  0  0  0  0  0
  190.9960  173.6600  141.1440 C   0  0  0  0  0  2  0  0  0  0  0  0
  188.7770  175.1490  143.6140 C   0  0  2  0  0  3  0  0  0  0  0  0
  189.6090  174.0440  145.7620 C   0  0  0  0  0  2  0  0  0  0  0  0
  188.5090  176.5940  144.0480 C   0  0  0  0  0  2  0  0  0  0  0  0
  189.5230  173.6780  141.5160 C   0  0  1  0  0  3  0  0  0  0  0  0
  189.7180  173.1250  144.6250 N   0  0  1  0  0  0  0  0  0  0  0  0
  191.2120  171.9530  143.0490 C   0  0  2  0  0  0  0  0  0  0  0  0
  187.6740  176.6710  141.2750 C   0  0  0  0  0  2  0  0  0  0  0  0
  189.0360  172.3870  142.1850 C   0  0  0  0  0  2  0  0  0  0  0  0
  190.0600  171.4220  142.3890 O   0  0  0  0  0  0  0  0  0  0  0  0
  187.7700  175.2800  141.4000 O   0  0  0  0  0  0  0  0  0  0  0  0
  189.9370  174.5800  144.4310 C   0  0  1  0  0  0  0  0  0  0  0  0
  191.8600  173.0990  142.2670 C   0  0  0  0  0  2  0  0  0  0  0  0
  187.1460  177.1050  143.6590 C   0  0  0  0  0  0  0  0  0  0  0  0
  190.9640  172.3880  144.5150 C   0  0  0  0  0  2  0  0  0  0  0  0
  186.7950  177.1840  142.3690 C   0  0  0  0  0  3  0  0  0  0  0  0
  192.3600  174.8310  145.5360 C   0  0  0  0  0  2  0  0  0  0  0  0
  193.1380  175.9790  146.0990 C   0  0  0  0  0  0  0  0  0  0  0  0
  193.4070  175.6580  143.0690 C   0  0  1  0  0  3  0  0  0  0  0  0
  193.9390  176.7640  145.3540 C   0  0  0  0  0  3  0  0  0  0  0  0
  194.2620  176.6360  143.8820 C   0  0  0  0  0  2  0  0  0  0  0  0
  191.8880  175.8700  143.1980 C   0  0  1  0  0  3  0  0  0  0  0  0
  193.8060  175.7030  141.6730 N   0  0  0  0  0  1  0  0  0  0  0  0
  191.3160  175.3260  144.5200 C   0  0  1  0  0  3  0  0  0  0  0  0
  191.2210  177.9280  144.2240 O   0  0  0  0  0  1  0  0  0  0  0  0
  191.4810  177.3250  142.9940 C   0  0  0  0  0  2  0  0  0  0  0  0
  191.5040  176.5600  147.8690 C   0  0  0  0  0  1  0  0  0  0  0  0
  192.9640  176.2910  147.5490 C   0  0  0  0  0  2  0  0  0  0  0  0
  185.0130  178.2100  144.3640 C   0  0  0  0  0  3  0  0  0  0  0  0
  186.2240  177.5920  144.7140 C   0  0  0  0  0  0  0  0  0  0  0  0
  186.5440  177.4530  146.0760 C   0  0  0  0  0  3  0  0  0  0  0  0
  185.9920  177.7780  148.3720 F   0  0  0  0  0  0  0  0  0  0  0  0
  184.4690  178.5310  146.7000 C   0  0  0  0  0  3  0  0  0  0  0  0
  185.6710  177.9190  147.0640 C   0  0  0  0  0  0  0  0  0  0  0  0
  184.1400  178.6770  145.3510 C   0  0  0  0  0  3  0  0  0  0  0  0
  2 13  1  6  0  0  0
  2  4  1  0  0  0  0
  3 15  1  0  0  0  0
  4  6  1  6  0  0  0
  4 14  1  0  0  0  0
  7  3  1  1  0  0  0
  7  2  1  0  0  0  0
  7 11  1  0  0  0  0
  8 17  1  1  0  0  0
  8  5  1  0  0  0  0
  9  1  1  1  0  0  0
  9 17  1  0  0  0  0
 10 13  1  0  0  0  0
 10 18  1  0  0  0  0
 11 12  1  0  0  0  0
 12  9  1  0  0  0  0
 14 26  1  0  0  0  0
 14  8  1  0  0  0  0
 14  5  1  1  0  0  0
 15  9  1  0  0  0  0
 16  6  1  0  0  0  0
 16 32  1  0  0  0  0
 18 16  2  0  0  0  0
 19 20  1  0  0  0  0
 20 30  1  0  0  0  0
 21 25  1  6  0  0  0
 21 24  1  0  0  0  0
 21 23  1  0  0  0  0
 22 20  2  0  0  0  0
 23 22  1  0  0  0  0
 24 28  1  1  0  0  0
 24 26  1  0  0  0  0
 26 19  1  6  0  0  0
 28 27  1  0  0  0  0
 30 29  1  0  0  0  0
 31 32  2  0  0  0  0
 31 37  1  0  0  0  0
 32 33  1  0  0  0  0
 33 36  2  0  0  0  0
 35 36  1  0  0  0  0
 36 34  1  0  0  0  0
 37 35  2  0  0  0  0
M  END
>  <MODEL>
6

>  <REMARK>
 VINA RESULT:      -7.1      2.156      5.156
  Name = 
  4 active torsions:
  status: ('A' for Active; 'I' for Inactive)
    1  A    between atoms: C_5  and  C_23
    2  A    between atoms: C_6  and  C_31
    3  A    between atoms: C_27  and  C_33
    4  A    between atoms: C_29  and  C_36
                            x       y       z     vdW  Elec       q    Type
                         _______ _______ _______ _____ _____    ______ ____

>  <TORSDO>
F 4

$$$$
=
 OpenBabel11052420083D

 37 42  0  0  1  0  0  0  0  0999 V2000
  195.8620  175.5340  143.8760 C   0  0  0  0  0  1  0  0  0  0  0  0
  191.0410  175.0520  146.2630 C   0  0  1  0  0  3  0  0  0  0  0  0
  193.2680  173.7970  145.7670 C   0  0  0  0  0  2  0  0  0  0  0  0
  190.5200  176.1260  145.2500 C   0  0  2  0  0  3  0  0  0  0  0  0
  191.3890  177.4920  143.2730 C   0  0  0  0  0  2  0  0  0  0  0  0
  189.0360  175.9410  144.9180 C   0  0  0  0  0  2  0  0  0  0  0  0
  192.5730  174.9450  146.4800 C   0  0  1  0  0  3  0  0  0  0  0  0
  192.4900  177.0870  144.1540 N   0  0  1  0  0  0  0  0  0  0  0  0
  194.4720  175.6510  144.4610 C   0  0  2  0  0  0  0  0  0  0  0  0
  189.2100  174.6240  147.4910 C   0  0  0  0  0  2  0  0  0  0  0  0
  193.3800  176.2480  146.4920 C   0  0  0  0  0  2  0  0  0  0  0  0
  194.6120  176.1690  145.7870 O   0  0  0  0  0  0  0  0  0  0  0  0
  190.4590  175.2550  147.5230 O   0  0  0  0  0  0  0  0  0  0  0  0
  191.3270  176.1880  143.9530 C   0  0  1  0  0  0  0  0  0  0  0  0
  193.8820  174.2370  144.4440 C   0  0  0  0  0  2  0  0  0  0  0  0
  188.1080  176.3100  146.0470 C   0  0  0  0  0  0  0  0  0  0  0  0
  193.6760  176.5660  143.4980 C   0  0  0  0  0  2  0  0  0  0  0  0
  188.1660  175.6550  147.2130 C   0  0  0  0  0  3  0  0  0  0  0  0
  192.4080  174.1300  142.6300 C   0  0  0  0  0  2  0  0  0  0  0  0
  192.5180  173.7590  141.1830 C   0  0  0  0  0  0  0  0  0  0  0  0
  189.8970  172.8870  142.4980 C   0  0  1  0  0  3  0  0  0  0  0  0
  191.5800  173.0470  140.5300 C   0  0  0  0  0  3  0  0  0  0  0  0
  190.3090  172.4470  141.0890 C   0  0  0  0  0  2  0  0  0  0  0  0
  189.8220  174.4110  142.7000 C   0  0  1  0  0  3  0  0  0  0  0  0
  188.6310  172.2680  142.8530 N   0  0  0  0  0  1  0  0  0  0  0  0
  191.2080  175.0630  142.8630 C   0  0  1  0  0  3  0  0  0  0  0  0
  187.7030  175.2850  142.0100 O   0  0  0  0  0  1  0  0  0  0  0  0
  189.0250  175.1090  141.6030 C   0  0  0  0  0  2  0  0  0  0  0  0
  194.9500  173.4740  140.8060 C   0  0  0  0  0  1  0  0  0  0  0  0
  193.7050  174.2570  140.4280 C   0  0  0  0  0  2  0  0  0  0  0  0
  186.2170  177.7270  146.8730 C   0  0  0  0  0  3  0  0  0  0  0  0
  187.0780  177.3540  145.8280 C   0  0  0  0  0  0  0  0  0  0  0  0
  186.9370  177.9830  144.5780 C   0  0  0  0  0  3  0  0  0  0  0  0
  185.8350  179.5600  143.1710 F   0  0  0  0  0  0  0  0  0  0  0  0
  185.1110  179.3250  145.4290 C   0  0  0  0  0  3  0  0  0  0  0  0
  185.9600  178.9630  144.3800 C   0  0  0  0  0  0  0  0  0  0  0  0
  185.2390  178.7080  146.6750 C   0  0  0  0  0  3  0  0  0  0  0  0
  2  7  1  0  0  0  0
  2 13  1  1  0  0  0
  4  6  1  6  0  0  0
  4  2  1  0  0  0  0
  6 16  1  0  0  0  0
  7  3  1  6  0  0  0
  7 11  1  0  0  0  0
  8  5  1  6  0  0  0
  9  1  1  6  0  0  0
  9 12  1  0  0  0  0
 10 13  1  0  0  0  0
 12 11  1  0  0  0  0
 14  5  1  6  0  0  0
 14  8  1  0  0  0  0
 14  4  1  0  0  0  0
 15  9  1  0  0  0  0
 15  3  1  0  0  0  0
 16 18  2  0  0  0  0
 17  8  1  0  0  0  0
 17  9  1  0  0  0  0
 18 10  1  0  0  0  0
 20 19  1  0  0  0  0
 21 24  1  0  0  0  0
 21 25  1  6  0  0  0
 22 23  1  0  0  0  0
 22 20  2  0  0  0  0
 23 21  1  0  0  0  0
 24 28  1  6  0  0  0
 24 26  1  0  0  0  0
 26 19  1  1  0  0  0
 26 14  1  0  0  0  0
 28 27  1  0  0  0  0
 30 29  1  0  0  0  0
 30 20  1  0  0  0  0
 32 16  1  0  0  0  0
 32 31  2  0  0  0  0
 33 32  1  0  0  0  0
 34 36  1  0  0  0  0
 35 37  2  0  0  0  0
 36 33  2  0  0  0  0
 36 35  1  0  0  0  0
 37 31  1  0  0  0  0
M  END
>  <MODEL>
7

>  <REMARK>
 VINA RESULT:      -6.9      2.095      2.847
  Name = 
  4 active torsions:
  status: ('A' for Active; 'I' for Inactive)
    1  A    between atoms: C_5  and  C_23
    2  A    between atoms: C_6  and  C_31
    3  A    between atoms: C_27  and  C_33
    4  A    between atoms: C_29  and  C_36
                            x       y       z     vdW  Elec       q    Type
                         _______ _______ _______ _____ _____    ______ ____

>  <TORSDO>
F 4

$$$$
=
 OpenBabel11052420083D

 37 42  0  0  1  0  0  0  0  0999 V2000
  189.1930  176.7190  143.8960 C   0  0  0  0  0  1  0  0  0  0  0  0
  194.2160  174.9280  144.7560 C   0  0  1  0  0  3  0  0  0  0  0  0
  192.8320  176.8330  143.6420 C   0  0  0  0  0  2  0  0  0  0  0  0
  193.6010  173.4930  144.8650 C   0  0  2  0  0  3  0  0  0  0  0  0
  191.3240  172.3510  144.6610 C   0  0  0  0  0  2  0  0  0  0  0  0
  194.5770  172.4050  144.4040 C   0  0  0  0  0  2  0  0  0  0  0  0
  193.2610  176.1390  144.9250 C   0  0  1  0  0  3  0  0  0  0  0  0
  191.1700  173.7670  145.0100 N   0  0  1  0  0  0  0  0  0  0  0  0
  190.4810  176.0170  144.2680 C   0  0  2  0  0  0  0  0  0  0  0  0
  196.4000  174.5430  145.1080 C   0  0  0  0  0  2  0  0  0  0  0  0
  192.1460  176.0230  145.9700 C   0  0  0  0  0  2  0  0  0  0  0  0
  190.8930  176.5350  145.5360 O   0  0  0  0  0  0  0  0  0  0  0  0
  195.2490  175.0830  145.6920 O   0  0  0  0  0  0  0  0  0  0  0  0
  192.2760  173.3350  144.1200 C   0  0  1  0  0  0  0  0  0  0  0  0
  191.4790  176.3350  143.1510 C   0  0  0  0  0  2  0  0  0  0  0  0
  195.7220  172.1710  145.3550 C   0  0  0  0  0  0  0  0  0  0  0  0
  190.1580  174.5020  144.2720 C   0  0  0  0  0  2  0  0  0  0  0  0
  196.5880  173.1550  145.6290 C   0  0  0  0  0  3  0  0  0  0  0  0
  193.5420  173.3560  141.7630 C   0  0  0  0  0  2  0  0  0  0  0  0
  193.3410  174.0920  140.4750 C   0  0  0  0  0  0  0  0  0  0  0  0
  191.6630  171.5470  140.7300 C   0  0  1  0  0  3  0  0  0  0  0  0
  192.5460  173.6450  139.4860 C   0  0  0  0  0  3  0  0  0  0  0  0
  191.7670  172.3490  139.4290 C   0  0  0  0  0  2  0  0  0  0  0  0
  191.1500  172.3480  141.9400 C   0  0  1  0  0  3  0  0  0  0  0  0
  190.8370  170.3720  140.5160 N   0  0  0  0  0  1  0  0  0  0  0  0
  192.2240  173.2670  142.5510 C   0  0  1  0  0  3  0  0  0  0  0  0
  188.7620  172.4500  142.0920 O   0  0  0  0  0  1  0  0  0  0  0  0
  189.8830  173.1360  141.6260 C   0  0  0  0  0  2  0  0  0  0  0  0
  195.2460  175.4960  141.2110 C   0  0  0  0  0  1  0  0  0  0  0  0
  194.0210  175.4120  140.3170 C   0  0  0  0  0  2  0  0  0  0  0  0
  197.1910  170.2090  145.8650 C   0  0  0  0  0  3  0  0  0  0  0  0
  195.9270  170.8170  145.9260 C   0  0  0  0  0  0  0  0  0  0  0  0
  194.8670  170.1180  146.5290 C   0  0  0  0  0  3  0  0  0  0  0  0
  194.0390  168.1780  147.6390 F   0  0  0  0  0  0  0  0  0  0  0  0
  196.3320  168.2470  146.9940 C   0  0  0  0  0  3  0  0  0  0  0  0
  195.0680  168.8400  147.0610 C   0  0  0  0  0  0  0  0  0  0  0  0
  197.3920  168.9310  146.3970 C   0  0  0  0  0  3  0  0  0  0  0  0
  2  4  1  0  0  0  0
  2  7  1  0  0  0  0
  2 13  1  1  0  0  0
  4  6  1  6  0  0  0
  5  8  1  0  0  0  0
  6 16  1  0  0  0  0
  7  3  1  6  0  0  0
  7 11  1  0  0  0  0
  8 17  1  6  0  0  0
  9  1  1  6  0  0  0
  9 17  1  0  0  0  0
  9 12  1  0  0  0  0
 10 18  1  0  0  0  0
 10 13  1  0  0  0  0
 12 11  1  0  0  0  0
 14  5  1  1  0  0  0
 14  4  1  0  0  0  0
 14  8  1  0  0  0  0
 15  3  1  0  0  0  0
 15  9  1  0  0  0  0
 16 18  2  0  0  0  0
 16 32  1  0  0  0  0
 20 19  1  0  0  0  0
 21 25  1  6  0  0  0
 21 24  1  0  0  0  0
 22 20  2  0  0  0  0
 23 22  1  0  0  0  0
 23 21  1  0  0  0  0
 24 28  1  6  0  0  0
 24 26  1  0  0  0  0
 26 19  1  1  0  0  0
 26 14  1  0  0  0  0
 28 27  1  0  0  0  0
 30 20  1  0  0  0  0
 30 29  1  0  0  0  0
 31 32  2  0  0  0  0
 31 37  1  0  0  0  0
 32 33  1  0  0  0  0
 33 36  2  0  0  0  0
 35 36  1  0  0  0  0
 36 34  1  0  0  0  0
 37 35  2  0  0  0  0
M  END
>  <MODEL>
8

>  <REMARK>
 VINA RESULT:      -6.7      2.976      6.717
  Name = 
  4 active torsions:
  status: ('A' for Active; 'I' for Inactive)
    1  A    between atoms: C_5  and  C_23
    2  A    between atoms: C_6  and  C_31
    3  A    between atoms: C_27  and  C_33
    4  A    between atoms: C_29  and  C_36
                            x       y       z     vdW  Elec       q    Type
                         _______ _______ _______ _____ _____    ______ ____

>  <TORSDO>
F 4

$$$$
=
 OpenBabel11052420083D

 37 42  0  0  1  0  0  0  0  0999 V2000
  194.1910  177.1650  146.8880 C   0  0  0  0  0  1  0  0  0  0  0  0
  190.9710  173.8110  144.1400 C   0  0  1  0  0  3  0  0  0  0  0  0
  192.3010  174.0880  146.3610 C   0  0  0  0  0  2  0  0  0  0  0  0
  191.4960  174.5010  142.8360 C   0  0  2  0  0  3  0  0  0  0  0  0
  193.1670  176.3100  142.1530 C   0  0  0  0  0  2  0  0  0  0  0  0
  191.5100  173.5460  141.6380 C   0  0  0  0  0  2  0  0  0  0  0  0
  191.1560  174.5650  145.4820 C   0  0  1  0  0  3  0  0  0  0  0  0
  192.7150  176.5100  143.5340 N   0  0  1  0  0  0  0  0  0  0  0  0
  193.2880  176.4180  145.9310 C   0  0  2  0  0  0  0  0  0  0  0  0
  189.5150  172.3040  143.3320 C   0  0  0  0  0  2  0  0  0  0  0  0
  190.9750  176.0870  145.4720 C   0  0  0  0  0  2  0  0  0  0  0  0
  191.9430  176.7880  146.2430 O   0  0  0  0  0  0  0  0  0  0  0  0
  189.6040  173.5220  144.0150 O   0  0  0  0  0  0  0  0  0  0  0  0
  192.8780  175.1370  142.9940 C   0  0  1  0  0  0  0  0  0  0  0  0
  193.5570  174.9280  146.1670 C   0  0  0  0  0  2  0  0  0  0  0  0
  190.1380  173.2110  141.1100 C   0  0  0  0  0  0  0  0  0  0  0  0
  193.7470  176.8170  144.5060 C   0  0  0  0  0  2  0  0  0  0  0  0
  189.2460  172.5890  141.8900 C   0  0  0  0  0  3  0  0  0  0  0  0
  194.0290  172.7330  143.2260 C   0  0  0  0  0  2  0  0  0  0  0  0
  195.1140  172.1730  144.0920 C   0  0  0  0  0  0  0  0  0  0  0  0
  196.1320  173.5740  141.5700 C   0  0  1  0  0  3  0  0  0  0  0  0
  196.4190  172.2200  143.7640 C   0  0  0  0  0  3  0  0  0  0  0  0
  197.0420  172.7620  142.4970 C   0  0  0  0  0  2  0  0  0  0  0  0
  195.3840  174.7320  142.2560 C   0  0  1  0  0  3  0  0  0  0  0  0
  196.8990  174.0680  140.4400 N   0  0  0  0  0  1  0  0  0  0  0  0
  194.1760  174.2580  143.0850 C   0  0  1  0  0  3  0  0  0  0  0  0
  196.5950  176.7910  142.4200 O   0  0  0  0  0  1  0  0  0  0  0  0
  196.3060  175.6070  143.0980 C   0  0  0  0  0  2  0  0  0  0  0  0
  195.7510  170.5780  145.8770 C   0  0  0  0  0  1  0  0  0  0  0  0
  194.7180  171.5870  145.4070 C   0  0  0  0  0  2  0  0  0  0  0  0
  188.5090  173.8830  139.3330 C   0  0  0  0  0  3  0  0  0  0  0  0
  189.8130  173.5080  139.6940 C   0  0  0  0  0  0  0  0  0  0  0  0
  190.7940  173.4150  138.6910 C   0  0  0  0  0  3  0  0  0  0  0  0
  191.4310  173.6000  136.4010 F   0  0  0  0  0  0  0  0  0  0  0  0
  189.1750  174.0660  137.0130 C   0  0  0  0  0  3  0  0  0  0  0  0
  190.4770  173.6940  137.3570 C   0  0  0  0  0  0  0  0  0  0  0  0
  188.1910  174.1600  137.9990 C   0  0  0  0  0  3  0  0  0  0  0  0
  2 13  1  6  0  0  0
  2  7  1  0  0  0  0
  4  6  1  6  0  0  0
  4 14  1  0  0  0  0
  4  2  1  0  0  0  0
  7 11  1  6  0  0  0
  7  3  1  0  0  0  0
  8  5  1  6  0  0  0
  8 17  1  0  0  0  0
  9 15  1  0  0  0  0
  9 12  1  0  0  0  0
  9  1  1  1  0  0  0
 10 13  1  0  0  0  0
 11 12  1  0  0  0  0
 14  5  1  6  0  0  0
 14 26  1  0  0  0  0
 14  8  1  0  0  0  0
 15  3  1  0  0  0  0
 16  6  1  0  0  0  0
 16 18  2  0  0  0  0
 17  9  1  0  0  0  0
 18 10  1  0  0  0  0
 19 20  1  0  0  0  0
 20 30  1  0  0  0  0
 21 25  1  6  0  0  0
 21 24  1  0  0  0  0
 21 23  1  0  0  0  0
 22 20  2  0  0  0  0
 23 22  1  0  0  0  0
 24 26  1  0  0  0  0
 24 28  1  1  0  0  0
 26 19  1  6  0  0  0
 27 28  1  0  0  0  0
 30 29  1  0  0  0  0
 31 32  1  0  0  0  0
 32 16  1  0  0  0  0
 33 32  2  0  0  0  0
 34 36  1  0  0  0  0
 35 36  2  0  0  0  0
 35 37  1  0  0  0  0
 36 33  1  0  0  0  0
 37 31  2  0  0  0  0
M  END
>  <MODEL>
9

>  <REMARK>
 VINA RESULT:      -6.5      3.371      5.296
  Name = 
  4 active torsions:
  status: ('A' for Active; 'I' for Inactive)
    1  A    between atoms: C_5  and  C_23
    2  A    between atoms: C_6  and  C_31
    3  A    between atoms: C_27  and  C_33
    4  A    between atoms: C_29  and  C_36
                            x       y       z     vdW  Elec       q    Type
                         _______ _______ _______ _____ _____    ______ ____

>  <TORSDO>
F 4

$$$$
