=
 OpenBabel11052418113D

 28 32  0  0  1  0  0  0  0  0999 V2000
  189.6270  173.9770  142.4120 C   0  0  0  0  0  0  0  0  0  0  0  0
  187.4600  177.1000  145.7320 C   0  0  0  0  0  3  0  0  0  0  0  0
  186.8400  176.7510  139.7710 O   0  0  0  0  0  0  0  0  0  0  0  0
  186.0520  178.4930  144.3250 C   0  0  0  0  0  0  0  0  0  0  0  0
  187.4000  176.7420  143.3110 C   0  0  0  0  0  0  0  0  0  0  0  0
  186.1070  178.8520  146.7190 C   0  0  0  0  0  0  0  0  0  0  0  0
  186.9800  177.4360  144.4580 C   0  0  0  0  0  0  0  0  0  0  0  0
  185.9870  178.1460  141.9630 N   0  0  0  0  0  0  0  0  0  0  0  0
  185.6200  179.1960  145.4530 C   0  0  0  0  0  3  0  0  0  0  0  0
  188.2110  175.3770  141.0230 C   0  0  0  0  0  0  0  0  0  0  0  0
  188.2920  175.7180  143.3970 N   0  0  0  0  0  2  0  0  0  0  0  0
  185.5690  178.8300  143.0600 C   0  0  0  0  0  3  0  0  0  0  0  0
  189.5090  173.6560  140.0220 C   0  0  0  0  0  3  0  0  0  0  0  0
  187.2930  176.4290  140.9030 C   0  0  0  0  0  0  0  0  0  0  0  0
  188.6240  174.6830  139.9250 N   0  0  0  0  0  0  0  0  0  0  0  0
  185.6780  179.5510  147.8380 O   0  0  0  0  0  1  0  0  0  0  0  0
  187.0250  177.8060  146.8570 C   0  0  0  0  0  3  0  0  0  0  0  0
  186.8800  177.1200  142.0520 C   0  0  0  0  0  0  0  0  0  0  0  0
  190.0230  173.2840  141.2660 C   0  0  0  0  0  3  0  0  0  0  0  0
  188.7080  175.0320  142.2980 C   0  0  0  0  0  0  0  0  0  0  0  0
  190.1680  173.5560  143.7400 C   0  0  0  0  0  2  0  0  0  0  0  0
  191.5910  173.8470  143.8120 N   0  0  0  0  0  0  0  0  0  0  0  0
  193.2830  174.5220  146.1830 C   0  0  1  0  0  3  0  0  0  0  0  0
  191.7340  175.2280  144.3130 C   0  0  0  0  0  2  0  0  0  0  0  0
  192.1920  172.8260  144.6840 C   0  0  0  0  0  2  0  0  0  0  0  0
  193.5120  173.3080  145.2780 C   0  0  0  0  0  2  0  0  0  0  0  0
  194.4940  175.4300  146.1270 C   0  0  0  0  0  1  0  0  0  0  0  0
  192.0180  175.3050  145.8180 C   0  0  0  0  0  2  0  0  0  0  0  0
  1 21  1  0  0  0  0
  2 17  1  0  0  0  0
  3 14  2  0  0  0  0
  4  7  1  0  0  0  0
  4  9  2  0  0  0  0
  5 11  1  0  0  0  0
  5  7  1  0  0  0  0
  6 17  2  0  0  0  0
  6 16  1  0  0  0  0
  7  2  2  0  0  0  0
  8 18  1  0  0  0  0
  8 12  2  0  0  0  0
  9  6  1  0  0  0  0
 10 20  2  0  0  0  0
 12  4  1  0  0  0  0
 13 19  1  0  0  0  0
 14 10  1  0  0  0  0
 14 18  1  0  0  0  0
 15 13  2  0  0  0  0
 15 10  1  0  0  0  0
 18  5  2  0  0  0  0
 19  1  2  0  0  0  0
 20  1  1  0  0  0  0
 20 11  1  0  0  0  0
 21 22  1  0  0  0  0
 22 24  1  0  0  0  0
 22 25  1  0  0  0  0
 23 27  1  6  0  0  0
 24 28  1  0  0  0  0
 25 26  1  0  0  0  0
 26 23  1  0  0  0  0
 28 23  1  0  0  0  0
M  END
>  <MODEL>
1

>  <REMARK>
 VINA RESULT:      -8.1      0.000      0.000
  Name = 
  2 active torsions:
  status: ('A' for Active; 'I' for Inactive)
    1  A    between atoms: C_1  and  C_2
    2  A    between atoms: C_2  and  N_3
                            x       y       z     vdW  Elec       q    Type
                         _______ _______ _______ _____ _____    ______ ____

>  <TORSDO>
F 2

$$$$
=
 OpenBabel11052418113D

 28 32  0  0  1  0  0  0  0  0999 V2000
  187.2120  176.9900  146.6670 C   0  0  0  0  0  0  0  0  0  0  0  0
  188.2510  175.0350  142.1320 C   0  0  0  0  0  3  0  0  0  0  0  0
  184.8990  179.7870  143.6230 O   0  0  0  0  0  0  0  0  0  0  0  0
  187.0410  176.5020  140.6200 C   0  0  0  0  0  0  0  0  0  0  0  0
  186.9480  176.9100  143.0150 C   0  0  0  0  0  0  0  0  0  0  0  0
  188.3280  174.6500  139.7410 C   0  0  0  0  0  0  0  0  0  0  0  0
  187.4170  176.1450  141.9350 C   0  0  0  0  0  0  0  0  0  0  0  0
  185.7710  178.3350  141.4760 N   0  0  0  0  0  0  0  0  0  0  0  0
  187.4970  175.7550  139.5310 C   0  0  0  0  0  3  0  0  0  0  0  0
  186.0120  178.4470  145.1410 C   0  0  0  0  0  0  0  0  0  0  0  0
  187.2870  176.5980  144.2960 N   0  0  0  0  0  2  0  0  0  0  0  0
  186.2130  177.6070  140.4170 C   0  0  0  0  0  3  0  0  0  0  0  0
  185.9290  178.8680  147.4780 C   0  0  0  0  0  3  0  0  0  0  0  0
  185.6440  178.7910  143.8330 C   0  0  0  0  0  0  0  0  0  0  0  0
  185.5780  179.1820  146.2030 N   0  0  0  0  0  0  0  0  0  0  0  0
  188.7800  173.9080  138.6580 O   0  0  0  0  0  1  0  0  0  0  0  0
  188.7040  174.2920  141.0390 C   0  0  0  0  0  3  0  0  0  0  0  0
  186.1130  178.0210  142.7580 C   0  0  0  0  0  0  0  0  0  0  0  0
  186.7530  177.7700  147.7320 C   0  0  0  0  0  3  0  0  0  0  0  0
  186.8460  177.3300  145.3550 C   0  0  0  0  0  0  0  0  0  0  0  0
  188.1100  175.8300  146.9500 C   0  0  0  0  0  2  0  0  0  0  0  0
  189.3650  175.9870  146.2310 N   0  0  0  0  0  0  0  0  0  0  0  0
  192.1330  175.1840  147.0280 C   0  0  1  0  0  3  0  0  0  0  0  0
  190.2360  176.8550  147.0470 C   0  0  0  0  0  2  0  0  0  0  0  0
  189.9020  174.6350  146.0100 C   0  0  0  0  0  2  0  0  0  0  0  0
  191.4110  174.6650  145.7820 C   0  0  0  0  0  2  0  0  0  0  0  0
  193.3830  175.9320  146.6140 C   0  0  0  0  0  1  0  0  0  0  0  0
  191.2460  176.0790  147.8990 C   0  0  0  0  0  2  0  0  0  0  0  0
  1 21  1  0  0  0  0
  1 19  1  0  0  0  0
  3 14  2  0  0  0  0
  4  7  1  0  0  0  0
  5 11  1  0  0  0  0
  6 17  1  0  0  0  0
  7  2  1  0  0  0  0
  7  5  2  0  0  0  0
  8 18  2  0  0  0  0
  9  6  2  0  0  0  0
  9  4  1  0  0  0  0
 10 20  1  0  0  0  0
 10 15  2  0  0  0  0
 11 20  1  0  0  0  0
 12  4  2  0  0  0  0
 12  8  1  0  0  0  0
 13 19  2  0  0  0  0
 14 10  1  0  0  0  0
 15 13  1  0  0  0  0
 16  6  1  0  0  0  0
 17  2  2  0  0  0  0
 18  5  1  0  0  0  0
 18 14  1  0  0  0  0
 20  1  2  0  0  0  0
 22 21  1  0  0  0  0
 22 24  1  0  0  0  0
 23 27  1  6  0  0  0
 23 28  1  0  0  0  0
 24 28  1  0  0  0  0
 25 22  1  0  0  0  0
 26 25  1  0  0  0  0
 26 23  1  0  0  0  0
M  END
>  <MODEL>
2

>  <REMARK>
 VINA RESULT:      -8.0      2.022      5.323
  Name = 
  2 active torsions:
  status: ('A' for Active; 'I' for Inactive)
    1  A    between atoms: C_1  and  C_2
    2  A    between atoms: C_2  and  N_3
                            x       y       z     vdW  Elec       q    Type
                         _______ _______ _______ _____ _____    ______ ____

>  <TORSDO>
F 2

$$$$
=
 OpenBabel11052418113D

 28 32  0  0  1  0  0  0  0  0999 V2000
  189.8400  172.9560  143.3150 C   0  0  0  0  0  0  0  0  0  0  0  0
  187.1750  177.1670  144.1120 C   0  0  0  0  0  3  0  0  0  0  0  0
  188.4780  174.3220  138.9890 O   0  0  0  0  0  0  0  0  0  0  0  0
  186.5100  177.8190  141.8680 C   0  0  0  0  0  0  0  0  0  0  0  0
  187.8530  175.8180  142.1850 C   0  0  0  0  0  0  0  0  0  0  0  0
  185.8360  179.1580  143.7700 C   0  0  0  0  0  0  0  0  0  0  0  0
  187.1860  176.9270  142.7310 C   0  0  0  0  0  0  0  0  0  0  0  0
  187.1660  176.5040  139.9860 N   0  0  0  0  0  0  0  0  0  0  0  0
  185.8390  178.9280  142.3900 C   0  0  0  0  0  3  0  0  0  0  0  0
  189.1620  173.6210  141.0810 C   0  0  0  0  0  0  0  0  0  0  0  0
  188.5160  174.9360  142.9820 N   0  0  0  0  0  2  0  0  0  0  0  0
  186.5150  177.5840  140.4930 C   0  0  0  0  0  3  0  0  0  0  0  0
  190.4590  171.6530  141.3790 C   0  0  0  0  0  3  0  0  0  0  0  0
  188.4900  174.5140  140.2350 C   0  0  0  0  0  0  0  0  0  0  0  0
  189.8070  172.5330  140.5750 N   0  0  0  0  0  0  0  0  0  0  0  0
  185.1690  180.2600  144.2860 O   0  0  0  0  0  1  0  0  0  0  0  0
  186.5030  178.2780  144.6280 C   0  0  0  0  0  3  0  0  0  0  0  0
  187.8280  175.6220  140.7860 C   0  0  0  0  0  0  0  0  0  0  0  0
  190.4850  171.8470  142.7620 C   0  0  0  0  0  3  0  0  0  0  0  0
  189.1650  173.8540  142.4730 C   0  0  0  0  0  0  0  0  0  0  0  0
  189.8560  173.1420  144.7980 C   0  0  0  0  0  2  0  0  0  0  0  0
  190.4750  174.4140  145.1320 N   0  0  0  0  0  0  0  0  0  0  0  0
  191.4030  175.4470  147.7800 C   0  0  1  0  0  3  0  0  0  0  0  0
  189.5730  175.1120  146.0690 C   0  0  0  0  0  2  0  0  0  0  0  0
  191.8020  174.1110  145.6910 C   0  0  0  0  0  2  0  0  0  0  0  0
  192.3140  175.2520  146.5650 C   0  0  0  0  0  2  0  0  0  0  0  0
  191.3880  176.9110  148.1700 C   0  0  0  0  0  1  0  0  0  0  0  0
  189.9750  174.9500  147.5390 C   0  0  0  0  0  2  0  0  0  0  0  0
  1 21  1  0  0  0  0
  2 17  1  0  0  0  0
  3 14  2  0  0  0  0
  4  9  2  0  0  0  0
  4  7  1  0  0  0  0
  5  7  1  0  0  0  0
  5 11  1  0  0  0  0
  6 16  1  0  0  0  0
  6 17  2  0  0  0  0
  7  2  2  0  0  0  0
  8 12  2  0  0  0  0
  8 18  1  0  0  0  0
  9  6  1  0  0  0  0
 10 20  1  0  0  0  0
 12  4  1  0  0  0  0
 13 19  2  0  0  0  0
 14 18  1  0  0  0  0
 14 10  1  0  0  0  0
 15 10  2  0  0  0  0
 15 13  1  0  0  0  0
 18  5  2  0  0  0  0
 19  1  1  0  0  0  0
 20 11  1  0  0  0  0
 20  1  2  0  0  0  0
 21 22  1  0  0  0  0
 22 25  1  0  0  0  0
 22 24  1  0  0  0  0
 23 27  1  6  0  0  0
 24 28  1  0  0  0  0
 25 26  1  0  0  0  0
 26 23  1  0  0  0  0
 28 23  1  0  0  0  0
M  END
>  <MODEL>
3

>  <REMARK>
 VINA RESULT:      -7.7      1.741      2.444
  Name = 
  2 active torsions:
  status: ('A' for Active; 'I' for Inactive)
    1  A    between atoms: C_1  and  C_2
    2  A    between atoms: C_2  and  N_3
                            x       y       z     vdW  Elec       q    Type
                         _______ _______ _______ _____ _____    ______ ____

>  <TORSDO>
F 2

$$$$
=
 OpenBabel11052418113D

 28 32  0  0  1  0  0  0  0  0999 V2000
  186.9570  177.4210  144.6040 C   0  0  0  0  0  0  0  0  0  0  0  0
  189.2320  173.1470  143.1800 C   0  0  0  0  0  3  0  0  0  0  0  0
  186.7510  177.4990  139.8720 O   0  0  0  0  0  0  0  0  0  0  0  0
  189.0930  173.2420  140.7560 C   0  0  0  0  0  0  0  0  0  0  0  0
  188.1530  175.0510  142.0810 C   0  0  0  0  0  0  0  0  0  0  0  0
  190.1610  171.3570  141.8360 C   0  0  0  0  0  0  0  0  0  0  0  0
  188.8230  173.8180  142.0180 C   0  0  0  0  0  0  0  0  0  0  0  0
  188.0450  175.0980  139.6800 N   0  0  0  0  0  0  0  0  0  0  0  0
  189.7590  172.0170  140.6710 C   0  0  0  0  0  3  0  0  0  0  0  0
  186.8310  177.5000  142.1810 C   0  0  0  0  0  0  0  0  0  0  0  0
  187.8750  175.6380  143.2770 N   0  0  0  0  0  2  0  0  0  0  0  0
  188.6910  173.9060  139.5960 C   0  0  0  0  0  3  0  0  0  0  0  0
  185.9250  179.2830  143.4640 C   0  0  0  0  0  3  0  0  0  0  0  0
  187.1020  176.9180  140.9350 C   0  0  0  0  0  0  0  0  0  0  0  0
  186.1910  178.7000  142.2660 N   0  0  0  0  0  0  0  0  0  0  0  0
  190.8220  170.1400  141.7500 O   0  0  0  0  0  1  0  0  0  0  0  0
  189.8970  171.9220  143.0880 C   0  0  0  0  0  3  0  0  0  0  0  0
  187.7680  175.6850  140.8790 C   0  0  0  0  0  0  0  0  0  0  0  0
  186.3050  178.6560  144.6530 C   0  0  0  0  0  3  0  0  0  0  0  0
  187.2310  176.8330  143.3590 C   0  0  0  0  0  0  0  0  0  0  0  0
  187.3770  176.7700  145.8810 C   0  0  0  0  0  2  0  0  0  0  0  0
  188.7390  176.2750  145.7620 N   0  0  0  0  0  0  0  0  0  0  0  0
  190.9470  176.2600  147.7790 C   0  0  1  0  0  3  0  0  0  0  0  0
  189.6450  177.4240  145.9510 C   0  0  0  0  0  2  0  0  0  0  0  0
  188.8980  175.2140  146.7690 C   0  0  0  0  0  2  0  0  0  0  0  0
  190.3660  175.0020  147.1290 C   0  0  0  0  0  2  0  0  0  0  0  0
  192.4160  176.3780  147.4260 C   0  0  0  0  0  1  0  0  0  0  0  0
  190.2030  177.5360  147.3750 C   0  0  0  0  0  2  0  0  0  0  0  0
  1 19  1  0  0  0  0
  1 21  1  0  0  0  0
  3 14  2  0  0  0  0
  4  7  1  0  0  0  0
  5 11  1  0  0  0  0
  6 17  2  0  0  0  0
  7  5  1  0  0  0  0
  7  2  2  0  0  0  0
  8 18  1  0  0  0  0
  9  4  2  0  0  0  0
  9  6  1  0  0  0  0
 10 15  2  0  0  0  0
 10 20  1  0  0  0  0
 11 20  1  0  0  0  0
 12  8  2  0  0  0  0
 12  4  1  0  0  0  0
 13 19  2  0  0  0  0
 14 10  1  0  0  0  0
 15 13  1  0  0  0  0
 16  6  1  0  0  0  0
 17  2  1  0  0  0  0
 18 14  1  0  0  0  0
 18  5  2  0  0  0  0
 20  1  2  0  0  0  0
 22 21  1  0  0  0  0
 22 24  1  0  0  0  0
 22 25  1  0  0  0  0
 23 27  1  6  0  0  0
 24 28  1  0  0  0  0
 25 26  1  0  0  0  0
 26 23  1  0  0  0  0
 28 23  1  0  0  0  0
M  END
>  <MODEL>
4

>  <REMARK>
 VINA RESULT:      -7.6      2.332      5.554
  Name = 
  2 active torsions:
  status: ('A' for Active; 'I' for Inactive)
    1  A    between atoms: C_1  and  C_2
    2  A    between atoms: C_2  and  N_3
                            x       y       z     vdW  Elec       q    Type
                         _______ _______ _______ _____ _____    ______ ____

>  <TORSDO>
F 2

$$$$
=
 OpenBabel11052418113D

 28 32  0  0  1  0  0  0  0  0999 V2000
  190.1370  176.7000  144.7090 C   0  0  0  0  0  0  0  0  0  0  0  0
  185.9520  177.7150  142.0770 C   0  0  0  0  0  3  0  0  0  0  0  0
  187.0000  178.0870  147.9770 O   0  0  0  0  0  0  0  0  0  0  0  0
  184.3870  178.4160  143.7990 C   0  0  0  0  0  0  0  0  0  0  0  0
  186.6450  177.7710  144.4250 C   0  0  0  0  0  0  0  0  0  0  0  0
  183.6940  178.3630  141.4790 C   0  0  0  0  0  0  0  0  0  0  0  0
  185.6730  177.9620  143.4290 C   0  0  0  0  0  0  0  0  0  0  0  0
  185.0600  178.4740  146.0890 N   0  0  0  0  0  0  0  0  0  0  0  0
  183.4050  178.6140  142.8240 C   0  0  0  0  0  3  0  0  0  0  0  0
  188.5600  177.4050  146.4150 C   0  0  0  0  0  0  0  0  0  0  0  0
  187.8960  177.3350  144.1090 N   0  0  0  0  0  2  0  0  0  0  0  0
  184.1040  178.6660  145.1420 C   0  0  0  0  0  3  0  0  0  0  0  0
  190.7700  176.7960  147.0370 C   0  0  0  0  0  3  0  0  0  0  0  0
  187.2800  177.8520  146.7690 C   0  0  0  0  0  0  0  0  0  0  0  0
  189.5220  177.2220  147.3620 N   0  0  0  0  0  0  0  0  0  0  0  0
  182.7180  178.5610  140.5130 O   0  0  0  0  0  1  0  0  0  0  0  0
  184.9660  177.9150  141.1080 C   0  0  0  0  0  3  0  0  0  0  0  0
  186.3120  178.0390  145.7710 C   0  0  0  0  0  0  0  0  0  0  0  0
  191.1000  176.5300  145.7060 C   0  0  0  0  0  3  0  0  0  0  0  0
  188.8530  177.1470  145.0590 C   0  0  0  0  0  0  0  0  0  0  0  0
  190.5070  176.4320  143.2870 C   0  0  0  0  0  2  0  0  0  0  0  0
  190.7470  175.0100  143.0950 N   0  0  0  0  0  0  0  0  0  0  0  0
  190.4810  173.3480  140.6240 C   0  0  1  0  0  3  0  0  0  0  0  0
  189.4670  174.3980  142.6880 C   0  0  0  0  0  2  0  0  0  0  0  0
  191.8160  174.8890  142.0920 C   0  0  0  0  0  2  0  0  0  0  0  0
  191.7850  173.5260  141.4060 C   0  0  0  0  0  2  0  0  0  0  0  0
  190.0860  171.8850  140.6260 C   0  0  0  0  0  1  0  0  0  0  0  0
  189.3370  174.2050  141.1720 C   0  0  0  0  0  2  0  0  0  0  0  0
  1 20  2  0  0  0  0
  1 19  1  0  0  0  0
  2  7  1  0  0  0  0
  4 12  1  0  0  0  0
  5 18  2  0  0  0  0
  6  9  2  0  0  0  0
  7  4  2  0  0  0  0
  7  5  1  0  0  0  0
  9  4  1  0  0  0  0
 10 14  1  0  0  0  0
 10 15  2  0  0  0  0
 11  5  1  0  0  0  0
 11 20  1  0  0  0  0
 12  8  2  0  0  0  0
 13 15  1  0  0  0  0
 14  3  2  0  0  0  0
 16  6  1  0  0  0  0
 17  6  1  0  0  0  0
 17  2  2  0  0  0  0
 18  8  1  0  0  0  0
 18 14  1  0  0  0  0
 19 13  2  0  0  0  0
 20 10  1  0  0  0  0
 21  1  1  0  0  0  0
 22 21  1  0  0  0  0
 23 27  1  1  0  0  0
 23 28  1  0  0  0  0
 23 26  1  0  0  0  0
 24 22  1  0  0  0  0
 25 22  1  0  0  0  0
 26 25  1  0  0  0  0
 28 24  1  0  0  0  0
M  END
>  <MODEL>
5

>  <REMARK>
 VINA RESULT:      -7.6      2.185      5.049
  Name = 
  2 active torsions:
  status: ('A' for Active; 'I' for Inactive)
    1  A    between atoms: C_1  and  C_2
    2  A    between atoms: C_2  and  N_3
                            x       y       z     vdW  Elec       q    Type
                         _______ _______ _______ _____ _____    ______ ____

>  <TORSDO>
F 2

$$$$
=
 OpenBabel11052418113D

 28 32  0  0  1  0  0  0  0  0999 V2000
  189.7540  176.1640  146.7740 C   0  0  0  0  0  0  0  0  0  0  0  0
  188.6010  174.0850  142.3220 C   0  0  0  0  0  3  0  0  0  0  0  0
  193.9370  175.5840  144.6280 O   0  0  0  0  0  0  0  0  0  0  0  0
  190.7750  173.8150  141.2710 C   0  0  0  0  0  0  0  0  0  0  0  0
  190.6310  174.7910  143.4940 C   0  0  0  0  0  0  0  0  0  0  0  0
  188.7710  173.1150  140.1080 C   0  0  0  0  0  0  0  0  0  0  0  0
  189.9940  174.2350  142.3720 C   0  0  0  0  0  0  0  0  0  0  0  0
  192.7590  174.5000  142.4120 N   0  0  0  0  0  0  0  0  0  0  0  0
  190.1610  173.2590  140.1460 C   0  0  0  0  0  3  0  0  0  0  0  0
  191.9170  175.8840  145.7090 C   0  0  0  0  0  0  0  0  0  0  0  0
  189.9140  175.2070  144.5730 N   0  0  0  0  0  2  0  0  0  0  0  0
  192.1620  173.9590  141.3170 C   0  0  0  0  0  3  0  0  0  0  0  0
  191.7920  176.8210  147.8890 C   0  0  0  0  0  3  0  0  0  0  0  0
  192.6810  175.4660  144.6110 C   0  0  0  0  0  0  0  0  0  0  0  0
  192.5150  176.4170  146.8120 N   0  0  0  0  0  0  0  0  0  0  0  0
  188.1630  172.5620  138.9890 O   0  0  0  0  0  1  0  0  0  0  0  0
  187.9930  173.5280  141.1940 C   0  0  0  0  0  3  0  0  0  0  0  0
  192.0390  174.9150  143.4920 C   0  0  0  0  0  0  0  0  0  0  0  0
  190.4010  176.7000  147.8900 C   0  0  0  0  0  3  0  0  0  0  0  0
  190.5140  175.7450  145.6710 C   0  0  0  0  0  0  0  0  0  0  0  0
  188.2670  176.0200  146.7950 C   0  0  0  0  0  2  0  0  0  0  0  0
  187.6410  177.2610  146.3650 N   0  0  0  0  0  0  0  0  0  0  0  0
  184.7700  178.0870  146.4740 C   0  0  1  0  0  3  0  0  0  0  0  0
  186.6800  176.9230  145.2960 C   0  0  0  0  0  2  0  0  0  0  0  0
  187.0260  177.8650  147.5560 C   0  0  0  0  0  2  0  0  0  0  0  0
  185.9080  178.8320  147.1770 C   0  0  0  0  0  2  0  0  0  0  0  0
  184.1140  179.0060  145.4630 C   0  0  0  0  0  1  0  0  0  0  0  0
  185.2350  176.7970  145.7920 C   0  0  0  0  0  2  0  0  0  0  0  0
  1 21  1  0  0  0  0
  1 19  1  0  0  0  0
  2  7  1  0  0  0  0
  4 12  2  0  0  0  0
  4  7  1  0  0  0  0
  5 11  1  0  0  0  0
  6  9  2  0  0  0  0
  6 17  1  0  0  0  0
  7  5  2  0  0  0  0
  8 18  2  0  0  0  0
  9  4  1  0  0  0  0
 10 15  2  0  0  0  0
 11 20  1  0  0  0  0
 12  8  1  0  0  0  0
 13 19  2  0  0  0  0
 14  3  2  0  0  0  0
 14 10  1  0  0  0  0
 15 13  1  0  0  0  0
 16  6  1  0  0  0  0
 17  2  2  0  0  0  0
 18  5  1  0  0  0  0
 18 14  1  0  0  0  0
 20 10  1  0  0  0  0
 20  1  2  0  0  0  0
 22 21  1  0  0  0  0
 22 25  1  0  0  0  0
 23 27  1  6  0  0  0
 23 26  1  0  0  0  0
 24 28  1  0  0  0  0
 24 22  1  0  0  0  0
 26 25  1  0  0  0  0
 28 23  1  0  0  0  0
M  END
>  <MODEL>
6

>  <REMARK>
 VINA RESULT:      -7.5      2.922      7.355
  Name = 
  2 active torsions:
  status: ('A' for Active; 'I' for Inactive)
    1  A    between atoms: C_1  and  C_2
    2  A    between atoms: C_2  and  N_3
                            x       y       z     vdW  Elec       q    Type
                         _______ _______ _______ _____ _____    ______ ____

>  <TORSDO>
F 2

$$$$
=
 OpenBabel11052418113D

 28 32  0  0  1  0  0  0  0  0999 V2000
  193.6480  176.2250  144.0950 C   0  0  0  0  0  0  0  0  0  0  0  0
  189.0650  177.6300  142.5150 C   0  0  0  0  0  3  0  0  0  0  0  0
  191.0610  176.4650  148.0560 O   0  0  0  0  0  0  0  0  0  0  0  0
  187.7890  177.7330  144.5800 C   0  0  0  0  0  0  0  0  0  0  0  0
  190.1340  177.0960  144.6520 C   0  0  0  0  0  0  0  0  0  0  0  0
  186.7260  178.2620  142.4700 C   0  0  0  0  0  0  0  0  0  0  0  0
  189.0070  177.4830  143.9090 C   0  0  0  0  0  0  0  0  0  0  0  0
  188.8280  177.2160  146.6670 N   0  0  0  0  0  0  0  0  0  0  0  0
  186.6560  178.1210  143.8600 C   0  0  0  0  0  3  0  0  0  0  0  0
  192.3570  176.3360  146.1480 C   0  0  0  0  0  0  0  0  0  0  0  0
  191.3250  176.8470  144.0420 N   0  0  0  0  0  2  0  0  0  0  0  0
  187.7260  177.5920  145.9670 C   0  0  0  0  0  3  0  0  0  0  0  0
  194.6530  175.7310  146.2340 C   0  0  0  0  0  3  0  0  0  0  0  0
  191.1430  176.5840  146.8030 C   0  0  0  0  0  0  0  0  0  0  0  0
  193.4660  175.9700  146.8500 N   0  0  0  0  0  0  0  0  0  0  0  0
  185.6000  178.6470  141.7560 O   0  0  0  0  0  1  0  0  0  0  0  0
  187.9290  178.0180  141.8000 C   0  0  0  0  0  3  0  0  0  0  0  0
  190.0200  176.9680  146.0540 C   0  0  0  0  0  0  0  0  0  0  0  0
  194.7660  175.8570  144.8470 C   0  0  0  0  0  3  0  0  0  0  0  0
  192.4290  176.4740  144.7450 C   0  0  0  0  0  0  0  0  0  0  0  0
  193.7850  176.3760  142.6150 C   0  0  0  0  0  2  0  0  0  0  0  0
  194.9480  175.6390  142.1460 N   0  0  0  0  0  0  0  0  0  0  0  0
  195.9140  175.1770  139.3540 C   0  0  1  0  0  3  0  0  0  0  0  0
  194.4570  174.5230  141.3140 C   0  0  0  0  0  2  0  0  0  0  0  0
  195.7980  176.5970  141.4230 C   0  0  0  0  0  2  0  0  0  0  0  0
  196.7260  175.8890  140.4400 C   0  0  0  0  0  2  0  0  0  0  0  0
  196.6510  173.9300  138.9090 C   0  0  0  0  0  1  0  0  0  0  0  0
  194.4970  174.8190  139.8100 C   0  0  0  0  0  2  0  0  0  0  0  0
  1 20  2  0  0  0  0
  1 19  1  0  0  0  0
  2  7  1  0  0  0  0
  4 12  1  0  0  0  0
  5 18  2  0  0  0  0
  6  9  2  0  0  0  0
  7  4  2  0  0  0  0
  7  5  1  0  0  0  0
  9  4  1  0  0  0  0
 10 14  1  0  0  0  0
 10 15  2  0  0  0  0
 11  5  1  0  0  0  0
 11 20  1  0  0  0  0
 12  8  2  0  0  0  0
 13 15  1  0  0  0  0
 14  3  2  0  0  0  0
 16  6  1  0  0  0  0
 17  6  1  0  0  0  0
 17  2  2  0  0  0  0
 18  8  1  0  0  0  0
 18 14  1  0  0  0  0
 19 13  2  0  0  0  0
 20 10  1  0  0  0  0
 21  1  1  0  0  0  0
 22 21  1  0  0  0  0
 23 27  1  1  0  0  0
 23 28  1  0  0  0  0
 23 26  1  0  0  0  0
 24 22  1  0  0  0  0
 25 22  1  0  0  0  0
 26 25  1  0  0  0  0
 28 24  1  0  0  0  0
M  END
>  <MODEL>
7

>  <REMARK>
 VINA RESULT:      -7.5      3.527      5.676
  Name = 
  2 active torsions:
  status: ('A' for Active; 'I' for Inactive)
    1  A    between atoms: C_1  and  C_2
    2  A    between atoms: C_2  and  N_3
                            x       y       z     vdW  Elec       q    Type
                         _______ _______ _______ _____ _____    ______ ____

>  <TORSDO>
F 2

$$$$
=
 OpenBabel11052418113D

 28 32  0  0  1  0  0  0  0  0999 V2000
  192.1330  175.8500  143.8500 C   0  0  0  0  0  0  0  0  0  0  0  0
  187.3150  177.0660  142.9680 C   0  0  0  0  0  3  0  0  0  0  0  0
  190.4560  177.1550  148.0830 O   0  0  0  0  0  0  0  0  0  0  0  0
  186.5120  177.7210  145.1660 C   0  0  0  0  0  0  0  0  0  0  0  0
  188.8190  177.0030  144.8990 C   0  0  0  0  0  0  0  0  0  0  0  0
  185.0190  177.7860  143.2600 C   0  0  0  0  0  0  0  0  0  0  0  0
  187.5580  177.2590  144.3360 C   0  0  0  0  0  0  0  0  0  0  0  0
  187.9760  177.6650  147.0510 N   0  0  0  0  0  0  0  0  0  0  0  0
  185.2500  177.9830  144.6250 C   0  0  0  0  0  3  0  0  0  0  0  0
  191.3130  176.5110  146.0370 C   0  0  0  0  0  0  0  0  0  0  0  0
  189.8520  176.5570  144.1330 N   0  0  0  0  0  2  0  0  0  0  0  0
  186.7480  177.9170  146.5270 C   0  0  0  0  0  3  0  0  0  0  0  0
  193.5760  175.8300  145.7860 C   0  0  0  0  0  3  0  0  0  0  0  0
  190.2670  176.9680  146.8500 C   0  0  0  0  0  0  0  0  0  0  0  0
  192.5470  176.2670  146.5590 N   0  0  0  0  0  0  0  0  0  0  0  0
  183.7650  178.0460  142.7250 O   0  0  0  0  0  1  0  0  0  0  0  0
  186.0510  177.3290  142.4340 C   0  0  0  0  0  3  0  0  0  0  0  0
  189.0090  177.2180  146.2820 C   0  0  0  0  0  0  0  0  0  0  0  0
  193.3880  175.6160  144.4190 C   0  0  0  0  0  3  0  0  0  0  0  0
  191.0820  176.3080  144.6600 C   0  0  0  0  0  0  0  0  0  0  0  0
  191.9500  175.6380  142.3820 C   0  0  0  0  0  2  0  0  0  0  0  0
  192.0290  174.2200  142.0710 N   0  0  0  0  0  0  0  0  0  0  0  0
  190.9120  172.7120  139.7430 C   0  0  1  0  0  3  0  0  0  0  0  0
  190.6500  173.6930  142.0580 C   0  0  0  0  0  2  0  0  0  0  0  0
  192.7280  174.1030  140.7820 C   0  0  0  0  0  2  0  0  0  0  0  0
  192.4020  172.7840  140.0880 C   0  0  0  0  0  2  0  0  0  0  0  0
  190.4460  171.2720  139.8120 C   0  0  0  0  0  1  0  0  0  0  0  0
  190.0480  173.5910  140.6520 C   0  0  0  0  0  2  0  0  0  0  0  0
  1 19  2  0  0  0  0
  1 20  1  0  0  0  0
  2  7  1  0  0  0  0
  4 12  1  0  0  0  0
  5 18  2  0  0  0  0
  6  9  2  0  0  0  0
  7  5  1  0  0  0  0
  7  4  2  0  0  0  0
  9  4  1  0  0  0  0
 10 15  1  0  0  0  0
 10 14  1  0  0  0  0
 11 20  1  0  0  0  0
 11  5  1  0  0  0  0
 12  8  2  0  0  0  0
 13 15  2  0  0  0  0
 14  3  2  0  0  0  0
 16  6  1  0  0  0  0
 17  2  2  0  0  0  0
 17  6  1  0  0  0  0
 18 14  1  0  0  0  0
 18  8  1  0  0  0  0
 19 13  1  0  0  0  0
 20 10  2  0  0  0  0
 21  1  1  0  0  0  0
 22 21  1  0  0  0  0
 23 27  1  1  0  0  0
 23 26  1  0  0  0  0
 23 28  1  0  0  0  0
 24 22  1  0  0  0  0
 25 22  1  0  0  0  0
 26 25  1  0  0  0  0
 28 24  1  0  0  0  0
M  END
>  <MODEL>
8

>  <REMARK>
 VINA RESULT:      -7.1      2.292      5.032
  Name = 
  2 active torsions:
  status: ('A' for Active; 'I' for Inactive)
    1  A    between atoms: C_1  and  C_2
    2  A    between atoms: C_2  and  N_3
                            x       y       z     vdW  Elec       q    Type
                         _______ _______ _______ _____ _____    ______ ____

>  <TORSDO>
F 2

$$$$
=
 OpenBabel11052418113D

 28 32  0  0  1  0  0  0  0  0999 V2000
  187.6500  177.1130  144.3230 C   0  0  0  0  0  0  0  0  0  0  0  0
  189.4360  173.7860  140.9740 C   0  0  0  0  0  3  0  0  0  0  0  0
  185.5410  178.2970  140.2500 O   0  0  0  0  0  0  0  0  0  0  0  0
  188.3210  174.4390  138.9160 C   0  0  0  0  0  0  0  0  0  0  0  0
  187.8790  175.6760  140.9620 C   0  0  0  0  0  0  0  0  0  0  0  0
  189.8590  172.5690  138.9210 C   0  0  0  0  0  0  0  0  0  0  0  0
  188.5480  174.6350  140.2970 C   0  0  0  0  0  0  0  0  0  0  0  0
  186.8050  176.2840  138.8990 N   0  0  0  0  0  0  0  0  0  0  0  0
  188.9770  173.4090  138.2350 C   0  0  0  0  0  3  0  0  0  0  0  0
  186.5490  177.7520  142.2570 C   0  0  0  0  0  0  0  0  0  0  0  0
  188.0710  175.8960  142.2910 N   0  0  0  0  0  2  0  0  0  0  0  0
  187.4410  175.2820  138.2370 C   0  0  0  0  0  3  0  0  0  0  0  0
  186.1230  178.9810  144.2450 C   0  0  0  0  0  3  0  0  0  0  0  0
  186.3310  177.5470  140.8870 C   0  0  0  0  0  0  0  0  0  0  0  0
  185.9200  178.7630  142.9190 N   0  0  0  0  0  0  0  0  0  0  0  0
  190.5090  171.5470  138.2440 O   0  0  0  0  0  1  0  0  0  0  0  0
  190.0880  172.7580  140.2880 C   0  0  0  0  0  3  0  0  0  0  0  0
  186.9990  176.5030  140.2300 C   0  0  0  0  0  0  0  0  0  0  0  0
  186.9930  178.1630  144.9690 C   0  0  0  0  0  3  0  0  0  0  0  0
  187.4360  176.9030  142.9520 C   0  0  0  0  0  0  0  0  0  0  0  0
  188.5950  176.2570  145.1030 C   0  0  0  0  0  2  0  0  0  0  0  0
  189.8320  176.9800  145.3510 N   0  0  0  0  0  0  0  0  0  0  0  0
  192.5510  175.9350  146.0260 C   0  0  1  0  0  3  0  0  0  0  0  0
  190.2440  176.6870  146.7380 C   0  0  0  0  0  2  0  0  0  0  0  0
  190.7970  176.5390  144.3320 C   0  0  0  0  0  2  0  0  0  0  0  0
  192.2340  176.7750  144.7860 C   0  0  0  0  0  2  0  0  0  0  0  0
  193.5490  176.6720  146.8950 C   0  0  0  0  0  1  0  0  0  0  0  0
  191.3020  175.5820  146.8400 C   0  0  0  0  0  2  0  0  0  0  0  0
  1 19  1  0  0  0  0
  1 21  1  0  0  0  0
  3 14  2  0  0  0  0
  4  7  1  0  0  0  0
  5 11  1  0  0  0  0
  6 17  1  0  0  0  0
  7  5  2  0  0  0  0
  7  2  1  0  0  0  0
  8 18  2  0  0  0  0
  9  4  1  0  0  0  0
  9  6  2  0  0  0  0
 10 15  2  0  0  0  0
 10 20  1  0  0  0  0
 11 20  1  0  0  0  0
 12  8  1  0  0  0  0
 12  4  2  0  0  0  0
 13 19  2  0  0  0  0
 14 10  1  0  0  0  0
 15 13  1  0  0  0  0
 16  6  1  0  0  0  0
 17  2  2  0  0  0  0
 18 14  1  0  0  0  0
 18  5  1  0  0  0  0
 20  1  2  0  0  0  0
 21 22  1  0  0  0  0
 22 24  1  0  0  0  0
 23 28  1  0  0  0  0
 23 27  1  1  0  0  0
 24 28  1  0  0  0  0
 25 26  1  0  0  0  0
 25 22  1  0  0  0  0
 26 23  1  0  0  0  0
M  END
>  <MODEL>
9

>  <REMARK>
 VINA RESULT:      -7.0      2.297      5.670
  Name = 
  2 active torsions:
  status: ('A' for Active; 'I' for Inactive)
    1  A    between atoms: C_1  and  C_2
    2  A    between atoms: C_2  and  N_3
                            x       y       z     vdW  Elec       q    Type
                         _______ _______ _______ _____ _____    ______ ____

>  <TORSDO>
F 2

$$$$
