=
 OpenBabel11052419443D

 55 63  0  0  1  0  0  0  0  0999 V2000
  191.3370  170.3730  141.1520 C   0  0  0  0  0  2  0  0  0  0  0  0
  191.7130  172.6050  143.0110 N   0  0  0  0  0  0  0  0  0  0  0  0
  192.9670  172.0660  142.4540 C   0  0  0  0  0  2  0  0  0  0  0  0
  190.4170  170.4110  142.3520 C   0  0  0  0  0  2  0  0  0  0  0  0
  192.7240  171.0540  141.2170 C   0  0  2  0  0  3  0  0  0  0  0  0
  190.4330  171.8430  142.9880 C   0  0  0  0  0  2  0  0  0  0  0  0
  192.8850  171.5780  139.9090 O   0  0  0  0  0  0  0  0  0  0  0  0
  192.8100  172.9930  139.9030 C   0  0  2  0  0  3  0  0  0  0  0  0
  191.9660  174.8460  136.8540 O   0  0  0  0  0  0  0  0  0  0  0  0
  194.4580  175.8480  136.4010 C   0  0  0  0  0  2  0  0  0  0  0  0
  195.4090  176.2330  135.2180 C   0  0  0  0  0  2  0  0  0  0  0  0
  196.2730  174.5870  137.6400 C   0  0  2  0  0  3  0  0  0  0  0  0
  197.1460  175.7560  137.0000 C   0  0  0  0  0  2  0  0  0  0  0  0
  191.6970  173.5620  138.8720 C   0  0  1  0  0  3  0  0  0  0  0  0
  196.8790  176.0330  135.5010 C   0  0  0  0  0  2  0  0  0  0  0  0
  194.8750  174.5950  137.1350 C   0  0  1  0  0  3  0  0  0  0  0  0
  195.6410  173.5760  139.6620 C   0  0  2  0  0  3  0  0  0  0  0  0
  196.3790  174.6460  139.0280 O   0  0  0  0  0  0  0  0  0  0  0  0
  192.5230  174.2140  137.8520 C   0  0  0  0  0  0  0  0  0  0  0  0
  193.8410  174.3080  138.1600 N   0  0  0  0  0  0  0  0  0  0  0  0
  194.1810  173.6590  139.3930 C   0  0  1  0  0  3  0  0  0  0  0  0
  197.4490  173.6210  141.5650 C   0  0  0  0  0  3  0  0  0  0  0  0
  197.0580  174.8550  143.7390 C   0  0  2  0  0  3  0  0  0  0  0  0
  195.2830  174.8850  141.9450 C   0  0  0  0  0  2  0  0  0  0  0  0
  195.5570  174.6340  143.4130 C   0  0  0  0  0  2  0  0  0  0  0  0
  197.9300  174.1360  142.7180 C   0  0  0  0  0  3  0  0  0  0  0  0
  195.9460  173.7020  141.1640 C   0  0  1  0  0  3  0  0  0  0  0  0
  197.3260  174.3750  145.0170 O   0  0  0  0  0  0  0  0  0  0  0  0
  197.3410  172.9750  144.8840 C   0  0  0  0  0  2  0  0  0  0  0  0
  196.8840  172.2530  146.1220 C   0  0  0  0  0  1  0  0  0  0  0  0
  189.6060  172.6150  138.9190 C   0  0  0  0  0  2  0  0  0  0  0  0
  189.6950  173.3780  137.7800 O   0  0  0  0  0  0  0  0  0  0  0  0
  190.8380  172.6400  138.1300 C   0  0  1  0  0  3  0  0  0  0  0  0
  191.9300  173.0460  144.4060 C   0  0  0  0  0  2  0  0  0  0  0  0
  190.7920  175.2500  144.4560 C   0  0  1  0  0  3  0  0  0  0  0  0
  192.0820  175.5410  143.6650 C   0  0  2  0  0  3  0  0  0  0  0  0
  192.1080  174.5500  144.8090 C   0  0  2  0  0  3  0  0  0  0  0  0
  193.8040  177.0350  144.9040 C   0  0  0  0  0  1  0  0  0  0  0  0
  192.5910  176.9650  143.9620 C   0  0  0  0  0  2  0  0  0  0  0  0
  190.3280  176.3260  145.5170 C   0  0  2  0  0  3  0  0  0  0  0  0
  190.8540  176.1540  146.8220 O   0  0  0  0  0  1  0  0  0  0  0  0
  186.0350  178.2000  148.3200 O   0  0  0  0  0  1  0  0  0  0  0  0
  186.3820  177.1010  142.7310 O   0  0  0  0  0  1  0  0  0  0  0  0
  188.7830  176.4370  145.4770 C   0  0  1  0  0  0  0  0  0  0  0  0
  188.9580  177.8480  143.4870 O   0  0  0  0  0  1  0  0  0  0  0  0
  188.1040  177.1650  144.3800 C   0  0  2  0  0  0  0  0  0  0  0  0
  186.5860  176.5070  146.7480 N   0  0  0  0  0  2  0  0  0  0  0  0
  186.1470  178.7400  144.5760 C   0  0  2  0  0  3  0  0  0  0  0  0
  186.5320  177.9460  147.0310 C   0  0  1  0  0  3  0  0  0  0  0  0
  186.6100  177.3480  144.0670 C   0  0  1  0  0  3  0  0  0  0  0  0
  188.3580  175.8120  144.3080 O   0  0  0  0  0  0  0  0  0  0  0  0
  185.6100  178.5910  146.0180 C   0  0  0  0  0  2  0  0  0  0  0  0
  187.9680  176.0050  146.7100 C   0  0  0  0  0  2  0  0  0  0  0  0
  185.0860  179.3520  143.6330 C   0  0  0  0  0  2  0  0  0  0  0  0
  183.8000  179.0690  144.1090 O   0  0  0  0  0  1  0  0  0  0  0  0
  1  5  1  0  0  0  0
  1  4  1  0  0  0  0
  2 34  1  0  0  0  0
  3  2  1  0  0  0  0
  4  6  1  0  0  0  0
  5  7  1  6  0  0  0
  5  3  1  0  0  0  0
  6  2  1  0  0  0  0
  8  7  1  6  0  0  0
  9 19  2  0  0  0  0
 11 15  1  0  0  0  0
 11 10  1  0  0  0  0
 12 13  1  6  0  0  0
 12 18  1  0  0  0  0
 14 19  1  6  0  0  0
 14  8  1  0  0  0  0
 15 13  1  0  0  0  0
 16 10  1  1  0  0  0
 16 12  1  0  0  0  0
 16 20  1  0  0  0  0
 17 18  1  6  0  0  0
 17 27  1  0  0  0  0
 19 20  1  0  0  0  0
 21 20  1  6  0  0  0
 21 17  1  0  0  0  0
 21  8  1  0  0  0  0
 22 26  2  0  0  0  0
 23 28  1  1  0  0  0
 24 25  1  0  0  0  0
 25 23  1  0  0  0  0
 26 23  1  0  0  0  0
 27 22  1  6  0  0  0
 27 24  1  0  0  0  0
 29 28  1  0  0  0  0
 29 30  1  0  0  0  0
 32 33  1  0  0  0  0
 32 31  1  0  0  0  0
 33 14  1  0  0  0  0
 33 31  1  1  0  0  0
 35 37  1  0  0  0  0
 35 40  1  1  0  0  0
 36 39  1  1  0  0  0
 36 35  1  0  0  0  0
 36 37  1  0  0  0  0
 37 34  1  6  0  0  0
 39 38  1  0  0  0  0
 40 41  1  1  0  0  0
 44 40  1  1  0  0  0
 44 53  1  0  0  0  0
 46 45  1  6  0  0  0
 46 44  1  0  0  0  0
 47 49  1  0  0  0  0
 48 54  1  6  0  0  0
 48 52  1  0  0  0  0
 49 42  1  1  0  0  0
 50 43  1  6  0  0  0
 50 46  1  0  0  0  0
 50 48  1  0  0  0  0
 51 46  1  0  0  0  0
 51 44  1  0  0  0  0
 52 49  1  0  0  0  0
 53 47  1  0  0  0  0
 54 55  1  0  0  0  0
M  END
>  <MODEL>
1

>  <REMARK>
 VINA RESULT:      -7.3      0.000      0.000
  Name = 
  12 active torsions:
  status: ('A' for Active; 'I' for Inactive)
    1  A    between atoms: C_2  and  O_28
    2  A    between atoms: C_6  and  C_20
    3  A    between atoms: C_8  and  C_43
    4  A    between atoms: O_10  and  C_18
    5  A    between atoms: O_10  and  C_32
    6  A    between atoms: C_11  and  C_29
    7  A    between atoms: C_19  and  C_37
    8  A    between atoms: C_20  and  C_22
    9  A    between atoms: N_27  and  C_54
   10  A    between atoms: O_28  and  C_44
   11  A    between atoms: C_33  and  C_52
   12  A    between atoms: C_51  and  C_54
                            x       y       z     vdW  Elec       q    Type
                         _______ _______ _______ _____ _____    ______ ____

>  <TORSDO>
F 12

$$$$
=
 OpenBabel11052419443D

 55 63  0  0  1  0  0  0  0  0999 V2000
  189.4180  176.9940  147.2380 C   0  0  0  0  0  2  0  0  0  0  0  0
  191.0040  174.8240  146.0750 N   0  0  0  0  0  0  0  0  0  0  0  0
  189.7620  174.3780  146.7340 C   0  0  0  0  0  2  0  0  0  0  0  0
  190.9200  177.1200  147.3580 C   0  0  0  0  0  2  0  0  0  0  0  0
  188.7660  175.5990  147.0940 C   0  0  2  0  0  3  0  0  0  0  0  0
  191.6170  176.1560  146.3380 C   0  0  0  0  0  2  0  0  0  0  0  0
  187.6870  175.8390  146.2060 O   0  0  0  0  0  0  0  0  0  0  0  0
  187.7810  177.1190  145.6070 C   0  0  2  0  0  3  0  0  0  0  0  0
  184.8010  178.8990  144.4270 O   0  0  0  0  0  0  0  0  0  0  0  0
  185.2820  178.5800  141.7650 C   0  0  0  0  0  2  0  0  0  0  0  0
  184.5160  178.3790  140.4140 C   0  0  0  0  0  2  0  0  0  0  0  0
  186.9330  176.7220  141.2730 C   0  0  2  0  0  3  0  0  0  0  0  0
  186.7210  177.2910  139.8010 C   0  0  0  0  0  2  0  0  0  0  0  0
  186.4960  178.0580  145.9140 C   0  0  1  0  0  3  0  0  0  0  0  0
  185.2480  177.5390  139.3950 C   0  0  0  0  0  2  0  0  0  0  0  0
  185.9990  177.3420  142.2500 C   0  0  1  0  0  3  0  0  0  0  0  0
  188.5370  176.2910  142.9320 C   0  0  2  0  0  3  0  0  0  0  0  0
  188.2780  176.8370  141.6180 O   0  0  0  0  0  0  0  0  0  0  0  0
  185.8660  178.1620  144.5950 C   0  0  0  0  0  0  0  0  0  0  0  0
  186.5970  177.6540  143.5710 N   0  0  0  0  0  0  0  0  0  0  0  0
  187.8110  177.0240  144.0020 C   0  0  1  0  0  3  0  0  0  0  0  0
  190.8980  175.2430  142.4630 C   0  0  0  0  0  3  0  0  0  0  0  0
  192.9900  176.6640  142.3890 C   0  0  2  0  0  3  0  0  0  0  0  0
  190.7520  177.7510  142.8150 C   0  0  0  0  0  2  0  0  0  0  0  0
  192.1810  177.6240  143.3000 C   0  0  0  0  0  2  0  0  0  0  0  0
  192.2040  175.3830  142.1460 C   0  0  0  0  0  3  0  0  0  0  0  0
  190.0600  176.3800  143.1190 C   0  0  1  0  0  3  0  0  0  0  0  0
  194.2060  176.3700  142.9970 O   0  0  0  0  0  0  0  0  0  0  0  0
  195.1220  176.2480  141.9370 C   0  0  0  0  0  2  0  0  0  0  0  0
  196.5070  175.8670  142.3860 C   0  0  0  0  0  1  0  0  0  0  0  0
  185.8850  178.0180  148.1260 C   0  0  0  0  0  2  0  0  0  0  0  0
  184.9320  178.7340  147.4420 O   0  0  0  0  0  0  0  0  0  0  0  0
  185.4340  177.5870  146.8030 C   0  0  1  0  0  3  0  0  0  0  0  0
  192.0660  173.8120  146.2660 C   0  0  0  0  0  2  0  0  0  0  0  0
  193.2310  172.1580  144.8300 C   0  0  1  0  0  3  0  0  0  0  0  0
  194.3600  172.6950  145.7290 C   0  0  2  0  0  3  0  0  0  0  0  0
  193.2580  173.6250  145.2660 C   0  0  2  0  0  3  0  0  0  0  0  0
  196.8820  173.3060  145.7540 C   0  0  0  0  0  1  0  0  0  0  0  0
  195.6920  172.7490  144.9550 C   0  0  0  0  0  2  0  0  0  0  0  0
  193.5600  171.9330  143.3000 C   0  0  2  0  0  3  0  0  0  0  0  0
  194.0250  173.0790  142.6070 O   0  0  0  0  0  1  0  0  0  0  0  0
  188.9350  172.9540  140.5860 O   0  0  0  0  0  1  0  0  0  0  0  0
  192.0400  168.1660  140.5750 O   0  0  0  0  0  1  0  0  0  0  0  0
  192.3510  171.2420  142.6210 C   0  0  1  0  0  0  0  0  0  0  0  0
  193.8730  170.2200  141.0010 O   0  0  0  0  0  1  0  0  0  0  0  0
  192.5500  170.3100  141.4870 C   0  0  2  0  0  0  0  0  0  0  0  0
  189.8880  171.3050  142.0060 N   0  0  0  0  0  2  0  0  0  0  0  0
  191.1820  170.1590  139.3770 C   0  0  2  0  0  3  0  0  0  0  0  0
  189.9890  172.0380  140.7390 C   0  0  1  0  0  3  0  0  0  0  0  0
  191.5470  169.4450  140.7070 C   0  0  1  0  0  3  0  0  0  0  0  0
  192.5150  169.8700  142.7940 O   0  0  0  0  0  0  0  0  0  0  0  0
  189.9280  171.0330  139.6070 C   0  0  0  0  0  2  0  0  0  0  0  0
  190.9270  171.7170  142.9630 C   0  0  0  0  0  2  0  0  0  0  0  0
  190.9630  169.1360  138.2390 C   0  0  0  0  0  2  0  0  0  0  0  0
  190.0550  169.6460  137.3030 O   0  0  0  0  0  1  0  0  0  0  0  0
  1  4  1  0  0  0  0
  2 34  1  0  0  0  0
  2  6  1  0  0  0  0
  2  3  1  0  0  0  0
  3  5  1  0  0  0  0
  5  7  1  6  0  0  0
  5  1  1  0  0  0  0
  6  4  1  0  0  0  0
  8 14  1  0  0  0  0
  8  7  1  1  0  0  0
  9 19  2  0  0  0  0
 11 10  1  0  0  0  0
 12 13  1  6  0  0  0
 12 18  1  0  0  0  0
 12 16  1  0  0  0  0
 14 19  1  6  0  0  0
 14 33  1  0  0  0  0
 15 13  1  0  0  0  0
 15 11  1  0  0  0  0
 16 10  1  6  0  0  0
 16 20  1  0  0  0  0
 17 18  1  6  0  0  0
 17 27  1  0  0  0  0
 17 21  1  0  0  0  0
 20 19  1  0  0  0  0
 21 20  1  1  0  0  0
 21  8  1  0  0  0  0
 23 28  1  1  0  0  0
 23 25  1  0  0  0  0
 24 27  1  0  0  0  0
 24 25  1  0  0  0  0
 26 23  1  0  0  0  0
 26 22  2  0  0  0  0
 27 22  1  6  0  0  0
 29 30  1  0  0  0  0
 29 28  1  0  0  0  0
 32 31  1  0  0  0  0
 33 32  1  0  0  0  0
 33 31  1  1  0  0  0
 35 40  1  6  0  0  0
 35 37  1  0  0  0  0
 35 36  1  0  0  0  0
 36 39  1  6  0  0  0
 37 36  1  0  0  0  0
 37 34  1  1  0  0  0
 39 38  1  0  0  0  0
 40 41  1  6  0  0  0
 44 51  1  0  0  0  0
 44 53  1  0  0  0  0
 44 40  1  1  0  0  0
 46 45  1  6  0  0  0
 46 44  1  0  0  0  0
 46 51  1  0  0  0  0
 47 53  1  0  0  0  0
 48 54  1  6  0  0  0
 48 52  1  0  0  0  0
 48 50  1  0  0  0  0
 49 42  1  6  0  0  0
 49 47  1  0  0  0  0
 50 43  1  6  0  0  0
 50 46  1  0  0  0  0
 52 49  1  0  0  0  0
 55 54  1  0  0  0  0
M  END
>  <MODEL>
2

>  <REMARK>
 VINA RESULT:      -7.3      3.010      8.578
  Name = 
  12 active torsions:
  status: ('A' for Active; 'I' for Inactive)
    1  A    between atoms: C_2  and  O_28
    2  A    between atoms: C_6  and  C_20
    3  A    between atoms: C_8  and  C_43
    4  A    between atoms: O_10  and  C_18
    5  A    between atoms: O_10  and  C_32
    6  A    between atoms: C_11  and  C_29
    7  A    between atoms: C_19  and  C_37
    8  A    between atoms: C_20  and  C_22
    9  A    between atoms: N_27  and  C_54
   10  A    between atoms: O_28  and  C_44
   11  A    between atoms: C_33  and  C_52
   12  A    between atoms: C_51  and  C_54
                            x       y       z     vdW  Elec       q    Type
                         _______ _______ _______ _____ _____    ______ ____

>  <TORSDO>
F 12

$$$$
=
 OpenBabel11052419443D

 55 63  0  0  1  0  0  0  0  0999 V2000
  192.4960  169.4760  140.3810 C   0  0  0  0  0  2  0  0  0  0  0  0
  193.8100  171.6830  141.7880 N   0  0  0  0  0  0  0  0  0  0  0  0
  193.7740  171.8390  140.3230 C   0  0  0  0  0  2  0  0  0  0  0  0
  193.3430  169.1020  141.5770 C   0  0  0  0  0  2  0  0  0  0  0  0
  192.7900  170.7780  139.6000 C   0  0  2  0  0  3  0  0  0  0  0  0
  193.6040  170.3700  142.4600 C   0  0  0  0  0  2  0  0  0  0  0  0
  191.4970  171.2340  139.2390 O   0  0  0  0  0  0  0  0  0  0  0  0
  191.3310  172.6110  139.5310 C   0  0  2  0  0  3  0  0  0  0  0  0
  188.0350  174.0110  140.3170 O   0  0  0  0  0  0  0  0  0  0  0  0
  187.7060  175.3640  137.9750 C   0  0  0  0  0  2  0  0  0  0  0  0
  186.5810  175.7890  136.9730 C   0  0  0  0  0  2  0  0  0  0  0  0
  189.2360  174.5380  136.1320 C   0  0  2  0  0  3  0  0  0  0  0  0
  188.5570  175.7710  135.3860 C   0  0  0  0  0  2  0  0  0  0  0  0
  190.1470  172.8920  140.6000 C   0  0  1  0  0  3  0  0  0  0  0  0
  187.0180  175.8610  135.5300 C   0  0  0  0  0  2  0  0  0  0  0  0
  188.6070  174.2700  137.4520 C   0  0  1  0  0  3  0  0  0  0  0  0
  191.2890  173.6280  136.8150 C   0  0  2  0  0  3  0  0  0  0  0  0
  190.6140  174.7420  136.1870 O   0  0  0  0  0  0  0  0  0  0  0  0
  189.1420  173.5740  139.7800 C   0  0  0  0  0  0  0  0  0  0  0  0
  189.5580  173.9120  138.5330 N   0  0  0  0  0  0  0  0  0  0  0  0
  190.8800  173.4440  138.2330 C   0  0  1  0  0  3  0  0  0  0  0  0
  193.3680  174.9290  137.7510 C   0  0  0  0  0  3  0  0  0  0  0  0
  195.7250  174.0580  137.4520 C   0  0  2  0  0  3  0  0  0  0  0  0
  193.7750  172.7320  136.5500 C   0  0  0  0  0  2  0  0  0  0  0  0
  195.1290  173.3250  136.2210 C   0  0  0  0  0  2  0  0  0  0  0  0
  194.6800  174.9730  138.0750 C   0  0  0  0  0  3  0  0  0  0  0  0
  192.7900  173.9400  136.6970 C   0  0  1  0  0  3  0  0  0  0  0  0
  196.8320  174.8010  137.0530 O   0  0  0  0  0  0  0  0  0  0  0  0
  196.5500  175.1930  135.7320 C   0  0  0  0  0  2  0  0  0  0  0  0
  196.7660  176.6620  135.4870 C   0  0  0  0  0  1  0  0  0  0  0  0
  190.1670  171.5570  142.4680 C   0  0  0  0  0  2  0  0  0  0  0  0
  188.9820  172.2540  142.4640 O   0  0  0  0  0  0  0  0  0  0  0  0
  189.4330  171.7770  141.2220 C   0  0  1  0  0  3  0  0  0  0  0  0
  195.0660  172.2520  142.3230 C   0  0  0  0  0  2  0  0  0  0  0  0
  193.7590  174.2920  142.8570 C   0  0  1  0  0  3  0  0  0  0  0  0
  194.9830  174.8490  142.1050 C   0  0  2  0  0  3  0  0  0  0  0  0
  195.1410  173.6540  143.0210 C   0  0  2  0  0  3  0  0  0  0  0  0
  196.7680  176.2600  143.3540 C   0  0  0  0  0  1  0  0  0  0  0  0
  195.3900  176.2230  142.6720 C   0  0  0  0  0  2  0  0  0  0  0  0
  193.2600  175.0870  144.1290 C   0  0  2  0  0  3  0  0  0  0  0  0
  193.9190  174.7630  145.3420 O   0  0  0  0  0  1  0  0  0  0  0  0
  189.1220  174.6280  147.6600 O   0  0  0  0  0  1  0  0  0  0  0  0
  188.9850  176.6240  142.3160 O   0  0  0  0  0  1  0  0  0  0  0  0
  191.7160  174.9850  144.2130 C   0  0  1  0  0  0  0  0  0  0  0  0
  191.5380  177.2280  143.2520 O   0  0  0  0  0  1  0  0  0  0  0  0
  190.8560  176.0700  143.6870 C   0  0  2  0  0  0  0  0  0  0  0  0
  189.6700  174.0820  145.4140 N   0  0  0  0  0  2  0  0  0  0  0  0
  188.7830  177.0270  144.7530 C   0  0  2  0  0  3  0  0  0  0  0  0
  189.5030  175.1460  146.4110 C   0  0  1  0  0  3  0  0  0  0  0  0
  189.3270  176.1770  143.5730 C   0  0  1  0  0  3  0  0  0  0  0  0
  191.2350  174.9990  142.9070 O   0  0  0  0  0  0  0  0  0  0  0  0
  188.4190  176.0840  145.9220 C   0  0  0  0  0  2  0  0  0  0  0  0
  191.0840  173.8710  145.0660 C   0  0  0  0  0  2  0  0  0  0  0  0
  187.5730  177.8820  144.3120 C   0  0  0  0  0  2  0  0  0  0  0  0
  186.4010  177.1180  144.3670 O   0  0  0  0  0  1  0  0  0  0  0  0
  1  4  1  0  0  0  0
  2 34  1  0  0  0  0
  2  6  1  0  0  0  0
  3  2  1  0  0  0  0
  4  6  1  0  0  0  0
  5  7  1  1  0  0  0
  5  3  1  0  0  0  0
  5  1  1  0  0  0  0
  8  7  1  6  0  0  0
  8 14  1  0  0  0  0
 11 10  1  0  0  0  0
 12 13  1  1  0  0  0
 12 18  1  0  0  0  0
 12 16  1  0  0  0  0
 13 15  1  0  0  0  0
 14 19  1  6  0  0  0
 14 33  1  0  0  0  0
 15 11  1  0  0  0  0
 16 10  1  1  0  0  0
 16 20  1  0  0  0  0
 17 18  1  1  0  0  0
 17 21  1  0  0  0  0
 19  9  2  0  0  0  0
 20 19  1  0  0  0  0
 21 20  1  6  0  0  0
 21  8  1  0  0  0  0
 22 26  2  0  0  0  0
 23 28  1  6  0  0  0
 23 26  1  0  0  0  0
 25 24  1  0  0  0  0
 25 23  1  0  0  0  0
 27 24  1  1  0  0  0
 27 17  1  0  0  0  0
 27 22  1  0  0  0  0
 29 28  1  0  0  0  0
 30 29  1  0  0  0  0
 32 31  1  0  0  0  0
 33 32  1  0  0  0  0
 33 31  1  1  0  0  0
 35 37  1  0  0  0  0
 35 40  1  1  0  0  0
 36 39  1  1  0  0  0
 36 35  1  0  0  0  0
 36 37  1  0  0  0  0
 37 34  1  6  0  0  0
 39 38  1  0  0  0  0
 40 41  1  1  0  0  0
 44 40  1  1  0  0  0
 44 53  1  0  0  0  0
 46 45  1  6  0  0  0
 46 44  1  0  0  0  0
 47 49  1  0  0  0  0
 48 54  1  6  0  0  0
 48 52  1  0  0  0  0
 49 42  1  1  0  0  0
 50 43  1  6  0  0  0
 50 46  1  0  0  0  0
 50 48  1  0  0  0  0
 51 46  1  0  0  0  0
 51 44  1  0  0  0  0
 52 49  1  0  0  0  0
 53 47  1  0  0  0  0
 54 55  1  0  0  0  0
M  END
>  <MODEL>
3

>  <REMARK>
 VINA RESULT:      -7.2      2.280      5.089
  Name = 
  12 active torsions:
  status: ('A' for Active; 'I' for Inactive)
    1  A    between atoms: C_2  and  O_28
    2  A    between atoms: C_6  and  C_20
    3  A    between atoms: C_8  and  C_43
    4  A    between atoms: O_10  and  C_18
    5  A    between atoms: O_10  and  C_32
    6  A    between atoms: C_11  and  C_29
    7  A    between atoms: C_19  and  C_37
    8  A    between atoms: C_20  and  C_22
    9  A    between atoms: N_27  and  C_54
   10  A    between atoms: O_28  and  C_44
   11  A    between atoms: C_33  and  C_52
   12  A    between atoms: C_51  and  C_54
                            x       y       z     vdW  Elec       q    Type
                         _______ _______ _______ _____ _____    ______ ____

>  <TORSDO>
F 12

$$$$
=
 OpenBabel11052419443D

 55 63  0  0  1  0  0  0  0  0999 V2000
  191.5080  174.8980  141.8600 C   0  0  0  0  0  2  0  0  0  0  0  0
  193.1260  174.3370  144.2360 N   0  0  0  0  0  0  0  0  0  0  0  0
  191.8660  173.5740  144.1700 C   0  0  0  0  0  2  0  0  0  0  0  0
  192.2240  176.0770  142.4800 C   0  0  0  0  0  2  0  0  0  0  0  0
  191.1470  173.6680  142.7250 C   0  0  2  0  0  3  0  0  0  0  0  0
  193.3610  175.5680  143.4310 C   0  0  0  0  0  2  0  0  0  0  0  0
  191.3370  172.5820  141.8340 O   0  0  0  0  0  0  0  0  0  0  0  0
  191.4740  173.0250  140.4950 C   0  0  2  0  0  3  0  0  0  0  0  0
  189.9460  171.1920  137.7120 O   0  0  0  0  0  0  0  0  0  0  0  0
  192.2630  170.1840  136.6950 C   0  0  0  0  0  2  0  0  0  0  0  0
  192.8110  168.9080  135.9710 C   0  0  0  0  0  2  0  0  0  0  0  0
  194.1790  170.2430  138.3510 C   0  0  2  0  0  3  0  0  0  0  0  0
  194.9520  169.7090  137.0650 C   0  0  0  0  0  2  0  0  0  0  0  0
  190.1790  172.6890  139.5820 C   0  0  1  0  0  3  0  0  0  0  0  0
  194.2440  168.5650  136.2980 C   0  0  0  0  0  2  0  0  0  0  0  0
  192.7100  170.3080  138.1320 C   0  0  1  0  0  3  0  0  0  0  0  0
  194.1150  171.9570  139.9540 C   0  0  2  0  0  3  0  0  0  0  0  0
  194.7500  171.4480  138.7580 O   0  0  0  0  0  0  0  0  0  0  0  0
  190.7040  171.6820  138.6560 C   0  0  0  0  0  0  0  0  0  0  0  0
  192.0480  171.5020  138.7100 N   0  0  0  0  0  0  0  0  0  0  0  0
  192.6790  172.2740  139.7410 C   0  0  1  0  0  3  0  0  0  0  0  0
  196.4320  172.9850  140.6390 C   0  0  0  0  0  3  0  0  0  0  0  0
  197.0060  175.4020  140.1580 C   0  0  2  0  0  3  0  0  0  0  0  0
  194.7690  174.4790  139.4390 C   0  0  0  0  0  2  0  0  0  0  0  0
  195.4680  175.6060  140.1700 C   0  0  0  0  0  2  0  0  0  0  0  0
  197.3500  173.9740  140.5570 C   0  0  0  0  0  3  0  0  0  0  0  0
  194.9200  173.2090  140.3420 C   0  0  1  0  0  3  0  0  0  0  0  0
  197.5960  176.3000  141.0430 O   0  0  0  0  0  0  0  0  0  0  0  0
  196.5620  176.6790  141.9180 C   0  0  0  0  0  2  0  0  0  0  0  0
  196.9540  176.6100  143.3690 C   0  0  0  0  0  1  0  0  0  0  0  0
  188.1720  173.2180  140.5650 C   0  0  0  0  0  2  0  0  0  0  0  0
  187.9030  172.5160  139.4150 O   0  0  0  0  0  0  0  0  0  0  0  0
  188.9950  172.0710  140.1790 C   0  0  1  0  0  3  0  0  0  0  0  0
  193.4380  174.6720  145.6430 C   0  0  0  0  0  2  0  0  0  0  0  0
  191.3230  175.8660  146.1490 C   0  0  1  0  0  3  0  0  0  0  0  0
  192.2430  176.2760  147.3140 C   0  0  2  0  0  3  0  0  0  0  0  0
  192.3360  174.8790  146.7370 C   0  0  2  0  0  3  0  0  0  0  0  0
  191.4680  177.8540  149.2240 C   0  0  0  0  0  1  0  0  0  0  0  0
  191.4310  176.4430  148.6140 C   0  0  0  0  0  2  0  0  0  0  0  0
  189.8180  175.5270  146.4910 C   0  0  2  0  0  3  0  0  0  0  0  0
  189.4290  174.1860  146.2450 O   0  0  0  0  0  1  0  0  0  0  0  0
  186.8310  176.4420  142.0140 O   0  0  0  0  0  1  0  0  0  0  0  0
  186.3250  178.8890  147.1450 O   0  0  0  0  0  1  0  0  0  0  0  0
  188.9000  176.5750  145.8150 C   0  0  1  0  0  0  0  0  0  0  0  0
  187.3030  176.3300  147.6520 O   0  0  0  0  0  1  0  0  0  0  0  0
  187.6490  177.0220  146.4710 C   0  0  2  0  0  0  0  0  0  0  0  0
  188.0370  177.6370  143.6760 N   0  0  0  0  0  2  0  0  0  0  0  0
  185.4070  177.4030  145.3860 C   0  0  2  0  0  3  0  0  0  0  0  0
  186.9360  176.7100  143.3890 C   0  0  1  0  0  3  0  0  0  0  0  0
  186.6230  178.0920  146.0610 C   0  0  1  0  0  3  0  0  0  0  0  0
  188.8470  177.6780  146.6630 O   0  0  0  0  0  0  0  0  0  0  0  0
  185.6470  177.3500  143.8600 C   0  0  0  0  0  2  0  0  0  0  0  0
  189.1600  176.9660  144.3490 C   0  0  0  0  0  2  0  0  0  0  0  0
  184.0910  178.1350  145.7320 C   0  0  0  0  0  2  0  0  0  0  0  0
  183.8430  179.1450  144.7940 O   0  0  0  0  0  1  0  0  0  0  0  0
  1  4  1  0  0  0  0
  1  5  1  0  0  0  0
  2 34  1  0  0  0  0
  3  2  1  0  0  0  0
  4  6  1  0  0  0  0
  5  7  1  6  0  0  0
  5  3  1  0  0  0  0
  6  2  1  0  0  0  0
  8  7  1  1  0  0  0
  9 19  2  0  0  0  0
 11 15  1  0  0  0  0
 11 10  1  0  0  0  0
 12 13  1  6  0  0  0
 12 18  1  0  0  0  0
 14 19  1  6  0  0  0
 14 33  1  0  0  0  0
 14  8  1  0  0  0  0
 15 13  1  0  0  0  0
 16 10  1  6  0  0  0
 16 12  1  0  0  0  0
 16 20  1  0  0  0  0
 17 18  1  6  0  0  0
 17 27  1  0  0  0  0
 19 20  1  0  0  0  0
 21 20  1  1  0  0  0
 21 17  1  0  0  0  0
 21  8  1  0  0  0  0
 23 25  1  0  0  0  0
 23 26  1  0  0  0  0
 23 28  1  1  0  0  0
 24 25  1  0  0  0  0
 26 22  2  0  0  0  0
 27 24  1  6  0  0  0
 27 22  1  0  0  0  0
 28 29  1  0  0  0  0
 29 30  1  0  0  0  0
 32 33  1  0  0  0  0
 32 31  1  0  0  0  0
 33 31  1  1  0  0  0
 35 40  1  1  0  0  0
 35 37  1  0  0  0  0
 35 36  1  0  0  0  0
 36 39  1  1  0  0  0
 37 34  1  6  0  0  0
 37 36  1  0  0  0  0
 39 38  1  0  0  0  0
 40 41  1  6  0  0  0
 44 46  1  0  0  0  0
 44 40  1  1  0  0  0
 44 51  1  0  0  0  0
 46 51  1  0  0  0  0
 46 45  1  1  0  0  0
 47 53  1  0  0  0  0
 48 54  1  6  0  0  0
 48 50  1  0  0  0  0
 49 42  1  6  0  0  0
 49 47  1  0  0  0  0
 49 52  1  0  0  0  0
 50 46  1  0  0  0  0
 50 43  1  1  0  0  0
 52 48  1  0  0  0  0
 53 44  1  0  0  0  0
 55 54  1  0  0  0  0
M  END
>  <MODEL>
4

>  <REMARK>
 VINA RESULT:      -7.0      2.395      3.818
  Name = 
  12 active torsions:
  status: ('A' for Active; 'I' for Inactive)
    1  A    between atoms: C_2  and  O_28
    2  A    between atoms: C_6  and  C_20
    3  A    between atoms: C_8  and  C_43
    4  A    between atoms: O_10  and  C_18
    5  A    between atoms: O_10  and  C_32
    6  A    between atoms: C_11  and  C_29
    7  A    between atoms: C_19  and  C_37
    8  A    between atoms: C_20  and  C_22
    9  A    between atoms: N_27  and  C_54
   10  A    between atoms: O_28  and  C_44
   11  A    between atoms: C_33  and  C_52
   12  A    between atoms: C_51  and  C_54
                            x       y       z     vdW  Elec       q    Type
                         _______ _______ _______ _____ _____    ______ ____

>  <TORSDO>
F 12

$$$$
=
 OpenBabel11052419443D

 55 63  0  0  1  0  0  0  0  0999 V2000
  193.1180  169.9010  142.4600 C   0  0  0  0  0  2  0  0  0  0  0  0
  193.0610  172.1330  144.3550 N   0  0  0  0  0  0  0  0  0  0  0  0
  193.5330  172.4990  143.0070 C   0  0  0  0  0  2  0  0  0  0  0  0
  193.5220  169.5850  143.8820 C   0  0  0  0  0  2  0  0  0  0  0  0
  193.2700  171.3390  141.9110 C   0  0  2  0  0  3  0  0  0  0  0  0
  193.0290  170.7250  144.8390 C   0  0  0  0  0  2  0  0  0  0  0  0
  192.1360  171.4850  141.0730 O   0  0  0  0  0  0  0  0  0  0  0  0
  191.7260  172.8380  140.9820 C   0  0  2  0  0  3  0  0  0  0  0  0
  188.3750  173.7430  139.8040 O   0  0  0  0  0  0  0  0  0  0  0  0
  189.1510  174.7290  137.3860 C   0  0  0  0  0  2  0  0  0  0  0  0
  188.6510  174.8330  135.9060 C   0  0  0  0  0  2  0  0  0  0  0  0
  191.4660  173.9590  136.7010 C   0  0  2  0  0  3  0  0  0  0  0  0
  191.1500  174.9590  135.5020 C   0  0  0  0  0  2  0  0  0  0  0  0
  190.1460  173.0410  141.2750 C   0  0  1  0  0  3  0  0  0  0  0  0
  189.7460  174.8040  134.8670 C   0  0  0  0  0  2  0  0  0  0  0  0
  190.2850  173.7480  137.5780 C   0  0  1  0  0  3  0  0  0  0  0  0
  192.9670  173.4980  138.4460 C   0  0  2  0  0  3  0  0  0  0  0  0
  192.6050  174.3980  137.3730 O   0  0  0  0  0  0  0  0  0  0  0  0
  189.6350  173.4390  139.9600 C   0  0  0  0  0  0  0  0  0  0  0  0
  190.5900  173.6900  139.0290 N   0  0  0  0  0  0  0  0  0  0  0  0
  191.9180  173.4200  139.4960 C   0  0  1  0  0  3  0  0  0  0  0  0
  194.1660  175.1440  140.1030 C   0  0  0  0  0  3  0  0  0  0  0  0
  196.4710  174.6550  141.0250 C   0  0  2  0  0  3  0  0  0  0  0  0
  195.3720  173.0070  139.4600 C   0  0  0  0  0  2  0  0  0  0  0  0
  196.6310  173.8000  139.7400 C   0  0  0  0  0  2  0  0  0  0  0  0
  195.1490  175.4080  140.9930 C   0  0  0  0  0  3  0  0  0  0  0  0
  194.2900  174.0440  139.0080 C   0  0  1  0  0  3  0  0  0  0  0  0
  197.5300  175.5530  141.1130 O   0  0  0  0  0  0  0  0  0  0  0  0
  197.4150  176.1250  142.3930 C   0  0  0  0  0  2  0  0  0  0  0  0
  197.7260  175.1630  143.5070 C   0  0  0  0  0  1  0  0  0  0  0  0
  189.4020  171.9170  143.1330 C   0  0  0  0  0  2  0  0  0  0  0  0
  188.3040  172.4340  142.4900 O   0  0  0  0  0  0  0  0  0  0  0  0
  189.3160  171.9040  141.6730 C   0  0  1  0  0  3  0  0  0  0  0  0
  193.7830  172.9260  145.3730 C   0  0  0  0  0  2  0  0  0  0  0  0
  192.2400  174.8370  145.0210 C   0  0  1  0  0  3  0  0  0  0  0  0
  193.4760  175.2290  144.1900 C   0  0  2  0  0  3  0  0  0  0  0  0
  193.6520  174.4830  145.4950 C   0  0  2  0  0  3  0  0  0  0  0  0
  194.9070  177.2210  145.0370 C   0  0  0  0  0  1  0  0  0  0  0  0
  193.6900  176.7550  144.2210 C   0  0  0  0  0  2  0  0  0  0  0  0
  191.5390  175.9720  145.8680 C   0  0  2  0  0  3  0  0  0  0  0  0
  191.8640  175.9850  147.2480 O   0  0  0  0  0  1  0  0  0  0  0  0
  186.7580  177.9220  147.6390 O   0  0  0  0  0  1  0  0  0  0  0  0
  188.0410  175.9250  142.4500 O   0  0  0  0  0  1  0  0  0  0  0  0
  190.0160  175.9430  145.5870 C   0  0  1  0  0  0  0  0  0  0  0  0
  190.4180  177.0060  143.4210 O   0  0  0  0  0  1  0  0  0  0  0  0
  189.4760  176.4150  144.2910 C   0  0  2  0  0  0  0  0  0  0  0  0
  187.6470  176.0400  146.4950 N   0  0  0  0  0  2  0  0  0  0  0  0
  187.4230  177.8270  143.9150 C   0  0  2  0  0  3  0  0  0  0  0  0
  187.4650  177.4960  146.5030 C   0  0  1  0  0  3  0  0  0  0  0  0
  188.0420  176.4130  143.7380 C   0  0  1  0  0  3  0  0  0  0  0  0
  189.8180  175.0950  144.5010 O   0  0  0  0  0  0  0  0  0  0  0  0
  186.6770  177.8790  145.2670 C   0  0  0  0  0  2  0  0  0  0  0  0
  189.0450  175.6590  146.7480 C   0  0  0  0  0  2  0  0  0  0  0  0
  186.4900  178.1770  142.7340 C   0  0  0  0  0  2  0  0  0  0  0  0
  185.2590  177.5270  142.8860 O   0  0  0  0  0  1  0  0  0  0  0  0
  1  4  1  0  0  0  0
  2  6  1  0  0  0  0
  2 34  1  0  0  0  0
  3  2  1  0  0  0  0
  4  6  1  0  0  0  0
  5  7  1  1  0  0  0
  5  1  1  0  0  0  0
  5  3  1  0  0  0  0
  8  7  1  6  0  0  0
  8 14  1  0  0  0  0
  9 19  2  0  0  0  0
 11 10  1  0  0  0  0
 12 13  1  6  0  0  0
 12 18  1  0  0  0  0
 12 16  1  0  0  0  0
 14 19  1  6  0  0  0
 14 33  1  0  0  0  0
 15 13  1  0  0  0  0
 15 11  1  0  0  0  0
 16 10  1  1  0  0  0
 16 20  1  0  0  0  0
 17 18  1  6  0  0  0
 17 27  1  0  0  0  0
 17 21  1  0  0  0  0
 20 19  1  0  0  0  0
 21 20  1  6  0  0  0
 21  8  1  0  0  0  0
 22 26  2  0  0  0  0
 23 28  1  6  0  0  0
 24 25  1  0  0  0  0
 25 23  1  0  0  0  0
 26 23  1  0  0  0  0
 27 24  1  1  0  0  0
 27 22  1  0  0  0  0
 28 29  1  0  0  0  0
 29 30  1  0  0  0  0
 32 31  1  0  0  0  0
 33 32  1  0  0  0  0
 33 31  1  1  0  0  0
 35 37  1  0  0  0  0
 35 40  1  1  0  0  0
 36 39  1  1  0  0  0
 36 35  1  0  0  0  0
 36 37  1  0  0  0  0
 37 34  1  6  0  0  0
 39 38  1  0  0  0  0
 40 41  1  1  0  0  0
 44 40  1  1  0  0  0
 44 53  1  0  0  0  0
 46 45  1  6  0  0  0
 46 51  1  0  0  0  0
 46 44  1  0  0  0  0
 47 49  1  0  0  0  0
 47 53  1  0  0  0  0
 48 54  1  6  0  0  0
 48 52  1  0  0  0  0
 49 42  1  1  0  0  0
 50 43  1  6  0  0  0
 50 48  1  0  0  0  0
 50 46  1  0  0  0  0
 51 44  1  0  0  0  0
 52 49  1  0  0  0  0
 54 55  1  0  0  0  0
M  END
>  <MODEL>
5

>  <REMARK>
 VINA RESULT:      -6.9      1.959      3.228
  Name = 
  12 active torsions:
  status: ('A' for Active; 'I' for Inactive)
    1  A    between atoms: C_2  and  O_28
    2  A    between atoms: C_6  and  C_20
    3  A    between atoms: C_8  and  C_43
    4  A    between atoms: O_10  and  C_18
    5  A    between atoms: O_10  and  C_32
    6  A    between atoms: C_11  and  C_29
    7  A    between atoms: C_19  and  C_37
    8  A    between atoms: C_20  and  C_22
    9  A    between atoms: N_27  and  C_54
   10  A    between atoms: O_28  and  C_44
   11  A    between atoms: C_33  and  C_52
   12  A    between atoms: C_51  and  C_54
                            x       y       z     vdW  Elec       q    Type
                         _______ _______ _______ _____ _____    ______ ____

>  <TORSDO>
F 12

$$$$
=
 OpenBabel11052419443D

 55 63  0  0  1  0  0  0  0  0999 V2000
  192.5970  172.8250  142.2850 C   0  0  0  0  0  2  0  0  0  0  0  0
  192.7080  170.3720  143.8810 N   0  0  0  0  0  0  0  0  0  0  0  0
  192.9540  171.6050  144.6520 C   0  0  0  0  0  2  0  0  0  0  0  0
  193.2250  171.6200  141.6220 C   0  0  0  0  0  2  0  0  0  0  0  0
  192.5900  172.9470  143.8260 C   0  0  2  0  0  3  0  0  0  0  0  0
  192.8230  170.3180  142.3970 C   0  0  0  0  0  2  0  0  0  0  0  0
  191.3380  173.5540  144.0950 O   0  0  0  0  0  0  0  0  0  0  0  0
  191.2320  174.8260  143.4780 C   0  0  2  0  0  3  0  0  0  0  0  0
  190.1210  177.7720  145.3550 O   0  0  0  0  0  0  0  0  0  0  0  0
  187.6670  177.9740  144.1910 C   0  0  0  0  0  2  0  0  0  0  0  0
  186.1980  178.3960  144.5320 C   0  0  0  0  0  2  0  0  0  0  0  0
  186.9380  175.8380  143.0390 C   0  0  2  0  0  3  0  0  0  0  0  0
  185.7300  176.7910  142.6280 C   0  0  0  0  0  2  0  0  0  0  0  0
  191.5600  176.0490  144.4900 C   0  0  1  0  0  3  0  0  0  0  0  0
  185.1330  177.6330  143.7820 C   0  0  0  0  0  2  0  0  0  0  0  0
  187.8490  176.4840  144.0210 C   0  0  1  0  0  3  0  0  0  0  0  0
  188.6540  174.4740  142.1980 C   0  0  2  0  0  3  0  0  0  0  0  0
  187.5740  175.3830  141.8850 O   0  0  0  0  0  0  0  0  0  0  0  0
  190.2510  176.6910  144.6340 C   0  0  0  0  0  0  0  0  0  0  0  0
  189.2920  176.2290  143.7930 N   0  0  0  0  0  0  0  0  0  0  0  0
  189.7320  175.1270  142.9880 C   0  0  1  0  0  3  0  0  0  0  0  0
  189.5720  172.4690  140.7740 C   0  0  0  0  0  3  0  0  0  0  0  0
  189.2750  172.3780  138.2630 C   0  0  2  0  0  3  0  0  0  0  0  0
  188.3350  174.3250  139.5660 C   0  0  0  0  0  2  0  0  0  0  0  0
  189.1800  173.9230  138.3760 C   0  0  0  0  0  2  0  0  0  0  0  0
  189.6170  171.7720  139.6170 C   0  0  0  0  0  3  0  0  0  0  0  0
  189.1730  173.9730  140.8400 C   0  0  1  0  0  3  0  0  0  0  0  0
  190.2510  172.0440  137.3300 O   0  0  0  0  0  0  0  0  0  0  0  0
  191.4030  172.7340  137.7470 C   0  0  0  0  0  2  0  0  0  0  0  0
  192.6660  171.9280  137.6050 C   0  0  0  0  0  1  0  0  0  0  0  0
  193.4320  176.0730  145.8180 C   0  0  0  0  0  2  0  0  0  0  0  0
  192.5410  176.9830  146.3340 O   0  0  0  0  0  0  0  0  0  0  0  0
  192.0000  175.7770  145.8580 C   0  0  1  0  0  3  0  0  0  0  0  0
  193.5330  169.2690  144.4210 C   0  0  0  0  0  2  0  0  0  0  0  0
  195.9200  169.9460  144.4200 C   0  0  1  0  0  3  0  0  0  0  0  0
  195.9480  168.5700  145.1120 C   0  0  2  0  0  3  0  0  0  0  0  0
  194.7790  169.5050  145.3410 C   0  0  2  0  0  3  0  0  0  0  0  0
  196.5290  168.1950  147.6130 C   0  0  0  0  0  1  0  0  0  0  0  0
  197.0370  168.5310  146.2010 C   0  0  0  0  0  2  0  0  0  0  0  0
  196.8340  171.0850  145.0240 C   0  0  2  0  0  3  0  0  0  0  0  0
  196.3150  171.7320  146.1740 O   0  0  0  0  0  1  0  0  0  0  0  0
  196.5430  171.8260  139.6230 O   0  0  0  0  0  1  0  0  0  0  0  0
  197.3410  175.7610  143.6780 O   0  0  0  0  0  1  0  0  0  0  0  0
  197.2380  172.0610  143.8900 C   0  0  1  0  0  0  0  0  0  0  0  0
  195.8040  173.7750  144.8840 O   0  0  0  0  0  1  0  0  0  0  0  0
  196.7500  173.4590  143.8850 C   0  0  2  0  0  0  0  0  0  0  0  0
  197.9240  172.3980  141.4690 N   0  0  0  0  0  2  0  0  0  0  0  0
  195.9130  174.7770  141.9070 C   0  0  2  0  0  3  0  0  0  0  0  0
  196.5910  172.4840  140.8630 C   0  0  1  0  0  3  0  0  0  0  0  0
  197.0630  174.6310  142.9400 C   0  0  1  0  0  3  0  0  0  0  0  0
  197.9410  173.1060  144.4810 O   0  0  0  0  0  0  0  0  0  0  0  0
  196.2630  173.9470  140.6510 C   0  0  0  0  0  2  0  0  0  0  0  0
  197.9410  171.5050  142.6380 C   0  0  0  0  0  2  0  0  0  0  0  0
  195.6650  176.2620  141.5580 C   0  0  0  0  0  2  0  0  0  0  0  0
  194.4390  176.4010  140.8930 O   0  0  0  0  0  1  0  0  0  0  0  0
  1  5  1  0  0  0  0
  2 34  1  0  0  0  0
  2  3  1  0  0  0  0
  4  1  1  0  0  0  0
  4  6  1  0  0  0  0
  5  7  1  1  0  0  0
  5  3  1  0  0  0  0
  6  2  1  0  0  0  0
  8  7  1  1  0  0  0
  8 14  1  0  0  0  0
 10 11  1  0  0  0  0
 12 13  1  6  0  0  0
 12 16  1  0  0  0  0
 13 15  1  0  0  0  0
 14 19  1  1  0  0  0
 14 33  1  0  0  0  0
 15 11  1  0  0  0  0
 16 10  1  6  0  0  0
 17 18  1  6  0  0  0
 17 21  1  0  0  0  0
 18 12  1  0  0  0  0
 19  9  2  0  0  0  0
 20 16  1  0  0  0  0
 20 19  1  0  0  0  0
 21  8  1  0  0  0  0
 21 20  1  1  0  0  0
 22 27  1  0  0  0  0
 23 28  1  6  0  0  0
 23 25  1  0  0  0  0
 23 26  1  0  0  0  0
 25 24  1  0  0  0  0
 26 22  2  0  0  0  0
 27 24  1  6  0  0  0
 27 17  1  0  0  0  0
 28 29  1  0  0  0  0
 30 29  1  0  0  0  0
 31 32  1  0  0  0  0
 33 31  1  6  0  0  0
 33 32  1  0  0  0  0
 35 40  1  1  0  0  0
 35 36  1  0  0  0  0
 35 37  1  0  0  0  0
 36 37  1  0  0  0  0
 36 39  1  1  0  0  0
 37 34  1  6  0  0  0
 39 38  1  0  0  0  0
 40 41  1  1  0  0  0
 44 51  1  0  0  0  0
 44 40  1  1  0  0  0
 46 44  1  0  0  0  0
 46 51  1  0  0  0  0
 46 45  1  1  0  0  0
 47 53  1  0  0  0  0
 48 54  1  6  0  0  0
 48 50  1  0  0  0  0
 49 42  1  6  0  0  0
 49 47  1  0  0  0  0
 50 43  1  1  0  0  0
 50 46  1  0  0  0  0
 52 49  1  0  0  0  0
 52 48  1  0  0  0  0
 53 44  1  0  0  0  0
 55 54  1  0  0  0  0
M  END
>  <MODEL>
6

>  <REMARK>
 VINA RESULT:      -6.5      2.614      9.179
  Name = 
  12 active torsions:
  status: ('A' for Active; 'I' for Inactive)
    1  A    between atoms: C_2  and  O_28
    2  A    between atoms: C_6  and  C_20
    3  A    between atoms: C_8  and  C_43
    4  A    between atoms: O_10  and  C_18
    5  A    between atoms: O_10  and  C_32
    6  A    between atoms: C_11  and  C_29
    7  A    between atoms: C_19  and  C_37
    8  A    between atoms: C_20  and  C_22
    9  A    between atoms: N_27  and  C_54
   10  A    between atoms: O_28  and  C_44
   11  A    between atoms: C_33  and  C_52
   12  A    between atoms: C_51  and  C_54
                            x       y       z     vdW  Elec       q    Type
                         _______ _______ _______ _____ _____    ______ ____

>  <TORSDO>
F 12

$$$$
=
 OpenBabel11052419443D

 55 63  0  0  1  0  0  0  0  0999 V2000
  191.3580  172.9730  141.9920 C   0  0  0  0  0  2  0  0  0  0  0  0
  188.5070  173.5050  141.5810 N   0  0  0  0  0  0  0  0  0  0  0  0
  189.4010  174.3100  140.7270 C   0  0  0  0  0  2  0  0  0  0  0  0
  190.4870  172.9620  143.2280 C   0  0  0  0  0  2  0  0  0  0  0  0
  190.9320  173.7900  140.7500 C   0  0  2  0  0  3  0  0  0  0  0  0
  188.9820  172.8200  142.8160 C   0  0  0  0  0  2  0  0  0  0  0  0
  191.3570  172.9770  139.6700 O   0  0  0  0  0  0  0  0  0  0  0  0
  192.0570  173.7300  138.6950 C   0  0  2  0  0  3  0  0  0  0  0  0
  192.1560  172.6870  135.1820 O   0  0  0  0  0  0  0  0  0  0  0  0
  194.7590  171.8860  135.1690 C   0  0  0  0  0  2  0  0  0  0  0  0
  195.6890  170.8110  134.5130 C   0  0  0  0  0  2  0  0  0  0  0  0
  195.6800  171.4750  137.4930 C   0  0  2  0  0  3  0  0  0  0  0  0
  197.0030  171.2490  136.6360 C   0  0  0  0  0  2  0  0  0  0  0  0
  191.3650  173.6710  137.2320 C   0  0  1  0  0  3  0  0  0  0  0  0
  196.8330  170.3510  135.3850 C   0  0  0  0  0  2  0  0  0  0  0  0
  194.4790  171.6390  136.6330 C   0  0  1  0  0  3  0  0  0  0  0  0
  194.7320  172.7440  139.2260 C   0  0  2  0  0  3  0  0  0  0  0  0
  195.8890  172.5240  138.3870 O   0  0  0  0  0  0  0  0  0  0  0  0
  192.3450  172.9060  136.4560 C   0  0  0  0  0  0  0  0  0  0  0  0
  193.5220  172.6760  137.0910 N   0  0  0  0  0  0  0  0  0  0  0  0
  193.5350  173.1500  138.4440 C   0  0  1  0  0  3  0  0  0  0  0  0
  196.6830  173.9890  140.4650 C   0  0  0  0  0  3  0  0  0  0  0  0
  196.4400  176.3780  141.2610 C   0  0  2  0  0  3  0  0  0  0  0  0
  194.5280  175.2610  140.0490 C   0  0  0  0  0  2  0  0  0  0  0  0
  194.9230  176.0520  141.2790 C   0  0  0  0  0  2  0  0  0  0  0  0
  197.2430  175.1270  140.9320 C   0  0  0  0  0  3  0  0  0  0  0  0
  195.1530  173.8360  140.2240 C   0  0  1  0  0  3  0  0  0  0  0  0
  196.8170  176.8740  142.5060 O   0  0  0  0  0  0  0  0  0  0  0  0
  196.0700  176.1290  143.4350 C   0  0  0  0  0  2  0  0  0  0  0  0
  196.9080  175.1870  144.2570 C   0  0  0  0  0  1  0  0  0  0  0  0
  189.0990  174.0260  137.1480 C   0  0  0  0  0  2  0  0  0  0  0  0
  189.4940  173.5540  135.9200 O   0  0  0  0  0  0  0  0  0  0  0  0
  190.0990  172.9640  137.0420 C   0  0  1  0  0  3  0  0  0  0  0  0
  187.3180  174.3010  141.9550 C   0  0  0  0  0  2  0  0  0  0  0  0
  187.5710  176.2950  143.4100 C   0  0  1  0  0  3  0  0  0  0  0  0
  186.1900  176.5090  142.7610 C   0  0  2  0  0  3  0  0  0  0  0  0
  187.3060  175.8680  141.9630 C   0  0  2  0  0  3  0  0  0  0  0  0
  184.6980  178.5770  143.2420 C   0  0  0  0  0  1  0  0  0  0  0  0
  185.9300  178.0090  142.5190 C   0  0  0  0  0  2  0  0  0  0  0  0
  188.5150  177.5550  143.5490 C   0  0  2  0  0  3  0  0  0  0  0  0
  189.1410  177.9770  142.3490 O   0  0  0  0  0  1  0  0  0  0  0  0
  189.2950  174.5410  148.0340 O   0  0  0  0  0  1  0  0  0  0  0  0
  193.2080  177.2650  144.8980 O   0  0  0  0  0  1  0  0  0  0  0  0
  189.5060  177.3150  144.7160 C   0  0  1  0  0  0  0  0  0  0  0  0
  191.1910  176.5750  143.1050 O   0  0  0  0  0  1  0  0  0  0  0  0
  190.8970  176.8810  144.4510 C   0  0  2  0  0  0  0  0  0  0  0  0
  189.8720  176.6660  147.1440 N   0  0  0  0  0  2  0  0  0  0  0  0
  192.2190  175.1410  145.7070 C   0  0  2  0  0  3  0  0  0  0  0  0
  189.9440  175.2100  146.9820 C   0  0  1  0  0  3  0  0  0  0  0  0
  192.0810  176.6580  145.4070 C   0  0  1  0  0  3  0  0  0  0  0  0
  190.5560  178.2130  144.5510 O   0  0  0  0  0  0  0  0  0  0  0  0
  191.4040  174.8080  146.9770 C   0  0  0  0  0  2  0  0  0  0  0  0
  188.9700  177.2850  146.1590 C   0  0  0  0  0  2  0  0  0  0  0  0
  193.7030  174.7370  145.8580 C   0  0  0  0  0  2  0  0  0  0  0  0
  193.8350  173.3460  145.7540 O   0  0  0  0  0  1  0  0  0  0  0  0
  1  4  1  0  0  0  0
  2 34  1  0  0  0  0
  2  6  1  0  0  0  0
  3  5  1  0  0  0  0
  3  2  1  0  0  0  0
  5  7  1  6  0  0  0
  5  1  1  0  0  0  0
  6  4  1  0  0  0  0
  8  7  1  1  0  0  0
  9 19  2  0  0  0  0
 11 10  1  0  0  0  0
 11 15  1  0  0  0  0
 12 13  1  6  0  0  0
 12 18  1  0  0  0  0
 14 19  1  6  0  0  0
 14  8  1  0  0  0  0
 15 13  1  0  0  0  0
 16 10  1  6  0  0  0
 16 20  1  0  0  0  0
 16 12  1  0  0  0  0
 17 18  1  6  0  0  0
 17 27  1  0  0  0  0
 19 20  1  0  0  0  0
 21 20  1  1  0  0  0
 21  8  1  0  0  0  0
 21 17  1  0  0  0  0
 22 26  2  0  0  0  0
 23 25  1  0  0  0  0
 23 28  1  1  0  0  0
 24 25  1  0  0  0  0
 26 23  1  0  0  0  0
 27 24  1  6  0  0  0
 27 22  1  0  0  0  0
 28 29  1  0  0  0  0
 29 30  1  0  0  0  0
 32 33  1  0  0  0  0
 32 31  1  0  0  0  0
 33 31  1  1  0  0  0
 33 14  1  0  0  0  0
 35 40  1  6  0  0  0
 36 39  1  6  0  0  0
 36 35  1  0  0  0  0
 37 34  1  1  0  0  0
 37 36  1  0  0  0  0
 37 35  1  0  0  0  0
 39 38  1  0  0  0  0
 40 41  1  6  0  0  0
 44 40  1  6  0  0  0
 44 53  1  0  0  0  0
 46 45  1  6  0  0  0
 46 51  1  0  0  0  0
 46 44  1  0  0  0  0
 46 50  1  0  0  0  0
 48 54  1  1  0  0  0
 48 52  1  0  0  0  0
 49 47  1  0  0  0  0
 49 42  1  1  0  0  0
 50 43  1  6  0  0  0
 50 48  1  0  0  0  0
 51 44  1  0  0  0  0
 52 49  1  0  0  0  0
 53 47  1  0  0  0  0
 55 54  1  0  0  0  0
M  END
>  <MODEL>
7

>  <REMARK>
 VINA RESULT:      -6.4      2.488      4.428
  Name = 
  12 active torsions:
  status: ('A' for Active; 'I' for Inactive)
    1  A    between atoms: C_2  and  O_28
    2  A    between atoms: C_6  and  C_20
    3  A    between atoms: C_8  and  C_43
    4  A    between atoms: O_10  and  C_18
    5  A    between atoms: O_10  and  C_32
    6  A    between atoms: C_11  and  C_29
    7  A    between atoms: C_19  and  C_37
    8  A    between atoms: C_20  and  C_22
    9  A    between atoms: N_27  and  C_54
   10  A    between atoms: O_28  and  C_44
   11  A    between atoms: C_33  and  C_52
   12  A    between atoms: C_51  and  C_54
                            x       y       z     vdW  Elec       q    Type
                         _______ _______ _______ _____ _____    ______ ____

>  <TORSDO>
F 12

$$$$
=
 OpenBabel11052419443D

 55 63  0  0  1  0  0  0  0  0999 V2000
  189.5500  171.8240  143.0940 C   0  0  0  0  0  2  0  0  0  0  0  0
  191.6980  173.2610  141.7150 N   0  0  0  0  0  0  0  0  0  0  0  0
  190.4180  173.9910  141.7630 C   0  0  0  0  0  2  0  0  0  0  0  0
  190.4810  170.9880  142.2440 C   0  0  0  0  0  2  0  0  0  0  0  0
  189.3500  173.3250  142.7780 C   0  0  2  0  0  3  0  0  0  0  0  0
  191.7930  171.7930  141.9450 C   0  0  0  0  0  2  0  0  0  0  0  0
  189.2250  173.9100  144.0630 O   0  0  0  0  0  0  0  0  0  0  0  0
  189.4800  175.3030  144.0280 C   0  0  2  0  0  3  0  0  0  0  0  0
  190.3640  177.1600  147.0630 O   0  0  0  0  0  0  0  0  0  0  0  0
  187.9970  178.4850  147.3170 C   0  0  0  0  0  2  0  0  0  0  0  0
  187.0310  179.0340  148.4200 C   0  0  0  0  0  2  0  0  0  0  0  0
  186.1160  177.4110  146.0010 C   0  0  2  0  0  3  0  0  0  0  0  0
  185.3620  178.7060  146.5420 C   0  0  0  0  0  2  0  0  0  0  0  0
  190.5910  175.7710  145.1110 C   0  0  1  0  0  3  0  0  0  0  0  0
  185.5690  179.0090  148.0460 C   0  0  0  0  0  2  0  0  0  0  0  0
  187.4700  177.2650  146.5980 C   0  0  1  0  0  3  0  0  0  0  0  0
  186.7380  176.2460  144.0600 C   0  0  2  0  0  3  0  0  0  0  0  0
  186.1050  177.4260  144.6070 O   0  0  0  0  0  0  0  0  0  0  0  0
  189.7930  176.5620  146.0520 C   0  0  0  0  0  0  0  0  0  0  0  0
  188.5200  176.8080  145.6540 N   0  0  0  0  0  0  0  0  0  0  0  0
  188.1770  176.1570  144.4230 C   0  0  1  0  0  3  0  0  0  0  0  0
  185.5510  177.4420  142.0460 C   0  0  0  0  0  3  0  0  0  0  0  0
  186.6090  177.5390  139.7500 C   0  0  2  0  0  3  0  0  0  0  0  0
  187.8280  176.3980  141.6430 C   0  0  0  0  0  2  0  0  0  0  0  0
  187.3550  176.2590  140.2110 C   0  0  0  0  0  2  0  0  0  0  0  0
  185.5900  177.9600  140.7990 C   0  0  0  0  0  3  0  0  0  0  0  0
  186.5450  176.3480  142.5380 C   0  0  1  0  0  3  0  0  0  0  0  0
  185.9710  177.2870  138.5390 O   0  0  0  0  0  0  0  0  0  0  0  0
  186.8010  176.3660  137.8760 C   0  0  0  0  0  2  0  0  0  0  0  0
  186.3150  176.0100  136.4970 C   0  0  0  0  0  1  0  0  0  0  0  0
  192.4380  174.4070  145.1300 C   0  0  0  0  0  2  0  0  0  0  0  0
  192.5640  175.2960  146.1700 O   0  0  0  0  0  0  0  0  0  0  0  0
  191.2770  174.7790  145.9400 C   0  0  1  0  0  3  0  0  0  0  0  0
  192.3930  173.5470  140.4410 C   0  0  0  0  0  2  0  0  0  0  0  0
  194.6240  173.4380  141.5210 C   0  0  1  0  0  3  0  0  0  0  0  0
  194.2960  174.9430  141.5490 C   0  0  2  0  0  3  0  0  0  0  0  0
  193.8580  174.0990  140.3710 C   0  0  2  0  0  3  0  0  0  0  0  0
  196.0690  176.4900  142.6440 C   0  0  0  0  0  1  0  0  0  0  0  0
  195.5770  175.7810  141.3710 C   0  0  0  0  0  2  0  0  0  0  0  0
  196.1040  173.0200  141.1550 C   0  0  2  0  0  3  0  0  0  0  0  0
  196.2420  172.2610  139.9660 O   0  0  0  0  0  1  0  0  0  0  0  0
  196.9440  173.7060  146.5050 O   0  0  0  0  0  1  0  0  0  0  0  0
  197.0270  168.8410  143.5240 O   0  0  0  0  0  1  0  0  0  0  0  0
  196.7620  172.3620  142.3940 C   0  0  1  0  0  0  0  0  0  0  0  0
  195.2120  170.4810  142.1900 O   0  0  0  0  0  1  0  0  0  0  0  0
  196.3310  171.0230  142.8580 C   0  0  2  0  0  0  0  0  0  0  0  0
  197.9380  172.6470  144.6260 N   0  0  0  0  0  2  0  0  0  0  0  0
  195.9590  170.2790  145.2370 C   0  0  2  0  0  3  0  0  0  0  0  0
  196.7600  172.7490  145.4930 C   0  0  1  0  0  3  0  0  0  0  0  0
  196.8680  170.1280  143.9870 C   0  0  1  0  0  3  0  0  0  0  0  0
  197.3640  171.1850  141.9590 O   0  0  0  0  0  0  0  0  0  0  0  0
  196.5300  171.3980  146.1380 C   0  0  0  0  0  2  0  0  0  0  0  0
  197.6880  173.2070  143.2880 C   0  0  0  0  0  2  0  0  0  0  0  0
  195.8350  168.9400  145.9990 C   0  0  0  0  0  2  0  0  0  0  0  0
  196.4250  169.0520  147.2650 O   0  0  0  0  0  1  0  0  0  0  0  0
  2  3  1  0  0  0  0
  2  6  1  0  0  0  0
  3  5  1  0  0  0  0
  4  1  1  0  0  0  0
  5  1  1  0  0  0  0
  5  7  1  1  0  0  0
  6  4  1  0  0  0  0
  8  7  1  1  0  0  0
  8 21  1  0  0  0  0
  8 14  1  0  0  0  0
 10 11  1  0  0  0  0
 12 13  1  1  0  0  0
 12 16  1  0  0  0  0
 13 15  1  0  0  0  0
 14 33  1  0  0  0  0
 14 19  1  1  0  0  0
 15 11  1  0  0  0  0
 16 10  1  6  0  0  0
 17 21  1  0  0  0  0
 17 18  1  1  0  0  0
 18 12  1  0  0  0  0
 19  9  2  0  0  0  0
 20 19  1  0  0  0  0
 20 16  1  0  0  0  0
 21 20  1  1  0  0  0
 22 27  1  0  0  0  0
 23 28  1  6  0  0  0
 23 25  1  0  0  0  0
 23 26  1  0  0  0  0
 25 24  1  0  0  0  0
 26 22  2  0  0  0  0
 27 24  1  6  0  0  0
 27 17  1  0  0  0  0
 29 28  1  0  0  0  0
 30 29  1  0  0  0  0
 31 32  1  0  0  0  0
 33 31  1  6  0  0  0
 33 32  1  0  0  0  0
 34  2  1  0  0  0  0
 35 40  1  6  0  0  0
 35 36  1  0  0  0  0
 36 39  1  6  0  0  0
 37 34  1  1  0  0  0
 37 35  1  0  0  0  0
 37 36  1  0  0  0  0
 39 38  1  0  0  0  0
 40 41  1  6  0  0  0
 44 40  1  6  0  0  0
 44 46  1  0  0  0  0
 44 53  1  0  0  0  0
 46 45  1  6  0  0  0
 46 50  1  0  0  0  0
 47 49  1  0  0  0  0
 48 54  1  1  0  0  0
 48 52  1  0  0  0  0
 49 52  1  0  0  0  0
 49 42  1  1  0  0  0
 50 43  1  6  0  0  0
 50 48  1  0  0  0  0
 51 44  1  0  0  0  0
 51 46  1  0  0  0  0
 53 47  1  0  0  0  0
 54 55  1  0  0  0  0
M  END
>  <MODEL>
8

>  <REMARK>
 VINA RESULT:      -6.4      2.646     10.342
  Name = 
  12 active torsions:
  status: ('A' for Active; 'I' for Inactive)
    1  A    between atoms: C_2  and  O_28
    2  A    between atoms: C_6  and  C_20
    3  A    between atoms: C_8  and  C_43
    4  A    between atoms: O_10  and  C_18
    5  A    between atoms: O_10  and  C_32
    6  A    between atoms: C_11  and  C_29
    7  A    between atoms: C_19  and  C_37
    8  A    between atoms: C_20  and  C_22
    9  A    between atoms: N_27  and  C_54
   10  A    between atoms: O_28  and  C_44
   11  A    between atoms: C_33  and  C_52
   12  A    between atoms: C_51  and  C_54
                            x       y       z     vdW  Elec       q    Type
                         _______ _______ _______ _____ _____    ______ ____

>  <TORSDO>
F 12

$$$$
=
 OpenBabel11052419443D

 55 63  0  0  1  0  0  0  0  0999 V2000
  187.8350  173.7150  141.8430 C   0  0  0  0  0  2  0  0  0  0  0  0
  188.7420  173.8520  139.0610 N   0  0  0  0  0  0  0  0  0  0  0  0
  188.1210  175.0950  139.5560 C   0  0  0  0  0  2  0  0  0  0  0  0
  187.6430  172.4670  141.0110 C   0  0  0  0  0  2  0  0  0  0  0  0
  187.9090  175.0990  141.1590 C   0  0  2  0  0  3  0  0  0  0  0  0
  188.5470  172.5370  139.7320 C   0  0  0  0  0  2  0  0  0  0  0  0
  188.8700  175.7920  141.9370 O   0  0  0  0  0  0  0  0  0  0  0  0
  189.0610  175.1750  143.1990 C   0  0  2  0  0  3  0  0  0  0  0  0
  189.7790  177.1500  146.2020 O   0  0  0  0  0  0  0  0  0  0  0  0
  192.3950  176.4270  146.4310 C   0  0  0  0  0  2  0  0  0  0  0  0
  193.7750  177.0090  146.8890 C   0  0  0  0  0  2  0  0  0  0  0  0
  193.3480  175.4670  144.2880 C   0  0  2  0  0  3  0  0  0  0  0  0
  194.5940  175.2510  145.2570 C   0  0  0  0  0  2  0  0  0  0  0  0
  188.5420  176.0860  144.4340 C   0  0  1  0  0  3  0  0  0  0  0  0
  194.9670  176.4730  146.1330 C   0  0  0  0  0  2  0  0  0  0  0  0
  192.2700  176.2610  144.9350 C   0  0  1  0  0  3  0  0  0  0  0  0
  191.8280  174.3710  142.8740 C   0  0  2  0  0  3  0  0  0  0  0  0
  192.9310  174.2310  143.7990 O   0  0  0  0  0  0  0  0  0  0  0  0
  189.7940  176.4420  145.1050 C   0  0  0  0  0  0  0  0  0  0  0  0
  190.8930  175.7900  144.6470 N   0  0  0  0  0  0  0  0  0  0  0  0
  190.6190  174.9460  143.5200 C   0  0  1  0  0  3  0  0  0  0  0  0
  192.7960  172.2000  141.7610 C   0  0  0  0  0  3  0  0  0  0  0  0
  191.7250  169.9350  142.1150 C   0  0  2  0  0  3  0  0  0  0  0  0
  190.7530  171.9710  143.2460 C   0  0  0  0  0  2  0  0  0  0  0  0
  190.4410  170.7600  142.3920 C   0  0  0  0  0  2  0  0  0  0  0  0
  192.8530  170.8530  141.6640 C   0  0  0  0  0  3  0  0  0  0  0  0
  191.5620  172.9550  142.3370 C   0  0  1  0  0  3  0  0  0  0  0  0
  191.4590  168.9870  141.1310 O   0  0  0  0  0  0  0  0  0  0  0  0
  190.8980  169.7160  140.0680 C   0  0  0  0  0  2  0  0  0  0  0  0
  190.4410  168.8490  138.9260 C   0  0  0  0  0  1  0  0  0  0  0  0
  186.4580  176.9990  144.1220 C   0  0  0  0  0  2  0  0  0  0  0  0
  186.9940  177.5570  145.2580 O   0  0  0  0  0  0  0  0  0  0  0  0
  187.8740  177.3630  144.1800 C   0  0  1  0  0  3  0  0  0  0  0  0
  188.4180  173.6620  137.6310 C   0  0  0  0  0  2  0  0  0  0  0  0
  190.8170  174.0970  137.1740 C   0  0  1  0  0  3  0  0  0  0  0  0
  190.1000  175.1250  136.2780 C   0  0  2  0  0  3  0  0  0  0  0  0
  189.4900  173.7550  136.4910 C   0  0  2  0  0  3  0  0  0  0  0  0
  191.2960  176.8010  134.6990 C   0  0  0  0  0  1  0  0  0  0  0  0
  190.8830  175.3450  134.9690 C   0  0  0  0  0  2  0  0  0  0  0  0
  192.0680  173.3460  136.5660 C   0  0  2  0  0  3  0  0  0  0  0  0
  191.7780  172.1260  135.9040 O   0  0  0  0  0  1  0  0  0  0  0  0
  196.7710  170.8340  137.7370 O   0  0  0  0  0  1  0  0  0  0  0  0
  194.7240  175.6810  139.9460 O   0  0  0  0  0  1  0  0  0  0  0  0
  193.1580  173.2180  137.6600 C   0  0  1  0  0  0  0  0  0  0  0  0
  193.7140  175.5800  137.3520 O   0  0  0  0  0  1  0  0  0  0  0  0
  193.9380  174.4000  138.0930 C   0  0  2  0  0  0  0  0  0  0  0  0
  194.8850  171.7740  138.8340 N   0  0  0  0  0  2  0  0  0  0  0  0
  196.4120  174.5110  138.5580 C   0  0  2  0  0  3  0  0  0  0  0  0
  196.0240  172.0060  137.9380 C   0  0  1  0  0  3  0  0  0  0  0  0
  194.9970  174.5580  139.1970 C   0  0  1  0  0  3  0  0  0  0  0  0
  192.7680  174.0290  138.7220 O   0  0  0  0  0  0  0  0  0  0  0  0
  196.9180  173.0500  138.5740 C   0  0  0  0  0  2  0  0  0  0  0  0
  193.6020  171.8160  138.1150 C   0  0  0  0  0  2  0  0  0  0  0  0
  197.3860  175.4600  139.2940 C   0  0  0  0  0  2  0  0  0  0  0  0
  197.8280  174.8670  140.4830 O   0  0  0  0  0  1  0  0  0  0  0  0
  2  3  1  0  0  0  0
  2  6  1  0  0  0  0
  3  5  1  0  0  0  0
  4  1  1  0  0  0  0
  5  1  1  0  0  0  0
  5  7  1  1  0  0  0
  6  4  1  0  0  0  0
  8  7  1  6  0  0  0
  8 21  1  0  0  0  0
  8 14  1  0  0  0  0
 10 11  1  0  0  0  0
 12 16  1  0  0  0  0
 12 13  1  1  0  0  0
 13 15  1  0  0  0  0
 14 19  1  1  0  0  0
 15 11  1  0  0  0  0
 16 10  1  1  0  0  0
 17 21  1  0  0  0  0
 17 18  1  1  0  0  0
 18 12  1  0  0  0  0
 19  9  2  0  0  0  0
 20 16  1  0  0  0  0
 20 19  1  0  0  0  0
 21 20  1  6  0  0  0
 23 28  1  6  0  0  0
 23 25  1  0  0  0  0
 25 24  1  0  0  0  0
 26 22  2  0  0  0  0
 26 23  1  0  0  0  0
 27 22  1  1  0  0  0
 27 17  1  0  0  0  0
 27 24  1  0  0  0  0
 29 28  1  0  0  0  0
 30 29  1  0  0  0  0
 31 32  1  0  0  0  0
 33 31  1  6  0  0  0
 33 14  1  0  0  0  0
 33 32  1  0  0  0  0
 34  2  1  0  0  0  0
 35 40  1  6  0  0  0
 36 39  1  6  0  0  0
 36 37  1  0  0  0  0
 36 35  1  0  0  0  0
 37 35  1  0  0  0  0
 37 34  1  1  0  0  0
 38 39  1  0  0  0  0
 40 41  1  1  0  0  0
 44 40  1  6  0  0  0
 44 46  1  0  0  0  0
 44 53  1  0  0  0  0
 44 51  1  0  0  0  0
 46 45  1  6  0  0  0
 46 51  1  0  0  0  0
 46 50  1  0  0  0  0
 48 52  1  0  0  0  0
 48 50  1  0  0  0  0
 48 54  1  1  0  0  0
 49 42  1  1  0  0  0
 49 52  1  0  0  0  0
 49 47  1  0  0  0  0
 50 43  1  6  0  0  0
 53 47  1  0  0  0  0
 54 55  1  0  0  0  0
M  END
>  <MODEL>
9

>  <REMARK>
 VINA RESULT:      -6.3      2.413      9.060
  Name = 
  12 active torsions:
  status: ('A' for Active; 'I' for Inactive)
    1  A    between atoms: C_2  and  O_28
    2  A    between atoms: C_6  and  C_20
    3  A    between atoms: C_8  and  C_43
    4  A    between atoms: O_10  and  C_18
    5  A    between atoms: O_10  and  C_32
    6  A    between atoms: C_11  and  C_29
    7  A    between atoms: C_19  and  C_37
    8  A    between atoms: C_20  and  C_22
    9  A    between atoms: N_27  and  C_54
   10  A    between atoms: O_28  and  C_44
   11  A    between atoms: C_33  and  C_52
   12  A    between atoms: C_51  and  C_54
                            x       y       z     vdW  Elec       q    Type
                         _______ _______ _______ _____ _____    ______ ____

>  <TORSDO>
F 12

$$$$
