=
 OpenBabel11052419053D

 32 38  0  0  1  0  0  0  0  0999 V2000
  189.8290  176.9720  143.5670 C   0  0  2  0  0  3  0  0  0  0  0  0
  190.3750  174.6420  142.8710 C   0  0  2  0  0  3  0  0  0  0  0  0
  190.2710  178.4380  143.5550 C   0  0  0  0  0  2  0  0  0  0  0  0
  190.9050  176.0700  142.9560 C   0  0  2  0  0  3  0  0  0  0  0  0
  191.5050  173.7140  142.4610 C   0  0  2  0  0  3  0  0  0  0  0  0
  188.3720  172.3770  138.8140 C   0  0  0  0  0  2  0  0  0  0  0  0
  189.1290  174.5210  141.9660 C   0  0  1  0  0  3  0  0  0  0  0  0
  190.0190  171.4000  140.2890 O   0  0  0  0  0  0  0  0  0  0  0  0
  190.4880  172.6400  140.7700 C   0  0  2  0  0  3  0  0  0  0  0  0
  192.2790  176.1760  143.6720 C   0  0  2  0  0  3  0  0  0  0  0  0
  190.9820  172.4710  142.0790 O   0  0  0  0  0  0  0  0  0  0  0  0
  192.6580  174.9040  144.4440 C   0  0  0  0  0  2  0  0  0  0  0  0
  192.3680  177.4000  144.5890 C   0  0  0  0  0  2  0  0  0  0  0  0
  188.4830  175.8900  141.6780 C   0  0  0  0  0  2  0  0  0  0  0  0
  188.4330  176.7970  142.9270 C   0  0  1  0  0  3  0  0  0  0  0  0
  189.4000  173.7650  140.6550 C   0  0  1  0  0  3  0  0  0  0  0  0
  192.5650  173.6240  143.5830 C   0  0  1  0  0  3  0  0  0  0  0  0
  191.7570  178.6270  143.9060 C   0  0  0  0  0  2  0  0  0  0  0  0
  189.6850  171.5930  138.9380 C   0  0  0  0  0  2  0  0  0  0  0  0
  188.0980  173.2210  140.0630 C   0  0  0  0  0  2  0  0  0  0  0  0
  185.1590  178.1220  146.1150 C   0  0  0  0  0  1  0  0  0  0  0  0
  185.3260  179.9800  143.9110 O   0  0  0  0  0  1  0  0  0  0  0  0
  187.3570  176.2390  146.4960 C   0  0  0  0  0  2  0  0  0  0  0  0
  185.4590  177.7370  143.0400 C   0  0  0  0  0  2  0  0  0  0  0  0
  187.3850  176.2910  143.9470 C   0  0  2  0  0  3  0  0  0  0  0  0
  186.4430  178.3660  145.3230 C   0  0  1  0  0  3  0  0  0  0  0  0
  185.9760  176.3150  143.3330 C   0  0  0  0  0  2  0  0  0  0  0  0
  187.3340  177.1110  145.2520 C   0  0  0  0  0  0  0  0  0  0  0  0
  188.5480  177.1130  146.1620 C   0  0  0  0  0  2  0  0  0  0  0  0
  186.1180  178.8320  143.8980 C   0  0  2  0  0  3  0  0  0  0  0  0
  192.4270  172.3850  144.4730 C   0  0  0  0  0  2  0  0  0  0  0  0
  193.7240  172.0460  145.1950 C   0  0  0  0  0  1  0  0  0  0  0  0
  1  3  1  6  0  0  0
  2  4  1  0  0  0  0
  3 18  1  0  0  0  0
  4  1  1  0  0  0  0
  4 10  1  0  0  0  0
  5  2  1  0  0  0  0
  5 17  1  0  0  0  0
  6 19  1  0  0  0  0
  6 20  1  0  0  0  0
  7  2  1  0  0  0  0
  8  9  1  0  0  0  0
  9 11  1  0  0  0  0
 10 12  1  0  0  0  0
 10 13  1  0  0  0  0
 11  5  1  0  0  0  0
 14  7  1  0  0  0  0
 14 15  1  0  0  0  0
 15  1  1  0  0  0  0
 15 25  1  0  0  0  0
 16  9  1  0  0  0  0
 16  7  1  0  0  0  0
 17 12  1  0  0  0  0
 17 31  1  0  0  0  0
 18 13  1  0  0  0  0
 19  8  1  0  0  0  0
 20 16  1  0  0  0  0
 24 27  1  0  0  0  0
 24 30  1  0  0  0  0
 25 28  1  0  0  0  0
 26 21  1  0  0  0  0
 27 25  1  0  0  0  0
 28 26  1  0  0  0  0
 28 29  1  0  0  0  0
 28 23  1  0  0  0  0
 29 23  1  0  0  0  0
 30 22  1  0  0  0  0
 30 26  1  0  0  0  0
 31 32  1  0  0  0  0
M  END
>  <MODEL>
1

>  <REMARK>
 VINA RESULT:      -8.3      0.000      0.000
  Name = 
  2 active torsions:
  status: ('A' for Active; 'I' for Inactive)
    1  A    between atoms: C_13  and  C_29
    2  A    between atoms: C_16  and  C_27
                            x       y       z     vdW  Elec       q    Type
                         _______ _______ _______ _____ _____    ______ ____

>  <TORSDO>
F 2

$$$$
=
 OpenBabel11052419053D

 32 38  0  0  1  0  0  0  0  0999 V2000
  189.3210  176.5070  144.2740 C   0  0  2  0  0  3  0  0  0  0  0  0
  189.0750  174.7910  142.4830 C   0  0  2  0  0  3  0  0  0  0  0  0
  190.2680  177.4850  144.9740 C   0  0  0  0  0  2  0  0  0  0  0  0
  190.0730  175.6580  143.2430 C   0  0  2  0  0  3  0  0  0  0  0  0
  189.8350  173.8050  141.6110 C   0  0  2  0  0  3  0  0  0  0  0  0
  187.0670  175.7400  137.9360 C   0  0  0  0  0  2  0  0  0  0  0  0
  188.0380  175.6240  141.6980 C   0  0  1  0  0  3  0  0  0  0  0  0
  187.9750  173.6150  138.6470 O   0  0  0  0  0  0  0  0  0  0  0  0
  188.7830  174.1720  139.6600 C   0  0  2  0  0  3  0  0  0  0  0  0
  191.2530  174.8530  143.8520 C   0  0  2  0  0  3  0  0  0  0  0  0
  188.9600  173.2210  140.6850 O   0  0  0  0  0  0  0  0  0  0  0  0
  191.0060  173.3370  143.8670 C   0  0  0  0  0  2  0  0  0  0  0  0
  191.6360  175.3420  145.2520 C   0  0  0  0  0  2  0  0  0  0  0  0
  187.9970  177.0930  142.1620 C   0  0  0  0  0  2  0  0  0  0  0  0
  188.0830  177.2310  143.6980 C   0  0  1  0  0  3  0  0  0  0  0  0
  188.2200  175.5440  140.1740 C   0  0  1  0  0  3  0  0  0  0  0  0
  190.5890  172.7790  142.4870 C   0  0  1  0  0  3  0  0  0  0  0  0
  191.6410  176.8730  145.3020 C   0  0  0  0  0  2  0  0  0  0  0  0
  187.9600  174.5400  137.5900 C   0  0  0  0  0  2  0  0  0  0  0  0
  186.9250  175.9190  139.4510 C   0  0  0  0  0  2  0  0  0  0  0  0
  184.2630  178.6660  146.1440 C   0  0  0  0  0  1  0  0  0  0  0  0
  185.1470  180.6690  144.2630 O   0  0  0  0  0  1  0  0  0  0  0  0
  186.1070  176.5080  146.8260 C   0  0  0  0  0  2  0  0  0  0  0  0
  185.2770  178.5070  143.2060 C   0  0  0  0  0  2  0  0  0  0  0  0
  186.7720  176.7710  144.3780 C   0  0  2  0  0  3  0  0  0  0  0  0
  185.7200  178.8200  145.7120 C   0  0  1  0  0  3  0  0  0  0  0  0
  185.5670  177.0140  143.4540 C   0  0  0  0  0  2  0  0  0  0  0  0
  186.4770  177.4780  145.7150 C   0  0  0  0  0  0  0  0  0  0  0  0
  187.4220  177.2590  146.8820 C   0  0  0  0  0  2  0  0  0  0  0  0
  185.8040  179.4390  144.3110 C   0  0  2  0  0  3  0  0  0  0  0  0
  189.8610  171.4410  142.6460 C   0  0  0  0  0  2  0  0  0  0  0  0
  190.6270  170.2890  142.0100 C   0  0  0  0  0  1  0  0  0  0  0  0
  1  3  1  6  0  0  0
  2  4  1  0  0  0  0
  3 18  1  0  0  0  0
  4 10  1  0  0  0  0
  4  1  1  0  0  0  0
  5  2  1  0  0  0  0
  5 17  1  0  0  0  0
  6 20  1  0  0  0  0
  7 14  1  0  0  0  0
  7  2  1  0  0  0  0
  8  9  1  0  0  0  0
  9 16  1  0  0  0  0
  9 11  1  0  0  0  0
 10 12  1  0  0  0  0
 10 13  1  0  0  0  0
 11  5  1  0  0  0  0
 13 18  1  0  0  0  0
 14 15  1  0  0  0  0
 15  1  1  0  0  0  0
 15 25  1  0  0  0  0
 16  7  1  0  0  0  0
 17 31  1  0  0  0  0
 17 12  1  0  0  0  0
 19  6  1  0  0  0  0
 19  8  1  0  0  0  0
 20 16  1  0  0  0  0
 22 30  1  0  0  0  0
 23 29  1  0  0  0  0
 24 27  1  0  0  0  0
 24 30  1  0  0  0  0
 25 28  1  0  0  0  0
 26 28  1  0  0  0  0
 26 21  1  0  0  0  0
 27 25  1  0  0  0  0
 28 23  1  0  0  0  0
 28 29  1  0  0  0  0
 30 26  1  0  0  0  0
 32 31  1  0  0  0  0
M  END
>  <MODEL>
2

>  <REMARK>
 VINA RESULT:      -8.2      1.626      2.162
  Name = 
  2 active torsions:
  status: ('A' for Active; 'I' for Inactive)
    1  A    between atoms: C_13  and  C_29
    2  A    between atoms: C_16  and  C_27
                            x       y       z     vdW  Elec       q    Type
                         _______ _______ _______ _____ _____    ______ ____

>  <TORSDO>
F 2

$$$$
=
 OpenBabel11052419053D

 32 38  0  0  1  0  0  0  0  0999 V2000
  190.2470  175.0780  145.3110 C   0  0  2  0  0  3  0  0  0  0  0  0
  189.2620  175.2860  143.0310 C   0  0  2  0  0  3  0  0  0  0  0  0
  189.9940  174.7090  146.7750 C   0  0  0  0  0  2  0  0  0  0  0  0
  188.9460  175.0380  144.5030 C   0  0  2  0  0  3  0  0  0  0  0  0
  187.9620  175.4520  142.2640 C   0  0  2  0  0  3  0  0  0  0  0  0
  189.8000  171.7970  139.4060 C   0  0  0  0  0  2  0  0  0  0  0  0
  190.1900  174.2070  142.4300 C   0  0  1  0  0  3  0  0  0  0  0  0
  188.5150  173.8350  139.2040 O   0  0  0  0  0  0  0  0  0  0  0  0
  188.3450  173.9980  140.5950 C   0  0  2  0  0  3  0  0  0  0  0  0
  187.8430  175.9760  145.0640 C   0  0  2  0  0  3  0  0  0  0  0  0
  188.2110  175.3700  140.8870 O   0  0  0  0  0  0  0  0  0  0  0  0
  187.5420  177.1710  144.1480 C   0  0  0  0  0  2  0  0  0  0  0  0
  188.1520  176.4600  146.4840 C   0  0  0  0  0  2  0  0  0  0  0  0
  190.8890  173.3680  143.5170 C   0  0  0  0  0  2  0  0  0  0  0  0
  191.3840  174.2270  144.7020 C   0  0  1  0  0  3  0  0  0  0  0  0
  189.4850  173.2950  141.4140 C   0  0  1  0  0  3  0  0  0  0  0  0
  187.2460  176.7550  142.6890 C   0  0  1  0  0  3  0  0  0  0  0  0
  188.6930  175.3090  147.3370 C   0  0  0  0  0  2  0  0  0  0  0  0
  188.4880  172.4530  138.9550 C   0  0  0  0  0  2  0  0  0  0  0  0
  190.5020  172.6240  140.4880 C   0  0  0  0  0  2  0  0  0  0  0  0
  196.0530  174.8910  145.3370 C   0  0  0  0  0  1  0  0  0  0  0  0
  195.3300  172.1020  145.5210 O   0  0  0  0  0  1  0  0  0  0  0  0
  193.9260  176.8800  145.5440 C   0  0  0  0  0  2  0  0  0  0  0  0
  194.1130  173.0950  143.6930 C   0  0  0  0  0  2  0  0  0  0  0  0
  192.6040  175.0890  144.2990 C   0  0  2  0  0  3  0  0  0  0  0  0
  194.6830  174.4130  145.8180 C   0  0  1  0  0  3  0  0  0  0  0  0
  193.4290  174.3870  143.2080 C   0  0  0  0  0  2  0  0  0  0  0  0
  193.5590  175.4070  145.4660 C   0  0  0  0  0  0  0  0  0  0  0  0
  193.0530  176.2590  146.6150 C   0  0  0  0  0  2  0  0  0  0  0  0
  194.3480  173.0430  145.2130 C   0  0  2  0  0  3  0  0  0  0  0  0
  187.4750  177.9320  141.7360 C   0  0  0  0  0  2  0  0  0  0  0  0
  186.2560  178.2200  140.8720 C   0  0  0  0  0  1  0  0  0  0  0  0
  1  3  1  1  0  0  0
  2  4  1  0  0  0  0
  3 18  1  0  0  0  0
  4 10  1  0  0  0  0
  4  1  1  0  0  0  0
  5 17  1  0  0  0  0
  5  2  1  0  0  0  0
  6 20  1  0  0  0  0
  7  2  1  0  0  0  0
  7 14  1  0  0  0  0
  8  9  1  0  0  0  0
  9 11  1  0  0  0  0
  9 16  1  0  0  0  0
 10 13  1  0  0  0  0
 11  5  1  0  0  0  0
 12 10  1  0  0  0  0
 13 18  1  0  0  0  0
 14 15  1  0  0  0  0
 15  1  1  0  0  0  0
 16  7  1  0  0  0  0
 17 12  1  0  0  0  0
 19  8  1  0  0  0  0
 19  6  1  0  0  0  0
 20 16  1  0  0  0  0
 21 26  1  0  0  0  0
 23 29  1  0  0  0  0
 24 30  1  0  0  0  0
 25 15  1  0  0  0  0
 25 28  1  0  0  0  0
 27 24  1  0  0  0  0
 27 25  1  0  0  0  0
 28 23  1  0  0  0  0
 28 26  1  0  0  0  0
 28 29  1  0  0  0  0
 30 22  1  0  0  0  0
 30 26  1  0  0  0  0
 31 17  1  0  0  0  0
 32 31  1  0  0  0  0
M  END
>  <MODEL>
3

>  <REMARK>
 VINA RESULT:      -8.0      2.094      6.204
  Name = 
  2 active torsions:
  status: ('A' for Active; 'I' for Inactive)
    1  A    between atoms: C_13  and  C_29
    2  A    between atoms: C_16  and  C_27
                            x       y       z     vdW  Elec       q    Type
                         _______ _______ _______ _____ _____    ______ ____

>  <TORSDO>
F 2

$$$$
=
 OpenBabel11052419053D

 32 38  0  0  1  0  0  0  0  0999 V2000
  190.3360  174.2610  143.7120 C   0  0  2  0  0  3  0  0  0  0  0  0
  191.5960  174.3050  141.5620 C   0  0  2  0  0  3  0  0  0  0  0  0
  189.9500  173.4340  144.9410 C   0  0  0  0  0  2  0  0  0  0  0  0
  191.1240  173.4140  142.7060 C   0  0  2  0  0  3  0  0  0  0  0  0
  192.1940  173.4350  140.4690 C   0  0  2  0  0  3  0  0  0  0  0  0
  196.1710  176.3980  141.0250 C   0  0  0  0  0  2  0  0  0  0  0  0
  192.5440  175.4290  142.0330 C   0  0  1  0  0  3  0  0  0  0  0  0
  194.9450  175.2540  139.2840 O   0  0  0  0  0  0  0  0  0  0  0  0
  194.1410  174.5180  140.1780 C   0  0  2  0  0  3  0  0  0  0  0  0
  190.3570  172.1510  142.2300 C   0  0  2  0  0  3  0  0  0  0  0  0
  192.9050  174.2350  139.5640 O   0  0  0  0  0  0  0  0  0  0  0  0
  189.9300  172.2230  140.7570 C   0  0  0  0  0  2  0  0  0  0  0  0
  189.1500  171.8290  143.1170 C   0  0  0  0  0  2  0  0  0  0  0  0
  192.4890  175.6380  143.5580 C   0  0  0  0  0  2  0  0  0  0  0  0
  191.0490  175.5720  144.1130 C   0  0  1  0  0  3  0  0  0  0  0  0
  193.9960  175.2360  141.5670 C   0  0  1  0  0  3  0  0  0  0  0  0
  191.0970  172.5710  139.8050 C   0  0  1  0  0  3  0  0  0  0  0  0
  189.5100  172.0000  144.5950 C   0  0  0  0  0  2  0  0  0  0  0  0
  196.2090  175.3740  139.8840 C   0  0  0  0  0  2  0  0  0  0  0  0
  194.7560  176.5640  141.5880 C   0  0  0  0  0  2  0  0  0  0  0  0
  186.8880  177.8260  144.6100 C   0  0  0  0  0  1  0  0  0  0  0  0
  187.6260  176.3950  147.0070 O   0  0  0  0  0  1  0  0  0  0  0  0
  188.2620  177.1510  142.1250 C   0  0  0  0  0  2  0  0  0  0  0  0
  189.5900  177.4720  146.1150 C   0  0  0  0  0  2  0  0  0  0  0  0
  190.2330  176.8240  143.7090 C   0  0  2  0  0  3  0  0  0  0  0  0
  187.7380  176.5560  144.5960 C   0  0  1  0  0  3  0  0  0  0  0  0
  190.2970  177.8920  144.8130 C   0  0  0  0  0  2  0  0  0  0  0  0
  188.7440  176.5390  143.4290 C   0  0  0  0  0  0  0  0  0  0  0  0
  188.3780  175.6460  142.2590 C   0  0  0  0  0  2  0  0  0  0  0  0
  188.5000  176.4030  145.9190 C   0  0  2  0  0  3  0  0  0  0  0  0
  190.5670  173.1400  138.4870 C   0  0  0  0  0  2  0  0  0  0  0  0
  189.2090  173.8080  138.6510 C   0  0  0  0  0  1  0  0  0  0  0  0
  1 15  1  0  0  0  0
  1  3  1  1  0  0  0
  2  7  1  0  0  0  0
  2  4  1  0  0  0  0
  4  1  1  0  0  0  0
  5  2  1  0  0  0  0
  6 20  1  0  0  0  0
  7 14  1  0  0  0  0
  8 19  1  0  0  0  0
  8  9  1  0  0  0  0
  9 16  1  0  0  0  0
 10  4  1  0  0  0  0
 10 13  1  0  0  0  0
 11  9  1  0  0  0  0
 11  5  1  0  0  0  0
 12 10  1  0  0  0  0
 13 18  1  0  0  0  0
 14 15  1  0  0  0  0
 16 20  1  0  0  0  0
 16  7  1  0  0  0  0
 17  5  1  0  0  0  0
 17 12  1  0  0  0  0
 18  3  1  0  0  0  0
 19  6  1  0  0  0  0
 23 29  1  0  0  0  0
 23 28  1  0  0  0  0
 25 15  1  0  0  0  0
 25 27  1  0  0  0  0
 26 21  1  0  0  0  0
 26 30  1  0  0  0  0
 27 24  1  0  0  0  0
 28 25  1  0  0  0  0
 28 26  1  0  0  0  0
 29 28  1  0  0  0  0
 30 24  1  0  0  0  0
 30 22  1  0  0  0  0
 31 32  1  0  0  0  0
 31 17  1  0  0  0  0
M  END
>  <MODEL>
4

>  <REMARK>
 VINA RESULT:      -7.9      2.545      5.022
  Name = 
  2 active torsions:
  status: ('A' for Active; 'I' for Inactive)
    1  A    between atoms: C_13  and  C_29
    2  A    between atoms: C_16  and  C_27
                            x       y       z     vdW  Elec       q    Type
                         _______ _______ _______ _____ _____    ______ ____

>  <TORSDO>
F 2

$$$$
=
 OpenBabel11052419053D

 32 38  0  0  1  0  0  0  0  0999 V2000
  189.3700  174.5520  142.2410 C   0  0  2  0  0  3  0  0  0  0  0  0
  191.8400  174.8820  142.2420 C   0  0  2  0  0  3  0  0  0  0  0  0
  188.2240  173.5400  142.1690 C   0  0  0  0  0  2  0  0  0  0  0  0
  190.7230  173.8640  142.0370 C   0  0  2  0  0  3  0  0  0  0  0  0
  193.1650  174.2560  141.8400 C   0  0  2  0  0  3  0  0  0  0  0  0
  194.5800  175.5870  146.4370 C   0  0  0  0  0  2  0  0  0  0  0  0
  191.8540  175.4730  143.6690 C   0  0  1  0  0  3  0  0  0  0  0  0
  195.4700  175.4520  144.1930 O   0  0  0  0  0  0  0  0  0  0  0  0
  194.3630  174.7490  143.6760 C   0  0  2  0  0  3  0  0  0  0  0  0
  190.8280  173.0950  140.6920 C   0  0  2  0  0  3  0  0  0  0  0  0
  194.2230  175.0480  142.3060 O   0  0  0  0  0  0  0  0  0  0  0  0
  191.8080  173.7410  139.7020 C   0  0  0  0  0  2  0  0  0  0  0  0
  189.4620  172.8880  140.0280 C   0  0  0  0  0  2  0  0  0  0  0  0
  190.5370  175.2090  144.4230 C   0  0  0  0  0  2  0  0  0  0  0  0
  189.2930  175.4030  143.5280 C   0  0  1  0  0  3  0  0  0  0  0  0
  193.0580  175.0120  144.5070 C   0  0  1  0  0  3  0  0  0  0  0  0
  193.2020  174.0030  140.3160 C   0  0  1  0  0  3  0  0  0  0  0  0
  188.4170  172.4800  141.0700 C   0  0  0  0  0  2  0  0  0  0  0  0
  195.6540  175.0010  145.5100 C   0  0  0  0  0  2  0  0  0  0  0  0
  193.3200  175.9820  145.6610 C   0  0  0  0  0  2  0  0  0  0  0  0
  186.0340  178.8690  143.4090 C   0  0  0  0  0  1  0  0  0  0  0  0
  185.5060  176.9700  145.5200 O   0  0  0  0  0  1  0  0  0  0  0  0
  187.8850  178.0910  141.2910 C   0  0  0  0  0  2  0  0  0  0  0  0
  187.8750  177.4110  145.4530 C   0  0  0  0  0  2  0  0  0  0  0  0
  189.0510  176.9010  143.2220 C   0  0  2  0  0  3  0  0  0  0  0  0
  186.4380  177.3970  143.3290 C   0  0  1  0  0  3  0  0  0  0  0  0
  189.0570  177.7280  144.5170 C   0  0  0  0  0  2  0  0  0  0  0  0
  187.7190  177.1860  142.5000 C   0  0  0  0  0  0  0  0  0  0  0  0
  187.5130  176.6350  141.1010 C   0  0  0  0  0  2  0  0  0  0  0  0
  186.6500  176.8190  144.7350 C   0  0  2  0  0  3  0  0  0  0  0  0
  193.9460  175.0810  139.5220 C   0  0  0  0  0  2  0  0  0  0  0  0
  193.7800  174.9090  138.0190 C   0  0  0  0  0  1  0  0  0  0  0  0
  1  3  1  1  0  0  0
  1 15  1  0  0  0  0
  2  7  1  0  0  0  0
  4  1  1  0  0  0  0
  4  2  1  0  0  0  0
  5  2  1  0  0  0  0
  5 11  1  0  0  0  0
  7 14  1  0  0  0  0
  7 16  1  0  0  0  0
  8 19  1  0  0  0  0
  9  8  1  0  0  0  0
  9 16  1  0  0  0  0
 10  4  1  0  0  0  0
 11  9  1  0  0  0  0
 12 17  1  0  0  0  0
 12 10  1  0  0  0  0
 13 10  1  0  0  0  0
 13 18  1  0  0  0  0
 15 14  1  0  0  0  0
 16 20  1  0  0  0  0
 17  5  1  0  0  0  0
 18  3  1  0  0  0  0
 19  6  1  0  0  0  0
 20  6  1  0  0  0  0
 23 28  1  0  0  0  0
 25 15  1  0  0  0  0
 25 27  1  0  0  0  0
 26 21  1  0  0  0  0
 26 30  1  0  0  0  0
 27 24  1  0  0  0  0
 28 25  1  0  0  0  0
 28 26  1  0  0  0  0
 29 23  1  0  0  0  0
 29 28  1  0  0  0  0
 30 24  1  0  0  0  0
 30 22  1  0  0  0  0
 31 17  1  0  0  0  0
 32 31  1  0  0  0  0
M  END
>  <MODEL>
5

>  <REMARK>
 VINA RESULT:      -7.7      2.292      5.174
  Name = 
  2 active torsions:
  status: ('A' for Active; 'I' for Inactive)
    1  A    between atoms: C_13  and  C_29
    2  A    between atoms: C_16  and  C_27
                            x       y       z     vdW  Elec       q    Type
                         _______ _______ _______ _____ _____    ______ ____

>  <TORSDO>
F 2

$$$$
=
 OpenBabel11052419053D

 32 38  0  0  1  0  0  0  0  0999 V2000
  192.5270  175.5700  144.9110 C   0  0  2  0  0  3  0  0  0  0  0  0
  192.9790  173.5850  143.4730 C   0  0  2  0  0  3  0  0  0  0  0  0
  193.0680  176.8970  145.4520 C   0  0  0  0  0  2  0  0  0  0  0  0
  193.5950  174.8340  144.0960 C   0  0  2  0  0  3  0  0  0  0  0  0
  194.0790  172.7490  142.8410 C   0  0  2  0  0  3  0  0  0  0  0  0
  191.2460  173.0840  138.7460 C   0  0  0  0  0  2  0  0  0  0  0  0
  191.8260  173.9120  142.4990 C   0  0  1  0  0  3  0  0  0  0  0  0
  192.6650  171.4950  139.8900 O   0  0  0  0  0  0  0  0  0  0  0  0
  193.1660  172.4370  140.8120 C   0  0  2  0  0  3  0  0  0  0  0  0
  194.8940  174.5470  144.8990 C   0  0  2  0  0  3  0  0  0  0  0  0
  193.5130  171.7760  142.0070 O   0  0  0  0  0  0  0  0  0  0  0  0
  195.1050  173.0550  145.1940 C   0  0  0  0  0  2  0  0  0  0  0  0
  194.9730  175.3610  146.1940 C   0  0  0  0  0  2  0  0  0  0  0  0
  191.3080  175.3520  142.6710 C   0  0  0  0  0  2  0  0  0  0  0  0
  191.1950  175.7690  144.1540 C   0  0  1  0  0  3  0  0  0  0  0  0
  192.1750  173.6350  141.0280 C   0  0  1  0  0  3  0  0  0  0  0  0
  195.0110  172.1700  143.9300 C   0  0  1  0  0  3  0  0  0  0  0  0
  194.5210  176.8030  145.9510 C   0  0  0  0  0  2  0  0  0  0  0  0
  192.4830  172.1780  138.6760 C   0  0  0  0  0  2  0  0  0  0  0  0
  190.9060  173.4640  140.1910 C   0  0  0  0  0  2  0  0  0  0  0  0
  187.0650  176.3840  146.4350 C   0  0  0  0  0  1  0  0  0  0  0  0
  187.4860  178.4030  144.4140 O   0  0  0  0  0  1  0  0  0  0  0  0
  189.3620  174.8070  147.3040 C   0  0  0  0  0  2  0  0  0  0  0  0
  188.1770  176.2700  143.5300 C   0  0  0  0  0  2  0  0  0  0  0  0
  190.0170  175.0480  144.8510 C   0  0  2  0  0  3  0  0  0  0  0  0
  188.4520  176.8630  146.0090 C   0  0  1  0  0  3  0  0  0  0  0  0
  188.8190  174.9170  143.8970 C   0  0  0  0  0  2  0  0  0  0  0  0
  189.5160  175.7550  146.1260 C   0  0  0  0  0  0  0  0  0  0  0  0
  190.4490  175.8610  147.3180 C   0  0  0  0  0  2  0  0  0  0  0  0
  188.4240  177.3810  144.5650 C   0  0  2  0  0  3  0  0  0  0  0  0
  194.7000  170.7190  144.3100 C   0  0  0  0  0  2  0  0  0  0  0  0
  194.6670  170.5120  145.8180 C   0  0  0  0  0  1  0  0  0  0  0  0
  1  3  1  6  0  0  0
  2  4  1  0  0  0  0
  3 18  1  0  0  0  0
  4 10  1  0  0  0  0
  4  1  1  0  0  0  0
  5  2  1  0  0  0  0
  5 17  1  0  0  0  0
  6 20  1  0  0  0  0
  7 14  1  0  0  0  0
  7  2  1  0  0  0  0
  8  9  1  0  0  0  0
  9 16  1  0  0  0  0
  9 11  1  0  0  0  0
 10 12  1  0  0  0  0
 10 13  1  0  0  0  0
 11  5  1  0  0  0  0
 14 15  1  0  0  0  0
 15 25  1  0  0  0  0
 15  1  1  0  0  0  0
 16  7  1  0  0  0  0
 17 31  1  0  0  0  0
 17 12  1  0  0  0  0
 18 13  1  0  0  0  0
 19  6  1  0  0  0  0
 19  8  1  0  0  0  0
 20 16  1  0  0  0  0
 22 30  1  0  0  0  0
 23 29  1  0  0  0  0
 24 27  1  0  0  0  0
 24 30  1  0  0  0  0
 25 28  1  0  0  0  0
 26 28  1  0  0  0  0
 26 21  1  0  0  0  0
 27 25  1  0  0  0  0
 28 23  1  0  0  0  0
 28 29  1  0  0  0  0
 30 26  1  0  0  0  0
 31 32  1  0  0  0  0
M  END
>  <MODEL>
6

>  <REMARK>
 VINA RESULT:      -7.4      1.938      2.961
  Name = 
  2 active torsions:
  status: ('A' for Active; 'I' for Inactive)
    1  A    between atoms: C_13  and  C_29
    2  A    between atoms: C_16  and  C_27
                            x       y       z     vdW  Elec       q    Type
                         _______ _______ _______ _____ _____    ______ ____

>  <TORSDO>
F 2

$$$$
=
 OpenBabel11052419053D

 32 38  0  0  1  0  0  0  0  0999 V2000
  191.9430  172.4280  143.2620 C   0  0  2  0  0  3  0  0  0  0  0  0
  191.7760  174.5300  144.5920 C   0  0  2  0  0  3  0  0  0  0  0  0
  192.1190  170.9080  143.3070 C   0  0  0  0  0  2  0  0  0  0  0  0
  192.0820  173.0380  144.6620 C   0  0  2  0  0  3  0  0  0  0  0  0
  192.1130  175.1710  145.9270 C   0  0  2  0  0  3  0  0  0  0  0  0
  187.3970  176.7930  145.7340 C   0  0  0  0  0  2  0  0  0  0  0  0
  190.3340  174.8220  144.1230 C   0  0  1  0  0  3  0  0  0  0  0  0
  189.5840  177.5410  146.4450 O   0  0  0  0  0  0  0  0  0  0  0  0
  190.1910  176.2780  146.2850 C   0  0  2  0  0  3  0  0  0  0  0  0
  193.4410  172.7170  145.3410 C   0  0  2  0  0  3  0  0  0  0  0  0
  191.5570  176.4560  145.9890 O   0  0  0  0  0  0  0  0  0  0  0  0
  194.3470  173.9480  145.4900 C   0  0  0  0  0  2  0  0  0  0  0  0
  194.1960  171.5850  144.6370 C   0  0  0  0  0  2  0  0  0  0  0  0
  189.6730  173.5930  143.4690 C   0  0  0  0  0  2  0  0  0  0  0  0
  190.6380  172.8260  142.5380 C   0  0  1  0  0  3  0  0  0  0  0  0
  189.4360  175.3910  145.2330 C   0  0  1  0  0  3  0  0  0  0  0  0
  193.6390  175.1410  146.1710 C   0  0  1  0  0  3  0  0  0  0  0  0
  193.2360  170.4530  144.2630 C   0  0  0  0  0  2  0  0  0  0  0  0
  188.2720  177.3030  146.8880 C   0  0  0  0  0  2  0  0  0  0  0  0
  188.2380  176.1340  144.6370 C   0  0  0  0  0  2  0  0  0  0  0  0
  192.3350  172.5510  138.1010 C   0  0  0  0  0  1  0  0  0  0  0  0
  191.0570  170.0930  138.9160 O   0  0  0  0  0  1  0  0  0  0  0  0
  193.0660  174.4740  140.1720 C   0  0  0  0  0  2  0  0  0  0  0  0
  189.7240  171.9490  139.6850 C   0  0  0  0  0  2  0  0  0  0  0  0
  190.9130  173.6200  141.2390 C   0  0  2  0  0  3  0  0  0  0  0  0
  192.2810  172.0790  139.5540 C   0  0  1  0  0  3  0  0  0  0  0  0
  189.7880  173.3940  140.2160 C   0  0  0  0  0  2  0  0  0  0  0  0
  192.2430  173.2540  140.5500 C   0  0  0  0  0  0  0  0  0  0  0  0
  193.5450  173.5480  141.2710 C   0  0  0  0  0  2  0  0  0  0  0  0
  191.0560  171.1850  139.7850 C   0  0  2  0  0  3  0  0  0  0  0  0
  194.3510  176.4540  145.8330 C   0  0  0  0  0  2  0  0  0  0  0  0
  195.0150  176.4160  144.4640 C   0  0  0  0  0  1  0  0  0  0  0  0
  1  3  1  1  0  0  0
  1  4  1  0  0  0  0
  2  4  1  0  0  0  0
  2  5  1  0  0  0  0
  3 18  1  0  0  0  0
  4 10  1  0  0  0  0
  5 11  1  0  0  0  0
  5 17  1  0  0  0  0
  6 19  1  0  0  0  0
  7  2  1  0  0  0  0
  7 16  1  0  0  0  0
  8 19  1  0  0  0  0
  9  8  1  0  0  0  0
 10 12  1  0  0  0  0
 11  9  1  0  0  0  0
 12 17  1  0  0  0  0
 13 10  1  0  0  0  0
 14  7  1  0  0  0  0
 15  1  1  0  0  0  0
 15 14  1  0  0  0  0
 16  9  1  0  0  0  0
 18 13  1  0  0  0  0
 20 16  1  0  0  0  0
 20  6  1  0  0  0  0
 21 26  1  0  0  0  0
 22 30  1  0  0  0  0
 23 28  1  0  0  0  0
 23 29  1  0  0  0  0
 24 30  1  0  0  0  0
 24 27  1  0  0  0  0
 25 15  1  0  0  0  0
 26 30  1  0  0  0  0
 26 28  1  0  0  0  0
 27 25  1  0  0  0  0
 28 25  1  0  0  0  0
 28 29  1  0  0  0  0
 31 17  1  0  0  0  0
 32 31  1  0  0  0  0
M  END
>  <MODEL>
7

>  <REMARK>
 VINA RESULT:      -7.3      2.272      6.929
  Name = 
  2 active torsions:
  status: ('A' for Active; 'I' for Inactive)
    1  A    between atoms: C_13  and  C_29
    2  A    between atoms: C_16  and  C_27
                            x       y       z     vdW  Elec       q    Type
                         _______ _______ _______ _____ _____    ______ ____

>  <TORSDO>
F 2

$$$$
=
 OpenBabel11052419053D

 32 38  0  0  1  0  0  0  0  0999 V2000
  190.8560  176.5980  145.0640 C   0  0  2  0  0  3  0  0  0  0  0  0
  192.7740  175.2120  144.2830 C   0  0  2  0  0  3  0  0  0  0  0  0
  190.3230  177.5270  146.1580 C   0  0  0  0  0  2  0  0  0  0  0  0
  192.2240  176.0260  145.4490 C   0  0  2  0  0  3  0  0  0  0  0  0
  194.0250  174.4780  144.7340 C   0  0  2  0  0  3  0  0  0  0  0  0
  196.1230  176.7440  140.8130 C   0  0  0  0  0  2  0  0  0  0  0  0
  192.9910  176.0610  143.0120 C   0  0  1  0  0  3  0  0  0  0  0  0
  196.1910  174.6290  141.9830 O   0  0  0  0  0  0  0  0  0  0  0  0
  195.4090  175.0760  143.0670 C   0  0  2  0  0  3  0  0  0  0  0  0
  192.2110  175.2490  146.7930 C   0  0  2  0  0  3  0  0  0  0  0  0
  194.7110  173.9820  143.6170 O   0  0  0  0  0  0  0  0  0  0  0  0
  192.4210  173.7380  146.6200 C   0  0  0  0  0  2  0  0  0  0  0  0
  190.9460  175.5190  147.6140 C   0  0  0  0  0  2  0  0  0  0  0  0
  192.2540  177.4130  143.0800 C   0  0  0  0  0  2  0  0  0  0  0  0
  190.8370  177.2850  143.6800 C   0  0  1  0  0  3  0  0  0  0  0  0
  194.4740  176.2720  142.6660 C   0  0  1  0  0  3  0  0  0  0  0  0
  193.6700  173.3940  145.7770 C   0  0  1  0  0  3  0  0  0  0  0  0
  190.5930  177.0080  147.5810 C   0  0  0  0  0  2  0  0  0  0  0  0
  196.9760  175.7210  141.5760 C   0  0  0  0  0  2  0  0  0  0  0  0
  194.6420  176.6360  141.1890 C   0  0  0  0  0  2  0  0  0  0  0  0
  186.3290  175.9520  142.9390 C   0  0  0  0  0  1  0  0  0  0  0  0
  186.4880  178.4160  144.4370 O   0  0  0  0  0  1  0  0  0  0  0  0
  188.7290  174.3020  142.7460 C   0  0  0  0  0  2  0  0  0  0  0  0
  188.1310  178.4760  142.6750 C   0  0  0  0  0  2  0  0  0  0  0  0
  189.8720  176.5810  142.6950 C   0  0  2  0  0  3  0  0  0  0  0  0
  187.4980  176.2940  143.8630 C   0  0  1  0  0  3  0  0  0  0  0  0
  189.1080  177.6140  141.8520 C   0  0  0  0  0  2  0  0  0  0  0  0
  188.8250  175.6800  143.3800 C   0  0  0  0  0  0  0  0  0  0  0  0
  189.2990  174.4560  144.1410 C   0  0  0  0  0  2  0  0  0  0  0  0
  187.6630  177.8150  143.9830 C   0  0  2  0  0  3  0  0  0  0  0  0
  193.5550  171.9820  145.1950 C   0  0  0  0  0  2  0  0  0  0  0  0
  194.6570  171.0590  145.6960 C   0  0  0  0  0  1  0  0  0  0  0  0
  1  4  1  0  0  0  0
  1  3  1  1  0  0  0
  2  5  1  0  0  0  0
  2  4  1  0  0  0  0
  3 18  1  0  0  0  0
  4 10  1  0  0  0  0
  5 17  1  0  0  0  0
  6 20  1  0  0  0  0
  6 19  1  0  0  0  0
  7 14  1  0  0  0  0
  7  2  1  0  0  0  0
  8  9  1  0  0  0  0
  9 11  1  0  0  0  0
 10 13  1  0  0  0  0
 11  5  1  0  0  0  0
 12 10  1  0  0  0  0
 14 15  1  0  0  0  0
 15  1  1  0  0  0  0
 16  7  1  0  0  0  0
 16  9  1  0  0  0  0
 17 12  1  0  0  0  0
 18 13  1  0  0  0  0
 19  8  1  0  0  0  0
 20 16  1  0  0  0  0
 21 26  1  0  0  0  0
 23 28  1  0  0  0  0
 23 29  1  0  0  0  0
 24 30  1  0  0  0  0
 25 28  1  0  0  0  0
 25 15  1  0  0  0  0
 26 30  1  0  0  0  0
 27 24  1  0  0  0  0
 27 25  1  0  0  0  0
 28 26  1  0  0  0  0
 28 29  1  0  0  0  0
 30 22  1  0  0  0  0
 31 32  1  0  0  0  0
 31 17  1  0  0  0  0
M  END
>  <MODEL>
8

>  <REMARK>
 VINA RESULT:      -7.0      2.461      4.327
  Name = 
  2 active torsions:
  status: ('A' for Active; 'I' for Inactive)
    1  A    between atoms: C_13  and  C_29
    2  A    between atoms: C_16  and  C_27
                            x       y       z     vdW  Elec       q    Type
                         _______ _______ _______ _____ _____    ______ ____

>  <TORSDO>
F 2

$$$$
=
 OpenBabel11052419053D

 32 38  0  0  1  0  0  0  0  0999 V2000
  189.6440  176.9960  143.4190 C   0  0  2  0  0  3  0  0  0  0  0  0
  190.8950  174.9810  144.1850 C   0  0  2  0  0  3  0  0  0  0  0  0
  189.6950  178.2850  142.5950 C   0  0  0  0  0  2  0  0  0  0  0  0
  191.0180  176.3200  143.4650 C   0  0  2  0  0  3  0  0  0  0  0  0
  192.2830  174.4080  144.4140 C   0  0  2  0  0  3  0  0  0  0  0  0
  190.4430  170.4130  142.0550 C   0  0  0  0  0  2  0  0  0  0  0  0
  189.9430  174.0010  143.4630 C   0  0  1  0  0  3  0  0  0  0  0  0
  191.9280  170.9620  143.8820 O   0  0  0  0  0  0  0  0  0  0  0  0
  191.9550  172.3420  143.5930 C   0  0  2  0  0  3  0  0  0  0  0  0
  192.1340  177.2310  144.0440 C   0  0  2  0  0  3  0  0  0  0  0  0
  192.1840  173.0600  144.7840 O   0  0  0  0  0  0  0  0  0  0  0  0
  192.6470  176.7630  145.4140 C   0  0  0  0  0  2  0  0  0  0  0  0
  191.7140  178.7030  144.1090 C   0  0  0  0  0  2  0  0  0  0  0  0
  189.0510  174.7120  142.4280 C   0  0  0  0  0  2  0  0  0  0  0  0
  188.5080  176.0640  142.9410 C   0  0  1  0  0  3  0  0  0  0  0  0
  190.6700  172.8080  142.8220 C   0  0  1  0  0  3  0  0  0  0  0  0
  193.0650  175.2750  145.4270 C   0  0  1  0  0  3  0  0  0  0  0  0
  190.9750  179.1070  142.8300 C   0  0  0  0  0  2  0  0  0  0  0  0
  191.8530  170.2940  142.6490 C   0  0  0  0  0  2  0  0  0  0  0  0
  189.7050  171.6420  142.5950 C   0  0  0  0  0  2  0  0  0  0  0  0
  185.3040  178.2500  145.6970 C   0  0  0  0  0  1  0  0  0  0  0  0
  185.5900  179.5570  143.1380 O   0  0  0  0  0  1  0  0  0  0  0  0
  187.3850  176.3780  146.5260 C   0  0  0  0  0  2  0  0  0  0  0  0
  185.5940  177.1720  142.7910 C   0  0  0  0  0  2  0  0  0  0  0  0
  187.4280  175.8580  144.0290 C   0  0  2  0  0  3  0  0  0  0  0  0
  186.6040  178.2370  144.8930 C   0  0  1  0  0  3  0  0  0  0  0  0
  186.0250  175.8250  143.4020 C   0  0  0  0  0  2  0  0  0  0  0  0
  187.4190  176.9500  145.1180 C   0  0  0  0  0  0  0  0  0  0  0  0
  188.6270  177.0860  146.0260 C   0  0  0  0  0  2  0  0  0  0  0  0
  186.3120  178.3910  143.3950 C   0  0  2  0  0  3  0  0  0  0  0  0
  193.0570  174.7250  146.8560 C   0  0  0  0  0  2  0  0  0  0  0  0
  191.8980  175.2720  147.6780 C   0  0  0  0  0  1  0  0  0  0  0  0
  1  3  1  6  0  0  0
  1  4  1  0  0  0  0
  2  5  1  0  0  0  0
  3 18  1  0  0  0  0
  4 10  1  0  0  0  0
  4  2  1  0  0  0  0
  5 11  1  0  0  0  0
  5 17  1  0  0  0  0
  6 20  1  0  0  0  0
  6 19  1  0  0  0  0
  7  2  1  0  0  0  0
  9  8  1  0  0  0  0
  9 11  1  0  0  0  0
 10 13  1  0  0  0  0
 10 12  1  0  0  0  0
 12 17  1  0  0  0  0
 14 15  1  0  0  0  0
 14  7  1  0  0  0  0
 15  1  1  0  0  0  0
 15 25  1  0  0  0  0
 16  7  1  0  0  0  0
 16  9  1  0  0  0  0
 17 31  1  0  0  0  0
 18 13  1  0  0  0  0
 19  8  1  0  0  0  0
 20 16  1  0  0  0  0
 22 30  1  0  0  0  0
 24 30  1  0  0  0  0
 24 27  1  0  0  0  0
 25 28  1  0  0  0  0
 26 28  1  0  0  0  0
 26 21  1  0  0  0  0
 27 25  1  0  0  0  0
 28 29  1  0  0  0  0
 28 23  1  0  0  0  0
 29 23  1  0  0  0  0
 30 26  1  0  0  0  0
 31 32  1  0  0  0  0
M  END
>  <MODEL>
9

>  <REMARK>
 VINA RESULT:      -7.0      1.661      2.228
  Name = 
  2 active torsions:
  status: ('A' for Active; 'I' for Inactive)
    1  A    between atoms: C_13  and  C_29
    2  A    between atoms: C_16  and  C_27
                            x       y       z     vdW  Elec       q    Type
                         _______ _______ _______ _____ _____    ______ ____

>  <TORSDO>
F 2

$$$$
