=
 OpenBabel11052417363D

 25 28  0  0  1  0  0  0  0  0999 V2000
  187.1220  176.9110  143.3230 C   0  0  0  0  0  0  0  0  0  0  0  0
  187.9150  175.8130  142.9580 C   0  0  0  0  0  0  0  0  0  0  0  0
  186.7110  177.4180  141.0270 N   0  0  0  0  0  0  0  0  0  0  0  0
  186.8130  177.3840  144.6090 C   0  0  0  0  0  0  0  0  0  0  0  0
  189.5900  174.0320  143.7660 C   0  0  2  0  0  3  0  0  0  0  0  0
  185.9860  178.6150  146.9780 C   0  0  0  0  0  3  0  0  0  0  0  0
  187.4490  176.3680  140.6590 N   0  0  0  0  0  0  0  0  0  0  0  0
  185.9980  178.5160  144.5820 C   0  0  0  0  0  0  0  0  0  0  0  0
  185.5730  179.1480  145.7490 C   0  0  0  0  0  3  0  0  0  0  0  0
  188.8470  174.3520  141.0690 C   0  0  2  0  0  3  0  0  0  0  0  0
  188.7710  174.1820  139.5590 C   0  0  0  0  0  1  0  0  0  0  0  0
  188.5290  175.0080  143.9790 N   0  0  0  0  0  2  0  0  0  0  0  0
  186.8090  177.4740  147.0210 C   0  0  0  0  0  3  0  0  0  0  0  0
  186.5410  177.6890  142.3390 C   0  0  0  0  0  0  0  0  0  0  0  0
  185.6450  178.9580  142.9930 S   0  0  0  0  0  0  0  0  0  0  0  0
  188.3450  173.0800  141.7370 C   0  0  0  0  0  2  0  0  0  0  0  0
  187.2270  176.8510  145.8340 C   0  0  0  0  0  3  0  0  0  0  0  0
  189.0860  172.7820  143.0390 C   0  0  0  0  0  2  0  0  0  0  0  0
  188.0580  175.5410  141.5670 C   0  0  0  0  0  0  0  0  0  0  0  0
  190.2670  173.6730  145.0890 C   0  0  0  0  0  2  0  0  0  0  0  0
  190.0790  175.2020  147.0870 C   0  0  0  0  0  0  0  0  0  0  0  0
  190.4760  176.3140  147.7530 F   0  0  0  0  0  0  0  0  0  0  0  0
  189.1840  174.4710  147.5880 O   0  0  0  0  0  0  0  0  0  0  0  0
  191.8410  175.6020  145.3690 C   0  0  0  0  0  1  0  0  0  0  0  0
  190.6810  174.8590  145.8320 N   0  0  0  0  0  0  0  0  0  0  0  0
  1  4  1  0  0  0  0
  2  1  1  0  0  0  0
  2 12  1  0  0  0  0
  3 14  1  0  0  0  0
  4 17  1  0  0  0  0
  5 12  1  0  0  0  0
  5 20  1  1  0  0  0
  6 13  1  0  0  0  0
  7  3  2  0  0  0  0
  7 19  1  0  0  0  0
  8  4  2  0  0  0  0
  8  9  1  0  0  0  0
  9  6  2  0  0  0  0
 10 11  1  6  0  0  0
 10 19  1  0  0  0  0
 10 16  1  0  0  0  0
 14 15  1  0  0  0  0
 14  1  2  0  0  0  0
 15  8  1  0  0  0  0
 16 18  1  0  0  0  0
 17 13  2  0  0  0  0
 18  5  1  0  0  0  0
 19  2  2  0  0  0  0
 20 25  1  0  0  0  0
 21 23  2  0  0  0  0
 21 22  1  0  0  0  0
 24 25  1  0  0  0  0
 25 21  1  0  0  0  0
M  END
>  <MODEL>
1

>  <REMARK>
 VINA RESULT:      -7.8      0.000      0.000
  Name = 
  2 active torsions:
  status: ('A' for Active; 'I' for Inactive)
    1  A    between atoms: C_6  and  C_15
    2  A    between atoms: C_15  and  N_25
                            x       y       z     vdW  Elec       q    Type
                         _______ _______ _______ _____ _____    ______ ____

>  <TORSDO>
F 2

$$$$
=
 OpenBabel11052417363D

 25 28  0  0  1  0  0  0  0  0999 V2000
  186.8000  176.6710  143.8390 C   0  0  0  0  0  0  0  0  0  0  0  0
  187.9240  175.8360  143.7580 C   0  0  0  0  0  0  0  0  0  0  0  0
  186.6400  176.7410  141.4580 N   0  0  0  0  0  0  0  0  0  0  0  0
  186.1610  177.1790  144.9830 C   0  0  0  0  0  0  0  0  0  0  0  0
  189.8850  174.7720  145.0440 C   0  0  2  0  0  3  0  0  0  0  0  0
  184.6400  178.3740  147.0000 C   0  0  0  0  0  3  0  0  0  0  0  0
  187.6990  175.9340  141.3600 N   0  0  0  0  0  0  0  0  0  0  0  0
  185.0700  177.9910  144.6720 C   0  0  0  0  0  0  0  0  0  0  0  0
  184.2970  178.5980  145.6590 C   0  0  0  0  0  3  0  0  0  0  0  0
  189.5320  174.5140  142.2620 C   0  0  2  0  0  3  0  0  0  0  0  0
  189.7570  174.1460  140.8030 C   0  0  0  0  0  1  0  0  0  0  0  0
  188.5680  175.3920  144.9640 N   0  0  0  0  0  2  0  0  0  0  0  0
  185.7370  177.5570  147.3280 C   0  0  0  0  0  3  0  0  0  0  0  0
  186.1870  177.1050  142.6770 C   0  0  0  0  0  0  0  0  0  0  0  0
  184.8700  178.1040  143.0000 S   0  0  0  0  0  0  0  0  0  0  0  0
  189.3160  173.2410  143.0670 C   0  0  0  0  0  2  0  0  0  0  0  0
  186.5050  176.9540  146.3190 C   0  0  0  0  0  3  0  0  0  0  0  0
  189.8890  173.3490  144.4800 C   0  0  0  0  0  2  0  0  0  0  0  0
  188.3640  175.4530  142.4590 C   0  0  0  0  0  0  0  0  0  0  0  0
  190.4110  174.8050  146.4790 C   0  0  0  0  0  2  0  0  0  0  0  0
  192.0370  176.5110  147.3790 C   0  0  0  0  0  0  0  0  0  0  0  0
  193.2920  177.0220  147.4280 F   0  0  0  0  0  0  0  0  0  0  0  0
  191.1290  177.0440  148.0700 O   0  0  0  0  0  0  0  0  0  0  0  0
  192.8500  174.6550  145.9260 C   0  0  0  0  0  1  0  0  0  0  0  0
  191.7550  175.3710  146.5570 N   0  0  0  0  0  0  0  0  0  0  0  0
  1  4  1  0  0  0  0
  2  1  1  0  0  0  0
  2 12  1  0  0  0  0
  3 14  1  0  0  0  0
  4 17  1  0  0  0  0
  5 20  1  1  0  0  0
  6 13  1  0  0  0  0
  7  3  2  0  0  0  0
  7 19  1  0  0  0  0
  8  4  2  0  0  0  0
  8  9  1  0  0  0  0
  9  6  2  0  0  0  0
 10 11  1  6  0  0  0
 10 19  1  0  0  0  0
 10 16  1  0  0  0  0
 12  5  1  0  0  0  0
 14 15  1  0  0  0  0
 14  1  2  0  0  0  0
 15  8  1  0  0  0  0
 16 18  1  0  0  0  0
 17 13  2  0  0  0  0
 18  5  1  0  0  0  0
 19  2  2  0  0  0  0
 20 25  1  0  0  0  0
 21 22  1  0  0  0  0
 21 23  2  0  0  0  0
 24 25  1  0  0  0  0
 25 21  1  0  0  0  0
M  END
>  <MODEL>
2

>  <REMARK>
 VINA RESULT:      -7.7      1.380      1.532
  Name = 
  2 active torsions:
  status: ('A' for Active; 'I' for Inactive)
    1  A    between atoms: C_6  and  C_15
    2  A    between atoms: C_15  and  N_25
                            x       y       z     vdW  Elec       q    Type
                         _______ _______ _______ _____ _____    ______ ____

>  <TORSDO>
F 2

$$$$
=
 OpenBabel11052417363D

 25 28  0  0  1  0  0  0  0  0999 V2000
  186.8820  176.6350  143.8510 C   0  0  0  0  0  0  0  0  0  0  0  0
  188.0160  175.8120  143.9020 C   0  0  0  0  0  0  0  0  0  0  0  0
  186.9520  176.6420  141.4650 N   0  0  0  0  0  0  0  0  0  0  0  0
  186.1310  177.1660  144.9140 C   0  0  0  0  0  0  0  0  0  0  0  0
  189.8540  174.8060  145.3980 C   0  0  2  0  0  3  0  0  0  0  0  0
  184.4110  178.3940  146.7420 C   0  0  0  0  0  3  0  0  0  0  0  0
  188.0230  175.8450  141.4920 N   0  0  0  0  0  0  0  0  0  0  0  0
  185.0680  177.9570  144.4780 C   0  0  0  0  0  0  0  0  0  0  0  0
  184.1970  178.5800  145.3690 C   0  0  0  0  0  3  0  0  0  0  0  0
  189.7740  174.4710  142.6030 C   0  0  2  0  0  3  0  0  0  0  0  0
  190.1410  174.0680  141.1830 C   0  0  0  0  0  1  0  0  0  0  0  0
  188.5450  175.4070  145.1760 N   0  0  0  0  0  2  0  0  0  0  0  0
  185.4790  177.6000  147.1970 C   0  0  0  0  0  3  0  0  0  0  0  0
  186.3800  177.0320  142.6240 C   0  0  0  0  0  0  0  0  0  0  0  0
  185.0280  178.0230  142.7920 S   0  0  0  0  0  0  0  0  0  0  0  0
  189.4930  173.2170  143.4180 C   0  0  0  0  0  2  0  0  0  0  0  0
  186.3460  176.9800  146.2830 C   0  0  0  0  0  3  0  0  0  0  0  0
  189.9250  173.3690  144.8760 C   0  0  0  0  0  2  0  0  0  0  0  0
  188.5830  175.4010  142.6610 C   0  0  0  0  0  0  0  0  0  0  0  0
  190.2390  174.8830  146.8760 C   0  0  0  0  0  2  0  0  0  0  0  0
  192.5390  175.9160  146.9160 C   0  0  0  0  0  0  0  0  0  0  0  0
  193.3460  176.9710  147.1900 F   0  0  0  0  0  0  0  0  0  0  0  0
  193.0440  174.8630  146.4430 O   0  0  0  0  0  0  0  0  0  0  0  0
  190.5430  177.2870  147.5090 C   0  0  0  0  0  1  0  0  0  0  0  0
  191.1280  176.0060  147.1530 N   0  0  0  0  0  0  0  0  0  0  0  0
  1  2  1  0  0  0  0
  1  4  1  0  0  0  0
  2 12  1  0  0  0  0
  3  7  2  0  0  0  0
  3 14  1  0  0  0  0
  4 17  1  0  0  0  0
  5 20  1  1  0  0  0
  6 13  1  0  0  0  0
  7 19  1  0  0  0  0
  8  4  2  0  0  0  0
  8  9  1  0  0  0  0
  9  6  2  0  0  0  0
 10 11  1  6  0  0  0
 10 19  1  0  0  0  0
 10 16  1  0  0  0  0
 12  5  1  0  0  0  0
 14 15  1  0  0  0  0
 14  1  2  0  0  0  0
 15  8  1  0  0  0  0
 16 18  1  0  0  0  0
 17 13  2  0  0  0  0
 18  5  1  0  0  0  0
 19  2  2  0  0  0  0
 20 25  1  0  0  0  0
 21 25  1  0  0  0  0
 21 22  1  0  0  0  0
 23 21  2  0  0  0  0
 25 24  1  0  0  0  0
M  END
>  <MODEL>
3

>  <REMARK>
 VINA RESULT:      -7.7      1.538      1.861
  Name = 
  2 active torsions:
  status: ('A' for Active; 'I' for Inactive)
    1  A    between atoms: C_6  and  C_15
    2  A    between atoms: C_15  and  N_25
                            x       y       z     vdW  Elec       q    Type
                         _______ _______ _______ _____ _____    ______ ____

>  <TORSDO>
F 2

$$$$
=
 OpenBabel11052417363D

 25 28  0  0  1  0  0  0  0  0999 V2000
  186.6100  176.8470  143.8790 C   0  0  0  0  0  0  0  0  0  0  0  0
  187.6620  175.9850  143.5380 C   0  0  0  0  0  0  0  0  0  0  0  0
  186.0800  177.1650  141.5730 N   0  0  0  0  0  0  0  0  0  0  0  0
  186.1870  177.2580  145.1540 C   0  0  0  0  0  0  0  0  0  0  0  0
  189.7440  174.7260  144.3810 C   0  0  2  0  0  3  0  0  0  0  0  0
  185.0660  178.2950  147.4950 C   0  0  0  0  0  3  0  0  0  0  0  0
  187.0670  176.3350  141.2280 N   0  0  0  0  0  0  0  0  0  0  0  0
  185.1040  178.1370  145.1020 C   0  0  0  0  0  0  0  0  0  0  0  0
  184.5280  178.6670  146.2550 C   0  0  0  0  0  3  0  0  0  0  0  0
  188.9430  174.7660  141.6810 C   0  0  2  0  0  3  0  0  0  0  0  0
  188.9150  174.5410  140.1770 C   0  0  0  0  0  1  0  0  0  0  0  0
  188.4650  175.3970  144.5750 N   0  0  0  0  0  2  0  0  0  0  0  0
  186.1580  177.4100  147.5620 C   0  0  0  0  0  3  0  0  0  0  0  0
  185.8450  177.4190  142.8780 C   0  0  0  0  0  0  0  0  0  0  0  0
  184.6480  178.4260  143.5040 S   0  0  0  0  0  0  0  0  0  0  0  0
  188.7910  173.4260  142.3870 C   0  0  0  0  0  2  0  0  0  0  0  0
  186.7250  176.8860  146.3890 C   0  0  0  0  0  3  0  0  0  0  0  0
  189.5850  173.3690  143.6910 C   0  0  0  0  0  2  0  0  0  0  0  0
  187.8710  175.7210  142.1530 C   0  0  0  0  0  0  0  0  0  0  0  0
  190.4910  174.5940  145.7080 C   0  0  0  0  0  2  0  0  0  0  0  0
  192.5520  176.0190  145.4150 C   0  0  0  0  0  0  0  0  0  0  0  0
  193.2620  177.1310  145.7270 F   0  0  0  0  0  0  0  0  0  0  0  0
  193.0260  175.1990  144.5840 O   0  0  0  0  0  0  0  0  0  0  0  0
  190.6590  176.8330  146.8180 C   0  0  0  0  0  1  0  0  0  0  0  0
  191.2720  175.7870  146.0190 N   0  0  0  0  0  0  0  0  0  0  0  0
  1  4  1  0  0  0  0
  2  1  1  0  0  0  0
  2 12  1  0  0  0  0
  3 14  1  0  0  0  0
  4 17  1  0  0  0  0
  5 12  1  0  0  0  0
  5 20  1  1  0  0  0
  6 13  1  0  0  0  0
  7  3  2  0  0  0  0
  7 19  1  0  0  0  0
  8  4  2  0  0  0  0
  8  9  1  0  0  0  0
  9  6  2  0  0  0  0
 10 11  1  6  0  0  0
 10 19  1  0  0  0  0
 10 16  1  0  0  0  0
 14 15  1  0  0  0  0
 14  1  2  0  0  0  0
 15  8  1  0  0  0  0
 16 18  1  0  0  0  0
 17 13  2  0  0  0  0
 18  5  1  0  0  0  0
 19  2  2  0  0  0  0
 20 25  1  0  0  0  0
 21 22  1  0  0  0  0
 21 25  1  0  0  0  0
 23 21  2  0  0  0  0
 25 24  1  0  0  0  0
M  END
>  <MODEL>
4

>  <REMARK>
 VINA RESULT:      -7.3      1.521      1.664
  Name = 
  2 active torsions:
  status: ('A' for Active; 'I' for Inactive)
    1  A    between atoms: C_6  and  C_15
    2  A    between atoms: C_15  and  N_25
                            x       y       z     vdW  Elec       q    Type
                         _______ _______ _______ _____ _____    ______ ____

>  <TORSDO>
F 2

$$$$
=
 OpenBabel11052417363D

 25 28  0  0  1  0  0  0  0  0999 V2000
  187.6550  176.2870  142.5860 C   0  0  0  0  0  0  0  0  0  0  0  0
  188.5240  175.2470  142.9480 C   0  0  0  0  0  0  0  0  0  0  0  0
  187.8020  175.6520  140.2890 N   0  0  0  0  0  0  0  0  0  0  0  0
  187.0410  177.2470  143.4070 C   0  0  0  0  0  0  0  0  0  0  0  0
  189.9740  174.2370  144.8220 C   0  0  2  0  0  3  0  0  0  0  0  0
  185.6560  179.3030  144.6980 C   0  0  0  0  0  3  0  0  0  0  0  0
  188.6180  174.6470  140.6160 N   0  0  0  0  0  0  0  0  0  0  0  0
  186.2440  178.1380  142.6860 C   0  0  0  0  0  0  0  0  0  0  0  0
  185.5450  179.1710  143.3070 C   0  0  0  0  0  3  0  0  0  0  0  0
  189.8970  173.2160  142.1980 C   0  0  2  0  0  3  0  0  0  0  0  0
  190.1880  172.3770  140.9630 C   0  0  0  0  0  1  0  0  0  0  0  0
  188.8820  175.0690  144.3290 N   0  0  0  0  0  2  0  0  0  0  0  0
  186.4560  178.4120  145.4370 C   0  0  0  0  0  3  0  0  0  0  0  0
  187.3190  176.4620  141.2550 C   0  0  0  0  0  0  0  0  0  0  0  0
  186.2790  177.7700  141.0400 S   0  0  0  0  0  0  0  0  0  0  0  0
  189.2620  172.3310  143.2610 C   0  0  0  0  0  2  0  0  0  0  0  0
  187.1540  177.3770  144.7940 C   0  0  0  0  0  3  0  0  0  0  0  0
  189.6720  172.7430  144.6740 C   0  0  0  0  0  2  0  0  0  0  0  0
  188.9990  174.3970  141.9080 C   0  0  0  0  0  0  0  0  0  0  0  0
  190.3160  174.5970  146.2670 C   0  0  0  0  0  2  0  0  0  0  0  0
  191.8980  176.3210  147.2100 C   0  0  0  0  0  0  0  0  0  0  0  0
  193.1470  176.8430  147.2960 F   0  0  0  0  0  0  0  0  0  0  0  0
  190.9640  176.8500  147.8670 O   0  0  0  0  0  0  0  0  0  0  0  0
  192.7730  174.4630  145.7950 C   0  0  0  0  0  1  0  0  0  0  0  0
  191.6520  175.1740  146.3860 N   0  0  0  0  0  0  0  0  0  0  0  0
  1  2  1  0  0  0  0
  1  4  1  0  0  0  0
  2 12  1  0  0  0  0
  3  7  2  0  0  0  0
  3 14  1  0  0  0  0
  4 17  1  0  0  0  0
  5 20  1  1  0  0  0
  6 13  1  0  0  0  0
  7 19  1  0  0  0  0
  8  9  1  0  0  0  0
  8  4  2  0  0  0  0
  9  6  2  0  0  0  0
 10 11  1  6  0  0  0
 10 16  1  0  0  0  0
 12  5  1  0  0  0  0
 14  1  2  0  0  0  0
 15 14  1  0  0  0  0
 15  8  1  0  0  0  0
 16 18  1  0  0  0  0
 17 13  2  0  0  0  0
 18  5  1  0  0  0  0
 19 10  1  0  0  0  0
 19  2  2  0  0  0  0
 20 25  1  0  0  0  0
 21 22  1  0  0  0  0
 21 23  2  0  0  0  0
 24 25  1  0  0  0  0
 25 21  1  0  0  0  0
M  END
>  <MODEL>
5

>  <REMARK>
 VINA RESULT:      -7.2      1.489      1.903
  Name = 
  2 active torsions:
  status: ('A' for Active; 'I' for Inactive)
    1  A    between atoms: C_6  and  C_15
    2  A    between atoms: C_15  and  N_25
                            x       y       z     vdW  Elec       q    Type
                         _______ _______ _______ _____ _____    ______ ____

>  <TORSDO>
F 2

$$$$
=
 OpenBabel11052417363D

 25 28  0  0  1  0  0  0  0  0999 V2000
  187.0150  176.9100  144.4810 C   0  0  0  0  0  0  0  0  0  0  0  0
  188.2710  176.2980  144.6100 C   0  0  0  0  0  0  0  0  0  0  0  0
  186.7440  176.9290  146.8530 N   0  0  0  0  0  0  0  0  0  0  0  0
  186.3340  177.2840  143.3100 C   0  0  0  0  0  0  0  0  0  0  0  0
  190.1940  175.1020  143.3850 C   0  0  2  0  0  3  0  0  0  0  0  0
  184.6860  178.1550  141.2280 C   0  0  0  0  0  3  0  0  0  0  0  0
  187.9440  176.3610  146.9970 N   0  0  0  0  0  0  0  0  0  0  0  0
  185.0920  177.8630  143.5730 C   0  0  0  0  0  0  0  0  0  0  0  0
  184.2530  178.3040  142.5530 C   0  0  0  0  0  3  0  0  0  0  0  0
  190.1000  175.4290  146.1810 C   0  0  2  0  0  3  0  0  0  0  0  0
  190.4480  175.3450  147.6600 C   0  0  0  0  0  1  0  0  0  0  0  0
  189.0310  175.9790  143.4320 N   0  0  0  0  0  2  0  0  0  0  0  0
  185.9360  177.5730  140.9480 C   0  0  0  0  0  3  0  0  0  0  0  0
  186.2820  177.2080  145.6150 C   0  0  0  0  0  0  0  0  0  0  0  0
  184.8050  177.9250  145.2350 S   0  0  0  0  0  0  0  0  0  0  0  0
  191.1710  176.2400  145.4650 C   0  0  0  0  0  2  0  0  0  0  0  0
  186.7680  177.1340  141.9900 C   0  0  0  0  0  3  0  0  0  0  0  0
  191.4210  175.7360  144.0450 C   0  0  0  0  0  2  0  0  0  0  0  0
  188.7400  176.0360  145.9300 C   0  0  0  0  0  0  0  0  0  0  0  0
  190.4900  174.6750  141.9480 C   0  0  0  0  0  2  0  0  0  0  0  0
  188.5840  173.5940  140.6990 C   0  0  0  0  0  0  0  0  0  0  0  0
  187.8870  172.4810  140.3590 F   0  0  0  0  0  0  0  0  0  0  0  0
  188.2210  174.7100  140.2430 O   0  0  0  0  0  0  0  0  0  0  0  0
  190.2440  172.1820  141.9120 C   0  0  0  0  0  1  0  0  0  0  0  0
  189.7270  173.4940  141.5590 N   0  0  0  0  0  0  0  0  0  0  0  0
  1  2  2  0  0  0  0
  1 14  1  0  0  0  0
  2 19  1  0  0  0  0
  3  7  1  0  0  0  0
  4  8  1  0  0  0  0
  4  1  1  0  0  0  0
  5 20  1  6  0  0  0
  5 12  1  0  0  0  0
  5 18  1  0  0  0  0
  6  9  1  0  0  0  0
  8 15  1  0  0  0  0
  9  8  2  0  0  0  0
 10 11  1  1  0  0  0
 12  2  1  0  0  0  0
 13  6  2  0  0  0  0
 13 17  1  0  0  0  0
 14  3  2  0  0  0  0
 15 14  1  0  0  0  0
 16 10  1  0  0  0  0
 17  4  2  0  0  0  0
 18 16  1  0  0  0  0
 19 10  1  0  0  0  0
 19  7  2  0  0  0  0
 21 25  1  0  0  0  0
 22 21  1  0  0  0  0
 23 21  2  0  0  0  0
 25 24  1  0  0  0  0
 25 20  1  0  0  0  0
M  END
>  <MODEL>
6

>  <REMARK>
 VINA RESULT:      -7.2      2.911      4.919
  Name = 
  2 active torsions:
  status: ('A' for Active; 'I' for Inactive)
    1  A    between atoms: C_6  and  C_15
    2  A    between atoms: C_15  and  N_25
                            x       y       z     vdW  Elec       q    Type
                         _______ _______ _______ _____ _____    ______ ____

>  <TORSDO>
F 2

$$$$
=
 OpenBabel11052417363D

 25 28  0  0  1  0  0  0  0  0999 V2000
  186.0280  177.7360  143.8220 C   0  0  0  0  0  0  0  0  0  0  0  0
  186.8990  177.1710  142.8780 C   0  0  0  0  0  0  0  0  0  0  0  0
  184.6410  178.5920  142.0770 N   0  0  0  0  0  0  0  0  0  0  0  0
  186.1140  177.7120  145.2240 C   0  0  0  0  0  0  0  0  0  0  0  0
  189.1900  176.0610  142.4880 C   0  0  2  0  0  3  0  0  0  0  0  0
  185.9450  177.8820  148.0080 C   0  0  0  0  0  3  0  0  0  0  0  0
  185.4490  178.0490  141.1640 N   0  0  0  0  0  0  0  0  0  0  0  0
  185.0640  178.3950  145.8370 C   0  0  0  0  0  0  0  0  0  0  0  0
  184.9580  178.4940  147.2230 C   0  0  0  0  0  3  0  0  0  0  0  0
  187.4100  176.7200  140.4070 C   0  0  2  0  0  3  0  0  0  0  0  0
  186.8140  176.9150  139.0210 C   0  0  0  0  0  1  0  0  0  0  0  0
  188.0600  176.4500  143.3240 N   0  0  0  0  0  2  0  0  0  0  0  0
  187.0100  177.1900  147.4030 C   0  0  0  0  0  3  0  0  0  0  0  0
  184.9170  178.4380  143.3900 C   0  0  0  0  0  0  0  0  0  0  0  0
  184.0180  179.0400  144.6810 S   0  0  0  0  0  0  0  0  0  0  0  0
  187.5900  175.2300  140.6640 C   0  0  0  0  0  2  0  0  0  0  0  0
  187.1000  177.1010  146.0050 C   0  0  0  0  0  3  0  0  0  0  0  0
  188.8260  174.9380  141.5140 C   0  0  0  0  0  2  0  0  0  0  0  0
  186.5680  177.3340  141.5020 C   0  0  0  0  0  0  0  0  0  0  0  0
  190.3940  175.6840  143.3510 C   0  0  0  0  0  2  0  0  0  0  0  0
  190.5720  176.2510  145.8020 C   0  0  0  0  0  0  0  0  0  0  0  0
  190.7780  177.1660  146.7820 F   0  0  0  0  0  0  0  0  0  0  0  0
  190.3480  175.0520  146.1170 O   0  0  0  0  0  0  0  0  0  0  0  0
  191.0730  177.9830  144.0800 C   0  0  0  0  0  1  0  0  0  0  0  0
  190.6210  176.6460  144.4250 N   0  0  0  0  0  0  0  0  0  0  0  0
  1  4  1  0  0  0  0
  2 12  1  0  0  0  0
  2  1  1  0  0  0  0
  3 14  1  0  0  0  0
  4  8  2  0  0  0  0
  4 17  1  0  0  0  0
  5 12  1  0  0  0  0
  5 20  1  1  0  0  0
  7 19  1  0  0  0  0
  7  3  2  0  0  0  0
  8  9  1  0  0  0  0
  9  6  2  0  0  0  0
 10 11  1  6  0  0  0
 10 16  1  0  0  0  0
 10 19  1  0  0  0  0
 13  6  1  0  0  0  0
 14  1  2  0  0  0  0
 14 15  1  0  0  0  0
 15  8  1  0  0  0  0
 16 18  1  0  0  0  0
 17 13  2  0  0  0  0
 18  5  1  0  0  0  0
 19  2  2  0  0  0  0
 20 25  1  0  0  0  0
 21 23  2  0  0  0  0
 21 22  1  0  0  0  0
 24 25  1  0  0  0  0
 25 21  1  0  0  0  0
M  END
>  <MODEL>
7

>  <REMARK>
 VINA RESULT:      -7.1      1.649      2.126
  Name = 
  2 active torsions:
  status: ('A' for Active; 'I' for Inactive)
    1  A    between atoms: C_6  and  C_15
    2  A    between atoms: C_15  and  N_25
                            x       y       z     vdW  Elec       q    Type
                         _______ _______ _______ _____ _____    ______ ____

>  <TORSDO>
F 2

$$$$
=
 OpenBabel11052417363D

 25 28  0  0  1  0  0  0  0  0999 V2000
  189.9860  175.8570  145.8220 C   0  0  0  0  0  0  0  0  0  0  0  0
  188.7220  176.4640  145.8430 C   0  0  0  0  0  0  0  0  0  0  0  0
  190.6830  177.1670  147.6920 N   0  0  0  0  0  0  0  0  0  0  0  0
  190.4760  174.8740  144.9450 C   0  0  0  0  0  0  0  0  0  0  0  0
  186.5030  176.8110  144.5830 C   0  0  2  0  0  3  0  0  0  0  0  0
  191.7950  172.9470  143.4110 C   0  0  0  0  0  3  0  0  0  0  0  0
  189.4810  177.7460  147.7380 N   0  0  0  0  0  0  0  0  0  0  0  0
  191.7950  174.5150  145.2250 C   0  0  0  0  0  0  0  0  0  0  0  0
  192.4740  173.5570  144.4740 C   0  0  0  0  0  3  0  0  0  0  0  0
  187.1330  178.1080  147.0030 C   0  0  2  0  0  3  0  0  0  0  0  0
  187.0530  179.0160  148.2210 C   0  0  0  0  0  1  0  0  0  0  0  0
  187.7340  176.0850  144.8700 N   0  0  0  0  0  2  0  0  0  0  0  0
  190.4660  173.3000  143.1160 C   0  0  0  0  0  3  0  0  0  0  0  0
  190.9390  176.2300  146.7530 C   0  0  0  0  0  0  0  0  0  0  0  0
  192.3830  175.3900  146.5420 S   0  0  0  0  0  0  0  0  0  0  0  0
  186.0330  177.0600  147.0920 C   0  0  0  0  0  2  0  0  0  0  0  0
  189.7980  174.2670  143.8840 C   0  0  0  0  0  3  0  0  0  0  0  0
  185.4820  176.6850  145.7170 C   0  0  0  0  0  2  0  0  0  0  0  0
  188.4780  177.4330  146.8590 C   0  0  0  0  0  0  0  0  0  0  0  0
  185.9120  176.3630  143.2470 C   0  0  0  0  0  2  0  0  0  0  0  0
  187.1820  177.0490  141.1780 C   0  0  0  0  0  0  0  0  0  0  0  0
  187.4270  177.9560  140.2000 F   0  0  0  0  0  0  0  0  0  0  0  0
  187.8270  175.9680  141.1900 O   0  0  0  0  0  0  0  0  0  0  0  0
  185.3230  178.4740  142.0330 C   0  0  0  0  0  1  0  0  0  0  0  0
  186.1900  177.3170  142.1780 N   0  0  0  0  0  0  0  0  0  0  0  0
  1  2  2  0  0  0  0
  1 14  1  0  0  0  0
  2 19  1  0  0  0  0
  3  7  1  0  0  0  0
  4  8  1  0  0  0  0
  4  1  1  0  0  0  0
  5 20  1  6  0  0  0
  5 12  1  0  0  0  0
  5 18  1  0  0  0  0
  6  9  1  0  0  0  0
  8 15  1  0  0  0  0
  9  8  2  0  0  0  0
 10 16  1  0  0  0  0
 10 11  1  1  0  0  0
 12  2  1  0  0  0  0
 13  6  2  0  0  0  0
 13 17  1  0  0  0  0
 14  3  2  0  0  0  0
 15 14  1  0  0  0  0
 17  4  2  0  0  0  0
 18 16  1  0  0  0  0
 19 10  1  0  0  0  0
 19  7  2  0  0  0  0
 21 23  2  0  0  0  0
 21 25  1  0  0  0  0
 22 21  1  0  0  0  0
 24 25  1  0  0  0  0
 25 20  1  0  0  0  0
M  END
>  <MODEL>
8

>  <REMARK>
 VINA RESULT:      -6.9      3.235      6.717
  Name = 
  2 active torsions:
  status: ('A' for Active; 'I' for Inactive)
    1  A    between atoms: C_6  and  C_15
    2  A    between atoms: C_15  and  N_25
                            x       y       z     vdW  Elec       q    Type
                         _______ _______ _______ _____ _____    ______ ____

>  <TORSDO>
F 2

$$$$
=
 OpenBabel11052417363D

 25 28  0  0  1  0  0  0  0  0999 V2000
  188.3560  177.0330  143.7760 C   0  0  0  0  0  0  0  0  0  0  0  0
  187.0080  177.4200  143.7960 C   0  0  0  0  0  0  0  0  0  0  0  0
  188.2670  176.7280  141.4100 N   0  0  0  0  0  0  0  0  0  0  0  0
  189.2550  176.9180  144.8500 C   0  0  0  0  0  0  0  0  0  0  0  0
  184.9520  177.9040  145.2690 C   0  0  2  0  0  3  0  0  0  0  0  0
  191.3130  176.5700  146.7080 C   0  0  0  0  0  3  0  0  0  0  0  0
  186.9870  177.1080  141.4060 N   0  0  0  0  0  0  0  0  0  0  0  0
  190.5210  176.4930  144.4460 C   0  0  0  0  0  0  0  0  0  0  0  0
  191.5630  176.3120  145.3530 C   0  0  0  0  0  3  0  0  0  0  0  0
  184.8820  177.9200  142.4530 C   0  0  2  0  0  3  0  0  0  0  0  0
  184.3830  178.0070  141.0190 C   0  0  0  0  0  1  0  0  0  0  0  0
  186.3860  177.7640  145.0460 N   0  0  0  0  0  2  0  0  0  0  0  0
  190.0410  176.9990  147.1300 C   0  0  0  0  0  3  0  0  0  0  0  0
  188.9510  176.6930  142.5740 C   0  0  0  0  0  0  0  0  0  0  0  0
  190.5630  176.2490  142.7770 S   0  0  0  0  0  0  0  0  0  0  0  0
  184.7220  179.2800  143.1180 C   0  0  0  0  0  2  0  0  0  0  0  0
  189.0040  177.1760  146.2010 C   0  0  0  0  0  3  0  0  0  0  0  0
  184.3840  179.1600  144.6030 C   0  0  0  0  0  2  0  0  0  0  0  0
  186.3210  177.4660  142.5490 C   0  0  0  0  0  0  0  0  0  0  0  0
  184.6330  177.8720  146.7630 C   0  0  0  0  0  2  0  0  0  0  0  0
  186.4600  179.0720  148.0230 C   0  0  0  0  0  0  0  0  0  0  0  0
  187.5880  179.0300  148.7750 F   0  0  0  0  0  0  0  0  0  0  0  0
  185.9590  180.1890  147.7270 O   0  0  0  0  0  0  0  0  0  0  0  0
  186.3200  176.5830  148.0950 C   0  0  0  0  0  1  0  0  0  0  0  0
  185.8420  177.8560  147.5810 N   0  0  0  0  0  0  0  0  0  0  0  0
  1  2  1  0  0  0  0
  1  4  1  0  0  0  0
  2 12  1  0  0  0  0
  3 14  1  0  0  0  0
  4 17  1  0  0  0  0
  5 20  1  1  0  0  0
  6 13  1  0  0  0  0
  7  3  2  0  0  0  0
  7 19  1  0  0  0  0
  8  4  2  0  0  0  0
  8  9  1  0  0  0  0
  9  6  2  0  0  0  0
 10 11  1  6  0  0  0
 10 19  1  0  0  0  0
 10 16  1  0  0  0  0
 12  5  1  0  0  0  0
 14 15  1  0  0  0  0
 14  1  2  0  0  0  0
 15  8  1  0  0  0  0
 16 18  1  0  0  0  0
 17 13  2  0  0  0  0
 18  5  1  0  0  0  0
 19  2  2  0  0  0  0
 20 25  1  0  0  0  0
 21 22  1  0  0  0  0
 23 21  2  0  0  0  0
 25 21  1  0  0  0  0
 25 24  1  0  0  0  0
M  END
>  <MODEL>
9

>  <REMARK>
 VINA RESULT:      -6.8      2.969      5.022
  Name = 
  2 active torsions:
  status: ('A' for Active; 'I' for Inactive)
    1  A    between atoms: C_6  and  C_15
    2  A    between atoms: C_15  and  N_25
                            x       y       z     vdW  Elec       q    Type
                         _______ _______ _______ _____ _____    ______ ____

>  <TORSDO>
F 2

$$$$
