=
 OpenBabel11052419383D

 55 60  0  0  1  0  0  0  0  0999 V2000
  188.5500  178.2140  142.0180 C   0  0  0  0  0  2  0  0  0  0  0  0
  188.1500  175.3370  141.5650 C   0  0  2  0  0  3  0  0  0  0  0  0
  189.1190  175.8540  142.6220 C   0  0  0  0  0  2  0  0  0  0  0  0
  187.5860  177.7090  140.9490 C   0  0  0  0  0  2  0  0  0  0  0  0
  189.6860  177.2110  142.2030 C   0  0  2  0  0  3  0  0  0  0  0  0
  187.0180  176.3500  141.3500 C   0  0  0  0  0  2  0  0  0  0  0  0
  187.5850  174.0040  142.0270 C   0  0  0  0  0  2  0  0  0  0  0  0
  189.0910  172.7040  140.4710 N   0  0  0  0  0  2  0  0  0  0  0  0
  188.5610  172.9050  141.7850 C   0  0  0  0  0  0  0  0  0  0  0  0
  188.9340  172.1780  142.7430 O   0  0  0  0  0  0  0  0  0  0  0  0
  190.1500  171.7470  140.1900 C   0  0  0  0  0  2  0  0  0  0  0  0
  190.7760  172.0190  138.8290 C   0  0  2  0  0  3  0  0  0  0  0  0
  189.4800  170.1030  138.2370 O   0  0  0  0  0  1  0  0  0  0  0  0
  190.3140  170.9720  137.8600 C   0  0  0  0  0  0  0  0  0  0  0  0
  190.8480  170.9000  136.5800 O   0  0  0  0  0  0  0  0  0  0  0  0
  192.2380  172.0210  138.9420 N   0  0  0  0  0  2  0  0  0  0  0  0
  194.2060  173.3310  138.2990 C   0  0  1  0  0  3  0  0  0  0  0  0
  193.2070  172.9760  141.2550 F   0  0  0  0  0  0  0  0  0  0  0  0
  192.7860  173.3850  138.9060 C   0  0  2  0  0  0  0  0  0  0  0  0
  196.8740  175.6760  139.9240 C   0  0  0  0  0  3  0  0  0  0  0  0
  191.8760  174.7320  140.7180 F   0  0  0  0  0  0  0  0  0  0  0  0
  192.9680  173.9780  140.3230 C   0  0  0  0  0  0  0  0  0  0  0  0
  194.2650  173.9680  137.0510 O   0  0  0  0  0  1  0  0  0  0  0  0
  196.2570  175.8650  141.1110 C   0  0  0  0  0  3  0  0  0  0  0  0
  194.9270  175.2320  141.4510 C   0  0  0  0  0  2  0  0  0  0  0  0
  195.1140  174.0090  139.3190 C   0  0  2  0  0  3  0  0  0  0  0  0
  194.1950  174.8470  140.1690 C   0  0  1  0  0  3  0  0  0  0  0  0
  196.2480  174.8870  138.7920 C   0  0  0  0  0  2  0  0  0  0  0  0
  191.9680  174.2260  138.1310 O   0  0  0  0  0  1  0  0  0  0  0  0
  190.6470  177.7220  143.2630 C   0  0  0  0  0  2  0  0  0  0  0  0
  192.0430  177.1860  143.0060 C   0  0  0  0  0  2  0  0  0  0  0  0
  192.4370  176.2490  144.1250 C   0  0  0  0  0  2  0  0  0  0  0  0
  192.1120  174.8780  143.7460 N   0  0  0  0  0  2  0  0  0  0  0  0
  191.8860  172.5970  144.4920 C   0  0  0  0  0  2  0  0  0  0  0  0
  193.8490  173.1630  145.8140 C   0  0  1  0  0  3  0  0  0  0  0  0
  191.7560  174.0430  144.9050 C   0  0  1  0  0  0  0  0  0  0  0  0
  192.7400  174.1780  146.0610 C   0  0  0  0  0  2  0  0  0  0  0  0
  193.3320  172.2170  144.7420 C   0  0  0  0  0  2  0  0  0  0  0  0
  195.1220  173.8260  145.3570 C   0  0  0  0  0  0  0  0  0  0  0  0
  195.6400  174.9020  146.0690 O   0  0  0  0  0  1  0  0  0  0  0  0
  195.7100  173.4350  144.3140 O   0  0  0  0  0  0  0  0  0  0  0  0
  190.3060  174.2700  145.3430 C   0  0  0  0  0  2  0  0  0  0  0  0
  190.1680  174.6640  146.8150 C   0  0  0  0  0  2  0  0  0  0  0  0
  189.2730  175.8920  147.0030 C   0  0  1  0  0  3  0  0  0  0  0  0
  190.1440  177.8900  148.2080 C   0  0  0  0  0  2  0  0  0  0  0  0
  190.0580  177.1930  146.8610 C   0  0  0  0  0  3  0  0  0  0  0  0
  191.3200  177.1020  147.6870 C   0  0  0  0  0  2  0  0  0  0  0  0
  188.0970  175.8800  146.0410 C   0  0  0  0  0  2  0  0  0  0  0  0
  187.8270  177.2890  145.5450 C   0  0  0  0  0  2  0  0  0  0  0  0
  186.4820  177.3150  144.8430 C   0  0  0  0  0  2  0  0  0  0  0  0
  185.4520  179.5310  144.0680 C   0  0  0  0  0  2  0  0  0  0  0  0
  185.7190  178.5920  145.1740 C   0  0  1  0  0  0  0  0  0  0  0  0
  184.4550  178.6620  144.5650 O   0  0  0  0  0  0  0  0  0  0  0  0
  185.7030  179.1360  146.5930 C   0  0  0  0  0  2  0  0  0  0  0  0
  184.6690  178.4080  147.4300 C   0  0  0  0  0  1  0  0  0  0  0  0
  1  5  1  0  0  0  0
  2  7  1  1  0  0  0
  2  3  1  0  0  0  0
  4  6  1  0  0  0  0
  4  1  1  0  0  0  0
  5  3  1  0  0  0  0
  5 30  1  1  0  0  0
  6  2  1  0  0  0  0
  8  9  1  0  0  0  0
  9  7  1  0  0  0  0
  9 10  2  0  0  0  0
 11  8  1  0  0  0  0
 12 16  1  0  0  0  0
 12 11  1  1  0  0  0
 14 13  1  0  0  0  0
 14 12  1  0  0  0  0
 15 14  2  0  0  0  0
 17 23  1  6  0  0  0
 17 19  1  0  0  0  0
 17 26  1  0  0  0  0
 19 29  1  6  0  0  0
 19 16  1  0  0  0  0
 19 22  1  0  0  0  0
 20 24  2  0  0  0  0
 22 21  1  0  0  0  0
 22 18  1  0  0  0  0
 24 25  1  0  0  0  0
 26 28  1  6  0  0  0
 26 27  1  0  0  0  0
 27 22  1  0  0  0  0
 27 25  1  1  0  0  0
 28 20  1  0  0  0  0
 31 30  1  0  0  0  0
 31 32  1  0  0  0  0
 33 32  1  0  0  0  0
 33 36  1  0  0  0  0
 34 38  1  0  0  0  0
 34 36  1  0  0  0  0
 35 39  1  6  0  0  0
 35 37  1  0  0  0  0
 36 42  1  1  0  0  0
 36 37  1  0  0  0  0
 38 35  1  0  0  0  0
 39 40  1  0  0  0  0
 41 39  2  0  0  0  0
 42 43  1  0  0  0  0
 43 44  1  0  0  0  0
 44 48  1  6  0  0  0
 46 44  1  0  0  0  0
 46 47  1  0  0  0  0
 46 45  1  0  0  0  0
 47 45  1  0  0  0  0
 49 48  1  0  0  0  0
 50 49  1  0  0  0  0
 51 53  1  0  0  0  0
 51 52  1  0  0  0  0
 52 50  1  6  0  0  0
 52 54  1  0  0  0  0
 53 52  1  0  0  0  0
 54 55  1  0  0  0  0
M  END
>  <MODEL>
1

>  <REMARK>
 VINA RESULT:      -6.1      0.000      0.000
  Name = 
  22 active torsions:
  status: ('A' for Active; 'I' for Inactive)
    1  A    between atoms: C_2  and  C_28
    2  A    between atoms: C_2  and  C_44
    3  A    between atoms: C_5  and  C_19
    4  A    between atoms: C_6  and  N_46
    5  A    between atoms: C_8  and  CA_22
    6  A    between atoms: C_8  and  N_35
    7  A    between atoms: C_10  and  C_32
    8  A    between atoms: C_15  and  C_17
    9  A    between atoms: C_16  and  C_17
   10  A    between atoms: C_16  and  C_26
   11  A    between atoms: C_17  and  C_36
   12  A    between atoms: C_19  and  C_45
   13  A    between atoms: C_20  and  CA_22
   14  A    between atoms: CA_22  and  N_46
   15  A    between atoms: C_26  and  C_45
   16  A    between atoms: C_27  and  C_54
   17  A    between atoms: C_28  and  C_33
   18  A    between atoms: C_33  and  N_49
   19  A    between atoms: C_34  and  N_49
   20  A    between atoms: C_34  and  C_52
   21  A    between atoms: C_36  and  C_52
   22  A    between atoms: C_43  and  C_54
                            x       y       z     vdW  Elec       q    Type
                         _______ _______ _______ _____ _____    ______ ____

>  <TORSDO>
F 22

$$$$
=
 OpenBabel11052419383D

 55 60  0  0  1  0  0  0  0  0999 V2000
  189.7100  175.8700  146.5070 C   0  0  0  0  0  2  0  0  0  0  0  0
  192.5530  175.1490  146.3130 C   0  0  2  0  0  3  0  0  0  0  0  0
  191.8360  175.8910  145.1890 C   0  0  0  0  0  2  0  0  0  0  0  0
  190.4130  175.1180  147.6320 C   0  0  0  0  0  2  0  0  0  0  0  0
  190.3540  175.5160  145.1680 C   0  0  2  0  0  3  0  0  0  0  0  0
  191.8960  175.4750  147.6600 C   0  0  0  0  0  2  0  0  0  0  0  0
  194.0150  175.5670  146.3220 C   0  0  0  0  0  2  0  0  0  0  0  0
  194.3050  173.2230  145.4310 N   0  0  0  0  0  2  0  0  0  0  0  0
  194.8720  174.4990  145.7350 C   0  0  0  0  0  0  0  0  0  0  0  0
  196.0830  174.7380  145.4850 O   0  0  0  0  0  0  0  0  0  0  0  0
  195.0420  172.1840  144.7280 C   0  0  0  0  0  2  0  0  0  0  0  0
  194.8540  172.3130  143.2220 C   0  0  2  0  0  3  0  0  0  0  0  0
  197.1680  171.9520  142.7560 O   0  0  0  0  0  1  0  0  0  0  0  0
  196.1620  172.6960  142.5970 C   0  0  0  0  0  0  0  0  0  0  0  0
  196.2990  173.8970  141.9110 O   0  0  0  0  0  0  0  0  0  0  0  0
  193.8200  173.3110  142.9310 N   0  0  0  0  0  2  0  0  0  0  0  0
  192.0360  173.9130  141.3650 C   0  0  1  0  0  3  0  0  0  0  0  0
  191.5480  172.6730  144.2080 F   0  0  0  0  0  0  0  0  0  0  0  0
  192.7410  172.7530  142.1040 C   0  0  2  0  0  0  0  0  0  0  0  0
  188.1510  173.6510  141.0440 C   0  0  0  0  0  3  0  0  0  0  0  0
  191.8490  170.7180  143.0980 F   0  0  0  0  0  0  0  0  0  0  0  0
  191.6400  172.0790  142.9560 C   0  0  0  0  0  0  0  0  0  0  0  0
  192.2500  173.8570  139.9800 O   0  0  0  0  0  1  0  0  0  0  0  0
  187.9390  172.7810  142.0550 C   0  0  0  0  0  3  0  0  0  0  0  0
  189.0600  172.2270  142.9060 C   0  0  0  0  0  2  0  0  0  0  0  0
  190.5560  173.7780  141.7100 C   0  0  2  0  0  3  0  0  0  0  0  0
  190.3850  172.3500  142.1590 C   0  0  1  0  0  3  0  0  0  0  0  0
  189.5370  174.0830  140.6110 C   0  0  0  0  0  2  0  0  0  0  0  0
  193.2570  171.8370  141.1690 O   0  0  0  0  0  1  0  0  0  0  0  0
  189.6460  176.2620  144.0510 C   0  0  0  0  0  2  0  0  0  0  0  0
  188.1430  176.1060  144.1870 C   0  0  0  0  0  2  0  0  0  0  0  0
  187.5160  177.4590  144.4330 C   0  0  0  0  0  2  0  0  0  0  0  0
  186.1020  177.2870  144.7520 N   0  0  0  0  0  2  0  0  0  0  0  0
  184.0610  178.2980  145.5400 C   0  0  0  0  0  2  0  0  0  0  0  0
  185.5350  179.1950  147.2560 C   0  0  1  0  0  3  0  0  0  0  0  0
  185.3980  178.5720  144.8950 C   0  0  1  0  0  0  0  0  0  0  0  0
  186.0830  179.5210  145.8720 C   0  0  0  0  0  2  0  0  0  0  0  0
  184.3020  178.3350  147.0370 C   0  0  0  0  0  2  0  0  0  0  0  0
  186.5440  178.4590  148.0970 C   0  0  0  0  0  0  0  0  0  0  0  0
  186.4600  177.0780  148.2340 O   0  0  0  0  0  0  0  0  0  0  0  0
  187.4510  179.0860  148.7070 O   0  0  0  0  0  1  0  0  0  0  0  0
  185.1300  179.2260  143.5370 C   0  0  0  0  0  2  0  0  0  0  0  0
  184.1140  178.4660  142.6820 C   0  0  0  0  0  2  0  0  0  0  0  0
  184.5580  178.3540  141.2210 C   0  0  1  0  0  3  0  0  0  0  0  0
  186.4030  177.5480  139.7560 C   0  0  0  0  0  2  0  0  0  0  0  0
  185.6250  177.2790  141.0320 C   0  0  0  0  0  3  0  0  0  0  0  0
  186.9910  177.9230  141.0940 C   0  0  0  0  0  2  0  0  0  0  0  0
  183.3800  178.0940  140.2970 C   0  0  0  0  0  2  0  0  0  0  0  0
  182.0810  178.2980  141.0550 C   0  0  0  0  0  2  0  0  0  0  0  0
  180.9170  178.0190  140.1220 C   0  0  0  0  0  2  0  0  0  0  0  0
  178.9310  179.6210  139.8770 C   0  0  0  0  0  2  0  0  0  0  0  0
  179.6210  178.5930  140.6800 C   0  0  1  0  0  0  0  0  0  0  0  0
  178.4900  178.2780  139.9070 O   0  0  0  0  0  0  0  0  0  0  0  0
  179.3300  178.5370  142.1710 C   0  0  0  0  0  2  0  0  0  0  0  0
  178.5830  177.2640  142.5190 C   0  0  0  0  0  1  0  0  0  0  0  0
  1  4  1  0  0  0  0
  2  7  1  1  0  0  0
  2  6  1  0  0  0  0
  3  2  1  0  0  0  0
  4  6  1  0  0  0  0
  5 30  1  6  0  0  0
  5  3  1  0  0  0  0
  5  1  1  0  0  0  0
  8  9  1  0  0  0  0
  9  7  1  0  0  0  0
 10  9  2  0  0  0  0
 11  8  1  0  0  0  0
 12 11  1  1  0  0  0
 14 13  1  0  0  0  0
 14 12  1  0  0  0  0
 15 14  2  0  0  0  0
 16 12  1  0  0  0  0
 17 23  1  6  0  0  0
 17 26  1  0  0  0  0
 17 19  1  0  0  0  0
 19 29  1  6  0  0  0
 19 16  1  0  0  0  0
 19 22  1  0  0  0  0
 20 24  2  0  0  0  0
 22 21  1  0  0  0  0
 22 18  1  0  0  0  0
 24 25  1  0  0  0  0
 26 28  1  6  0  0  0
 26 27  1  0  0  0  0
 27 25  1  1  0  0  0
 27 22  1  0  0  0  0
 28 20  1  0  0  0  0
 30 31  1  0  0  0  0
 31 32  1  0  0  0  0
 32 33  1  0  0  0  0
 33 36  1  0  0  0  0
 34 38  1  0  0  0  0
 35 39  1  1  0  0  0
 36 42  1  6  0  0  0
 36 34  1  0  0  0  0
 36 37  1  0  0  0  0
 37 35  1  0  0  0  0
 38 35  1  0  0  0  0
 39 40  2  0  0  0  0
 39 41  1  0  0  0  0
 43 42  1  0  0  0  0
 44 48  1  6  0  0  0
 44 43  1  0  0  0  0
 45 46  1  0  0  0  0
 45 47  1  0  0  0  0
 46 47  1  0  0  0  0
 46 44  1  0  0  0  0
 48 49  1  0  0  0  0
 50 49  1  0  0  0  0
 51 53  1  0  0  0  0
 51 52  1  0  0  0  0
 52 50  1  6  0  0  0
 52 54  1  0  0  0  0
 53 52  1  0  0  0  0
 54 55  1  0  0  0  0
M  END
>  <MODEL>
2

>  <REMARK>
 VINA RESULT:      -5.5      3.279      7.252
  Name = 
  22 active torsions:
  status: ('A' for Active; 'I' for Inactive)
    1  A    between atoms: C_2  and  C_28
    2  A    between atoms: C_2  and  C_44
    3  A    between atoms: C_5  and  C_19
    4  A    between atoms: C_6  and  N_46
    5  A    between atoms: C_8  and  CA_22
    6  A    between atoms: C_8  and  N_35
    7  A    between atoms: C_10  and  C_32
    8  A    between atoms: C_15  and  C_17
    9  A    between atoms: C_16  and  C_17
   10  A    between atoms: C_16  and  C_26
   11  A    between atoms: C_17  and  C_36
   12  A    between atoms: C_19  and  C_45
   13  A    between atoms: C_20  and  CA_22
   14  A    between atoms: CA_22  and  N_46
   15  A    between atoms: C_26  and  C_45
   16  A    between atoms: C_27  and  C_54
   17  A    between atoms: C_28  and  C_33
   18  A    between atoms: C_33  and  N_49
   19  A    between atoms: C_34  and  N_49
   20  A    between atoms: C_34  and  C_52
   21  A    between atoms: C_36  and  C_52
   22  A    between atoms: C_43  and  C_54
                            x       y       z     vdW  Elec       q    Type
                         _______ _______ _______ _____ _____    ______ ____

>  <TORSDO>
F 22

$$$$
=
 OpenBabel11052419383D

 55 60  0  0  1  0  0  0  0  0999 V2000
  188.9650  172.7180  142.6530 C   0  0  0  0  0  2  0  0  0  0  0  0
  189.7980  173.6560  139.9940 C   0  0  2  0  0  3  0  0  0  0  0  0
  190.4610  172.4570  140.6650 C   0  0  0  0  0  2  0  0  0  0  0  0
  188.3020  173.9260  141.9970 C   0  0  0  0  0  2  0  0  0  0  0  0
  190.4140  172.6080  142.1860 C   0  0  2  0  0  3  0  0  0  0  0  0
  188.3490  173.7930  140.4770 C   0  0  0  0  0  2  0  0  0  0  0  0
  189.8360  173.4580  138.4870 C   0  0  0  0  0  2  0  0  0  0  0  0
  192.3000  173.9660  138.2740 N   0  0  0  0  0  2  0  0  0  0  0  0
  191.2050  173.0770  138.0400 C   0  0  0  0  0  0  0  0  0  0  0  0
  191.3930  171.9620  137.4840 O   0  0  0  0  0  0  0  0  0  0  0  0
  193.6810  173.6010  137.9950 C   0  0  0  0  0  2  0  0  0  0  0  0
  194.6170  174.7660  138.2900 C   0  0  2  0  0  3  0  0  0  0  0  0
  196.3980  175.0610  136.7270 O   0  0  0  0  0  1  0  0  0  0  0  0
  195.1840  175.2770  137.0000 C   0  0  0  0  0  0  0  0  0  0  0  0
  194.4150  176.0500  136.1390 O   0  0  0  0  0  0  0  0  0  0  0  0
  195.6850  174.3310  139.1970 N   0  0  0  0  0  2  0  0  0  0  0  0
  196.6850  175.1790  141.2660 C   0  0  1  0  0  3  0  0  0  0  0  0
  195.5210  172.2830  140.9240 F   0  0  0  0  0  0  0  0  0  0  0  0
  195.3860  174.6770  140.5950 C   0  0  2  0  0  0  0  0  0  0  0  0
  197.2670  174.0570  144.9620 C   0  0  0  0  0  3  0  0  0  0  0  0
  193.5700  173.3080  141.4600 F   0  0  0  0  0  0  0  0  0  0  0  0
  194.9470  173.4460  141.4210 C   0  0  0  0  0  0  0  0  0  0  0  0
  196.6130  176.5420  141.5900 O   0  0  0  0  0  1  0  0  0  0  0  0
  196.4420  172.9880  144.9650 C   0  0  0  0  0  3  0  0  0  0  0  0
  195.6440  172.5690  143.7500 C   0  0  0  0  0  2  0  0  0  0  0  0
  196.8630  174.3150  142.5110 C   0  0  2  0  0  3  0  0  0  0  0  0
  195.4960  173.7500  142.7960 C   0  0  1  0  0  3  0  0  0  0  0  0
  197.4010  174.9870  143.7740 C   0  0  0  0  0  2  0  0  0  0  0  0
  194.4010  175.6790  140.6570 O   0  0  0  0  0  1  0  0  0  0  0  0
  191.0710  171.4090  142.8470 C   0  0  0  0  0  2  0  0  0  0  0  0
  191.6070  171.7930  144.2130 C   0  0  0  0  0  2  0  0  0  0  0  0
  191.9400  173.2680  144.2280 C   0  0  0  0  0  2  0  0  0  0  0  0
  191.9380  173.7510  145.6050 N   0  0  0  0  0  2  0  0  0  0  0  0
  191.3490  175.4910  147.1660 C   0  0  0  0  0  2  0  0  0  0  0  0
  192.5970  176.8820  145.6070 C   0  0  1  0  0  3  0  0  0  0  0  0
  191.1040  174.9520  145.7770 C   0  0  1  0  0  0  0  0  0  0  0  0
  191.5190  176.1020  144.8660 C   0  0  0  0  0  2  0  0  0  0  0  0
  192.5460  176.4150  147.0530 C   0  0  0  0  0  2  0  0  0  0  0  0
  193.9640  176.6360  145.0260 C   0  0  0  0  0  0  0  0  0  0  0  0
  195.0970  176.8280  145.8090 O   0  0  0  0  0  1  0  0  0  0  0  0
  194.0970  176.2840  143.8230 O   0  0  0  0  0  0  0  0  0  0  0  0
  189.6120  174.6270  145.6640 C   0  0  0  0  0  2  0  0  0  0  0  0
  188.7170  175.5750  146.4650 C   0  0  0  0  0  2  0  0  0  0  0  0
  187.6630  176.2550  145.5860 C   0  0  1  0  0  3  0  0  0  0  0  0
  185.4450  177.1240  146.3110 C   0  0  0  0  0  2  0  0  0  0  0  0
  186.9420  177.3760  146.3290 C   0  0  0  0  0  3  0  0  0  0  0  0
  186.2510  176.8000  147.5430 C   0  0  0  0  0  2  0  0  0  0  0  0
  188.2660  176.7820  144.2950 C   0  0  0  0  0  2  0  0  0  0  0  0
  187.2910  177.7350  143.6280 C   0  0  0  0  0  2  0  0  0  0  0  0
  186.2980  176.9300  142.8090 C   0  0  0  0  0  2  0  0  0  0  0  0
  184.0040  177.9870  142.3680 C   0  0  0  0  0  2  0  0  0  0  0  0
  185.4180  177.8450  141.9670 C   0  0  1  0  0  0  0  0  0  0  0  0
  184.9660  178.9810  142.6610 O   0  0  0  0  0  0  0  0  0  0  0  0
  185.7870  178.1630  140.5270 C   0  0  0  0  0  2  0  0  0  0  0  0
  186.7620  177.1330  139.9900 C   0  0  0  0  0  1  0  0  0  0  0  0
  2  7  1  6  0  0  0
  2  6  1  0  0  0  0
  2  3  1  0  0  0  0
  3  5  1  0  0  0  0
  4  1  1  0  0  0  0
  5  1  1  0  0  0  0
  5 30  1  1  0  0  0
  6  4  1  0  0  0  0
  9  8  1  0  0  0  0
  9  7  1  0  0  0  0
 10  9  2  0  0  0  0
 11  8  1  0  0  0  0
 12 11  1  6  0  0  0
 12 16  1  0  0  0  0
 13 14  1  0  0  0  0
 14 12  1  0  0  0  0
 15 14  2  0  0  0  0
 16 19  1  0  0  0  0
 17 23  1  1  0  0  0
 17 26  1  0  0  0  0
 18 22  1  0  0  0  0
 19 29  1  1  0  0  0
 19 17  1  0  0  0  0
 19 22  1  0  0  0  0
 20 24  2  0  0  0  0
 22 21  1  0  0  0  0
 22 27  1  0  0  0  0
 25 24  1  0  0  0  0
 26 27  1  0  0  0  0
 26 28  1  1  0  0  0
 27 25  1  1  0  0  0
 28 20  1  0  0  0  0
 30 31  1  0  0  0  0
 31 32  1  0  0  0  0
 32 33  1  0  0  0  0
 33 36  1  0  0  0  0
 35 39  1  6  0  0  0
 35 38  1  0  0  0  0
 36 42  1  6  0  0  0
 36 34  1  0  0  0  0
 37 35  1  0  0  0  0
 37 36  1  0  0  0  0
 38 34  1  0  0  0  0
 39 40  1  0  0  0  0
 41 39  2  0  0  0  0
 42 43  1  0  0  0  0
 44 48  1  6  0  0  0
 44 46  1  0  0  0  0
 44 43  1  0  0  0  0
 45 46  1  0  0  0  0
 45 47  1  0  0  0  0
 46 47  1  0  0  0  0
 49 48  1  0  0  0  0
 50 49  1  0  0  0  0
 51 53  1  0  0  0  0
 52 54  1  6  0  0  0
 52 51  1  0  0  0  0
 52 53  1  0  0  0  0
 52 50  1  0  0  0  0
 55 54  1  0  0  0  0
M  END
>  <MODEL>
3

>  <REMARK>
 VINA RESULT:      -5.5      2.019      4.251
  Name = 
  22 active torsions:
  status: ('A' for Active; 'I' for Inactive)
    1  A    between atoms: C_2  and  C_28
    2  A    between atoms: C_2  and  C_44
    3  A    between atoms: C_5  and  C_19
    4  A    between atoms: C_6  and  N_46
    5  A    between atoms: C_8  and  CA_22
    6  A    between atoms: C_8  and  N_35
    7  A    between atoms: C_10  and  C_32
    8  A    between atoms: C_15  and  C_17
    9  A    between atoms: C_16  and  C_17
   10  A    between atoms: C_16  and  C_26
   11  A    between atoms: C_17  and  C_36
   12  A    between atoms: C_19  and  C_45
   13  A    between atoms: C_20  and  CA_22
   14  A    between atoms: CA_22  and  N_46
   15  A    between atoms: C_26  and  C_45
   16  A    between atoms: C_27  and  C_54
   17  A    between atoms: C_28  and  C_33
   18  A    between atoms: C_33  and  N_49
   19  A    between atoms: C_34  and  N_49
   20  A    between atoms: C_34  and  C_52
   21  A    between atoms: C_36  and  C_52
   22  A    between atoms: C_43  and  C_54
                            x       y       z     vdW  Elec       q    Type
                         _______ _______ _______ _____ _____    ______ ____

>  <TORSDO>
F 22

$$$$
=
 OpenBabel11052419383D

 55 60  0  0  1  0  0  0  0  0999 V2000
  189.9500  176.7860  146.4340 C   0  0  0  0  0  2  0  0  0  0  0  0
  192.6140  175.6200  146.0090 C   0  0  2  0  0  3  0  0  0  0  0  0
  192.1380  176.8370  145.2230 C   0  0  0  0  0  2  0  0  0  0  0  0
  190.4100  175.5610  147.2170 C   0  0  0  0  0  2  0  0  0  0  0  0
  190.6180  176.8020  145.0610 C   0  0  2  0  0  3  0  0  0  0  0  0
  191.9270  175.5770  147.3790 C   0  0  0  0  0  2  0  0  0  0  0  0
  194.1230  175.7020  146.1760 C   0  0  0  0  0  2  0  0  0  0  0  0
  193.9320  173.2250  145.7310 N   0  0  0  0  0  2  0  0  0  0  0  0
  194.7550  174.3780  145.9200 C   0  0  0  0  0  0  0  0  0  0  0  0
  196.0090  174.2890  145.8440 O   0  0  0  0  0  0  0  0  0  0  0  0
  194.4710  171.9310  145.3370 C   0  0  0  0  0  2  0  0  0  0  0  0
  194.2090  171.6640  143.8610 C   0  0  2  0  0  3  0  0  0  0  0  0
  193.8280  169.3790  143.2830 O   0  0  0  0  0  0  0  0  0  0  0  0
  193.3360  170.4520  143.7310 C   0  0  0  0  0  0  0  0  0  0  0  0
  191.9790  170.5140  144.0230 O   0  0  0  0  0  1  0  0  0  0  0  0
  195.4800  171.4750  143.1540 N   0  0  0  0  0  2  0  0  0  0  0  0
  194.4000  173.3590  142.0220 C   0  0  1  0  0  3  0  0  0  0  0  0
  195.0440  170.6080  140.6520 F   0  0  0  0  0  0  0  0  0  0  0  0
  195.6580  172.4630  142.0810 C   0  0  2  0  0  0  0  0  0  0  0  0
  193.1580  174.3690  138.4580 C   0  0  0  0  0  3  0  0  0  0  0  0
  197.0660  171.5740  140.3060 F   0  0  0  0  0  0  0  0  0  0  0  0
  195.7540  171.8010  140.6870 C   0  0  0  0  0  0  0  0  0  0  0  0
  194.6800  174.6790  142.4030 O   0  0  0  0  0  1  0  0  0  0  0  0
  193.7650  173.3820  137.7640 C   0  0  0  0  0  3  0  0  0  0  0  0
  194.6190  172.3230  138.4240 C   0  0  0  0  0  2  0  0  0  0  0  0
  193.9090  173.2840  140.5800 C   0  0  2  0  0  3  0  0  0  0  0  0
  195.1010  172.8210  139.7830 C   0  0  1  0  0  3  0  0  0  0  0  0
  193.3490  174.5590  139.9490 C   0  0  0  0  0  2  0  0  0  0  0  0
  196.7950  173.2550  142.3200 O   0  0  0  0  0  1  0  0  0  0  0  0
  190.1510  178.0200  144.2830 C   0  0  0  0  0  2  0  0  0  0  0  0
  190.3330  177.7910  142.7940 C   0  0  0  0  0  2  0  0  0  0  0  0
  189.0280  178.0600  142.0800 C   0  0  0  0  0  2  0  0  0  0  0  0
  187.9440  178.1070  143.0550 N   0  0  0  0  0  2  0  0  0  0  0  0
  187.0280  176.1840  144.1840 C   0  0  0  0  0  2  0  0  0  0  0  0
  185.0130  177.5480  144.2100 C   0  0  1  0  0  3  0  0  0  0  0  0
  187.0030  176.9840  142.9050 C   0  0  1  0  0  0  0  0  0  0  0  0
  185.5510  177.4360  142.7890 C   0  0  0  0  0  2  0  0  0  0  0  0
  186.0110  176.8310  145.1040 C   0  0  0  0  0  2  0  0  0  0  0  0
  184.8640  178.9840  144.6390 C   0  0  0  0  0  0  0  0  0  0  0  0
  185.5690  179.9840  143.9780 O   0  0  0  0  0  0  0  0  0  0  0  0
  184.1280  179.2890  145.6140 O   0  0  0  0  0  1  0  0  0  0  0  0
  187.4150  176.0490  141.7650 C   0  0  0  0  0  2  0  0  0  0  0  0
  187.7350  174.6260  142.2280 C   0  0  0  0  0  2  0  0  0  0  0  0
  188.9230  174.0250  141.4710 C   0  0  1  0  0  3  0  0  0  0  0  0
  190.9510  173.8470  142.9030 C   0  0  0  0  0  2  0  0  0  0  0  0
  189.7490  173.0970  142.3560 C   0  0  0  0  0  3  0  0  0  0  0  0
  189.7380  173.6250  143.7710 C   0  0  0  0  0  2  0  0  0  0  0  0
  188.4740  173.2940  140.2160 C   0  0  0  0  0  2  0  0  0  0  0  0
  189.3940  173.6480  139.0620 C   0  0  0  0  0  2  0  0  0  0  0  0
  188.7090  173.2840  137.7570 C   0  0  0  0  0  2  0  0  0  0  0  0
  189.4160  173.9850  135.3950 C   0  0  0  0  0  2  0  0  0  0  0  0
  189.7150  173.2120  136.6160 C   0  0  1  0  0  0  0  0  0  0  0  0
  190.3520  174.4370  136.3530 O   0  0  0  0  0  0  0  0  0  0  0  0
  190.6690  172.0340  136.4990 C   0  0  0  0  0  2  0  0  0  0  0  0
  189.9200  170.7260  136.6630 C   0  0  0  0  0  1  0  0  0  0  0  0
  1  4  1  0  0  0  0
  2  7  1  1  0  0  0
  2  6  1  0  0  0  0
  3  2  1  0  0  0  0
  4  6  1  0  0  0  0
  5 30  1  1  0  0  0
  5  3  1  0  0  0  0
  5  1  1  0  0  0  0
  8  9  1  0  0  0  0
  9  7  1  0  0  0  0
 10  9  2  0  0  0  0
 11  8  1  0  0  0  0
 12 11  1  1  0  0  0
 13 14  2  0  0  0  0
 14 12  1  0  0  0  0
 14 15  1  0  0  0  0
 16 12  1  0  0  0  0
 17 19  1  0  0  0  0
 17 23  1  6  0  0  0
 18 22  1  0  0  0  0
 19 29  1  1  0  0  0
 19 16  1  0  0  0  0
 20 28  1  0  0  0  0
 21 22  1  0  0  0  0
 22 19  1  0  0  0  0
 24 25  1  0  0  0  0
 24 20  2  0  0  0  0
 26 28  1  6  0  0  0
 26 17  1  0  0  0  0
 27 25  1  6  0  0  0
 27 26  1  0  0  0  0
 27 22  1  0  0  0  0
 31 30  1  0  0  0  0
 32 31  1  0  0  0  0
 32 33  1  0  0  0  0
 34 38  1  0  0  0  0
 35 39  1  1  0  0  0
 35 38  1  0  0  0  0
 36 42  1  6  0  0  0
 36 33  1  0  0  0  0
 36 34  1  0  0  0  0
 37 36  1  0  0  0  0
 37 35  1  0  0  0  0
 39 41  1  0  0  0  0
 40 39  2  0  0  0  0
 42 43  1  0  0  0  0
 44 48  1  6  0  0  0
 44 43  1  0  0  0  0
 44 46  1  0  0  0  0
 45 47  1  0  0  0  0
 46 45  1  0  0  0  0
 46 47  1  0  0  0  0
 49 48  1  0  0  0  0
 50 49  1  0  0  0  0
 51 53  1  0  0  0  0
 51 52  1  0  0  0  0
 52 54  1  6  0  0  0
 52 50  1  0  0  0  0
 53 52  1  0  0  0  0
 54 55  1  0  0  0  0
M  END
>  <MODEL>
4

>  <REMARK>
 VINA RESULT:      -5.5      2.365      7.197
  Name = 
  22 active torsions:
  status: ('A' for Active; 'I' for Inactive)
    1  A    between atoms: C_2  and  C_28
    2  A    between atoms: C_2  and  C_44
    3  A    between atoms: C_5  and  C_19
    4  A    between atoms: C_6  and  N_46
    5  A    between atoms: C_8  and  CA_22
    6  A    between atoms: C_8  and  N_35
    7  A    between atoms: C_10  and  C_32
    8  A    between atoms: C_15  and  C_17
    9  A    between atoms: C_16  and  C_17
   10  A    between atoms: C_16  and  C_26
   11  A    between atoms: C_17  and  C_36
   12  A    between atoms: C_19  and  C_45
   13  A    between atoms: C_20  and  CA_22
   14  A    between atoms: CA_22  and  N_46
   15  A    between atoms: C_26  and  C_45
   16  A    between atoms: C_27  and  C_54
   17  A    between atoms: C_28  and  C_33
   18  A    between atoms: C_33  and  N_49
   19  A    between atoms: C_34  and  N_49
   20  A    between atoms: C_34  and  C_52
   21  A    between atoms: C_36  and  C_52
   22  A    between atoms: C_43  and  C_54
                            x       y       z     vdW  Elec       q    Type
                         _______ _______ _______ _____ _____    ______ ____

>  <TORSDO>
F 22

$$$$
=
 OpenBabel11052419383D

 55 60  0  0  1  0  0  0  0  0999 V2000
  190.8660  173.0470  137.4190 C   0  0  0  0  0  2  0  0  0  0  0  0
  191.8110  170.8870  139.1740 C   0  0  2  0  0  3  0  0  0  0  0  0
  190.4640  171.5680  139.3950 C   0  0  0  0  0  2  0  0  0  0  0  0
  192.2210  172.3820  137.1950 C   0  0  0  0  0  2  0  0  0  0  0  0
  190.5150  173.0150  138.9040 C   0  0  2  0  0  3  0  0  0  0  0  0
  192.1880  170.9380  137.6890 C   0  0  0  0  0  2  0  0  0  0  0  0
  191.7140  169.4450  139.6460 C   0  0  0  0  0  2  0  0  0  0  0  0
  192.7960  169.7970  141.9000 N   0  0  0  0  0  2  0  0  0  0  0  0
  191.6640  169.3790  141.1330 C   0  0  0  0  0  0  0  0  0  0  0  0
  190.6140  168.9810  141.7050 O   0  0  0  0  0  0  0  0  0  0  0  0
  192.7680  169.8950  143.3520 C   0  0  0  0  0  2  0  0  0  0  0  0
  193.6590  171.0310  143.8340 C   0  0  2  0  0  3  0  0  0  0  0  0
  194.3900  171.5740  146.0410 O   0  0  0  0  0  1  0  0  0  0  0  0
  194.2280  170.6720  145.1730 C   0  0  0  0  0  0  0  0  0  0  0  0
  194.6510  169.3760  145.4450 O   0  0  0  0  0  0  0  0  0  0  0  0
  192.8860  172.2760  143.9090 N   0  0  0  0  0  2  0  0  0  0  0  0
  194.8060  172.8550  142.5020 C   0  0  1  0  0  3  0  0  0  0  0  0
  193.9090  174.4880  145.0290 F   0  0  0  0  0  0  0  0  0  0  0  0
  193.4050  173.2950  142.9850 C   0  0  2  0  0  0  0  0  0  0  0  0
  197.4780  175.6810  142.1400 C   0  0  0  0  0  3  0  0  0  0  0  0
  192.5280  175.4970  143.5400 F   0  0  0  0  0  0  0  0  0  0  0  0
  193.6210  174.6580  143.6810 C   0  0  0  0  0  0  0  0  0  0  0  0
  194.8130  172.5410  141.1350 O   0  0  0  0  0  1  0  0  0  0  0  0
  196.8970  176.5920  142.9500 C   0  0  0  0  0  3  0  0  0  0  0  0
  195.5910  176.3330  143.6660 C   0  0  0  0  0  2  0  0  0  0  0  0
  195.7330  174.0250  142.8140 C   0  0  2  0  0  3  0  0  0  0  0  0
  194.8250  175.2180  142.9590 C   0  0  1  0  0  3  0  0  0  0  0  0
  196.8320  174.3530  141.8030 C   0  0  0  0  0  2  0  0  0  0  0  0
  192.5470  173.4460  141.8810 O   0  0  0  0  0  1  0  0  0  0  0  0
  189.1700  173.6850  139.1220 C   0  0  0  0  0  2  0  0  0  0  0  0
  188.3480  172.8950  140.1250 C   0  0  0  0  0  2  0  0  0  0  0  0
  188.3480  173.6150  141.4540 C   0  0  0  0  0  2  0  0  0  0  0  0
  188.4400  175.0540  141.2250 N   0  0  0  0  0  2  0  0  0  0  0  0
  189.2640  177.0280  142.3350 C   0  0  0  0  0  2  0  0  0  0  0  0
  186.9760  177.7890  142.0070 C   0  0  1  0  0  3  0  0  0  0  0  0
  188.3600  175.8280  142.4750 C   0  0  1  0  0  0  0  0  0  0  0  0
  186.9830  176.4390  142.7110 C   0  0  0  0  0  2  0  0  0  0  0  0
  188.4260  178.1120  141.6850 C   0  0  0  0  0  2  0  0  0  0  0  0
  186.1540  177.7570  140.7450 C   0  0  0  0  0  0  0  0  0  0  0  0
  184.7870  178.0010  140.8000 O   0  0  0  0  0  1  0  0  0  0  0  0
  186.6880  177.4810  139.6380 O   0  0  0  0  0  0  0  0  0  0  0  0
  188.8520  175.0160  143.6770 C   0  0  0  0  0  2  0  0  0  0  0  0
  189.3550  175.8810  144.8340 C   0  0  0  0  0  2  0  0  0  0  0  0
  188.7350  175.4720  146.1730 C   0  0  1  0  0  3  0  0  0  0  0  0
  191.1330  174.8810  146.4940 C   0  0  0  0  0  2  0  0  0  0  0  0
  189.7300  174.7190  147.0520 C   0  0  0  0  0  3  0  0  0  0  0  0
  190.6880  175.7090  147.6730 C   0  0  0  0  0  2  0  0  0  0  0  0
  188.1750  176.6710  146.9200 C   0  0  0  0  0  2  0  0  0  0  0  0
  187.4320  177.5740  145.9520 C   0  0  0  0  0  2  0  0  0  0  0  0
  185.9770  177.1450  145.8970 C   0  0  0  0  0  2  0  0  0  0  0  0
  184.4200  178.5490  147.3710 C   0  0  0  0  0  2  0  0  0  0  0  0
  185.0500  178.3430  146.0520 C   0  0  1  0  0  0  0  0  0  0  0  0
  185.5330  179.3120  146.9490 O   0  0  0  0  0  0  0  0  0  0  0  0
  184.3840  178.9680  144.8370 C   0  0  0  0  0  2  0  0  0  0  0  0
  185.3090  179.9770  144.1850 C   0  0  0  0  0  1  0  0  0  0  0  0
  1  5  1  0  0  0  0
  2  3  1  0  0  0  0
  2  7  1  6  0  0  0
  4  1  1  0  0  0  0
  4  6  1  0  0  0  0
  5 30  1  6  0  0  0
  5  3  1  0  0  0  0
  6  2  1  0  0  0  0
  7  9  1  0  0  0  0
  8 11  1  0  0  0  0
  9 10  2  0  0  0  0
  9  8  1  0  0  0  0
 12 11  1  1  0  0  0
 12 16  1  0  0  0  0
 12 14  1  0  0  0  0
 14 15  2  0  0  0  0
 14 13  1  0  0  0  0
 17 23  1  6  0  0  0
 17 26  1  0  0  0  0
 17 19  1  0  0  0  0
 19 29  1  6  0  0  0
 19 22  1  0  0  0  0
 19 16  1  0  0  0  0
 20 24  2  0  0  0  0
 21 22  1  0  0  0  0
 22 18  1  0  0  0  0
 24 25  1  0  0  0  0
 26 28  1  6  0  0  0
 26 27  1  0  0  0  0
 27 25  1  1  0  0  0
 27 22  1  0  0  0  0
 28 20  1  0  0  0  0
 30 31  1  0  0  0  0
 31 32  1  0  0  0  0
 33 32  1  0  0  0  0
 33 36  1  0  0  0  0
 34 36  1  0  0  0  0
 35 39  1  6  0  0  0
 35 37  1  0  0  0  0
 36 37  1  0  0  0  0
 36 42  1  1  0  0  0
 38 35  1  0  0  0  0
 38 34  1  0  0  0  0
 39 40  1  0  0  0  0
 41 39  2  0  0  0  0
 42 43  1  0  0  0  0
 44 43  1  6  0  0  0
 44 48  1  0  0  0  0
 44 46  1  0  0  0  0
 45 46  1  0  0  0  0
 45 47  1  0  0  0  0
 46 47  1  0  0  0  0
 49 48  1  0  0  0  0
 50 49  1  0  0  0  0
 50 52  1  0  0  0  0
 52 54  1  6  0  0  0
 52 53  1  0  0  0  0
 52 51  1  0  0  0  0
 53 51  1  0  0  0  0
 55 54  1  0  0  0  0
M  END
>  <MODEL>
5

>  <REMARK>
 VINA RESULT:      -5.3      2.331      5.598
  Name = 
  22 active torsions:
  status: ('A' for Active; 'I' for Inactive)
    1  A    between atoms: C_2  and  C_28
    2  A    between atoms: C_2  and  C_44
    3  A    between atoms: C_5  and  C_19
    4  A    between atoms: C_6  and  N_46
    5  A    between atoms: C_8  and  CA_22
    6  A    between atoms: C_8  and  N_35
    7  A    between atoms: C_10  and  C_32
    8  A    between atoms: C_15  and  C_17
    9  A    between atoms: C_16  and  C_17
   10  A    between atoms: C_16  and  C_26
   11  A    between atoms: C_17  and  C_36
   12  A    between atoms: C_19  and  C_45
   13  A    between atoms: C_20  and  CA_22
   14  A    between atoms: CA_22  and  N_46
   15  A    between atoms: C_26  and  C_45
   16  A    between atoms: C_27  and  C_54
   17  A    between atoms: C_28  and  C_33
   18  A    between atoms: C_33  and  N_49
   19  A    between atoms: C_34  and  N_49
   20  A    between atoms: C_34  and  C_52
   21  A    between atoms: C_36  and  C_52
   22  A    between atoms: C_43  and  C_54
                            x       y       z     vdW  Elec       q    Type
                         _______ _______ _______ _____ _____    ______ ____

>  <TORSDO>
F 22

$$$$
=
 OpenBabel11052419383D

 55 60  0  0  1  0  0  0  0  0999 V2000
  193.3080  176.2650  145.7270 C   0  0  0  0  0  2  0  0  0  0  0  0
  195.8200  175.4060  144.4650 C   0  0  2  0  0  3  0  0  0  0  0  0
  194.5870  174.5080  144.4890 C   0  0  0  0  0  2  0  0  0  0  0  0
  194.5380  177.1670  145.7200 C   0  0  0  0  0  2  0  0  0  0  0  0
  193.7420  174.8010  145.7290 C   0  0  2  0  0  3  0  0  0  0  0  0
  195.3970  176.8800  144.4920 C   0  0  0  0  0  2  0  0  0  0  0  0
  196.6200  175.1080  143.2070 C   0  0  0  0  0  2  0  0  0  0  0  0
  195.0330  174.7130  141.2830 N   0  0  0  0  0  2  0  0  0  0  0  0
  195.9010  175.5970  141.9970 C   0  0  0  0  0  0  0  0  0  0  0  0
  196.0400  176.7930  141.6280 O   0  0  0  0  0  0  0  0  0  0  0  0
  194.1920  175.1580  140.1820 C   0  0  0  0  0  2  0  0  0  0  0  0
  193.9840  174.0370  139.1730 C   0  0  2  0  0  3  0  0  0  0  0  0
  195.2280  172.0280  139.5190 O   0  0  0  0  0  1  0  0  0  0  0  0
  195.2360  173.2150  139.0910 C   0  0  0  0  0  0  0  0  0  0  0  0
  196.4220  173.7670  138.6230 O   0  0  0  0  0  0  0  0  0  0  0  0
  193.6390  174.5990  137.8640 N   0  0  0  0  0  2  0  0  0  0  0  0
  191.7320  173.1650  138.4200 C   0  0  1  0  0  3  0  0  0  0  0  0
  194.0170  172.3720  136.4170 F   0  0  0  0  0  0  0  0  0  0  0  0
  192.4330  173.9730  137.3030 C   0  0  2  0  0  0  0  0  0  0  0  0
  190.1880  169.7350  137.3660 C   0  0  0  0  0  3  0  0  0  0  0  0
  192.7230  173.4970  134.9340 F   0  0  0  0  0  0  0  0  0  0  0  0
  192.7690  172.9420  136.2010 C   0  0  0  0  0  0  0  0  0  0  0  0
  190.4950  173.7240  138.7710 O   0  0  0  0  0  1  0  0  0  0  0  0
  190.9120  169.5430  136.2420 C   0  0  0  0  0  3  0  0  0  0  0  0
  191.9530  170.5280  135.7610 C   0  0  0  0  0  2  0  0  0  0  0  0
  191.5740  171.7530  137.8670 C   0  0  2  0  0  3  0  0  0  0  0  0
  191.6860  171.9010  136.3710 C   0  0  1  0  0  3  0  0  0  0  0  0
  190.2890  170.9960  138.2000 C   0  0  0  0  0  2  0  0  0  0  0  0
  191.5550  174.9500  136.8000 O   0  0  0  0  0  1  0  0  0  0  0  0
  192.5140  173.9080  145.7430 C   0  0  0  0  0  2  0  0  0  0  0  0
  191.2660  174.7360  145.9870 C   0  0  0  0  0  2  0  0  0  0  0  0
  190.0660  174.0200  145.4110 C   0  0  0  0  0  2  0  0  0  0  0  0
  190.5190  172.9500  144.5280 N   0  0  0  0  0  2  0  0  0  0  0  0
  191.2860  173.7250  142.3790 C   0  0  0  0  0  2  0  0  0  0  0  0
  191.1150  171.3630  141.8150 C   0  0  1  0  0  3  0  0  0  0  0  0
  190.1050  173.1610  143.1300 C   0  0  1  0  0  0  0  0  0  0  0  0
  189.7980  171.8600  142.3980 C   0  0  0  0  0  2  0  0  0  0  0  0
  192.0860  172.5300  141.8950 C   0  0  0  0  0  2  0  0  0  0  0  0
  191.6520  170.1810  142.5760 C   0  0  0  0  0  0  0  0  0  0  0  0
  191.3610  168.8890  142.1520 O   0  0  0  0  0  0  0  0  0  0  0  0
  192.3420  170.3480  143.6170 O   0  0  0  0  0  1  0  0  0  0  0  0
  188.9630  174.1750  143.0250 C   0  0  0  0  0  2  0  0  0  0  0  0
  189.2980  175.3840  142.1500 C   0  0  0  0  0  2  0  0  0  0  0  0
  188.8140  176.6980  142.7700 C   0  0  1  0  0  3  0  0  0  0  0  0
  190.4540  178.0470  144.0700 C   0  0  0  0  0  2  0  0  0  0  0  0
  189.8770  177.7890  142.6890 C   0  0  0  0  0  3  0  0  0  0  0  0
  191.2160  177.2060  143.0780 C   0  0  0  0  0  2  0  0  0  0  0  0
  187.5200  177.1750  142.1320 C   0  0  0  0  0  2  0  0  0  0  0  0
  186.7490  178.0310  143.1200 C   0  0  0  0  0  2  0  0  0  0  0  0
  185.7750  177.1480  143.8800 C   0  0  0  0  0  2  0  0  0  0  0  0
  184.6170  177.8270  146.0640 C   0  0  0  0  0  2  0  0  0  0  0  0
  185.8560  177.4120  145.3780 C   0  0  1  0  0  0  0  0  0  0  0  0
  185.1080  176.5040  146.1470 O   0  0  0  0  0  0  0  0  0  0  0  0
  187.1840  177.7590  146.0310 C   0  0  0  0  0  2  0  0  0  0  0  0
  187.8570  176.5080  146.5630 C   0  0  0  0  0  1  0  0  0  0  0  0
  1  5  1  0  0  0  0
  2  7  1  6  0  0  0
  2  3  1  0  0  0  0
  2  6  1  0  0  0  0
  3  5  1  0  0  0  0
  4  1  1  0  0  0  0
  5 30  1  6  0  0  0
  6  4  1  0  0  0  0
  8  9  1  0  0  0  0
  9  7  1  0  0  0  0
 10  9  2  0  0  0  0
 11  8  1  0  0  0  0
 12 11  1  1  0  0  0
 14 12  1  0  0  0  0
 14 13  1  0  0  0  0
 15 14  2  0  0  0  0
 16 12  1  0  0  0  0
 17 23  1  6  0  0  0
 19 29  1  6  0  0  0
 19 16  1  0  0  0  0
 19 17  1  0  0  0  0
 20 28  1  0  0  0  0
 21 22  1  0  0  0  0
 22 27  1  0  0  0  0
 22 18  1  0  0  0  0
 22 19  1  0  0  0  0
 24 20  2  0  0  0  0
 25 24  1  0  0  0  0
 26 28  1  6  0  0  0
 26 17  1  0  0  0  0
 27 25  1  6  0  0  0
 27 26  1  0  0  0  0
 30 31  1  0  0  0  0
 32 31  1  0  0  0  0
 33 32  1  0  0  0  0
 34 36  1  0  0  0  0
 35 38  1  0  0  0  0
 35 37  1  0  0  0  0
 35 39  1  1  0  0  0
 36 42  1  6  0  0  0
 36 33  1  0  0  0  0
 37 36  1  0  0  0  0
 38 34  1  0  0  0  0
 39 41  1  0  0  0  0
 40 39  2  0  0  0  0
 43 44  1  0  0  0  0
 43 42  1  0  0  0  0
 44 48  1  6  0  0  0
 46 44  1  0  0  0  0
 46 47  1  0  0  0  0
 46 45  1  0  0  0  0
 47 45  1  0  0  0  0
 48 49  1  0  0  0  0
 49 50  1  0  0  0  0
 51 53  1  0  0  0  0
 52 50  1  6  0  0  0
 52 54  1  0  0  0  0
 52 51  1  0  0  0  0
 52 53  1  0  0  0  0
 54 55  1  0  0  0  0
M  END
>  <MODEL>
6

>  <REMARK>
 VINA RESULT:      -5.2      2.304      5.442
  Name = 
  22 active torsions:
  status: ('A' for Active; 'I' for Inactive)
    1  A    between atoms: C_2  and  C_28
    2  A    between atoms: C_2  and  C_44
    3  A    between atoms: C_5  and  C_19
    4  A    between atoms: C_6  and  N_46
    5  A    between atoms: C_8  and  CA_22
    6  A    between atoms: C_8  and  N_35
    7  A    between atoms: C_10  and  C_32
    8  A    between atoms: C_15  and  C_17
    9  A    between atoms: C_16  and  C_17
   10  A    between atoms: C_16  and  C_26
   11  A    between atoms: C_17  and  C_36
   12  A    between atoms: C_19  and  C_45
   13  A    between atoms: C_20  and  CA_22
   14  A    between atoms: CA_22  and  N_46
   15  A    between atoms: C_26  and  C_45
   16  A    between atoms: C_27  and  C_54
   17  A    between atoms: C_28  and  C_33
   18  A    between atoms: C_33  and  N_49
   19  A    between atoms: C_34  and  N_49
   20  A    between atoms: C_34  and  C_52
   21  A    between atoms: C_36  and  C_52
   22  A    between atoms: C_43  and  C_54
                            x       y       z     vdW  Elec       q    Type
                         _______ _______ _______ _____ _____    ______ ____

>  <TORSDO>
F 22

$$$$
=
 OpenBabel11052419383D

 55 60  0  0  1  0  0  0  0  0999 V2000
  192.0230  171.6570  140.8920 C   0  0  0  0  0  2  0  0  0  0  0  0
  193.3450  172.6570  138.4640 C   0  0  2  0  0  3  0  0  0  0  0  0
  192.3700  173.5190  139.2580 C   0  0  0  0  0  2  0  0  0  0  0  0
  192.9880  170.7810  140.1000 C   0  0  0  0  0  2  0  0  0  0  0  0
  191.3290  172.6410  139.9530 C   0  0  2  0  0  3  0  0  0  0  0  0
  194.0280  171.6450  139.3930 C   0  0  0  0  0  2  0  0  0  0  0  0
  194.3800  173.5590  137.8130 C   0  0  0  0  0  2  0  0  0  0  0  0
  195.7050  174.4070  139.7880 N   0  0  0  0  0  2  0  0  0  0  0  0
  195.6340  173.5890  138.6170 C   0  0  0  0  0  0  0  0  0  0  0  0
  196.6130  172.8740  138.2750 O   0  0  0  0  0  0  0  0  0  0  0  0
  196.8400  174.3780  140.6980 C   0  0  0  0  0  2  0  0  0  0  0  0
  196.4230  174.8140  142.0960 C   0  0  2  0  0  3  0  0  0  0  0  0
  197.3340  176.6770  143.2800 O   0  0  0  0  0  1  0  0  0  0  0  0
  196.7100  176.2760  142.2590 C   0  0  0  0  0  0  0  0  0  0  0  0
  196.2310  177.2030  141.3410 O   0  0  0  0  0  0  0  0  0  0  0  0
  197.1420  174.0230  143.1010 N   0  0  0  0  0  2  0  0  0  0  0  0
  197.0520  172.6100  145.1000 C   0  0  1  0  0  3  0  0  0  0  0  0
  195.9070  171.7810  142.2960 F   0  0  0  0  0  0  0  0  0  0  0  0
  196.2210  173.4030  144.0650 C   0  0  2  0  0  0  0  0  0  0  0  0
  195.5670  169.1850  146.2520 C   0  0  0  0  0  3  0  0  0  0  0  0
  194.0780  172.9070  143.0240 F   0  0  0  0  0  0  0  0  0  0  0  0
  195.2930  172.3610  143.3990 C   0  0  0  0  0  0  0  0  0  0  0  0
  196.9780  173.1810  146.3780 O   0  0  0  0  0  1  0  0  0  0  0  0
  194.7410  168.9780  145.2040 C   0  0  0  0  0  3  0  0  0  0  0  0
  194.6220  169.9510  144.0530 C   0  0  0  0  0  2  0  0  0  0  0  0
  196.4830  171.1940  145.0840 C   0  0  2  0  0  3  0  0  0  0  0  0
  195.1060  171.3310  144.4900 C   0  0  1  0  0  3  0  0  0  0  0  0
  196.3830  170.4520  146.4160 C   0  0  0  0  0  2  0  0  0  0  0  0
  195.4560  174.3840  144.7210 O   0  0  0  0  0  1  0  0  0  0  0  0
  190.3650  173.5060  140.7460 C   0  0  0  0  0  2  0  0  0  0  0  0
  189.0400  172.7880  140.9200 C   0  0  0  0  0  2  0  0  0  0  0  0
  188.1250  173.6230  141.7880 C   0  0  0  0  0  2  0  0  0  0  0  0
  188.2440  175.0270  141.4060 N   0  0  0  0  0  2  0  0  0  0  0  0
  189.1550  177.0800  142.2800 C   0  0  0  0  0  2  0  0  0  0  0  0
  186.8810  177.8730  141.9310 C   0  0  1  0  0  3  0  0  0  0  0  0
  188.2220  175.9300  142.5690 C   0  0  1  0  0  0  0  0  0  0  0  0
  186.8700  176.6040  142.7730 C   0  0  0  0  0  2  0  0  0  0  0  0
  188.3300  178.1150  141.5400 C   0  0  0  0  0  2  0  0  0  0  0  0
  186.0230  177.7340  140.7010 C   0  0  0  0  0  0  0  0  0  0  0  0
  184.6470  177.9090  140.7900 O   0  0  0  0  0  1  0  0  0  0  0  0
  186.5370  177.4310  139.5920 O   0  0  0  0  0  0  0  0  0  0  0  0
  188.7250  175.2330  143.8360 C   0  0  0  0  0  2  0  0  0  0  0  0
  189.5530  176.1430  144.7460 C   0  0  0  0  0  2  0  0  0  0  0  0
  189.4890  175.7070  146.2120 C   0  0  1  0  0  3  0  0  0  0  0  0
  191.2720  175.6670  147.9490 C   0  0  0  0  0  2  0  0  0  0  0  0
  190.3880  176.5630  147.0990 C   0  0  0  0  0  3  0  0  0  0  0  0
  191.8300  176.3270  146.7140 C   0  0  0  0  0  2  0  0  0  0  0  0
  188.0630  175.7230  146.7380 C   0  0  0  0  0  2  0  0  0  0  0  0
  187.4200  177.0630  146.4300 C   0  0  0  0  0  2  0  0  0  0  0  0
  185.9240  176.8650  146.2660 C   0  0  0  0  0  2  0  0  0  0  0  0
  184.6160  178.7230  147.4530 C   0  0  0  0  0  2  0  0  0  0  0  0
  185.2010  178.2050  146.2010 C   0  0  1  0  0  0  0  0  0  0  0  0
  185.8360  179.2190  146.9390 O   0  0  0  0  0  0  0  0  0  0  0  0
  184.6410  178.7180  144.8850 C   0  0  0  0  0  2  0  0  0  0  0  0
  185.4660  179.8840  144.3760 C   0  0  0  0  0  1  0  0  0  0  0  0
  2  7  1  1  0  0  0
  2  3  1  0  0  0  0
  2  6  1  0  0  0  0
  3  5  1  0  0  0  0
  4  1  1  0  0  0  0
  5 30  1  1  0  0  0
  5  1  1  0  0  0  0
  6  4  1  0  0  0  0
  7  9  1  0  0  0  0
  8 11  1  0  0  0  0
  9  8  1  0  0  0  0
 10  9  2  0  0  0  0
 12 11  1  6  0  0  0
 12 14  1  0  0  0  0
 12 16  1  0  0  0  0
 14 13  1  0  0  0  0
 15 14  2  0  0  0  0
 16 19  1  0  0  0  0
 17 23  1  1  0  0  0
 18 22  1  0  0  0  0
 19 29  1  1  0  0  0
 19 17  1  0  0  0  0
 20 28  1  0  0  0  0
 21 22  1  0  0  0  0
 22 19  1  0  0  0  0
 22 27  1  0  0  0  0
 24 20  2  0  0  0  0
 25 24  1  0  0  0  0
 26 17  1  0  0  0  0
 26 28  1  1  0  0  0
 27 25  1  6  0  0  0
 27 26  1  0  0  0  0
 30 31  1  0  0  0  0
 31 32  1  0  0  0  0
 33 32  1  0  0  0  0
 33 36  1  0  0  0  0
 34 36  1  0  0  0  0
 35 39  1  6  0  0  0
 35 37  1  0  0  0  0
 36 37  1  0  0  0  0
 36 42  1  1  0  0  0
 38 35  1  0  0  0  0
 38 34  1  0  0  0  0
 39 40  1  0  0  0  0
 41 39  2  0  0  0  0
 42 43  1  0  0  0  0
 44 43  1  6  0  0  0
 44 48  1  0  0  0  0
 44 46  1  0  0  0  0
 46 45  1  0  0  0  0
 47 46  1  0  0  0  0
 47 45  1  0  0  0  0
 49 48  1  0  0  0  0
 50 49  1  0  0  0  0
 52 54  1  6  0  0  0
 52 50  1  0  0  0  0
 52 53  1  0  0  0  0
 52 51  1  0  0  0  0
 53 51  1  0  0  0  0
 55 54  1  0  0  0  0
M  END
>  <MODEL>
7

>  <REMARK>
 VINA RESULT:      -5.1      2.570      6.707
  Name = 
  22 active torsions:
  status: ('A' for Active; 'I' for Inactive)
    1  A    between atoms: C_2  and  C_28
    2  A    between atoms: C_2  and  C_44
    3  A    between atoms: C_5  and  C_19
    4  A    between atoms: C_6  and  N_46
    5  A    between atoms: C_8  and  CA_22
    6  A    between atoms: C_8  and  N_35
    7  A    between atoms: C_10  and  C_32
    8  A    between atoms: C_15  and  C_17
    9  A    between atoms: C_16  and  C_17
   10  A    between atoms: C_16  and  C_26
   11  A    between atoms: C_17  and  C_36
   12  A    between atoms: C_19  and  C_45
   13  A    between atoms: C_20  and  CA_22
   14  A    between atoms: CA_22  and  N_46
   15  A    between atoms: C_26  and  C_45
   16  A    between atoms: C_27  and  C_54
   17  A    between atoms: C_28  and  C_33
   18  A    between atoms: C_33  and  N_49
   19  A    between atoms: C_34  and  N_49
   20  A    between atoms: C_34  and  C_52
   21  A    between atoms: C_36  and  C_52
   22  A    between atoms: C_43  and  C_54
                            x       y       z     vdW  Elec       q    Type
                         _______ _______ _______ _____ _____    ______ ____

>  <TORSDO>
F 22

$$$$
=
 OpenBabel11052419383D

 55 60  0  0  1  0  0  0  0  0999 V2000
  188.3410  178.3020  141.9940 C   0  0  0  0  0  2  0  0  0  0  0  0
  188.0890  175.3980  141.6130 C   0  0  2  0  0  3  0  0  0  0  0  0
  188.8610  175.9880  142.7890 C   0  0  0  0  0  2  0  0  0  0  0  0
  187.5760  177.7240  140.8070 C   0  0  0  0  0  2  0  0  0  0  0  0
  189.4560  177.3440  142.4060 C   0  0  2  0  0  3  0  0  0  0  0  0
  186.9840  176.3660  141.1720 C   0  0  0  0  0  2  0  0  0  0  0  0
  187.4880  174.0680  142.0380 C   0  0  0  0  0  2  0  0  0  0  0  0
  189.2330  172.7280  140.8000 N   0  0  0  0  0  2  0  0  0  0  0  0
  188.5180  172.9910  142.0090 C   0  0  0  0  0  0  0  0  0  0  0  0
  188.7700  172.3400  143.0580 O   0  0  0  0  0  0  0  0  0  0  0  0
  190.3470  171.7930  140.7340 C   0  0  0  0  0  2  0  0  0  0  0  0
  191.0330  171.8650  139.3770 C   0  0  2  0  0  3  0  0  0  0  0  0
  189.7220  170.0160  138.6260 O   0  0  0  0  0  1  0  0  0  0  0  0
  190.1850  171.1600  138.3620 C   0  0  0  0  0  0  0  0  0  0  0  0
  189.9650  171.7150  137.1070 O   0  0  0  0  0  0  0  0  0  0  0  0
  192.3670  171.2590  139.4580 N   0  0  0  0  0  2  0  0  0  0  0  0
  192.7860  173.6160  138.9360 C   0  0  1  0  0  3  0  0  0  0  0  0
  193.1220  171.2630  136.8840 F   0  0  0  0  0  0  0  0  0  0  0  0
  193.4220  172.2150  139.0890 C   0  0  2  0  0  0  0  0  0  0  0  0
  194.1310  175.8140  136.0000 C   0  0  0  0  0  3  0  0  0  0  0  0
  195.1830  171.1150  137.8190 F   0  0  0  0  0  0  0  0  0  0  0  0
  194.0430  171.8940  137.7100 C   0  0  0  0  0  0  0  0  0  0  0  0
  193.2290  174.5010  139.9290 O   0  0  0  0  0  1  0  0  0  0  0  0
  194.6520  174.8210  135.2470 C   0  0  0  0  0  3  0  0  0  0  0  0
  194.5920  173.3660  135.6580 C   0  0  0  0  0  2  0  0  0  0  0  0
  193.1800  174.0940  137.5420 C   0  0  2  0  0  3  0  0  0  0  0  0
  194.3780  173.2630  137.1650 C   0  0  1  0  0  3  0  0  0  0  0  0
  193.5200  175.5730  137.3660 C   0  0  0  0  0  2  0  0  0  0  0  0
  194.4230  172.2510  140.0750 O   0  0  0  0  0  1  0  0  0  0  0  0
  190.2180  177.9270  143.5820 C   0  0  0  0  0  2  0  0  0  0  0  0
  191.7130  177.7950  143.3550 C   0  0  0  0  0  2  0  0  0  0  0  0
  192.2980  176.8540  144.3820 C   0  0  0  0  0  2  0  0  0  0  0  0
  192.1200  175.4760  143.9330 N   0  0  0  0  0  2  0  0  0  0  0  0
  192.0020  173.1540  144.5670 C   0  0  0  0  0  2  0  0  0  0  0  0
  193.8570  173.7770  146.0140 C   0  0  1  0  0  3  0  0  0  0  0  0
  191.7600  174.5680  145.0350 C   0  0  1  0  0  0  0  0  0  0  0  0
  192.6750  174.7090  146.2460 C   0  0  0  0  0  2  0  0  0  0  0  0
  193.4550  172.8520  144.8760 C   0  0  0  0  0  2  0  0  0  0  0  0
  195.1060  174.5370  145.6540 C   0  0  0  0  0  0  0  0  0  0  0  0
  195.4150  174.7740  144.3200 O   0  0  0  0  0  0  0  0  0  0  0  0
  195.8940  174.9370  146.5510 O   0  0  0  0  0  1  0  0  0  0  0  0
  190.2790  174.6860  145.4050 C   0  0  0  0  0  2  0  0  0  0  0  0
  190.0390  174.9130  146.8990 C   0  0  0  0  0  2  0  0  0  0  0  0
  189.3240  176.2390  147.1740 C   0  0  1  0  0  3  0  0  0  0  0  0
  190.0570  178.2600  148.4300 C   0  0  0  0  0  2  0  0  0  0  0  0
  190.2960  177.4160  147.1910 C   0  0  0  0  0  3  0  0  0  0  0  0
  191.2070  177.2860  148.3890 C   0  0  0  0  0  2  0  0  0  0  0  0
  188.2100  176.4920  146.1710 C   0  0  0  0  0  2  0  0  0  0  0  0
  186.8760  176.5490  146.8940 C   0  0  0  0  0  2  0  0  0  0  0  0
  185.7720  176.7570  145.8730 C   0  0  0  0  0  2  0  0  0  0  0  0
  184.0950  178.6270  146.3870 C   0  0  0  0  0  2  0  0  0  0  0  0
  185.3820  178.2280  145.7850 C   0  0  1  0  0  0  0  0  0  0  0  0
  185.3280  178.8680  147.0350 O   0  0  0  0  0  0  0  0  0  0  0  0
  185.9740  179.1220  144.7080 C   0  0  0  0  0  2  0  0  0  0  0  0
  185.1580  179.0300  143.4330 C   0  0  0  0  0  1  0  0  0  0  0  0
  1  5  1  0  0  0  0
  2  7  1  1  0  0  0
  2  3  1  0  0  0  0
  4  6  1  0  0  0  0
  4  1  1  0  0  0  0
  5  3  1  0  0  0  0
  5 30  1  1  0  0  0
  6  2  1  0  0  0  0
  8  9  1  0  0  0  0
  9  7  1  0  0  0  0
  9 10  2  0  0  0  0
 11  8  1  0  0  0  0
 12 16  1  0  0  0  0
 12 11  1  1  0  0  0
 14 13  1  0  0  0  0
 14 12  1  0  0  0  0
 15 14  2  0  0  0  0
 17 19  1  0  0  0  0
 17 23  1  1  0  0  0
 18 22  1  0  0  0  0
 19 16  1  0  0  0  0
 19 29  1  1  0  0  0
 20 28  1  0  0  0  0
 22 21  1  0  0  0  0
 22 19  1  0  0  0  0
 24 25  1  0  0  0  0
 24 20  2  0  0  0  0
 26 28  1  1  0  0  0
 26 17  1  0  0  0  0
 27 25  1  6  0  0  0
 27 26  1  0  0  0  0
 27 22  1  0  0  0  0
 31 30  1  0  0  0  0
 31 32  1  0  0  0  0
 33 32  1  0  0  0  0
 33 36  1  0  0  0  0
 34 38  1  0  0  0  0
 34 36  1  0  0  0  0
 35 39  1  6  0  0  0
 35 37  1  0  0  0  0
 36 42  1  1  0  0  0
 36 37  1  0  0  0  0
 38 35  1  0  0  0  0
 39 41  1  0  0  0  0
 40 39  2  0  0  0  0
 42 43  1  0  0  0  0
 43 44  1  0  0  0  0
 44 48  1  6  0  0  0
 44 46  1  0  0  0  0
 46 47  1  0  0  0  0
 46 45  1  0  0  0  0
 47 45  1  0  0  0  0
 48 49  1  0  0  0  0
 50 49  1  0  0  0  0
 51 53  1  0  0  0  0
 52 54  1  6  0  0  0
 52 50  1  0  0  0  0
 52 51  1  0  0  0  0
 52 53  1  0  0  0  0
 55 54  1  0  0  0  0
M  END
>  <MODEL>
8

>  <REMARK>
 VINA RESULT:      -5.0      1.731      2.268
  Name = 
  22 active torsions:
  status: ('A' for Active; 'I' for Inactive)
    1  A    between atoms: C_2  and  C_28
    2  A    between atoms: C_2  and  C_44
    3  A    between atoms: C_5  and  C_19
    4  A    between atoms: C_6  and  N_46
    5  A    between atoms: C_8  and  CA_22
    6  A    between atoms: C_8  and  N_35
    7  A    between atoms: C_10  and  C_32
    8  A    between atoms: C_15  and  C_17
    9  A    between atoms: C_16  and  C_17
   10  A    between atoms: C_16  and  C_26
   11  A    between atoms: C_17  and  C_36
   12  A    between atoms: C_19  and  C_45
   13  A    between atoms: C_20  and  CA_22
   14  A    between atoms: CA_22  and  N_46
   15  A    between atoms: C_26  and  C_45
   16  A    between atoms: C_27  and  C_54
   17  A    between atoms: C_28  and  C_33
   18  A    between atoms: C_33  and  N_49
   19  A    between atoms: C_34  and  N_49
   20  A    between atoms: C_34  and  C_52
   21  A    between atoms: C_36  and  C_52
   22  A    between atoms: C_43  and  C_54
                            x       y       z     vdW  Elec       q    Type
                         _______ _______ _______ _____ _____    ______ ____

>  <TORSDO>
F 22

$$$$
=
 OpenBabel11052419383D

 55 60  0  0  1  0  0  0  0  0999 V2000
  188.3660  178.2620  142.0220 C   0  0  0  0  0  2  0  0  0  0  0  0
  188.0450  175.3620  141.6630 C   0  0  2  0  0  3  0  0  0  0  0  0
  188.8720  175.9410  142.8060 C   0  0  0  0  0  2  0  0  0  0  0  0
  187.5450  177.6940  140.8680 C   0  0  0  0  0  2  0  0  0  0  0  0
  189.4770  177.2840  142.3950 C   0  0  2  0  0  3  0  0  0  0  0  0
  186.9420  176.3490  141.2610 C   0  0  0  0  0  2  0  0  0  0  0  0
  187.4360  174.0440  142.1170 C   0  0  0  0  0  2  0  0  0  0  0  0
  189.1620  172.6910  140.8670 N   0  0  0  0  0  2  0  0  0  0  0  0
  188.4510  172.9540  142.0790 C   0  0  0  0  0  0  0  0  0  0  0  0
  188.6940  172.2910  143.1210 O   0  0  0  0  0  0  0  0  0  0  0  0
  190.2630  171.7420  140.7940 C   0  0  0  0  0  2  0  0  0  0  0  0
  190.9590  171.8260  139.4420 C   0  0  2  0  0  3  0  0  0  0  0  0
  192.1060  173.9060  139.6800 O   0  0  0  0  0  1  0  0  0  0  0  0
  191.1870  173.2670  139.0980 C   0  0  0  0  0  0  0  0  0  0  0  0
  190.3520  173.9280  138.2050 O   0  0  0  0  0  0  0  0  0  0  0  0
  190.1440  171.1640  138.4180 N   0  0  0  0  0  2  0  0  0  0  0  0
  192.1840  169.8140  138.5430 C   0  0  1  0  0  3  0  0  0  0  0  0
  191.5370  171.8290  136.2230 F   0  0  0  0  0  0  0  0  0  0  0  0
  190.8790  170.0750  137.7570 C   0  0  2  0  0  0  0  0  0  0  0  0
  195.3610  169.0260  136.4090 C   0  0  0  0  0  3  0  0  0  0  0  0
  190.4250  170.0480  135.3650 F   0  0  0  0  0  0  0  0  0  0  0  0
  191.3310  170.4590  136.3280 C   0  0  0  0  0  0  0  0  0  0  0  0
  192.1750  168.5580  139.1670 O   0  0  0  0  0  1  0  0  0  0  0  0
  194.9390  169.5620  135.2430 C   0  0  0  0  0  3  0  0  0  0  0  0
  193.5850  170.2160  135.0860 C   0  0  0  0  0  2  0  0  0  0  0  0
  193.3090  169.9220  137.5180 C   0  0  2  0  0  3  0  0  0  0  0  0
  192.6430  169.7230  136.1810 C   0  0  1  0  0  3  0  0  0  0  0  0
  194.4820  168.9510  137.6420 C   0  0  0  0  0  2  0  0  0  0  0  0
  190.1020  168.9040  137.7200 O   0  0  0  0  0  1  0  0  0  0  0  0
  190.2950  177.8560  143.5390 C   0  0  0  0  0  2  0  0  0  0  0  0
  191.7770  177.7050  143.2490 C   0  0  0  0  0  2  0  0  0  0  0  0
  192.3790  176.7070  144.2110 C   0  0  0  0  0  2  0  0  0  0  0  0
  192.0880  175.3530  143.7490 N   0  0  0  0  0  2  0  0  0  0  0  0
  191.9300  173.0230  144.3460 C   0  0  0  0  0  2  0  0  0  0  0  0
  193.9100  173.5480  145.6600 C   0  0  1  0  0  3  0  0  0  0  0  0
  191.7780  174.4350  144.8570 C   0  0  1  0  0  0  0  0  0  0  0  0
  192.7850  174.5170  145.9990 C   0  0  0  0  0  2  0  0  0  0  0  0
  193.3910  172.6620  144.5390 C   0  0  0  0  0  2  0  0  0  0  0  0
  195.1570  174.2700  145.2220 C   0  0  0  0  0  0  0  0  0  0  0  0
  195.3210  174.6270  143.8880 O   0  0  0  0  0  0  0  0  0  0  0  0
  196.0720  174.5290  146.0480 O   0  0  0  0  0  1  0  0  0  0  0  0
  190.3340  174.5980  145.3400 C   0  0  0  0  0  2  0  0  0  0  0  0
  190.2150  174.8120  146.8510 C   0  0  0  0  0  2  0  0  0  0  0  0
  189.5280  176.1360  147.1950 C   0  0  1  0  0  3  0  0  0  0  0  0
  190.2730  178.1860  148.3960 C   0  0  0  0  0  2  0  0  0  0  0  0
  190.5090  177.3050  147.1820 C   0  0  0  0  0  3  0  0  0  0  0  0
  191.4150  177.2020  148.3860 C   0  0  0  0  0  2  0  0  0  0  0  0
  188.3600  176.4190  146.2640 C   0  0  0  0  0  2  0  0  0  0  0  0
  187.0680  176.4420  147.0580 C   0  0  0  0  0  2  0  0  0  0  0  0
  185.9090  176.6750  146.1060 C   0  0  0  0  0  2  0  0  0  0  0  0
  184.3240  178.6100  146.6680 C   0  0  0  0  0  2  0  0  0  0  0  0
  185.5680  178.1570  146.0150 C   0  0  1  0  0  0  0  0  0  0  0  0
  185.5930  178.8140  147.2580 O   0  0  0  0  0  0  0  0  0  0  0  0
  186.1430  179.0160  144.9010 C   0  0  0  0  0  2  0  0  0  0  0  0
  185.2530  178.9610  143.6750 C   0  0  0  0  0  1  0  0  0  0  0  0
  1  5  1  0  0  0  0
  2  7  1  1  0  0  0
  2  3  1  0  0  0  0
  4  6  1  0  0  0  0
  4  1  1  0  0  0  0
  5  3  1  0  0  0  0
  5 30  1  1  0  0  0
  6  2  1  0  0  0  0
  8  9  1  0  0  0  0
  9  7  1  0  0  0  0
  9 10  2  0  0  0  0
 11  8  1  0  0  0  0
 12 11  1  1  0  0  0
 14 12  1  0  0  0  0
 14 13  1  0  0  0  0
 15 14  2  0  0  0  0
 16 12  1  0  0  0  0
 17 23  1  6  0  0  0
 18 22  1  0  0  0  0
 19 29  1  6  0  0  0
 19 16  1  0  0  0  0
 19 17  1  0  0  0  0
 20 28  1  0  0  0  0
 21 22  1  0  0  0  0
 22 19  1  0  0  0  0
 24 20  2  0  0  0  0
 25 24  1  0  0  0  0
 26 28  1  1  0  0  0
 26 17  1  0  0  0  0
 27 25  1  6  0  0  0
 27 22  1  0  0  0  0
 27 26  1  0  0  0  0
 31 30  1  0  0  0  0
 31 32  1  0  0  0  0
 33 32  1  0  0  0  0
 33 36  1  0  0  0  0
 34 38  1  0  0  0  0
 34 36  1  0  0  0  0
 35 39  1  6  0  0  0
 35 37  1  0  0  0  0
 36 42  1  1  0  0  0
 36 37  1  0  0  0  0
 38 35  1  0  0  0  0
 39 41  1  0  0  0  0
 40 39  2  0  0  0  0
 42 43  1  0  0  0  0
 43 44  1  0  0  0  0
 44 48  1  6  0  0  0
 46 44  1  0  0  0  0
 46 47  1  0  0  0  0
 46 45  1  0  0  0  0
 47 45  1  0  0  0  0
 48 49  1  0  0  0  0
 50 49  1  0  0  0  0
 51 53  1  0  0  0  0
 52 54  1  6  0  0  0
 52 50  1  0  0  0  0
 52 51  1  0  0  0  0
 52 53  1  0  0  0  0
 55 54  1  0  0  0  0
M  END
>  <MODEL>
9

>  <REMARK>
 VINA RESULT:      -5.0      2.145      3.386
  Name = 
  22 active torsions:
  status: ('A' for Active; 'I' for Inactive)
    1  A    between atoms: C_2  and  C_28
    2  A    between atoms: C_2  and  C_44
    3  A    between atoms: C_5  and  C_19
    4  A    between atoms: C_6  and  N_46
    5  A    between atoms: C_8  and  CA_22
    6  A    between atoms: C_8  and  N_35
    7  A    between atoms: C_10  and  C_32
    8  A    between atoms: C_15  and  C_17
    9  A    between atoms: C_16  and  C_17
   10  A    between atoms: C_16  and  C_26
   11  A    between atoms: C_17  and  C_36
   12  A    between atoms: C_19  and  C_45
   13  A    between atoms: C_20  and  CA_22
   14  A    between atoms: CA_22  and  N_46
   15  A    between atoms: C_26  and  C_45
   16  A    between atoms: C_27  and  C_54
   17  A    between atoms: C_28  and  C_33
   18  A    between atoms: C_33  and  N_49
   19  A    between atoms: C_34  and  N_49
   20  A    between atoms: C_34  and  C_52
   21  A    between atoms: C_36  and  C_52
   22  A    between atoms: C_43  and  C_54
                            x       y       z     vdW  Elec       q    Type
                         _______ _______ _______ _____ _____    ______ ____

>  <TORSDO>
F 22

$$$$
