=
 OpenBabel11052418533D

 34 40  0  0  1  0  0  0  0  0999 V2000
  194.6230  176.4720  144.5030 C   0  0  2  0  0  3  0  0  0  0  0  0
  193.1250  175.6490  142.9060 C   0  0  2  0  0  3  0  0  0  0  0  0
  192.2330  176.2120  145.1640 C   0  0  1  0  0  3  0  0  0  0  0  0
  189.8030  175.2320  145.5370 C   0  0  2  0  0  0  0  0  0  0  0  0
  194.4410  175.0520  142.7380 N   0  0  0  0  0  0  0  0  0  0  0  0
  194.8690  175.3300  141.3750 C   0  0  0  0  0  1  0  0  0  0  0  0
  190.9900  174.7100  143.6640 C   0  0  0  0  0  0  0  0  0  0  0  0
  193.2050  176.2590  144.2320 C   0  0  1  0  0  3  0  0  0  0  0  0
  188.9910  174.2020  144.7570 C   0  0  0  0  0  2  0  0  0  0  0  0
  195.3410  175.6760  143.5780 O   0  0  0  0  0  0  0  0  0  0  0  0
  194.0220  176.8790  146.8670 C   0  0  0  0  0  2  0  0  0  0  0  0
  194.9510  176.0910  145.9430 C   0  0  0  0  0  2  0  0  0  0  0  0
  192.0910  174.6560  142.8060 O   0  0  0  0  0  0  0  0  0  0  0  0
  190.0340  174.8660  146.9820 C   0  0  0  0  0  2  0  0  0  0  0  0
  189.3070  176.1680  146.6220 C   0  0  2  0  0  3  0  0  0  0  0  0
  189.9030  173.9550  143.5880 C   0  0  0  0  0  0  0  0  0  0  0  0
  191.0060  175.5620  144.7910 N   0  0  0  0  0  0  0  0  0  0  0  0
  192.5440  176.5360  146.6080 C   0  0  0  0  0  2  0  0  0  0  0  0
  187.8160  175.9900  146.8600 C   0  0  0  0  0  2  0  0  0  0  0  0
  184.5180  178.6070  146.1880 N   0  0  0  0  0  2  0  0  0  0  0  0
  185.1250  177.9970  145.0060 C   0  0  0  0  0  2  0  0  0  0  0  0
  185.9570  176.7830  145.4100 C   0  0  0  0  0  2  0  0  0  0  0  0
  186.4390  177.9610  147.5660 C   0  0  0  0  0  2  0  0  0  0  0  0
  187.0530  177.2140  146.3800 C   0  0  0  0  0  3  0  0  0  0  0  0
  185.5820  179.1160  147.0510 C   0  0  0  0  0  2  0  0  0  0  0  0
  189.6760  172.9100  142.5470 C   0  0  0  0  0  2  0  0  0  0  0  0
  187.9820  173.0340  141.8900 S   0  0  0  0  0  0  0  0  0  0  0  0
  188.5680  173.4170  140.2170 C   0  0  0  0  0  2  0  0  0  0  0  0
  188.1450  174.8230  139.8410 C   0  0  0  0  0  2  0  0  0  0  0  0
  188.2930  175.6640  140.9430 O   0  0  0  0  0  0  0  0  0  0  0  0
  188.4840  177.5450  142.8440 C   0  0  0  0  0  1  0  0  0  0  0  0
  187.3940  177.7370  141.7980 C   0  0  1  0  0  3  0  0  0  0  0  0
  187.3190  176.6540  140.7680 C   0  0  2  0  0  3  0  0  0  0  0  0
  186.4710  176.6760  141.8910 O   0  0  0  0  0  0  0  0  0  0  0  0
  1 12  1  1  0  0  0
  2 13  1  1  0  0  0
  2  8  1  0  0  0  0
  3 18  1  1  0  0  0
  4  9  1  6  0  0  0
  4 15  1  0  0  0  0
  4 14  1  0  0  0  0
  5  2  1  0  0  0  0
  5 10  1  0  0  0  0
  6  5  1  0  0  0  0
  7 17  1  0  0  0  0
  8  1  1  0  0  0  0
  8  3  1  0  0  0  0
 10  1  1  0  0  0  0
 12 11  1  0  0  0  0
 13  7  1  0  0  0  0
 15 19  1  0  0  0  0
 15 14  1  0  0  0  0
 16  7  2  0  0  0  0
 16  9  1  0  0  0  0
 17  3  1  0  0  0  0
 17  4  1  0  0  0  0
 18 11  1  0  0  0  0
 20 25  1  0  0  0  0
 21 22  1  0  0  0  0
 21 20  1  0  0  0  0
 22 24  1  0  0  0  0
 24 19  1  0  0  0  0
 24 23  1  0  0  0  0
 25 23  1  0  0  0  0
 26 16  1  0  0  0  0
 27 26  1  0  0  0  0
 28 27  1  0  0  0  0
 29 28  1  0  0  0  0
 29 30  1  0  0  0  0
 32 34  1  0  0  0  0
 32 31  1  0  0  0  0
 33 30  1  0  0  0  0
 33 32  1  0  0  0  0
 33 34  1  0  0  0  0
M  END
>  <MODEL>
1

>  <REMARK>
 VINA RESULT:      -7.2      0.000      0.000
  Name = 
  8 active torsions:
  status: ('A' for Active; 'I' for Inactive)
    1  A    between atoms: S_3  and  C_13
    2  A    between atoms: S_3  and  C_17
    3  A    between atoms: C_12  and  C_27
    4  A    between atoms: C_12  and  C_28
    5  A    between atoms: C_13  and  C_33
    6  A    between atoms: C_17  and  C_29
    7  A    between atoms: C_20  and  O_34
    8  A    between atoms: C_33  and  O_34
                            x       y       z     vdW  Elec       q    Type
                         _______ _______ _______ _____ _____    ______ ____

>  <TORSDO>
F 8

$$$$
=
 OpenBabel11052418533D

 34 40  0  0  1  0  0  0  0  0999 V2000
  194.7670  176.5010  144.4320 C   0  0  2  0  0  3  0  0  0  0  0  0
  193.2460  176.4210  142.6560 C   0  0  2  0  0  3  0  0  0  0  0  0
  192.3410  176.3050  144.9740 C   0  0  1  0  0  3  0  0  0  0  0  0
  189.8100  175.5320  145.0080 C   0  0  2  0  0  0  0  0  0  0  0  0
  194.4980  175.7700  142.2970 N   0  0  0  0  0  0  0  0  0  0  0  0
  194.9990  176.4310  141.1020 C   0  0  0  0  0  1  0  0  0  0  0  0
  191.0000  175.5270  143.0650 C   0  0  0  0  0  0  0  0  0  0  0  0
  193.3440  176.5470  144.1080 C   0  0  1  0  0  3  0  0  0  0  0  0
  188.9210  174.9120  143.9330 C   0  0  0  0  0  2  0  0  0  0  0  0
  195.4280  175.9790  143.2940 O   0  0  0  0  0  0  0  0  0  0  0  0
  194.1300  176.1730  146.7990 C   0  0  0  0  0  2  0  0  0  0  0  0
  195.0030  175.6340  145.6630 C   0  0  0  0  0  2  0  0  0  0  0  0
  192.1180  175.6360  142.2360 O   0  0  0  0  0  0  0  0  0  0  0  0
  189.9510  174.6880  146.2500 C   0  0  0  0  0  2  0  0  0  0  0  0
  189.3780  176.1070  146.3430 C   0  0  2  0  0  3  0  0  0  0  0  0
  189.8430  174.9640  142.7460 C   0  0  0  0  0  0  0  0  0  0  0  0
  191.0660  175.9530  144.4110 N   0  0  0  0  0  0  0  0  0  0  0  0
  192.6350  176.1000  146.4440 C   0  0  0  0  0  2  0  0  0  0  0  0
  187.8690  176.0280  146.5110 C   0  0  0  0  0  2  0  0  0  0  0  0
  184.8830  179.0350  146.0460 N   0  0  0  0  0  2  0  0  0  0  0  0
  185.9360  178.9910  145.0330 C   0  0  0  0  0  2  0  0  0  0  0  0
  186.6420  177.6380  145.0680 C   0  0  0  0  0  2  0  0  0  0  0  0
  186.1840  177.5790  147.5280 C   0  0  0  0  0  2  0  0  0  0  0  0
  187.2540  177.4160  146.4470 C   0  0  0  0  0  3  0  0  0  0  0  0
  185.5010  178.9360  147.3680 C   0  0  0  0  0  2  0  0  0  0  0  0
  189.5430  174.3520  141.4190 C   0  0  0  0  0  2  0  0  0  0  0  0
  188.2260  173.1050  141.5840 S   0  0  0  0  0  0  0  0  0  0  0  0
  189.3280  171.9250  142.4080 C   0  0  0  0  0  2  0  0  0  0  0  0
  190.5180  171.6350  141.5160 C   0  0  0  0  0  2  0  0  0  0  0  0
  191.6970  171.8190  142.2380 O   0  0  0  0  0  0  0  0  0  0  0  0
  193.6200  172.7750  143.8420 C   0  0  0  0  0  1  0  0  0  0  0  0
  192.3400  172.2990  144.5150 C   0  0  1  0  0  3  0  0  0  0  0  0
  191.3040  171.7610  143.5810 C   0  0  2  0  0  3  0  0  0  0  0  0
  192.1820  170.9180  144.2860 O   0  0  0  0  0  0  0  0  0  0  0  0
  1 12  1  1  0  0  0
  2 13  1  1  0  0  0
  2  8  1  0  0  0  0
  3 18  1  1  0  0  0
  4  9  1  6  0  0  0
  4 14  1  0  0  0  0
  4 15  1  0  0  0  0
  5  2  1  0  0  0  0
  5 10  1  0  0  0  0
  6  5  1  0  0  0  0
  7 17  1  0  0  0  0
  8  1  1  0  0  0  0
  8  3  1  0  0  0  0
 10  1  1  0  0  0  0
 12 11  1  0  0  0  0
 13  7  1  0  0  0  0
 14 15  1  0  0  0  0
 15 19  1  0  0  0  0
 16  7  2  0  0  0  0
 16  9  1  0  0  0  0
 17  3  1  0  0  0  0
 17  4  1  0  0  0  0
 18 11  1  0  0  0  0
 20 25  1  0  0  0  0
 21 22  1  0  0  0  0
 21 20  1  0  0  0  0
 22 24  1  0  0  0  0
 24 19  1  0  0  0  0
 24 23  1  0  0  0  0
 25 23  1  0  0  0  0
 26 27  1  0  0  0  0
 26 16  1  0  0  0  0
 27 28  1  0  0  0  0
 29 30  1  0  0  0  0
 29 28  1  0  0  0  0
 30 33  1  0  0  0  0
 31 32  1  0  0  0  0
 33 34  1  0  0  0  0
 33 32  1  0  0  0  0
 34 32  1  0  0  0  0
M  END
>  <MODEL>
2

>  <REMARK>
 VINA RESULT:      -7.2      1.744      2.986
  Name = 
  8 active torsions:
  status: ('A' for Active; 'I' for Inactive)
    1  A    between atoms: S_3  and  C_13
    2  A    between atoms: S_3  and  C_17
    3  A    between atoms: C_12  and  C_27
    4  A    between atoms: C_12  and  C_28
    5  A    between atoms: C_13  and  C_33
    6  A    between atoms: C_17  and  C_29
    7  A    between atoms: C_20  and  O_34
    8  A    between atoms: C_33  and  O_34
                            x       y       z     vdW  Elec       q    Type
                         _______ _______ _______ _____ _____    ______ ____

>  <TORSDO>
F 8

$$$$
=
 OpenBabel11052418533D

 34 40  0  0  1  0  0  0  0  0999 V2000
  190.2090  172.7090  139.7300 C   0  0  2  0  0  3  0  0  0  0  0  0
  191.6500  173.0710  141.5380 C   0  0  2  0  0  3  0  0  0  0  0  0
  189.5740  174.4430  141.4050 C   0  0  1  0  0  3  0  0  0  0  0  0
  189.6440  176.5020  143.0680 C   0  0  2  0  0  0  0  0  0  0  0  0
  192.3980  172.7110  140.3420 N   0  0  0  0  0  0  0  0  0  0  0  0
  193.1900  171.5350  140.6690 C   0  0  0  0  0  1  0  0  0  0  0  0
  191.4760  175.1770  142.7820 C   0  0  0  0  0  0  0  0  0  0  0  0
  190.3250  173.3960  141.0130 C   0  0  1  0  0  3  0  0  0  0  0  0
  190.7860  177.1270  143.8640 C   0  0  0  0  0  2  0  0  0  0  0  0
  191.5200  172.3400  139.3440 O   0  0  0  0  0  0  0  0  0  0  0  0
  188.2180  174.0990  139.2630 C   0  0  0  0  0  2  0  0  0  0  0  0
  189.5560  173.6210  138.6970 C   0  0  0  0  0  2  0  0  0  0  0  0
  192.2680  174.1730  142.2210 O   0  0  0  0  0  0  0  0  0  0  0  0
  188.9620  177.4550  142.1190 C   0  0  0  0  0  2  0  0  0  0  0  0
  188.1590  176.7610  143.2260 C   0  0  2  0  0  3  0  0  0  0  0  0
  191.9000  176.1640  143.5590 C   0  0  0  0  0  0  0  0  0  0  0  0
  190.1010  175.2610  142.4630 N   0  0  0  0  0  0  0  0  0  0  0  0
  188.4090  174.9070  140.5590 C   0  0  0  0  0  2  0  0  0  0  0  0
  187.8920  177.7530  144.3470 C   0  0  0  0  0  2  0  0  0  0  0  0
  184.4370  178.3360  146.7760 N   0  0  0  0  0  2  0  0  0  0  0  0
  184.8900  176.9570  146.5960 C   0  0  0  0  0  2  0  0  0  0  0  0
  186.3360  176.9380  146.1070 C   0  0  0  0  0  2  0  0  0  0  0  0
  185.8560  179.0920  144.9260 C   0  0  0  0  0  2  0  0  0  0  0  0
  186.4380  177.6850  144.7810 C   0  0  0  0  0  3  0  0  0  0  0  0
  184.4330  179.0020  145.4750 C   0  0  0  0  0  2  0  0  0  0  0  0
  193.3200  176.3600  143.9710 C   0  0  0  0  0  2  0  0  0  0  0  0
  193.7890  175.1230  145.2220 S   0  0  0  0  0  0  0  0  0  0  0  0
  193.9160  176.3710  146.5310 C   0  0  0  0  0  2  0  0  0  0  0  0
  192.5840  176.4980  147.2420 C   0  0  0  0  0  2  0  0  0  0  0  0
  191.7920  175.3890  146.9470 O   0  0  0  0  0  0  0  0  0  0  0  0
  189.6670  174.1220  145.9130 C   0  0  0  0  0  1  0  0  0  0  0  0
  189.4670  174.8110  147.2560 C   0  0  1  0  0  3  0  0  0  0  0  0
  190.6760  175.5160  147.7840 C   0  0  2  0  0  3  0  0  0  0  0  0
  189.6550  176.1990  147.0970 O   0  0  0  0  0  0  0  0  0  0  0  0
  1 12  1  6  0  0  0
  1  8  1  0  0  0  0
  2 13  1  6  0  0  0
  3 18  1  6  0  0  0
  3 17  1  0  0  0  0
  4 14  1  6  0  0  0
  4 15  1  0  0  0  0
  4  9  1  0  0  0  0
  5  6  1  0  0  0  0
  5  2  1  0  0  0  0
  7 16  2  0  0  0  0
  8  3  1  0  0  0  0
  8  2  1  0  0  0  0
 10  1  1  0  0  0  0
 10  5  1  0  0  0  0
 11 18  1  0  0  0  0
 12 11  1  0  0  0  0
 13  7  1  0  0  0  0
 14 15  1  0  0  0  0
 15 19  1  0  0  0  0
 16  9  1  0  0  0  0
 16 26  1  0  0  0  0
 17  7  1  0  0  0  0
 17  4  1  0  0  0  0
 19 24  1  0  0  0  0
 21 20  1  0  0  0  0
 22 21  1  0  0  0  0
 23 25  1  0  0  0  0
 24 23  1  0  0  0  0
 24 22  1  0  0  0  0
 25 20  1  0  0  0  0
 26 27  1  0  0  0  0
 27 28  1  0  0  0  0
 28 29  1  0  0  0  0
 30 29  1  0  0  0  0
 30 33  1  0  0  0  0
 31 32  1  0  0  0  0
 32 33  1  0  0  0  0
 34 32  1  0  0  0  0
 34 33  1  0  0  0  0
M  END
>  <MODEL>
3

>  <REMARK>
 VINA RESULT:      -6.9      2.423      5.406
  Name = 
  8 active torsions:
  status: ('A' for Active; 'I' for Inactive)
    1  A    between atoms: S_3  and  C_13
    2  A    between atoms: S_3  and  C_17
    3  A    between atoms: C_12  and  C_27
    4  A    between atoms: C_12  and  C_28
    5  A    between atoms: C_13  and  C_33
    6  A    between atoms: C_17  and  C_29
    7  A    between atoms: C_20  and  O_34
    8  A    between atoms: C_33  and  O_34
                            x       y       z     vdW  Elec       q    Type
                         _______ _______ _______ _____ _____    ______ ____

>  <TORSDO>
F 8

$$$$
=
 OpenBabel11052418533D

 34 40  0  0  1  0  0  0  0  0999 V2000
  194.7740  176.4650  144.4210 C   0  0  2  0  0  3  0  0  0  0  0  0
  193.3020  176.3620  142.6060 C   0  0  2  0  0  3  0  0  0  0  0  0
  192.3340  176.2810  144.9000 C   0  0  1  0  0  3  0  0  0  0  0  0
  189.8010  175.5130  144.8760 C   0  0  2  0  0  0  0  0  0  0  0  0
  194.5610  175.7030  142.2900 N   0  0  0  0  0  0  0  0  0  0  0  0
  195.0970  176.3460  141.1000 C   0  0  0  0  0  1  0  0  0  0  0  0
  191.0430  175.4780  142.9670 C   0  0  0  0  0  0  0  0  0  0  0  0
  193.3600  176.5090  144.0580 C   0  0  1  0  0  3  0  0  0  0  0  0
  188.9410  174.8790  143.7860 C   0  0  0  0  0  2  0  0  0  0  0  0
  195.4650  175.9260  143.3100 O   0  0  0  0  0  0  0  0  0  0  0  0
  194.0720  176.1730  146.7740 C   0  0  0  0  0  2  0  0  0  0  0  0
  194.9750  175.6160  145.6710 C   0  0  0  0  0  2  0  0  0  0  0  0
  192.1840  175.5730  142.1670 O   0  0  0  0  0  0  0  0  0  0  0  0
  189.9060  174.6870  146.1340 C   0  0  0  0  0  2  0  0  0  0  0  0
  189.3340  176.1090  146.1900 C   0  0  2  0  0  3  0  0  0  0  0  0
  189.8940  174.9120  142.6240 C   0  0  0  0  0  0  0  0  0  0  0  0
  191.0740  175.9240  144.3070 N   0  0  0  0  0  0  0  0  0  0  0  0
  192.5870  176.0970  146.3800 C   0  0  0  0  0  2  0  0  0  0  0  0
  187.8210  176.0350  146.3180 C   0  0  0  0  0  2  0  0  0  0  0  0
  184.8620  179.0800  145.9340 N   0  0  0  0  0  2  0  0  0  0  0  0
  185.9230  179.0620  144.9280 C   0  0  0  0  0  2  0  0  0  0  0  0
  186.6190  177.7040  144.9210 C   0  0  0  0  0  2  0  0  0  0  0  0
  186.1400  177.5630  147.3740 C   0  0  0  0  0  2  0  0  0  0  0  0
  187.2180  177.4290  146.2970 C   0  0  0  0  0  3  0  0  0  0  0  0
  185.4680  178.9300  147.2560 C   0  0  0  0  0  2  0  0  0  0  0  0
  189.6290  174.2810  141.2990 C   0  0  0  0  0  2  0  0  0  0  0  0
  188.4180  172.9330  141.4740 S   0  0  0  0  0  0  0  0  0  0  0  0
  188.1990  172.7820  139.6800 C   0  0  0  0  0  2  0  0  0  0  0  0
  189.1320  173.7440  138.9730 C   0  0  0  0  0  2  0  0  0  0  0  0
  189.0930  173.5050  137.6000 O   0  0  0  0  0  0  0  0  0  0  0  0
  189.4520  171.5910  135.7560 C   0  0  0  0  0  1  0  0  0  0  0  0
  190.6850  172.3800  136.1740 C   0  0  1  0  0  3  0  0  0  0  0  0
  190.4370  173.4250  137.2150 C   0  0  2  0  0  3  0  0  0  0  0  0
  190.9400  172.1520  137.5410 O   0  0  0  0  0  0  0  0  0  0  0  0
  1 12  1  1  0  0  0
  2 13  1  1  0  0  0
  2  8  1  0  0  0  0
  3 18  1  1  0  0  0
  4  9  1  6  0  0  0
  4 14  1  0  0  0  0
  4 15  1  0  0  0  0
  5  2  1  0  0  0  0
  5 10  1  0  0  0  0
  6  5  1  0  0  0  0
  7 17  1  0  0  0  0
  8  1  1  0  0  0  0
  8  3  1  0  0  0  0
 10  1  1  0  0  0  0
 12 11  1  0  0  0  0
 13  7  1  0  0  0  0
 14 15  1  0  0  0  0
 15 19  1  0  0  0  0
 16  7  2  0  0  0  0
 16  9  1  0  0  0  0
 17  4  1  0  0  0  0
 17  3  1  0  0  0  0
 18 11  1  0  0  0  0
 20 25  1  0  0  0  0
 21 20  1  0  0  0  0
 22 21  1  0  0  0  0
 22 24  1  0  0  0  0
 24 19  1  0  0  0  0
 24 23  1  0  0  0  0
 25 23  1  0  0  0  0
 26 27  1  0  0  0  0
 26 16  1  0  0  0  0
 28 27  1  0  0  0  0
 29 28  1  0  0  0  0
 30 29  1  0  0  0  0
 31 32  1  0  0  0  0
 32 33  1  0  0  0  0
 32 34  1  0  0  0  0
 33 34  1  0  0  0  0
 33 30  1  0  0  0  0
M  END
>  <MODEL>
4

>  <REMARK>
 VINA RESULT:      -6.6      1.938      2.919
  Name = 
  8 active torsions:
  status: ('A' for Active; 'I' for Inactive)
    1  A    between atoms: S_3  and  C_13
    2  A    between atoms: S_3  and  C_17
    3  A    between atoms: C_12  and  C_27
    4  A    between atoms: C_12  and  C_28
    5  A    between atoms: C_13  and  C_33
    6  A    between atoms: C_17  and  C_29
    7  A    between atoms: C_20  and  O_34
    8  A    between atoms: C_33  and  O_34
                            x       y       z     vdW  Elec       q    Type
                         _______ _______ _______ _____ _____    ______ ____

>  <TORSDO>
F 8

$$$$
=
 OpenBabel11052418533D

 34 40  0  0  1  0  0  0  0  0999 V2000
  194.7070  176.5770  144.5170 C   0  0  2  0  0  3  0  0  0  0  0  0
  193.2060  176.4230  142.7290 C   0  0  2  0  0  3  0  0  0  0  0  0
  192.2790  176.3660  145.0420 C   0  0  1  0  0  3  0  0  0  0  0  0
  189.7580  175.5600  145.0730 C   0  0  2  0  0  0  0  0  0  0  0  0
  194.4700  175.7780  142.4030 N   0  0  0  0  0  0  0  0  0  0  0  0
  194.9750  176.4090  141.1940 C   0  0  0  0  0  1  0  0  0  0  0  0
  190.9680  175.5120  143.1440 C   0  0  0  0  0  0  0  0  0  0  0  0
  193.2870  176.5950  144.1780 C   0  0  1  0  0  3  0  0  0  0  0  0
  188.8890  174.8960  144.0090 C   0  0  0  0  0  2  0  0  0  0  0  0
  195.3870  176.0300  143.4030 O   0  0  0  0  0  0  0  0  0  0  0  0
  194.0510  176.3130  146.8870 C   0  0  0  0  0  2  0  0  0  0  0  0
  194.9420  175.7520  145.7770 C   0  0  0  0  0  2  0  0  0  0  0  0
  192.0930  175.6110  142.3230 O   0  0  0  0  0  0  0  0  0  0  0  0
  189.8970  174.7560  146.3420 C   0  0  0  0  0  2  0  0  0  0  0  0
  189.3050  176.1700  146.3860 C   0  0  2  0  0  3  0  0  0  0  0  0
  189.8210  174.9240  142.8300 C   0  0  0  0  0  0  0  0  0  0  0  0
  191.0150  175.9800  144.4760 N   0  0  0  0  0  0  0  0  0  0  0  0
  192.5600  176.2100  146.5190 C   0  0  0  0  0  2  0  0  0  0  0  0
  187.7960  176.0760  146.5410 C   0  0  0  0  0  2  0  0  0  0  0  0
  184.7950  179.0350  145.8920 N   0  0  0  0  0  2  0  0  0  0  0  0
  185.9060  179.0040  144.9410 C   0  0  0  0  0  2  0  0  0  0  0  0
  186.6300  177.6630  145.0230 C   0  0  0  0  0  2  0  0  0  0  0  0
  186.0300  177.6030  147.4520 C   0  0  0  0  0  2  0  0  0  0  0  0
  187.1640  177.4540  146.4360 C   0  0  0  0  0  3  0  0  0  0  0  0
  185.3360  178.9480  147.2480 C   0  0  0  0  0  2  0  0  0  0  0  0
  189.5430  174.2670  141.5200 C   0  0  0  0  0  2  0  0  0  0  0  0
  188.5960  172.7330  141.7730 S   0  0  0  0  0  0  0  0  0  0  0  0
  190.0400  171.8480  142.4210 C   0  0  0  0  0  2  0  0  0  0  0  0
  190.6430  170.9920  141.3250 C   0  0  0  0  0  2  0  0  0  0  0  0
  190.0650  171.3270  140.1020 O   0  0  0  0  0  0  0  0  0  0  0  0
  189.3760  172.6970  137.9020 C   0  0  0  0  0  1  0  0  0  0  0  0
  190.8120  172.1950  137.9750 C   0  0  1  0  0  3  0  0  0  0  0  0
  191.1440  171.4240  139.2130 C   0  0  2  0  0  3  0  0  0  0  0  0
  190.8090  170.7860  138.0040 O   0  0  0  0  0  0  0  0  0  0  0  0
  1 12  1  1  0  0  0
  2 13  1  1  0  0  0
  2  8  1  0  0  0  0
  3 18  1  1  0  0  0
  4  9  1  6  0  0  0
  4 14  1  0  0  0  0
  4 15  1  0  0  0  0
  5  2  1  0  0  0  0
  5 10  1  0  0  0  0
  6  5  1  0  0  0  0
  7 17  1  0  0  0  0
  8  1  1  0  0  0  0
  8  3  1  0  0  0  0
 10  1  1  0  0  0  0
 12 11  1  0  0  0  0
 13  7  1  0  0  0  0
 14 15  1  0  0  0  0
 15 19  1  0  0  0  0
 16  7  2  0  0  0  0
 16  9  1  0  0  0  0
 17  3  1  0  0  0  0
 17  4  1  0  0  0  0
 18 11  1  0  0  0  0
 20 25  1  0  0  0  0
 21 22  1  0  0  0  0
 21 20  1  0  0  0  0
 22 24  1  0  0  0  0
 24 19  1  0  0  0  0
 24 23  1  0  0  0  0
 25 23  1  0  0  0  0
 26 27  1  0  0  0  0
 26 16  1  0  0  0  0
 27 28  1  0  0  0  0
 29 28  1  0  0  0  0
 30 29  1  0  0  0  0
 31 32  1  0  0  0  0
 32 34  1  0  0  0  0
 32 33  1  0  0  0  0
 33 30  1  0  0  0  0
 34 33  1  0  0  0  0
M  END
>  <MODEL>
5

>  <REMARK>
 VINA RESULT:      -6.5      1.838      2.923
  Name = 
  8 active torsions:
  status: ('A' for Active; 'I' for Inactive)
    1  A    between atoms: S_3  and  C_13
    2  A    between atoms: S_3  and  C_17
    3  A    between atoms: C_12  and  C_27
    4  A    between atoms: C_12  and  C_28
    5  A    between atoms: C_13  and  C_33
    6  A    between atoms: C_17  and  C_29
    7  A    between atoms: C_20  and  O_34
    8  A    between atoms: C_33  and  O_34
                            x       y       z     vdW  Elec       q    Type
                         _______ _______ _______ _____ _____    ______ ____

>  <TORSDO>
F 8

$$$$
=
 OpenBabel11052418533D

 34 40  0  0  1  0  0  0  0  0999 V2000
  190.1050  172.3970  141.0140 C   0  0  2  0  0  3  0  0  0  0  0  0
  191.1290  173.2420  142.9400 C   0  0  2  0  0  3  0  0  0  0  0  0
  189.1620  174.4700  142.0280 C   0  0  1  0  0  3  0  0  0  0  0  0
  188.9180  176.8780  143.1010 C   0  0  2  0  0  0  0  0  0  0  0  0
  192.1100  172.6220  142.0610 N   0  0  0  0  0  0  0  0  0  0  0  0
  192.7860  171.5900  142.8330 C   0  0  0  0  0  1  0  0  0  0  0  0
  190.7370  175.5840  143.5540 C   0  0  0  0  0  0  0  0  0  0  0  0
  189.9560  173.3840  142.0800 C   0  0  1  0  0  3  0  0  0  0  0  0
  189.8740  177.7180  143.9420 C   0  0  0  0  0  2  0  0  0  0  0  0
  191.4600  171.9870  141.0220 O   0  0  0  0  0  0  0  0  0  0  0  0
  188.2930  173.5620  139.7990 C   0  0  0  0  0  2  0  0  0  0  0  0
  189.7120  173.0030  139.6710 C   0  0  0  0  0  2  0  0  0  0  0  0
  191.6100  174.4990  143.4430 O   0  0  0  0  0  0  0  0  0  0  0  0
  188.4780  177.5430  141.8210 C   0  0  0  0  0  2  0  0  0  0  0  0
  187.4390  177.1200  142.8670 C   0  0  2  0  0  3  0  0  0  0  0  0
  191.0050  176.7460  144.1330 C   0  0  0  0  0  0  0  0  0  0  0  0
  189.4670  175.5420  142.9370 N   0  0  0  0  0  0  0  0  0  0  0  0
  188.2180  174.6710  140.8630 C   0  0  0  0  0  2  0  0  0  0  0  0
  186.9590  178.3490  143.6220 C   0  0  0  0  0  2  0  0  0  0  0  0
  184.8830  178.5390  147.3410 N   0  0  0  0  0  2  0  0  0  0  0  0
  185.8130  177.4260  147.1630 C   0  0  0  0  0  2  0  0  0  0  0  0
  186.7830  177.7280  146.0230 C   0  0  0  0  0  2  0  0  0  0  0  0
  184.9400  179.0310  144.9400 C   0  0  0  0  0  2  0  0  0  0  0  0
  186.0010  177.9490  144.7320 C   0  0  0  0  0  3  0  0  0  0  0  0
  184.0640  178.6630  146.1360 C   0  0  0  0  0  2  0  0  0  0  0  0
  192.3070  177.0840  144.7780 C   0  0  0  0  0  2  0  0  0  0  0  0
  192.3720  176.3970  146.4630 S   0  0  0  0  0  0  0  0  0  0  0  0
  194.1830  176.4800  146.5190 C   0  0  0  0  0  2  0  0  0  0  0  0
  194.7380  176.4020  145.1110 C   0  0  0  0  0  2  0  0  0  0  0  0
  195.6790  175.3770  145.0380 O   0  0  0  0  0  0  0  0  0  0  0  0
  196.8100  173.2110  146.1420 C   0  0  0  0  0  1  0  0  0  0  0  0
  195.5150  172.9910  145.3730 C   0  0  1  0  0  3  0  0  0  0  0  0
  194.9310  174.2250  144.7640 C   0  0  2  0  0  3  0  0  0  0  0  0
  195.7170  173.3260  144.0190 O   0  0  0  0  0  0  0  0  0  0  0  0
  1 12  1  6  0  0  0
  1 10  1  0  0  0  0
  1  8  1  0  0  0  0
  2 13  1  6  0  0  0
  3 18  1  6  0  0  0
  3  8  1  0  0  0  0
  3 17  1  0  0  0  0
  4 14  1  6  0  0  0
  4  9  1  0  0  0  0
  5  6  1  0  0  0  0
  5  2  1  0  0  0  0
  7 16  2  0  0  0  0
  8  2  1  0  0  0  0
  9 16  1  0  0  0  0
 10  5  1  0  0  0  0
 11 18  1  0  0  0  0
 12 11  1  0  0  0  0
 13  7  1  0  0  0  0
 14 15  1  0  0  0  0
 15  4  1  0  0  0  0
 15 19  1  0  0  0  0
 16 26  1  0  0  0  0
 17  4  1  0  0  0  0
 17  7  1  0  0  0  0
 19 24  1  0  0  0  0
 21 20  1  0  0  0  0
 22 21  1  0  0  0  0
 23 25  1  0  0  0  0
 24 23  1  0  0  0  0
 24 22  1  0  0  0  0
 25 20  1  0  0  0  0
 26 27  1  0  0  0  0
 27 28  1  0  0  0  0
 29 28  1  0  0  0  0
 30 29  1  0  0  0  0
 32 31  1  0  0  0  0
 33 30  1  0  0  0  0
 33 32  1  0  0  0  0
 34 33  1  0  0  0  0
 34 32  1  0  0  0  0
M  END
>  <MODEL>
6

>  <REMARK>
 VINA RESULT:      -6.5      2.465      5.999
  Name = 
  8 active torsions:
  status: ('A' for Active; 'I' for Inactive)
    1  A    between atoms: S_3  and  C_13
    2  A    between atoms: S_3  and  C_17
    3  A    between atoms: C_12  and  C_27
    4  A    between atoms: C_12  and  C_28
    5  A    between atoms: C_13  and  C_33
    6  A    between atoms: C_17  and  C_29
    7  A    between atoms: C_20  and  O_34
    8  A    between atoms: C_33  and  O_34
                            x       y       z     vdW  Elec       q    Type
                         _______ _______ _______ _____ _____    ______ ____

>  <TORSDO>
F 8

$$$$
=
 OpenBabel11052418533D

 34 40  0  0  1  0  0  0  0  0999 V2000
  190.6660  171.7540  141.9800 C   0  0  2  0  0  3  0  0  0  0  0  0
  191.3130  172.3060  144.1590 C   0  0  2  0  0  3  0  0  0  0  0  0
  189.8000  173.8780  142.9560 C   0  0  1  0  0  3  0  0  0  0  0  0
  189.6380  176.2210  144.1780 C   0  0  2  0  0  0  0  0  0  0  0  0
  192.3790  171.5990  143.4650 N   0  0  0  0  0  0  0  0  0  0  0  0
  192.7100  170.4280  144.2630 C   0  0  0  0  0  1  0  0  0  0  0  0
  191.1080  174.6360  144.8960 C   0  0  0  0  0  0  0  0  0  0  0  0
  190.4050  172.6810  143.0770 C   0  0  1  0  0  3  0  0  0  0  0  0
  190.4750  176.8480  145.2890 C   0  0  0  0  0  2  0  0  0  0  0  0
  191.9120  171.1400  142.2500 O   0  0  0  0  0  0  0  0  0  0  0  0
  189.3640  173.2590  140.5120 C   0  0  0  0  0  2  0  0  0  0  0  0
  190.6840  172.4970  140.6490 C   0  0  0  0  0  2  0  0  0  0  0  0
  191.8270  173.4390  144.8770 O   0  0  0  0  0  0  0  0  0  0  0  0
  189.6050  177.0270  142.9030 C   0  0  0  0  0  2  0  0  0  0  0  0
  188.3020  176.7020  143.6440 C   0  0  2  0  0  3  0  0  0  0  0  0
  191.3870  175.7030  145.6310 C   0  0  0  0  0  0  0  0  0  0  0  0
  190.0240  174.8300  144.0100 N   0  0  0  0  0  0  0  0  0  0  0  0
  189.1920  174.2960  141.6360 C   0  0  0  0  0  2  0  0  0  0  0  0
  187.8290  177.9400  144.3900 C   0  0  0  0  0  2  0  0  0  0  0  0
  185.0280  178.3070  147.5830 N   0  0  0  0  0  2  0  0  0  0  0  0
  185.9420  177.1660  147.6370 C   0  0  0  0  0  2  0  0  0  0  0  0
  187.1360  177.4060  146.7170 C   0  0  0  0  0  2  0  0  0  0  0  0
  185.6010  178.7140  145.2350 C   0  0  0  0  0  2  0  0  0  0  0  0
  186.6490  177.6010  145.2850 C   0  0  0  0  0  3  0  0  0  0  0  0
  184.4830  178.4070  146.2300 C   0  0  0  0  0  2  0  0  0  0  0  0
  192.5350  175.7950  146.5800 C   0  0  0  0  0  2  0  0  0  0  0  0
  193.9080  176.7190  145.8210 S   0  0  0  0  0  0  0  0  0  0  0  0
  195.0010  175.2730  145.8350 C   0  0  0  0  0  2  0  0  0  0  0  0
  195.9300  175.3270  144.6390 C   0  0  0  0  0  2  0  0  0  0  0  0
  195.2610  174.8570  143.5090 O   0  0  0  0  0  0  0  0  0  0  0  0
  193.1320  175.1780  141.9120 C   0  0  0  0  0  1  0  0  0  0  0  0
  194.3490  176.0410  141.6120 C   0  0  1  0  0  3  0  0  0  0  0  0
  195.5160  175.8160  142.5210 C   0  0  2  0  0  3  0  0  0  0  0  0
  195.4290  175.2100  141.2530 O   0  0  0  0  0  0  0  0  0  0  0  0
  1 12  1  6  0  0  0
  1 10  1  0  0  0  0
  1  8  1  0  0  0  0
  2 13  1  6  0  0  0
  3 18  1  6  0  0  0
  3  8  1  0  0  0  0
  3 17  1  0  0  0  0
  4 14  1  6  0  0  0
  4  9  1  0  0  0  0
  5  2  1  0  0  0  0
  5  6  1  0  0  0  0
  7 16  2  0  0  0  0
  8  2  1  0  0  0  0
  9 16  1  0  0  0  0
 10  5  1  0  0  0  0
 11 12  1  0  0  0  0
 11 18  1  0  0  0  0
 13  7  1  0  0  0  0
 14 15  1  0  0  0  0
 15  4  1  0  0  0  0
 15 19  1  0  0  0  0
 16 26  1  0  0  0  0
 17  4  1  0  0  0  0
 17  7  1  0  0  0  0
 19 24  1  0  0  0  0
 20 21  1  0  0  0  0
 22 21  1  0  0  0  0
 23 24  1  0  0  0  0
 23 25  1  0  0  0  0
 24 22  1  0  0  0  0
 25 20  1  0  0  0  0
 27 28  1  0  0  0  0
 27 26  1  0  0  0  0
 29 28  1  0  0  0  0
 30 29  1  0  0  0  0
 32 31  1  0  0  0  0
 32 33  1  0  0  0  0
 33 30  1  0  0  0  0
 34 32  1  0  0  0  0
 34 33  1  0  0  0  0
M  END
>  <MODEL>
7

>  <REMARK>
 VINA RESULT:      -6.4      2.632      5.437
  Name = 
  8 active torsions:
  status: ('A' for Active; 'I' for Inactive)
    1  A    between atoms: S_3  and  C_13
    2  A    between atoms: S_3  and  C_17
    3  A    between atoms: C_12  and  C_27
    4  A    between atoms: C_12  and  C_28
    5  A    between atoms: C_13  and  C_33
    6  A    between atoms: C_17  and  C_29
    7  A    between atoms: C_20  and  O_34
    8  A    between atoms: C_33  and  O_34
                            x       y       z     vdW  Elec       q    Type
                         _______ _______ _______ _____ _____    ______ ____

>  <TORSDO>
F 8

$$$$
=
 OpenBabel11052418533D

 34 40  0  0  1  0  0  0  0  0999 V2000
  191.1150  170.6770  139.9380 C   0  0  2  0  0  3  0  0  0  0  0  0
  190.3060  172.8480  139.6160 C   0  0  2  0  0  3  0  0  0  0  0  0
  191.0530  172.2070  141.9050 C   0  0  1  0  0  3  0  0  0  0  0  0
  190.2590  173.9560  143.7270 C   0  0  2  0  0  0  0  0  0  0  0  0
  189.6130  171.9030  138.7520 N   0  0  0  0  0  0  0  0  0  0  0  0
  189.7850  172.3660  137.3830 C   0  0  0  0  0  1  0  0  0  0  0  0
  189.5550  174.1290  141.5670 C   0  0  0  0  0  0  0  0  0  0  0  0
  190.9820  171.9820  140.5790 C   0  0  1  0  0  3  0  0  0  0  0  0
  189.2430  175.0940  143.6700 C   0  0  0  0  0  2  0  0  0  0  0  0
  190.2230  170.6680  138.8390 O   0  0  0  0  0  0  0  0  0  0  0  0
  191.6950  169.7430  142.1530 C   0  0  0  0  0  2  0  0  0  0  0  0
  190.7950  169.5630  140.9290 C   0  0  0  0  0  2  0  0  0  0  0  0
  189.3800  173.7570  140.2320 O   0  0  0  0  0  0  0  0  0  0  0  0
  189.9600  172.9170  144.7790 C   0  0  0  0  0  2  0  0  0  0  0  0
  191.2850  173.6890  144.8110 C   0  0  2  0  0  3  0  0  0  0  0  0
  188.8710  175.0620  142.2140 C   0  0  0  0  0  0  0  0  0  0  0  0
  190.4660  173.4280  142.3890 N   0  0  0  0  0  0  0  0  0  0  0  0
  191.4370  171.0910  142.8500 C   0  0  0  0  0  2  0  0  0  0  0  0
  191.2210  174.7480  145.8990 C   0  0  0  0  0  2  0  0  0  0  0  0
  195.1620  176.1490  145.0680 N   0  0  0  0  0  2  0  0  0  0  0  0
  195.0510  174.9440  145.8900 C   0  0  0  0  0  2  0  0  0  0  0  0
  193.6650  174.3240  145.7290 C   0  0  0  0  0  2  0  0  0  0  0  0
  192.7810  176.6410  145.3870 C   0  0  0  0  0  2  0  0  0  0  0  0
  192.6010  175.3300  146.1550 C   0  0  0  0  0  3  0  0  0  0  0  0
  194.2130  177.1440  145.5660 C   0  0  0  0  0  2  0  0  0  0  0  0
  187.7870  175.8860  141.6040 C   0  0  0  0  0  2  0  0  0  0  0  0
  186.5700  176.3640  142.8710 S   0  0  0  0  0  0  0  0  0  0  0  0
  186.9890  178.1230  142.7300 C   0  0  0  0  0  2  0  0  0  0  0  0
  185.8060  178.9630  143.1680 C   0  0  0  0  0  2  0  0  0  0  0  0
  185.0530  178.2540  144.1030 O   0  0  0  0  0  0  0  0  0  0  0  0
  185.0600  176.9430  146.4410 C   0  0  0  0  0  1  0  0  0  0  0  0
  184.9040  178.4570  146.5050 C   0  0  1  0  0  3  0  0  0  0  0  0
  184.8910  179.1410  145.1750 C   0  0  2  0  0  3  0  0  0  0  0  0
  183.7050  178.8260  145.8630 O   0  0  0  0  0  0  0  0  0  0  0  0
  1  8  1  0  0  0  0
  1 12  1  1  0  0  0
  2 13  1  1  0  0  0
  2  8  1  0  0  0  0
  3 17  1  0  0  0  0
  3 18  1  1  0  0  0
  4  9  1  1  0  0  0
  4 14  1  0  0  0  0
  4 15  1  0  0  0  0
  5 10  1  0  0  0  0
  5  2  1  0  0  0  0
  6  5  1  0  0  0  0
  7 16  2  0  0  0  0
  7 17  1  0  0  0  0
  8  3  1  0  0  0  0
 10  1  1  0  0  0  0
 11 18  1  0  0  0  0
 12 11  1  0  0  0  0
 13  7  1  0  0  0  0
 14 15  1  0  0  0  0
 15 19  1  0  0  0  0
 16  9  1  0  0  0  0
 17  4  1  0  0  0  0
 19 24  1  0  0  0  0
 20 25  1  0  0  0  0
 20 21  1  0  0  0  0
 22 21  1  0  0  0  0
 22 24  1  0  0  0  0
 23 25  1  0  0  0  0
 23 24  1  0  0  0  0
 26 16  1  0  0  0  0
 26 27  1  0  0  0  0
 28 27  1  0  0  0  0
 28 29  1  0  0  0  0
 29 30  1  0  0  0  0
 30 33  1  0  0  0  0
 31 32  1  0  0  0  0
 33 34  1  0  0  0  0
 33 32  1  0  0  0  0
 34 32  1  0  0  0  0
M  END
>  <MODEL>
8

>  <REMARK>
 VINA RESULT:      -6.3      2.847      6.204
  Name = 
  8 active torsions:
  status: ('A' for Active; 'I' for Inactive)
    1  A    between atoms: S_3  and  C_13
    2  A    between atoms: S_3  and  C_17
    3  A    between atoms: C_12  and  C_27
    4  A    between atoms: C_12  and  C_28
    5  A    between atoms: C_13  and  C_33
    6  A    between atoms: C_17  and  C_29
    7  A    between atoms: C_20  and  O_34
    8  A    between atoms: C_33  and  O_34
                            x       y       z     vdW  Elec       q    Type
                         _______ _______ _______ _____ _____    ______ ____

>  <TORSDO>
F 8

$$$$
=
 OpenBabel11052418533D

 34 40  0  0  1  0  0  0  0  0999 V2000
  189.8870  171.9180  140.6790 C   0  0  2  0  0  3  0  0  0  0  0  0
  190.6550  172.0140  142.8870 C   0  0  2  0  0  3  0  0  0  0  0  0
  189.2760  173.9120  142.0460 C   0  0  1  0  0  3  0  0  0  0  0  0
  189.3960  176.0080  143.6580 C   0  0  2  0  0  0  0  0  0  0  0  0
  191.6210  171.3410  142.0300 N   0  0  0  0  0  0  0  0  0  0  0  0
  191.8530  170.0220  142.5990 C   0  0  0  0  0  1  0  0  0  0  0  0
  190.7160  174.1870  144.0220 C   0  0  0  0  0  0  0  0  0  0  0  0
  189.7580  172.6590  141.9300 C   0  0  1  0  0  3  0  0  0  0  0  0
  190.3270  176.3470  144.8180 C   0  0  0  0  0  2  0  0  0  0  0  0
  191.0710  171.1490  140.7790 O   0  0  0  0  0  0  0  0  0  0  0  0
  188.7030  173.7760  139.5560 C   0  0  0  0  0  2  0  0  0  0  0  0
  189.9400  172.8780  139.4960 C   0  0  0  0  0  2  0  0  0  0  0  0
  191.3070  172.9480  143.7630 O   0  0  0  0  0  0  0  0  0  0  0  0
  189.4070  177.0250  142.5440 C   0  0  0  0  0  2  0  0  0  0  0  0
  188.1010  176.7020  143.2810 C   0  0  2  0  0  3  0  0  0  0  0  0
  191.1270  175.0770  144.9140 C   0  0  0  0  0  0  0  0  0  0  0  0
  189.6310  174.6370  143.2360 N   0  0  0  0  0  0  0  0  0  0  0  0
  188.6740  174.6120  140.8480 C   0  0  0  0  0  2  0  0  0  0  0  0
  187.7820  177.8290  144.2500 C   0  0  0  0  0  2  0  0  0  0  0  0
  184.3680  178.3140  146.7570 N   0  0  0  0  0  2  0  0  0  0  0  0
  184.8170  176.9440  146.5140 C   0  0  0  0  0  2  0  0  0  0  0  0
  186.2550  176.9450  146.0010 C   0  0  0  0  0  2  0  0  0  0  0  0
  185.7560  179.1440  144.9150 C   0  0  0  0  0  2  0  0  0  0  0  0
  186.3340  177.7440  144.7040 C   0  0  0  0  0  3  0  0  0  0  0  0
  184.3420  179.0320  145.4830 C   0  0  0  0  0  2  0  0  0  0  0  0
  192.3060  174.8900  145.8080 C   0  0  0  0  0  2  0  0  0  0  0  0
  193.3020  176.4130  145.8640 S   0  0  0  0  0  0  0  0  0  0  0  0
  194.0200  176.1060  144.2280 C   0  0  0  0  0  2  0  0  0  0  0  0
  195.5070  176.3930  144.2640 C   0  0  0  0  0  2  0  0  0  0  0  0
  196.1580  175.3870  144.9780 O   0  0  0  0  0  0  0  0  0  0  0  0
  196.8190  173.0630  146.1390 C   0  0  0  0  0  1  0  0  0  0  0  0
  196.8430  173.1000  144.6170 C   0  0  1  0  0  3  0  0  0  0  0  0
  196.4810  174.4210  144.0170 C   0  0  2  0  0  3  0  0  0  0  0  0
  197.8190  174.0220  144.1910 O   0  0  0  0  0  0  0  0  0  0  0  0
  1 12  1  6  0  0  0
  1 10  1  0  0  0  0
  1  8  1  0  0  0  0
  2 13  1  1  0  0  0
  3 18  1  6  0  0  0
  3 17  1  0  0  0  0
  4 14  1  6  0  0  0
  4  9  1  0  0  0  0
  5  6  1  0  0  0  0
  5  2  1  0  0  0  0
  7 16  2  0  0  0  0
  8  3  1  0  0  0  0
  8  2  1  0  0  0  0
  9 16  1  0  0  0  0
 10  5  1  0  0  0  0
 11 18  1  0  0  0  0
 12 11  1  0  0  0  0
 13  7  1  0  0  0  0
 14 15  1  0  0  0  0
 15  4  1  0  0  0  0
 15 19  1  0  0  0  0
 16 26  1  0  0  0  0
 17  4  1  0  0  0  0
 17  7  1  0  0  0  0
 19 24  1  0  0  0  0
 21 20  1  0  0  0  0
 22 21  1  0  0  0  0
 23 25  1  0  0  0  0
 24 23  1  0  0  0  0
 24 22  1  0  0  0  0
 25 20  1  0  0  0  0
 26 27  1  0  0  0  0
 28 29  1  0  0  0  0
 28 27  1  0  0  0  0
 29 30  1  0  0  0  0
 32 31  1  0  0  0  0
 33 34  1  0  0  0  0
 33 32  1  0  0  0  0
 33 30  1  0  0  0  0
 34 32  1  0  0  0  0
M  END
>  <MODEL>
9

>  <REMARK>
 VINA RESULT:      -6.2      2.601      6.176
  Name = 
  8 active torsions:
  status: ('A' for Active; 'I' for Inactive)
    1  A    between atoms: S_3  and  C_13
    2  A    between atoms: S_3  and  C_17
    3  A    between atoms: C_12  and  C_27
    4  A    between atoms: C_12  and  C_28
    5  A    between atoms: C_13  and  C_33
    6  A    between atoms: C_17  and  C_29
    7  A    between atoms: C_20  and  O_34
    8  A    between atoms: C_33  and  O_34
                            x       y       z     vdW  Elec       q    Type
                         _______ _______ _______ _____ _____    ______ ____

>  <TORSDO>
F 8

$$$$
