=
 OpenBabel11052421303D

 32 36  0  0  1  0  0  0  0  0999 V2000
  192.6530  173.5490  141.5680 C   0  0  1  0  0  3  0  0  0  0  0  0
  189.9170  174.7610  143.5390 C   0  0  2  0  0  3  0  0  0  0  0  0
  194.2150  176.0310  146.4530 C   0  0  0  0  0  2  0  0  0  0  0  0
  193.1900  174.8970  146.6320 C   0  0  0  0  0  2  0  0  0  0  0  0
  190.3340  174.3460  142.1320 C   0  0  1  0  0  0  0  0  0  0  0  0
  192.2940  175.8430  142.2450 O   0  0  0  0  0  0  0  0  0  0  0  0
  193.9280  173.8820  140.8200 C   0  0  0  0  0  1  0  0  0  0  0  0
  194.0580  176.7820  145.1540 C   0  0  0  0  0  3  0  0  0  0  0  0
  192.1030  176.0420  143.6070 C   0  0  0  0  0  0  0  0  0  0  0  0
  193.1010  176.4720  144.3230 C   0  0  0  0  0  0  0  0  0  0  0  0
  190.2980  176.3040  145.4330 C   0  0  2  0  0  3  0  0  0  0  0  0
  190.7230  171.9150  141.6590 C   0  0  1  0  0  3  0  0  0  0  0  0
  191.7000  174.7510  141.5530 C   0  0  1  0  0  3  0  0  0  0  0  0
  189.7070  173.0540  141.6240 C   0  0  0  0  0  2  0  0  0  0  0  0
  192.0070  172.3200  140.9260 C   0  0  0  0  0  2  0  0  0  0  0  0
  191.8660  175.3680  147.2420 C   0  0  0  0  0  2  0  0  0  0  0  0
  191.2900  176.6070  146.5620 C   0  0  0  0  0  2  0  0  0  0  0  0
  189.3360  175.4620  142.3080 C   0  0  0  0  0  2  0  0  0  0  0  0
  190.8520  175.6580  144.2250 N   0  0  0  0  0  0  0  0  0  0  0  0
  191.0020  171.5510  143.0090 O   0  0  0  0  0  0  0  0  0  0  0  0
  191.9900  170.6270  143.3590 C   0  0  0  0  0  0  0  0  0  0  0  0
  193.0920  170.9780  144.3020 C   0  0  0  0  0  1  0  0  0  0  0  0
  191.9550  169.4720  142.8630 O   0  0  0  0  0  0  0  0  0  0  0  0
  189.4670  177.5430  145.0820 C   0  0  0  0  0  2  0  0  0  0  0  0
  187.0610  177.7080  144.4000 C   0  0  0  0  0  3  0  0  0  0  0  0
  185.6970  177.5890  144.6800 C   0  0  0  0  0  0  0  0  0  0  0  0
  186.2220  176.8060  146.9100 C   0  0  0  0  0  3  0  0  0  0  0  0
  185.2780  177.1390  145.9340 C   0  0  0  0  0  3  0  0  0  0  0  0
  187.5870  176.9270  146.6310 C   0  0  0  0  0  3  0  0  0  0  0  0
  188.0100  177.3790  145.3750 C   0  0  0  0  0  0  0  0  0  0  0  0
  184.7290  177.9390  143.6800 C   0  0  0  0  0  0  0  0  0  0  0  0
  183.9470  178.2210  142.8730 N   0  0  0  0  0  0  0  0  0  0  0  0
  1  7  1  6  0  0  0
  2 18  1  6  0  0  0
  2 19  1  0  0  0  0
  3  4  1  0  0  0  0
  4 16  1  0  0  0  0
  5 14  1  6  0  0  0
  5 18  1  0  0  0  0
  5  2  1  0  0  0  0
  6  9  1  0  0  0  0
  8  3  1  0  0  0  0
  9 19  1  0  0  0  0
  9 10  2  0  0  0  0
 10  8  2  0  0  0  0
 11 24  1  6  0  0  0
 11 17  1  0  0  0  0
 12 20  1  1  0  0  0
 13  1  1  0  0  0  0
 13  5  1  0  0  0  0
 13  6  1  1  0  0  0
 14 12  1  0  0  0  0
 15  1  1  0  0  0  0
 15 12  1  0  0  0  0
 17 16  1  0  0  0  0
 19 11  1  0  0  0  0
 20 21  1  0  0  0  0
 21 22  1  0  0  0  0
 23 21  2  0  0  0  0
 24 30  1  0  0  0  0
 25 26  2  0  0  0  0
 25 30  1  0  0  0  0
 26 28  1  0  0  0  0
 28 27  2  0  0  0  0
 29 27  1  0  0  0  0
 30 29  2  0  0  0  0
 31 26  1  0  0  0  0
 32 31  3  0  0  0  0
M  END
>  <MODEL>
1

>  <REMARK>
 VINA RESULT:      -7.7      0.000      0.000
  Name = 
  5 active torsions:
  status: ('A' for Active; 'I' for Inactive)
    1  A    between atoms: C_1  and  O_17
    2  A    between atoms: C_7  and  C_22
    3  A    between atoms: C_16  and  C_27
    4  A    between atoms: O_17  and  C_19
    5  A    between atoms: C_27  and  C_32
                            x       y       z     vdW  Elec       q    Type
                         _______ _______ _______ _____ _____    ______ ____

>  <TORSDO>
F 5

$$$$
=
 OpenBabel11052421303D

 32 36  0  0  1  0  0  0  0  0999 V2000
  190.7280  172.8050  141.6190 C   0  0  1  0  0  3  0  0  0  0  0  0
  190.4270  173.9860  144.9880 C   0  0  2  0  0  3  0  0  0  0  0  0
  189.1150  178.2530  142.0460 C   0  0  0  0  0  2  0  0  0  0  0  0
  190.4140  177.9280  142.8050 C   0  0  0  0  0  2  0  0  0  0  0  0
  190.4600  172.7340  144.1200 C   0  0  1  0  0  0  0  0  0  0  0  0
  188.7200  173.6790  142.6450 O   0  0  0  0  0  0  0  0  0  0  0  0
  190.0390  172.5510  140.2920 C   0  0  0  0  0  1  0  0  0  0  0  0
  188.1420  177.1010  142.0010 C   0  0  0  0  0  3  0  0  0  0  0  0
  188.8480  174.9270  143.2420 C   0  0  0  0  0  0  0  0  0  0  0  0
  188.4220  175.9760  142.6000 C   0  0  0  0  0  0  0  0  0  0  0  0
  189.2790  176.1170  145.4920 C   0  0  2  0  0  3  0  0  0  0  0  0
  192.6380  172.0390  143.0910 C   0  0  1  0  0  3  0  0  0  0  0  0
  189.7230  172.6780  142.7710 C   0  0  1  0  0  3  0  0  0  0  0  0
  191.6990  171.8640  144.2830 C   0  0  0  0  0  2  0  0  0  0  0  0
  191.8820  171.8130  141.7770 C   0  0  0  0  0  2  0  0  0  0  0  0
  190.3070  178.1590  144.3150 C   0  0  0  0  0  2  0  0  0  0  0  0
  189.0630  177.5320  144.9400 C   0  0  0  0  0  2  0  0  0  0  0  0
  189.5850  172.7580  145.3480 C   0  0  0  0  0  2  0  0  0  0  0  0
  189.5540  175.0590  144.4980 N   0  0  0  0  0  0  0  0  0  0  0  0
  193.2290  173.3360  143.1210 O   0  0  0  0  0  0  0  0  0  0  0  0
  194.1250  173.7410  144.1130 C   0  0  0  0  0  0  0  0  0  0  0  0
  193.9810  175.0520  144.8100 C   0  0  0  0  0  1  0  0  0  0  0  0
  195.0830  172.9850  144.4220 O   0  0  0  0  0  0  0  0  0  0  0  0
  188.1460  175.7190  146.4450 C   0  0  0  0  0  2  0  0  0  0  0  0
  186.3100  176.8660  145.1820 C   0  0  0  0  0  3  0  0  0  0  0  0
  185.2390  177.7620  145.1190 C   0  0  0  0  0  0  0  0  0  0  0  0
  185.4900  178.2260  147.4830 C   0  0  0  0  0  3  0  0  0  0  0  0
  184.8290  178.4410  146.2690 C   0  0  0  0  0  3  0  0  0  0  0  0
  186.5630  177.3320  147.5440 C   0  0  0  0  0  3  0  0  0  0  0  0
  186.9770  176.6510  146.3930 C   0  0  0  0  0  0  0  0  0  0  0  0
  184.5660  177.9870  143.8720 C   0  0  0  0  0  0  0  0  0  0  0  0
  184.0230  178.1690  142.8650 N   0  0  0  0  0  0  0  0  0  0  0  0
  1  7  1  6  0  0  0
  1 15  1  0  0  0  0
  1 13  1  0  0  0  0
  2 18  1  1  0  0  0
  3  4  1  0  0  0  0
  4 16  1  0  0  0  0
  5 14  1  1  0  0  0
  5  2  1  0  0  0  0
  5 18  1  0  0  0  0
  6  9  1  0  0  0  0
  8  3  1  0  0  0  0
  8 10  2  0  0  0  0
  9 19  1  0  0  0  0
 10  9  2  0  0  0  0
 11 24  1  6  0  0  0
 12 20  1  6  0  0  0
 12 14  1  0  0  0  0
 13  6  1  1  0  0  0
 13  5  1  0  0  0  0
 15 12  1  0  0  0  0
 16 17  1  0  0  0  0
 17 11  1  0  0  0  0
 19  2  1  0  0  0  0
 19 11  1  0  0  0  0
 20 21  1  0  0  0  0
 21 23  2  0  0  0  0
 21 22  1  0  0  0  0
 25 30  1  0  0  0  0
 26 25  2  0  0  0  0
 26 28  1  0  0  0  0
 27 29  1  0  0  0  0
 28 27  2  0  0  0  0
 30 24  1  0  0  0  0
 30 29  2  0  0  0  0
 31 26  1  0  0  0  0
 32 31  3  0  0  0  0
M  END
>  <MODEL>
2

>  <REMARK>
 VINA RESULT:      -7.6      1.862      3.412
  Name = 
  5 active torsions:
  status: ('A' for Active; 'I' for Inactive)
    1  A    between atoms: C_1  and  O_17
    2  A    between atoms: C_7  and  C_22
    3  A    between atoms: C_16  and  C_27
    4  A    between atoms: O_17  and  C_19
    5  A    between atoms: C_27  and  C_32
                            x       y       z     vdW  Elec       q    Type
                         _______ _______ _______ _____ _____    ______ ____

>  <TORSDO>
F 5

$$$$
=
 OpenBabel11052421303D

 32 36  0  0  1  0  0  0  0  0999 V2000
  194.7590  173.3440  144.7930 C   0  0  1  0  0  3  0  0  0  0  0  0
  193.0850  176.3830  143.8970 C   0  0  2  0  0  3  0  0  0  0  0  0
  189.3540  172.6310  143.1380 C   0  0  0  0  0  2  0  0  0  0  0  0
  190.2200  173.3950  142.1200 C   0  0  0  0  0  2  0  0  0  0  0  0
  194.2640  175.8090  144.6740 C   0  0  1  0  0  0  0  0  0  0  0  0
  192.7620  174.2290  145.8330 O   0  0  0  0  0  0  0  0  0  0  0  0
  194.7950  172.1320  145.7020 C   0  0  0  0  0  1  0  0  0  0  0  0
  189.7570  172.8740  144.5710 C   0  0  0  0  0  3  0  0  0  0  0  0
  191.7210  174.5330  144.9650 C   0  0  0  0  0  0  0  0  0  0  0  0
  190.7330  173.6940  144.8530 C   0  0  0  0  0  0  0  0  0  0  0  0
  190.6290  176.4510  143.6270 C   0  0  2  0  0  3  0  0  0  0  0  0
  196.2100  174.8770  143.3970 C   0  0  1  0  0  3  0  0  0  0  0  0
  194.1170  174.5330  145.5200 C   0  0  1  0  0  3  0  0  0  0  0  0
  195.6370  176.1120  144.0890 C   0  0  0  0  0  2  0  0  0  0  0  0
  196.1850  173.6730  144.3450 C   0  0  0  0  0  2  0  0  0  0  0  0
  189.7290  174.8210  141.8560 C   0  0  0  0  0  2  0  0  0  0  0  0
  189.4450  175.6130  143.1290 C   0  0  0  0  0  2  0  0  0  0  0  0
  193.5580  177.0330  145.2000 C   0  0  0  0  0  2  0  0  0  0  0  0
  191.8040  175.7040  144.1190 N   0  0  0  0  0  0  0  0  0  0  0  0
  195.4780  174.6020  142.2050 O   0  0  0  0  0  0  0  0  0  0  0  0
  195.5950  175.3710  141.0450 C   0  0  0  0  0  0  0  0  0  0  0  0
  196.9130  175.5910  140.3810 C   0  0  0  0  0  1  0  0  0  0  0  0
  194.5650  175.9000  140.5520 O   0  0  0  0  0  0  0  0  0  0  0  0
  190.1680  177.5090  144.6360 C   0  0  0  0  0  2  0  0  0  0  0  0
  187.6720  177.7160  144.5580 C   0  0  0  0  0  3  0  0  0  0  0  0
  186.4050  177.4890  145.1040 C   0  0  0  0  0  0  0  0  0  0  0  0
  187.4140  176.2810  146.9440 C   0  0  0  0  0  3  0  0  0  0  0  0
  186.2760  176.7720  146.2960 C   0  0  0  0  0  3  0  0  0  0  0  0
  188.6820  176.5110  146.3990 C   0  0  0  0  0  3  0  0  0  0  0  0
  188.8130  177.2310  145.2060 C   0  0  0  0  0  0  0  0  0  0  0  0
  185.2390  177.9990  144.4410 C   0  0  0  0  0  0  0  0  0  0  0  0
  184.2970  178.4110  143.9070 N   0  0  0  0  0  0  0  0  0  0  0  0
  1 13  1  0  0  0  0
  1  7  1  1  0  0  0
  2 19  1  0  0  0  0
  2  5  1  0  0  0  0
  2 18  1  1  0  0  0
  3  8  1  0  0  0  0
  4  3  1  0  0  0  0
  5 14  1  6  0  0  0
  5 18  1  0  0  0  0
  5 13  1  0  0  0  0
  8 10  2  0  0  0  0
  9  6  1  0  0  0  0
 10  9  2  0  0  0  0
 11 19  1  0  0  0  0
 11 24  1  1  0  0  0
 12 20  1  6  0  0  0
 12 14  1  0  0  0  0
 12 15  1  0  0  0  0
 13  6  1  6  0  0  0
 15  1  1  0  0  0  0
 16  4  1  0  0  0  0
 16 17  1  0  0  0  0
 17 11  1  0  0  0  0
 19  9  1  0  0  0  0
 21 20  1  0  0  0  0
 22 21  1  0  0  0  0
 23 21  2  0  0  0  0
 24 30  1  0  0  0  0
 25 26  2  0  0  0  0
 25 30  1  0  0  0  0
 26 28  1  0  0  0  0
 28 27  2  0  0  0  0
 29 27  1  0  0  0  0
 30 29  2  0  0  0  0
 31 26  1  0  0  0  0
 32 31  3  0  0  0  0
M  END
>  <MODEL>
3

>  <REMARK>
 VINA RESULT:      -7.5      2.018      4.463
  Name = 
  5 active torsions:
  status: ('A' for Active; 'I' for Inactive)
    1  A    between atoms: C_1  and  O_17
    2  A    between atoms: C_7  and  C_22
    3  A    between atoms: C_16  and  C_27
    4  A    between atoms: O_17  and  C_19
    5  A    between atoms: C_27  and  C_32
                            x       y       z     vdW  Elec       q    Type
                         _______ _______ _______ _____ _____    ______ ____

>  <TORSDO>
F 5

$$$$
=
 OpenBabel11052421303D

 32 36  0  0  1  0  0  0  0  0999 V2000
  194.0780  174.0090  145.2350 C   0  0  1  0  0  3  0  0  0  0  0  0
  191.4440  176.3860  145.7360 C   0  0  2  0  0  3  0  0  0  0  0  0
  189.5260  173.1840  141.9090 C   0  0  0  0  0  2  0  0  0  0  0  0
  190.1130  174.6050  141.8180 C   0  0  0  0  0  2  0  0  0  0  0  0
  192.6830  175.7670  146.3740 C   0  0  1  0  0  0  0  0  0  0  0  0
  191.8140  173.5010  145.9210 O   0  0  0  0  0  0  0  0  0  0  0  0
  194.5020  172.5540  145.2670 C   0  0  0  0  0  1  0  0  0  0  0  0
  189.6820  172.5570  143.2720 C   0  0  0  0  0  3  0  0  0  0  0  0
  190.8130  174.0140  145.1050 C   0  0  0  0  0  0  0  0  0  0  0  0
  190.2380  173.2230  144.2460 C   0  0  0  0  0  0  0  0  0  0  0  0
  189.1830  175.9940  144.8160 C   0  0  2  0  0  3  0  0  0  0  0  0
  194.9380  176.3770  145.4630 C   0  0  1  0  0  3  0  0  0  0  0  0
  192.9680  174.2600  146.2650 C   0  0  1  0  0  3  0  0  0  0  0  0
  193.8770  176.7020  146.5130 C   0  0  0  0  0  2  0  0  0  0  0  0
  195.2990  174.8880  145.5110 C   0  0  0  0  0  2  0  0  0  0  0  0
  189.1340  175.6950  142.2630 C   0  0  0  0  0  2  0  0  0  0  0  0
  188.4610  175.3990  143.6010 C   0  0  0  0  0  2  0  0  0  0  0  0
  191.5180  176.1560  147.2490 C   0  0  0  0  0  2  0  0  0  0  0  0
  190.5100  175.4280  145.1350 N   0  0  0  0  0  0  0  0  0  0  0  0
  194.4720  176.7470  144.1680 O   0  0  0  0  0  0  0  0  0  0  0  0
  195.1570  176.4260  142.9930 C   0  0  0  0  0  0  0  0  0  0  0  0
  194.5060  175.6560  141.8920 C   0  0  0  0  0  1  0  0  0  0  0  0
  196.3550  176.7870  142.8610 O   0  0  0  0  0  0  0  0  0  0  0  0
  188.2670  176.0160  146.0450 C   0  0  0  0  0  2  0  0  0  0  0  0
  186.4130  177.1310  144.7800 C   0  0  0  0  0  3  0  0  0  0  0  0
  185.4150  178.1050  144.6710 C   0  0  0  0  0  0  0  0  0  0  0  0
  185.9360  178.8880  146.9020 C   0  0  0  0  0  3  0  0  0  0  0  0
  185.1770  178.9820  145.7310 C   0  0  0  0  0  3  0  0  0  0  0  0
  186.9350  177.9160  147.0100 C   0  0  0  0  0  3  0  0  0  0  0  0
  187.1770  177.0360  145.9490 C   0  0  0  0  0  0  0  0  0  0  0  0
  184.6430  178.2050  143.4660 C   0  0  0  0  0  0  0  0  0  0  0  0
  184.0190  178.2860  142.4930 N   0  0  0  0  0  0  0  0  0  0  0  0
  1  7  1  1  0  0  0
  1 15  1  0  0  0  0
  1 13  1  0  0  0  0
  2  5  1  0  0  0  0
  2 18  1  1  0  0  0
  3  8  1  0  0  0  0
  4  3  1  0  0  0  0
  4 16  1  0  0  0  0
  5 14  1  1  0  0  0
  5 18  1  0  0  0  0
  8 10  2  0  0  0  0
  9 19  1  0  0  0  0
  9  6  1  0  0  0  0
 10  9  2  0  0  0  0
 11 19  1  0  0  0  0
 11 24  1  1  0  0  0
 12 20  1  6  0  0  0
 12 15  1  0  0  0  0
 12 14  1  0  0  0  0
 13  6  1  6  0  0  0
 13  5  1  0  0  0  0
 16 17  1  0  0  0  0
 17 11  1  0  0  0  0
 19  2  1  0  0  0  0
 21 20  1  0  0  0  0
 22 21  1  0  0  0  0
 23 21  2  0  0  0  0
 25 30  1  0  0  0  0
 26 25  2  0  0  0  0
 26 28  1  0  0  0  0
 27 29  1  0  0  0  0
 28 27  2  0  0  0  0
 30 24  1  0  0  0  0
 30 29  2  0  0  0  0
 31 26  1  0  0  0  0
 32 31  3  0  0  0  0
M  END
>  <MODEL>
4

>  <REMARK>
 VINA RESULT:      -7.4      1.913      4.672
  Name = 
  5 active torsions:
  status: ('A' for Active; 'I' for Inactive)
    1  A    between atoms: C_1  and  O_17
    2  A    between atoms: C_7  and  C_22
    3  A    between atoms: C_16  and  C_27
    4  A    between atoms: O_17  and  C_19
    5  A    between atoms: C_27  and  C_32
                            x       y       z     vdW  Elec       q    Type
                         _______ _______ _______ _____ _____    ______ ____

>  <TORSDO>
F 5

$$$$
=
 OpenBabel11052421303D

 32 36  0  0  1  0  0  0  0  0999 V2000
  194.5930  173.3920  144.6430 C   0  0  1  0  0  3  0  0  0  0  0  0
  192.5100  176.1350  143.6550 C   0  0  2  0  0  3  0  0  0  0  0  0
  189.2360  171.9180  143.3780 C   0  0  0  0  0  2  0  0  0  0  0  0
  189.9450  172.7040  142.2600 C   0  0  0  0  0  2  0  0  0  0  0  0
  193.7910  175.7640  144.3940 C   0  0  1  0  0  0  0  0  0  0  0  0
  192.5610  174.1050  145.7450 O   0  0  0  0  0  0  0  0  0  0  0  0
  194.8280  172.2620  145.6260 C   0  0  0  0  0  1  0  0  0  0  0  0
  189.6830  172.3120  144.7650 C   0  0  0  0  0  3  0  0  0  0  0  0
  191.4450  174.2180  144.9260 C   0  0  0  0  0  0  0  0  0  0  0  0
  190.5630  173.2610  144.9300 C   0  0  0  0  0  0  0  0  0  0  0  0
  190.0530  175.8890  143.5350 C   0  0  2  0  0  3  0  0  0  0  0  0
  195.7660  174.9820  143.0620 C   0  0  1  0  0  3  0  0  0  0  0  0
  193.8480  174.5450  145.3290 C   0  0  1  0  0  3  0  0  0  0  0  0
  195.0820  176.1870  143.7060 C   0  0  0  0  0  2  0  0  0  0  0  0
  195.9410  173.8550  144.0870 C   0  0  0  0  0  2  0  0  0  0  0  0
  189.2680  174.0380  141.9340 C   0  0  0  0  0  2  0  0  0  0  0  0
  188.9580  174.8810  143.1680 C   0  0  0  0  0  2  0  0  0  0  0  0
  192.9680  176.9300  144.8810 C   0  0  0  0  0  2  0  0  0  0  0  0
  191.3370  175.3250  144.0010 N   0  0  0  0  0  0  0  0  0  0  0  0
  195.0110  174.5350  141.9390 O   0  0  0  0  0  0  0  0  0  0  0  0
  195.2110  175.0210  140.6450 C   0  0  0  0  0  0  0  0  0  0  0  0
  194.1390  174.9550  139.6090 C   0  0  0  0  0  1  0  0  0  0  0  0
  196.3250  175.5210  140.3410 O   0  0  0  0  0  0  0  0  0  0  0  0
  189.5200  176.9550  144.4990 C   0  0  0  0  0  2  0  0  0  0  0  0
  187.2080  177.8370  144.8990 C   0  0  0  0  0  3  0  0  0  0  0  0
  186.0240  178.4230  144.4440 C   0  0  0  0  0  0  0  0  0  0  0  0
  186.9580  178.5800  142.2160 C   0  0  0  0  0  3  0  0  0  0  0  0
  185.8990  178.7950  143.1030 C   0  0  0  0  0  3  0  0  0  0  0  0
  188.1420  177.9910  142.6710 C   0  0  0  0  0  3  0  0  0  0  0  0
  188.2690  177.6170  144.0140 C   0  0  0  0  0  0  0  0  0  0  0  0
  184.9350  178.6350  145.3540 C   0  0  0  0  0  0  0  0  0  0  0  0
  184.0560  178.8070  146.0890 N   0  0  0  0  0  0  0  0  0  0  0  0
  1 13  1  0  0  0  0
  1  7  1  1  0  0  0
  2 19  1  0  0  0  0
  2  5  1  0  0  0  0
  2 18  1  1  0  0  0
  3  8  1  0  0  0  0
  4  3  1  0  0  0  0
  5 14  1  6  0  0  0
  5 18  1  0  0  0  0
  5 13  1  0  0  0  0
  8 10  2  0  0  0  0
  9 10  2  0  0  0  0
  9  6  1  0  0  0  0
 11 19  1  0  0  0  0
 11 24  1  1  0  0  0
 12 20  1  6  0  0  0
 12 14  1  0  0  0  0
 12 15  1  0  0  0  0
 13  6  1  6  0  0  0
 15  1  1  0  0  0  0
 16  4  1  0  0  0  0
 16 17  1  0  0  0  0
 17 11  1  0  0  0  0
 19  9  1  0  0  0  0
 21 20  1  0  0  0  0
 22 21  1  0  0  0  0
 23 21  2  0  0  0  0
 26 25  1  0  0  0  0
 26 31  1  0  0  0  0
 27 29  2  0  0  0  0
 27 28  1  0  0  0  0
 28 26  2  0  0  0  0
 29 30  1  0  0  0  0
 30 24  1  0  0  0  0
 30 25  2  0  0  0  0
 31 32  3  0  0  0  0
M  END
>  <MODEL>
5

>  <REMARK>
 VINA RESULT:      -7.3      2.181      4.595
  Name = 
  5 active torsions:
  status: ('A' for Active; 'I' for Inactive)
    1  A    between atoms: C_1  and  O_17
    2  A    between atoms: C_7  and  C_22
    3  A    between atoms: C_16  and  C_27
    4  A    between atoms: O_17  and  C_19
    5  A    between atoms: C_27  and  C_32
                            x       y       z     vdW  Elec       q    Type
                         _______ _______ _______ _____ _____    ______ ____

>  <TORSDO>
F 5

$$$$
=
 OpenBabel11052421303D

 32 36  0  0  1  0  0  0  0  0999 V2000
  195.8450  173.6430  144.5330 C   0  0  1  0  0  3  0  0  0  0  0  0
  192.6130  175.1730  144.7740 C   0  0  2  0  0  3  0  0  0  0  0  0
  191.6420  170.6080  142.1670 C   0  0  0  0  0  2  0  0  0  0  0  0
  191.7360  172.0530  141.6450 C   0  0  0  0  0  2  0  0  0  0  0  0
  194.0160  175.1540  145.3720 C   0  0  1  0  0  0  0  0  0  0  0  0
  193.9020  172.7010  145.6240 O   0  0  0  0  0  0  0  0  0  0  0  0
  196.7160  172.4490  144.8700 C   0  0  0  0  0  1  0  0  0  0  0  0
  192.0600  170.4630  143.6100 C   0  0  0  0  0  3  0  0  0  0  0  0
  192.7500  172.6430  144.8490 C   0  0  0  0  0  0  0  0  0  0  0  0
  192.4190  171.5100  144.3020 C   0  0  0  0  0  0  0  0  0  0  0  0
  190.5570  173.8860  144.2960 C   0  0  2  0  0  3  0  0  0  0  0  0
  195.9060  176.1240  144.0420 C   0  0  1  0  0  3  0  0  0  0  0  0
  194.7650  173.8320  145.6070 C   0  0  1  0  0  3  0  0  0  0  0  0
  194.8500  176.4010  145.1100 C   0  0  0  0  0  2  0  0  0  0  0  0
  196.7290  174.8850  144.4110 C   0  0  0  0  0  2  0  0  0  0  0  0
  190.4810  172.8830  141.9310 C   0  0  0  0  0  2  0  0  0  0  0  0
  190.0060  172.7890  143.3790 C   0  0  0  0  0  2  0  0  0  0  0  0
  192.8330  175.4090  146.2720 C   0  0  0  0  0  2  0  0  0  0  0  0
  192.0100  173.8530  144.5640 N   0  0  0  0  0  0  0  0  0  0  0  0
  195.2830  175.9600  142.7700 O   0  0  0  0  0  0  0  0  0  0  0  0
  195.9890  176.0030  141.5660 C   0  0  0  0  0  0  0  0  0  0  0  0
  196.2250  174.7740  140.7530 C   0  0  0  0  0  1  0  0  0  0  0  0
  196.4440  177.1030  141.1580 O   0  0  0  0  0  0  0  0  0  0  0  0
  189.7440  173.9800  145.5930 C   0  0  0  0  0  2  0  0  0  0  0  0
  188.5920  175.9130  144.4910 C   0  0  0  0  0  3  0  0  0  0  0  0
  187.8110  177.0710  144.5510 C   0  0  0  0  0  0  0  0  0  0  0  0
  187.5890  176.7980  146.9460 C   0  0  0  0  0  3  0  0  0  0  0  0
  187.3100  177.5130  145.7780 C   0  0  0  0  0  3  0  0  0  0  0  0
  188.3730  175.6410  146.8870 C   0  0  0  0  0  3  0  0  0  0  0  0
  188.8770  175.1970  145.6590 C   0  0  0  0  0  0  0  0  0  0  0  0
  187.5310  177.8080  143.3520 C   0  0  0  0  0  0  0  0  0  0  0  0
  187.3050  178.4030  142.3840 N   0  0  0  0  0  0  0  0  0  0  0  0
  1  7  1  1  0  0  0
  1 13  1  0  0  0  0
  2  5  1  0  0  0  0
  2 18  1  1  0  0  0
  3  8  1  0  0  0  0
  4 16  1  0  0  0  0
  4  3  1  0  0  0  0
  5 14  1  6  0  0  0
  5 13  1  0  0  0  0
  5 18  1  0  0  0  0
  8 10  2  0  0  0  0
  9  6  1  0  0  0  0
 10  9  2  0  0  0  0
 11 19  1  0  0  0  0
 11 24  1  1  0  0  0
 12 20  1  6  0  0  0
 12 15  1  0  0  0  0
 12 14  1  0  0  0  0
 13  6  1  6  0  0  0
 15  1  1  0  0  0  0
 16 17  1  0  0  0  0
 17 11  1  0  0  0  0
 19  2  1  0  0  0  0
 19  9  1  0  0  0  0
 21 20  1  0  0  0  0
 22 21  1  0  0  0  0
 23 21  2  0  0  0  0
 24 30  1  0  0  0  0
 25 26  2  0  0  0  0
 25 30  1  0  0  0  0
 26 28  1  0  0  0  0
 28 27  2  0  0  0  0
 29 27  1  0  0  0  0
 30 29  2  0  0  0  0
 31 26  1  0  0  0  0
 32 31  3  0  0  0  0
M  END
>  <MODEL>
6

>  <REMARK>
 VINA RESULT:      -6.9      2.237      5.026
  Name = 
  5 active torsions:
  status: ('A' for Active; 'I' for Inactive)
    1  A    between atoms: C_1  and  O_17
    2  A    between atoms: C_7  and  C_22
    3  A    between atoms: C_16  and  C_27
    4  A    between atoms: O_17  and  C_19
    5  A    between atoms: C_27  and  C_32
                            x       y       z     vdW  Elec       q    Type
                         _______ _______ _______ _____ _____    ______ ____

>  <TORSDO>
F 5

$$$$
=
 OpenBabel11052421303D

 32 36  0  0  1  0  0  0  0  0999 V2000
  195.2180  173.0800  145.0650 C   0  0  1  0  0  3  0  0  0  0  0  0
  192.3180  175.1390  144.6260 C   0  0  2  0  0  3  0  0  0  0  0  0
  191.5830  171.1780  141.1110 C   0  0  0  0  0  2  0  0  0  0  0  0
  192.0340  172.6340  140.8920 C   0  0  0  0  0  2  0  0  0  0  0  0
  193.4470  174.7900  145.5890 C   0  0  1  0  0  0  0  0  0  0  0  0
  192.9210  172.3870  145.3750 O   0  0  0  0  0  0  0  0  0  0  0  0
  195.7660  171.7150  145.4300 C   0  0  0  0  0  1  0  0  0  0  0  0
  191.5060  170.7870  142.5660 C   0  0  0  0  0  3  0  0  0  0  0  0
  192.0720  172.6370  144.3040 C   0  0  0  0  0  0  0  0  0  0  0  0
  191.7730  171.6580  143.5000 C   0  0  0  0  0  0  0  0  0  0  0  0
  190.3550  174.3200  143.3660 C   0  0  2  0  0  3  0  0  0  0  0  0
  195.7740  175.5490  145.0430 C   0  0  1  0  0  3  0  0  0  0  0  0
  193.8950  173.3340  145.8000 C   0  0  1  0  0  3  0  0  0  0  0  0
  194.4870  175.8840  145.7940 C   0  0  0  0  0  2  0  0  0  0  0  0
  196.2600  174.1440  145.4170 C   0  0  0  0  0  2  0  0  0  0  0  0
  190.8810  173.6400  140.9430 C   0  0  0  0  0  2  0  0  0  0  0  0
  189.9710  173.4610  142.1550 C   0  0  0  0  0  2  0  0  0  0  0  0
  192.0900  175.1480  146.1400 C   0  0  0  0  0  2  0  0  0  0  0  0
  191.6320  173.9870  144.0290 N   0  0  0  0  0  0  0  0  0  0  0  0
  195.5610  175.6560  143.6380 O   0  0  0  0  0  0  0  0  0  0  0  0
  196.2630  176.5520  142.8280 C   0  0  0  0  0  0  0  0  0  0  0  0
  195.9020  176.7630  141.3960 C   0  0  0  0  0  1  0  0  0  0  0  0
  197.2300  177.1940  143.3160 O   0  0  0  0  0  0  0  0  0  0  0  0
  189.2000  174.4050  144.3700 C   0  0  0  0  0  2  0  0  0  0  0  0
  187.9280  176.1920  145.5810 C   0  0  0  0  0  3  0  0  0  0  0  0
  187.2880  177.4340  145.6130 C   0  0  0  0  0  0  0  0  0  0  0  0
  187.8950  177.8050  143.2980 C   0  0  0  0  0  3  0  0  0  0  0  0
  187.2710  178.2400  144.4720 C   0  0  0  0  0  3  0  0  0  0  0  0
  188.5320  176.5610  143.2660 C   0  0  0  0  0  3  0  0  0  0  0  0
  188.5490  175.7510  144.4080 C   0  0  0  0  0  0  0  0  0  0  0  0
  186.6420  177.8760  146.8160 C   0  0  0  0  0  0  0  0  0  0  0  0
  186.1210  178.2320  147.7870 N   0  0  0  0  0  0  0  0  0  0  0  0
  1 15  1  0  0  0  0
  1  7  1  1  0  0  0
  1 13  1  0  0  0  0
  2  5  1  0  0  0  0
  2 18  1  1  0  0  0
  3  8  1  0  0  0  0
  4 16  1  0  0  0  0
  4  3  1  0  0  0  0
  5 14  1  1  0  0  0
  5 13  1  0  0  0  0
  5 18  1  0  0  0  0
  8 10  2  0  0  0  0
  9  6  1  0  0  0  0
 10  9  2  0  0  0  0
 11 19  1  0  0  0  0
 11 24  1  1  0  0  0
 12 20  1  6  0  0  0
 12 15  1  0  0  0  0
 12 14  1  0  0  0  0
 13  6  1  6  0  0  0
 16 17  1  0  0  0  0
 17 11  1  0  0  0  0
 19  9  1  0  0  0  0
 19  2  1  0  0  0  0
 21 23  2  0  0  0  0
 21 20  1  0  0  0  0
 22 21  1  0  0  0  0
 24 30  1  0  0  0  0
 25 26  1  0  0  0  0
 26 31  1  0  0  0  0
 27 28  1  0  0  0  0
 28 26  2  0  0  0  0
 29 27  2  0  0  0  0
 29 30  1  0  0  0  0
 30 25  2  0  0  0  0
 31 32  3  0  0  0  0
M  END
>  <MODEL>
7

>  <REMARK>
 VINA RESULT:      -6.8      2.300      5.269
  Name = 
  5 active torsions:
  status: ('A' for Active; 'I' for Inactive)
    1  A    between atoms: C_1  and  O_17
    2  A    between atoms: C_7  and  C_22
    3  A    between atoms: C_16  and  C_27
    4  A    between atoms: O_17  and  C_19
    5  A    between atoms: C_27  and  C_32
                            x       y       z     vdW  Elec       q    Type
                         _______ _______ _______ _____ _____    ______ ____

>  <TORSDO>
F 5

$$$$
=
 OpenBabel11052421303D

 32 36  0  0  1  0  0  0  0  0999 V2000
  185.9140  177.5810  141.8690 C   0  0  1  0  0  3  0  0  0  0  0  0
  188.8820  176.8750  143.7490 C   0  0  2  0  0  3  0  0  0  0  0  0
  188.1260  172.4230  140.8870 C   0  0  0  0  0  2  0  0  0  0  0  0
  187.8530  172.7090  142.3750 C   0  0  0  0  0  2  0  0  0  0  0  0
  187.9900  177.9970  143.2280 C   0  0  1  0  0  0  0  0  0  0  0  0
  188.0880  177.0520  140.9500 O   0  0  0  0  0  0  0  0  0  0  0  0
  185.2800  177.7320  140.5010 C   0  0  0  0  0  1  0  0  0  0  0  0
  188.5060  173.6520  140.1000 C   0  0  0  0  0  3  0  0  0  0  0  0
  188.6700  175.8840  141.4260 C   0  0  0  0  0  0  0  0  0  0  0  0
  188.6110  174.8100  140.6920 C   0  0  0  0  0  0  0  0  0  0  0  0
  190.3260  174.9530  143.1730 C   0  0  2  0  0  3  0  0  0  0  0  0
  185.7390  178.3320  144.2790 C   0  0  1  0  0  3  0  0  0  0  0  0
  187.4010  177.9550  141.8090 C   0  0  1  0  0  3  0  0  0  0  0  0
  187.2070  178.7510  144.2950 C   0  0  0  0  0  2  0  0  0  0  0  0
  185.1600  178.4640  142.8660 C   0  0  0  0  0  2  0  0  0  0  0  0
  189.1170  172.6850  143.2390 C   0  0  0  0  0  2  0  0  0  0  0  0
  190.2650  173.5080  142.6620 C   0  0  0  0  0  2  0  0  0  0  0  0
  189.4790  178.2180  143.3170 C   0  0  0  0  0  2  0  0  0  0  0  0
  189.2200  175.8430  142.7630 N   0  0  0  0  0  0  0  0  0  0  0  0
  185.6070  176.9970  144.7600 O   0  0  0  0  0  0  0  0  0  0  0  0
  185.6490  176.6690  146.1170 C   0  0  0  0  0  0  0  0  0  0  0  0
  186.9340  176.3580  146.8090 C   0  0  0  0  0  1  0  0  0  0  0  0
  184.5760  176.6270  146.7730 O   0  0  0  0  0  0  0  0  0  0  0  0
  191.6940  175.5810  142.8880 C   0  0  0  0  0  2  0  0  0  0  0  0
  193.8610  175.1690  144.0780 C   0  0  0  0  0  3  0  0  0  0  0  0
  194.6630  175.2320  145.2210 C   0  0  0  0  0  0  0  0  0  0  0  0
  192.8710  176.3350  146.4190 C   0  0  0  0  0  3  0  0  0  0  0  0
  194.1680  175.8140  146.3910 C   0  0  0  0  0  3  0  0  0  0  0  0
  192.0670  176.2690  145.2760 C   0  0  0  0  0  3  0  0  0  0  0  0
  192.5600  175.6850  144.1030 C   0  0  0  0  0  0  0  0  0  0  0  0
  195.9920  174.6900  145.1930 C   0  0  0  0  0  0  0  0  0  0  0  0
  197.0640  174.2530  145.1700 N   0  0  0  0  0  0  0  0  0  0  0  0
  1  7  1  6  0  0  0
  1 15  1  0  0  0  0
  2 18  1  6  0  0  0
  3  4  1  0  0  0  0
  4 16  1  0  0  0  0
  5 18  1  6  0  0  0
  5  2  1  0  0  0  0
  5 14  1  0  0  0  0
  6  9  1  0  0  0  0
  8 10  2  0  0  0  0
  8  3  1  0  0  0  0
  9 19  1  0  0  0  0
 10  9  2  0  0  0  0
 11 24  1  6  0  0  0
 12 14  1  0  0  0  0
 12 20  1  6  0  0  0
 13  6  1  6  0  0  0
 13  1  1  0  0  0  0
 13  5  1  0  0  0  0
 15 12  1  0  0  0  0
 17 11  1  0  0  0  0
 17 16  1  0  0  0  0
 19 11  1  0  0  0  0
 19  2  1  0  0  0  0
 20 21  1  0  0  0  0
 21 23  2  0  0  0  0
 21 22  1  0  0  0  0
 24 30  1  0  0  0  0
 25 30  2  0  0  0  0
 25 26  1  0  0  0  0
 26 28  2  0  0  0  0
 28 27  1  0  0  0  0
 29 27  2  0  0  0  0
 30 29  1  0  0  0  0
 31 26  1  0  0  0  0
 32 31  3  0  0  0  0
M  END
>  <MODEL>
8

>  <REMARK>
 VINA RESULT:      -6.7      2.919      7.418
  Name = 
  5 active torsions:
  status: ('A' for Active; 'I' for Inactive)
    1  A    between atoms: C_1  and  O_17
    2  A    between atoms: C_7  and  C_22
    3  A    between atoms: C_16  and  C_27
    4  A    between atoms: O_17  and  C_19
    5  A    between atoms: C_27  and  C_32
                            x       y       z     vdW  Elec       q    Type
                         _______ _______ _______ _____ _____    ______ ____

>  <TORSDO>
F 5

$$$$
=
 OpenBabel11052421303D

 32 36  0  0  1  0  0  0  0  0999 V2000
  190.7920  177.1290  147.6360 C   0  0  1  0  0  3  0  0  0  0  0  0
  190.3580  174.6540  145.0820 C   0  0  2  0  0  3  0  0  0  0  0  0
  195.5030  176.0330  144.6220 C   0  0  0  0  0  2  0  0  0  0  0  0
  194.2870  176.4160  143.7590 C   0  0  0  0  0  2  0  0  0  0  0  0
  189.7770  175.1980  146.3830 C   0  0  1  0  0  0  0  0  0  0  0  0
  191.9890  175.0330  147.4670 O   0  0  0  0  0  0  0  0  0  0  0  0
  191.5200  177.5380  148.9010 C   0  0  0  0  0  1  0  0  0  0  0  0
  195.1320  175.2900  145.8820 C   0  0  0  0  0  3  0  0  0  0  0  0
  192.6050  174.7940  146.2450 C   0  0  0  0  0  0  0  0  0  0  0  0
  193.8860  175.0020  146.1370 C   0  0  0  0  0  0  0  0  0  0  0  0
  192.3070  173.6200  143.9660 C   0  0  2  0  0  3  0  0  0  0  0  0
  188.6330  177.4280  146.3520 C   0  0  1  0  0  3  0  0  0  0  0  0
  190.6870  175.6010  147.5550 C   0  0  1  0  0  3  0  0  0  0  0  0
  188.4420  175.9160  146.2470 C   0  0  0  0  0  2  0  0  0  0  0  0
  189.4090  177.7820  147.6250 C   0  0  0  0  0  2  0  0  0  0  0  0
  193.8530  175.3080  142.7960 C   0  0  0  0  0  2  0  0  0  0  0  0
  193.7190  173.9410  143.4620 C   0  0  0  0  0  2  0  0  0  0  0  0
  189.6890  173.7200  146.0950 C   0  0  0  0  0  2  0  0  0  0  0  0
  191.8080  174.4370  145.0920 N   0  0  0  0  0  0  0  0  0  0  0  0
  189.3070  177.9160  145.1940 O   0  0  0  0  0  0  0  0  0  0  0  0
  188.7680  177.8300  143.9070 C   0  0  0  0  0  0  0  0  0  0  0  0
  189.6140  177.4870  142.7260 C   0  0  0  0  0  1  0  0  0  0  0  0
  187.5420  178.0540  143.7380 O   0  0  0  0  0  0  0  0  0  0  0  0
  192.1470  172.1210  144.2400 C   0  0  0  0  0  2  0  0  0  0  0  0
  190.9360  171.9710  142.0510 C   0  0  0  0  0  3  0  0  0  0  0  0
  190.4910  171.2430  140.9430 C   0  0  0  0  0  0  0  0  0  0  0  0
  191.5880  169.2630  141.8030 C   0  0  0  0  0  3  0  0  0  0  0  0
  190.8170  169.8900  140.8190 C   0  0  0  0  0  3  0  0  0  0  0  0
  192.0310  169.9900  142.9120 C   0  0  0  0  0  3  0  0  0  0  0  0
  191.7050  171.3460  143.0390 C   0  0  0  0  0  0  0  0  0  0  0  0
  189.6930  171.8860  139.9380 C   0  0  0  0  0  0  0  0  0  0  0  0
  189.0500  172.4050  139.1270 N   0  0  0  0  0  0  0  0  0  0  0  0
  1  7  1  1  0  0  0
  2 19  1  0  0  0  0
  2 18  1  1  0  0  0
  2  5  1  0  0  0  0
  3  8  1  0  0  0  0
  4  3  1  0  0  0  0
  5 18  1  1  0  0  0
  5 13  1  0  0  0  0
  8 10  2  0  0  0  0
  9  6  1  0  0  0  0
 10  9  2  0  0  0  0
 11 24  1  1  0  0  0
 11 19  1  0  0  0  0
 12 20  1  6  0  0  0
 12 15  1  0  0  0  0
 13  6  1  6  0  0  0
 13  1  1  0  0  0  0
 14 12  1  0  0  0  0
 14  5  1  0  0  0  0
 15  1  1  0  0  0  0
 16 17  1  0  0  0  0
 16  4  1  0  0  0  0
 17 11  1  0  0  0  0
 19  9  1  0  0  0  0
 21 20  1  0  0  0  0
 22 21  1  0  0  0  0
 23 21  2  0  0  0  0
 25 30  1  0  0  0  0
 26 25  2  0  0  0  0
 27 29  1  0  0  0  0
 28 26  1  0  0  0  0
 28 27  2  0  0  0  0
 29 30  2  0  0  0  0
 30 24  1  0  0  0  0
 31 26  1  0  0  0  0
 32 31  3  0  0  0  0
M  END
>  <MODEL>
9

>  <REMARK>
 VINA RESULT:      -6.6      3.012      6.725
  Name = 
  5 active torsions:
  status: ('A' for Active; 'I' for Inactive)
    1  A    between atoms: C_1  and  O_17
    2  A    between atoms: C_7  and  C_22
    3  A    between atoms: C_16  and  C_27
    4  A    between atoms: O_17  and  C_19
    5  A    between atoms: C_27  and  C_32
                            x       y       z     vdW  Elec       q    Type
                         _______ _______ _______ _____ _____    ______ ____

>  <TORSDO>
F 5

$$$$
