=
 OpenBabel11052418253D

 27 31  0  0  0  0  0  0  0  0999 V2000
  190.3870  173.9870  144.3390 C   0  0  0  0  0  3  0  0  0  0  0  0
  189.4180  176.0780  145.2280 C   0  0  0  0  0  0  0  0  0  0  0  0
  188.4510  175.8720  142.9880 N   0  0  0  0  0  0  0  0  0  0  0  0
  185.9010  177.2580  146.8400 C   0  0  0  0  0  3  0  0  0  0  0  0
  184.6920  177.6070  146.4010 C   0  0  0  0  0  2  0  0  0  0  0  0
  189.3470  176.5990  146.6110 C   0  0  0  0  0  3  0  0  0  0  0  0
  186.3970  177.5820  143.8350 C   0  0  0  0  0  3  0  0  0  0  0  0
  188.4880  173.0730  140.7410 C   0  0  0  0  0  0  0  0  0  0  0  0
  185.1760  178.3790  144.0650 C   0  0  0  0  0  3  0  0  0  0  0  0
  187.8870  172.7450  139.6860 O   0  0  0  0  0  0  0  0  0  0  0  0
  187.2780  177.1910  144.7650 C   0  0  0  0  0  0  0  0  0  0  0  0
  190.5740  175.3080  144.8560 N   0  0  0  0  0  0  0  0  0  0  0  0
  184.4320  178.3870  145.1770 C   0  0  0  0  0  3  0  0  0  0  0  0
  187.1650  177.7020  146.1830 C   0  0  0  0  0  0  0  0  0  0  0  0
  189.6100  173.7240  143.2940 C   0  0  0  0  0  0  0  0  0  0  0  0
  188.4210  176.3310  144.3540 C   0  0  0  0  0  0  0  0  0  0  0  0
  188.7450  174.5260  141.0240 C   0  0  0  0  0  2  0  0  0  0  0  0
  188.3290  177.3330  147.0490 C   0  0  0  0  0  3  0  0  0  0  0  0
  188.9960  172.0260  141.6440 C   0  0  0  0  0  3  0  0  0  0  0  0
  189.5410  172.3330  142.8220 C   0  0  0  0  0  3  0  0  0  0  0  0
  188.9500  174.7800  142.4890 C   0  0  0  0  0  0  0  0  0  0  0  0
  194.5040  176.4980  145.9880 C   0  0  0  0  0  3  0  0  0  0  0  0
  191.9010  175.7210  145.2560 C   0  0  0  0  0  0  0  0  0  0  0  0
  192.5200  176.8220  144.6390 C   0  0  0  0  0  3  0  0  0  0  0  0
  193.8120  177.2100  145.0050 C   0  0  0  0  0  3  0  0  0  0  0  0
  193.9040  175.3960  146.6020 C   0  0  0  0  0  3  0  0  0  0  0  0
  192.6130  175.0080  146.2360 C   0  0  0  0  0  3  0  0  0  0  0  0
  1 12  1  0  0  0  0
  2  6  1  0  0  0  0
  3 16  1  0  0  0  0
  5  4  1  0  0  0  0
  6 18  2  0  0  0  0
  7  9  1  0  0  0  0
  7 11  2  0  0  0  0
  8 17  1  0  0  0  0
  8 19  1  0  0  0  0
  9 13  2  0  0  0  0
 10  8  2  0  0  0  0
 11 14  1  0  0  0  0
 12  2  1  0  0  0  0
 12 23  1  0  0  0  0
 13  5  1  0  0  0  0
 14  4  2  0  0  0  0
 14 18  1  0  0  0  0
 15  1  2  0  0  0  0
 16 11  1  0  0  0  0
 16  2  2  0  0  0  0
 17 21  1  0  0  0  0
 19 20  2  0  0  0  0
 20 15  1  0  0  0  0
 21  3  2  0  0  0  0
 21 15  1  0  0  0  0
 22 26  1  0  0  0  0
 23 27  1  0  0  0  0
 24 25  1  0  0  0  0
 24 23  2  0  0  0  0
 25 22  2  0  0  0  0
 27 26  2  0  0  0  0
M  END
>  <MODEL>
1

>  <REMARK>
 VINA RESULT:      -8.7      0.000      0.000
  Name = 
  1 active torsions:
  status: ('A' for Active; 'I' for Inactive)
    1  A    between atoms: C_9  and  N_15
                            x       y       z     vdW  Elec       q    Type
                         _______ _______ _______ _____ _____    ______ ____

>  <TORSDO>
F 1

$$$$
=
 OpenBabel11052418253D

 27 31  0  0  1  0  0  0  0  0999 V2000
  190.5680  175.6640  143.4120 C   0  0  0  0  0  3  0  0  0  0  0  0
  188.1730  176.1000  142.9890 C   0  0  0  0  0  0  0  0  0  0  0  0
  188.2910  175.6790  145.3980 N   0  0  0  0  0  0  0  0  0  0  0  0
  185.5970  179.1830  143.4670 C   0  0  0  0  0  3  0  0  0  0  0  0
  184.8890  179.7200  144.4600 C   0  0  0  0  0  3  0  0  0  0  0  0
  187.4930  176.7150  141.8290 C   0  0  0  0  0  3  0  0  0  0  0  0
  185.8580  177.0480  145.6480 C   0  0  0  0  0  3  0  0  0  0  0  0
  191.1690  175.4630  147.5320 C   0  0  0  0  0  0  0  0  0  0  0  0
  184.6480  177.7940  146.0460 C   0  0  0  0  0  3  0  0  0  0  0  0
  191.3850  175.4610  148.7720 O   0  0  0  0  0  0  0  0  0  0  0  0
  186.4230  177.0400  144.4330 C   0  0  0  0  0  0  0  0  0  0  0  0
  189.3520  175.3160  142.7420 N   0  0  0  0  0  0  0  0  0  0  0  0
  184.2290  178.9570  145.5340 C   0  0  0  0  0  3  0  0  0  0  0  0
  185.7320  177.7090  143.2680 C   0  0  0  0  0  0  0  0  0  0  0  0
  190.6580  175.7740  144.7320 C   0  0  0  0  0  0  0  0  0  0  0  0
  187.6850  176.2770  144.2350 C   0  0  2  0  0  3  0  0  0  0  0  0
  189.8870  174.8850  147.0040 C   0  0  0  0  0  2  0  0  0  0  0  0
  186.3890  177.4460  141.9490 C   0  0  0  0  0  3  0  0  0  0  0  0
  192.2070  175.9650  146.6160 C   0  0  0  0  0  3  0  0  0  0  0  0
  191.9740  176.0850  145.3080 C   0  0  0  0  0  3  0  0  0  0  0  0
  189.5440  175.4370  145.6510 C   0  0  0  0  0  0  0  0  0  0  0  0
  189.5150  172.5300  139.5230 C   0  0  0  0  0  3  0  0  0  0  0  0
  189.4050  174.3850  141.6360 C   0  0  0  0  0  0  0  0  0  0  0  0
  188.2700  173.6370  141.2790 C   0  0  0  0  0  3  0  0  0  0  0  0
  188.3230  172.7190  140.2270 C   0  0  0  0  0  3  0  0  0  0  0  0
  190.6540  173.2590  139.8740 C   0  0  0  0  0  3  0  0  0  0  0  0
  190.6010  174.1770  140.9260 C   0  0  0  0  0  3  0  0  0  0  0  0
  1 15  2  0  0  0  0
  3 21  2  0  0  0  0
  4  5  2  0  0  0  0
  5 13  1  0  0  0  0
  6 18  1  0  0  0  0
  6  2  2  0  0  0  0
  7  9  1  0  0  0  0
  8 10  2  0  0  0  0
 11  7  2  0  0  0  0
 12  2  1  0  0  0  0
 12  1  1  0  0  0  0
 13  9  2  0  0  0  0
 14  4  1  0  0  0  0
 14 11  1  0  0  0  0
 15 20  1  0  0  0  0
 15 21  1  0  0  0  0
 16  2  1  6  0  0  0
 16 11  1  0  0  0  0
 16  3  1  0  0  0  0
 17  8  1  0  0  0  0
 18 14  2  0  0  0  0
 19  8  1  0  0  0  0
 20 19  2  0  0  0  0
 21 17  1  0  0  0  0
 22 26  2  0  0  0  0
 22 25  1  0  0  0  0
 23 12  1  0  0  0  0
 24 23  1  0  0  0  0
 25 24  2  0  0  0  0
 26 27  1  0  0  0  0
 27 23  2  0  0  0  0
M  END
>  <MODEL>
2

>  <REMARK>
 VINA RESULT:      -8.4      2.441      5.183
  Name = 
  1 active torsions:
  status: ('A' for Active; 'I' for Inactive)
    1  A    between atoms: C_9  and  N_15
                            x       y       z     vdW  Elec       q    Type
                         _______ _______ _______ _____ _____    ______ ____

>  <TORSDO>
F 1

$$$$
=
 OpenBabel11052418253D

 27 31  0  0  1  0  0  0  0  0999 V2000
  190.6420  176.0420  142.7070 C   0  0  0  0  0  3  0  0  0  0  0  0
  188.2590  175.9620  143.3530 C   0  0  0  0  0  0  0  0  0  0  0  0
  189.4630  175.8180  145.4800 N   0  0  0  0  0  0  0  0  0  0  0  0
  185.5160  178.5220  144.8670 C   0  0  0  0  0  3  0  0  0  0  0  0
  185.1900  179.0110  146.0630 C   0  0  0  0  0  3  0  0  0  0  0  0
  187.0390  176.3130  142.5940 C   0  0  0  0  0  3  0  0  0  0  0  0
  187.1250  176.7100  146.7420 C   0  0  0  0  0  3  0  0  0  0  0  0
  192.9410  176.3810  146.1690 C   0  0  0  0  0  0  0  0  0  0  0  0
  186.0620  177.2450  147.6160 C   0  0  0  0  0  3  0  0  0  0  0  0
  193.6510  176.5460  147.1940 O   0  0  0  0  0  0  0  0  0  0  0  0
  187.1160  176.6880  145.4020 C   0  0  0  0  0  0  0  0  0  0  0  0
  189.3660  175.3990  142.6290 N   0  0  0  0  0  0  0  0  0  0  0  0
  185.2240  178.2480  147.3240 C   0  0  0  0  0  3  0  0  0  0  0  0
  185.8730  177.0900  144.6430 C   0  0  0  0  0  0  0  0  0  0  0  0
  191.2500  176.3010  143.8590 C   0  0  0  0  0  0  0  0  0  0  0  0
  188.3120  176.1670  144.6860 C   0  0  2  0  0  3  0  0  0  0  0  0
  191.7160  175.5160  146.2480 C   0  0  0  0  0  2  0  0  0  0  0  0
  185.9570  176.8250  143.1720 C   0  0  0  0  0  3  0  0  0  0  0  0
  193.3620  176.9780  144.8900 C   0  0  0  0  0  3  0  0  0  0  0  0
  192.5840  176.9170  143.8090 C   0  0  0  0  0  3  0  0  0  0  0  0
  190.7260  175.8500  145.1710 C   0  0  0  0  0  0  0  0  0  0  0  0
  188.7930  172.4280  139.6320 C   0  0  0  0  0  3  0  0  0  0  0  0
  189.1530  174.3880  141.6170 C   0  0  0  0  0  0  0  0  0  0  0  0
  189.5460  173.0580  141.8440 C   0  0  0  0  0  3  0  0  0  0  0  0
  189.3640  172.0830  140.8590 C   0  0  0  0  0  3  0  0  0  0  0  0
  188.4070  173.7470  139.3890 C   0  0  0  0  0  3  0  0  0  0  0  0
  188.5890  174.7220  140.3730 C   0  0  0  0  0  3  0  0  0  0  0  0
  1 15  2  0  0  0  0
  4  5  2  0  0  0  0
  5 13  1  0  0  0  0
  6 18  1  0  0  0  0
  6  2  2  0  0  0  0
  7  9  1  0  0  0  0
  8 17  1  0  0  0  0
  8 10  2  0  0  0  0
 11  7  2  0  0  0  0
 12  1  1  0  0  0  0
 12  2  1  0  0  0  0
 13  9  2  0  0  0  0
 14  4  1  0  0  0  0
 14 11  1  0  0  0  0
 15 21  1  0  0  0  0
 16  2  1  1  0  0  0
 16 11  1  0  0  0  0
 16  3  1  0  0  0  0
 18 14  2  0  0  0  0
 19  8  1  0  0  0  0
 20 15  1  0  0  0  0
 20 19  2  0  0  0  0
 21  3  2  0  0  0  0
 21 17  1  0  0  0  0
 22 25  1  0  0  0  0
 23 24  1  0  0  0  0
 23 12  1  0  0  0  0
 25 24  2  0  0  0  0
 26 22  2  0  0  0  0
 26 27  1  0  0  0  0
 27 23  2  0  0  0  0
M  END
>  <MODEL>
3

>  <REMARK>
 VINA RESULT:      -8.3      2.298      5.307
  Name = 
  1 active torsions:
  status: ('A' for Active; 'I' for Inactive)
    1  A    between atoms: C_9  and  N_15
                            x       y       z     vdW  Elec       q    Type
                         _______ _______ _______ _____ _____    ______ ____

>  <TORSDO>
F 1

$$$$
=
 OpenBabel11052418253D

 27 31  0  0  1  0  0  0  0  0999 V2000
  187.5980  176.6700  142.4740 C   0  0  0  0  0  3  0  0  0  0  0  0
  188.9600  176.4950  144.5280 C   0  0  0  0  0  0  0  0  0  0  0  0
  189.2020  174.3070  143.4570 N   0  0  0  0  0  0  0  0  0  0  0  0
  192.8830  176.6600  145.5010 C   0  0  0  0  0  3  0  0  0  0  0  0
  193.9340  175.8410  145.4700 C   0  0  0  0  0  3  0  0  0  0  0  0
  189.4790  177.5410  145.4350 C   0  0  0  0  0  3  0  0  0  0  0  0
  191.5520  173.9580  144.9460 C   0  0  0  0  0  3  0  0  0  0  0  0
  188.2680  173.2760  140.1480 C   0  0  0  0  0  0  0  0  0  0  0  0
  192.8490  173.5810  145.5400 C   0  0  0  0  0  3  0  0  0  0  0  0
  188.5020  172.2910  139.4010 O   0  0  0  0  0  0  0  0  0  0  0  0
  190.9540  175.1540  145.0330 C   0  0  0  0  0  0  0  0  0  0  0  0
  187.6850  176.7170  143.9020 N   0  0  0  0  0  0  0  0  0  0  0  0
  193.8860  174.3970  145.7640 C   0  0  0  0  0  3  0  0  0  0  0  0
  191.5230  176.2240  145.9350 C   0  0  2  0  0  3  0  0  0  0  0  0
  188.0080  175.6280  141.7600 C   0  0  0  0  0  0  0  0  0  0  0  0
  189.6730  175.3700  144.3090 C   0  0  0  0  0  0  0  0  0  0  0  0
  188.2300  173.0830  141.6370 C   0  0  0  0  0  2  0  0  0  0  0  0
  190.6390  177.4250  146.0740 C   0  0  0  0  0  3  0  0  0  0  0  0
  187.9620  174.5860  139.5480 C   0  0  0  0  0  3  0  0  0  0  0  0
  187.8160  175.6750  140.3030 C   0  0  0  0  0  3  0  0  0  0  0  0
  188.4880  174.3650  142.3720 C   0  0  0  0  0  0  0  0  0  0  0  0
  184.4530  178.3550  146.1410 C   0  0  0  0  0  3  0  0  0  0  0  0
  186.5750  177.2620  144.6520 C   0  0  0  0  0  0  0  0  0  0  0  0
  186.0120  178.4990  144.2950 C   0  0  0  0  0  3  0  0  0  0  0  0
  184.9560  179.0410  145.0320 C   0  0  0  0  0  3  0  0  0  0  0  0
  185.0090  177.1290  146.5120 C   0  0  0  0  0  3  0  0  0  0  0  0
  186.0650  176.5880  145.7760 C   0  0  0  0  0  3  0  0  0  0  0  0
  1 12  1  0  0  0  0
  2  6  1  0  0  0  0
  3 16  1  0  0  0  0
  5  4  2  0  0  0  0
  5 13  1  0  0  0  0
  6 18  2  0  0  0  0
  7 11  2  0  0  0  0
  7  9  1  0  0  0  0
  8 17  1  0  0  0  0
  9 13  2  0  0  0  0
 10  8  2  0  0  0  0
 11 14  1  0  0  0  0
 12  2  1  0  0  0  0
 12 23  1  0  0  0  0
 14  4  1  6  0  0  0
 14 18  1  0  0  0  0
 15 21  1  0  0  0  0
 15  1  2  0  0  0  0
 16  2  2  0  0  0  0
 16 11  1  0  0  0  0
 17 21  1  0  0  0  0
 19  8  1  0  0  0  0
 19 20  2  0  0  0  0
 20 15  1  0  0  0  0
 21  3  2  0  0  0  0
 22 26  1  0  0  0  0
 23 27  1  0  0  0  0
 24 23  2  0  0  0  0
 24 25  1  0  0  0  0
 25 22  2  0  0  0  0
 27 26  2  0  0  0  0
M  END
>  <MODEL>
4

>  <REMARK>
 VINA RESULT:      -8.2      1.248      5.743
  Name = 
  1 active torsions:
  status: ('A' for Active; 'I' for Inactive)
    1  A    between atoms: C_9  and  N_15
                            x       y       z     vdW  Elec       q    Type
                         _______ _______ _______ _____ _____    ______ ____

>  <TORSDO>
F 1

$$$$
=
 OpenBabel11052418253D

 27 31  0  0  1  0  0  0  0  0999 V2000
  188.2420  176.4840  143.1230 C   0  0  0  0  0  3  0  0  0  0  0  0
  189.7740  176.0790  145.0180 C   0  0  0  0  0  0  0  0  0  0  0  0
  189.7680  173.9630  143.7870 N   0  0  0  0  0  0  0  0  0  0  0  0
  193.7730  175.9350  145.6120 C   0  0  0  0  0  3  0  0  0  0  0  0
  194.7590  175.0580  145.4250 C   0  0  0  0  0  3  0  0  0  0  0  0
  190.4450  177.0230  145.9370 C   0  0  0  0  0  3  0  0  0  0  0  0
  192.2170  173.3650  145.0130 C   0  0  0  0  0  3  0  0  0  0  0  0
  188.4620  173.2320  140.5240 C   0  0  0  0  0  0  0  0  0  0  0  0
  193.5360  172.8690  145.4520 C   0  0  0  0  0  3  0  0  0  0  0  0
  188.5590  172.2910  139.6940 O   0  0  0  0  0  0  0  0  0  0  0  0
  191.7120  174.5860  145.2370 C   0  0  0  0  0  0  0  0  0  0  0  0
  188.4640  176.4230  144.5350 N   0  0  0  0  0  0  0  0  0  0  0  0
  194.6420  173.6020  145.6270 C   0  0  0  0  0  3  0  0  0  0  0  0
  192.4340  175.5520  146.1480 C   0  0  2  0  0  3  0  0  0  0  0  0
  188.5120  175.4730  142.3050 C   0  0  0  0  0  0  0  0  0  0  0  0
  190.3860  174.9310  144.6570 C   0  0  0  0  0  0  0  0  0  0  0  0
  188.5500  172.9350  141.9930 C   0  0  0  0  0  2  0  0  0  0  0  0
  191.6490  176.7910  146.4510 C   0  0  0  0  0  3  0  0  0  0  0  0
  188.1910  174.5980  140.0440 C   0  0  0  0  0  3  0  0  0  0  0  0
  188.1900  175.6370  140.8800 C   0  0  0  0  0  3  0  0  0  0  0  0
  188.9610  174.1430  142.7820 C   0  0  0  0  0  0  0  0  0  0  0  0
  185.5690  178.0980  147.1720 C   0  0  0  0  0  3  0  0  0  0  0  0
  187.4690  176.9780  145.4240 C   0  0  0  0  0  0  0  0  0  0  0  0
  186.7380  178.1190  145.0520 C   0  0  0  0  0  3  0  0  0  0  0  0
  185.7920  178.6740  145.9190 C   0  0  0  0  0  3  0  0  0  0  0  0
  186.2960  176.9700  147.5590 C   0  0  0  0  0  3  0  0  0  0  0  0
  187.2420  176.4160  146.6930 C   0  0  0  0  0  3  0  0  0  0  0  0
  1 12  1  0  0  0  0
  2  6  1  0  0  0  0
  3 16  1  0  0  0  0
  5  4  2  0  0  0  0
  5 13  1  0  0  0  0
  6 18  2  0  0  0  0
  7 11  2  0  0  0  0
  7  9  1  0  0  0  0
  8 17  1  0  0  0  0
  9 13  2  0  0  0  0
 10  8  2  0  0  0  0
 11 14  1  0  0  0  0
 12  2  1  0  0  0  0
 12 23  1  0  0  0  0
 14  4  1  6  0  0  0
 14 18  1  0  0  0  0
 15 21  1  0  0  0  0
 15  1  2  0  0  0  0
 16  2  2  0  0  0  0
 16 11  1  0  0  0  0
 17 21  1  0  0  0  0
 19  8  1  0  0  0  0
 19 20  2  0  0  0  0
 20 15  1  0  0  0  0
 21  3  2  0  0  0  0
 22 26  1  0  0  0  0
 23 27  1  0  0  0  0
 24 23  2  0  0  0  0
 24 25  1  0  0  0  0
 25 22  2  0  0  0  0
 27 26  2  0  0  0  0
M  END
>  <MODEL>
5

>  <REMARK>
 VINA RESULT:      -8.0      1.321      5.760
  Name = 
  1 active torsions:
  status: ('A' for Active; 'I' for Inactive)
    1  A    between atoms: C_9  and  N_15
                            x       y       z     vdW  Elec       q    Type
                         _______ _______ _______ _____ _____    ______ ____

>  <TORSDO>
F 1

$$$$
=
 OpenBabel11052418253D

 27 31  0  0  1  0  0  0  0  0999 V2000
  190.5580  173.8700  144.1800 C   0  0  0  0  0  3  0  0  0  0  0  0
  189.5120  176.1050  144.0710 C   0  0  0  0  0  0  0  0  0  0  0  0
  189.3980  175.2760  141.7700 N   0  0  0  0  0  0  0  0  0  0  0  0
  185.7610  177.6130  143.9090 C   0  0  0  0  0  3  0  0  0  0  0  0
  184.8230  177.8040  142.9820 C   0  0  0  0  0  3  0  0  0  0  0  0
  188.9930  176.9830  145.1420 C   0  0  0  0  0  3  0  0  0  0  0  0
  187.3260  177.1100  141.3240 C   0  0  0  0  0  3  0  0  0  0  0  0
  190.0050  171.9690  140.5100 C   0  0  0  0  0  0  0  0  0  0  0  0
  186.1740  177.9160  140.8720 C   0  0  0  0  0  3  0  0  0  0  0  0
  189.7960  171.3530  139.4340 O   0  0  0  0  0  0  0  0  0  0  0  0
  187.7800  177.0070  142.5800 C   0  0  0  0  0  0  0  0  0  0  0  0
  190.6560  175.2860  144.3640 N   0  0  0  0  0  0  0  0  0  0  0  0
  185.0840  178.2140  141.5900 C   0  0  0  0  0  3  0  0  0  0  0  0
  187.2090  177.8840  143.6700 C   0  0  2  0  0  3  0  0  0  0  0  0
  190.1880  173.3160  143.0310 C   0  0  0  0  0  0  0  0  0  0  0  0
  188.9190  176.0900  142.8580 C   0  0  0  0  0  0  0  0  0  0  0  0
  190.2630  173.4490  140.4770 C   0  0  0  0  0  2  0  0  0  0  0  0
  187.9510  177.7900  144.9670 C   0  0  0  0  0  3  0  0  0  0  0  0
  190.0660  171.2200  141.7770 C   0  0  0  0  0  3  0  0  0  0  0  0
  190.1770  171.8480  142.9470 C   0  0  0  0  0  3  0  0  0  0  0  0
  189.9500  174.0980  141.7930 C   0  0  0  0  0  0  0  0  0  0  0  0
  194.0010  176.8130  146.5130 C   0  0  0  0  0  3  0  0  0  0  0  0
  191.7800  175.8190  145.1000 C   0  0  0  0  0  0  0  0  0  0  0  0
  192.7580  176.5900  144.4480 C   0  0  0  0  0  3  0  0  0  0  0  0
  193.8600  177.0860  145.1500 C   0  0  0  0  0  3  0  0  0  0  0  0
  193.0430  176.0400  147.1720 C   0  0  0  0  0  3  0  0  0  0  0  0
  191.9420  175.5430  146.4700 C   0  0  0  0  0  3  0  0  0  0  0  0
  1 12  1  0  0  0  0
  2 12  1  0  0  0  0
  2  6  1  0  0  0  0
  3 21  2  0  0  0  0
  3 16  1  0  0  0  0
  5  4  2  0  0  0  0
  7 11  2  0  0  0  0
  8 19  1  0  0  0  0
  9  7  1  0  0  0  0
  9 13  2  0  0  0  0
 10  8  2  0  0  0  0
 11 16  1  0  0  0  0
 11 14  1  0  0  0  0
 12 23  1  0  0  0  0
 13  5  1  0  0  0  0
 14  4  1  1  0  0  0
 14 18  1  0  0  0  0
 15  1  2  0  0  0  0
 16  2  2  0  0  0  0
 17  8  1  0  0  0  0
 17 21  1  0  0  0  0
 18  6  2  0  0  0  0
 19 20  2  0  0  0  0
 20 15  1  0  0  0  0
 21 15  1  0  0  0  0
 22 26  1  0  0  0  0
 23 27  1  0  0  0  0
 24 23  2  0  0  0  0
 24 25  1  0  0  0  0
 25 22  2  0  0  0  0
 27 26  2  0  0  0  0
M  END
>  <MODEL>
6

>  <REMARK>
 VINA RESULT:      -7.9      1.448      1.917
  Name = 
  1 active torsions:
  status: ('A' for Active; 'I' for Inactive)
    1  A    between atoms: C_9  and  N_15
                            x       y       z     vdW  Elec       q    Type
                         _______ _______ _______ _____ _____    ______ ____

>  <TORSDO>
F 1

$$$$
=
 OpenBabel11052418253D

 27 31  0  0  1  0  0  0  0  0999 V2000
  190.1600  175.0180  142.8080 C   0  0  0  0  0  3  0  0  0  0  0  0
  191.6900  174.9950  144.7470 C   0  0  0  0  0  0  0  0  0  0  0  0
  191.7310  172.6900  143.9220 N   0  0  0  0  0  0  0  0  0  0  0  0
  195.6880  175.0400  145.3620 C   0  0  0  0  0  3  0  0  0  0  0  0
  196.6910  174.1630  145.3390 C   0  0  0  0  0  3  0  0  0  0  0  0
  192.3380  176.1030  145.4800 C   0  0  0  0  0  3  0  0  0  0  0  0
  194.1850  172.3740  145.2390 C   0  0  0  0  0  3  0  0  0  0  0  0
  190.4540  171.3510  140.8450 C   0  0  0  0  0  0  0  0  0  0  0  0
  195.5110  171.9920  145.7630 C   0  0  0  0  0  3  0  0  0  0  0  0
  190.5730  170.2770  140.2010 O   0  0  0  0  0  0  0  0  0  0  0  0
  193.6550  173.6050  145.2370 C   0  0  0  0  0  0  0  0  0  0  0  0
  190.3760  175.2190  144.2080 N   0  0  0  0  0  0  0  0  0  0  0  0
  196.6020  172.7670  145.8020 C   0  0  0  0  0  3  0  0  0  0  0  0
  194.3540  174.7350  145.9570 C   0  0  2  0  0  3  0  0  0  0  0  0
  190.4530  173.8800  142.1890 C   0  0  0  0  0  0  0  0  0  0  0  0
  192.3260  173.8120  144.6020 C   0  0  0  0  0  0  0  0  0  0  0  0
  190.5410  171.3280  142.3440 C   0  0  0  0  0  2  0  0  0  0  0  0
  193.5440  175.9920  146.0290 C   0  0  0  0  0  3  0  0  0  0  0  0
  190.1600  172.6010  140.1240 C   0  0  0  0  0  3  0  0  0  0  0  0
  190.1340  173.7740  140.7570 C   0  0  0  0  0  3  0  0  0  0  0  0
  190.9250  172.6680  142.9010 C   0  0  0  0  0  0  0  0  0  0  0  0
  187.3600  177.2080  146.4630 C   0  0  0  0  0  3  0  0  0  0  0  0
  189.3660  175.9070  144.9800 C   0  0  0  0  0  0  0  0  0  0  0  0
  188.9420  175.3920  146.2180 C   0  0  0  0  0  3  0  0  0  0  0  0
  187.9470  176.0410  146.9560 C   0  0  0  0  0  3  0  0  0  0  0  0
  187.7640  177.7250  145.2300 C   0  0  0  0  0  3  0  0  0  0  0  0
  188.7580  177.0770  144.4920 C   0  0  0  0  0  3  0  0  0  0  0  0
  1 12  1  0  0  0  0
  2  6  1  0  0  0  0
  3 16  1  0  0  0  0
  5  4  2  0  0  0  0
  5 13  1  0  0  0  0
  6 18  2  0  0  0  0
  7  9  1  0  0  0  0
  8 17  1  0  0  0  0
  9 13  2  0  0  0  0
 10  8  2  0  0  0  0
 11  7  2  0  0  0  0
 11 14  1  0  0  0  0
 12  2  1  0  0  0  0
 12 23  1  0  0  0  0
 14  4  1  6  0  0  0
 14 18  1  0  0  0  0
 15  1  2  0  0  0  0
 15 21  1  0  0  0  0
 16  2  2  0  0  0  0
 16 11  1  0  0  0  0
 17 21  1  0  0  0  0
 19 20  2  0  0  0  0
 19  8  1  0  0  0  0
 20 15  1  0  0  0  0
 21  3  2  0  0  0  0
 22 25  1  0  0  0  0
 23 24  1  0  0  0  0
 24 25  2  0  0  0  0
 26 22  2  0  0  0  0
 27 23  2  0  0  0  0
 27 26  1  0  0  0  0
M  END
>  <MODEL>
7

>  <REMARK>
 VINA RESULT:      -7.6      2.029      6.464
  Name = 
  1 active torsions:
  status: ('A' for Active; 'I' for Inactive)
    1  A    between atoms: C_9  and  N_15
                            x       y       z     vdW  Elec       q    Type
                         _______ _______ _______ _____ _____    ______ ____

>  <TORSDO>
F 1

$$$$
=
 OpenBabel11052418253D

 27 31  0  0  1  0  0  0  0  0999 V2000
  189.2460  176.3050  145.5510 C   0  0  0  0  0  3  0  0  0  0  0  0
  188.9130  175.5580  143.2200 C   0  0  0  0  0  0  0  0  0  0  0  0
  191.3310  175.8920  143.4050 N   0  0  0  0  0  0  0  0  0  0  0  0
  189.3590  172.1310  141.1180 C   0  0  0  0  0  3  0  0  0  0  0  0
  190.3560  171.4590  140.5430 C   0  0  0  0  0  3  0  0  0  0  0  0
  187.7570  174.9030  142.5710 C   0  0  0  0  0  3  0  0  0  0  0  0
  191.6270  174.1890  141.1980 C   0  0  0  0  0  3  0  0  0  0  0  0
  193.3400  176.4160  146.3340 C   0  0  0  0  0  0  0  0  0  0  0  0
  192.0430  173.2660  140.1240 C   0  0  0  0  0  3  0  0  0  0  0  0
  194.5660  176.3970  146.6120 O   0  0  0  0  0  0  0  0  0  0  0  0
  190.3890  174.3260  141.6930 C   0  0  0  0  0  0  0  0  0  0  0  0
  188.6500  176.5090  144.2670 N   0  0  0  0  0  0  0  0  0  0  0  0
  191.4950  172.0780  139.8420 C   0  0  0  0  0  3  0  0  0  0  0  0
  189.2260  173.6150  141.0400 C   0  0  0  0  0  0  0  0  0  0  0  0
  190.5540  176.1530  145.7240 C   0  0  0  0  0  0  0  0  0  0  0  0
  190.1700  175.2640  142.8270 C   0  0  2  0  0  3  0  0  0  0  0  0
  192.8990  176.8310  144.9600 C   0  0  0  0  0  2  0  0  0  0  0  0
  187.8920  174.0220  141.5850 C   0  0  0  0  0  3  0  0  0  0  0  0
  192.3530  176.1010  147.3810 C   0  0  0  0  0  3  0  0  0  0  0  0
  191.0530  176.0050  147.1000 C   0  0  0  0  0  3  0  0  0  0  0  0
  191.5390  176.2940  144.6240 C   0  0  0  0  0  0  0  0  0  0  0  0
  185.5660  179.4210  143.8790 C   0  0  0  0  0  3  0  0  0  0  0  0
  187.5900  177.4830  144.1340 C   0  0  0  0  0  0  0  0  0  0  0  0
  187.3220  178.0800  142.8900 C   0  0  0  0  0  3  0  0  0  0  0  0
  186.3150  179.0410  142.7630 C   0  0  0  0  0  3  0  0  0  0  0  0
  185.8280  178.8430  145.1230 C   0  0  0  0  0  3  0  0  0  0  0  0
  186.8350  177.8840  145.2510 C   0  0  0  0  0  3  0  0  0  0  0  0
  1 15  2  0  0  0  0
  2 12  1  0  0  0  0
  3 21  2  0  0  0  0
  5  4  2  0  0  0  0
  6  2  2  0  0  0  0
  7 11  2  0  0  0  0
  8 10  2  0  0  0  0
  8 19  1  0  0  0  0
  9  7  1  0  0  0  0
 12  1  1  0  0  0  0
 13  9  2  0  0  0  0
 13  5  1  0  0  0  0
 14  4  1  0  0  0  0
 14 18  2  0  0  0  0
 14 11  1  0  0  0  0
 15 20  1  0  0  0  0
 16 11  1  6  0  0  0
 16  2  1  0  0  0  0
 16  3  1  0  0  0  0
 17  8  1  0  0  0  0
 18  6  1  0  0  0  0
 20 19  2  0  0  0  0
 21 17  1  0  0  0  0
 21 15  1  0  0  0  0
 22 26  1  0  0  0  0
 23 12  1  0  0  0  0
 23 27  1  0  0  0  0
 24 23  2  0  0  0  0
 25 24  1  0  0  0  0
 25 22  2  0  0  0  0
 26 27  2  0  0  0  0
M  END
>  <MODEL>
8

>  <REMARK>
 VINA RESULT:      -7.5      2.550      6.841
  Name = 
  1 active torsions:
  status: ('A' for Active; 'I' for Inactive)
    1  A    between atoms: C_9  and  N_15
                            x       y       z     vdW  Elec       q    Type
                         _______ _______ _______ _____ _____    ______ ____

>  <TORSDO>
F 1

$$$$
=
 OpenBabel11052418253D

 27 31  0  0  1  0  0  0  0  0999 V2000
  188.9450  174.8690  141.0250 C   0  0  0  0  0  3  0  0  0  0  0  0
  189.6390  176.1570  143.0150 C   0  0  0  0  0  0  0  0  0  0  0  0
  190.0980  173.8280  143.6160 N   0  0  0  0  0  0  0  0  0  0  0  0
  193.1110  177.4540  144.6390 C   0  0  0  0  0  3  0  0  0  0  0  0
  194.0920  176.9460  145.3840 C   0  0  0  0  0  3  0  0  0  0  0  0
  189.9120  177.6000  143.1860 C   0  0  0  0  0  3  0  0  0  0  0  0
  191.8950  174.7910  145.5410 C   0  0  0  0  0  3  0  0  0  0  0  0
  190.1310  170.9040  141.5340 C   0  0  0  0  0  0  0  0  0  0  0  0
  192.9470  175.0420  146.5460 C   0  0  0  0  0  3  0  0  0  0  0  0
  190.5340  169.7170  141.6380 O   0  0  0  0  0  0  0  0  0  0  0  0
  191.3450  175.6980  144.7220 C   0  0  0  0  0  0  0  0  0  0  0  0
  188.6130  175.7690  142.0870 N   0  0  0  0  0  0  0  0  0  0  0  0
  193.9040  175.9750  146.4770 C   0  0  0  0  0  3  0  0  0  0  0  0
  191.6680  177.1650  144.8860 C   0  0  0  0  0  0  0  0  0  0  0  0
  189.5040  173.6820  141.2340 C   0  0  0  0  0  0  0  0  0  0  0  0
  190.3410  175.2450  143.7220 C   0  0  2  0  0  3  0  0  0  0  0  0
  189.6530  171.6330  142.7570 C   0  0  0  0  0  2  0  0  0  0  0  0
  190.8290  178.0630  144.0300 C   0  0  0  0  0  3  0  0  0  0  0  0
  190.0660  171.5350  140.2050 C   0  0  0  0  0  3  0  0  0  0  0  0
  189.7490  172.8230  140.0660 C   0  0  0  0  0  3  0  0  0  0  0  0
  189.7350  173.1210  142.5870 C   0  0  0  0  0  0  0  0  0  0  0  0
  184.9340  177.9100  141.9420 C   0  0  0  0  0  3  0  0  0  0  0  0
  187.3550  176.4790  142.0330 C   0  0  0  0  0  0  0  0  0  0  0  0
  186.9980  177.2110  140.8870 C   0  0  0  0  0  3  0  0  0  0  0  0
  185.7940  177.9190  140.8410 C   0  0  0  0  0  3  0  0  0  0  0  0
  185.2810  177.1960  143.0900 C   0  0  0  0  0  3  0  0  0  0  0  0
  186.4840  176.4880  143.1380 C   0  0  0  0  0  3  0  0  0  0  0  0
  1 15  2  0  0  0  0
  1 12  1  0  0  0  0
  2  6  2  0  0  0  0
  3 16  1  0  0  0  0
  4 14  1  0  0  0  0
  4  5  2  0  0  0  0
  5 13  1  0  0  0  0
  6 18  1  0  0  0  0
  7  9  1  0  0  0  0
  8 10  2  0  0  0  0
  8 17  1  0  0  0  0
 11 14  1  0  0  0  0
 11  7  2  0  0  0  0
 12  2  1  0  0  0  0
 13  9  2  0  0  0  0
 15 21  1  0  0  0  0
 16  2  1  1  0  0  0
 16 11  1  0  0  0  0
 18 14  2  0  0  0  0
 19  8  1  0  0  0  0
 20 19  2  0  0  0  0
 20 15  1  0  0  0  0
 21 17  1  0  0  0  0
 21  3  2  0  0  0  0
 22 26  1  0  0  0  0
 23 12  1  0  0  0  0
 23 27  1  0  0  0  0
 24 23  2  0  0  0  0
 25 24  1  0  0  0  0
 25 22  2  0  0  0  0
 26 27  2  0  0  0  0
M  END
>  <MODEL>
9

>  <REMARK>
 VINA RESULT:      -7.5      2.105      5.908
  Name = 
  1 active torsions:
  status: ('A' for Active; 'I' for Inactive)
    1  A    between atoms: C_9  and  N_15
                            x       y       z     vdW  Elec       q    Type
                         _______ _______ _______ _____ _____    ______ ____

>  <TORSDO>
F 1

$$$$
