=
 OpenBabel11052419343D

 55 62  0  0  1  0  0  0  0  0999 V2000
  188.7930  174.4340  142.9600 C   0  0  2  0  0  3  0  0  0  0  0  0
  195.2830  172.7700  143.8720 O   0  0  0  0  0  0  0  0  0  0  0  0
  193.0770  172.8590  145.3940 O   0  0  0  0  0  0  0  0  0  0  0  0
  194.2880  170.9500  141.7830 C   0  0  1  0  0  3  0  0  0  0  0  0
  192.0630  176.6370  148.0440 C   0  0  0  0  0  3  0  0  0  0  0  0
  191.5600  177.4440  148.9770 C   0  0  0  0  0  3  0  0  0  0  0  0
  190.0010  176.9530  146.6230 C   0  0  2  0  0  3  0  0  0  0  0  0
  189.6740  178.0760  147.5690 C   0  0  0  0  0  3  0  0  0  0  0  0
  193.0770  175.1660  145.5370 O   0  0  0  0  0  0  0  0  0  0  0  0
  195.4060  171.8860  141.7070 N   0  0  0  0  0  2  0  0  0  0  0  0
  190.3850  178.2770  148.6800 C   0  0  0  0  0  3  0  0  0  0  0  0
  188.4640  174.6360  140.4990 C   0  0  0  0  0  2  0  0  0  0  0  0
  191.5020  176.6080  146.6460 C   0  0  2  0  0  3  0  0  0  0  0  0
  190.2900  172.4700  140.3350 C   0  0  1  0  0  3  0  0  0  0  0  0
  189.7640  174.2560  143.9620 O   0  0  0  0  0  0  0  0  0  0  0  0
  189.5210  172.6800  141.4960 O   0  0  0  0  0  0  0  0  0  0  0  0
  188.7240  176.3320  144.5540 C   0  0  2  0  0  3  0  0  0  0  0  0
  195.0960  173.0600  142.5190 C   0  0  0  0  0  2  0  0  0  0  0  0
  189.5850  177.3900  145.2280 C   0  0  0  0  0  2  0  0  0  0  0  0
  195.0210  173.9700  144.5430 C   0  0  0  0  0  2  0  0  0  0  0  0
  193.6590  173.9560  145.1600 C   0  0  0  0  0  0  0  0  0  0  0  0
  188.2220  173.6090  139.3900 C   0  0  0  0  0  2  0  0  0  0  0  0
  193.1310  171.4610  140.9350 C   0  0  0  0  0  2  0  0  0  0  0  0
  189.3710  174.0760  141.6080 C   0  0  2  0  0  3  0  0  0  0  0  0
  191.7530  175.2370  146.0460 C   0  0  0  0  0  2  0  0  0  0  0  0
  189.5530  175.5780  143.5200 C   0  0  2  0  0  3  0  0  0  0  0  0
  191.8410  170.7510  141.3080 C   0  0  0  0  0  2  0  0  0  0  0  0
  190.7630  171.0280  140.2720 C   0  0  0  0  0  2  0  0  0  0  0  0
  189.4900  172.8090  139.0660 C   0  0  0  0  0  2  0  0  0  0  0  0
  187.6920  177.7890  142.7220 C   0  0  0  0  0  3  0  0  0  0  0  0
  185.3110  178.0840  142.5860 N   0  0  0  0  0  0  0  0  0  0  0  0
  186.2960  176.8250  144.4740 C   0  0  0  0  0  3  0  0  0  0  0  0
  185.0870  177.5370  143.9320 C   0  0  0  0  0  2  0  0  0  0  0  0
  186.6390  178.3120  142.0950 C   0  0  0  0  0  3  0  0  0  0  0  0
  187.5100  176.9630  143.9290 C   0  0  0  0  0  0  0  0  0  0  0  0
  184.1920  178.6970  141.8770 C   0  0  0  0  0  3  0  0  0  0  0  0
  183.5140  177.6780  140.9730 C   0  0  0  0  0  2  0  0  0  0  0  0
  184.4610  178.6960  140.3820 C   0  0  0  0  0  2  0  0  0  0  0  0
  194.7280  169.6080  141.2150 C   0  0  0  0  0  2  0  0  0  0  0  0
  194.3440  169.4280  139.7500 C   0  0  2  0  0  3  0  0  0  0  0  0
  193.5420  168.2920  139.6520 O   0  0  0  0  0  1  0  0  0  0  0  0
  194.1650  169.6260  136.7470 N   0  0  0  0  0  0  0  0  0  0  0  0
  197.7420  168.3720  136.9860 O   0  0  0  0  0  1  0  0  0  0  0  0
  195.5920  169.2540  138.8660 C   0  0  1  0  0  0  0  0  0  0  0  0
  195.2250  171.7080  138.2030 C   0  0  0  0  0  1  0  0  0  0  0  0
  196.1280  170.4790  138.1160 C   0  0  2  0  0  3  0  0  0  0  0  0
  193.3660  168.4100  136.7590 C   0  0  0  0  0  1  0  0  0  0  0  0
  196.6630  169.3940  135.0550 C   0  0  1  0  0  3  0  0  0  0  0  0
  194.2430  170.0190  135.3300 C   0  0  0  0  0  2  0  0  0  0  0  0
  196.5040  168.6220  136.3850 C   0  0  2  0  0  3  0  0  0  0  0  0
  196.6070  168.4320  139.3680 O   0  0  0  0  0  1  0  0  0  0  0  0
  195.6260  170.5070  134.8950 C   0  0  0  0  0  2  0  0  0  0  0  0
  195.4900  169.3110  137.3320 C   0  0  2  0  0  0  0  0  0  0  0  0
  197.9410  169.9450  134.9260 O   0  0  0  0  0  0  0  0  0  0  0  0
  197.7620  171.2400  135.0770 O   0  0  0  0  0  1  0  0  0  0  0  0
  1 26  1  0  0  0  0
  1 15  1  1  0  0  0
  2 20  1  0  0  0  0
  4 39  1  6  0  0  0
  5  6  2  0  0  0  0
  7 19  1  6  0  0  0
  7 13  1  0  0  0  0
  7  8  1  0  0  0  0
  8 11  2  0  0  0  0
  9 25  1  0  0  0  0
 10  4  1  0  0  0  0
 10 18  1  0  0  0  0
 11  6  1  0  0  0  0
 13 25  1  1  0  0  0
 13  5  1  0  0  0  0
 14 29  1  6  0  0  0
 14 16  1  0  0  0  0
 16 24  1  0  0  0  0
 17 35  1  6  0  0  0
 17 19  1  0  0  0  0
 18  2  1  0  0  0  0
 20 21  1  0  0  0  0
 21  3  2  0  0  0  0
 21  9  1  0  0  0  0
 22 12  1  0  0  0  0
 23 27  1  0  0  0  0
 23  4  1  0  0  0  0
 24 12  1  6  0  0  0
 24  1  1  0  0  0  0
 26 15  1  1  0  0  0
 26 17  1  0  0  0  0
 28 14  1  0  0  0  0
 28 27  1  0  0  0  0
 29 22  1  0  0  0  0
 30 35  1  0  0  0  0
 31 33  1  0  0  0  0
 33 32  1  0  0  0  0
 34 31  1  0  0  0  0
 34 30  2  0  0  0  0
 35 32  2  0  0  0  0
 36 31  1  0  0  0  0
 37 36  1  0  0  0  0
 38 37  1  0  0  0  0
 38 36  1  0  0  0  0
 40 41  1  1  0  0  0
 40 39  1  0  0  0  0
 42 47  1  0  0  0  0
 44 51  1  1  0  0  0
 44 40  1  0  0  0  0
 46 45  1  1  0  0  0
 46 44  1  0  0  0  0
 48 54  1  1  0  0  0
 48 50  1  0  0  0  0
 49 42  1  0  0  0  0
 50 43  1  1  0  0  0
 50 53  1  0  0  0  0
 52 48  1  0  0  0  0
 52 49  1  0  0  0  0
 53 42  1  6  0  0  0
 53 46  1  0  0  0  0
 53 44  1  0  0  0  0
 54 55  1  0  0  0  0
M  END
>  <MODEL>
1

>  <REMARK>
 VINA RESULT:      -7.2      0.000      0.000
  Name = 
  6 active torsions:
  status: ('A' for Active; 'I' for Inactive)
    1  A    between atoms: C_6  and  C_20
    2  A    between atoms: C_7  and  C_8
    3  A    between atoms: C_7  and  C_20
    4  A    between atoms: C_10  and  N_32
    5  A    between atoms: O_11  and  C_29
    6  A    between atoms: C_33  and  C_52
                            x       y       z     vdW  Elec       q    Type
                         _______ _______ _______ _____ _____    ______ ____

>  <TORSDO>
F 6

$$$$
=
 OpenBabel11052419343D

 55 62  0  0  1  0  0  0  0  0999 V2000
  188.5340  175.5180  141.9740 C   0  0  2  0  0  3  0  0  0  0  0  0
  193.8010  174.2840  137.9170 O   0  0  0  0  0  0  0  0  0  0  0  0
  192.8620  173.2900  140.2230 O   0  0  0  0  0  0  0  0  0  0  0  0
  191.4080  173.8470  136.2580 C   0  0  1  0  0  3  0  0  0  0  0  0
  194.4540  174.8290  144.3970 C   0  0  0  0  0  3  0  0  0  0  0  0
  194.7590  174.9250  145.6910 C   0  0  0  0  0  3  0  0  0  0  0  0
  192.1210  175.6760  144.8600 C   0  0  2  0  0  3  0  0  0  0  0  0
  192.6580  176.0430  146.2160 C   0  0  0  0  0  3  0  0  0  0  0  0
  193.5450  175.1130  141.4700 O   0  0  0  0  0  0  0  0  0  0  0  0
  192.5130  174.7720  136.0230 N   0  0  0  0  0  2  0  0  0  0  0  0
  193.8750  175.6610  146.6070 C   0  0  0  0  0  3  0  0  0  0  0  0
  187.0110  177.0230  140.6990 C   0  0  0  0  0  2  0  0  0  0  0  0
  193.2500  175.5280  143.8220 C   0  0  2  0  0  3  0  0  0  0  0  0
  187.8210  175.5090  138.4400 C   0  0  1  0  0  3  0  0  0  0  0  0
  189.8020  174.9100  141.9530 O   0  0  0  0  0  0  0  0  0  0  0  0
  187.8770  174.9590  139.7350 O   0  0  0  0  0  0  0  0  0  0  0  0
  189.8270  176.1890  143.9790 C   0  0  2  0  0  3  0  0  0  0  0  0
  193.0050  175.2570  137.3090 C   0  0  0  0  0  2  0  0  0  0  0  0
  191.1580  176.7720  144.4340 C   0  0  0  0  0  2  0  0  0  0  0  0
  194.2640  174.8730  139.0980 C   0  0  0  0  0  2  0  0  0  0  0  0
  193.4940  174.3820  140.2820 C   0  0  0  0  0  0  0  0  0  0  0  0
  185.9540  176.7690  139.6220 C   0  0  0  0  0  2  0  0  0  0  0  0
  190.1610  174.6250  136.6520 C   0  0  0  0  0  2  0  0  0  0  0  0
  188.1840  176.0330  140.5940 C   0  0  2  0  0  3  0  0  0  0  0  0
  192.7710  174.7560  142.6050 C   0  0  0  0  0  2  0  0  0  0  0  0
  189.7440  176.2250  142.4570 C   0  0  2  0  0  3  0  0  0  0  0  0
  189.1340  173.7040  137.2900 C   0  0  0  0  0  2  0  0  0  0  0  0
  187.7890  174.4020  137.4000 C   0  0  0  0  0  2  0  0  0  0  0  0
  186.5900  176.4160  138.2710 C   0  0  0  0  0  2  0  0  0  0  0  0
  187.9610  177.9280  143.7930 C   0  0  0  0  0  3  0  0  0  0  0  0
  186.4460  178.3000  145.6210 N   0  0  0  0  0  0  0  0  0  0  0  0
  188.3550  176.7500  145.8920 C   0  0  0  0  0  3  0  0  0  0  0  0
  187.2900  177.5650  146.5730 C   0  0  0  0  0  2  0  0  0  0  0  0
  186.9000  178.5650  144.2860 C   0  0  0  0  0  3  0  0  0  0  0  0
  188.6850  176.9370  144.6090 C   0  0  0  0  0  0  0  0  0  0  0  0
  185.2920  179.0410  146.1230 C   0  0  0  0  0  3  0  0  0  0  0  0
  184.1750  178.0830  146.5130 C   0  0  0  0  0  2  0  0  0  0  0  0
  184.1010  178.8320  145.2040 C   0  0  0  0  0  2  0  0  0  0  0  0
  191.1060  173.1000  134.9670 C   0  0  0  0  0  2  0  0  0  0  0  0
  191.2730  171.5910  135.1010 C   0  0  2  0  0  3  0  0  0  0  0  0
  190.0240  171.0430  135.3900 O   0  0  0  0  0  1  0  0  0  0  0  0
  193.1190  169.2180  134.8680 N   0  0  0  0  0  0  0  0  0  0  0  0
  193.7970  170.0650  138.5080 O   0  0  0  0  0  1  0  0  0  0  0  0
  192.2620  171.2380  136.2270 C   0  0  1  0  0  0  0  0  0  0  0  0
  194.1000  171.7660  134.5130 C   0  0  0  0  0  1  0  0  0  0  0  0
  193.7610  171.4210  135.9610 C   0  0  2  0  0  3  0  0  0  0  0  0
  191.9480  168.3570  134.9210 C   0  0  0  0  0  1  0  0  0  0  0  0
  195.1270  168.6320  137.0540 C   0  0  1  0  0  3  0  0  0  0  0  0
  194.2610  168.3010  134.7170 C   0  0  0  0  0  2  0  0  0  0  0  0
  193.7510  169.2680  137.3590 C   0  0  2  0  0  3  0  0  0  0  0  0
  191.8880  171.6010  137.5250 O   0  0  0  0  0  1  0  0  0  0  0  0
  195.4770  168.6770  135.5660 C   0  0  0  0  0  2  0  0  0  0  0  0
  193.1710  170.0020  136.1250 C   0  0  2  0  0  0  0  0  0  0  0  0
  196.1530  169.2470  137.7780 O   0  0  0  0  0  0  0  0  0  0  0  0
  196.9710  169.7200  136.8610 O   0  0  0  0  0  1  0  0  0  0  0  0
  1 15  1  6  0  0  0
  1 26  1  0  0  0  0
  2 20  1  0  0  0  0
  3 21  2  0  0  0  0
  4 39  1  6  0  0  0
  4 23  1  0  0  0  0
  5  6  2  0  0  0  0
  6 11  1  0  0  0  0
  7 19  1  6  0  0  0
  7  8  1  0  0  0  0
  8 11  2  0  0  0  0
  9 25  1  0  0  0  0
 10  4  1  0  0  0  0
 10 18  1  0  0  0  0
 13 25  1  6  0  0  0
 13  5  1  0  0  0  0
 13  7  1  0  0  0  0
 14 28  1  6  0  0  0
 14 16  1  0  0  0  0
 16 24  1  0  0  0  0
 17 19  1  0  0  0  0
 17 35  1  1  0  0  0
 18  2  1  0  0  0  0
 20 21  1  0  0  0  0
 21  9  1  0  0  0  0
 22 12  1  0  0  0  0
 23 27  1  0  0  0  0
 24 12  1  1  0  0  0
 24  1  1  0  0  0  0
 26 15  1  6  0  0  0
 26 17  1  0  0  0  0
 27 28  1  0  0  0  0
 29 14  1  0  0  0  0
 29 22  1  0  0  0  0
 30 34  2  0  0  0  0
 30 35  1  0  0  0  0
 31 36  1  0  0  0  0
 31 33  1  0  0  0  0
 32 33  1  0  0  0  0
 34 31  1  0  0  0  0
 35 32  2  0  0  0  0
 36 37  1  0  0  0  0
 38 36  1  0  0  0  0
 38 37  1  0  0  0  0
 39 40  1  0  0  0  0
 40 41  1  1  0  0  0
 40 44  1  0  0  0  0
 42 47  1  0  0  0  0
 44 51  1  1  0  0  0
 46 45  1  6  0  0  0
 46 53  1  0  0  0  0
 46 44  1  0  0  0  0
 48 50  1  0  0  0  0
 48 54  1  1  0  0  0
 49 42  1  0  0  0  0
 49 52  1  0  0  0  0
 50 43  1  1  0  0  0
 52 48  1  0  0  0  0
 53 42  1  6  0  0  0
 53 44  1  0  0  0  0
 53 50  1  0  0  0  0
 55 54  1  0  0  0  0
M  END
>  <MODEL>
2

>  <REMARK>
 VINA RESULT:      -6.6      2.723      4.260
  Name = 
  6 active torsions:
  status: ('A' for Active; 'I' for Inactive)
    1  A    between atoms: C_6  and  C_20
    2  A    between atoms: C_7  and  C_8
    3  A    between atoms: C_7  and  C_20
    4  A    between atoms: C_10  and  N_32
    5  A    between atoms: O_11  and  C_29
    6  A    between atoms: C_33  and  C_52
                            x       y       z     vdW  Elec       q    Type
                         _______ _______ _______ _____ _____    ______ ____

>  <TORSDO>
F 6

$$$$
=
 OpenBabel11052419343D

 55 62  0  0  1  0  0  0  0  0999 V2000
  189.4420  175.6200  142.6200 C   0  0  2  0  0  3  0  0  0  0  0  0
  191.5410  170.0440  139.4230 O   0  0  0  0  0  0  0  0  0  0  0  0
  191.5100  172.6740  138.9050 O   0  0  0  0  0  0  0  0  0  0  0  0
  193.0550  170.1230  141.9460 C   0  0  1  0  0  3  0  0  0  0  0  0
  188.0110  174.6550  136.4220 C   0  0  0  0  0  3  0  0  0  0  0  0
  187.2900  175.4880  135.6730 C   0  0  0  0  0  3  0  0  0  0  0  0
  187.4260  175.9740  138.4940 C   0  0  2  0  0  3  0  0  0  0  0  0
  186.4020  176.6490  137.6230 C   0  0  0  0  0  3  0  0  0  0  0  0
  189.2370  172.7260  138.4850 O   0  0  0  0  0  0  0  0  0  0  0  0
  192.1770  169.0660  141.4530 N   0  0  0  0  0  2  0  0  0  0  0  0
  186.3670  176.4420  136.3050 C   0  0  0  0  0  3  0  0  0  0  0  0
  188.9440  174.9340  144.9630 C   0  0  0  0  0  2  0  0  0  0  0  0
  187.8500  174.6090  137.9200 C   0  0  2  0  0  3  0  0  0  0  0  0
  191.1700  173.2020  144.6600 C   0  0  1  0  0  3  0  0  0  0  0  0
  189.7850  175.1320  141.3460 O   0  0  0  0  0  0  0  0  0  0  0  0
  191.0540  174.3710  143.8830 O   0  0  0  0  0  0  0  0  0  0  0  0
  187.7380  176.3170  140.9610 C   0  0  2  0  0  3  0  0  0  0  0  0
  191.0890  169.6720  140.6910 C   0  0  0  0  0  2  0  0  0  0  0  0
  186.8110  175.7950  139.8720 C   0  0  0  0  0  2  0  0  0  0  0  0
  190.4140  170.5490  138.7660 C   0  0  0  0  0  2  0  0  0  0  0  0
  190.4260  172.0440  138.7480 C   0  0  0  0  0  0  0  0  0  0  0  0
  189.8230  174.7150  146.1960 C   0  0  0  0  0  2  0  0  0  0  0  0
  192.3900  170.8420  143.1120 C   0  0  0  0  0  2  0  0  0  0  0  0
  189.6740  174.5500  143.6650 C   0  0  2  0  0  3  0  0  0  0  0  0
  189.1560  174.1420  138.5380 C   0  0  0  0  0  2  0  0  0  0  0  0
  188.4120  175.1450  141.6660 C   0  0  2  0  0  3  0  0  0  0  0  0
  193.0690  172.1760  143.3750 C   0  0  0  0  0  2  0  0  0  0  0  0
  192.6190  172.7470  144.7100 C   0  0  0  0  0  2  0  0  0  0  0  0
  190.6470  173.4260  146.0880 C   0  0  0  0  0  2  0  0  0  0  0  0
  186.0680  176.5190  142.8870 C   0  0  0  0  0  3  0  0  0  0  0  0
  185.6020  178.6550  143.8860 N   0  0  0  0  0  0  0  0  0  0  0  0
  187.0760  178.5100  141.9040 C   0  0  0  0  0  3  0  0  0  0  0  0
  186.2410  179.3950  142.7890 C   0  0  0  0  0  2  0  0  0  0  0  0
  185.4250  177.2330  143.8100 C   0  0  0  0  0  3  0  0  0  0  0  0
  186.9760  177.1760  141.9310 C   0  0  0  0  0  0  0  0  0  0  0  0
  184.8570  179.3950  144.9000 C   0  0  0  0  0  3  0  0  0  0  0  0
  185.5240  179.2490  146.2600 C   0  0  0  0  0  2  0  0  0  0  0  0
  184.2930  178.4360  145.9340 C   0  0  0  0  0  2  0  0  0  0  0  0
  194.3450  169.4970  142.4570 C   0  0  0  0  0  2  0  0  0  0  0  0
  195.5130  169.6720  141.4920 C   0  0  2  0  0  3  0  0  0  0  0  0
  196.4910  168.7360  141.8250 O   0  0  0  0  0  1  0  0  0  0  0  0
  196.8970  170.9450  139.1350 N   0  0  0  0  0  0  0  0  0  0  0  0
  197.8060  173.5420  141.7530 O   0  0  0  0  0  1  0  0  0  0  0  0
  196.1050  171.0900  141.5870 C   0  0  1  0  0  0  0  0  0  0  0  0
  194.3500  171.7310  139.8240 C   0  0  0  0  0  1  0  0  0  0  0  0
  195.4360  172.2120  140.7840 C   0  0  2  0  0  3  0  0  0  0  0  0
  197.9410  169.9400  139.2620 C   0  0  0  0  0  1  0  0  0  0  0  0
  197.9410  173.7780  139.3310 C   0  0  1  0  0  3  0  0  0  0  0  0
  197.2920  171.7630  137.9760 C   0  0  0  0  0  2  0  0  0  0  0  0
  197.9170  172.8310  140.5530 C   0  0  2  0  0  3  0  0  0  0  0  0
  196.5370  171.5050  142.8510 O   0  0  0  0  0  1  0  0  0  0  0  0
  197.0830  173.2650  138.1740 C   0  0  0  0  0  2  0  0  0  0  0  0
  196.8490  171.7200  140.3970 C   0  0  2  0  0  0  0  0  0  0  0  0
  197.5210  175.0680  139.6680 O   0  0  0  0  0  0  0  0  0  0  0  0
  196.3860  175.2280  139.0220 O   0  0  0  0  0  1  0  0  0  0  0  0
  1 15  1  6  0  0  0
  1 24  1  0  0  0  0
  2 18  1  0  0  0  0
  4 39  1  1  0  0  0
  4 23  1  0  0  0  0
  6 11  1  0  0  0  0
  6  5  2  0  0  0  0
  7  8  1  6  0  0  0
  7 19  1  0  0  0  0
  9 25  1  0  0  0  0
  9 21  1  0  0  0  0
 10  4  1  0  0  0  0
 11  8  2  0  0  0  0
 12 22  1  0  0  0  0
 13  5  1  6  0  0  0
 13  7  1  0  0  0  0
 13 25  1  0  0  0  0
 14 28  1  1  0  0  0
 14 29  1  0  0  0  0
 16 14  1  0  0  0  0
 17 26  1  0  0  0  0
 17 35  1  1  0  0  0
 18 10  1  0  0  0  0
 19 17  1  0  0  0  0
 20  2  1  0  0  0  0
 21 20  1  0  0  0  0
 21  3  2  0  0  0  0
 23 27  1  0  0  0  0
 24 16  1  0  0  0  0
 24 12  1  1  0  0  0
 26 15  1  6  0  0  0
 26  1  1  0  0  0  0
 27 28  1  0  0  0  0
 29 22  1  0  0  0  0
 30 34  2  0  0  0  0
 31 36  1  0  0  0  0
 32 35  2  0  0  0  0
 32 33  1  0  0  0  0
 33 31  1  0  0  0  0
 34 31  1  0  0  0  0
 35 30  1  0  0  0  0
 36 38  1  0  0  0  0
 36 37  1  0  0  0  0
 38 37  1  0  0  0  0
 40 44  1  0  0  0  0
 40 41  1  1  0  0  0
 40 39  1  0  0  0  0
 42 47  1  0  0  0  0
 44 51  1  1  0  0  0
 46 45  1  6  0  0  0
 46 44  1  0  0  0  0
 48 54  1  1  0  0  0
 48 50  1  0  0  0  0
 49 52  1  0  0  0  0
 49 42  1  0  0  0  0
 50 43  1  1  0  0  0
 52 48  1  0  0  0  0
 53 42  1  6  0  0  0
 53 50  1  0  0  0  0
 53 46  1  0  0  0  0
 53 44  1  0  0  0  0
 55 54  1  0  0  0  0
M  END
>  <MODEL>
3

>  <REMARK>
 VINA RESULT:      -5.5      2.808      5.950
  Name = 
  6 active torsions:
  status: ('A' for Active; 'I' for Inactive)
    1  A    between atoms: C_6  and  C_20
    2  A    between atoms: C_7  and  C_8
    3  A    between atoms: C_7  and  C_20
    4  A    between atoms: C_10  and  N_32
    5  A    between atoms: O_11  and  C_29
    6  A    between atoms: C_33  and  C_52
                            x       y       z     vdW  Elec       q    Type
                         _______ _______ _______ _____ _____    ______ ____

>  <TORSDO>
F 6

$$$$
=
 OpenBabel11052419343D

 55 62  0  0  1  0  0  0  0  0999 V2000
  187.2430  175.3830  141.6800 C   0  0  2  0  0  3  0  0  0  0  0  0
  193.5950  175.1380  143.9870 O   0  0  0  0  0  0  0  0  0  0  0  0
  191.1560  174.6390  144.9820 O   0  0  0  0  0  0  0  0  0  0  0  0
  193.5130  173.2820  141.7030 C   0  0  1  0  0  3  0  0  0  0  0  0
  188.7610  177.9220  147.3940 C   0  0  0  0  0  3  0  0  0  0  0  0
  187.8980  178.5360  148.2020 C   0  0  0  0  0  3  0  0  0  0  0  0
  187.0320  177.8650  145.5550 C   0  0  2  0  0  3  0  0  0  0  0  0
  186.2620  178.8250  146.4190 C   0  0  0  0  0  3  0  0  0  0  0  0
  190.5950  176.8750  145.1530 O   0  0  0  0  0  0  0  0  0  0  0  0
  194.3760  174.4450  141.8910 N   0  0  0  0  0  2  0  0  0  0  0  0
  186.6550  179.1060  147.6630 C   0  0  0  0  0  3  0  0  0  0  0  0
  187.4100  175.6660  139.2100 C   0  0  0  0  0  2  0  0  0  0  0  0
  188.5320  177.8600  145.9060 C   0  0  2  0  0  3  0  0  0  0  0  0
  189.6760  173.9720  139.4250 C   0  0  1  0  0  3  0  0  0  0  0  0
  187.9940  175.3600  142.8700 O   0  0  0  0  0  0  0  0  0  0  0  0
  188.6510  173.9310  140.3890 O   0  0  0  0  0  0  0  0  0  0  0  0
  186.4030  177.1120  143.2440 C   0  0  2  0  0  3  0  0  0  0  0  0
  193.6400  175.4660  142.6300 C   0  0  0  0  0  2  0  0  0  0  0  0
  186.8340  178.2890  144.1080 C   0  0  0  0  0  2  0  0  0  0  0  0
  192.9280  176.2050  144.6000 C   0  0  0  0  0  2  0  0  0  0  0  0
  191.5070  175.8510  144.8990 C   0  0  0  0  0  0  0  0  0  0  0  0
  187.6510  174.6840  138.0610 C   0  0  0  0  0  2  0  0  0  0  0  0
  192.4780  173.5790  140.6270 C   0  0  0  0  0  2  0  0  0  0  0  0
  188.1630  175.2490  140.4850 C   0  0  2  0  0  3  0  0  0  0  0  0
  189.2130  176.6190  145.3570 C   0  0  0  0  0  2  0  0  0  0  0  0
  187.5840  176.6280  142.4100 C   0  0  2  0  0  3  0  0  0  0  0  0
  191.3360  172.5780  140.6930 C   0  0  0  0  0  2  0  0  0  0  0  0
  190.4700  172.6770  139.4480 C   0  0  0  0  0  2  0  0  0  0  0  0
  189.1090  174.2060  138.0150 C   0  0  0  0  0  2  0  0  0  0  0  0
  183.9020  177.5800  142.9890 C   0  0  0  0  0  3  0  0  0  0  0  0
  183.0050  178.3430  140.8930 N   0  0  0  0  0  0  0  0  0  0  0  0
  185.3930  177.7180  141.0640 C   0  0  0  0  0  3  0  0  0  0  0  0
  184.2280  177.9960  140.1540 C   0  0  0  0  0  2  0  0  0  0  0  0
  182.8520  177.9840  142.2740 C   0  0  0  0  0  3  0  0  0  0  0  0
  185.2390  177.4990  142.3750 C   0  0  0  0  0  0  0  0  0  0  0  0
  181.8210  178.7570  140.1470 C   0  0  0  0  0  3  0  0  0  0  0  0
  180.9670  179.6970  140.9860 C   0  0  0  0  0  2  0  0  0  0  0  0
  180.5670  178.2480  140.8370 C   0  0  0  0  0  2  0  0  0  0  0  0
  194.3600  172.1100  141.2290 C   0  0  0  0  0  2  0  0  0  0  0  0
  195.7740  172.1290  141.7990 C   0  0  2  0  0  3  0  0  0  0  0  0
  196.6600  172.3460  140.7440 O   0  0  0  0  0  1  0  0  0  0  0  0
  196.6900  172.0510  144.6700 N   0  0  0  0  0  0  0  0  0  0  0  0
  197.3660  168.4170  143.7960 O   0  0  0  0  0  1  0  0  0  0  0  0
  196.1140  170.7960  142.4890 C   0  0  1  0  0  0  0  0  0  0  0  0
  194.1200  171.3080  144.0250 C   0  0  0  0  0  1  0  0  0  0  0  0
  195.1880  170.3000  143.6060 C   0  0  2  0  0  3  0  0  0  0  0  0
  197.9020  172.7410  144.2560 C   0  0  0  0  0  1  0  0  0  0  0  0
  197.2340  169.4000  146.0220 C   0  0  1  0  0  3  0  0  0  0  0  0
  196.8270  171.8780  146.1260 C   0  0  0  0  0  2  0  0  0  0  0  0
  197.4890  169.6130  144.5120 C   0  0  2  0  0  3  0  0  0  0  0  0
  196.5810  169.7650  141.6670 O   0  0  0  0  0  1  0  0  0  0  0  0
  196.3760  170.5080  146.6350 C   0  0  0  0  0  2  0  0  0  0  0  0
  196.6230  170.7630  143.9410 C   0  0  2  0  0  0  0  0  0  0  0  0
  196.6260  168.1660  146.2750 O   0  0  0  0  0  0  0  0  0  0  0  0
  195.6080  168.4510  147.0590 O   0  0  0  0  0  1  0  0  0  0  0  0
  1 26  1  0  0  0  0
  1 15  1  1  0  0  0
  2 20  1  0  0  0  0
  4 39  1  6  0  0  0
  4 10  1  0  0  0  0
  5  6  2  0  0  0  0
  7 19  1  6  0  0  0
  7 13  1  0  0  0  0
  7  8  1  0  0  0  0
  8 11  2  0  0  0  0
  9 25  1  0  0  0  0
 10 18  1  0  0  0  0
 11  6  1  0  0  0  0
 13 25  1  1  0  0  0
 13  5  1  0  0  0  0
 14 29  1  6  0  0  0
 14 28  1  0  0  0  0
 14 16  1  0  0  0  0
 16 24  1  0  0  0  0
 17 35  1  6  0  0  0
 17 19  1  0  0  0  0
 18  2  1  0  0  0  0
 20 21  1  0  0  0  0
 21  3  2  0  0  0  0
 21  9  1  0  0  0  0
 22 12  1  0  0  0  0
 23 27  1  0  0  0  0
 23  4  1  0  0  0  0
 24 12  1  6  0  0  0
 24  1  1  0  0  0  0
 26 15  1  1  0  0  0
 26 17  1  0  0  0  0
 28 27  1  0  0  0  0
 29 22  1  0  0  0  0
 31 34  1  0  0  0  0
 32 35  2  0  0  0  0
 33 31  1  0  0  0  0
 33 32  1  0  0  0  0
 34 30  2  0  0  0  0
 35 30  1  0  0  0  0
 36 38  1  0  0  0  0
 36 31  1  0  0  0  0
 36 37  1  0  0  0  0
 38 37  1  0  0  0  0
 39 40  1  0  0  0  0
 40 41  1  6  0  0  0
 40 44  1  0  0  0  0
 42 49  1  0  0  0  0
 44 51  1  6  0  0  0
 44 46  1  0  0  0  0
 44 53  1  0  0  0  0
 46 53  1  0  0  0  0
 46 45  1  1  0  0  0
 47 42  1  0  0  0  0
 48 54  1  6  0  0  0
 48 52  1  0  0  0  0
 49 52  1  0  0  0  0
 50 43  1  6  0  0  0
 50 48  1  0  0  0  0
 53 50  1  0  0  0  0
 53 42  1  1  0  0  0
 54 55  1  0  0  0  0
M  END
>  <MODEL>
4

>  <REMARK>
 VINA RESULT:      -5.2      3.290      5.174
  Name = 
  6 active torsions:
  status: ('A' for Active; 'I' for Inactive)
    1  A    between atoms: C_6  and  C_20
    2  A    between atoms: C_7  and  C_8
    3  A    between atoms: C_7  and  C_20
    4  A    between atoms: C_10  and  N_32
    5  A    between atoms: O_11  and  C_29
    6  A    between atoms: C_33  and  C_52
                            x       y       z     vdW  Elec       q    Type
                         _______ _______ _______ _____ _____    ______ ____

>  <TORSDO>
F 6

$$$$
=
 OpenBabel11052419343D

 55 62  0  0  1  0  0  0  0  0999 V2000
  187.5290  176.9620  142.8120 C   0  0  2  0  0  3  0  0  0  0  0  0
  191.7550  171.8020  141.7000 O   0  0  0  0  0  0  0  0  0  0  0  0
  191.3370  174.2240  140.6300 O   0  0  0  0  0  0  0  0  0  0  0  0
  192.2500  172.6420  144.4780 C   0  0  1  0  0  3  0  0  0  0  0  0
  188.5690  174.7980  136.8430 C   0  0  0  0  0  3  0  0  0  0  0  0
  187.9890  175.2880  135.7480 C   0  0  0  0  0  3  0  0  0  0  0  0
  187.0340  176.1750  138.3000 C   0  0  2  0  0  3  0  0  0  0  0  0
  186.2540  176.4140  137.0370 C   0  0  0  0  0  3  0  0  0  0  0  0
  189.3950  173.5850  139.5500 O   0  0  0  0  0  0  0  0  0  0  0  0
  191.8470  171.3260  143.9910 N   0  0  0  0  0  2  0  0  0  0  0  0
  186.7220  176.0270  135.8490 C   0  0  0  0  0  3  0  0  0  0  0  0
  186.4130  176.4920  144.9900 C   0  0  0  0  0  2  0  0  0  0  0  0
  187.9150  174.9150  138.1950 C   0  0  2  0  0  3  0  0  0  0  0  0
  188.9260  175.4190  145.7550 C   0  0  1  0  0  3  0  0  0  0  0  0
  188.3870  176.4180  141.8390 O   0  0  0  0  0  0  0  0  0  0  0  0
  188.8350  176.3930  144.7420 O   0  0  0  0  0  0  0  0  0  0  0  0
  186.3940  176.9240  140.6090 C   0  0  2  0  0  3  0  0  0  0  0  0
  190.9850  171.4960  142.8250 C   0  0  0  0  0  2  0  0  0  0  0  0
  186.0360  176.0220  139.4360 C   0  0  0  0  0  2  0  0  0  0  0  0
  190.8430  171.8800  140.6420 C   0  0  0  0  0  2  0  0  0  0  0  0
  190.5370  173.3030  140.2990 C   0  0  0  0  0  0  0  0  0  0  0  0
  186.8380  176.6960  146.4460 C   0  0  0  0  0  2  0  0  0  0  0  0
  191.0850  173.3010  145.2030 C   0  0  0  0  0  2  0  0  0  0  0  0
  187.6110  176.1510  144.0880 C   0  0  2  0  0  3  0  0  0  0  0  0
  188.9950  174.9170  139.2630 C   0  0  0  0  0  2  0  0  0  0  0  0
  187.0200  176.0940  141.7240 C   0  0  2  0  0  3  0  0  0  0  0  0
  191.3250  174.7940  145.3560 C   0  0  0  0  0  2  0  0  0  0  0  0
  190.3300  175.3950  146.3360 C   0  0  0  0  0  2  0  0  0  0  0  0
  187.9070  175.6830  146.8760 C   0  0  0  0  0  2  0  0  0  0  0  0
  184.0880  177.9230  140.1360 C   0  0  0  0  0  3  0  0  0  0  0  0
  182.7940  178.9130  141.9030 N   0  0  0  0  0  0  0  0  0  0  0  0
  185.0970  178.1230  142.3470 C   0  0  0  0  0  3  0  0  0  0  0  0
  183.9410  178.9600  142.8220 C   0  0  0  0  0  2  0  0  0  0  0  0
  182.9620  178.5140  140.5350 C   0  0  0  0  0  3  0  0  0  0  0  0
  185.1780  177.6640  141.0930 C   0  0  0  0  0  0  0  0  0  0  0  0
  181.5530  179.5770  142.2860 C   0  0  0  0  0  3  0  0  0  0  0  0
  180.3660  178.6480  142.0740 C   0  0  0  0  0  2  0  0  0  0  0  0
  180.6550  179.7410  141.0720 C   0  0  0  0  0  2  0  0  0  0  0  0
  193.3870  172.4730  145.4750 C   0  0  0  0  0  2  0  0  0  0  0  0
  194.7640  172.5890  144.8310 C   0  0  2  0  0  3  0  0  0  0  0  0
  195.7140  172.1870  145.7690 O   0  0  0  0  0  1  0  0  0  0  0  0
  196.9910  173.2190  142.8980 N   0  0  0  0  0  0  0  0  0  0  0  0
  196.1330  176.7810  143.9000 O   0  0  0  0  0  1  0  0  0  0  0  0
  195.0540  174.0370  144.3950 C   0  0  1  0  0  0  0  0  0  0  0  0
  194.3740  173.2590  142.0430 C   0  0  0  0  0  1  0  0  0  0  0  0
  194.7580  174.4320  142.9430 C   0  0  2  0  0  3  0  0  0  0  0  0
  197.9370  172.7870  143.9150 C   0  0  0  0  0  1  0  0  0  0  0  0
  197.4480  176.0650  141.9780 C   0  0  1  0  0  3  0  0  0  0  0  0
  197.8190  173.5900  141.7380 C   0  0  0  0  0  2  0  0  0  0  0  0
  196.9200  175.7400  143.3940 C   0  0  2  0  0  3  0  0  0  0  0  0
  194.7330  175.0440  145.3110 O   0  0  0  0  0  1  0  0  0  0  0  0
  197.3630  174.8670  141.0300 C   0  0  0  0  0  2  0  0  0  0  0  0
  196.2180  174.3600  143.4430 C   0  0  2  0  0  0  0  0  0  0  0  0
  196.7660  177.1430  141.4050 O   0  0  0  0  0  0  0  0  0  0  0  0
  195.8720  176.5900  140.6140 O   0  0  0  0  0  1  0  0  0  0  0  0
  1 15  1  6  0  0  0
  1 24  1  0  0  0  0
  2 18  1  0  0  0  0
  4 23  1  0  0  0  0
  4 39  1  1  0  0  0
  6 11  1  0  0  0  0
  6  5  2  0  0  0  0
  7  8  1  6  0  0  0
  7 19  1  0  0  0  0
  9 21  1  0  0  0  0
 10  4  1  0  0  0  0
 11  8  2  0  0  0  0
 12 22  1  0  0  0  0
 13  5  1  6  0  0  0
 13  7  1  0  0  0  0
 13 25  1  0  0  0  0
 14 28  1  1  0  0  0
 14 29  1  0  0  0  0
 16 14  1  0  0  0  0
 17 35  1  1  0  0  0
 17 26  1  0  0  0  0
 18 10  1  0  0  0  0
 19 17  1  0  0  0  0
 20  2  1  0  0  0  0
 21  3  2  0  0  0  0
 21 20  1  0  0  0  0
 22 29  1  0  0  0  0
 23 27  1  0  0  0  0
 24 16  1  0  0  0  0
 24 12  1  1  0  0  0
 25  9  1  0  0  0  0
 26 15  1  6  0  0  0
 26  1  1  0  0  0  0
 27 28  1  0  0  0  0
 30 34  2  0  0  0  0
 30 35  1  0  0  0  0
 31 36  1  0  0  0  0
 31 33  1  0  0  0  0
 32 33  1  0  0  0  0
 34 31  1  0  0  0  0
 35 32  2  0  0  0  0
 37 36  1  0  0  0  0
 38 37  1  0  0  0  0
 38 36  1  0  0  0  0
 40 39  1  0  0  0  0
 40 41  1  1  0  0  0
 42 47  1  0  0  0  0
 44 40  1  0  0  0  0
 44 51  1  1  0  0  0
 46 45  1  6  0  0  0
 46 53  1  0  0  0  0
 46 44  1  0  0  0  0
 48 54  1  6  0  0  0
 48 50  1  0  0  0  0
 49 42  1  0  0  0  0
 50 53  1  0  0  0  0
 50 43  1  6  0  0  0
 52 49  1  0  0  0  0
 52 48  1  0  0  0  0
 53 42  1  6  0  0  0
 53 44  1  0  0  0  0
 55 54  1  0  0  0  0
M  END
>  <MODEL>
5

>  <REMARK>
 VINA RESULT:      -4.4      3.982      7.094
  Name = 
  6 active torsions:
  status: ('A' for Active; 'I' for Inactive)
    1  A    between atoms: C_6  and  C_20
    2  A    between atoms: C_7  and  C_8
    3  A    between atoms: C_7  and  C_20
    4  A    between atoms: C_10  and  N_32
    5  A    between atoms: O_11  and  C_29
    6  A    between atoms: C_33  and  C_52
                            x       y       z     vdW  Elec       q    Type
                         _______ _______ _______ _____ _____    ______ ____

>  <TORSDO>
F 6

$$$$
=
 OpenBabel11052419343D

 55 62  0  0  1  0  0  0  0  0999 V2000
  188.8290  174.5170  143.1390 C   0  0  2  0  0  3  0  0  0  0  0  0
  195.2630  172.8200  144.3380 O   0  0  0  0  0  0  0  0  0  0  0  0
  193.0070  172.9830  145.7760 O   0  0  0  0  0  0  0  0  0  0  0  0
  194.3230  170.9400  142.2780 C   0  0  1  0  0  3  0  0  0  0  0  0
  191.9420  176.8600  148.2590 C   0  0  0  0  0  3  0  0  0  0  0  0
  191.4150  177.7040  149.1450 C   0  0  0  0  0  3  0  0  0  0  0  0
  189.9350  177.1480  146.7550 C   0  0  2  0  0  3  0  0  0  0  0  0
  189.5870  178.3060  147.6490 C   0  0  0  0  0  3  0  0  0  0  0  0
  193.0270  175.2940  145.8400 O   0  0  0  0  0  0  0  0  0  0  0  0
  195.4530  171.8610  142.2110 N   0  0  0  0  0  2  0  0  0  0  0  0
  190.2610  178.5380  148.7770 C   0  0  0  0  0  3  0  0  0  0  0  0
  188.5900  174.6370  140.6610 C   0  0  0  0  0  2  0  0  0  0  0  0
  191.4310  176.7890  146.8430 C   0  0  2  0  0  3  0  0  0  0  0  0
  190.3960  172.4490  140.6370 C   0  0  1  0  0  3  0  0  0  0  0  0
  189.7620  174.3630  144.1800 O   0  0  0  0  0  0  0  0  0  0  0  0
  189.5890  172.7060  141.7620 O   0  0  0  0  0  0  0  0  0  0  0  0
  188.7250  176.4690  144.6630 C   0  0  2  0  0  3  0  0  0  0  0  0
  195.1280  173.0650  142.9700 C   0  0  0  0  0  2  0  0  0  0  0  0
  189.5740  177.5410  145.3320 C   0  0  0  0  0  2  0  0  0  0  0  0
  194.9920  174.0450  144.9580 C   0  0  0  0  0  2  0  0  0  0  0  0
  193.6090  174.0660  145.5260 C   0  0  0  0  0  0  0  0  0  0  0  0
  188.3750  173.5750  139.5810 C   0  0  0  0  0  2  0  0  0  0  0  0
  193.2030  171.4330  141.3730 C   0  0  0  0  0  2  0  0  0  0  0  0
  189.4500  174.1070  141.8210 C   0  0  2  0  0  3  0  0  0  0  0  0
  191.6870  175.3950  146.2990 C   0  0  0  0  0  2  0  0  0  0  0  0
  189.5810  175.6710  143.6860 C   0  0  2  0  0  3  0  0  0  0  0  0
  191.8920  170.7490  141.7220 C   0  0  0  0  0  2  0  0  0  0  0  0
  190.8550  171.0010  140.6400 C   0  0  0  0  0  2  0  0  0  0  0  0
  189.6450  172.7520  139.3290 C   0  0  0  0  0  2  0  0  0  0  0  0
  187.7650  177.8090  142.7080 C   0  0  0  0  0  3  0  0  0  0  0  0
  185.3980  178.1760  142.5180 N   0  0  0  0  0  0  0  0  0  0  0  0
  186.3180  177.0400  144.5140 C   0  0  0  0  0  3  0  0  0  0  0  0
  185.1410  177.7480  143.9010 C   0  0  0  0  0  2  0  0  0  0  0  0
  186.7380  178.3170  142.0270 C   0  0  0  0  0  3  0  0  0  0  0  0
  187.5410  177.0900  143.9740 C   0  0  0  0  0  0  0  0  0  0  0  0
  184.3090  178.7700  141.7480 C   0  0  0  0  0  3  0  0  0  0  0  0
  183.5520  177.6940  140.9830 C   0  0  0  0  0  2  0  0  0  0  0  0
  184.5520  178.5670  140.2620 C   0  0  0  0  0  2  0  0  0  0  0  0
  194.7670  169.5750  141.7720 C   0  0  0  0  0  2  0  0  0  0  0  0
  195.9330  169.6550  140.7930 C   0  0  2  0  0  3  0  0  0  0  0  0
  196.4510  170.9480  140.8450 O   0  0  0  0  0  1  0  0  0  0  0  0
  197.1780  171.0450  138.4240 N   0  0  0  0  0  0  0  0  0  0  0  0
  194.3350  169.3150  136.5930 O   0  0  0  0  0  1  0  0  0  0  0  0
  195.4750  169.3430  139.3560 C   0  0  1  0  0  0  0  0  0  0  0  0
  197.8530  168.4390  139.0020 C   0  0  0  0  0  1  0  0  0  0  0  0
  196.4490  168.6100  138.4260 C   0  0  2  0  0  3  0  0  0  0  0  0
  196.5850  172.2860  138.8970 C   0  0  0  0  0  1  0  0  0  0  0  0
  196.3280  170.3160  135.6130 C   0  0  1  0  0  3  0  0  0  0  0  0
  197.9270  171.4160  137.2120 C   0  0  0  0  0  2  0  0  0  0  0  0
  195.3430  170.2620  136.8030 C   0  0  2  0  0  3  0  0  0  0  0  0
  194.1490  168.9270  139.1970 O   0  0  0  0  0  1  0  0  0  0  0  0
  197.7870  170.4150  136.0630 C   0  0  0  0  0  2  0  0  0  0  0  0
  196.0810  170.0860  138.1520 C   0  0  2  0  0  0  0  0  0  0  0  0
  196.1890  169.2050  134.7750 O   0  0  0  0  0  0  0  0  0  0  0  0
  197.4140  168.7510  134.6170 O   0  0  0  0  0  1  0  0  0  0  0  0
  1 26  1  0  0  0  0
  1 15  1  1  0  0  0
  2 20  1  0  0  0  0
  4 39  1  6  0  0  0
  5  6  2  0  0  0  0
  7 19  1  6  0  0  0
  7 13  1  0  0  0  0
  7  8  1  0  0  0  0
  8 11  2  0  0  0  0
  9 25  1  0  0  0  0
 10  4  1  0  0  0  0
 10 18  1  0  0  0  0
 11  6  1  0  0  0  0
 13 25  1  1  0  0  0
 13  5  1  0  0  0  0
 14 29  1  6  0  0  0
 14 28  1  0  0  0  0
 14 16  1  0  0  0  0
 16 24  1  0  0  0  0
 17 35  1  6  0  0  0
 17 19  1  0  0  0  0
 18  2  1  0  0  0  0
 20 21  1  0  0  0  0
 21  3  2  0  0  0  0
 21  9  1  0  0  0  0
 22 12  1  0  0  0  0
 23 27  1  0  0  0  0
 23  4  1  0  0  0  0
 24 12  1  6  0  0  0
 24  1  1  0  0  0  0
 26 15  1  1  0  0  0
 26 17  1  0  0  0  0
 28 27  1  0  0  0  0
 29 22  1  0  0  0  0
 30 35  1  0  0  0  0
 31 33  1  0  0  0  0
 33 32  1  0  0  0  0
 34 31  1  0  0  0  0
 34 30  2  0  0  0  0
 35 32  2  0  0  0  0
 36 31  1  0  0  0  0
 37 36  1  0  0  0  0
 38 37  1  0  0  0  0
 38 36  1  0  0  0  0
 40 41  1  6  0  0  0
 40 39  1  0  0  0  0
 42 47  1  0  0  0  0
 44 51  1  6  0  0  0
 44 40  1  0  0  0  0
 46 45  1  1  0  0  0
 46 44  1  0  0  0  0
 48 54  1  1  0  0  0
 48 52  1  0  0  0  0
 48 50  1  0  0  0  0
 49 42  1  0  0  0  0
 50 43  1  6  0  0  0
 50 53  1  0  0  0  0
 52 49  1  0  0  0  0
 53 42  1  1  0  0  0
 53 46  1  0  0  0  0
 53 44  1  0  0  0  0
 55 54  1  0  0  0  0
M  END
>  <MODEL>
6

>  <REMARK>
 VINA RESULT:      -4.3      1.096      1.662
  Name = 
  6 active torsions:
  status: ('A' for Active; 'I' for Inactive)
    1  A    between atoms: C_6  and  C_20
    2  A    between atoms: C_7  and  C_8
    3  A    between atoms: C_7  and  C_20
    4  A    between atoms: C_10  and  N_32
    5  A    between atoms: O_11  and  C_29
    6  A    between atoms: C_33  and  C_52
                            x       y       z     vdW  Elec       q    Type
                         _______ _______ _______ _____ _____    ______ ____

>  <TORSDO>
F 6

$$$$
