=
 OpenBabel11052419023D

 34 38  0  0  1  0  0  0  0  0999 V2000
  185.4870  177.5850  144.2380 C   0  0  0  0  0  0  0  0  0  0  0  0
  186.5230  177.4570  146.4340 C   0  0  0  0  0  0  0  0  0  0  0  0
  187.6510  176.4590  144.4370 C   0  0  0  0  0  0  0  0  0  0  0  0
  189.8350  175.2710  144.5670 C   0  0  0  0  0  0  0  0  0  0  0  0
  184.4540  178.3550  144.7750 C   0  0  0  0  0  3  0  0  0  0  0  0
  185.4750  178.2210  146.9560 C   0  0  0  0  0  3  0  0  0  0  0  0
  189.5490  177.4010  145.7920 C   0  0  0  0  0  2  0  0  0  0  0  0
  186.5800  177.1760  145.0470 C   0  0  0  0  0  0  0  0  0  0  0  0
  190.5930  176.9070  146.7880 C   0  0  0  0  0  2  0  0  0  0  0  0
  191.0270  174.8640  145.3740 C   0  0  0  0  0  2  0  0  0  0  0  0
  184.4560  178.6860  146.1290 C   0  0  0  0  0  3  0  0  0  0  0  0
  187.4950  175.9690  143.1200 C   0  0  0  0  0  0  0  0  0  0  0  0
  185.4110  177.1970  142.9040 C   0  0  0  0  0  3  0  0  0  0  0  0
  187.3990  176.9130  147.3140 F   0  0  0  0  0  0  0  0  0  0  0  0
  189.6270  174.7140  143.3780 C   0  0  0  0  0  3  0  0  0  0  0  0
  188.4990  175.0800  142.5690 N   0  0  0  0  0  0  0  0  0  0  0  0
  191.6490  176.0810  146.0580 C   0  0  2  0  0  3  0  0  0  0  0  0
  188.9360  176.2770  145.0740 N   0  0  0  0  0  0  0  0  0  0  0  0
  186.3930  176.3780  142.3570 C   0  0  0  0  0  3  0  0  0  0  0  0
  187.8560  174.6680  138.8990 C   0  0  0  0  0  0  0  0  0  0  0  0
  188.2250  173.3360  138.7010 C   0  0  0  0  0  3  0  0  0  0  0  0
  188.3860  174.4750  141.2650 C   0  0  0  0  0  0  0  0  0  0  0  0
  188.6800  172.5710  139.7780 C   0  0  0  0  0  3  0  0  0  0  0  0
  187.9400  175.2370  140.1730 C   0  0  0  0  0  3  0  0  0  0  0  0
  188.7650  173.1400  141.0520 C   0  0  0  0  0  3  0  0  0  0  0  0
  187.2910  175.6290  137.5500 Cl  0  0  0  0  0  0  0  0  0  0  0  0
  192.7850  175.6740  146.9930 C   0  0  0  0  0  2  0  0  0  0  0  0
  194.1330  176.2180  146.5370 C   0  0  0  0  0  2  0  0  0  0  0  0
  195.9200  174.6850  146.0670 O   0  0  0  0  0  1  0  0  0  0  0  0
  194.7720  175.2740  145.5300 C   0  0  2  0  0  3  0  0  0  0  0  0
  195.0400  175.9400  144.2420 N   0  0  0  0  0  2  0  0  0  0  0  0
  193.9260  173.9400  143.2120 C   0  0  0  0  0  1  0  0  0  0  0  0
  194.3140  175.4050  143.0770 C   0  0  0  0  0  3  0  0  0  0  0  0
  193.1300  176.2720  142.6900 C   0  0  0  0  0  1  0  0  0  0  0  0
  1  5  2  0  0  0  0
  1  8  1  0  0  0  0
  2  6  1  0  0  0  0
  2 14  1  0  0  0  0
  3  8  1  0  0  0  0
  3 18  1  0  0  0  0
  4 18  1  0  0  0  0
  4 10  1  0  0  0  0
  5 11  1  0  0  0  0
  7  9  1  0  0  0  0
  8  2  2  0  0  0  0
 10 17  1  0  0  0  0
 11  6  2  0  0  0  0
 12  3  2  0  0  0  0
 13  1  1  0  0  0  0
 15  4  2  0  0  0  0
 16 12  1  0  0  0  0
 16 15  1  0  0  0  0
 17  9  1  0  0  0  0
 17 27  1  1  0  0  0
 18  7  1  0  0  0  0
 19 13  2  0  0  0  0
 19 12  1  0  0  0  0
 20 24  1  0  0  0  0
 21 20  2  0  0  0  0
 21 23  1  0  0  0  0
 22 16  1  0  0  0  0
 23 25  2  0  0  0  0
 24 22  2  0  0  0  0
 25 22  1  0  0  0  0
 26 20  1  0  0  0  0
 28 27  1  0  0  0  0
 30 29  1  1  0  0  0
 30 28  1  0  0  0  0
 31 30  1  0  0  0  0
 33 32  1  0  0  0  0
 33 31  1  0  0  0  0
 34 33  1  0  0  0  0
M  END
>  <MODEL>
1

>  <REMARK>
 VINA RESULT:      -8.2      0.000      0.000
  Name = 
  6 active torsions:
  status: ('A' for Active; 'I' for Inactive)
    1  A    between atoms: C_3  and  C_13
    2  A    between atoms: C_3  and  C_29
    3  A    between atoms: C_12  and  N_28
    4  A    between atoms: C_13  and  C_33
    5  A    between atoms: C_20  and  N_22
    6  A    between atoms: N_22  and  C_33
                            x       y       z     vdW  Elec       q    Type
                         _______ _______ _______ _____ _____    ______ ____

>  <TORSDO>
F 6

$$$$
=
 OpenBabel11052419023D

 34 38  0  0  1  0  0  0  0  0999 V2000
  191.1290  173.7290  140.5550 C   0  0  0  0  0  0  0  0  0  0  0  0
  188.7910  173.9990  141.1710 C   0  0  0  0  0  0  0  0  0  0  0  0
  190.5980  174.3200  142.8710 C   0  0  0  0  0  0  0  0  0  0  0  0
  190.1340  174.8880  145.2490 C   0  0  0  0  0  0  0  0  0  0  0  0
  190.7510  173.5230  139.2280 C   0  0  0  0  0  3  0  0  0  0  0  0
  188.4310  173.7800  139.8380 C   0  0  0  0  0  3  0  0  0  0  0  0
  188.8930  176.0700  143.4660 C   0  0  0  0  0  2  0  0  0  0  0  0
  190.1570  174.0380  141.5450 C   0  0  0  0  0  0  0  0  0  0  0  0
  187.7500  176.2570  144.4580 C   0  0  0  0  0  2  0  0  0  0  0  0
  189.1480  175.2650  146.3090 C   0  0  0  0  0  2  0  0  0  0  0  0
  189.4050  173.5640  138.8660 C   0  0  0  0  0  3  0  0  0  0  0  0
  191.9410  174.0550  143.2250 C   0  0  0  0  0  0  0  0  0  0  0  0
  192.4700  173.5940  140.9000 C   0  0  0  0  0  3  0  0  0  0  0  0
  187.7940  174.0540  142.0870 F   0  0  0  0  0  0  0  0  0  0  0  0
  191.3630  174.5210  145.6000 C   0  0  0  0  0  3  0  0  0  0  0  0
  192.3420  174.1570  144.6140 N   0  0  0  0  0  0  0  0  0  0  0  0
  188.3160  176.4670  145.8610 C   0  0  2  0  0  3  0  0  0  0  0  0
  189.7530  174.9480  143.8610 N   0  0  0  0  0  0  0  0  0  0  0  0
  192.8680  173.7330  142.2250 C   0  0  0  0  0  3  0  0  0  0  0  0
  195.3310  172.1690  145.6980 C   0  0  0  0  0  0  0  0  0  0  0  0
  196.2720  173.1790  145.9110 C   0  0  0  0  0  3  0  0  0  0  0  0
  193.6700  173.8340  145.0770 C   0  0  0  0  0  0  0  0  0  0  0  0
  195.9200  174.5150  145.7040 C   0  0  0  0  0  3  0  0  0  0  0  0
  194.0380  172.4950  145.2780 C   0  0  0  0  0  3  0  0  0  0  0  0
  194.6280  174.8400  145.2840 C   0  0  0  0  0  3  0  0  0  0  0  0
  195.7710  170.4950  145.9510 Cl  0  0  0  0  0  0  0  0  0  0  0  0
  187.2140  176.7860  146.8660 C   0  0  0  0  0  2  0  0  0  0  0  0
  185.8350  176.8370  146.2170 C   0  0  0  0  0  2  0  0  0  0  0  0
  184.9950  178.5770  147.6410 O   0  0  0  0  0  1  0  0  0  0  0  0
  185.2580  178.2410  146.3110 C   0  0  2  0  0  3  0  0  0  0  0  0
  184.0730  178.4090  145.4500 N   0  0  0  0  0  2  0  0  0  0  0  0
  185.6110  179.9050  144.1470 C   0  0  0  0  0  1  0  0  0  0  0  0
  184.2850  179.1610  144.2010 C   0  0  0  0  0  3  0  0  0  0  0  0
  184.0670  178.3020  142.9690 C   0  0  0  0  0  1  0  0  0  0  0  0
  1 13  2  0  0  0  0
  1  8  1  0  0  0  0
  2  8  1  0  0  0  0
  2 14  1  0  0  0  0
  3 12  1  0  0  0  0
  3 18  1  0  0  0  0
  4 15  2  0  0  0  0
  4 10  1  0  0  0  0
  5  1  1  0  0  0  0
  6  2  2  0  0  0  0
  7 18  1  0  0  0  0
  7  9  1  0  0  0  0
  8  3  2  0  0  0  0
  9 17  1  0  0  0  0
 11  5  2  0  0  0  0
 11  6  1  0  0  0  0
 12 16  1  0  0  0  0
 13 19  1  0  0  0  0
 16 22  1  0  0  0  0
 16 15  1  0  0  0  0
 17 10  1  0  0  0  0
 17 27  1  1  0  0  0
 18  4  1  0  0  0  0
 19 12  2  0  0  0  0
 20 21  1  0  0  0  0
 20 26  1  0  0  0  0
 22 24  1  0  0  0  0
 22 25  2  0  0  0  0
 23 21  2  0  0  0  0
 24 20  2  0  0  0  0
 25 23  1  0  0  0  0
 28 30  1  0  0  0  0
 28 27  1  0  0  0  0
 30 29  1  1  0  0  0
 31 30  1  0  0  0  0
 32 33  1  0  0  0  0
 33 31  1  0  0  0  0
 34 33  1  0  0  0  0
M  END
>  <MODEL>
2

>  <REMARK>
 VINA RESULT:      -8.1      3.699      7.869
  Name = 
  6 active torsions:
  status: ('A' for Active; 'I' for Inactive)
    1  A    between atoms: C_3  and  C_13
    2  A    between atoms: C_3  and  C_29
    3  A    between atoms: C_12  and  N_28
    4  A    between atoms: C_13  and  C_33
    5  A    between atoms: C_20  and  N_22
    6  A    between atoms: N_22  and  C_33
                            x       y       z     vdW  Elec       q    Type
                         _______ _______ _______ _____ _____    ______ ____

>  <TORSDO>
F 6

$$$$
=
 OpenBabel11052419023D

 34 38  0  0  1  0  0  0  0  0999 V2000
  193.9000  174.0650  144.1170 C   0  0  0  0  0  0  0  0  0  0  0  0
  193.2790  175.7580  145.7490 C   0  0  0  0  0  0  0  0  0  0  0  0
  191.5580  174.7690  144.2260 C   0  0  0  0  0  0  0  0  0  0  0  0
  189.1660  175.4590  144.2570 C   0  0  0  0  0  0  0  0  0  0  0  0
  195.2030  174.0680  144.6160 C   0  0  0  0  0  3  0  0  0  0  0  0
  194.5920  175.7550  146.2290 C   0  0  0  0  0  3  0  0  0  0  0  0
  190.3340  175.0720  146.4020 C   0  0  0  0  0  2  0  0  0  0  0  0
  192.8920  174.8650  144.7190 C   0  0  0  0  0  0  0  0  0  0  0  0
  189.3780  176.0730  147.0430 C   0  0  0  0  0  2  0  0  0  0  0  0
  188.0670  176.2480  144.8940 C   0  0  0  0  0  2  0  0  0  0  0  0
  195.5450  174.9000  145.6810 C   0  0  0  0  0  3  0  0  0  0  0  0
  191.3140  174.0780  143.0170 C   0  0  0  0  0  0  0  0  0  0  0  0
  193.6110  173.2910  142.9980 C   0  0  0  0  0  3  0  0  0  0  0  0
  192.4430  176.7150  146.2210 F   0  0  0  0  0  0  0  0  0  0  0  0
  188.9700  174.9120  143.0600 C   0  0  0  0  0  3  0  0  0  0  0  0
  189.9970  174.1430  142.4160 N   0  0  0  0  0  0  0  0  0  0  0  0
  188.0010  175.9560  146.3930 C   0  0  2  0  0  3  0  0  0  0  0  0
  190.4150  175.2790  144.9520 N   0  0  0  0  0  0  0  0  0  0  0  0
  192.3370  173.3150  142.4400 C   0  0  0  0  0  3  0  0  0  0  0  0
  188.7080  173.6920  138.9240 C   0  0  0  0  0  0  0  0  0  0  0  0
  189.1090  172.3820  138.6480 C   0  0  0  0  0  3  0  0  0  0  0  0
  189.6780  173.5310  141.1480 C   0  0  0  0  0  0  0  0  0  0  0  0
  189.7990  171.6460  139.6140 C   0  0  0  0  0  3  0  0  0  0  0  0
  188.9960  174.2650  140.1660 C   0  0  0  0  0  3  0  0  0  0  0  0
  190.0860  172.2190  140.8560 C   0  0  0  0  0  3  0  0  0  0  0  0
  187.8500  174.6180  137.7120 Cl  0  0  0  0  0  0  0  0  0  0  0  0
  186.9770  176.8480  147.0890 C   0  0  0  0  0  2  0  0  0  0  0  0
  185.6510  176.9010  146.3400 C   0  0  0  0  0  2  0  0  0  0  0  0
  184.7420  178.6710  147.6840 O   0  0  0  0  0  1  0  0  0  0  0  0
  185.0780  178.3100  146.3770 C   0  0  2  0  0  3  0  0  0  0  0  0
  183.9460  178.4700  145.4470 N   0  0  0  0  0  2  0  0  0  0  0  0
  185.5780  179.9080  144.1940 C   0  0  0  0  0  1  0  0  0  0  0  0
  184.2350  179.1920  144.1960 C   0  0  0  0  0  3  0  0  0  0  0  0
  184.0620  178.3120  142.9710 C   0  0  0  0  0  1  0  0  0  0  0  0
  1  5  2  0  0  0  0
  1  8  1  0  0  0  0
  2 14  1  0  0  0  0
  2  6  1  0  0  0  0
  3  8  1  0  0  0  0
  3 18  1  0  0  0  0
  4 10  1  0  0  0  0
  4 18  1  0  0  0  0
  5 11  1  0  0  0  0
  7  9  1  0  0  0  0
  8  2  2  0  0  0  0
 10 17  1  0  0  0  0
 11  6  2  0  0  0  0
 12  3  2  0  0  0  0
 13  1  1  0  0  0  0
 15  4  2  0  0  0  0
 16 12  1  0  0  0  0
 16 15  1  0  0  0  0
 17  9  1  0  0  0  0
 17 27  1  1  0  0  0
 18  7  1  0  0  0  0
 19 13  2  0  0  0  0
 19 12  1  0  0  0  0
 20 24  1  0  0  0  0
 21 20  2  0  0  0  0
 21 23  1  0  0  0  0
 22 16  1  0  0  0  0
 23 25  2  0  0  0  0
 24 22  2  0  0  0  0
 25 22  1  0  0  0  0
 26 20  1  0  0  0  0
 28 30  1  0  0  0  0
 28 27  1  0  0  0  0
 30 29  1  1  0  0  0
 31 30  1  0  0  0  0
 32 33  1  0  0  0  0
 33 31  1  0  0  0  0
 34 33  1  0  0  0  0
M  END
>  <MODEL>
3

>  <REMARK>
 VINA RESULT:      -7.8      2.757      6.815
  Name = 
  6 active torsions:
  status: ('A' for Active; 'I' for Inactive)
    1  A    between atoms: C_3  and  C_13
    2  A    between atoms: C_3  and  C_29
    3  A    between atoms: C_12  and  N_28
    4  A    between atoms: C_13  and  C_33
    5  A    between atoms: C_20  and  N_22
    6  A    between atoms: N_22  and  C_33
                            x       y       z     vdW  Elec       q    Type
                         _______ _______ _______ _____ _____    ______ ____

>  <TORSDO>
F 6

$$$$
=
 OpenBabel11052419023D

 34 38  0  0  1  0  0  0  0  0999 V2000
  191.4650  176.1690  145.7900 C   0  0  0  0  0  0  0  0  0  0  0  0
  191.9910  174.0590  144.7010 C   0  0  0  0  0  0  0  0  0  0  0  0
  190.0080  175.4020  143.9780 C   0  0  0  0  0  0  0  0  0  0  0  0
  188.4660  174.6720  142.1670 C   0  0  0  0  0  0  0  0  0  0  0  0
  192.6230  176.0540  146.5610 C   0  0  0  0  0  3  0  0  0  0  0  0
  193.1410  173.9570  145.4890 C   0  0  0  0  0  3  0  0  0  0  0  0
  190.9050  174.4490  141.8310 C   0  0  0  0  0  2  0  0  0  0  0  0
  191.1600  175.2020  144.7950 C   0  0  0  0  0  0  0  0  0  0  0  0
  190.6160  173.2800  140.8930 C   0  0  0  0  0  2  0  0  0  0  0  0
  188.1360  173.7040  141.0750 C   0  0  0  0  0  2  0  0  0  0  0  0
  193.4690  174.9590  146.4000 C   0  0  0  0  0  3  0  0  0  0  0  0
  189.0790  176.4080  144.3260 C   0  0  0  0  0  0  0  0  0  0  0  0
  190.5960  177.2270  146.0360 C   0  0  0  0  0  3  0  0  0  0  0  0
  191.6530  172.9850  143.9460 F   0  0  0  0  0  0  0  0  0  0  0  0
  187.5410  175.5370  142.5750 C   0  0  0  0  0  3  0  0  0  0  0  0
  187.8180  176.4870  143.6160 N   0  0  0  0  0  0  0  0  0  0  0  0
  189.3230  173.5460  140.1260 C   0  0  2  0  0  3  0  0  0  0  0  0
  189.7830  174.6750  142.7490 N   0  0  0  0  0  0  0  0  0  0  0  0
  189.4040  177.3330  145.3280 C   0  0  0  0  0  3  0  0  0  0  0  0
  185.0230  178.1730  145.4610 C   0  0  0  0  0  0  0  0  0  0  0  0
  184.8030  179.2970  144.6620 C   0  0  0  0  0  3  0  0  0  0  0  0
  186.7810  177.4320  143.9520 C   0  0  0  0  0  0  0  0  0  0  0  0
  185.5710  179.4970  143.5130 C   0  0  0  0  0  3  0  0  0  0  0  0
  186.0100  177.2480  145.1100 C   0  0  0  0  0  3  0  0  0  0  0  0
  186.5580  178.5720  143.1620 C   0  0  0  0  0  3  0  0  0  0  0  0
  184.0660  177.9240  146.9050 Cl  0  0  0  0  0  0  0  0  0  0  0  0
  189.0610  172.4630  139.0820 C   0  0  0  0  0  2  0  0  0  0  0  0
  188.5670  173.0410  137.7610 C   0  0  0  0  0  2  0  0  0  0  0  0
  189.2030  174.6270  136.0760 O   0  0  0  0  0  1  0  0  0  0  0  0
  189.7040  173.7400  137.0320 C   0  0  2  0  0  3  0  0  0  0  0  0
  190.6620  172.7810  136.4530 N   0  0  0  0  0  2  0  0  0  0  0  0
  192.3570  174.1660  137.6820 C   0  0  0  0  0  1  0  0  0  0  0  0
  192.0430  172.8650  136.9560 C   0  0  0  0  0  3  0  0  0  0  0  0
  192.4300  171.6490  137.7790 C   0  0  0  0  0  1  0  0  0  0  0  0
  1 13  1  0  0  0  0
  1  5  2  0  0  0  0
  2  8  2  0  0  0  0
  2  6  1  0  0  0  0
  3 12  2  0  0  0  0
  3  8  1  0  0  0  0
  4 15  2  0  0  0  0
  4 18  1  0  0  0  0
  6 11  2  0  0  0  0
  7 18  1  0  0  0  0
  8  1  1  0  0  0  0
  9  7  1  0  0  0  0
 10  4  1  0  0  0  0
 11  5  1  0  0  0  0
 12 19  1  0  0  0  0
 14  2  1  0  0  0  0
 15 16  1  0  0  0  0
 16 22  1  0  0  0  0
 16 12  1  0  0  0  0
 17 27  1  6  0  0  0
 17  9  1  0  0  0  0
 17 10  1  0  0  0  0
 18  3  1  0  0  0  0
 19 13  2  0  0  0  0
 20 26  1  0  0  0  0
 21 20  2  0  0  0  0
 22 24  2  0  0  0  0
 23 21  1  0  0  0  0
 24 20  1  0  0  0  0
 25 23  2  0  0  0  0
 25 22  1  0  0  0  0
 28 27  1  0  0  0  0
 30 29  1  6  0  0  0
 30 28  1  0  0  0  0
 31 33  1  0  0  0  0
 31 30  1  0  0  0  0
 33 32  1  0  0  0  0
 33 34  1  0  0  0  0
M  END
>  <MODEL>
4

>  <REMARK>
 VINA RESULT:      -7.6      3.605      7.121
  Name = 
  6 active torsions:
  status: ('A' for Active; 'I' for Inactive)
    1  A    between atoms: C_3  and  C_13
    2  A    between atoms: C_3  and  C_29
    3  A    between atoms: C_12  and  N_28
    4  A    between atoms: C_13  and  C_33
    5  A    between atoms: C_20  and  N_22
    6  A    between atoms: N_22  and  C_33
                            x       y       z     vdW  Elec       q    Type
                         _______ _______ _______ _____ _____    ______ ____

>  <TORSDO>
F 6

$$$$
=
 OpenBabel11052419023D

 34 38  0  0  1  0  0  0  0  0999 V2000
  188.9620  173.8150  140.9710 C   0  0  0  0  0  0  0  0  0  0  0  0
  191.3740  173.8640  140.6630 C   0  0  0  0  0  0  0  0  0  0  0  0
  190.3340  174.8540  142.7120 C   0  0  0  0  0  0  0  0  0  0  0  0
  191.6620  175.9540  144.5070 C   0  0  0  0  0  0  0  0  0  0  0  0
  188.8310  173.0760  139.7940 C   0  0  0  0  0  3  0  0  0  0  0  0
  191.2220  173.1320  139.4810 C   0  0  0  0  0  3  0  0  0  0  0  0
  192.4640  173.8160  143.5570 C   0  0  0  0  0  2  0  0  0  0  0  0
  190.2470  174.1680  141.4650 C   0  0  0  0  0  0  0  0  0  0  0  0
  193.8820  174.2520  143.9110 C   0  0  0  0  0  2  0  0  0  0  0  0
  192.9970  176.3010  145.0850 C   0  0  0  0  0  2  0  0  0  0  0  0
  189.9610  172.7210  139.0580 C   0  0  0  0  0  3  0  0  0  0  0  0
  189.1590  175.3720  143.3010 C   0  0  0  0  0  0  0  0  0  0  0  0
  187.8120  174.2300  141.6350 C   0  0  0  0  0  3  0  0  0  0  0  0
  192.6060  174.3590  140.9380 F   0  0  0  0  0  0  0  0  0  0  0  0
  190.5690  176.5400  144.9860 C   0  0  0  0  0  3  0  0  0  0  0  0
  189.2680  176.2320  144.4630 N   0  0  0  0  0  0  0  0  0  0  0  0
  193.8650  175.0500  145.2130 C   0  0  2  0  0  3  0  0  0  0  0  0
  191.5700  174.9750  143.4540 N   0  0  0  0  0  0  0  0  0  0  0  0
  187.9090  175.0200  142.7750 C   0  0  0  0  0  3  0  0  0  0  0  0
  186.3450  178.5160  145.0140 C   0  0  0  0  0  0  0  0  0  0  0  0
  185.8690  178.0630  146.2460 C   0  0  0  0  0  3  0  0  0  0  0  0
  188.1300  176.8640  145.0850 C   0  0  0  0  0  0  0  0  0  0  0  0
  186.5130  177.0090  146.8980 C   0  0  0  0  0  3  0  0  0  0  0  0
  187.4670  177.9160  144.4340 C   0  0  0  0  0  3  0  0  0  0  0  0
  187.6350  176.4100  146.3190 C   0  0  0  0  0  3  0  0  0  0  0  0
  185.5360  179.8310  144.1920 Cl  0  0  0  0  0  0  0  0  0  0  0  0
  195.2780  175.3960  145.6740 C   0  0  0  0  0  2  0  0  0  0  0  0
  196.0530  174.1690  146.1370 C   0  0  0  0  0  2  0  0  0  0  0  0
  197.3430  174.9130  144.2540 O   0  0  0  0  0  1  0  0  0  0  0  0
  197.3200  174.0010  145.3120 C   0  0  2  0  0  3  0  0  0  0  0  0
  197.4980  172.6110  144.8510 N   0  0  0  0  0  2  0  0  0  0  0  0
  195.7130  171.1060  143.9290 C   0  0  0  0  0  1  0  0  0  0  0  0
  196.3980  171.6820  145.1610 C   0  0  0  0  0  3  0  0  0  0  0  0
  196.8190  170.5970  146.1350 C   0  0  0  0  0  1  0  0  0  0  0  0
  1  8  2  0  0  0  0
  1 13  1  0  0  0  0
  2 14  1  0  0  0  0
  2  8  1  0  0  0  0
  3 12  2  0  0  0  0
  3 18  1  0  0  0  0
  4 15  2  0  0  0  0
  4 10  1  0  0  0  0
  5  1  1  0  0  0  0
  6  2  2  0  0  0  0
  7  9  1  0  0  0  0
  8  3  1  0  0  0  0
  9 17  1  0  0  0  0
 10 17  1  0  0  0  0
 11  6  1  0  0  0  0
 11  5  2  0  0  0  0
 12 16  1  0  0  0  0
 13 19  2  0  0  0  0
 16 15  1  0  0  0  0
 16 22  1  0  0  0  0
 17 27  1  6  0  0  0
 18  7  1  0  0  0  0
 18  4  1  0  0  0  0
 19 12  1  0  0  0  0
 20 21  1  0  0  0  0
 21 23  2  0  0  0  0
 22 25  2  0  0  0  0
 24 20  2  0  0  0  0
 24 22  1  0  0  0  0
 25 23  1  0  0  0  0
 26 20  1  0  0  0  0
 27 28  1  0  0  0  0
 30 29  1  6  0  0  0
 30 28  1  0  0  0  0
 31 33  1  0  0  0  0
 31 30  1  0  0  0  0
 32 33  1  0  0  0  0
 33 34  1  0  0  0  0
M  END
>  <MODEL>
5

>  <REMARK>
 VINA RESULT:      -7.5      2.874      5.820
  Name = 
  6 active torsions:
  status: ('A' for Active; 'I' for Inactive)
    1  A    between atoms: C_3  and  C_13
    2  A    between atoms: C_3  and  C_29
    3  A    between atoms: C_12  and  N_28
    4  A    between atoms: C_13  and  C_33
    5  A    between atoms: C_20  and  N_22
    6  A    between atoms: N_22  and  C_33
                            x       y       z     vdW  Elec       q    Type
                         _______ _______ _______ _____ _____    ______ ____

>  <TORSDO>
F 6

$$$$
=
 OpenBabel11052419023D

 34 38  0  0  1  0  0  0  0  0999 V2000
  192.3880  174.0750  144.7370 C   0  0  0  0  0  0  0  0  0  0  0  0
  191.6610  176.3670  145.1040 C   0  0  0  0  0  0  0  0  0  0  0  0
  190.5500  174.9430  143.3740 C   0  0  0  0  0  0  0  0  0  0  0  0
  188.6980  175.7660  141.9290 C   0  0  0  0  0  0  0  0  0  0  0  0
  193.2890  174.1960  145.7970 C   0  0  0  0  0  3  0  0  0  0  0  0
  192.5770  176.4720  146.1560 C   0  0  0  0  0  3  0  0  0  0  0  0
  188.6640  176.2940  144.3450 C   0  0  0  0  0  2  0  0  0  0  0  0
  191.5070  175.1410  144.4120 C   0  0  0  0  0  0  0  0  0  0  0  0
  187.8690  177.5510  144.0050 C   0  0  0  0  0  2  0  0  0  0  0  0
  187.7200  176.8450  141.5880 C   0  0  0  0  0  2  0  0  0  0  0  0
  193.3720  175.3870  146.5160 C   0  0  0  0  0  3  0  0  0  0  0  0
  190.6540  173.8040  142.5440 C   0  0  0  0  0  0  0  0  0  0  0  0
  192.3910  172.9060  143.9830 C   0  0  0  0  0  3  0  0  0  0  0  0
  191.0280  177.4990  144.7110 F   0  0  0  0  0  0  0  0  0  0  0  0
  188.8800  174.7570  141.0820 C   0  0  0  0  0  3  0  0  0  0  0  0
  189.8050  173.6980  141.3740 N   0  0  0  0  0  0  0  0  0  0  0  0
  186.9360  177.2670  142.8310 C   0  0  2  0  0  3  0  0  0  0  0  0
  189.4140  175.8170  143.1780 N   0  0  0  0  0  0  0  0  0  0  0  0
  191.5490  172.7810  142.8840 C   0  0  0  0  0  3  0  0  0  0  0  0
  189.7040  171.7850  138.1510 C   0  0  0  0  0  0  0  0  0  0  0  0
  190.1270  170.5200  138.5660 C   0  0  0  0  0  3  0  0  0  0  0  0
  189.8940  172.6090  140.4310 C   0  0  0  0  0  0  0  0  0  0  0  0
  190.4400  170.2960  139.9090 C   0  0  0  0  0  3  0  0  0  0  0  0
  189.5930  172.8250  139.0770 C   0  0  0  0  0  3  0  0  0  0  0  0
  190.3290  171.3360  140.8350 C   0  0  0  0  0  3  0  0  0  0  0  0
  189.3170  172.0690  136.4680 Cl  0  0  0  0  0  0  0  0  0  0  0  0
  186.0280  178.4580  142.5380 C   0  0  0  0  0  2  0  0  0  0  0  0
  184.6620  178.3210  143.2010 C   0  0  0  0  0  2  0  0  0  0  0  0
  185.5540  180.2910  144.2430 O   0  0  0  0  0  1  0  0  0  0  0  0
  184.4670  179.4130  144.2410 C   0  0  2  0  0  3  0  0  0  0  0  0
  184.1980  178.8590  145.5800 N   0  0  0  0  0  2  0  0  0  0  0  0
  185.7380  179.0230  147.5550 C   0  0  0  0  0  1  0  0  0  0  0  0
  185.3540  178.2790  146.2840 C   0  0  0  0  0  3  0  0  0  0  0  0
  185.1920  176.7890  146.5260 C   0  0  0  0  0  1  0  0  0  0  0  0
  1  5  2  0  0  0  0
  2  6  1  0  0  0  0
  3  8  1  0  0  0  0
  4 18  1  0  0  0  0
  5 11  1  0  0  0  0
  6 11  2  0  0  0  0
  8  1  1  0  0  0  0
  8  2  2  0  0  0  0
  9  7  1  0  0  0  0
 10  4  1  0  0  0  0
 10 17  1  0  0  0  0
 12 19  1  0  0  0  0
 12  3  2  0  0  0  0
 13  1  1  0  0  0  0
 14  2  1  0  0  0  0
 15 16  1  0  0  0  0
 15  4  2  0  0  0  0
 16 12  1  0  0  0  0
 17 27  1  6  0  0  0
 17  9  1  0  0  0  0
 18  3  1  0  0  0  0
 18  7  1  0  0  0  0
 19 13  2  0  0  0  0
 20 21  2  0  0  0  0
 20 24  1  0  0  0  0
 21 23  1  0  0  0  0
 22 25  1  0  0  0  0
 22 16  1  0  0  0  0
 23 25  2  0  0  0  0
 24 22  2  0  0  0  0
 26 20  1  0  0  0  0
 27 28  1  0  0  0  0
 28 30  1  0  0  0  0
 30 29  1  1  0  0  0
 30 31  1  0  0  0  0
 31 33  1  0  0  0  0
 33 34  1  0  0  0  0
 33 32  1  0  0  0  0
M  END
>  <MODEL>
6

>  <REMARK>
 VINA RESULT:      -7.5      2.913      6.763
  Name = 
  6 active torsions:
  status: ('A' for Active; 'I' for Inactive)
    1  A    between atoms: C_3  and  C_13
    2  A    between atoms: C_3  and  C_29
    3  A    between atoms: C_12  and  N_28
    4  A    between atoms: C_13  and  C_33
    5  A    between atoms: C_20  and  N_22
    6  A    between atoms: N_22  and  C_33
                            x       y       z     vdW  Elec       q    Type
                         _______ _______ _______ _____ _____    ______ ____

>  <TORSDO>
F 6

$$$$
=
 OpenBabel11052419023D

 34 38  0  0  1  0  0  0  0  0999 V2000
  188.5730  173.6560  141.1300 C   0  0  0  0  0  0  0  0  0  0  0  0
  191.0000  173.4920  141.1290 C   0  0  0  0  0  0  0  0  0  0  0  0
  189.8280  174.9870  142.7570 C   0  0  0  0  0  0  0  0  0  0  0  0
  191.0380  176.3920  144.4170 C   0  0  0  0  0  0  0  0  0  0  0  0
  188.5110  172.6750  140.1400 C   0  0  0  0  0  3  0  0  0  0  0  0
  190.9170  172.5170  140.1300 C   0  0  0  0  0  3  0  0  0  0  0  0
  191.7530  174.0500  144.0770 C   0  0  0  0  0  2  0  0  0  0  0  0
  189.8210  174.0380  141.6930 C   0  0  0  0  0  0  0  0  0  0  0  0
  193.1560  174.4710  144.5030 C   0  0  0  0  0  2  0  0  0  0  0  0
  192.3260  176.7850  145.0700 C   0  0  0  0  0  2  0  0  0  0  0  0
  189.6800  172.0940  139.6520 C   0  0  0  0  0  3  0  0  0  0  0  0
  188.6440  175.6950  143.0620 C   0  0  0  0  0  0  0  0  0  0  0  0
  187.3970  174.2800  141.5330 C   0  0  0  0  0  3  0  0  0  0  0  0
  192.2310  173.9640  141.4420 F   0  0  0  0  0  0  0  0  0  0  0  0
  189.9530  177.1360  144.6110 C   0  0  0  0  0  3  0  0  0  0  0  0
  188.6960  176.7910  144.0080 N   0  0  0  0  0  0  0  0  0  0  0  0
  193.0630  175.5480  145.5820 C   0  0  2  0  0  3  0  0  0  0  0  0
  190.9790  175.2030  143.6050 N   0  0  0  0  0  0  0  0  0  0  0  0
  187.4340  175.3040  142.4730 C   0  0  0  0  0  3  0  0  0  0  0  0
  185.9490  178.4450  145.9520 C   0  0  0  0  0  0  0  0  0  0  0  0
  185.3760  179.2660  144.9780 C   0  0  0  0  0  3  0  0  0  0  0  0
  187.5550  177.6160  144.3240 C   0  0  0  0  0  0  0  0  0  0  0  0
  185.8910  179.2710  143.6800 C   0  0  0  0  0  3  0  0  0  0  0  0
  187.0350  177.6280  145.6280 C   0  0  0  0  0  3  0  0  0  0  0  0
  186.9780  178.4540  143.3560 C   0  0  0  0  0  3  0  0  0  0  0  0
  185.3090  178.4420  147.5810 Cl  0  0  0  0  0  0  0  0  0  0  0  0
  194.4410  175.9080  146.1310 C   0  0  0  0  0  2  0  0  0  0  0  0
  195.2190  176.8200  145.1880 C   0  0  0  0  0  2  0  0  0  0  0  0
  196.7320  175.0340  144.6550 O   0  0  0  0  0  1  0  0  0  0  0  0
  195.8920  176.0010  144.0980 C   0  0  2  0  0  3  0  0  0  0  0  0
  196.5970  176.8540  143.1230 N   0  0  0  0  0  2  0  0  0  0  0  0
  197.1160  175.7350  140.9380 C   0  0  0  0  0  1  0  0  0  0  0  0
  196.2100  176.6800  141.7130 C   0  0  0  0  0  3  0  0  0  0  0  0
  194.7440  176.3110  141.5620 C   0  0  0  0  0  1  0  0  0  0  0  0
  1 13  2  0  0  0  0
  1  8  1  0  0  0  0
  2 14  1  0  0  0  0
  2  8  1  0  0  0  0
  3 12  1  0  0  0  0
  3 18  1  0  0  0  0
  4 15  2  0  0  0  0
  4 10  1  0  0  0  0
  5  1  1  0  0  0  0
  6  2  2  0  0  0  0
  7  9  1  0  0  0  0
  8  3  2  0  0  0  0
  9 17  1  0  0  0  0
 10 17  1  0  0  0  0
 11  6  1  0  0  0  0
 11  5  2  0  0  0  0
 12 16  1  0  0  0  0
 13 19  1  0  0  0  0
 16 22  1  0  0  0  0
 16 15  1  0  0  0  0
 17 27  1  6  0  0  0
 18  7  1  0  0  0  0
 18  4  1  0  0  0  0
 19 12  2  0  0  0  0
 20 26  1  0  0  0  0
 21 20  2  0  0  0  0
 22 24  2  0  0  0  0
 23 21  1  0  0  0  0
 24 20  1  0  0  0  0
 25 23  2  0  0  0  0
 25 22  1  0  0  0  0
 28 27  1  0  0  0  0
 30 29  1  1  0  0  0
 30 28  1  0  0  0  0
 31 30  1  0  0  0  0
 32 33  1  0  0  0  0
 33 31  1  0  0  0  0
 34 33  1  0  0  0  0
M  END
>  <MODEL>
7

>  <REMARK>
 VINA RESULT:      -7.5      2.812      5.570
  Name = 
  6 active torsions:
  status: ('A' for Active; 'I' for Inactive)
    1  A    between atoms: C_3  and  C_13
    2  A    between atoms: C_3  and  C_29
    3  A    between atoms: C_12  and  N_28
    4  A    between atoms: C_13  and  C_33
    5  A    between atoms: C_20  and  N_22
    6  A    between atoms: N_22  and  C_33
                            x       y       z     vdW  Elec       q    Type
                         _______ _______ _______ _____ _____    ______ ____

>  <TORSDO>
F 6

$$$$
=
 OpenBabel11052419023D

 34 38  0  0  1  0  0  0  0  0999 V2000
  186.2190  177.9800  142.6870 C   0  0  0  0  0  0  0  0  0  0  0  0
  186.9460  178.0180  145.0080 C   0  0  0  0  0  0  0  0  0  0  0  0
  188.1490  176.6150  143.3220 C   0  0  0  0  0  0  0  0  0  0  0  0
  190.0980  175.1790  143.9010 C   0  0  0  0  0  0  0  0  0  0  0  0
  185.2540  178.9450  142.9780 C   0  0  0  0  0  3  0  0  0  0  0  0
  185.9670  178.9780  145.2820 C   0  0  0  0  0  3  0  0  0  0  0  0
  189.9850  177.4750  144.8120 C   0  0  0  0  0  2  0  0  0  0  0  0
  187.1310  177.5440  143.6860 C   0  0  0  0  0  0  0  0  0  0  0  0
  190.8130  176.9890  145.9980 C   0  0  0  0  0  2  0  0  0  0  0  0
  191.1070  174.7320  144.9100 C   0  0  0  0  0  2  0  0  0  0  0  0
  185.1380  179.4560  144.2700 C   0  0  0  0  0  3  0  0  0  0  0  0
  188.0860  175.9750  142.0640 C   0  0  0  0  0  0  0  0  0  0  0  0
  186.2520  177.4250  141.4120 C   0  0  0  0  0  3  0  0  0  0  0  0
  187.6150  177.4890  146.0610 F   0  0  0  0  0  0  0  0  0  0  0  0
  189.9590  174.4950  142.7680 C   0  0  0  0  0  3  0  0  0  0  0  0
  189.0060  174.8940  141.7700 N   0  0  0  0  0  0  0  0  0  0  0  0
  191.8160  175.9380  145.5270 C   0  0  2  0  0  3  0  0  0  0  0  0
  189.3040  176.3540  144.1530 N   0  0  0  0  0  0  0  0  0  0  0  0
  187.1600  176.4170  141.1100 C   0  0  0  0  0  3  0  0  0  0  0  0
  189.5390  172.1280  139.2960 C   0  0  0  0  0  0  0  0  0  0  0  0
  188.8410  172.6110  138.1870 C   0  0  0  0  0  3  0  0  0  0  0  0
  188.9660  174.1360  140.5440 C   0  0  0  0  0  0  0  0  0  0  0  0
  188.1990  173.8500  138.2520 C   0  0  0  0  0  3  0  0  0  0  0  0
  189.5970  172.8840  140.4700 C   0  0  0  0  0  3  0  0  0  0  0  0
  188.2570  174.6060  139.4260 C   0  0  0  0  0  3  0  0  0  0  0  0
  190.3380  170.5730  139.2180 Cl  0  0  0  0  0  0  0  0  0  0  0  0
  192.7530  175.5160  146.6550 C   0  0  0  0  0  2  0  0  0  0  0  0
  194.1120  176.2000  146.5640 C   0  0  0  0  0  2  0  0  0  0  0  0
  195.1490  176.0100  144.4080 O   0  0  0  0  0  1  0  0  0  0  0  0
  195.0450  175.4060  145.6630 C   0  0  2  0  0  3  0  0  0  0  0  0
  194.6470  173.9900  145.5670 N   0  0  0  0  0  2  0  0  0  0  0  0
  196.0530  172.5410  144.0760 C   0  0  0  0  0  1  0  0  0  0  0  0
  195.7480  173.0140  145.4900 C   0  0  0  0  0  3  0  0  0  0  0  0
  196.9950  173.4980  146.2080 C   0  0  0  0  0  1  0  0  0  0  0  0
  1  5  2  0  0  0  0
  1  8  1  0  0  0  0
  2  6  1  0  0  0  0
  2 14  1  0  0  0  0
  3  8  1  0  0  0  0
  3 18  1  0  0  0  0
  4 18  1  0  0  0  0
  4 10  1  0  0  0  0
  5 11  1  0  0  0  0
  7  9  1  0  0  0  0
  8  2  2  0  0  0  0
 10 17  1  0  0  0  0
 11  6  2  0  0  0  0
 12  3  2  0  0  0  0
 13  1  1  0  0  0  0
 15  4  2  0  0  0  0
 16 12  1  0  0  0  0
 16 15  1  0  0  0  0
 17  9  1  0  0  0  0
 17 27  1  1  0  0  0
 18  7  1  0  0  0  0
 19 13  2  0  0  0  0
 19 12  1  0  0  0  0
 20 24  1  0  0  0  0
 21 23  1  0  0  0  0
 21 20  2  0  0  0  0
 22 16  1  0  0  0  0
 23 25  2  0  0  0  0
 24 22  2  0  0  0  0
 25 22  1  0  0  0  0
 26 20  1  0  0  0  0
 28 27  1  0  0  0  0
 30 29  1  6  0  0  0
 30 28  1  0  0  0  0
 31 30  1  0  0  0  0
 32 33  1  0  0  0  0
 33 31  1  0  0  0  0
 33 34  1  0  0  0  0
M  END
>  <MODEL>
8

>  <REMARK>
 VINA RESULT:      -7.4      1.767      2.232
  Name = 
  6 active torsions:
  status: ('A' for Active; 'I' for Inactive)
    1  A    between atoms: C_3  and  C_13
    2  A    between atoms: C_3  and  C_29
    3  A    between atoms: C_12  and  N_28
    4  A    between atoms: C_13  and  C_33
    5  A    between atoms: C_20  and  N_22
    6  A    between atoms: N_22  and  C_33
                            x       y       z     vdW  Elec       q    Type
                         _______ _______ _______ _____ _____    ______ ____

>  <TORSDO>
F 6

$$$$
=
 OpenBabel11052419023D

 34 38  0  0  1  0  0  0  0  0999 V2000
  191.0800  173.2770  139.5350 C   0  0  0  0  0  0  0  0  0  0  0  0
  188.7540  173.2140  140.2410 C   0  0  0  0  0  0  0  0  0  0  0  0
  190.5080  174.1910  141.7330 C   0  0  0  0  0  0  0  0  0  0  0  0
  190.0060  175.1080  143.9920 C   0  0  0  0  0  0  0  0  0  0  0  0
  190.7140  172.7510  138.2950 C   0  0  0  0  0  3  0  0  0  0  0  0
  188.4070  172.6780  138.9970 C   0  0  0  0  0  3  0  0  0  0  0  0
  188.5070  175.6690  142.1060 C   0  0  0  0  0  2  0  0  0  0  0  0
  190.0940  173.5810  140.5120 C   0  0  0  0  0  0  0  0  0  0  0  0
  187.3770  175.8240  143.1190 C   0  0  0  0  0  2  0  0  0  0  0  0
  188.9940  175.4880  145.0260 C   0  0  0  0  0  2  0  0  0  0  0  0
  189.3780  172.4670  138.0200 C   0  0  0  0  0  3  0  0  0  0  0  0
  191.8850  174.2580  142.0420 C   0  0  0  0  0  0  0  0  0  0  0  0
  192.4300  173.4670  139.8120 C   0  0  0  0  0  3  0  0  0  0  0  0
  187.7910  173.2540  141.1940 F   0  0  0  0  0  0  0  0  0  0  0  0
  191.2930  175.0540  144.3240 C   0  0  0  0  0  3  0  0  0  0  0  0
  192.2960  174.6990  143.3600 N   0  0  0  0  0  0  0  0  0  0  0  0
  187.9290  176.4020  144.4200 C   0  0  2  0  0  3  0  0  0  0  0  0
  189.5820  174.8270  142.6440 N   0  0  0  0  0  0  0  0  0  0  0  0
  192.8300  173.9300  141.0600 C   0  0  0  0  0  3  0  0  0  0  0  0
  195.8410  175.8320  143.8150 C   0  0  0  0  0  0  0  0  0  0  0  0
  196.3410  174.8420  144.6650 C   0  0  0  0  0  3  0  0  0  0  0  0
  193.6740  174.7280  143.7880 C   0  0  0  0  0  0  0  0  0  0  0  0
  195.5120  173.7990  145.0840 C   0  0  0  0  0  3  0  0  0  0  0  0
  194.5130  175.7780  143.3830 C   0  0  0  0  0  3  0  0  0  0  0  0
  194.1840  173.7450  144.6510 C   0  0  0  0  0  3  0  0  0  0  0  0
  196.8770  177.1430  143.2950 Cl  0  0  0  0  0  0  0  0  0  0  0  0
  186.8130  176.6950  145.4190 C   0  0  0  0  0  2  0  0  0  0  0  0
  187.0080  178.0300  146.1290 C   0  0  0  0  0  2  0  0  0  0  0  0
  185.3290  178.4570  147.7910 O   0  0  0  0  0  1  0  0  0  0  0  0
  185.6610  178.6590  146.4490 C   0  0  2  0  0  3  0  0  0  0  0  0
  184.6010  178.1900  145.5380 N   0  0  0  0  0  2  0  0  0  0  0  0
  185.3230  180.1920  144.2070 C   0  0  0  0  0  1  0  0  0  0  0  0
  184.3680  179.0150  144.3400 C   0  0  0  0  0  3  0  0  0  0  0  0
  184.3130  178.1830  143.0710 C   0  0  0  0  0  1  0  0  0  0  0  0
  1 13  2  0  0  0  0
  1  8  1  0  0  0  0
  2  8  1  0  0  0  0
  2 14  1  0  0  0  0
  3 12  1  0  0  0  0
  3 18  1  0  0  0  0
  4 15  2  0  0  0  0
  4 10  1  0  0  0  0
  5  1  1  0  0  0  0
  6  2  2  0  0  0  0
  7 18  1  0  0  0  0
  7  9  1  0  0  0  0
  8  3  2  0  0  0  0
  9 17  1  0  0  0  0
 11  5  2  0  0  0  0
 11  6  1  0  0  0  0
 12 16  1  0  0  0  0
 13 19  1  0  0  0  0
 16 22  1  0  0  0  0
 16 15  1  0  0  0  0
 17 10  1  0  0  0  0
 17 27  1  1  0  0  0
 18  4  1  0  0  0  0
 19 12  2  0  0  0  0
 20 21  1  0  0  0  0
 21 23  2  0  0  0  0
 22 25  2  0  0  0  0
 24 22  1  0  0  0  0
 24 20  2  0  0  0  0
 25 23  1  0  0  0  0
 26 20  1  0  0  0  0
 27 28  1  0  0  0  0
 28 30  1  0  0  0  0
 30 29  1  1  0  0  0
 31 30  1  0  0  0  0
 32 33  1  0  0  0  0
 33 31  1  0  0  0  0
 34 33  1  0  0  0  0
M  END
>  <MODEL>
9

>  <REMARK>
 VINA RESULT:      -7.3      3.497      7.863
  Name = 
  6 active torsions:
  status: ('A' for Active; 'I' for Inactive)
    1  A    between atoms: C_3  and  C_13
    2  A    between atoms: C_3  and  C_29
    3  A    between atoms: C_12  and  N_28
    4  A    between atoms: C_13  and  C_33
    5  A    between atoms: C_20  and  N_22
    6  A    between atoms: N_22  and  C_33
                            x       y       z     vdW  Elec       q    Type
                         _______ _______ _______ _____ _____    ______ ____

>  <TORSDO>
F 6

$$$$
