=
 OpenBabel11052418253D

 27 31  0  0  1  0  0  0  0  0999 V2000
  191.3480  176.9620  143.2980 C   0  0  0  0  0  2  0  0  0  0  0  0
  188.9610  176.4420  142.8590 C   0  0  0  0  0  0  0  0  0  0  0  0
  189.1450  177.0780  145.2980 N   0  0  0  0  0  2  0  0  0  0  0  0
  184.7470  177.7750  143.1140 S   0  0  0  0  0  0  0  0  0  0  0  0
  183.9680  178.8590  145.5910 C   0  0  0  0  0  1  0  0  0  0  0  0
  188.1250  176.2880  141.7330 C   0  0  0  0  0  3  0  0  0  0  0  0
  186.3260  177.9880  145.0730 C   0  0  0  0  0  0  0  0  0  0  0  0
  192.0420  176.1450  147.4380 C   0  0  0  0  0  3  0  0  0  0  0  0
  186.8470  178.2870  146.3660 N   0  0  0  0  0  1  0  0  0  0  0  0
  193.0820  176.0560  146.5120 C   0  0  0  0  0  0  0  0  0  0  0  0
  187.0780  177.4120  144.0330 C   0  0  0  0  0  0  0  0  0  0  0  0
  190.3430  176.0740  142.7530 N   0  0  0  0  0  0  0  0  0  0  0  0
  185.0060  178.2520  144.7130 C   0  0  0  0  0  0  0  0  0  0  0  0
  186.3210  177.2370  142.8860 C   0  0  0  0  0  0  0  0  0  0  0  0
  191.5480  176.6510  144.7320 C   0  0  0  0  0  0  0  0  0  0  0  0
  188.4260  177.0070  144.0510 C   0  0  0  0  0  0  0  0  0  0  0  0
  190.7550  176.4800  147.0100 C   0  0  0  0  0  3  0  0  0  0  0  0
  186.8230  176.6810  141.7600 N   0  0  0  0  0  0  0  0  0  0  0  0
  194.3310  175.7310  146.9230 F   0  0  0  0  0  0  0  0  0  0  0  0
  192.8350  176.3160  145.1630 C   0  0  0  0  0  3  0  0  0  0  0  0
  190.4890  176.7210  145.6570 C   0  0  0  0  0  0  0  0  0  0  0  0
  192.2330  172.4700  141.7230 C   0  0  0  0  0  3  0  0  0  0  0  0
  190.7940  174.8690  142.0590 C   0  0  1  0  0  3  0  0  0  0  0  0
  192.2930  174.9350  141.7380 C   0  0  0  0  0  2  0  0  0  0  0  0
  192.7780  173.5960  141.2570 C   0  0  0  0  0  3  0  0  0  0  0  0
  191.0910  172.5430  142.6520 C   0  0  0  0  0  3  0  0  0  0  0  0
  190.4580  173.6660  142.8300 N   0  0  0  0  0  0  0  0  0  0  0  0
  1 15  1  0  0  0  0
  2 16  1  0  0  0  0
  3 21  1  0  0  0  0
  4 13  1  0  0  0  0
  6 18  1  0  0  0  0
  6  2  2  0  0  0  0
  7  9  1  0  0  0  0
 10 19  1  0  0  0  0
 10  8  2  0  0  0  0
 11 16  2  0  0  0  0
 11  7  1  0  0  0  0
 12  2  1  0  0  0  0
 12  1  1  0  0  0  0
 13  7  2  0  0  0  0
 13  5  1  0  0  0  0
 14  4  1  0  0  0  0
 14 11  1  0  0  0  0
 15 20  2  0  0  0  0
 15 21  1  0  0  0  0
 16  3  1  0  0  0  0
 17  8  1  0  0  0  0
 18 14  2  0  0  0  0
 20 10  1  0  0  0  0
 21 17  2  0  0  0  0
 22 26  1  0  0  0  0
 23 24  1  1  0  0  0
 23 12  1  0  0  0  0
 23 27  1  0  0  0  0
 25 22  2  0  0  0  0
 25 24  1  0  0  0  0
 26 27  2  0  0  0  0
M  END
>  <MODEL>
1

>  <REMARK>
 VINA RESULT:      -7.7      0.000      0.000
  Name = 
  1 active torsions:
  status: ('A' for Active; 'I' for Inactive)
    1  A    between atoms: C_9  and  N_15
                            x       y       z     vdW  Elec       q    Type
                         _______ _______ _______ _____ _____    ______ ____

>  <TORSDO>
F 1

$$$$
=
 OpenBabel11052418253D

 27 31  0  0  1  0  0  0  0  0999 V2000
  186.8160  176.1610  144.3580 C   0  0  0  0  0  2  0  0  0  0  0  0
  189.1100  176.6600  143.5520 C   0  0  0  0  0  0  0  0  0  0  0  0
  189.1010  177.0460  146.0500 N   0  0  0  0  0  2  0  0  0  0  0  0
  193.4520  175.9030  143.9620 S   0  0  0  0  0  0  0  0  0  0  0  0
  194.4510  175.9760  146.5920 C   0  0  0  0  0  1  0  0  0  0  0  0
  189.8750  176.4190  142.3920 C   0  0  0  0  0  3  0  0  0  0  0  0
  191.9910  176.3640  145.9700 C   0  0  0  0  0  0  0  0  0  0  0  0
  186.2120  178.5130  147.8780 C   0  0  0  0  0  3  0  0  0  0  0  0
  191.5620  176.5670  147.3140 N   0  0  0  0  0  1  0  0  0  0  0  0
  185.1300  178.1340  147.0840 C   0  0  0  0  0  0  0  0  0  0  0  0
  191.1370  176.4070  144.8530 C   0  0  0  0  0  0  0  0  0  0  0  0
  187.6920  176.8360  143.4240 N   0  0  0  0  0  0  0  0  0  0  0  0
  193.3160  176.0890  145.6350 C   0  0  0  0  0  0  0  0  0  0  0  0
  191.8200  176.1680  143.6710 C   0  0  0  0  0  0  0  0  0  0  0  0
  186.6430  177.0050  145.5630 C   0  0  0  0  0  0  0  0  0  0  0  0
  189.7540  176.6700  144.8220 C   0  0  0  0  0  0  0  0  0  0  0  0
  187.5090  178.1440  147.5130 C   0  0  0  0  0  3  0  0  0  0  0  0
  191.2130  176.1810  142.4640 N   0  0  0  0  0  0  0  0  0  0  0  0
  183.8720  178.4910  147.4340 F   0  0  0  0  0  0  0  0  0  0  0  0
  185.3470  177.3750  145.9320 C   0  0  0  0  0  3  0  0  0  0  0  0
  187.7420  177.4020  146.3480 C   0  0  0  0  0  0  0  0  0  0  0  0
  185.1630  178.2480  140.3860 C   0  0  0  0  0  3  0  0  0  0  0  0
  187.0820  177.6180  142.3500 C   0  0  1  0  0  3  0  0  0  0  0  0
  187.0900  176.8480  141.0230 C   0  0  0  0  0  2  0  0  0  0  0  0
  186.2430  177.5610  140.0060 C   0  0  0  0  0  3  0  0  0  0  0  0
  184.8480  178.3770  141.8200 C   0  0  0  0  0  3  0  0  0  0  0  0
  185.7280  178.0460  142.7190 N   0  0  0  0  0  0  0  0  0  0  0  0
  1 15  1  0  0  0  0
  2 16  1  0  0  0  0
  3 21  1  0  0  0  0
  4 13  1  0  0  0  0
  6 18  1  0  0  0  0
  6  2  2  0  0  0  0
  7  9  1  0  0  0  0
 10 19  1  0  0  0  0
 10  8  2  0  0  0  0
 11  7  1  0  0  0  0
 12  2  1  0  0  0  0
 12  1  1  0  0  0  0
 13  7  2  0  0  0  0
 13  5  1  0  0  0  0
 14  4  1  0  0  0  0
 14 11  1  0  0  0  0
 15 20  2  0  0  0  0
 15 21  1  0  0  0  0
 16 11  2  0  0  0  0
 16  3  1  0  0  0  0
 17  8  1  0  0  0  0
 18 14  2  0  0  0  0
 20 10  1  0  0  0  0
 21 17  2  0  0  0  0
 22 26  1  0  0  0  0
 23 24  1  6  0  0  0
 23 27  1  0  0  0  0
 23 12  1  0  0  0  0
 25 22  2  0  0  0  0
 25 24  1  0  0  0  0
 26 27  2  0  0  0  0
M  END
>  <MODEL>
2

>  <REMARK>
 VINA RESULT:      -7.6      3.294      6.341
  Name = 
  1 active torsions:
  status: ('A' for Active; 'I' for Inactive)
    1  A    between atoms: C_9  and  N_15
                            x       y       z     vdW  Elec       q    Type
                         _______ _______ _______ _____ _____    ______ ____

>  <TORSDO>
F 1

$$$$
=
 OpenBabel11052418253D

 27 31  0  0  1  0  0  0  0  0999 V2000
  189.8430  174.0210  145.0310 C   0  0  0  0  0  2  0  0  0  0  0  0
  188.9870  176.2640  145.6630 C   0  0  0  0  0  0  0  0  0  0  0  0
  188.0590  175.7350  143.3720 N   0  0  0  0  0  2  0  0  0  0  0  0
  185.4720  178.9050  146.1750 S   0  0  0  0  0  0  0  0  0  0  0  0
  183.6310  178.8960  144.0460 C   0  0  0  0  0  1  0  0  0  0  0  0
  188.8770  177.0370  146.8380 C   0  0  0  0  0  3  0  0  0  0  0  0
  185.7790  177.4920  144.1040 C   0  0  0  0  0  0  0  0  0  0  0  0
  189.9880  173.9220  140.7580 C   0  0  0  0  0  3  0  0  0  0  0  0
  185.5590  176.8910  142.8300 N   0  0  0  0  0  1  0  0  0  0  0  0
  190.8520  173.1320  141.5170 C   0  0  0  0  0  0  0  0  0  0  0  0
  186.8900  177.2220  144.9240 C   0  0  0  0  0  0  0  0  0  0  0  0
  190.0910  175.3570  145.5300 N   0  0  0  0  0  0  0  0  0  0  0  0
  184.8940  178.4110  144.6660 C   0  0  0  0  0  0  0  0  0  0  0  0
  186.8450  177.9420  146.1060 C   0  0  0  0  0  0  0  0  0  0  0  0
  189.8920  174.0360  143.5510 C   0  0  0  0  0  0  0  0  0  0  0  0
  187.9760  176.3640  144.6660 C   0  0  0  0  0  0  0  0  0  0  0  0
  189.0800  174.7720  141.3950 C   0  0  0  0  0  3  0  0  0  0  0  0
  187.8170  177.8640  147.0440 N   0  0  0  0  0  0  0  0  0  0  0  0
  191.7340  172.3070  140.9030 F   0  0  0  0  0  0  0  0  0  0  0  0
  190.7990  173.1850  142.9110 C   0  0  0  0  0  3  0  0  0  0  0  0
  189.0320  174.8510  142.7920 C   0  0  0  0  0  0  0  0  0  0  0  0
  194.2440  175.9540  145.6500 C   0  0  0  0  0  3  0  0  0  0  0  0
  191.4530  175.6980  145.9360 C   0  0  1  0  0  3  0  0  0  0  0  0
  192.3340  174.4460  146.0460 C   0  0  0  0  0  2  0  0  0  0  0  0
  193.7740  174.8410  146.2180 C   0  0  0  0  0  3  0  0  0  0  0  0
  193.3240  176.8450  144.9200 C   0  0  0  0  0  3  0  0  0  0  0  0
  192.0360  176.6920  145.0280 N   0  0  0  0  0  0  0  0  0  0  0  0
  1 12  1  0  0  0  0
  2  6  1  0  0  0  0
  3 16  1  0  0  0  0
  5 13  1  0  0  0  0
  6 18  2  0  0  0  0
  7 13  2  0  0  0  0
  7 11  1  0  0  0  0
  8 17  2  0  0  0  0
  8 10  1  0  0  0  0
  9  7  1  0  0  0  0
 10 20  2  0  0  0  0
 11 14  2  0  0  0  0
 12  2  1  0  0  0  0
 13  4  1  0  0  0  0
 14  4  1  0  0  0  0
 14 18  1  0  0  0  0
 15  1  1  0  0  0  0
 16 11  1  0  0  0  0
 16  2  2  0  0  0  0
 17 21  1  0  0  0  0
 19 10  1  0  0  0  0
 20 15  1  0  0  0  0
 21  3  1  0  0  0  0
 21 15  2  0  0  0  0
 22 25  2  0  0  0  0
 23 12  1  6  0  0  0
 23 24  1  0  0  0  0
 24 25  1  0  0  0  0
 26 27  2  0  0  0  0
 26 22  1  0  0  0  0
 27 23  1  0  0  0  0
M  END
>  <MODEL>
3

>  <REMARK>
 VINA RESULT:      -7.5      2.251      4.327
  Name = 
  1 active torsions:
  status: ('A' for Active; 'I' for Inactive)
    1  A    between atoms: C_9  and  N_15
                            x       y       z     vdW  Elec       q    Type
                         _______ _______ _______ _____ _____    ______ ____

>  <TORSDO>
F 1

$$$$
=
 OpenBabel11052418253D

 27 31  0  0  1  0  0  0  0  0999 V2000
  190.3140  176.8580  143.4750 C   0  0  0  0  0  2  0  0  0  0  0  0
  190.8110  174.5630  142.6710 C   0  0  0  0  0  0  0  0  0  0  0  0
  188.6480  175.2790  141.5770 N   0  0  0  0  0  2  0  0  0  0  0  0
  191.3480  171.8620  139.2050 S   0  0  0  0  0  0  0  0  0  0  0  0
  189.3670  172.0390  137.2140 C   0  0  0  0  0  1  0  0  0  0  0  0
  191.9200  173.6920  142.6470 C   0  0  0  0  0  3  0  0  0  0  0  0
  189.3890  173.4490  139.3590 C   0  0  0  0  0  0  0  0  0  0  0  0
  186.0660  177.3240  143.3080 C   0  0  0  0  0  3  0  0  0  0  0  0
  188.1910  174.1560  139.0460 N   0  0  0  0  0  1  0  0  0  0  0  0
  186.8250  178.0520  144.2240 C   0  0  0  0  0  0  0  0  0  0  0  0
  190.1470  173.6560  140.5260 C   0  0  0  0  0  0  0  0  0  0  0  0
  190.6760  175.4860  143.7610 N   0  0  0  0  0  0  0  0  0  0  0  0
  189.9340  172.4790  138.5190 C   0  0  0  0  0  0  0  0  0  0  0  0
  191.2630  172.8370  140.5690 C   0  0  0  0  0  0  0  0  0  0  0  0
  188.8380  176.9710  143.4170 C   0  0  0  0  0  0  0  0  0  0  0  0
  189.8850  174.5410  141.5890 C   0  0  0  0  0  0  0  0  0  0  0  0
  186.6920  176.4160  142.4500 C   0  0  0  0  0  3  0  0  0  0  0  0
  192.1310  172.8420  141.6060 N   0  0  0  0  0  0  0  0  0  0  0  0
  186.2210  178.9330  145.0570 F   0  0  0  0  0  0  0  0  0  0  0  0
  188.2090  177.8800  144.2730 C   0  0  0  0  0  3  0  0  0  0  0  0
  188.0760  176.2170  142.5040 C   0  0  0  0  0  0  0  0  0  0  0  0
  190.8160  175.3540  147.9530 C   0  0  0  0  0  3  0  0  0  0  0  0
  190.9520  175.1220  145.1490 C   0  0  1  0  0  3  0  0  0  0  0  0
  191.7950  176.1950  145.8530 C   0  0  0  0  0  2  0  0  0  0  0  0
  191.8510  175.9220  147.3300 C   0  0  0  0  0  3  0  0  0  0  0  0
  189.6450  174.9160  147.1730 C   0  0  0  0  0  3  0  0  0  0  0  0
  189.7070  174.8500  145.8760 N   0  0  0  0  0  0  0  0  0  0  0  0
  1 12  1  0  0  0  0
  2 12  1  0  0  0  0
  3 16  1  0  0  0  0
  3 21  1  0  0  0  0
  4 14  1  0  0  0  0
  5 13  1  0  0  0  0
  6  2  1  0  0  0  0
  7 11  1  0  0  0  0
  8 10  1  0  0  0  0
  9  7  1  0  0  0  0
 10 20  2  0  0  0  0
 10 19  1  0  0  0  0
 11 14  2  0  0  0  0
 11 16  1  0  0  0  0
 13  4  1  0  0  0  0
 13  7  2  0  0  0  0
 14 18  1  0  0  0  0
 15  1  1  0  0  0  0
 15 20  1  0  0  0  0
 16  2  2  0  0  0  0
 17 21  1  0  0  0  0
 17  8  2  0  0  0  0
 18  6  2  0  0  0  0
 21 15  2  0  0  0  0
 23 12  1  6  0  0  0
 23 24  1  0  0  0  0
 23 27  1  0  0  0  0
 24 25  1  0  0  0  0
 25 22  2  0  0  0  0
 26 22  1  0  0  0  0
 27 26  2  0  0  0  0
M  END
>  <MODEL>
4

>  <REMARK>
 VINA RESULT:      -7.2      3.260      6.357
  Name = 
  1 active torsions:
  status: ('A' for Active; 'I' for Inactive)
    1  A    between atoms: C_9  and  N_15
                            x       y       z     vdW  Elec       q    Type
                         _______ _______ _______ _____ _____    ______ ____

>  <TORSDO>
F 1

$$$$
=
 OpenBabel11052418253D

 27 31  0  0  1  0  0  0  0  0999 V2000
  189.3760  177.9160  143.4490 C   0  0  0  0  0  2  0  0  0  0  0  0
  187.4570  177.2740  142.0120 C   0  0  0  0  0  0  0  0  0  0  0  0
  186.5370  177.7120  144.3250 N   0  0  0  0  0  2  0  0  0  0  0  0
  183.4180  178.2910  140.5130 S   0  0  0  0  0  0  0  0  0  0  0  0
  181.5690  179.1050  142.4720 C   0  0  0  0  0  1  0  0  0  0  0  0
  187.1900  177.1590  140.6310 C   0  0  0  0  0  3  0  0  0  0  0  0
  183.9990  178.4430  142.9660 C   0  0  0  0  0  0  0  0  0  0  0  0
  188.3440  176.7990  147.4460 C   0  0  0  0  0  3  0  0  0  0  0  0
  183.8970  178.6660  144.3700 N   0  0  0  0  0  1  0  0  0  0  0  0
  189.6800  176.8600  147.0480 C   0  0  0  0  0  0  0  0  0  0  0  0
  185.1700  178.0100  142.3170 C   0  0  0  0  0  0  0  0  0  0  0  0
  188.7850  177.0110  142.4870 N   0  0  0  0  0  0  0  0  0  0  0  0
  182.9330  178.6470  142.0910 C   0  0  0  0  0  0  0  0  0  0  0  0
  184.9860  177.8830  140.9500 C   0  0  0  0  0  0  0  0  0  0  0  0
  188.9850  177.4980  144.8150 C   0  0  0  0  0  0  0  0  0  0  0  0
  186.4180  177.6980  142.8890 C   0  0  0  0  0  0  0  0  0  0  0  0
  187.3290  177.0810  146.5280 C   0  0  0  0  0  3  0  0  0  0  0  0
  185.9660  177.4590  140.1200 N   0  0  0  0  0  0  0  0  0  0  0  0
  190.6660  176.5870  147.9350 F   0  0  0  0  0  0  0  0  0  0  0  0
  189.9980  177.2170  145.7360 C   0  0  0  0  0  3  0  0  0  0  0  0
  187.6340  177.4170  145.2040 C   0  0  0  0  0  0  0  0  0  0  0  0
  191.1980  173.5910  142.1840 C   0  0  0  0  0  3  0  0  0  0  0  0
  189.6000  175.9030  141.9930 C   0  0  1  0  0  3  0  0  0  0  0  0
  191.0610  176.0380  142.4440 C   0  0  0  0  0  2  0  0  0  0  0  0
  191.8150  174.7740  142.1410 C   0  0  0  0  0  3  0  0  0  0  0  0
  189.7500  173.5320  142.4480 C   0  0  0  0  0  3  0  0  0  0  0  0
  189.0280  174.6130  142.3960 N   0  0  0  0  0  0  0  0  0  0  0  0
  1 15  1  0  0  0  0
  2 12  1  0  0  0  0
  2 16  1  0  0  0  0
  3 21  1  0  0  0  0
  4 14  1  0  0  0  0
  4 13  1  0  0  0  0
  6  2  2  0  0  0  0
  7  9  1  0  0  0  0
 10  8  1  0  0  0  0
 10 19  1  0  0  0  0
 11 16  2  0  0  0  0
 11  7  1  0  0  0  0
 12  1  1  0  0  0  0
 13  5  1  0  0  0  0
 13  7  2  0  0  0  0
 14 11  1  0  0  0  0
 15 21  2  0  0  0  0
 15 20  1  0  0  0  0
 16  3  1  0  0  0  0
 17  8  2  0  0  0  0
 18  6  1  0  0  0  0
 18 14  2  0  0  0  0
 20 10  2  0  0  0  0
 21 17  1  0  0  0  0
 22 26  1  0  0  0  0
 23 27  1  0  0  0  0
 23 24  1  1  0  0  0
 23 12  1  0  0  0  0
 25 22  2  0  0  0  0
 25 24  1  0  0  0  0
 27 26  2  0  0  0  0
M  END
>  <MODEL>
5

>  <REMARK>
 VINA RESULT:      -7.1      2.109      2.728
  Name = 
  1 active torsions:
  status: ('A' for Active; 'I' for Inactive)
    1  A    between atoms: C_9  and  N_15
                            x       y       z     vdW  Elec       q    Type
                         _______ _______ _______ _____ _____    ______ ____

>  <TORSDO>
F 1

$$$$
=
 OpenBabel11052418253D

 27 31  0  0  1  0  0  0  0  0999 V2000
  192.1250  176.3950  142.7770 C   0  0  0  0  0  2  0  0  0  0  0  0
  189.7790  175.8000  143.3300 C   0  0  0  0  0  0  0  0  0  0  0  0
  190.8810  176.5440  145.4790 N   0  0  0  0  0  2  0  0  0  0  0  0
  185.9560  177.0410  145.1830 S   0  0  0  0  0  0  0  0  0  0  0  0
  186.1700  178.2120  147.7330 C   0  0  0  0  0  1  0  0  0  0  0  0
  188.5750  175.5770  142.6290 C   0  0  0  0  0  3  0  0  0  0  0  0
  188.1680  177.3760  146.3550 C   0  0  0  0  0  0  0  0  0  0  0  0
  194.4200  175.7730  146.3320 C   0  0  0  0  0  3  0  0  0  0  0  0
  189.1420  177.7420  147.3290 N   0  0  0  0  0  1  0  0  0  0  0  0
  195.0150  175.6700  145.0750 C   0  0  0  0  0  0  0  0  0  0  0  0
  188.4720  176.7740  145.1200 C   0  0  0  0  0  0  0  0  0  0  0  0
  191.0220  175.4610  142.6990 N   0  0  0  0  0  0  0  0  0  0  0  0
  186.8030  177.5930  146.5360 C   0  0  0  0  0  0  0  0  0  0  0  0
  187.3330  176.5320  144.3700 C   0  0  0  0  0  0  0  0  0  0  0  0
  192.8840  176.1510  144.0250 C   0  0  0  0  0  0  0  0  0  0  0  0
  189.7340  176.4030  144.6190 C   0  0  0  0  0  0  0  0  0  0  0  0
  193.0560  176.0590  146.4360 C   0  0  0  0  0  3  0  0  0  0  0  0
  187.3740  175.9400  143.1550 N   0  0  0  0  0  0  0  0  0  0  0  0
  196.3370  175.3930  144.9700 F   0  0  0  0  0  0  0  0  0  0  0  0
  194.2490  175.8660  143.9240 C   0  0  0  0  0  3  0  0  0  0  0  0
  192.2710  176.2350  145.2900 C   0  0  0  0  0  0  0  0  0  0  0  0
  192.5330  171.9040  141.0620 C   0  0  0  0  0  3  0  0  0  0  0  0
  191.2110  174.2380  141.9200 C   0  0  1  0  0  3  0  0  0  0  0  0
  192.4020  174.3630  140.9600 C   0  0  0  0  0  2  0  0  0  0  0  0
  192.7260  173.0230  140.3610 C   0  0  0  0  0  3  0  0  0  0  0  0
  191.9200  171.9770  142.4000 C   0  0  0  0  0  3  0  0  0  0  0  0
  191.3470  173.0730  142.8020 N   0  0  0  0  0  0  0  0  0  0  0  0
  1 15  1  0  0  0  0
  2 16  1  0  0  0  0
  4 13  1  0  0  0  0
  6 18  1  0  0  0  0
  6  2  2  0  0  0  0
  7 13  2  0  0  0  0
  7  9  1  0  0  0  0
  8 17  1  0  0  0  0
 10  8  2  0  0  0  0
 11  7  1  0  0  0  0
 12  1  1  0  0  0  0
 12  2  1  0  0  0  0
 13  5  1  0  0  0  0
 14 11  1  0  0  0  0
 14  4  1  0  0  0  0
 15 21  1  0  0  0  0
 16 11  2  0  0  0  0
 16  3  1  0  0  0  0
 18 14  2  0  0  0  0
 19 10  1  0  0  0  0
 20 15  2  0  0  0  0
 20 10  1  0  0  0  0
 21  3  1  0  0  0  0
 21 17  2  0  0  0  0
 22 26  1  0  0  0  0
 23 24  1  1  0  0  0
 23 12  1  0  0  0  0
 23 27  1  0  0  0  0
 25 24  1  0  0  0  0
 25 22  2  0  0  0  0
 26 27  2  0  0  0  0
M  END
>  <MODEL>
6

>  <REMARK>
 VINA RESULT:      -7.1      1.638      1.904
  Name = 
  1 active torsions:
  status: ('A' for Active; 'I' for Inactive)
    1  A    between atoms: C_9  and  N_15
                            x       y       z     vdW  Elec       q    Type
                         _______ _______ _______ _____ _____    ______ ____

>  <TORSDO>
F 1

$$$$
=
 OpenBabel11052418253D

 27 31  0  0  1  0  0  0  0  0999 V2000
  188.4240  177.9160  144.0180 C   0  0  0  0  0  2  0  0  0  0  0  0
  189.3240  175.7380  144.8000 C   0  0  0  0  0  0  0  0  0  0  0  0
  189.1690  175.6150  142.2800 N   0  0  0  0  0  2  0  0  0  0  0  0
  192.5200  172.6930  144.4790 S   0  0  0  0  0  0  0  0  0  0  0  0
  193.2200  171.9450  141.8580 C   0  0  0  0  0  1  0  0  0  0  0  0
  189.8940  175.2170  145.9800 C   0  0  0  0  0  3  0  0  0  0  0  0
  191.4180  173.6790  142.4320 C   0  0  0  0  0  0  0  0  0  0  0  0
  186.4030  177.1550  140.3270 C   0  0  0  0  0  3  0  0  0  0  0  0
  191.0880  173.9580  141.0730 N   0  0  0  0  0  1  0  0  0  0  0  0
  186.0190  178.2210  141.1400 C   0  0  0  0  0  0  0  0  0  0  0  0
  190.8070  174.3010  143.5360 C   0  0  0  0  0  0  0  0  0  0  0  0
  188.3370  176.7750  144.9040 N   0  0  0  0  0  0  0  0  0  0  0  0
  192.3980  172.7580  142.7950 C   0  0  0  0  0  0  0  0  0  0  0  0
  191.3250  173.8430  144.7370 C   0  0  0  0  0  0  0  0  0  0  0  0
  187.7210  177.6050  142.7520 C   0  0  0  0  0  0  0  0  0  0  0  0
  189.7780  175.2610  143.5380 C   0  0  0  0  0  0  0  0  0  0  0  0
  187.4410  176.3100  140.7280 C   0  0  0  0  0  3  0  0  0  0  0  0
  190.8790  174.2800  145.9360 N   0  0  0  0  0  0  0  0  0  0  0  0
  185.0120  179.0410  140.7550 F   0  0  0  0  0  0  0  0  0  0  0  0
  186.6830  178.4480  142.3470 C   0  0  0  0  0  3  0  0  0  0  0  0
  188.1000  176.5140  141.9460 C   0  0  0  0  0  0  0  0  0  0  0  0
  185.0190  177.7320  147.2910 C   0  0  0  0  0  3  0  0  0  0  0  0
  187.2780  176.7660  145.9120 C   0  0  1  0  0  3  0  0  0  0  0  0
  187.4490  177.9160  146.9140 C   0  0  0  0  0  2  0  0  0  0  0  0
  186.2250  178.0340  147.7780 C   0  0  0  0  0  3  0  0  0  0  0  0
  184.8990  177.1970  145.9230 C   0  0  0  0  0  3  0  0  0  0  0  0
  185.9540  176.7910  145.2800 N   0  0  0  0  0  0  0  0  0  0  0  0
  1 12  1  0  0  0  0
  2 12  1  0  0  0  0
  2  6  1  0  0  0  0
  3 16  1  0  0  0  0
  4 14  1  0  0  0  0
  5 13  1  0  0  0  0
  7 13  2  0  0  0  0
  7 11  1  0  0  0  0
  8 17  2  0  0  0  0
  8 10  1  0  0  0  0
  9  7  1  0  0  0  0
 10 20  2  0  0  0  0
 11 16  1  0  0  0  0
 11 14  2  0  0  0  0
 13  4  1  0  0  0  0
 14 18  1  0  0  0  0
 15  1  1  0  0  0  0
 16  2  2  0  0  0  0
 17 21  1  0  0  0  0
 18  6  2  0  0  0  0
 19 10  1  0  0  0  0
 20 15  1  0  0  0  0
 21  3  1  0  0  0  0
 21 15  2  0  0  0  0
 22 25  2  0  0  0  0
 23 12  1  6  0  0  0
 23 24  1  0  0  0  0
 24 25  1  0  0  0  0
 26 22  1  0  0  0  0
 27 23  1  0  0  0  0
 27 26  2  0  0  0  0
M  END
>  <MODEL>
7

>  <REMARK>
 VINA RESULT:      -7.0      3.402      7.356
  Name = 
  1 active torsions:
  status: ('A' for Active; 'I' for Inactive)
    1  A    between atoms: C_9  and  N_15
                            x       y       z     vdW  Elec       q    Type
                         _______ _______ _______ _____ _____    ______ ____

>  <TORSDO>
F 1

$$$$
=
 OpenBabel11052418253D

 27 31  0  0  1  0  0  0  0  0999 V2000
  188.3610  178.5820  143.5510 C   0  0  0  0  0  2  0  0  0  0  0  0
  189.4330  177.1190  145.2470 C   0  0  0  0  0  0  0  0  0  0  0  0
  189.7210  175.9900  143.0040 N   0  0  0  0  0  2  0  0  0  0  0  0
  193.0570  174.9160  146.5130 S   0  0  0  0  0  0  0  0  0  0  0  0
  194.2870  173.3610  144.5160 C   0  0  0  0  0  1  0  0  0  0  0  0
  189.8700  177.2310  146.5830 C   0  0  0  0  0  3  0  0  0  0  0  0
  192.1760  174.7730  144.1500 C   0  0  0  0  0  0  0  0  0  0  0  0
  187.1200  176.0410  140.3440 C   0  0  0  0  0  3  0  0  0  0  0  0
  192.0390  174.4230  142.7750 N   0  0  0  0  0  1  0  0  0  0  0  0
  186.4510  177.2370  140.6020 C   0  0  0  0  0  0  0  0  0  0  0  0
  191.3040  175.6380  144.8360 C   0  0  0  0  0  0  0  0  0  0  0  0
  188.2990  177.8880  144.8200 N   0  0  0  0  0  0  0  0  0  0  0  0
  193.2090  174.2890  144.9510 C   0  0  0  0  0  0  0  0  0  0  0  0
  191.6770  175.8040  146.1600 C   0  0  0  0  0  0  0  0  0  0  0  0
  187.9340  177.6640  142.4710 C   0  0  0  0  0  0  0  0  0  0  0  0
  190.1570  176.2900  144.3440 C   0  0  0  0  0  0  0  0  0  0  0  0
  188.1910  175.6530  141.1520 C   0  0  0  0  0  3  0  0  0  0  0  0
  190.9770  176.5740  147.0220 N   0  0  0  0  0  0  0  0  0  0  0  0
  185.4110  177.6160  139.8200 F   0  0  0  0  0  0  0  0  0  0  0  0
  186.8630  178.0500  141.6600 C   0  0  0  0  0  3  0  0  0  0  0  0
  188.6000  176.4470  142.2300 C   0  0  0  0  0  0  0  0  0  0  0  0
  184.3580  177.9040  146.2630 C   0  0  0  0  0  3  0  0  0  0  0  0
  187.1000  178.0580  145.6400 C   0  0  1  0  0  3  0  0  0  0  0  0
  186.1320  179.0710  145.0130 C   0  0  0  0  0  2  0  0  0  0  0  0
  184.8140  179.0410  145.7340 C   0  0  0  0  0  3  0  0  0  0  0  0
  185.1910  176.6900  146.2140 C   0  0  0  0  0  3  0  0  0  0  0  0
  186.4480  176.7670  145.8850 N   0  0  0  0  0  0  0  0  0  0  0  0
  1 12  1  0  0  0  0
  2  6  1  0  0  0  0
  3 16  1  0  0  0  0
  5 13  1  0  0  0  0
  6 18  2  0  0  0  0
  7 11  1  0  0  0  0
  7 13  2  0  0  0  0
  8 10  2  0  0  0  0
  8 17  1  0  0  0  0
  9  7  1  0  0  0  0
 10 20  1  0  0  0  0
 11 14  2  0  0  0  0
 12  2  1  0  0  0  0
 13  4  1  0  0  0  0
 14  4  1  0  0  0  0
 14 18  1  0  0  0  0
 15  1  1  0  0  0  0
 16 11  1  0  0  0  0
 16  2  2  0  0  0  0
 17 21  2  0  0  0  0
 19 10  1  0  0  0  0
 20 15  2  0  0  0  0
 21 15  1  0  0  0  0
 21  3  1  0  0  0  0
 23 12  1  6  0  0  0
 23 27  1  0  0  0  0
 24 23  1  0  0  0  0
 24 25  1  0  0  0  0
 25 22  2  0  0  0  0
 26 22  1  0  0  0  0
 27 26  2  0  0  0  0
M  END
>  <MODEL>
8

>  <REMARK>
 VINA RESULT:      -7.0      3.380      7.274
  Name = 
  1 active torsions:
  status: ('A' for Active; 'I' for Inactive)
    1  A    between atoms: C_9  and  N_15
                            x       y       z     vdW  Elec       q    Type
                         _______ _______ _______ _____ _____    ______ ____

>  <TORSDO>
F 1

$$$$
=
 OpenBabel11052418253D

 27 31  0  0  1  0  0  0  0  0999 V2000
  191.1620  175.5630  143.3040 C   0  0  0  0  0  2  0  0  0  0  0  0
  192.8860  175.1220  145.0350 C   0  0  0  0  0  0  0  0  0  0  0  0
  192.6810  173.0230  143.6420 N   0  0  0  0  0  2  0  0  0  0  0  0
  197.0100  173.7910  145.9350 S   0  0  0  0  0  0  0  0  0  0  0  0
  197.8310  171.4320  144.6380 C   0  0  0  0  0  1  0  0  0  0  0  0
  193.6690  175.8780  145.9330 C   0  0  0  0  0  3  0  0  0  0  0  0
  195.5160  172.5040  144.3570 C   0  0  0  0  0  0  0  0  0  0  0  0
  189.4450  171.7800  142.2890 C   0  0  0  0  0  3  0  0  0  0  0  0
  195.0420  171.5190  143.4420 N   0  0  0  0  0  1  0  0  0  0  0  0
  188.7070  172.9560  142.1510 C   0  0  0  0  0  0  0  0  0  0  0  0
  194.7600  173.6070  144.7920 C   0  0  0  0  0  0  0  0  0  0  0  0
  191.5750  175.5930  144.6910 N   0  0  0  0  0  0  0  0  0  0  0  0
  196.7970  172.4690  144.9050 C   0  0  0  0  0  0  0  0  0  0  0  0
  195.4700  174.4050  145.6740 C   0  0  0  0  0  0  0  0  0  0  0  0
  190.5850  174.2350  142.9950 C   0  0  0  0  0  0  0  0  0  0  0  0
  193.4350  173.9440  144.4540 C   0  0  0  0  0  0  0  0  0  0  0  0
  190.7500  171.8310  142.7850 C   0  0  0  0  0  3  0  0  0  0  0  0
  194.9410  175.5110  146.2430 N   0  0  0  0  0  0  0  0  0  0  0  0
  187.4410  172.9100  141.6710 F   0  0  0  0  0  0  0  0  0  0  0  0
  189.2790  174.1810  142.4970 C   0  0  0  0  0  3  0  0  0  0  0  0
  191.3290  173.0510  143.1580 C   0  0  0  0  0  0  0  0  0  0  0  0
  188.1610  176.6610  146.8860 C   0  0  0  0  0  3  0  0  0  0  0  0
  190.6530  176.1640  145.6710 C   0  0  1  0  0  3  0  0  0  0  0  0
  189.6880  177.1620  145.0170 C   0  0  0  0  0  2  0  0  0  0  0  0
  188.6020  177.5410  145.9840 C   0  0  0  0  0  3  0  0  0  0  0  0
  188.8010  175.3380  146.9880 C   0  0  0  0  0  3  0  0  0  0  0  0
  189.9330  175.1070  146.3900 N   0  0  0  0  0  0  0  0  0  0  0  0
  1 12  1  0  0  0  0
  2  6  1  0  0  0  0
  3 16  1  0  0  0  0
  5 13  1  0  0  0  0
  6 18  2  0  0  0  0
  7 11  1  0  0  0  0
  7 13  2  0  0  0  0
  8 17  1  0  0  0  0
  9  7  1  0  0  0  0
 10  8  2  0  0  0  0
 10 20  1  0  0  0  0
 11 14  2  0  0  0  0
 12  2  1  0  0  0  0
 13  4  1  0  0  0  0
 14  4  1  0  0  0  0
 14 18  1  0  0  0  0
 15 21  1  0  0  0  0
 15  1  1  0  0  0  0
 16 11  1  0  0  0  0
 16  2  2  0  0  0  0
 17 21  2  0  0  0  0
 19 10  1  0  0  0  0
 20 15  2  0  0  0  0
 21  3  1  0  0  0  0
 22 26  1  0  0  0  0
 23 12  1  6  0  0  0
 23 27  1  0  0  0  0
 24 23  1  0  0  0  0
 24 25  1  0  0  0  0
 25 22  2  0  0  0  0
 27 26  2  0  0  0  0
M  END
>  <MODEL>
9

>  <REMARK>
 VINA RESULT:      -6.8      4.240      7.968
  Name = 
  1 active torsions:
  status: ('A' for Active; 'I' for Inactive)
    1  A    between atoms: C_9  and  N_15
                            x       y       z     vdW  Elec       q    Type
                         _______ _______ _______ _____ _____    ______ ____

>  <TORSDO>
F 1

$$$$
