=
 OpenBabel11052417343D

 25 27  0  0  1  0  0  0  0  0999 V2000
  186.4190  176.7800  142.6930 N   0  0  0  0  0  0  0  0  0  0  0  0
  186.6240  176.7120  144.0160 C   0  0  0  0  0  0  0  0  0  0  0  0
  185.2540  177.4630  142.5670 C   0  0  0  0  0  3  0  0  0  0  0  0
  188.8060  175.9130  146.8130 C   0  0  0  0  0  0  0  0  0  0  0  0
  184.7200  177.8100  143.7690 N   0  0  0  0  0  0  0  0  0  0  0  0
  185.6010  177.4850  146.1260 C   0  0  0  0  0  0  0  0  0  0  0  0
  184.4680  178.1480  146.8270 C   0  0  0  0  0  1  0  0  0  0  0  0
  189.8230  175.4460  147.4860 C   0  0  0  0  0  3  0  0  0  0  0  0
  187.7840  176.2370  144.6980 N   0  0  0  0  0  2  0  0  0  0  0  0
  187.2720  176.3480  141.6210 C   0  0  0  0  0  0  0  0  0  0  0  0
  187.2840  177.0060  140.5450 O   0  0  0  0  0  0  0  0  0  0  0  0
  186.6510  177.0220  146.8250 C   0  0  0  0  0  3  0  0  0  0  0  0
  187.7960  176.3690  146.1300 C   0  0  0  0  0  0  0  0  0  0  0  0
  185.6020  177.3270  144.6630 C   0  0  0  0  0  0  0  0  0  0  0  0
  188.1160  175.1390  141.7340 C   0  0  0  0  0  0  0  0  0  0  0  0
  189.7050  172.8740  141.8860 N   0  0  0  0  0  0  0  0  0  0  0  0
  189.4860  175.2140  141.4600 C   0  0  0  0  0  3  0  0  0  0  0  0
  190.2720  174.0620  141.5460 C   0  0  0  0  0  3  0  0  0  0  0  0
  188.3730  172.7710  142.1440 C   0  0  0  0  0  3  0  0  0  0  0  0
  187.5560  173.8990  142.0670 C   0  0  0  0  0  3  0  0  0  0  0  0
  191.0560  174.9790  146.7820 C   0  0  2  0  0  3  0  0  0  0  0  0
  192.1370  176.0480  146.8050 C   0  0  0  0  0  1  0  0  0  0  0  0
  190.7380  174.5920  145.3760 C   0  0  0  0  0  0  0  0  0  0  0  0
  190.0100  173.4360  145.1320 O   0  0  0  0  0  1  0  0  0  0  0  0
  191.1220  175.3040  144.4100 O   0  0  0  0  0  0  0  0  0  0  0  0
  1  2  1  0  0  0  0
  2 14  2  0  0  0  0
  2  9  1  0  0  0  0
  3  1  1  0  0  0  0
  3  5  2  0  0  0  0
  4  8  2  0  0  0  0
  5 14  1  0  0  0  0
  6 12  2  0  0  0  0
  6  7  1  0  0  0  0
  9 13  1  0  0  0  0
 10 15  1  0  0  0  0
 10  1  1  0  0  0  0
 11 10  2  0  0  0  0
 13  4  2  0  0  0  0
 13 12  1  0  0  0  0
 14  6  1  0  0  0  0
 15 20  1  0  0  0  0
 16 19  1  0  0  0  0
 17 18  1  0  0  0  0
 17 15  2  0  0  0  0
 18 16  2  0  0  0  0
 20 19  2  0  0  0  0
 21 22  1  6  0  0  0
 21  8  1  0  0  0  0
 23 21  1  0  0  0  0
 24 23  1  0  0  0  0
 25 23  2  0  0  0  0
M  END
>  <MODEL>
1

>  <REMARK>
 VINA RESULT:      -7.3      0.000      0.000
  Name = 
  3 active torsions:
  status: ('A' for Active; 'I' for Inactive)
    1  A    between atoms: C_2  and  C_21
    2  A    between atoms: C_5  and  C_18
    3  A    between atoms: C_15  and  C_21
                            x       y       z     vdW  Elec       q    Type
                         _______ _______ _______ _____ _____    ______ ____

>  <TORSDO>
F 3

$$$$
=
 OpenBabel11052417343D

 25 27  0  0  1  0  0  0  0  0999 V2000
  189.5280  175.4680  142.9170 N   0  0  0  0  0  0  0  0  0  0  0  0
  189.5250  176.0620  144.1190 C   0  0  0  0  0  0  0  0  0  0  0  0
  190.7960  175.0080  142.7720 C   0  0  0  0  0  3  0  0  0  0  0  0
  187.6790  177.5980  146.8500 C   0  0  0  0  0  0  0  0  0  0  0  0
  191.5860  175.3100  143.8390 N   0  0  0  0  0  0  0  0  0  0  0  0
  191.0340  176.4610  146.0310 C   0  0  0  0  0  0  0  0  0  0  0  0
  192.3960  176.3710  146.6220 C   0  0  0  0  0  1  0  0  0  0  0  0
  186.6940  178.1250  147.5260 C   0  0  0  0  0  3  0  0  0  0  0  0
  188.4030  176.5760  144.8360 N   0  0  0  0  0  2  0  0  0  0  0  0
  188.4340  175.2420  142.0140 C   0  0  0  0  0  0  0  0  0  0  0  0
  188.4250  174.1930  141.3130 O   0  0  0  0  0  0  0  0  0  0  0  0
  190.0220  176.9920  146.7400 C   0  0  0  0  0  3  0  0  0  0  0  0
  188.6520  177.0740  146.1620 C   0  0  0  0  0  0  0  0  0  0  0  0
  190.7600  175.9720  144.6710 C   0  0  0  0  0  0  0  0  0  0  0  0
  187.3320  176.2150  141.8650 C   0  0  0  0  0  0  0  0  0  0  0  0
  185.2280  177.9960  141.5770 N   0  0  0  0  0  0  0  0  0  0  0  0
  186.3290  176.2920  142.8380 C   0  0  0  0  0  3  0  0  0  0  0  0
  185.2780  177.1990  142.6770 C   0  0  0  0  0  3  0  0  0  0  0  0
  186.1820  177.9320  140.6100 C   0  0  0  0  0  3  0  0  0  0  0  0
  187.2470  177.0380  140.7350 C   0  0  0  0  0  3  0  0  0  0  0  0
  185.2870  178.0250  147.0330 C   0  0  2  0  0  3  0  0  0  0  0  0
  184.9730  176.6140  146.5600 C   0  0  0  0  0  1  0  0  0  0  0  0
  185.0490  179.0060  145.9330 C   0  0  0  0  0  0  0  0  0  0  0  0
  183.7950  179.0830  145.3440 O   0  0  0  0  0  0  0  0  0  0  0  0
  185.9730  179.7650  145.5370 O   0  0  0  0  0  1  0  0  0  0  0  0
  1  2  1  0  0  0  0
  2 14  2  0  0  0  0
  2  9  1  0  0  0  0
  3  1  1  0  0  0  0
  3  5  2  0  0  0  0
  4  8  2  0  0  0  0
  5 14  1  0  0  0  0
  6  7  1  0  0  0  0
  6 12  2  0  0  0  0
  9 13  1  0  0  0  0
 10  1  1  0  0  0  0
 11 10  2  0  0  0  0
 13 12  1  0  0  0  0
 13  4  2  0  0  0  0
 14  6  1  0  0  0  0
 15 10  1  0  0  0  0
 15 17  1  0  0  0  0
 16 18  1  0  0  0  0
 18 17  2  0  0  0  0
 19 20  1  0  0  0  0
 19 16  2  0  0  0  0
 20 15  2  0  0  0  0
 21 22  1  6  0  0  0
 21  8  1  0  0  0  0
 23 21  1  0  0  0  0
 24 23  2  0  0  0  0
 25 23  1  0  0  0  0
M  END
>  <MODEL>
2

>  <REMARK>
 VINA RESULT:      -7.2      2.364      5.253
  Name = 
  3 active torsions:
  status: ('A' for Active; 'I' for Inactive)
    1  A    between atoms: C_2  and  C_21
    2  A    between atoms: C_5  and  C_18
    3  A    between atoms: C_15  and  C_21
                            x       y       z     vdW  Elec       q    Type
                         _______ _______ _______ _____ _____    ______ ____

>  <TORSDO>
F 3

$$$$
=
 OpenBabel11052417343D

 25 27  0  0  1  0  0  0  0  0999 V2000
  186.6620  178.0360  145.3250 N   0  0  0  0  0  0  0  0  0  0  0  0
  186.7860  177.4910  144.1060 C   0  0  0  0  0  0  0  0  0  0  0  0
  185.8740  179.1210  145.1300 C   0  0  0  0  0  3  0  0  0  0  0  0
  187.8600  174.7250  142.0030 C   0  0  0  0  0  0  0  0  0  0  0  0
  185.5150  179.2800  143.8260 N   0  0  0  0  0  0  0  0  0  0  0  0
  185.9870  177.8350  141.7960 C   0  0  0  0  0  0  0  0  0  0  0  0
  185.2470  178.6700  140.8120 C   0  0  0  0  0  1  0  0  0  0  0  0
  188.4350  173.6140  141.6310 C   0  0  0  0  0  3  0  0  0  0  0  0
  187.3840  176.2410  143.7640 N   0  0  0  0  0  2  0  0  0  0  0  0
  187.1370  177.5450  146.5890 C   0  0  0  0  0  0  0  0  0  0  0  0
  186.4510  177.7600  147.6250 O   0  0  0  0  0  0  0  0  0  0  0  0
  186.5630  176.6830  141.4070 C   0  0  0  0  0  3  0  0  0  0  0  0
  187.2950  175.8330  142.3870 C   0  0  0  0  0  0  0  0  0  0  0  0
  186.1020  178.2400  143.2050 C   0  0  0  0  0  0  0  0  0  0  0  0
  188.4190  176.8200  146.7120 C   0  0  0  0  0  0  0  0  0  0  0  0
  190.8160  175.4590  147.0030 N   0  0  0  0  0  0  0  0  0  0  0  0
  188.4310  175.4860  147.1340 C   0  0  0  0  0  3  0  0  0  0  0  0
  189.6490  174.8150  147.2710 C   0  0  0  0  0  3  0  0  0  0  0  0
  190.8330  176.7600  146.6050 C   0  0  0  0  0  3  0  0  0  0  0  0
  189.6370  177.4630  146.4580 C   0  0  0  0  0  3  0  0  0  0  0  0
  188.9910  172.6640  142.6430 C   0  0  2  0  0  3  0  0  0  0  0  0
  189.6950  173.4100  143.7650 C   0  0  0  0  0  1  0  0  0  0  0  0
  189.9280  171.7000  141.9930 C   0  0  0  0  0  0  0  0  0  0  0  0
  190.1130  171.7460  140.6180 O   0  0  0  0  0  0  0  0  0  0  0  0
  190.5530  170.8480  142.6790 O   0  0  0  0  0  1  0  0  0  0  0  0
  1 10  1  0  0  0  0
  2  1  1  0  0  0  0
  3  1  1  0  0  0  0
  4 13  2  0  0  0  0
  5  3  2  0  0  0  0
  6 14  1  0  0  0  0
  7  6  1  0  0  0  0
  8  4  2  0  0  0  0
  8 21  1  0  0  0  0
  9  2  1  0  0  0  0
 10 15  1  0  0  0  0
 10 11  2  0  0  0  0
 12  6  2  0  0  0  0
 12 13  1  0  0  0  0
 13  9  1  0  0  0  0
 14  5  1  0  0  0  0
 14  2  2  0  0  0  0
 15 17  1  0  0  0  0
 16 18  1  0  0  0  0
 17 18  2  0  0  0  0
 19 16  2  0  0  0  0
 20 19  1  0  0  0  0
 20 15  2  0  0  0  0
 21 22  1  1  0  0  0
 23 21  1  0  0  0  0
 23 25  1  0  0  0  0
 24 23  2  0  0  0  0
M  END
>  <MODEL>
3

>  <REMARK>
 VINA RESULT:      -7.2      2.291      4.864
  Name = 
  3 active torsions:
  status: ('A' for Active; 'I' for Inactive)
    1  A    between atoms: C_2  and  C_21
    2  A    between atoms: C_5  and  C_18
    3  A    between atoms: C_15  and  C_21
                            x       y       z     vdW  Elec       q    Type
                         _______ _______ _______ _____ _____    ______ ____

>  <TORSDO>
F 3

$$$$
=
 OpenBabel11052417343D

 25 27  0  0  1  0  0  0  0  0999 V2000
  187.0850  176.2800  143.0850 N   0  0  0  0  0  0  0  0  0  0  0  0
  187.6260  176.4710  144.2970 C   0  0  0  0  0  0  0  0  0  0  0  0
  185.8430  176.8140  143.1830 C   0  0  0  0  0  3  0  0  0  0  0  0
  190.5350  176.4000  146.4790 C   0  0  0  0  0  0  0  0  0  0  0  0
  185.5860  177.3180  144.4210 N   0  0  0  0  0  0  0  0  0  0  0  0
  187.0720  177.5060  146.4680 C   0  0  0  0  0  0  0  0  0  0  0  0
  186.0720  178.1710  147.3470 C   0  0  0  0  0  1  0  0  0  0  0  0
  191.7440  176.1620  146.9080 C   0  0  0  0  0  3  0  0  0  0  0  0
  188.9760  176.2400  144.6990 N   0  0  0  0  0  2  0  0  0  0  0  0
  187.6910  175.7470  141.8970 C   0  0  0  0  0  0  0  0  0  0  0  0
  187.3380  176.2010  140.7740 O   0  0  0  0  0  0  0  0  0  0  0  0
  188.3200  177.2800  146.9140 C   0  0  0  0  0  3  0  0  0  0  0  0
  189.3310  176.6270  146.0370 C   0  0  0  0  0  0  0  0  0  0  0  0
  186.7250  177.0890  145.1010 C   0  0  0  0  0  0  0  0  0  0  0  0
  188.6980  174.6660  141.9510 C   0  0  0  0  0  0  0  0  0  0  0  0
  190.5740  172.6320  142.1120 N   0  0  0  0  0  0  0  0  0  0  0  0
  188.2940  173.3440  142.1690 C   0  0  0  0  0  3  0  0  0  0  0  0
  189.2540  172.3320  142.2430 C   0  0  0  0  0  3  0  0  0  0  0  0
  190.9940  173.9100  141.9130 C   0  0  0  0  0  3  0  0  0  0  0  0
  190.0650  174.9490  141.8350 C   0  0  0  0  0  3  0  0  0  0  0  0
  192.8120  175.6980  145.9720 C   0  0  2  0  0  3  0  0  0  0  0  0
  192.8040  174.1830  145.8410 C   0  0  0  0  0  1  0  0  0  0  0  0
  194.1510  176.1720  146.4320 C   0  0  0  0  0  0  0  0  0  0  0  0
  195.2600  175.3520  146.2740 O   0  0  0  0  0  0  0  0  0  0  0  0
  194.2850  177.3080  146.9610 O   0  0  0  0  0  1  0  0  0  0  0  0
  1  3  1  0  0  0  0
  1  2  1  0  0  0  0
  2  9  1  0  0  0  0
  2 14  2  0  0  0  0
  3  5  2  0  0  0  0
  4  8  2  0  0  0  0
  5 14  1  0  0  0  0
  6 12  2  0  0  0  0
  6  7  1  0  0  0  0
  9 13  1  0  0  0  0
 10 15  1  0  0  0  0
 10  1  1  0  0  0  0
 11 10  2  0  0  0  0
 13  4  2  0  0  0  0
 13 12  1  0  0  0  0
 14  6  1  0  0  0  0
 15 17  1  0  0  0  0
 16 18  1  0  0  0  0
 17 18  2  0  0  0  0
 19 16  2  0  0  0  0
 20 19  1  0  0  0  0
 20 15  2  0  0  0  0
 21 22  1  1  0  0  0
 21 23  1  0  0  0  0
 21  8  1  0  0  0  0
 23 25  1  0  0  0  0
 24 23  2  0  0  0  0
M  END
>  <MODEL>
4

>  <REMARK>
 VINA RESULT:      -7.1      1.827      2.294
  Name = 
  3 active torsions:
  status: ('A' for Active; 'I' for Inactive)
    1  A    between atoms: C_2  and  C_21
    2  A    between atoms: C_5  and  C_18
    3  A    between atoms: C_15  and  C_21
                            x       y       z     vdW  Elec       q    Type
                         _______ _______ _______ _____ _____    ______ ____

>  <TORSDO>
F 3

$$$$
=
 OpenBabel11052417343D

 25 27  0  0  1  0  0  0  0  0999 V2000
  186.1590  177.3540  145.4450 N   0  0  0  0  0  0  0  0  0  0  0  0
  186.5130  177.0980  144.1770 C   0  0  0  0  0  0  0  0  0  0  0  0
  185.0720  178.1560  145.3360 C   0  0  0  0  0  3  0  0  0  0  0  0
  188.5280  175.2200  141.8040 C   0  0  0  0  0  0  0  0  0  0  0  0
  184.7450  178.4200  144.0410 N   0  0  0  0  0  0  0  0  0  0  0  0
  185.7600  177.5750  141.8760 C   0  0  0  0  0  0  0  0  0  0  0  0
  184.8370  178.2960  140.9590 C   0  0  0  0  0  1  0  0  0  0  0  0
  189.4510  174.4270  141.3300 C   0  0  0  0  0  3  0  0  0  0  0  0
  187.5000  176.1780  143.7140 N   0  0  0  0  0  2  0  0  0  0  0  0
  186.7060  176.8220  146.6630 C   0  0  0  0  0  0  0  0  0  0  0  0
  185.9370  176.6270  147.6440 O   0  0  0  0  0  0  0  0  0  0  0  0
  186.6970  176.7480  141.3800 C   0  0  0  0  0  3  0  0  0  0  0  0
  187.6160  176.0110  142.2910 C   0  0  0  0  0  0  0  0  0  0  0  0
  185.6680  177.7410  143.3340 C   0  0  0  0  0  0  0  0  0  0  0  0
  188.1460  176.5230  146.8070 C   0  0  0  0  0  0  0  0  0  0  0  0
  190.8390  175.9540  147.1350 N   0  0  0  0  0  0  0  0  0  0  0  0
  188.5650  175.2220  147.1050 C   0  0  0  0  0  3  0  0  0  0  0  0
  189.9270  174.9530  147.2620 C   0  0  0  0  0  3  0  0  0  0  0  0
  190.4580  177.2300  146.8590 C   0  0  0  0  0  3  0  0  0  0  0  0
  189.1060  177.5380  146.6960 C   0  0  0  0  0  3  0  0  0  0  0  0
  190.2350  173.5360  142.2390 C   0  0  2  0  0  3  0  0  0  0  0  0
  189.3230  172.8160  143.2190 C   0  0  0  0  0  1  0  0  0  0  0  0
  191.2700  174.3220  142.9730 C   0  0  0  0  0  0  0  0  0  0  0  0
  192.0370  175.2530  142.2870 O   0  0  0  0  0  0  0  0  0  0  0  0
  191.4520  174.1500  144.2080 O   0  0  0  0  0  1  0  0  0  0  0  0
  1 10  1  0  0  0  0
  2  1  1  0  0  0  0
  3  1  1  0  0  0  0
  4 13  2  0  0  0  0
  5  3  2  0  0  0  0
  6 14  1  0  0  0  0
  7  6  1  0  0  0  0
  8  4  2  0  0  0  0
  8 21  1  0  0  0  0
  9  2  1  0  0  0  0
 10 15  1  0  0  0  0
 10 11  2  0  0  0  0
 12  6  2  0  0  0  0
 12 13  1  0  0  0  0
 13  9  1  0  0  0  0
 14  5  1  0  0  0  0
 14  2  2  0  0  0  0
 15 17  1  0  0  0  0
 16 18  1  0  0  0  0
 17 18  2  0  0  0  0
 19 16  2  0  0  0  0
 20 15  2  0  0  0  0
 20 19  1  0  0  0  0
 21 23  1  0  0  0  0
 21 22  1  1  0  0  0
 23 25  1  0  0  0  0
 24 23  2  0  0  0  0
M  END
>  <MODEL>
5

>  <REMARK>
 VINA RESULT:      -7.0      1.834      4.706
  Name = 
  3 active torsions:
  status: ('A' for Active; 'I' for Inactive)
    1  A    between atoms: C_2  and  C_21
    2  A    between atoms: C_5  and  C_18
    3  A    between atoms: C_15  and  C_21
                            x       y       z     vdW  Elec       q    Type
                         _______ _______ _______ _____ _____    ______ ____

>  <TORSDO>
F 3

$$$$
=
 OpenBabel11052417343D

 25 27  0  0  1  0  0  0  0  0999 V2000
  188.1930  176.1690  146.2670 N   0  0  0  0  0  0  0  0  0  0  0  0
  187.8570  176.5410  145.0240 C   0  0  0  0  0  0  0  0  0  0  0  0
  187.5630  177.0640  147.0680 C   0  0  0  0  0  3  0  0  0  0  0  0
  187.7990  175.8520  141.4540 C   0  0  0  0  0  0  0  0  0  0  0  0
  186.8570  177.9900  146.3640 N   0  0  0  0  0  0  0  0  0  0  0  0
  186.4620  178.2180  143.8690 C   0  0  0  0  0  0  0  0  0  0  0  0
  185.5990  179.4280  143.9400 C   0  0  0  0  0  1  0  0  0  0  0  0
  188.0530  175.2840  140.3060 C   0  0  0  0  0  3  0  0  0  0  0  0
  188.1190  175.8500  143.8030 N   0  0  0  0  0  2  0  0  0  0  0  0
  188.9440  175.0230  146.6980 C   0  0  0  0  0  0  0  0  0  0  0  0
  188.6460  174.4720  147.7930 O   0  0  0  0  0  0  0  0  0  0  0  0
  186.7060  177.6310  142.6840 C   0  0  0  0  0  3  0  0  0  0  0  0
  187.5570  176.4110  142.6050 C   0  0  0  0  0  0  0  0  0  0  0  0
  187.0580  177.6370  145.0810 C   0  0  0  0  0  0  0  0  0  0  0  0
  190.0740  174.4890  145.9080 C   0  0  0  0  0  0  0  0  0  0  0  0
  192.1830  173.5310  144.3870 N   0  0  0  0  0  0  0  0  0  0  0  0
  191.2690  175.2110  145.8190 C   0  0  0  0  0  3  0  0  0  0  0  0
  192.3230  174.7090  145.0510 C   0  0  0  0  0  3  0  0  0  0  0  0
  191.0270  172.8170  144.4460 C   0  0  0  0  0  3  0  0  0  0  0  0
  189.9520  173.2850  145.2020 C   0  0  0  0  0  3  0  0  0  0  0  0
  188.7320  173.9540  140.2450 C   0  0  2  0  0  3  0  0  0  0  0  0
  189.9980  173.9460  141.0880 C   0  0  0  0  0  1  0  0  0  0  0  0
  189.0490  173.5960  138.8300 C   0  0  0  0  0  0  0  0  0  0  0  0
  190.3440  173.7530  138.3570 O   0  0  0  0  0  1  0  0  0  0  0  0
  188.1530  173.1510  138.0630 O   0  0  0  0  0  0  0  0  0  0  0  0
  1 10  1  0  0  0  0
  1  3  1  0  0  0  0
  2 14  2  0  0  0  0
  2  1  1  0  0  0  0
  4 13  2  0  0  0  0
  5  3  2  0  0  0  0
  6  7  1  0  0  0  0
  6 14  1  0  0  0  0
  8  4  2  0  0  0  0
  9  2  1  0  0  0  0
 10 11  2  0  0  0  0
 12  6  2  0  0  0  0
 13 12  1  0  0  0  0
 13  9  1  0  0  0  0
 14  5  1  0  0  0  0
 15 10  1  0  0  0  0
 16 19  2  0  0  0  0
 16 18  1  0  0  0  0
 17 15  1  0  0  0  0
 18 17  2  0  0  0  0
 19 20  1  0  0  0  0
 20 15  2  0  0  0  0
 21  8  1  0  0  0  0
 21 22  1  1  0  0  0
 23 21  1  0  0  0  0
 24 23  1  0  0  0  0
 25 23  2  0  0  0  0
M  END
>  <MODEL>
6

>  <REMARK>
 VINA RESULT:      -6.9      2.206      4.988
  Name = 
  3 active torsions:
  status: ('A' for Active; 'I' for Inactive)
    1  A    between atoms: C_2  and  C_21
    2  A    between atoms: C_5  and  C_18
    3  A    between atoms: C_15  and  C_21
                            x       y       z     vdW  Elec       q    Type
                         _______ _______ _______ _____ _____    ______ ____

>  <TORSDO>
F 3

$$$$
=
 OpenBabel11052417343D

 25 27  0  0  1  0  0  0  0  0999 V2000
  188.2700  176.1620  146.0950 N   0  0  0  0  0  0  0  0  0  0  0  0
  187.9600  176.4620  144.8250 C   0  0  0  0  0  0  0  0  0  0  0  0
  187.6500  177.1180  146.8280 C   0  0  0  0  0  3  0  0  0  0  0  0
  187.9350  175.5500  141.3050 C   0  0  0  0  0  0  0  0  0  0  0  0
  186.9750  178.0140  146.0560 N   0  0  0  0  0  0  0  0  0  0  0  0
  186.6200  178.0930  143.5460 C   0  0  0  0  0  0  0  0  0  0  0  0
  185.7850  179.3240  143.5280 C   0  0  0  0  0  1  0  0  0  0  0  0
  188.1930  174.9050  140.2000 C   0  0  0  0  0  3  0  0  0  0  0  0
  188.2240  175.6890  143.6550 N   0  0  0  0  0  2  0  0  0  0  0  0
  188.9890  175.0290  146.6080 C   0  0  0  0  0  0  0  0  0  0  0  0
  188.6630  174.5540  147.7300 O   0  0  0  0  0  0  0  0  0  0  0  0
  186.8670  177.4260  142.4050 C   0  0  0  0  0  3  0  0  0  0  0  0
  187.6910  176.1850  142.4150 C   0  0  0  0  0  0  0  0  0  0  0  0
  187.1860  177.5760  144.8010 C   0  0  0  0  0  0  0  0  0  0  0  0
  190.1170  174.4210  145.8710 C   0  0  0  0  0  0  0  0  0  0  0  0
  192.2330  173.2370  144.5280 N   0  0  0  0  0  0  0  0  0  0  0  0
  189.9440  173.2000  145.2090 C   0  0  0  0  0  3  0  0  0  0  0  0
  191.0210  172.6200  144.5340 C   0  0  0  0  0  3  0  0  0  0  0  0
  192.4320  174.4170  145.1740 C   0  0  0  0  0  3  0  0  0  0  0  0
  191.3800  175.0260  145.8600 C   0  0  0  0  0  3  0  0  0  0  0  0
  188.8420  173.5590  140.2320 C   0  0  2  0  0  3  0  0  0  0  0  0
  188.4260  172.7810  141.4710 C   0  0  0  0  0  1  0  0  0  0  0  0
  190.3270  173.6960  140.1790 C   0  0  0  0  0  0  0  0  0  0  0  0
  191.0200  174.0870  141.3160 O   0  0  0  0  0  1  0  0  0  0  0  0
  190.9580  173.4570  139.1140 O   0  0  0  0  0  0  0  0  0  0  0  0
  1 10  1  0  0  0  0
  1  3  1  0  0  0  0
  2  1  1  0  0  0  0
  4 13  2  0  0  0  0
  5  3  2  0  0  0  0
  6 14  1  0  0  0  0
  7  6  1  0  0  0  0
  8 21  1  0  0  0  0
  8  4  2  0  0  0  0
  9  2  1  0  0  0  0
 10 11  2  0  0  0  0
 12 13  1  0  0  0  0
 12  6  2  0  0  0  0
 13  9  1  0  0  0  0
 14  2  2  0  0  0  0
 14  5  1  0  0  0  0
 15 10  1  0  0  0  0
 16 18  2  0  0  0  0
 16 19  1  0  0  0  0
 17 15  2  0  0  0  0
 18 17  1  0  0  0  0
 19 20  2  0  0  0  0
 20 15  1  0  0  0  0
 21 22  1  1  0  0  0
 23 21  1  0  0  0  0
 23 24  1  0  0  0  0
 25 23  2  0  0  0  0
M  END
>  <MODEL>
7

>  <REMARK>
 VINA RESULT:      -6.8      2.137      4.859
  Name = 
  3 active torsions:
  status: ('A' for Active; 'I' for Inactive)
    1  A    between atoms: C_2  and  C_21
    2  A    between atoms: C_5  and  C_18
    3  A    between atoms: C_15  and  C_21
                            x       y       z     vdW  Elec       q    Type
                         _______ _______ _______ _____ _____    ______ ____

>  <TORSDO>
F 3

$$$$
=
 OpenBabel11052417343D

 25 27  0  0  1  0  0  0  0  0999 V2000
  189.1120  175.9510  145.7580 N   0  0  0  0  0  0  0  0  0  0  0  0
  188.8460  175.6890  144.4700 C   0  0  0  0  0  0  0  0  0  0  0  0
  190.1110  175.0910  146.0770 C   0  0  0  0  0  3  0  0  0  0  0  0
  187.1540  176.5780  141.3760 C   0  0  0  0  0  0  0  0  0  0  0  0
  190.4660  174.2930  145.0330 N   0  0  0  0  0  0  0  0  0  0  0  0
  189.6480  174.2500  142.6320 C   0  0  0  0  0  0  0  0  0  0  0  0
  190.5300  173.1450  142.1690 C   0  0  0  0  0  1  0  0  0  0  0  0
  186.3450  177.1760  140.5450 C   0  0  0  0  0  3  0  0  0  0  0  0
  187.9850  176.4130  143.5910 N   0  0  0  0  0  2  0  0  0  0  0  0
  188.5700  176.9770  146.6050 C   0  0  0  0  0  0  0  0  0  0  0  0
  189.3100  177.4980  147.4850 O   0  0  0  0  0  0  0  0  0  0  0  0
  188.8290  174.8710  141.7660 C   0  0  0  0  0  3  0  0  0  0  0  0
  187.9530  175.9880  142.2180 C   0  0  0  0  0  0  0  0  0  0  0  0
  189.6550  174.6910  144.0360 C   0  0  0  0  0  0  0  0  0  0  0  0
  187.1650  177.4220  146.4910 C   0  0  0  0  0  0  0  0  0  0  0  0
  184.5230  178.2180  146.2320 N   0  0  0  0  0  0  0  0  0  0  0  0
  186.1240  176.5410  146.8070 C   0  0  0  0  0  3  0  0  0  0  0  0
  184.7990  176.9620  146.6750 C   0  0  0  0  0  3  0  0  0  0  0  0
  185.5150  179.0890  145.9050 C   0  0  0  0  0  3  0  0  0  0  0  0
  186.8520  178.7050  146.0240 C   0  0  0  0  0  3  0  0  0  0  0  0
  185.6200  178.4210  140.9440 C   0  0  2  0  0  3  0  0  0  0  0  0
  186.1770  178.9860  142.2410 C   0  0  0  0  0  1  0  0  0  0  0  0
  184.1580  178.1520  141.0800 C   0  0  0  0  0  0  0  0  0  0  0  0
  183.5900  178.0760  142.3440 O   0  0  0  0  0  1  0  0  0  0  0  0
  183.4350  177.9950  140.0590 O   0  0  0  0  0  0  0  0  0  0  0  0
  1  3  1  0  0  0  0
  1 10  1  0  0  0  0
  2  1  1  0  0  0  0
  4 13  2  0  0  0  0
  5  3  2  0  0  0  0
  6 14  1  0  0  0  0
  7  6  1  0  0  0  0
  8 21  1  0  0  0  0
  8  4  2  0  0  0  0
  9  2  1  0  0  0  0
 10 11  2  0  0  0  0
 12 13  1  0  0  0  0
 12  6  2  0  0  0  0
 13  9  1  0  0  0  0
 14  2  2  0  0  0  0
 14  5  1  0  0  0  0
 15 10  1  0  0  0  0
 15 17  1  0  0  0  0
 16 18  1  0  0  0  0
 18 17  2  0  0  0  0
 19 20  1  0  0  0  0
 19 16  2  0  0  0  0
 20 15  2  0  0  0  0
 21 23  1  0  0  0  0
 21 22  1  1  0  0  0
 23 24  1  0  0  0  0
 25 23  2  0  0  0  0
M  END
>  <MODEL>
8

>  <REMARK>
 VINA RESULT:      -6.7      2.176      6.832
  Name = 
  3 active torsions:
  status: ('A' for Active; 'I' for Inactive)
    1  A    between atoms: C_2  and  C_21
    2  A    between atoms: C_5  and  C_18
    3  A    between atoms: C_15  and  C_21
                            x       y       z     vdW  Elec       q    Type
                         _______ _______ _______ _____ _____    ______ ____

>  <TORSDO>
F 3

$$$$
=
 OpenBabel11052417343D

 25 27  0  0  1  0  0  0  0  0999 V2000
  187.2770  176.0950  143.0220 N   0  0  0  0  0  0  0  0  0  0  0  0
  187.8210  176.2920  144.2310 C   0  0  0  0  0  0  0  0  0  0  0  0
  186.0310  176.6190  143.1240 C   0  0  0  0  0  3  0  0  0  0  0  0
  190.7410  176.2490  146.3990 C   0  0  0  0  0  0  0  0  0  0  0  0
  185.7760  177.1230  144.3630 N   0  0  0  0  0  0  0  0  0  0  0  0
  187.2690  177.3280  146.4030 C   0  0  0  0  0  0  0  0  0  0  0  0
  186.2680  177.9860  147.2850 C   0  0  0  0  0  1  0  0  0  0  0  0
  191.9540  176.0220  146.8240 C   0  0  0  0  0  3  0  0  0  0  0  0
  189.1750  176.0730  144.6270 N   0  0  0  0  0  2  0  0  0  0  0  0
  187.8820  175.5650  141.8310 C   0  0  0  0  0  0  0  0  0  0  0  0
  187.5190  176.0140  140.7090 O   0  0  0  0  0  0  0  0  0  0  0  0
  188.5210  177.1110  146.8430 C   0  0  0  0  0  3  0  0  0  0  0  0
  189.5340  176.4650  145.9630 C   0  0  0  0  0  0  0  0  0  0  0  0
  186.9200  176.9050  145.0380 C   0  0  0  0  0  0  0  0  0  0  0  0
  188.8970  174.4920  141.8830 C   0  0  0  0  0  0  0  0  0  0  0  0
  190.7930  172.4770  142.0400 N   0  0  0  0  0  0  0  0  0  0  0  0
  188.5170  173.1840  142.2030 C   0  0  0  0  0  3  0  0  0  0  0  0
  189.4870  172.1800  142.2730 C   0  0  0  0  0  3  0  0  0  0  0  0
  191.1910  173.7430  141.7400 C   0  0  0  0  0  3  0  0  0  0  0  0
  190.2520  174.7720  141.6620 C   0  0  0  0  0  3  0  0  0  0  0  0
  193.0220  175.5640  145.8830 C   0  0  2  0  0  3  0  0  0  0  0  0
  192.9890  176.3610  144.5890 C   0  0  0  0  0  1  0  0  0  0  0  0
  192.8740  174.1060  145.5980 C   0  0  0  0  0  0  0  0  0  0  0  0
  193.9480  173.2530  145.8130 O   0  0  0  0  0  1  0  0  0  0  0  0
  191.7850  173.6410  145.1670 O   0  0  0  0  0  0  0  0  0  0  0  0
  1  3  1  0  0  0  0
  1  2  1  0  0  0  0
  2  9  1  0  0  0  0
  2 14  2  0  0  0  0
  3  5  2  0  0  0  0
  4  8  2  0  0  0  0
  5 14  1  0  0  0  0
  6 12  2  0  0  0  0
  6  7  1  0  0  0  0
  9 13  1  0  0  0  0
 10 15  1  0  0  0  0
 10  1  1  0  0  0  0
 11 10  2  0  0  0  0
 13  4  2  0  0  0  0
 13 12  1  0  0  0  0
 14  6  1  0  0  0  0
 15 17  1  0  0  0  0
 16 18  1  0  0  0  0
 17 18  2  0  0  0  0
 19 16  2  0  0  0  0
 20 19  1  0  0  0  0
 20 15  2  0  0  0  0
 21 22  1  6  0  0  0
 21  8  1  0  0  0  0
 23 24  1  0  0  0  0
 23 21  1  0  0  0  0
 25 23  2  0  0  0  0
M  END
>  <MODEL>
9

>  <REMARK>
 VINA RESULT:      -6.6      1.455      2.003
  Name = 
  3 active torsions:
  status: ('A' for Active; 'I' for Inactive)
    1  A    between atoms: C_2  and  C_21
    2  A    between atoms: C_5  and  C_18
    3  A    between atoms: C_15  and  C_21
                            x       y       z     vdW  Elec       q    Type
                         _______ _______ _______ _____ _____    ______ ____

>  <TORSDO>
F 3

$$$$
