=
 OpenBabel11052417113D

 30 32  0  0  1  0  0  0  0  0999 V2000
  185.1170  178.2940  145.7080 C   0  0  0  0  0  0  0  0  0  0  0  0
  185.3950  177.6360  146.9080 C   0  0  0  0  0  3  0  0  0  0  0  0
  184.0340  179.1630  145.6460 O   0  0  0  0  0  1  0  0  0  0  0  0
  187.0210  177.1780  144.6670 C   0  0  0  0  0  0  0  0  0  0  0  0
  186.4740  176.7560  146.9940 C   0  0  0  0  0  3  0  0  0  0  0  0
  185.9280  178.0760  144.5770 C   0  0  0  0  0  0  0  0  0  0  0  0
  187.2800  176.5280  145.8790 C   0  0  0  0  0  3  0  0  0  0  0  0
  190.2890  176.2640  143.1450 C   0  0  0  0  0  3  0  0  0  0  0  0
  190.3760  173.7080  139.9980 O   0  0  0  0  0  0  0  0  0  0  0  0
  189.8700  175.3340  142.1360 N   0  0  0  0  0  0  0  0  0  0  0  0
  189.4010  176.9670  143.8470 C   0  0  0  0  0  0  0  0  0  0  0  0
  189.1440  173.4490  139.9980 C   0  0  0  0  0  0  0  0  0  0  0  0
  188.2530  174.0760  140.9260 N   0  0  0  0  0  2  0  0  0  0  0  0
  187.5540  175.5270  142.8660 C   0  0  0  0  0  2  0  0  0  0  0  0
  189.9020  177.9850  144.8140 C   0  0  0  0  0  1  0  0  0  0  0  0
  188.6230  175.0160  141.9430 C   0  0  0  0  0  0  0  0  0  0  0  0
  188.6040  172.4750  139.0150 C   0  0  0  0  0  1  0  0  0  0  0  0
  187.9300  176.8680  143.5060 C   0  0  1  0  0  3  0  0  0  0  0  0
  185.6270  178.7980  143.2990 C   0  0  0  0  0  2  0  0  0  0  0  0
  184.7460  177.9480  142.4030 C   0  0  0  0  0  2  0  0  0  0  0  0
  183.3390  178.5130  142.4060 C   0  0  0  0  0  2  0  0  0  0  0  0
  182.5310  177.9890  141.2220 C   0  0  2  0  0  3  0  0  0  0  0  0
  183.3260  178.0180  140.0770 O   0  0  0  0  0  1  0  0  0  0  0  0
  179.2310  179.1400  141.7810 C   0  0  0  0  0  2  0  0  0  0  0  0
  181.2500  178.7840  140.9680 C   0  0  1  0  0  3  0  0  0  0  0  0
  179.1290  178.5070  140.4230 C   0  0  2  0  0  0  0  0  0  0  0  0
  180.4150  178.1110  140.0630 O   0  0  0  0  0  0  0  0  0  0  0  0
  180.5660  179.0540  142.1660 O   0  0  0  0  0  0  0  0  0  0  0  0
  178.6410  179.4320  139.5010 O   0  0  0  0  0  1  0  0  0  0  0  0
  178.2130  177.3020  140.4730 C   0  0  0  0  0  1  0  0  0  0  0  0
  1  2  1  0  0  0  0
  2  5  2  0  0  0  0
  3  1  1  0  0  0  0
  4  7  2  0  0  0  0
  6  4  1  0  0  0  0
  6  1  2  0  0  0  0
  7  5  1  0  0  0  0
  8 11  2  0  0  0  0
  9 12  2  0  0  0  0
 10  8  1  0  0  0  0
 11 15  1  0  0  0  0
 12 13  1  0  0  0  0
 13 16  1  0  0  0  0
 14 18  1  0  0  0  0
 16 10  2  0  0  0  0
 16 14  1  0  0  0  0
 17 12  1  0  0  0  0
 18 11  1  0  0  0  0
 18  4  1  1  0  0  0
 19  6  1  0  0  0  0
 20 21  1  0  0  0  0
 20 19  1  0  0  0  0
 22 23  1  6  0  0  0
 22 21  1  0  0  0  0
 24 28  1  0  0  0  0
 25 22  1  1  0  0  0
 25 28  1  0  0  0  0
 26 30  1  1  0  0  0
 26 24  1  0  0  0  0
 27 26  1  0  0  0  0
 27 25  1  0  0  0  0
 29 26  1  0  0  0  0
M  END
>  <MODEL>
1

>  <REMARK>
 VINA RESULT:      -7.9      0.000      0.000
  Name = 
  6 active torsions:
  status: ('A' for Active; 'I' for Inactive)
    1  A    between atoms: C_1  and  C_4
    2  A    between atoms: C_1  and  C_5
    3  A    between atoms: C_4  and  C_27
    4  A    between atoms: C_5  and  C_22
    5  A    between atoms: C_8  and  C_27
    6  A    between atoms: C_19  and  C_29
                            x       y       z     vdW  Elec       q    Type
                         _______ _______ _______ _____ _____    ______ ____

>  <TORSDO>
F 6

$$$$
=
 OpenBabel11052417113D

 30 32  0  0  1  0  0  0  0  0999 V2000
  194.2760  176.3540  144.0000 C   0  0  0  0  0  0  0  0  0  0  0  0
  194.9840  176.5000  145.1960 C   0  0  0  0  0  3  0  0  0  0  0  0
  194.9690  176.3860  142.7950 O   0  0  0  0  0  1  0  0  0  0  0  0
  192.1990  176.1590  145.2640 C   0  0  0  0  0  0  0  0  0  0  0  0
  194.3110  176.4750  146.4180 C   0  0  0  0  0  3  0  0  0  0  0  0
  192.8800  176.1790  144.0210 C   0  0  0  0  0  0  0  0  0  0  0  0
  192.9270  176.3070  146.4500 C   0  0  0  0  0  3  0  0  0  0  0  0
  189.1180  174.5190  146.5490 C   0  0  0  0  0  3  0  0  0  0  0  0
  185.9180  176.7990  147.5530 O   0  0  0  0  0  0  0  0  0  0  0  0
  188.2920  175.6610  146.8160 N   0  0  0  0  0  0  0  0  0  0  0  0
  190.2870  174.6450  145.9210 C   0  0  0  0  0  0  0  0  0  0  0  0
  186.4780  177.9110  147.3650 C   0  0  0  0  0  0  0  0  0  0  0  0
  187.8250  177.9930  146.8890 N   0  0  0  0  0  2  0  0  0  0  0  0
  190.0930  177.1650  146.1620 C   0  0  0  0  0  2  0  0  0  0  0  0
  191.0520  173.4100  145.5880 C   0  0  0  0  0  1  0  0  0  0  0  0
  188.6840  176.8830  146.5990 C   0  0  0  0  0  0  0  0  0  0  0  0
  185.7250  179.1620  147.6400 C   0  0  0  0  0  1  0  0  0  0  0  0
  190.7050  175.9960  145.3830 C   0  0  1  0  0  3  0  0  0  0  0  0
  192.1340  176.0120  142.7320 C   0  0  0  0  0  2  0  0  0  0  0  0
  192.0600  174.5470  142.3470 C   0  0  0  0  0  2  0  0  0  0  0  0
  190.8310  174.3160  141.4910 C   0  0  0  0  0  2  0  0  0  0  0  0
  189.6740  173.7690  142.3210 C   0  0  2  0  0  3  0  0  0  0  0  0
  189.4840  172.4230  142.0100 O   0  0  0  0  0  1  0  0  0  0  0  0
  187.5380  176.3410  141.1580 C   0  0  0  0  0  2  0  0  0  0  0  0
  188.3640  174.5280  142.1040 C   0  0  1  0  0  3  0  0  0  0  0  0
  187.3560  176.4150  142.6470 C   0  0  2  0  0  0  0  0  0  0  0  0
  188.0830  175.3630  143.1970 O   0  0  0  0  0  0  0  0  0  0  0  0
  188.3900  175.2680  140.9100 O   0  0  0  0  0  0  0  0  0  0  0  0
  186.0060  176.2800  142.9690 O   0  0  0  0  0  1  0  0  0  0  0  0
  187.8790  177.7360  143.1740 C   0  0  0  0  0  1  0  0  0  0  0  0
  1  6  2  0  0  0  0
  1  2  1  0  0  0  0
  2  5  2  0  0  0  0
  3  1  1  0  0  0  0
  4  7  2  0  0  0  0
  5  7  1  0  0  0  0
  6  4  1  0  0  0  0
  8 10  1  0  0  0  0
 11  8  2  0  0  0  0
 12  9  2  0  0  0  0
 12 17  1  0  0  0  0
 13 12  1  0  0  0  0
 14 16  1  0  0  0  0
 15 11  1  0  0  0  0
 16 10  2  0  0  0  0
 16 13  1  0  0  0  0
 18  4  1  1  0  0  0
 18 11  1  0  0  0  0
 18 14  1  0  0  0  0
 19  6  1  0  0  0  0
 20 19  1  0  0  0  0
 21 22  1  0  0  0  0
 21 20  1  0  0  0  0
 22 23  1  6  0  0  0
 24 26  1  0  0  0  0
 25 22  1  1  0  0  0
 25 27  1  0  0  0  0
 26 29  1  0  0  0  0
 26 30  1  1  0  0  0
 26 27  1  0  0  0  0
 28 24  1  0  0  0  0
 28 25  1  0  0  0  0
M  END
>  <MODEL>
2

>  <REMARK>
 VINA RESULT:      -7.8      4.673      7.878
  Name = 
  6 active torsions:
  status: ('A' for Active; 'I' for Inactive)
    1  A    between atoms: C_1  and  C_4
    2  A    between atoms: C_1  and  C_5
    3  A    between atoms: C_4  and  C_27
    4  A    between atoms: C_5  and  C_22
    5  A    between atoms: C_8  and  C_27
    6  A    between atoms: C_19  and  C_29
                            x       y       z     vdW  Elec       q    Type
                         _______ _______ _______ _____ _____    ______ ____

>  <TORSDO>
F 6

$$$$
=
 OpenBabel11052417113D

 30 32  0  0  1  0  0  0  0  0999 V2000
  185.3030  177.6110  142.2530 C   0  0  0  0  0  0  0  0  0  0  0  0
  185.4270  177.9240  140.8970 C   0  0  0  0  0  3  0  0  0  0  0  0
  184.1840  178.0520  142.9500 O   0  0  0  0  0  1  0  0  0  0  0  0
  187.4350  176.4290  142.1650 C   0  0  0  0  0  0  0  0  0  0  0  0
  186.5420  177.4950  140.1760 C   0  0  0  0  0  3  0  0  0  0  0  0
  186.3020  176.8590  142.8990 C   0  0  0  0  0  0  0  0  0  0  0  0
  187.5390  176.7530  140.8080 C   0  0  0  0  0  3  0  0  0  0  0  0
  189.8670  173.6150  142.2540 C   0  0  0  0  0  3  0  0  0  0  0  0
  193.6440  174.2880  143.5680 O   0  0  0  0  0  0  0  0  0  0  0  0
  191.0450  174.2880  142.7180 N   0  0  0  0  0  0  0  0  0  0  0  0
  188.6870  174.2350  142.2190 C   0  0  0  0  0  0  0  0  0  0  0  0
  193.5200  175.5330  143.7080 C   0  0  0  0  0  0  0  0  0  0  0  0
  192.2750  176.1900  143.4470 N   0  0  0  0  0  2  0  0  0  0  0  0
  189.8740  176.4240  142.7160 C   0  0  0  0  0  2  0  0  0  0  0  0
  187.4840  173.4530  141.8170 C   0  0  0  0  0  1  0  0  0  0  0  0
  191.0710  175.5600  142.9930 C   0  0  0  0  0  0  0  0  0  0  0  0
  194.6880  176.3360  144.1550 C   0  0  0  0  0  1  0  0  0  0  0  0
  188.5610  175.6360  142.7770 C   0  0  1  0  0  3  0  0  0  0  0  0
  186.1500  176.5190  144.3510 C   0  0  0  0  0  2  0  0  0  0  0  0
  186.5010  177.7150  145.2160 C   0  0  0  0  0  2  0  0  0  0  0  0
  187.9320  177.5800  145.6980 C   0  0  0  0  0  2  0  0  0  0  0  0
  188.1860  176.1990  146.2940 C   0  0  2  0  0  3  0  0  0  0  0  0
  187.4940  176.0850  147.4980 O   0  0  0  0  0  1  0  0  0  0  0  0
  191.0830  175.2320  148.0850 C   0  0  0  0  0  2  0  0  0  0  0  0
  189.6690  175.9090  146.5340 C   0  0  1  0  0  3  0  0  0  0  0  0
  191.4040  176.6430  147.6840 C   0  0  2  0  0  0  0  0  0  0  0  0
  190.3580  177.0830  146.8760 O   0  0  0  0  0  0  0  0  0  0  0  0
  189.8470  174.9250  147.5200 O   0  0  0  0  0  0  0  0  0  0  0  0
  192.6020  176.6750  146.9700 O   0  0  0  0  0  1  0  0  0  0  0  0
  191.5150  177.5250  148.9100 C   0  0  0  0  0  1  0  0  0  0  0  0
  1  6  1  0  0  0  0
  1  3  1  0  0  0  0
  2  1  2  0  0  0  0
  4  6  2  0  0  0  0
  5  7  2  0  0  0  0
  5  2  1  0  0  0  0
  6 19  1  0  0  0  0
  7  4  1  0  0  0  0
  8 10  1  0  0  0  0
  9 12  2  0  0  0  0
 10 16  2  0  0  0  0
 11  8  2  0  0  0  0
 11 18  1  0  0  0  0
 12 17  1  0  0  0  0
 13 12  1  0  0  0  0
 14 18  1  0  0  0  0
 14 16  1  0  0  0  0
 15 11  1  0  0  0  0
 16 13  1  0  0  0  0
 18  4  1  6  0  0  0
 19 20  1  0  0  0  0
 20 21  1  0  0  0  0
 21 22  1  0  0  0  0
 22 23  1  1  0  0  0
 25 22  1  1  0  0  0
 25 27  1  0  0  0  0
 25 28  1  0  0  0  0
 26 24  1  0  0  0  0
 26 30  1  1  0  0  0
 27 26  1  0  0  0  0
 28 24  1  0  0  0  0
 29 26  1  0  0  0  0
M  END
>  <MODEL>
3

>  <REMARK>
 VINA RESULT:      -7.7      3.456      7.885
  Name = 
  6 active torsions:
  status: ('A' for Active; 'I' for Inactive)
    1  A    between atoms: C_1  and  C_4
    2  A    between atoms: C_1  and  C_5
    3  A    between atoms: C_4  and  C_27
    4  A    between atoms: C_5  and  C_22
    5  A    between atoms: C_8  and  C_27
    6  A    between atoms: C_19  and  C_29
                            x       y       z     vdW  Elec       q    Type
                         _______ _______ _______ _____ _____    ______ ____

>  <TORSDO>
F 6

$$$$
=
 OpenBabel11052417113D

 30 32  0  0  1  0  0  0  0  0999 V2000
  192.9440  174.6010  144.3650 C   0  0  0  0  0  0  0  0  0  0  0  0
  193.7300  175.6840  144.7650 C   0  0  0  0  0  3  0  0  0  0  0  0
  193.5560  173.4970  143.7830 O   0  0  0  0  0  1  0  0  0  0  0  0
  190.9510  175.7760  145.1390 C   0  0  0  0  0  0  0  0  0  0  0  0
  193.1390  176.8050  145.3490 C   0  0  0  0  0  3  0  0  0  0  0  0
  191.5490  174.6340  144.5510 C   0  0  0  0  0  0  0  0  0  0  0  0
  191.7580  176.8500  145.5320 C   0  0  0  0  0  3  0  0  0  0  0  0
  187.9150  176.1300  147.2580 C   0  0  0  0  0  3  0  0  0  0  0  0
  184.8990  178.5470  146.0300 O   0  0  0  0  0  0  0  0  0  0  0  0
  187.1600  177.0830  146.4960 N   0  0  0  0  0  0  0  0  0  0  0  0
  189.0350  175.5940  146.7760 C   0  0  0  0  0  0  0  0  0  0  0  0
  185.4870  178.9930  145.0100 C   0  0  0  0  0  0  0  0  0  0  0  0
  186.7960  178.5380  144.6490 N   0  0  0  0  0  2  0  0  0  0  0  0
  188.9640  177.2710  144.8710 C   0  0  0  0  0  2  0  0  0  0  0  0
  189.7210  174.5400  147.5760 C   0  0  0  0  0  1  0  0  0  0  0  0
  187.5830  177.5830  145.3720 C   0  0  0  0  0  0  0  0  0  0  0  0
  184.8100  180.0090  144.1630 C   0  0  0  0  0  1  0  0  0  0  0  0
  189.4660  175.9080  145.3600 C   0  0  1  0  0  3  0  0  0  0  0  0
  190.7170  173.4600  144.1280 C   0  0  0  0  0  2  0  0  0  0  0  0
  190.2520  173.6270  142.6940 C   0  0  0  0  0  2  0  0  0  0  0  0
  189.0560  172.7300  142.4490 C   0  0  0  0  0  2  0  0  0  0  0  0
  187.9840  173.4480  141.6350 C   0  0  2  0  0  3  0  0  0  0  0  0
  188.2330  173.2530  140.2770 O   0  0  0  0  0  1  0  0  0  0  0  0
  186.4820  176.6160  142.1220 C   0  0  0  0  0  2  0  0  0  0  0  0
  187.9110  174.9480  141.9250 C   0  0  1  0  0  3  0  0  0  0  0  0
  187.4020  176.8670  140.9610 C   0  0  2  0  0  0  0  0  0  0  0  0
  188.1240  175.6940  140.7560 O   0  0  0  0  0  0  0  0  0  0  0  0
  186.6870  175.2970  142.5190 O   0  0  0  0  0  0  0  0  0  0  0  0
  188.2720  177.9150  141.2600 O   0  0  0  0  0  1  0  0  0  0  0  0
  186.6010  177.2040  139.7200 C   0  0  0  0  0  1  0  0  0  0  0  0
  1  6  2  0  0  0  0
  1  2  1  0  0  0  0
  2  5  2  0  0  0  0
  3  1  1  0  0  0  0
  4  7  2  0  0  0  0
  5  7  1  0  0  0  0
  6  4  1  0  0  0  0
 10  8  1  0  0  0  0
 11  8  2  0  0  0  0
 11 15  1  0  0  0  0
 12  9  2  0  0  0  0
 13 12  1  0  0  0  0
 13 16  1  0  0  0  0
 14 18  1  0  0  0  0
 14 16  1  0  0  0  0
 16 10  2  0  0  0  0
 17 12  1  0  0  0  0
 18  4  1  1  0  0  0
 18 11  1  0  0  0  0
 19  6  1  0  0  0  0
 20 19  1  0  0  0  0
 21 20  1  0  0  0  0
 22 23  1  6  0  0  0
 22 21  1  0  0  0  0
 24 28  1  0  0  0  0
 25 22  1  6  0  0  0
 25 28  1  0  0  0  0
 26 30  1  6  0  0  0
 26 29  1  0  0  0  0
 26 24  1  0  0  0  0
 27 26  1  0  0  0  0
 27 25  1  0  0  0  0
M  END
>  <MODEL>
4

>  <REMARK>
 VINA RESULT:      -7.6      4.115      7.220
  Name = 
  6 active torsions:
  status: ('A' for Active; 'I' for Inactive)
    1  A    between atoms: C_1  and  C_4
    2  A    between atoms: C_1  and  C_5
    3  A    between atoms: C_4  and  C_27
    4  A    between atoms: C_5  and  C_22
    5  A    between atoms: C_8  and  C_27
    6  A    between atoms: C_19  and  C_29
                            x       y       z     vdW  Elec       q    Type
                         _______ _______ _______ _____ _____    ______ ____

>  <TORSDO>
F 6

$$$$
=
 OpenBabel11052417113D

 30 32  0  0  1  0  0  0  0  0999 V2000
  186.1850  177.7680  146.3710 C   0  0  0  0  0  0  0  0  0  0  0  0
  185.4630  178.9220  146.0590 C   0  0  0  0  0  3  0  0  0  0  0  0
  186.0410  177.1970  147.6300 O   0  0  0  0  0  1  0  0  0  0  0  0
  187.1820  177.8030  144.1440 C   0  0  0  0  0  0  0  0  0  0  0  0
  185.5930  179.5160  144.8040 C   0  0  0  0  0  3  0  0  0  0  0  0
  187.0480  177.1940  145.4170 C   0  0  0  0  0  0  0  0  0  0  0  0
  186.4500  178.9590  143.8540 C   0  0  0  0  0  3  0  0  0  0  0  0
  190.3930  176.4080  142.8870 C   0  0  0  0  0  3  0  0  0  0  0  0
  190.3310  173.4980  140.0630 O   0  0  0  0  0  0  0  0  0  0  0  0
  189.9170  175.4080  141.9750 N   0  0  0  0  0  0  0  0  0  0  0  0
  189.5560  177.2700  143.4630 C   0  0  0  0  0  0  0  0  0  0  0  0
  189.0800  173.3590  140.0380 C   0  0  0  0  0  0  0  0  0  0  0  0
  188.2250  174.1740  140.8460 N   0  0  0  0  0  2  0  0  0  0  0  0
  187.6090  175.9050  142.5720 C   0  0  0  0  0  2  0  0  0  0  0  0
  190.1230  178.3450  144.3260 C   0  0  0  0  0  1  0  0  0  0  0  0
  188.6520  175.1890  141.7630 C   0  0  0  0  0  0  0  0  0  0  0  0
  188.4790  172.3300  139.1510 C   0  0  0  0  0  1  0  0  0  0  0  0
  188.0950  177.2710  143.0690 C   0  0  1  0  0  3  0  0  0  0  0  0
  187.8080  175.9490  145.7600 C   0  0  0  0  0  2  0  0  0  0  0  0
  188.8740  176.2450  146.7970 C   0  0  0  0  0  2  0  0  0  0  0  0
  189.5460  174.9500  147.2080 C   0  0  0  0  0  2  0  0  0  0  0  0
  191.0200  175.1710  147.5350 C   0  0  2  0  0  3  0  0  0  0  0  0
  191.1540  176.3500  148.2650 O   0  0  0  0  0  1  0  0  0  0  0  0
  193.9840  174.9310  145.6150 C   0  0  0  0  0  2  0  0  0  0  0  0
  191.9090  175.2420  146.2910 C   0  0  1  0  0  3  0  0  0  0  0  0
  193.6050  176.3750  145.4490 C   0  0  2  0  0  0  0  0  0  0  0  0
  192.3800  176.5480  146.0890 O   0  0  0  0  0  0  0  0  0  0  0  0
  192.9790  174.3370  146.3730 O   0  0  0  0  0  0  0  0  0  0  0  0
  193.4810  176.6830  144.0940 O   0  0  0  0  0  1  0  0  0  0  0  0
  194.6500  177.2690  146.0840 C   0  0  0  0  0  1  0  0  0  0  0  0
  1  3  1  0  0  0  0
  2  1  1  0  0  0  0
  4  6  1  0  0  0  0
  5  2  2  0  0  0  0
  6 19  1  0  0  0  0
  6  1  2  0  0  0  0
  7  4  2  0  0  0  0
  7  5  1  0  0  0  0
  8 11  2  0  0  0  0
 10  8  1  0  0  0  0
 11 15  1  0  0  0  0
 12  9  2  0  0  0  0
 12 13  1  0  0  0  0
 13 16  1  0  0  0  0
 14 18  1  0  0  0  0
 16 10  2  0  0  0  0
 16 14  1  0  0  0  0
 17 12  1  0  0  0  0
 18 11  1  0  0  0  0
 18  4  1  1  0  0  0
 19 20  1  0  0  0  0
 20 21  1  0  0  0  0
 21 22  1  0  0  0  0
 22 23  1  6  0  0  0
 24 28  1  0  0  0  0
 25 28  1  0  0  0  0
 25 22  1  1  0  0  0
 26 24  1  0  0  0  0
 26 30  1  1  0  0  0
 26 27  1  0  0  0  0
 27 25  1  0  0  0  0
 29 26  1  0  0  0  0
M  END
>  <MODEL>
5

>  <REMARK>
 VINA RESULT:      -7.6      4.580      8.163
  Name = 
  6 active torsions:
  status: ('A' for Active; 'I' for Inactive)
    1  A    between atoms: C_1  and  C_4
    2  A    between atoms: C_1  and  C_5
    3  A    between atoms: C_4  and  C_27
    4  A    between atoms: C_5  and  C_22
    5  A    between atoms: C_8  and  C_27
    6  A    between atoms: C_19  and  C_29
                            x       y       z     vdW  Elec       q    Type
                         _______ _______ _______ _____ _____    ______ ____

>  <TORSDO>
F 6

$$$$
=
 OpenBabel11052417113D

 30 32  0  0  1  0  0  0  0  0999 V2000
  190.0000  177.2530  145.6160 C   0  0  0  0  0  0  0  0  0  0  0  0
  189.8980  177.3390  147.0070 C   0  0  0  0  0  3  0  0  0  0  0  0
  189.0400  177.8760  144.8270 O   0  0  0  0  0  1  0  0  0  0  0  0
  192.0220  175.9100  145.8570 C   0  0  0  0  0  0  0  0  0  0  0  0
  190.8470  176.7200  147.8210 C   0  0  0  0  0  3  0  0  0  0  0  0
  191.0630  176.5420  145.0270 C   0  0  0  0  0  0  0  0  0  0  0  0
  191.9010  176.0090  147.2470 C   0  0  0  0  0  3  0  0  0  0  0  0
  195.6160  174.9730  145.6540 C   0  0  0  0  0  3  0  0  0  0  0  0
  196.6360  171.0710  145.2240 O   0  0  0  0  0  0  0  0  0  0  0  0
  195.5210  173.5450  145.5620 N   0  0  0  0  0  0  0  0  0  0  0  0
  194.5290  175.7420  145.5950 C   0  0  0  0  0  0  0  0  0  0  0  0
  195.4670  170.6130  145.3180 C   0  0  0  0  0  0  0  0  0  0  0  0
  194.3390  171.4810  145.4710 N   0  0  0  0  0  2  0  0  0  0  0  0
  193.0970  173.6530  145.7780 C   0  0  0  0  0  2  0  0  0  0  0  0
  194.7030  177.2220  145.6010 C   0  0  0  0  0  1  0  0  0  0  0  0
  194.3840  172.9110  145.5590 C   0  0  0  0  0  0  0  0  0  0  0  0
  195.2540  169.1440  145.2660 C   0  0  0  0  0  1  0  0  0  0  0  0
  193.1810  175.1130  145.3170 C   0  0  1  0  0  3  0  0  0  0  0  0
  191.1670  176.4670  143.5340 C   0  0  0  0  0  2  0  0  0  0  0  0
  190.3920  175.2750  143.0060 C   0  0  0  0  0  2  0  0  0  0  0  0
  189.2830  175.7630  142.0950 C   0  0  0  0  0  2  0  0  0  0  0  0
  187.9130  175.3440  142.6190 C   0  0  2  0  0  3  0  0  0  0  0  0
  187.5810  174.0980  142.0890 O   0  0  0  0  0  1  0  0  0  0  0  0
  186.3900  178.5100  142.1830 C   0  0  0  0  0  2  0  0  0  0  0  0
  186.8070  176.3470  142.2840 C   0  0  1  0  0  3  0  0  0  0  0  0
  185.5200  177.8710  143.2280 C   0  0  2  0  0  0  0  0  0  0  0  0
  185.9790  176.5670  143.3960 O   0  0  0  0  0  0  0  0  0  0  0  0
  187.3380  177.5590  141.8140 O   0  0  0  0  0  0  0  0  0  0  0  0
  184.1930  177.8560  142.7990 O   0  0  0  0  0  1  0  0  0  0  0  0
  185.6270  178.6290  144.5350 C   0  0  0  0  0  1  0  0  0  0  0  0
  1  2  1  0  0  0  0
  2  5  2  0  0  0  0
  3  1  1  0  0  0  0
  4  7  2  0  0  0  0
  6  1  2  0  0  0  0
  6  4  1  0  0  0  0
  7  5  1  0  0  0  0
  9 12  2  0  0  0  0
 10  8  1  0  0  0  0
 11 15  1  0  0  0  0
 11  8  2  0  0  0  0
 12 13  1  0  0  0  0
 13 16  1  0  0  0  0
 16 10  2  0  0  0  0
 16 14  1  0  0  0  0
 17 12  1  0  0  0  0
 18 11  1  0  0  0  0
 18 14  1  0  0  0  0
 18  4  1  1  0  0  0
 19  6  1  0  0  0  0
 20 19  1  0  0  0  0
 21 22  1  0  0  0  0
 21 20  1  0  0  0  0
 22 23  1  6  0  0  0
 24 26  1  0  0  0  0
 25 22  1  1  0  0  0
 25 27  1  0  0  0  0
 26 27  1  0  0  0  0
 26 30  1  1  0  0  0
 28 24  1  0  0  0  0
 28 25  1  0  0  0  0
 29 26  1  0  0  0  0
M  END
>  <MODEL>
6

>  <REMARK>
 VINA RESULT:      -7.6      4.473      6.559
  Name = 
  6 active torsions:
  status: ('A' for Active; 'I' for Inactive)
    1  A    between atoms: C_1  and  C_4
    2  A    between atoms: C_1  and  C_5
    3  A    between atoms: C_4  and  C_27
    4  A    between atoms: C_5  and  C_22
    5  A    between atoms: C_8  and  C_27
    6  A    between atoms: C_19  and  C_29
                            x       y       z     vdW  Elec       q    Type
                         _______ _______ _______ _____ _____    ______ ____

>  <TORSDO>
F 6

$$$$
=
 OpenBabel11052417113D

 30 32  0  0  1  0  0  0  0  0999 V2000
  191.7130  172.5450  143.5810 C   0  0  0  0  0  0  0  0  0  0  0  0
  191.7050  172.0920  142.2600 C   0  0  0  0  0  3  0  0  0  0  0  0
  192.4330  171.8360  144.5360 O   0  0  0  0  0  1  0  0  0  0  0  0
  190.2670  174.4020  142.9420 C   0  0  0  0  0  0  0  0  0  0  0  0
  190.9880  172.7830  141.2830 C   0  0  0  0  0  3  0  0  0  0  0  0
  190.9980  173.7050  143.9350 C   0  0  0  0  0  0  0  0  0  0  0  0
  190.2730  173.9310  141.6240 C   0  0  0  0  0  3  0  0  0  0  0  0
  189.5010  178.0300  142.6370 C   0  0  0  0  0  3  0  0  0  0  0  0
  185.6400  179.2330  142.3400 O   0  0  0  0  0  0  0  0  0  0  0  0
  188.0730  177.9970  142.5110 N   0  0  0  0  0  0  0  0  0  0  0  0
  190.1930  176.9270  142.9250 C   0  0  0  0  0  0  0  0  0  0  0  0
  185.1410  178.0780  142.2910 C   0  0  0  0  0  0  0  0  0  0  0  0
  185.9610  176.9090  142.3890 N   0  0  0  0  0  2  0  0  0  0  0  0
  188.0850  175.5620  142.5550 C   0  0  0  0  0  2  0  0  0  0  0  0
  191.6640  177.0460  143.1360 C   0  0  0  0  0  1  0  0  0  0  0  0
  187.3870  176.8910  142.5260 C   0  0  0  0  0  0  0  0  0  0  0  0
  183.6710  177.9250  142.1300 C   0  0  0  0  0  1  0  0  0  0  0  0
  189.4580  175.6410  143.2310 C   0  0  1  0  0  3  0  0  0  0  0  0
  191.0250  174.1870  145.3540 C   0  0  0  0  0  2  0  0  0  0  0  0
  189.6950  173.9170  146.0320 C   0  0  0  0  0  2  0  0  0  0  0  0
  189.4680  174.9510  147.1170 C   0  0  0  0  0  2  0  0  0  0  0  0
  188.9650  176.2660  146.5310 C   0  0  2  0  0  3  0  0  0  0  0  0
  189.7410  177.3140  147.0240 O   0  0  0  0  0  1  0  0  0  0  0  0
  185.5450  176.8950  145.8660 C   0  0  0  0  0  2  0  0  0  0  0  0
  187.4920  176.5380  146.8400 C   0  0  1  0  0  3  0  0  0  0  0  0
  185.9530  178.1100  146.6510 C   0  0  2  0  0  0  0  0  0  0  0  0
  187.2710  177.9080  147.0540 O   0  0  0  0  0  0  0  0  0  0  0  0
  186.6550  176.0560  145.8200 O   0  0  0  0  0  0  0  0  0  0  0  0
  185.1310  178.2540  147.7680 O   0  0  0  0  0  1  0  0  0  0  0  0
  185.8630  179.3490  145.7840 C   0  0  0  0  0  1  0  0  0  0  0  0
  1  6  1  0  0  0  0
  1  3  1  0  0  0  0
  2  1  2  0  0  0  0
  4  6  2  0  0  0  0
  5  7  2  0  0  0  0
  5  2  1  0  0  0  0
  6 19  1  0  0  0  0
  7  4  1  0  0  0  0
  8 11  2  0  0  0  0
 10 16  2  0  0  0  0
 10  8  1  0  0  0  0
 11 15  1  0  0  0  0
 11 18  1  0  0  0  0
 12  9  2  0  0  0  0
 12 13  1  0  0  0  0
 13 16  1  0  0  0  0
 14 18  1  0  0  0  0
 16 14  1  0  0  0  0
 17 12  1  0  0  0  0
 18  4  1  6  0  0  0
 19 20  1  0  0  0  0
 20 21  1  0  0  0  0
 22 23  1  1  0  0  0
 22 21  1  0  0  0  0
 24 26  1  0  0  0  0
 25 22  1  6  0  0  0
 25 27  1  0  0  0  0
 26 30  1  6  0  0  0
 26 27  1  0  0  0  0
 26 29  1  0  0  0  0
 28 24  1  0  0  0  0
 28 25  1  0  0  0  0
M  END
>  <MODEL>
7

>  <REMARK>
 VINA RESULT:      -7.5      3.243      7.320
  Name = 
  6 active torsions:
  status: ('A' for Active; 'I' for Inactive)
    1  A    between atoms: C_1  and  C_4
    2  A    between atoms: C_1  and  C_5
    3  A    between atoms: C_4  and  C_27
    4  A    between atoms: C_5  and  C_22
    5  A    between atoms: C_8  and  C_27
    6  A    between atoms: C_19  and  C_29
                            x       y       z     vdW  Elec       q    Type
                         _______ _______ _______ _____ _____    ______ ____

>  <TORSDO>
F 6

$$$$
=
 OpenBabel11052417113D

 30 32  0  0  1  0  0  0  0  0999 V2000
  190.6010  176.9080  147.0390 C   0  0  0  0  0  0  0  0  0  0  0  0
  191.2830  175.9480  147.7910 C   0  0  0  0  0  3  0  0  0  0  0  0
  189.8970  177.9100  147.6980 O   0  0  0  0  0  1  0  0  0  0  0  0
  191.3490  175.8200  144.9880 C   0  0  0  0  0  0  0  0  0  0  0  0
  191.9940  174.9310  147.1530 C   0  0  0  0  0  3  0  0  0  0  0  0
  190.6290  176.8570  145.6320 C   0  0  0  0  0  0  0  0  0  0  0  0
  192.0240  174.8680  145.7600 C   0  0  0  0  0  3  0  0  0  0  0  0
  193.0080  174.8250  141.8110 C   0  0  0  0  0  3  0  0  0  0  0  0
  190.8000  173.1530  138.8490 O   0  0  0  0  0  0  0  0  0  0  0  0
  191.9050  174.2520  141.0950 N   0  0  0  0  0  0  0  0  0  0  0  0
  192.8240  175.4580  142.9690 C   0  0  0  0  0  0  0  0  0  0  0  0
  189.7230  173.0930  139.4980 C   0  0  0  0  0  0  0  0  0  0  0  0
  189.6320  173.5980  140.8350 N   0  0  0  0  0  2  0  0  0  0  0  0
  190.4320  174.6080  143.0010 C   0  0  0  0  0  2  0  0  0  0  0  0
  193.9960  176.1150  143.6160 C   0  0  0  0  0  1  0  0  0  0  0  0
  190.7010  174.1870  141.5860 C   0  0  0  0  0  0  0  0  0  0  0  0
  188.5220  172.4890  138.8650 C   0  0  0  0  0  1  0  0  0  0  0  0
  191.4200  175.6740  143.4900 C   0  0  1  0  0  3  0  0  0  0  0  0
  189.9040  177.9000  144.8380 C   0  0  0  0  0  2  0  0  0  0  0  0
  188.4480  177.5130  144.6570 C   0  0  0  0  0  2  0  0  0  0  0  0
  188.0950  177.5730  143.1840 C   0  0  0  0  0  2  0  0  0  0  0  0
  186.6920  177.0300  142.9300 C   0  0  2  0  0  3  0  0  0  0  0  0
  186.5070  176.8630  141.5590 O   0  0  0  0  0  1  0  0  0  0  0  0
  185.2430  179.9250  144.3630 C   0  0  0  0  0  2  0  0  0  0  0  0
  185.5870  177.9310  143.4840 C   0  0  1  0  0  3  0  0  0  0  0  0
  184.9010  178.8590  145.3650 C   0  0  2  0  0  0  0  0  0  0  0  0
  185.3430  177.6490  144.8360 O   0  0  0  0  0  0  0  0  0  0  0  0
  185.8980  179.2900  143.3100 O   0  0  0  0  0  0  0  0  0  0  0  0
  183.5220  178.8160  145.5640 O   0  0  0  0  0  1  0  0  0  0  0  0
  185.6000  179.1340  146.6810 C   0  0  0  0  0  1  0  0  0  0  0  0
  1  3  1  0  0  0  0
  1  2  1  0  0  0  0
  4  6  1  0  0  0  0
  4  7  2  0  0  0  0
  5  2  2  0  0  0  0
  6  1  2  0  0  0  0
  7  5  1  0  0  0  0
  8 11  2  0  0  0  0
  9 12  2  0  0  0  0
 10 16  2  0  0  0  0
 10  8  1  0  0  0  0
 11 18  1  0  0  0  0
 11 15  1  0  0  0  0
 12 13  1  0  0  0  0
 13 16  1  0  0  0  0
 14 18  1  0  0  0  0
 16 14  1  0  0  0  0
 17 12  1  0  0  0  0
 18  4  1  1  0  0  0
 19  6  1  0  0  0  0
 20 19  1  0  0  0  0
 21 20  1  0  0  0  0
 22 23  1  6  0  0  0
 22 21  1  0  0  0  0
 24 26  1  0  0  0  0
 25 22  1  1  0  0  0
 25 27  1  0  0  0  0
 26 29  1  0  0  0  0
 26 30  1  1  0  0  0
 27 26  1  0  0  0  0
 28 25  1  0  0  0  0
 28 24  1  0  0  0  0
M  END
>  <MODEL>
8

>  <REMARK>
 VINA RESULT:      -7.5      3.568      5.048
  Name = 
  6 active torsions:
  status: ('A' for Active; 'I' for Inactive)
    1  A    between atoms: C_1  and  C_4
    2  A    between atoms: C_1  and  C_5
    3  A    between atoms: C_4  and  C_27
    4  A    between atoms: C_5  and  C_22
    5  A    between atoms: C_8  and  C_27
    6  A    between atoms: C_19  and  C_29
                            x       y       z     vdW  Elec       q    Type
                         _______ _______ _______ _____ _____    ______ ____

>  <TORSDO>
F 6

$$$$
=
 OpenBabel11052417113D

 30 32  0  0  1  0  0  0  0  0999 V2000
  194.1650  176.3590  144.0950 C   0  0  0  0  0  0  0  0  0  0  0  0
  194.8770  176.4830  145.2900 C   0  0  0  0  0  3  0  0  0  0  0  0
  194.8550  176.3850  142.8890 O   0  0  0  0  0  1  0  0  0  0  0  0
  192.0870  176.1940  145.3620 C   0  0  0  0  0  0  0  0  0  0  0  0
  194.2070  176.4620  146.5130 C   0  0  0  0  0  3  0  0  0  0  0  0
  192.7650  176.2090  144.1180 C   0  0  0  0  0  0  0  0  0  0  0  0
  192.8200  176.3200  146.5470 C   0  0  0  0  0  3  0  0  0  0  0  0
  188.9770  174.5380  146.5560 C   0  0  0  0  0  3  0  0  0  0  0  0
  185.8410  176.8150  147.7510 O   0  0  0  0  0  0  0  0  0  0  0  0
  188.1810  175.6780  146.9120 N   0  0  0  0  0  0  0  0  0  0  0  0
  190.1440  174.6820  145.9270 C   0  0  0  0  0  0  0  0  0  0  0  0
  186.4260  177.9240  147.6380 C   0  0  0  0  0  0  0  0  0  0  0  0
  187.7710  178.0080  147.1560 N   0  0  0  0  0  2  0  0  0  0  0  0
  190.0120  177.1820  146.3500 C   0  0  0  0  0  2  0  0  0  0  0  0
  190.8770  173.4560  145.5000 C   0  0  0  0  0  1  0  0  0  0  0  0
  188.6010  176.9020  146.7790 C   0  0  0  0  0  0  0  0  0  0  0  0
  185.7060  179.1700  148.0090 C   0  0  0  0  0  1  0  0  0  0  0  0
  190.5910  176.0570  145.4830 C   0  0  1  0  0  3  0  0  0  0  0  0
  192.0140  176.0650  142.8290 C   0  0  0  0  0  2  0  0  0  0  0  0
  190.9250  177.1160  142.7280 C   0  0  0  0  0  2  0  0  0  0  0  0
  189.6090  176.4410  142.3940 C   0  0  0  0  0  2  0  0  0  0  0  0
  188.5400  177.4660  142.0270 C   0  0  2  0  0  3  0  0  0  0  0  0
  189.1580  178.6530  141.6380 O   0  0  0  0  0  1  0  0  0  0  0  0
  185.7370  176.9860  144.1360 C   0  0  0  0  0  2  0  0  0  0  0  0
  187.5650  177.7550  143.1700 C   0  0  1  0  0  3  0  0  0  0  0  0
  185.4680  178.3380  143.5390 C   0  0  2  0  0  0  0  0  0  0  0  0
  186.5780  178.6670  142.7650 O   0  0  0  0  0  0  0  0  0  0  0  0
  186.9780  176.5740  143.6550 O   0  0  0  0  0  0  0  0  0  0  0  0
  185.2990  179.2810  144.5530 O   0  0  0  0  0  1  0  0  0  0  0  0
  184.2280  178.2900  142.6710 C   0  0  0  0  0  1  0  0  0  0  0  0
  1  6  2  0  0  0  0
  1  2  1  0  0  0  0
  2  5  2  0  0  0  0
  3  1  1  0  0  0  0
  4  7  2  0  0  0  0
  5  7  1  0  0  0  0
  6  4  1  0  0  0  0
  8 10  1  0  0  0  0
 11  8  2  0  0  0  0
 12  9  2  0  0  0  0
 12 17  1  0  0  0  0
 13 12  1  0  0  0  0
 14 16  1  0  0  0  0
 15 11  1  0  0  0  0
 16 10  2  0  0  0  0
 16 13  1  0  0  0  0
 18  4  1  1  0  0  0
 18 11  1  0  0  0  0
 18 14  1  0  0  0  0
 19  6  1  0  0  0  0
 20 19  1  0  0  0  0
 21 20  1  0  0  0  0
 22 23  1  1  0  0  0
 22 21  1  0  0  0  0
 25 22  1  6  0  0  0
 25 28  1  0  0  0  0
 26 30  1  6  0  0  0
 26 24  1  0  0  0  0
 26 29  1  0  0  0  0
 27 25  1  0  0  0  0
 27 26  1  0  0  0  0
 28 24  1  0  0  0  0
M  END
>  <MODEL>
9

>  <REMARK>
 VINA RESULT:      -7.4      3.866      7.169
  Name = 
  6 active torsions:
  status: ('A' for Active; 'I' for Inactive)
    1  A    between atoms: C_1  and  C_4
    2  A    between atoms: C_1  and  C_5
    3  A    between atoms: C_4  and  C_27
    4  A    between atoms: C_5  and  C_22
    5  A    between atoms: C_8  and  C_27
    6  A    between atoms: C_19  and  C_29
                            x       y       z     vdW  Elec       q    Type
                         _______ _______ _______ _____ _____    ______ ____

>  <TORSDO>
F 6

$$$$
