=
 OpenBabel11052420553D

 43 49  0  0  1  0  0  0  0  0999 V2000
  185.4520  178.3830  144.0660 C   0  0  0  0  0  0  0  0  0  0  0  0
  189.6170  175.3950  144.6610 C   0  0  0  0  0  0  0  0  0  0  0  0
  189.5330  173.5990  142.4020 C   0  0  0  0  0  0  0  0  0  0  0  0
  187.5400  177.3910  144.8750 C   0  0  0  0  0  0  0  0  0  0  0  0
  185.3880  177.4030  143.0850 C   0  0  0  0  0  3  0  0  0  0  0  0
  184.3250  179.3100  144.2940 C   0  0  0  0  0  1  0  0  0  0  0  0
  187.5200  176.4090  143.8250 C   0  0  0  0  0  0  0  0  0  0  0  0
  186.5530  178.3470  144.9600 C   0  0  0  0  0  3  0  0  0  0  0  0
  186.3900  176.4600  142.9630 C   0  0  0  0  0  3  0  0  0  0  0  0
  188.5880  174.6210  142.5380 C   0  0  0  0  0  3  0  0  0  0  0  0
  188.5580  175.4900  143.6600 C   0  0  0  0  0  0  0  0  0  0  0  0
  189.5470  176.2640  145.7650 C   0  0  0  0  0  3  0  0  0  0  0  0
  190.6590  174.4370  144.4260 C   0  0  0  0  0  0  0  0  0  0  0  0
  190.5900  173.4870  143.3980 C   0  0  0  0  0  3  0  0  0  0  0  0
  188.5430  177.2480  145.8810 C   0  0  0  0  0  3  0  0  0  0  0  0
  189.4570  172.8850  140.9980 C   0  0  2  0  0  3  0  0  0  0  0  0
  190.6390  172.9950  140.2230 O   0  0  0  0  0  0  0  0  0  0  0  0
  188.2620  173.1450  140.0940 C   0  0  0  0  0  2  0  0  0  0  0  0
  190.2710  173.1740  138.8610 C   0  0  2  0  0  3  0  0  0  0  0  0
  188.8150  172.7460  138.7130 C   0  0  0  0  0  2  0  0  0  0  0  0
  191.4380  172.8500  137.8740 C   0  0  0  0  0  2  0  0  0  0  0  0
  191.8590  174.0220  137.1220 N   0  0  0  0  0  0  0  0  0  0  0  0
  193.9410  173.8810  136.0300 C   0  0  0  0  0  2  0  0  0  0  0  0
  191.5990  173.8880  135.6770 C   0  0  0  0  0  2  0  0  0  0  0  0
  193.2750  174.4210  137.2430 C   0  0  1  0  0  0  0  0  0  0  0  0
  193.3200  175.8040  137.1780 O   0  0  0  0  0  1  0  0  0  0  0  0
  192.9120  173.9660  134.9250 C   0  0  0  0  0  2  0  0  0  0  0  0
  193.9600  173.9870  138.5540 C   0  0  0  0  0  2  0  0  0  0  0  0
  194.1800  175.0930  139.5050 N   0  0  0  0  0  0  0  0  0  0  0  0
  194.4550  174.3290  141.8430 C   0  0  0  0  0  2  0  0  0  0  0  0
  195.9240  175.9820  141.0510 C   0  0  0  0  0  2  0  0  0  0  0  0
  195.2340  175.4560  142.1950 O   0  0  0  0  0  0  0  0  0  0  0  0
  195.6320  175.1590  139.7710 C   0  0  0  0  0  2  0  0  0  0  0  0
  193.4580  174.8020  140.7730 C   0  0  0  0  0  2  0  0  0  0  0  0
  191.6550  174.3340  145.5090 O   0  0  0  0  0  0  0  0  0  0  0  0
  195.1650  172.7270  145.1240 C   0  0  0  0  0  2  0  0  0  0  0  0
  195.8560  173.8910  145.7860 C   0  0  2  0  0  3  0  0  0  0  0  0
  193.8000  175.2130  146.1580 C   0  0  0  0  0  2  0  0  0  0  0  0
  193.6650  172.8340  145.3570 C   0  0  0  0  0  2  0  0  0  0  0  0
  193.0460  174.2250  145.2950 C   0  0  1  0  0  3  0  0  0  0  0  0
  195.2590  175.2900  145.7370 C   0  0  0  0  0  2  0  0  0  0  0  0
  197.7380  174.4410  144.5620 O   0  0  0  0  0  1  0  0  0  0  0  0
  197.3240  173.8560  145.7540 C   0  0  0  0  0  2  0  0  0  0  0  0
  1  6  1  0  0  0  0
  1  8  1  0  0  0  0
  2 12  1  0  0  0  0
  3 10  2  0  0  0  0
  3 14  1  0  0  0  0
  4  8  2  0  0  0  0
  4 15  1  0  0  0  0
  5  1  2  0  0  0  0
  7  4  1  0  0  0  0
  9  5  1  0  0  0  0
  9  7  2  0  0  0  0
 10 11  1  0  0  0  0
 11  7  1  0  0  0  0
 11  2  2  0  0  0  0
 12 15  2  0  0  0  0
 13  2  1  0  0  0  0
 13 35  1  0  0  0  0
 14 13  2  0  0  0  0
 16  3  1  1  0  0  0
 17 16  1  0  0  0  0
 18 16  1  0  0  0  0
 19 21  1  6  0  0  0
 19 17  1  0  0  0  0
 20 19  1  0  0  0  0
 20 18  1  0  0  0  0
 22 25  1  0  0  0  0
 22 21  1  0  0  0  0
 23 25  1  0  0  0  0
 24 22  1  0  0  0  0
 25 26  1  6  0  0  0
 25 28  1  0  0  0  0
 27 24  1  0  0  0  0
 27 23  1  0  0  0  0
 28 29  1  0  0  0  0
 29 33  1  0  0  0  0
 29 34  1  0  0  0  0
 30 32  1  0  0  0  0
 31 32  1  0  0  0  0
 33 31  1  0  0  0  0
 34 30  1  0  0  0  0
 36 39  1  0  0  0  0
 36 37  1  0  0  0  0
 37 43  1  6  0  0  0
 40 39  1  0  0  0  0
 40 35  1  1  0  0  0
 40 38  1  0  0  0  0
 41 37  1  0  0  0  0
 41 38  1  0  0  0  0
 42 43  1  0  0  0  0
M  END
>  <MODEL>
1

>  <REMARK>
 VINA RESULT:      -7.8      0.000      0.000
  Name = 
  8 active torsions:
  status: ('A' for Active; 'I' for Inactive)
    1  A    between atoms: O_1  and  C_34
    2  A    between atoms: O_1  and  C_35
    3  A    between atoms: C_2  and  C_13
    4  A    between atoms: C_3  and  N_4
    5  A    between atoms: C_3  and  C_12
    6  A    between atoms: N_11  and  C_14
    7  A    between atoms: C_14  and  C_22
    8  A    between atoms: C_19  and  C_37
                            x       y       z     vdW  Elec       q    Type
                         _______ _______ _______ _____ _____    ______ ____

>  <TORSDO>
F 8

$$$$
=
 OpenBabel11052420553D

 43 49  0  0  1  0  0  0  0  0999 V2000
  185.7160  177.7470  146.6480 C   0  0  0  0  0  0  0  0  0  0  0  0
  188.7250  175.7300  142.9730 C   0  0  0  0  0  0  0  0  0  0  0  0
  191.4130  176.2030  143.9160 C   0  0  0  0  0  0  0  0  0  0  0  0
  186.5380  176.5980  144.6480 C   0  0  0  0  0  0  0  0  0  0  0  0
  187.0250  178.0710  146.9770 C   0  0  0  0  0  3  0  0  0  0  0  0
  184.5780  178.3150  147.3990 C   0  0  0  0  0  1  0  0  0  0  0  0
  187.9010  176.8710  145.0090 C   0  0  0  0  0  0  0  0  0  0  0  0
  185.5020  177.0030  145.4600 C   0  0  0  0  0  3  0  0  0  0  0  0
  188.0780  177.6390  146.1930 C   0  0  0  0  0  3  0  0  0  0  0  0
  190.3090  176.5500  144.7010 C   0  0  0  0  0  3  0  0  0  0  0  0
  188.9720  176.3880  144.2530 C   0  0  0  0  0  0  0  0  0  0  0  0
  187.3870  175.5990  142.5570 C   0  0  0  0  0  3  0  0  0  0  0  0
  189.8680  175.2490  142.2510 C   0  0  0  0  0  0  0  0  0  0  0  0
  191.1820  175.5530  142.6330 C   0  0  0  0  0  3  0  0  0  0  0  0
  186.3080  176.0110  143.3660 C   0  0  0  0  0  3  0  0  0  0  0  0
  192.7770  176.3240  144.6990 C   0  0  2  0  0  3  0  0  0  0  0  0
  193.7870  175.4350  144.2520 O   0  0  0  0  0  0  0  0  0  0  0  0
  192.7660  176.3170  146.2190 C   0  0  0  0  0  2  0  0  0  0  0  0
  194.5080  174.9660  145.3840 C   0  0  2  0  0  3  0  0  0  0  0  0
  194.2140  175.9100  146.5450 C   0  0  0  0  0  2  0  0  0  0  0  0
  195.8990  174.3660  145.0060 C   0  0  0  0  0  2  0  0  0  0  0  0
  195.8050  172.9660  144.6210 N   0  0  0  0  0  0  0  0  0  0  0  0
  197.8260  171.7610  144.5220 C   0  0  0  0  0  2  0  0  0  0  0  0
  195.8430  172.0580  145.7820 C   0  0  0  0  0  2  0  0  0  0  0  0
  196.8220  172.4600  143.6800 C   0  0  1  0  0  0  0  0  0  0  0  0
  196.2060  171.5170  142.8740 O   0  0  0  0  0  1  0  0  0  0  0  0
  197.0450  171.1460  145.6620 C   0  0  0  0  0  2  0  0  0  0  0  0
  197.4440  173.5320  142.7620 C   0  0  0  0  0  2  0  0  0  0  0  0
  196.8490  173.5790  141.4130 N   0  0  0  0  0  0  0  0  0  0  0  0
  196.4160  175.8810  140.6160 C   0  0  0  0  0  2  0  0  0  0  0  0
  197.3760  174.3610  139.1040 C   0  0  0  0  0  2  0  0  0  0  0  0
  196.5240  175.5070  139.2560 O   0  0  0  0  0  0  0  0  0  0  0  0
  197.9410  173.8770  140.4640 C   0  0  0  0  0  2  0  0  0  0  0  0
  195.8360  174.6670  141.3590 C   0  0  0  0  0  2  0  0  0  0  0  0
  189.5610  174.6650  140.9320 O   0  0  0  0  0  0  0  0  0  0  0  0
  190.3760  170.8880  141.2810 C   0  0  0  0  0  2  0  0  0  0  0  0
  191.3270  170.9060  140.1130 C   0  0  2  0  0  3  0  0  0  0  0  0
  191.0140  173.3010  139.5830 C   0  0  0  0  0  2  0  0  0  0  0  0
  190.0490  172.3180  141.6860 C   0  0  0  0  0  2  0  0  0  0  0  0
  189.8650  173.3370  140.5660 C   0  0  1  0  0  3  0  0  0  0  0  0
  191.1650  171.9110  138.9820 C   0  0  0  0  0  2  0  0  0  0  0  0
  190.7420  168.7450  139.5370 O   0  0  0  0  0  1  0  0  0  0  0  0
  191.8340  169.5930  139.6900 C   0  0  0  0  0  2  0  0  0  0  0  0
  1  5  1  0  0  0  0
  1  6  1  0  0  0  0
  2 11  1  0  0  0  0
  3 10  1  0  0  0  0
  4  7  2  0  0  0  0
  4  8  1  0  0  0  0
  7  9  1  0  0  0  0
  8  1  2  0  0  0  0
  9  5  2  0  0  0  0
 11 10  2  0  0  0  0
 11  7  1  0  0  0  0
 12  2  1  0  0  0  0
 12 15  2  0  0  0  0
 13 14  1  0  0  0  0
 13  2  2  0  0  0  0
 14  3  2  0  0  0  0
 15  4  1  0  0  0  0
 16  3  1  6  0  0  0
 16 18  1  0  0  0  0
 17 16  1  0  0  0  0
 17 19  1  0  0  0  0
 18 20  1  0  0  0  0
 19 21  1  6  0  0  0
 19 20  1  0  0  0  0
 22 21  1  0  0  0  0
 22 24  1  0  0  0  0
 23 27  1  0  0  0  0
 25 26  1  6  0  0  0
 25 23  1  0  0  0  0
 25 22  1  0  0  0  0
 27 24  1  0  0  0  0
 28 25  1  0  0  0  0
 29 28  1  0  0  0  0
 30 34  1  0  0  0  0
 31 32  1  0  0  0  0
 31 33  1  0  0  0  0
 32 30  1  0  0  0  0
 33 29  1  0  0  0  0
 34 29  1  0  0  0  0
 35 13  1  0  0  0  0
 36 39  1  0  0  0  0
 37 43  1  6  0  0  0
 37 36  1  0  0  0  0
 38 40  1  0  0  0  0
 40 35  1  1  0  0  0
 40 39  1  0  0  0  0
 41 38  1  0  0  0  0
 41 37  1  0  0  0  0
 42 43  1  0  0  0  0
M  END
>  <MODEL>
2

>  <REMARK>
 VINA RESULT:      -7.7      2.450      6.170
  Name = 
  8 active torsions:
  status: ('A' for Active; 'I' for Inactive)
    1  A    between atoms: O_1  and  C_34
    2  A    between atoms: O_1  and  C_35
    3  A    between atoms: C_2  and  C_13
    4  A    between atoms: C_3  and  N_4
    5  A    between atoms: C_3  and  C_12
    6  A    between atoms: N_11  and  C_14
    7  A    between atoms: C_14  and  C_22
    8  A    between atoms: C_19  and  C_37
                            x       y       z     vdW  Elec       q    Type
                         _______ _______ _______ _____ _____    ______ ____

>  <TORSDO>
F 8

$$$$
=
 OpenBabel11052420553D

 43 49  0  0  1  0  0  0  0  0999 V2000
  196.3300  174.1500  144.8510 C   0  0  0  0  0  0  0  0  0  0  0  0
  191.2950  175.2470  145.1100 C   0  0  0  0  0  0  0  0  0  0  0  0
  190.2100  174.1940  142.6500 C   0  0  0  0  0  0  0  0  0  0  0  0
  194.1200  174.8940  145.5970 C   0  0  0  0  0  0  0  0  0  0  0  0
  195.7770  173.7930  143.6280 C   0  0  0  0  0  3  0  0  0  0  0  0
  197.7920  174.1290  145.0620 C   0  0  0  0  0  1  0  0  0  0  0  0
  193.5220  174.4710  144.3600 C   0  0  0  0  0  0  0  0  0  0  0  0
  195.4650  174.7080  145.8260 C   0  0  0  0  0  3  0  0  0  0  0  0
  194.4230  173.9380  143.3970 C   0  0  0  0  0  3  0  0  0  0  0  0
  191.5580  174.0110  142.9720 C   0  0  0  0  0  3  0  0  0  0  0  0
  192.1450  174.5600  144.1420 C   0  0  0  0  0  0  0  0  0  0  0  0
  191.9140  175.7880  146.2510 C   0  0  0  0  0  3  0  0  0  0  0  0
  189.8880  175.2940  144.8300 C   0  0  0  0  0  0  0  0  0  0  0  0
  189.3510  174.8850  143.6020 C   0  0  0  0  0  3  0  0  0  0  0  0
  193.2910  175.6190  146.5070 C   0  0  0  0  0  3  0  0  0  0  0  0
  189.7670  173.3510  141.3930 C   0  0  2  0  0  3  0  0  0  0  0  0
  190.6440  173.4530  140.2840 O   0  0  0  0  0  0  0  0  0  0  0  0
  188.3360  173.4620  140.8880 C   0  0  0  0  0  2  0  0  0  0  0  0
  189.8650  173.4860  139.0940 C   0  0  2  0  0  3  0  0  0  0  0  0
  188.4730  172.9680  139.4360 C   0  0  0  0  0  2  0  0  0  0  0  0
  190.6980  173.1360  137.8190 C   0  0  0  0  0  2  0  0  0  0  0  0
  190.8900  174.2920  136.9570 N   0  0  0  0  0  0  0  0  0  0  0  0
  192.2720  173.9860  135.0750 C   0  0  0  0  0  2  0  0  0  0  0  0
  190.0220  174.2570  135.7650 C   0  0  0  0  0  2  0  0  0  0  0  0
  192.2560  174.5340  136.4550 C   0  0  1  0  0  0  0  0  0  0  0  0
  192.4280  175.9060  136.3750 O   0  0  0  0  0  1  0  0  0  0  0  0
  190.8850  174.2330  134.5210 C   0  0  0  0  0  2  0  0  0  0  0  0
  193.3810  173.9670  137.3440 C   0  0  0  0  0  2  0  0  0  0  0  0
  194.3510  174.9820  137.7980 N   0  0  0  0  0  0  0  0  0  0  0  0
  195.6100  174.2970  139.8140 C   0  0  0  0  0  2  0  0  0  0  0  0
  196.8080  175.3100  138.0670 C   0  0  0  0  0  2  0  0  0  0  0  0
  196.7190  175.1110  139.4860 O   0  0  0  0  0  0  0  0  0  0  0  0
  195.6800  174.5670  137.3070 C   0  0  0  0  0  2  0  0  0  0  0  0
  194.3620  175.0220  139.2850 C   0  0  0  0  0  2  0  0  0  0  0  0
  189.0930  176.0670  145.8030 O   0  0  0  0  0  0  0  0  0  0  0  0
  186.3070  178.4400  144.5170 C   0  0  0  0  0  2  0  0  0  0  0  0
  185.4260  178.1780  145.7110 C   0  0  2  0  0  3  0  0  0  0  0  0
  186.9640  176.5780  146.8010 C   0  0  0  0  0  2  0  0  0  0  0  0
  187.7020  177.9000  144.7940 C   0  0  0  0  0  2  0  0  0  0  0  0
  187.8040  176.5760  145.5430 C   0  0  1  0  0  3  0  0  0  0  0  0
  185.5060  176.8640  146.4740 C   0  0  0  0  0  2  0  0  0  0  0  0
  183.8870  179.2370  144.3490 O   0  0  0  0  0  1  0  0  0  0  0  0
  184.0770  178.7570  145.6400 C   0  0  0  0  0  2  0  0  0  0  0  0
  1  6  1  0  0  0  0
  1  8  1  0  0  0  0
  2 12  1  0  0  0  0
  3 10  2  0  0  0  0
  3 14  1  0  0  0  0
  4  8  2  0  0  0  0
  4 15  1  0  0  0  0
  5  1  2  0  0  0  0
  7  4  1  0  0  0  0
  9  5  1  0  0  0  0
  9  7  2  0  0  0  0
 10 11  1  0  0  0  0
 11  7  1  0  0  0  0
 11  2  2  0  0  0  0
 12 15  2  0  0  0  0
 13  2  1  0  0  0  0
 13 35  1  0  0  0  0
 14 13  2  0  0  0  0
 16  3  1  1  0  0  0
 17 16  1  0  0  0  0
 18 16  1  0  0  0  0
 19 21  1  6  0  0  0
 19 20  1  0  0  0  0
 19 17  1  0  0  0  0
 20 18  1  0  0  0  0
 22 21  1  0  0  0  0
 23 25  1  0  0  0  0
 24 22  1  0  0  0  0
 25 26  1  6  0  0  0
 25 22  1  0  0  0  0
 25 28  1  0  0  0  0
 27 23  1  0  0  0  0
 27 24  1  0  0  0  0
 28 29  1  0  0  0  0
 29 34  1  0  0  0  0
 31 32  1  0  0  0  0
 32 30  1  0  0  0  0
 33 29  1  0  0  0  0
 33 31  1  0  0  0  0
 34 30  1  0  0  0  0
 36 39  1  0  0  0  0
 36 37  1  0  0  0  0
 37 43  1  6  0  0  0
 37 41  1  0  0  0  0
 39 40  1  0  0  0  0
 40 35  1  1  0  0  0
 40 38  1  0  0  0  0
 41 38  1  0  0  0  0
 42 43  1  0  0  0  0
M  END
>  <MODEL>
3

>  <REMARK>
 VINA RESULT:      -7.6      1.981      6.375
  Name = 
  8 active torsions:
  status: ('A' for Active; 'I' for Inactive)
    1  A    between atoms: O_1  and  C_34
    2  A    between atoms: O_1  and  C_35
    3  A    between atoms: C_2  and  C_13
    4  A    between atoms: C_3  and  N_4
    5  A    between atoms: C_3  and  C_12
    6  A    between atoms: N_11  and  C_14
    7  A    between atoms: C_14  and  C_22
    8  A    between atoms: C_19  and  C_37
                            x       y       z     vdW  Elec       q    Type
                         _______ _______ _______ _____ _____    ______ ____

>  <TORSDO>
F 8

$$$$
=
 OpenBabel11052420553D

 43 49  0  0  1  0  0  0  0  0999 V2000
  196.6980  169.8050  146.2130 C   0  0  0  0  0  0  0  0  0  0  0  0
  196.0080  174.2960  143.7680 C   0  0  0  0  0  0  0  0  0  0  0  0
  193.2530  174.9790  144.2970 C   0  0  0  0  0  0  0  0  0  0  0  0
  197.0420  171.8640  144.9330 C   0  0  0  0  0  0  0  0  0  0  0  0
  195.3480  170.1140  146.3120 C   0  0  0  0  0  3  0  0  0  0  0  0
  197.2160  168.4950  146.6580 C   0  0  0  0  0  1  0  0  0  0  0  0
  195.6600  172.2280  145.0820 C   0  0  0  0  0  0  0  0  0  0  0  0
  197.5290  170.7100  145.5050 C   0  0  0  0  0  3  0  0  0  0  0  0
  194.8520  171.2870  145.7770 C   0  0  0  0  0  3  0  0  0  0  0  0
  193.8320  173.8430  144.8730 C   0  0  0  0  0  3  0  0  0  0  0  0
  195.1640  173.4400  144.5950 C   0  0  0  0  0  0  0  0  0  0  0  0
  197.3190  173.8570  143.5040 C   0  0  0  0  0  3  0  0  0  0  0  0
  195.4410  175.5310  143.3080 C   0  0  0  0  0  0  0  0  0  0  0  0
  194.0820  175.8380  143.4620 C   0  0  0  0  0  3  0  0  0  0  0  0
  197.8410  172.6760  144.0710 C   0  0  0  0  0  3  0  0  0  0  0  0
  191.8280  175.3010  144.8900 C   0  0  2  0  0  3  0  0  0  0  0  0
  190.7480  174.8560  144.0860 O   0  0  0  0  0  0  0  0  0  0  0  0
  191.5230  176.7110  145.3700 C   0  0  0  0  0  2  0  0  0  0  0  0
  189.7170  175.8350  144.1340 C   0  0  2  0  0  3  0  0  0  0  0  0
  189.9840  176.7320  145.3380 C   0  0  0  0  0  2  0  0  0  0  0  0
  188.3310  175.2720  143.6860 C   0  0  0  0  0  2  0  0  0  0  0  0
  187.7790  176.0100  142.5600 N   0  0  0  0  0  0  0  0  0  0  0  0
  187.4520  178.3210  142.8720 C   0  0  0  0  0  2  0  0  0  0  0  0
  188.8160  176.7180  141.7870 C   0  0  0  0  0  2  0  0  0  0  0  0
  186.7430  177.0160  142.8610 C   0  0  1  0  0  0  0  0  0  0  0  0
  185.8520  177.0200  141.8010 O   0  0  0  0  0  1  0  0  0  0  0  0
  188.5370  178.2060  141.8240 C   0  0  0  0  0  2  0  0  0  0  0  0
  185.9420  176.7520  144.1520 C   0  0  0  0  0  2  0  0  0  0  0  0
  186.1620  177.7610  145.2060 N   0  0  0  0  0  0  0  0  0  0  0  0
  184.1660  178.1540  146.6140 C   0  0  0  0  0  2  0  0  0  0  0  0
  186.2440  177.9600  147.6910 C   0  0  0  0  0  2  0  0  0  0  0  0
  184.9400  178.5620  147.7240 O   0  0  0  0  0  0  0  0  0  0  0  0
  186.4200  177.0300  146.4640 C   0  0  0  0  0  2  0  0  0  0  0  0
  184.9370  178.5900  145.3570 C   0  0  0  0  0  2  0  0  0  0  0  0
  196.3140  176.3140  142.4140 O   0  0  0  0  0  0  0  0  0  0  0  0
  195.3300  175.1640  138.8420 C   0  0  0  0  0  2  0  0  0  0  0  0
  196.7620  174.9200  138.4430 C   0  0  2  0  0  3  0  0  0  0  0  0
  197.7390  175.6260  140.6010 C   0  0  0  0  0  2  0  0  0  0  0  0
  195.2530  175.3500  140.3510 C   0  0  0  0  0  2  0  0  0  0  0  0
  196.3770  176.1360  141.0160 C   0  0  1  0  0  3  0  0  0  0  0  0
  197.9020  175.6920  139.0900 C   0  0  0  0  0  2  0  0  0  0  0  0
  197.2880  175.7760  136.3610 O   0  0  0  0  0  1  0  0  0  0  0  0
  196.9760  174.5950  137.0260 C   0  0  0  0  0  2  0  0  0  0  0  0
  1  5  1  0  0  0  0
  1  6  1  0  0  0  0
  2 11  1  0  0  0  0
  3 10  1  0  0  0  0
  4  7  2  0  0  0  0
  4  8  1  0  0  0  0
  7  9  1  0  0  0  0
  8  1  2  0  0  0  0
  9  5  2  0  0  0  0
 11 10  2  0  0  0  0
 11  7  1  0  0  0  0
 12  2  1  0  0  0  0
 12 15  2  0  0  0  0
 13 14  1  0  0  0  0
 13  2  2  0  0  0  0
 14  3  2  0  0  0  0
 15  4  1  0  0  0  0
 16  3  1  6  0  0  0
 16 18  1  0  0  0  0
 17 19  1  0  0  0  0
 17 16  1  0  0  0  0
 19 21  1  1  0  0  0
 19 20  1  0  0  0  0
 20 18  1  0  0  0  0
 22 25  1  0  0  0  0
 22 21  1  0  0  0  0
 24 27  1  0  0  0  0
 24 22  1  0  0  0  0
 25 26  1  6  0  0  0
 25 23  1  0  0  0  0
 25 28  1  0  0  0  0
 27 23  1  0  0  0  0
 28 29  1  0  0  0  0
 29 34  1  0  0  0  0
 29 33  1  0  0  0  0
 30 32  1  0  0  0  0
 31 32  1  0  0  0  0
 33 31  1  0  0  0  0
 34 30  1  0  0  0  0
 35 13  1  0  0  0  0
 36 39  1  0  0  0  0
 37 43  1  6  0  0  0
 37 36  1  0  0  0  0
 37 41  1  0  0  0  0
 38 40  1  0  0  0  0
 39 40  1  0  0  0  0
 40 35  1  1  0  0  0
 41 38  1  0  0  0  0
 42 43  1  0  0  0  0
M  END
>  <MODEL>
4

>  <REMARK>
 VINA RESULT:      -7.6      3.220      9.076
  Name = 
  8 active torsions:
  status: ('A' for Active; 'I' for Inactive)
    1  A    between atoms: O_1  and  C_34
    2  A    between atoms: O_1  and  C_35
    3  A    between atoms: C_2  and  C_13
    4  A    between atoms: C_3  and  N_4
    5  A    between atoms: C_3  and  C_12
    6  A    between atoms: N_11  and  C_14
    7  A    between atoms: C_14  and  C_22
    8  A    between atoms: C_19  and  C_37
                            x       y       z     vdW  Elec       q    Type
                         _______ _______ _______ _____ _____    ______ ____

>  <TORSDO>
F 8

$$$$
=
 OpenBabel11052420553D

 43 49  0  0  1  0  0  0  0  0999 V2000
  190.9490  170.6990  136.1140 C   0  0  0  0  0  0  0  0  0  0  0  0
  188.8950  173.8560  139.6410 C   0  0  0  0  0  0  0  0  0  0  0  0
  190.1380  173.0560  142.1210 C   0  0  0  0  0  0  0  0  0  0  0  0
  189.6830  172.4730  137.2310 C   0  0  0  0  0  0  0  0  0  0  0  0
  191.4030  170.2680  137.3530 C   0  0  0  0  0  3  0  0  0  0  0  0
  191.2080  169.9130  134.8900 C   0  0  0  0  0  1  0  0  0  0  0  0
  190.1950  172.0770  138.5140 C   0  0  0  0  0  0  0  0  0  0  0  0
  190.0760  171.8170  136.0860 C   0  0  0  0  0  3  0  0  0  0  0  0
  191.0480  170.9390  138.5070 C   0  0  0  0  0  3  0  0  0  0  0  0
  190.5120  172.4640  140.9110 C   0  0  0  0  0  3  0  0  0  0  0  0
  189.8880  172.7860  139.6780 C   0  0  0  0  0  0  0  0  0  0  0  0
  188.2890  174.1380  138.4030 C   0  0  0  0  0  3  0  0  0  0  0  0
  188.6320  174.5510  140.8680 C   0  0  0  0  0  0  0  0  0  0  0  0
  189.1420  174.1190  142.1010 C   0  0  0  0  0  3  0  0  0  0  0  0
  188.6680  173.4770  137.2160 C   0  0  0  0  0  3  0  0  0  0  0  0
  191.0880  172.6530  143.3130 C   0  0  2  0  0  3  0  0  0  0  0  0
  191.8880  173.7150  143.8060 O   0  0  0  0  0  0  0  0  0  0  0  0
  191.9590  171.4130  143.1850 C   0  0  0  0  0  2  0  0  0  0  0  0
  193.1740  173.2010  144.1270 C   0  0  2  0  0  3  0  0  0  0  0  0
  193.0540  171.6840  144.2340 C   0  0  0  0  0  2  0  0  0  0  0  0
  193.9750  174.1370  145.0870 C   0  0  0  0  0  2  0  0  0  0  0  0
  193.8890  175.5330  144.6880 N   0  0  0  0  0  0  0  0  0  0  0  0
  194.1430  177.1360  146.3940 C   0  0  0  0  0  2  0  0  0  0  0  0
  195.2150  176.1560  144.5230 C   0  0  0  0  0  2  0  0  0  0  0  0
  193.1250  176.4360  145.5700 C   0  0  1  0  0  0  0  0  0  0  0  0
  192.5060  177.3760  144.7620 O   0  0  0  0  0  1  0  0  0  0  0  0
  195.3480  177.3090  145.4960 C   0  0  0  0  0  2  0  0  0  0  0  0
  192.0340  175.7460  146.4130 C   0  0  0  0  0  2  0  0  0  0  0  0
  190.6590  176.0740  145.9920 N   0  0  0  0  0  0  0  0  0  0  0  0
  188.9270  174.8900  147.3040 C   0  0  0  0  0  2  0  0  0  0  0  0
  188.5930  177.1710  146.8560 C   0  0  0  0  0  2  0  0  0  0  0  0
  187.9630  175.9000  147.0780 O   0  0  0  0  0  0  0  0  0  0  0  0
  190.1370  177.0750  146.9450 C   0  0  0  0  0  2  0  0  0  0  0  0
  189.8200  174.8480  146.0530 C   0  0  0  0  0  2  0  0  0  0  0  0
  187.5660  175.5660  140.7850 O   0  0  0  0  0  0  0  0  0  0  0  0
  185.9240  177.0230  143.9840 C   0  0  0  0  0  2  0  0  0  0  0  0
  185.8590  178.4140  143.4100 C   0  0  2  0  0  3  0  0  0  0  0  0
  186.9200  177.8370  141.2530 C   0  0  0  0  0  2  0  0  0  0  0  0
  186.2480  176.0350  142.8720 C   0  0  0  0  0  2  0  0  0  0  0  0
  187.2590  176.4760  141.8190 C   0  0  1  0  0  3  0  0  0  0  0  0
  186.8560  178.8790  142.3590 C   0  0  0  0  0  2  0  0  0  0  0  0
  185.9150  179.1360  145.6050 O   0  0  0  0  0  1  0  0  0  0  0  0
  185.4290  179.4640  144.3440 C   0  0  0  0  0  2  0  0  0  0  0  0
  1  5  1  0  0  0  0
  2 11  1  0  0  0  0
  2 13  1  0  0  0  0
  4  7  1  0  0  0  0
  5  9  2  0  0  0  0
  6  1  1  0  0  0  0
  7 11  2  0  0  0  0
  8  1  2  0  0  0  0
  8  4  1  0  0  0  0
  9  7  1  0  0  0  0
 10  3  2  0  0  0  0
 11 10  1  0  0  0  0
 12  2  2  0  0  0  0
 13 14  2  0  0  0  0
 14  3  1  0  0  0  0
 15  4  2  0  0  0  0
 15 12  1  0  0  0  0
 16  3  1  6  0  0  0
 16 17  1  0  0  0  0
 17 19  1  0  0  0  0
 18 16  1  0  0  0  0
 18 20  1  0  0  0  0
 19 20  1  0  0  0  0
 19 21  1  1  0  0  0
 22 21  1  0  0  0  0
 22 25  1  0  0  0  0
 24 22  1  0  0  0  0
 24 27  1  0  0  0  0
 25 26  1  6  0  0  0
 25 23  1  0  0  0  0
 25 28  1  0  0  0  0
 27 23  1  0  0  0  0
 29 34  1  0  0  0  0
 29 28  1  0  0  0  0
 29 33  1  0  0  0  0
 31 33  1  0  0  0  0
 31 32  1  0  0  0  0
 32 30  1  0  0  0  0
 34 30  1  0  0  0  0
 35 13  1  0  0  0  0
 37 36  1  0  0  0  0
 37 43  1  1  0  0  0
 38 40  1  0  0  0  0
 38 41  1  0  0  0  0
 39 36  1  0  0  0  0
 40 35  1  6  0  0  0
 40 39  1  0  0  0  0
 41 37  1  0  0  0  0
 43 42  1  0  0  0  0
M  END
>  <MODEL>
5

>  <REMARK>
 VINA RESULT:      -7.6      3.058      8.623
  Name = 
  8 active torsions:
  status: ('A' for Active; 'I' for Inactive)
    1  A    between atoms: O_1  and  C_34
    2  A    between atoms: O_1  and  C_35
    3  A    between atoms: C_2  and  C_13
    4  A    between atoms: C_3  and  N_4
    5  A    between atoms: C_3  and  C_12
    6  A    between atoms: N_11  and  C_14
    7  A    between atoms: C_14  and  C_22
    8  A    between atoms: C_19  and  C_37
                            x       y       z     vdW  Elec       q    Type
                         _______ _______ _______ _____ _____    ______ ____

>  <TORSDO>
F 8

$$$$
=
 OpenBabel11052420553D

 43 49  0  0  1  0  0  0  0  0999 V2000
  196.1400  174.0930  144.9660 C   0  0  0  0  0  0  0  0  0  0  0  0
  191.1110  175.2280  145.1750 C   0  0  0  0  0  0  0  0  0  0  0  0
  190.0280  174.1100  142.7430 C   0  0  0  0  0  0  0  0  0  0  0  0
  193.9320  174.8720  145.6830 C   0  0  0  0  0  0  0  0  0  0  0  0
  195.5890  173.7050  143.7530 C   0  0  0  0  0  3  0  0  0  0  0  0
  197.6010  174.0690  145.1840 C   0  0  0  0  0  1  0  0  0  0  0  0
  193.3360  174.4170  144.4570 C   0  0  0  0  0  0  0  0  0  0  0  0
  195.2750  174.6840  145.9220 C   0  0  0  0  0  3  0  0  0  0  0  0
  194.2360  173.8510  143.5130 C   0  0  0  0  0  3  0  0  0  0  0  0
  191.3740  173.9290  143.0750 C   0  0  0  0  0  3  0  0  0  0  0  0
  191.9610  174.5080  144.2310 C   0  0  0  0  0  0  0  0  0  0  0  0
  191.7300  175.7980  146.3030 C   0  0  0  0  0  3  0  0  0  0  0  0
  189.7060  175.2760  144.8890 C   0  0  0  0  0  0  0  0  0  0  0  0
  189.1700  174.8340  143.6720 C   0  0  0  0  0  3  0  0  0  0  0  0
  193.1050  175.6280  146.5680 C   0  0  0  0  0  3  0  0  0  0  0  0
  189.5840  173.2350  141.5090 C   0  0  2  0  0  3  0  0  0  0  0  0
  190.4740  173.2870  140.4070 O   0  0  0  0  0  0  0  0  0  0  0  0
  188.1610  173.3520  140.9860 C   0  0  0  0  0  2  0  0  0  0  0  0
  189.7090  173.2930  139.2080 C   0  0  2  0  0  3  0  0  0  0  0  0
  188.3040  172.8090  139.5520 C   0  0  0  0  0  2  0  0  0  0  0  0
  190.5480  172.8890  137.9550 C   0  0  0  0  0  2  0  0  0  0  0  0
  189.7380  172.8340  136.7480 N   0  0  0  0  0  0  0  0  0  0  0  0
  190.8930  172.9050  134.6970 C   0  0  0  0  0  2  0  0  0  0  0  0
  189.6920  171.4820  136.1610 C   0  0  0  0  0  2  0  0  0  0  0  0
  190.1130  173.7400  135.6460 C   0  0  1  0  0  0  0  0  0  0  0  0
  188.9430  174.1290  135.0150 O   0  0  0  0  0  1  0  0  0  0  0  0
  190.2750  171.5250  134.7640 C   0  0  0  0  0  2  0  0  0  0  0  0
  190.8610  175.0150  136.0850 C   0  0  0  0  0  2  0  0  0  0  0  0
  192.1320  175.2360  135.3690 N   0  0  0  0  0  0  0  0  0  0  0  0
  192.7920  177.6180  135.2640 C   0  0  0  0  0  2  0  0  0  0  0  0
  194.4560  176.0430  135.7800 C   0  0  0  0  0  2  0  0  0  0  0  0
  194.1680  177.3070  135.1620 O   0  0  0  0  0  0  0  0  0  0  0  0
  193.1870  175.3950  136.3910 C   0  0  0  0  0  2  0  0  0  0  0  0
  192.0320  176.4810  134.5620 C   0  0  0  0  0  2  0  0  0  0  0  0
  188.9120  176.0810  145.8360 O   0  0  0  0  0  0  0  0  0  0  0  0
  186.2710  178.5160  144.3720 C   0  0  0  0  0  2  0  0  0  0  0  0
  185.3740  178.3900  145.5760 C   0  0  2  0  0  3  0  0  0  0  0  0
  186.8140  176.7840  146.7840 C   0  0  0  0  0  2  0  0  0  0  0  0
  187.6320  177.9160  144.6940 C   0  0  0  0  0  2  0  0  0  0  0  0
  187.6540  176.6440  145.5340 C   0  0  1  0  0  3  0  0  0  0  0  0
  185.3760  177.1310  146.4310 C   0  0  0  0  0  2  0  0  0  0  0  0
  183.7040  179.0360  144.1150 O   0  0  0  0  0  1  0  0  0  0  0  0
  184.0620  179.0410  145.4580 C   0  0  0  0  0  2  0  0  0  0  0  0
  1  6  1  0  0  0  0
  1  8  1  0  0  0  0
  2 12  1  0  0  0  0
  3 10  2  0  0  0  0
  3 14  1  0  0  0  0
  4  8  2  0  0  0  0
  4 15  1  0  0  0  0
  5  1  2  0  0  0  0
  7  4  1  0  0  0  0
  9  5  1  0  0  0  0
  9  7  2  0  0  0  0
 10 11  1  0  0  0  0
 11  7  1  0  0  0  0
 11  2  2  0  0  0  0
 12 15  2  0  0  0  0
 13  2  1  0  0  0  0
 13 35  1  0  0  0  0
 14 13  2  0  0  0  0
 16  3  1  1  0  0  0
 17 16  1  0  0  0  0
 18 16  1  0  0  0  0
 19 21  1  6  0  0  0
 19 20  1  0  0  0  0
 19 17  1  0  0  0  0
 20 18  1  0  0  0  0
 22 21  1  0  0  0  0
 23 27  1  0  0  0  0
 23 25  1  0  0  0  0
 24 22  1  0  0  0  0
 25 26  1  6  0  0  0
 25 28  1  0  0  0  0
 25 22  1  0  0  0  0
 27 24  1  0  0  0  0
 29 28  1  0  0  0  0
 29 33  1  0  0  0  0
 31 33  1  0  0  0  0
 32 30  1  0  0  0  0
 32 31  1  0  0  0  0
 34 30  1  0  0  0  0
 34 29  1  0  0  0  0
 36 39  1  0  0  0  0
 36 37  1  0  0  0  0
 37 43  1  6  0  0  0
 37 41  1  0  0  0  0
 39 40  1  0  0  0  0
 40 35  1  1  0  0  0
 40 38  1  0  0  0  0
 41 38  1  0  0  0  0
 42 43  1  0  0  0  0
M  END
>  <MODEL>
6

>  <REMARK>
 VINA RESULT:      -7.5      2.375      6.838
  Name = 
  8 active torsions:
  status: ('A' for Active; 'I' for Inactive)
    1  A    between atoms: O_1  and  C_34
    2  A    between atoms: O_1  and  C_35
    3  A    between atoms: C_2  and  C_13
    4  A    between atoms: C_3  and  N_4
    5  A    between atoms: C_3  and  C_12
    6  A    between atoms: N_11  and  C_14
    7  A    between atoms: C_14  and  C_22
    8  A    between atoms: C_19  and  C_37
                            x       y       z     vdW  Elec       q    Type
                         _______ _______ _______ _____ _____    ______ ____

>  <TORSDO>
F 8

$$$$
=
 OpenBabel11052420553D

 43 49  0  0  1  0  0  0  0  0999 V2000
  196.5940  171.0220  144.9000 C   0  0  0  0  0  0  0  0  0  0  0  0
  191.9720  171.7080  142.7110 C   0  0  0  0  0  0  0  0  0  0  0  0
  190.7010  173.7200  144.3470 C   0  0  0  0  0  0  0  0  0  0  0  0
  194.6600  170.9100  143.4020 C   0  0  0  0  0  0  0  0  0  0  0  0
  195.8790  171.8770  145.7280 C   0  0  0  0  0  3  0  0  0  0  0  0
  197.9020  170.4760  145.3140 C   0  0  0  0  0  1  0  0  0  0  0  0
  193.9320  171.8440  144.2160 C   0  0  0  0  0  0  0  0  0  0  0  0
  195.9470  170.5470  143.7310 C   0  0  0  0  0  3  0  0  0  0  0  0
  194.6010  172.2810  145.3910 C   0  0  0  0  0  3  0  0  0  0  0  0
  192.0200  173.3260  144.5940 C   0  0  0  0  0  3  0  0  0  0  0  0
  192.6630  172.3010  143.8520 C   0  0  0  0  0  0  0  0  0  0  0  0
  192.6360  170.6870  142.0070 C   0  0  0  0  0  3  0  0  0  0  0  0
  190.6760  172.2300  142.3850 C   0  0  0  0  0  0  0  0  0  0  0  0
  189.9950  173.1300  143.2170 C   0  0  0  0  0  3  0  0  0  0  0  0
  193.9520  170.2910  142.3270 C   0  0  0  0  0  3  0  0  0  0  0  0
  190.2760  174.9820  145.1920 C   0  0  2  0  0  3  0  0  0  0  0  0
  188.9250  174.9680  145.6210 O   0  0  0  0  0  0  0  0  0  0  0  0
  190.6010  176.3720  144.6680 C   0  0  0  0  0  2  0  0  0  0  0  0
  188.4100  176.2900  145.5320 C   0  0  2  0  0  3  0  0  0  0  0  0
  189.5940  177.2450  145.4400 C   0  0  0  0  0  2  0  0  0  0  0  0
  187.1200  176.4930  146.3900 C   0  0  0  0  0  2  0  0  0  0  0  0
  186.6790  177.8790  146.3950 N   0  0  0  0  0  0  0  0  0  0  0  0
  184.4180  178.2690  145.8650 C   0  0  0  0  0  2  0  0  0  0  0  0
  185.9830  178.2450  147.6420 C   0  0  0  0  0  2  0  0  0  0  0  0
  185.7900  178.3040  145.2970 C   0  0  1  0  0  0  0  0  0  0  0  0
  186.0990  179.6210  145.0020 O   0  0  0  0  0  1  0  0  0  0  0  0
  184.5660  178.6680  147.3160 C   0  0  0  0  0  2  0  0  0  0  0  0
  185.9280  177.4830  143.9990 C   0  0  0  0  0  2  0  0  0  0  0  0
  185.8780  178.2980  142.7710 N   0  0  0  0  0  0  0  0  0  0  0  0
  186.8420  177.1540  140.8000 C   0  0  0  0  0  2  0  0  0  0  0  0
  184.8190  178.3130  140.5130 C   0  0  0  0  0  2  0  0  0  0  0  0
  186.0430  177.8890  139.8930 O   0  0  0  0  0  0  0  0  0  0  0  0
  184.7190  177.8330  141.9830 C   0  0  0  0  0  2  0  0  0  0  0  0
  187.1260  178.0860  141.9880 C   0  0  0  0  0  2  0  0  0  0  0  0
  189.9960  171.5390  141.2740 O   0  0  0  0  0  0  0  0  0  0  0  0
  191.1870  173.2070  137.9800 C   0  0  0  0  0  2  0  0  0  0  0  0
  189.8270  173.7900  137.6930 C   0  0  2  0  0  3  0  0  0  0  0  0
  188.7290  172.8420  139.6950 C   0  0  0  0  0  2  0  0  0  0  0  0
  191.2240  172.7000  139.4140 C   0  0  0  0  0  2  0  0  0  0  0  0
  189.9700  172.0140  139.9450 C   0  0  1  0  0  3  0  0  0  0  0  0
  188.5610  173.1240  138.2100 C   0  0  0  0  0  2  0  0  0  0  0  0
  188.4270  175.0360  136.3400 O   0  0  0  0  0  1  0  0  0  0  0  0
  189.6810  174.4370  136.3810 C   0  0  0  0  0  2  0  0  0  0  0  0
  1  6  1  0  0  0  0
  1  5  1  0  0  0  0
  2 11  1  0  0  0  0
  3 10  1  0  0  0  0
  4  8  1  0  0  0  0
  4  7  2  0  0  0  0
  7  9  1  0  0  0  0
  8  1  2  0  0  0  0
  9  5  2  0  0  0  0
 11  7  1  0  0  0  0
 11 10  2  0  0  0  0
 12 15  2  0  0  0  0
 12  2  1  0  0  0  0
 13  2  2  0  0  0  0
 13 14  1  0  0  0  0
 14  3  2  0  0  0  0
 15  4  1  0  0  0  0
 16  3  1  6  0  0  0
 16 17  1  0  0  0  0
 18 16  1  0  0  0  0
 18 20  1  0  0  0  0
 19 17  1  0  0  0  0
 19 21  1  1  0  0  0
 20 19  1  0  0  0  0
 21 22  1  0  0  0  0
 22 24  1  0  0  0  0
 23 27  1  0  0  0  0
 25 26  1  6  0  0  0
 25 23  1  0  0  0  0
 25 22  1  0  0  0  0
 27 24  1  0  0  0  0
 28 25  1  0  0  0  0
 29 28  1  0  0  0  0
 30 34  1  0  0  0  0
 31 33  1  0  0  0  0
 32 31  1  0  0  0  0
 32 30  1  0  0  0  0
 33 29  1  0  0  0  0
 34 29  1  0  0  0  0
 35 13  1  0  0  0  0
 36 39  1  0  0  0  0
 37 43  1  6  0  0  0
 37 36  1  0  0  0  0
 37 41  1  0  0  0  0
 38 40  1  0  0  0  0
 39 40  1  0  0  0  0
 40 35  1  1  0  0  0
 41 38  1  0  0  0  0
 42 43  1  0  0  0  0
M  END
>  <MODEL>
7

>  <REMARK>
 VINA RESULT:      -7.5      3.495      9.657
  Name = 
  8 active torsions:
  status: ('A' for Active; 'I' for Inactive)
    1  A    between atoms: O_1  and  C_34
    2  A    between atoms: O_1  and  C_35
    3  A    between atoms: C_2  and  C_13
    4  A    between atoms: C_3  and  N_4
    5  A    between atoms: C_3  and  C_12
    6  A    between atoms: N_11  and  C_14
    7  A    between atoms: C_14  and  C_22
    8  A    between atoms: C_19  and  C_37
                            x       y       z     vdW  Elec       q    Type
                         _______ _______ _______ _____ _____    ______ ____

>  <TORSDO>
F 8

$$$$
=
 OpenBabel11052420553D

 43 49  0  0  1  0  0  0  0  0999 V2000
  189.6230  172.6440  137.8330 C   0  0  0  0  0  0  0  0  0  0  0  0
  191.4900  171.2020  142.4230 C   0  0  0  0  0  0  0  0  0  0  0  0
  191.1800  173.5440  144.0840 C   0  0  0  0  0  0  0  0  0  0  0  0
  190.5620  171.3550  139.6920 C   0  0  0  0  0  0  0  0  0  0  0  0
  189.6330  173.7750  138.6370 C   0  0  0  0  0  3  0  0  0  0  0  0
  189.3070  172.7340  136.3930 C   0  0  0  0  0  1  0  0  0  0  0  0
  190.5180  172.5030  140.5550 C   0  0  0  0  0  0  0  0  0  0  0  0
  190.1040  171.4340  138.3960 C   0  0  0  0  0  3  0  0  0  0  0  0
  190.0530  173.7040  139.9510 C   0  0  0  0  0  3  0  0  0  0  0  0
  190.7050  173.5330  142.7680 C   0  0  0  0  0  3  0  0  0  0  0  0
  190.8870  172.4250  141.9000 C   0  0  0  0  0  0  0  0  0  0  0  0
  191.6640  170.1300  141.5290 C   0  0  0  0  0  3  0  0  0  0  0  0
  191.8360  171.1840  143.8150 C   0  0  0  0  0  0  0  0  0  0  0  0
  191.7920  172.3340  144.6160 C   0  0  0  0  0  3  0  0  0  0  0  0
  191.2110  170.1860  140.1940 C   0  0  0  0  0  3  0  0  0  0  0  0
  190.7100  174.8160  144.8880 C   0  0  2  0  0  3  0  0  0  0  0  0
  189.3630  174.7640  145.3270 O   0  0  0  0  0  0  0  0  0  0  0  0
  190.9780  176.2000  144.3170 C   0  0  0  0  0  2  0  0  0  0  0  0
  188.7950  176.0610  145.1960 C   0  0  2  0  0  3  0  0  0  0  0  0
  189.9410  177.0580  145.0650 C   0  0  0  0  0  2  0  0  0  0  0  0
  187.5030  176.2420  146.0550 C   0  0  0  0  0  2  0  0  0  0  0  0
  187.1040  177.6370  146.1560 N   0  0  0  0  0  0  0  0  0  0  0  0
  184.7940  178.0840  146.0660 C   0  0  0  0  0  2  0  0  0  0  0  0
  186.6650  178.0010  147.5160 C   0  0  0  0  0  2  0  0  0  0  0  0
  186.0350  178.0960  145.2500 C   0  0  1  0  0  0  0  0  0  0  0  0
  186.3150  179.4110  144.9140 O   0  0  0  0  0  1  0  0  0  0  0  0
  185.2230  178.4600  147.4670 C   0  0  0  0  0  2  0  0  0  0  0  0
  185.9060  177.2910  143.9410 C   0  0  0  0  0  2  0  0  0  0  0  0
  186.1410  178.0910  142.7240 N   0  0  0  0  0  0  0  0  0  0  0  0
  187.0660  176.7670  140.8500 C   0  0  0  0  0  2  0  0  0  0  0  0
  185.3440  178.2900  140.3690 C   0  0  0  0  0  2  0  0  0  0  0  0
  186.5220  177.6340  139.8740 O   0  0  0  0  0  0  0  0  0  0  0  0
  185.0020  177.8490  141.8150 C   0  0  0  0  0  2  0  0  0  0  0  0
  187.3990  177.6370  142.0730 C   0  0  0  0  0  2  0  0  0  0  0  0
  192.5120  169.9530  144.2650 O   0  0  0  0  0  0  0  0  0  0  0  0
  196.2560  170.4190  145.1680 C   0  0  0  0  0  2  0  0  0  0  0  0
  196.2890  169.1670  146.0050 C   0  0  2  0  0  3  0  0  0  0  0  0
  193.9100  168.5850  145.6670 C   0  0  0  0  0  2  0  0  0  0  0  0
  194.9750  170.4400  144.3450 C   0  0  0  0  0  2  0  0  0  0  0  0
  193.7040  169.9370  145.0200 C   0  0  1  0  0  3  0  0  0  0  0  0
  195.0350  168.6450  146.6900 C   0  0  0  0  0  2  0  0  0  0  0  0
  197.1810  168.5110  148.0340 O   0  0  0  0  0  1  0  0  0  0  0  0
  197.5300  168.9450  146.7610 C   0  0  0  0  0  2  0  0  0  0  0  0
  1  8  2  0  0  0  0
  1  5  1  0  0  0  0
  2 13  1  0  0  0  0
  3 14  1  0  0  0  0
  4 15  2  0  0  0  0
  4  7  1  0  0  0  0
  5  9  2  0  0  0  0
  6  1  1  0  0  0  0
  7 11  2  0  0  0  0
  8  4  1  0  0  0  0
  9  7  1  0  0  0  0
 10  3  2  0  0  0  0
 11  2  1  0  0  0  0
 11 10  1  0  0  0  0
 12  2  2  0  0  0  0
 13 35  1  0  0  0  0
 13 14  2  0  0  0  0
 15 12  1  0  0  0  0
 16  3  1  6  0  0  0
 16 17  1  0  0  0  0
 18 16  1  0  0  0  0
 18 20  1  0  0  0  0
 19 17  1  0  0  0  0
 19 21  1  1  0  0  0
 20 19  1  0  0  0  0
 21 22  1  0  0  0  0
 22 24  1  0  0  0  0
 23 27  1  0  0  0  0
 25 26  1  6  0  0  0
 25 23  1  0  0  0  0
 25 22  1  0  0  0  0
 27 24  1  0  0  0  0
 28 25  1  0  0  0  0
 29 28  1  0  0  0  0
 30 34  1  0  0  0  0
 31 33  1  0  0  0  0
 32 31  1  0  0  0  0
 32 30  1  0  0  0  0
 33 29  1  0  0  0  0
 34 29  1  0  0  0  0
 36 37  1  0  0  0  0
 37 41  1  0  0  0  0
 37 43  1  1  0  0  0
 38 41  1  0  0  0  0
 39 40  1  0  0  0  0
 39 36  1  0  0  0  0
 40 35  1  6  0  0  0
 40 38  1  0  0  0  0
 43 42  1  0  0  0  0
M  END
>  <MODEL>
8

>  <REMARK>
 VINA RESULT:      -7.3      3.851      8.180
  Name = 
  8 active torsions:
  status: ('A' for Active; 'I' for Inactive)
    1  A    between atoms: O_1  and  C_34
    2  A    between atoms: O_1  and  C_35
    3  A    between atoms: C_2  and  C_13
    4  A    between atoms: C_3  and  N_4
    5  A    between atoms: C_3  and  C_12
    6  A    between atoms: N_11  and  C_14
    7  A    between atoms: C_14  and  C_22
    8  A    between atoms: C_19  and  C_37
                            x       y       z     vdW  Elec       q    Type
                         _______ _______ _______ _____ _____    ______ ____

>  <TORSDO>
F 8

$$$$
=
 OpenBabel11052420553D

 43 49  0  0  1  0  0  0  0  0999 V2000
  185.9020  177.8620  146.7610 C   0  0  0  0  0  0  0  0  0  0  0  0
  188.1050  175.6570  142.6490 C   0  0  0  0  0  0  0  0  0  0  0  0
  190.8330  175.1870  143.4700 C   0  0  0  0  0  0  0  0  0  0  0  0
  186.3060  176.8480  144.5690 C   0  0  0  0  0  0  0  0  0  0  0  0
  187.2560  177.7410  147.0460 C   0  0  0  0  0  3  0  0  0  0  0  0
  184.9970  178.6100  147.6580 C   0  0  0  0  0  1  0  0  0  0  0  0
  187.6970  176.6590  144.8750 C   0  0  0  0  0  0  0  0  0  0  0  0
  185.4530  177.4030  145.4970 C   0  0  0  0  0  3  0  0  0  0  0  0
  188.1170  177.1520  146.1410 C   0  0  0  0  0  3  0  0  0  0  0  0
  189.8970  175.7120  144.3670 C   0  0  0  0  0  3  0  0  0  0  0  0
  188.5620  176.0120  143.9890 C   0  0  0  0  0  0  0  0  0  0  0  0
  186.7790  175.9810  142.3070 C   0  0  0  0  0  3  0  0  0  0  0  0
  189.0400  174.9850  141.7930 C   0  0  0  0  0  0  0  0  0  0  0  0
  190.3940  174.8370  142.1260 C   0  0  0  0  0  3  0  0  0  0  0  0
  185.8860  176.5560  143.2360 C   0  0  0  0  0  3  0  0  0  0  0  0
  192.1890  174.7900  144.1700 C   0  0  2  0  0  3  0  0  0  0  0  0
  192.7310  173.5550  143.7350 O   0  0  0  0  0  0  0  0  0  0  0  0
  192.2910  174.8540  145.6860 C   0  0  0  0  0  2  0  0  0  0  0  0
  193.2910  172.8870  144.8580 C   0  0  2  0  0  3  0  0  0  0  0  0
  193.4820  173.9190  145.9640 C   0  0  0  0  0  2  0  0  0  0  0  0
  194.3020  171.7670  144.4500 C   0  0  0  0  0  2  0  0  0  0  0  0
  194.1580  171.3810  143.0550 N   0  0  0  0  0  0  0  0  0  0  0  0
  196.0280  170.3710  142.0420 C   0  0  0  0  0  2  0  0  0  0  0  0
  193.8590  169.9460  142.8950 C   0  0  0  0  0  2  0  0  0  0  0  0
  195.2990  171.6590  142.1620 C   0  0  1  0  0  0  0  0  0  0  0  0
  194.7800  171.9770  140.9180 O   0  0  0  0  0  1  0  0  0  0  0  0
  194.9670  169.2940  142.0930 C   0  0  0  0  0  2  0  0  0  0  0  0
  196.2010  172.8260  142.6110 C   0  0  0  0  0  2  0  0  0  0  0  0
  195.7150  174.1530  142.1870 N   0  0  0  0  0  0  0  0  0  0  0  0
  197.0280  176.0230  143.1360 C   0  0  0  0  0  2  0  0  0  0  0  0
  196.4440  176.1370  140.8640 C   0  0  0  0  0  2  0  0  0  0  0  0
  196.7130  176.8850  142.0600 O   0  0  0  0  0  0  0  0  0  0  0  0
  196.5920  174.6110  141.0910 C   0  0  0  0  0  2  0  0  0  0  0  0
  195.8140  175.1000  143.3290 C   0  0  0  0  0  2  0  0  0  0  0  0
  188.5470  174.7240  140.4280 O   0  0  0  0  0  0  0  0  0  0  0  0
  189.3840  172.9190  137.0970 C   0  0  0  0  0  2  0  0  0  0  0  0
  189.5800  171.5890  137.7780 C   0  0  2  0  0  3  0  0  0  0  0  0
  189.1330  172.4180  140.0640 C   0  0  0  0  0  2  0  0  0  0  0  0
  188.7170  173.8860  138.0650 C   0  0  0  0  0  2  0  0  0  0  0  0
  189.1590  173.8310  139.5240 C   0  0  1  0  0  3  0  0  0  0  0  0
  190.0220  171.5070  139.2320 C   0  0  0  0  0  2  0  0  0  0  0  0
  191.4880  170.6000  136.9260 O   0  0  0  0  0  1  0  0  0  0  0  0
  190.1000  170.5130  136.9240 C   0  0  0  0  0  2  0  0  0  0  0  0
  1  5  1  0  0  0  0
  1  6  1  0  0  0  0
  2 11  1  0  0  0  0
  3 10  1  0  0  0  0
  4  7  2  0  0  0  0
  4  8  1  0  0  0  0
  7  9  1  0  0  0  0
  8  1  2  0  0  0  0
  9  5  2  0  0  0  0
 11 10  2  0  0  0  0
 11  7  1  0  0  0  0
 12  2  1  0  0  0  0
 12 15  2  0  0  0  0
 13 14  1  0  0  0  0
 13  2  2  0  0  0  0
 14  3  2  0  0  0  0
 15  4  1  0  0  0  0
 16  3  1  1  0  0  0
 16 18  1  0  0  0  0
 17 16  1  0  0  0  0
 17 19  1  0  0  0  0
 18 20  1  0  0  0  0
 19 21  1  6  0  0  0
 19 20  1  0  0  0  0
 22 21  1  0  0  0  0
 23 27  1  0  0  0  0
 23 25  1  0  0  0  0
 24 22  1  0  0  0  0
 25 26  1  6  0  0  0
 25 28  1  0  0  0  0
 25 22  1  0  0  0  0
 27 24  1  0  0  0  0
 29 28  1  0  0  0  0
 29 34  1  0  0  0  0
 30 34  1  0  0  0  0
 31 33  1  0  0  0  0
 31 32  1  0  0  0  0
 32 30  1  0  0  0  0
 33 29  1  0  0  0  0
 35 13  1  0  0  0  0
 36 37  1  0  0  0  0
 36 39  1  0  0  0  0
 37 43  1  6  0  0  0
 37 41  1  0  0  0  0
 39 40  1  0  0  0  0
 40 38  1  0  0  0  0
 40 35  1  1  0  0  0
 41 38  1  0  0  0  0
 43 42  1  0  0  0  0
M  END
>  <MODEL>
9

>  <REMARK>
 VINA RESULT:      -7.3      2.514      5.988
  Name = 
  8 active torsions:
  status: ('A' for Active; 'I' for Inactive)
    1  A    between atoms: O_1  and  C_34
    2  A    between atoms: O_1  and  C_35
    3  A    between atoms: C_2  and  C_13
    4  A    between atoms: C_3  and  N_4
    5  A    between atoms: C_3  and  C_12
    6  A    between atoms: N_11  and  C_14
    7  A    between atoms: C_14  and  C_22
    8  A    between atoms: C_19  and  C_37
                            x       y       z     vdW  Elec       q    Type
                         _______ _______ _______ _____ _____    ______ ____

>  <TORSDO>
F 8

$$$$
