=
 OpenBabel11052418423D

 34 37  0  0  1  0  0  0  0  0999 V2000
  192.9340  175.2800  143.0620 C   0  0  2  0  0  3  0  0  0  0  0  0
  190.7380  172.3650  141.9640 O   0  0  0  0  0  1  0  0  0  0  0  0
  193.1190  174.0170  141.0280 O   0  0  0  0  0  1  0  0  0  0  0  0
  191.0960  173.6850  142.2480 C   0  0  2  0  0  0  0  0  0  0  0  0
  192.1770  175.3890  144.3240 N   0  0  0  0  0  0  0  0  0  0  0  0
  190.1520  174.3750  143.2140 C   0  0  1  0  0  3  0  0  0  0  0  0
  190.7420  175.5490  144.0040 C   0  0  1  0  0  3  0  0  0  0  0  0
  190.1560  174.7630  141.7330 C   0  0  2  0  0  3  0  0  0  0  0  0
  192.5880  173.9880  142.3190 C   0  0  2  0  0  3  0  0  0  0  0  0
  188.4020  177.0860  146.7760 C   0  0  1  0  0  3  0  0  0  0  0  0
  187.8760  175.7410  147.2540 C   0  0  0  0  0  2  0  0  0  0  0  0
  189.9050  175.7220  145.2450 C   0  0  0  0  0  0  0  0  0  0  0  0
  189.0500  174.7810  147.3970 C   0  0  0  0  0  2  0  0  0  0  0  0
  189.0250  176.9470  145.3870 C   0  0  0  0  0  2  0  0  0  0  0  0
  189.8560  174.7100  146.1280 C   0  0  0  0  0  3  0  0  0  0  0  0
  187.0710  178.2630  146.7120 Cl  0  0  0  0  0  0  0  0  0  0  0  0
  194.4210  175.2880  143.3010 C   0  0  0  0  0  0  0  0  0  0  0  0
  196.1130  172.1840  143.9280 C   0  0  0  0  0  1  0  0  0  0  0  0
  194.9610  174.3080  143.9770 C   0  0  0  0  0  0  0  0  0  0  0  0
  195.4990  173.3300  144.6490 C   0  0  0  0  0  3  0  0  0  0  0  0
  196.2630  176.8000  143.4710 O   0  0  0  0  0  1  0  0  0  0  0  0
  195.2010  176.3330  142.7990 O   0  0  0  0  0  0  0  0  0  0  0  0
  188.9140  174.1960  141.0590 C   0  0  0  0  0  2  0  0  0  0  0  0
  188.1090  175.2800  140.5180 N   0  0  0  0  0  2  0  0  0  0  0  0
  186.0690  177.6850  140.5380 C   0  0  0  0  0  2  0  0  0  0  0  0
  187.8240  176.2030  141.6070 C   0  0  1  0  0  3  0  0  0  0  0  0
  187.5030  177.5970  141.0470 C   0  0  0  0  0  2  0  0  0  0  0  0
  185.1200  177.5320  142.8910 C   0  0  0  0  0  3  0  0  0  0  0  0
  186.1990  176.6570  143.4770 C   0  0  0  0  0  2  0  0  0  0  0  0
  186.7130  175.6230  142.4860 C   0  0  0  0  0  2  0  0  0  0  0  0
  185.0890  178.0110  141.6340 C   0  0  0  0  0  3  0  0  0  0  0  0
  192.6050  176.6300  144.9830 C   0  0  0  0  0  2  0  0  0  0  0  0
  194.3370  176.8640  146.7150 C   0  0  0  0  0  2  0  0  0  0  0  0
  193.1760  176.3380  146.3350 C   0  0  0  0  0  3  0  0  0  0  0  0
  1 17  1  1  0  0  0
  1  5  1  0  0  0  0
  3  9  1  0  0  0  0
  4  2  1  6  0  0  0
  4  9  1  0  0  0  0
  4  6  1  0  0  0  0
  5 32  1  0  0  0  0
  6  7  1  0  0  0  0
  7  5  1  0  0  0  0
  7 12  1  0  0  0  0
  8  4  1  0  0  0  0
  8  6  1  0  0  0  0
  9  1  1  0  0  0  0
 10 11  1  0  0  0  0
 11 13  1  0  0  0  0
 12 14  1  0  0  0  0
 12 15  2  0  0  0  0
 14 10  1  0  0  0  0
 15 13  1  0  0  0  0
 16 10  1  0  0  0  0
 17 19  2  0  0  0  0
 18 20  1  0  0  0  0
 19 20  2  0  0  0  0
 22 17  1  0  0  0  0
 22 21  1  0  0  0  0
 23  8  1  0  0  0  0
 24 23  1  0  0  0  0
 24 26  1  0  0  0  0
 25 27  1  0  0  0  0
 25 31  1  0  0  0  0
 26 30  1  0  0  0  0
 27 26  1  0  0  0  0
 28 29  1  0  0  0  0
 30 29  1  0  0  0  0
 31 28  2  0  0  0  0
 32 34  1  0  0  0  0
 34 33  2  0  0  0  0
M  END
>  <MODEL>
1

>  <REMARK>
 VINA RESULT:      -7.1      0.000      0.000
  Name = 
  8 active torsions:
  status: ('A' for Active; 'I' for Inactive)
    1  A    between atoms: C_2  and  C_4
    2  A    between atoms: C_2  and  O_25
    3  A    between atoms: N_3  and  C_13
    4  A    between atoms: N_3  and  C_17
    5  A    between atoms: C_12  and  C_28
    6  A    between atoms: C_17  and  C_29
    7  A    between atoms: N_21  and  C_32
    8  A    between atoms: C_24  and  C_32
                            x       y       z     vdW  Elec       q    Type
                         _______ _______ _______ _____ _____    ______ ____

>  <TORSDO>
F 8

$$$$
=
 OpenBabel11052418423D

 34 37  0  0  1  0  0  0  0  0999 V2000
  193.8190  175.3000  144.5540 C   0  0  2  0  0  3  0  0  0  0  0  0
  191.6460  178.4100  144.1900 O   0  0  0  0  0  1  0  0  0  0  0  0
  194.0240  177.3570  145.7760 O   0  0  0  0  0  1  0  0  0  0  0  0
  191.9950  177.1050  144.5460 C   0  0  2  0  0  0  0  0  0  0  0  0
  193.0540  174.6280  143.4860 N   0  0  0  0  0  0  0  0  0  0  0  0
  191.0420  176.0550  144.0080 C   0  0  1  0  0  3  0  0  0  0  0  0
  191.6200  174.6450  143.8470 C   0  0  1  0  0  3  0  0  0  0  0  0
  191.0520  176.3930  145.5020 C   0  0  2  0  0  3  0  0  0  0  0  0
  193.4850  176.7920  144.6180 C   0  0  2  0  0  3  0  0  0  0  0  0
  190.0030  173.4930  140.4440 C   0  0  1  0  0  3  0  0  0  0  0  0
  189.6210  172.1100  140.9500 C   0  0  0  0  0  2  0  0  0  0  0  0
  190.7750  173.9260  142.8270 C   0  0  0  0  0  0  0  0  0  0  0  0
  188.9860  172.2540  142.3270 C   0  0  0  0  0  2  0  0  0  0  0  0
  191.0650  174.1130  141.3520 C   0  0  0  0  0  2  0  0  0  0  0  0
  189.8770  173.0260  143.2630 C   0  0  0  0  0  3  0  0  0  0  0  0
  190.6390  173.3710  138.7880 Cl  0  0  0  0  0  0  0  0  0  0  0  0
  195.3040  175.1720  144.3410 C   0  0  0  0  0  0  0  0  0  0  0  0
  197.0550  172.4040  145.8120 C   0  0  0  0  0  1  0  0  0  0  0  0
  196.0150  174.5010  145.2090 C   0  0  0  0  0  0  0  0  0  0  0  0
  196.7230  173.8290  146.0730 C   0  0  0  0  0  3  0  0  0  0  0  0
  196.7700  176.7800  143.3540 O   0  0  0  0  0  1  0  0  0  0  0  0
  195.9010  175.7670  143.2270 O   0  0  0  0  0  0  0  0  0  0  0  0
  189.8170  177.2160  145.8420 C   0  0  0  0  0  2  0  0  0  0  0  0
  188.8760  176.4040  146.5960 N   0  0  0  0  0  2  0  0  0  0  0  0
  186.4700  178.1640  147.6250 C   0  0  0  0  0  2  0  0  0  0  0  0
  187.5630  176.5720  145.9880 C   0  0  1  0  0  3  0  0  0  0  0  0
  186.4940  176.7430  147.0770 C   0  0  0  0  0  2  0  0  0  0  0  0
  185.5470  179.0950  145.4470 C   0  0  0  0  0  3  0  0  0  0  0  0
  186.2160  178.1120  144.5200 C   0  0  0  0  0  2  0  0  0  0  0  0
  187.6130  177.7280  144.9870 C   0  0  0  0  0  2  0  0  0  0  0  0
  185.6230  179.0890  146.7910 C   0  0  0  0  0  3  0  0  0  0  0  0
  193.4710  173.2190  143.4710 C   0  0  0  0  0  2  0  0  0  0  0  0
  193.5830  171.3350  145.0490 C   0  0  0  0  0  2  0  0  0  0  0  0
  193.1460  172.5610  144.7740 C   0  0  0  0  0  3  0  0  0  0  0  0
  1 17  1  6  0  0  0
  1  9  1  0  0  0  0
  4  2  1  6  0  0  0
  4  9  1  0  0  0  0
  4  8  1  0  0  0  0
  5  7  1  0  0  0  0
  5  1  1  0  0  0  0
  6  4  1  0  0  0  0
  6  8  1  0  0  0  0
  7  6  1  0  0  0  0
  8 23  1  0  0  0  0
  9  3  1  0  0  0  0
 10 11  1  0  0  0  0
 10 14  1  0  0  0  0
 11 13  1  0  0  0  0
 12 15  2  0  0  0  0
 12  7  1  0  0  0  0
 13 15  1  0  0  0  0
 14 12  1  0  0  0  0
 16 10  1  0  0  0  0
 17 19  2  0  0  0  0
 18 20  1  0  0  0  0
 19 20  2  0  0  0  0
 22 21  1  0  0  0  0
 22 17  1  0  0  0  0
 23 24  1  0  0  0  0
 26 24  1  0  0  0  0
 26 27  1  0  0  0  0
 27 25  1  0  0  0  0
 28 31  2  0  0  0  0
 29 30  1  0  0  0  0
 29 28  1  0  0  0  0
 30 26  1  0  0  0  0
 31 25  1  0  0  0  0
 32  5  1  0  0  0  0
 32 34  1  0  0  0  0
 34 33  2  0  0  0  0
M  END
>  <MODEL>
2

>  <REMARK>
 VINA RESULT:      -6.8      3.023      4.667
  Name = 
  8 active torsions:
  status: ('A' for Active; 'I' for Inactive)
    1  A    between atoms: C_2  and  C_4
    2  A    between atoms: C_2  and  O_25
    3  A    between atoms: N_3  and  C_13
    4  A    between atoms: N_3  and  C_17
    5  A    between atoms: C_12  and  C_28
    6  A    between atoms: C_17  and  C_29
    7  A    between atoms: N_21  and  C_32
    8  A    between atoms: C_24  and  C_32
                            x       y       z     vdW  Elec       q    Type
                         _______ _______ _______ _____ _____    ______ ____

>  <TORSDO>
F 8

$$$$
=
 OpenBabel11052418423D

 34 37  0  0  1  0  0  0  0  0999 V2000
  191.0550  175.3820  145.1970 C   0  0  2  0  0  3  0  0  0  0  0  0
  190.0210  177.9910  142.6180 O   0  0  0  0  0  1  0  0  0  0  0  0
  190.1350  177.5580  145.6300 O   0  0  0  0  0  1  0  0  0  0  0  0
  189.9620  176.8160  143.3700 C   0  0  2  0  0  0  0  0  0  0  0  0
  191.4930  174.4750  144.1180 N   0  0  0  0  0  0  0  0  0  0  0  0
  189.8680  175.5600  142.5240 C   0  0  1  0  0  3  0  0  0  0  0  0
  190.3660  174.2690  143.1840 C   0  0  1  0  0  3  0  0  0  0  0  0
  188.6520  176.0470  143.3160 C   0  0  2  0  0  3  0  0  0  0  0  0
  190.7760  176.7870  144.6580 C   0  0  2  0  0  3  0  0  0  0  0  0
  191.9450  172.6860  139.9400 C   0  0  1  0  0  3  0  0  0  0  0  0
  191.7990  171.2490  140.4200 C   0  0  0  0  0  2  0  0  0  0  0  0
  190.7200  173.3070  142.0790 C   0  0  0  0  0  0  0  0  0  0  0  0
  190.4050  171.0710  141.0070 C   0  0  0  0  0  2  0  0  0  0  0  0
  191.8420  173.6500  141.1220 C   0  0  0  0  0  2  0  0  0  0  0  0
  190.1210  172.1030  142.0650 C   0  0  0  0  0  3  0  0  0  0  0  0
  193.5200  172.8940  139.1420 Cl  0  0  0  0  0  0  0  0  0  0  0  0
  192.0930  175.5050  146.2800 C   0  0  0  0  0  0  0  0  0  0  0  0
  194.8430  177.7680  145.8280 C   0  0  0  0  0  1  0  0  0  0  0  0
  193.2930  175.9190  145.9670 C   0  0  0  0  0  0  0  0  0  0  0  0
  194.4870  176.3350  145.6540 C   0  0  0  0  0  3  0  0  0  0  0  0
  190.4900  175.1090  148.0070 O   0  0  0  0  0  1  0  0  0  0  0  0
  191.7650  175.1770  147.5980 O   0  0  0  0  0  0  0  0  0  0  0  0
  187.6400  176.6630  142.3600 C   0  0  0  0  0  2  0  0  0  0  0  0
  186.3280  176.7000  142.9870 N   0  0  0  0  0  2  0  0  0  0  0  0
  184.3890  178.8530  144.2320 C   0  0  0  0  0  2  0  0  0  0  0  0
  186.4650  177.4030  144.2540 C   0  0  1  0  0  3  0  0  0  0  0  0
  185.9090  178.8290  144.1310 C   0  0  0  0  0  2  0  0  0  0  0  0
  184.4430  178.2270  146.6950 C   0  0  0  0  0  3  0  0  0  0  0  0
  185.6910  177.3820  146.6510 C   0  0  0  0  0  2  0  0  0  0  0  0
  185.8060  176.5790  145.3640 C   0  0  0  0  0  2  0  0  0  0  0  0
  183.9070  178.8970  145.6590 C   0  0  0  0  0  3  0  0  0  0  0  0
  191.7780  173.1720  144.7340 C   0  0  0  0  0  2  0  0  0  0  0  0
  193.9880  172.3040  145.3770 C   0  0  0  0  0  2  0  0  0  0  0  0
  193.1730  172.7340  144.4180 C   0  0  0  0  0  3  0  0  0  0  0  0
  1 17  1  1  0  0  0
  4  2  1  6  0  0  0
  4  9  1  0  0  0  0
  5 32  1  0  0  0  0
  5  1  1  0  0  0  0
  6  7  1  0  0  0  0
  6  8  1  0  0  0  0
  6  4  1  0  0  0  0
  7  5  1  0  0  0  0
  8  4  1  0  0  0  0
  9  1  1  0  0  0  0
  9  3  1  0  0  0  0
 10 11  1  0  0  0  0
 10 14  1  0  0  0  0
 11 13  1  0  0  0  0
 12  7  1  0  0  0  0
 13 15  1  0  0  0  0
 14 12  1  0  0  0  0
 15 12  2  0  0  0  0
 16 10  1  0  0  0  0
 17 22  1  0  0  0  0
 19 17  2  0  0  0  0
 20 18  1  0  0  0  0
 20 19  2  0  0  0  0
 22 21  1  0  0  0  0
 23 24  1  0  0  0  0
 23  8  1  0  0  0  0
 24 26  1  0  0  0  0
 25 31  1  0  0  0  0
 26 30  1  0  0  0  0
 27 25  1  0  0  0  0
 27 26  1  0  0  0  0
 29 28  1  0  0  0  0
 30 29  1  0  0  0  0
 31 28  2  0  0  0  0
 34 32  1  0  0  0  0
 34 33  2  0  0  0  0
M  END
>  <MODEL>
3

>  <REMARK>
 VINA RESULT:      -6.8      3.409      5.086
  Name = 
  8 active torsions:
  status: ('A' for Active; 'I' for Inactive)
    1  A    between atoms: C_2  and  C_4
    2  A    between atoms: C_2  and  O_25
    3  A    between atoms: N_3  and  C_13
    4  A    between atoms: N_3  and  C_17
    5  A    between atoms: C_12  and  C_28
    6  A    between atoms: C_17  and  C_29
    7  A    between atoms: N_21  and  C_32
    8  A    between atoms: C_24  and  C_32
                            x       y       z     vdW  Elec       q    Type
                         _______ _______ _______ _____ _____    ______ ____

>  <TORSDO>
F 8

$$$$
=
 OpenBabel11052418423D

 34 37  0  0  1  0  0  0  0  0999 V2000
  188.5140  176.9170  145.4650 C   0  0  2  0  0  3  0  0  0  0  0  0
  191.2000  175.3310  147.6550 O   0  0  0  0  0  1  0  0  0  0  0  0
  189.4910  177.8440  147.4530 O   0  0  0  0  0  1  0  0  0  0  0  0
  190.6370  175.9610  146.5430 C   0  0  2  0  0  0  0  0  0  0  0  0
  188.5160  175.7310  144.5860 N   0  0  0  0  0  0  0  0  0  0  0  0
  190.9000  175.2340  145.2370 C   0  0  1  0  0  3  0  0  0  0  0  0
  189.8950  175.4960  144.1100 C   0  0  1  0  0  3  0  0  0  0  0  0
  191.6140  176.5540  145.5400 C   0  0  2  0  0  3  0  0  0  0  0  0
  189.2950  176.6510  146.7540 C   0  0  2  0  0  3  0  0  0  0  0  0
  190.4620  173.3040  140.8850 C   0  0  1  0  0  3  0  0  0  0  0  0
  190.6710  172.0060  141.6530 C   0  0  0  0  0  2  0  0  0  0  0  0
  189.9710  174.3290  143.1600 C   0  0  0  0  0  0  0  0  0  0  0  0
  189.5950  171.8960  142.7260 C   0  0  0  0  0  2  0  0  0  0  0  0
  190.6460  174.5030  141.8150 C   0  0  0  0  0  2  0  0  0  0  0  0
  189.5600  173.1240  143.5940 C   0  0  0  0  0  3  0  0  0  0  0  0
  191.6300  173.4060  139.5500 Cl  0  0  0  0  0  0  0  0  0  0  0  0
  187.1170  177.3230  145.8520 C   0  0  0  0  0  0  0  0  0  0  0  0
  185.0890  179.1090  143.4890 C   0  0  0  0  0  1  0  0  0  0  0  0
  186.5580  178.3370  145.2460 C   0  0  0  0  0  0  0  0  0  0  0  0
  186.0000  179.3460  144.6390 C   0  0  0  0  0  3  0  0  0  0  0  0
  185.9740  177.2240  147.9490 O   0  0  0  0  0  1  0  0  0  0  0  0
  186.4380  176.6150  146.8480 O   0  0  0  0  0  0  0  0  0  0  0  0
  193.0690  176.2730  145.8890 C   0  0  0  0  0  2  0  0  0  0  0  0
  193.9440  176.9990  144.9820 N   0  0  0  0  0  2  0  0  0  0  0  0
  193.9570  176.1460  141.9460 C   0  0  0  0  0  2  0  0  0  0  0  0
  194.8070  176.0250  144.3290 C   0  0  1  0  0  3  0  0  0  0  0  0
  194.0390  175.3020  143.2130 C   0  0  0  0  0  2  0  0  0  0  0  0
  196.4460  175.8900  141.4970 C   0  0  0  0  0  3  0  0  0  0  0  0
  196.8930  175.8140  142.9340 C   0  0  0  0  0  2  0  0  0  0  0  0
  196.0820  176.7210  143.8470 C   0  0  0  0  0  2  0  0  0  0  0  0
  195.1730  175.9890  141.0710 C   0  0  0  0  0  3  0  0  0  0  0  0
  187.7100  176.0640  143.4040 C   0  0  0  0  0  2  0  0  0  0  0  0
  187.8550  177.5490  141.4480 C   0  0  0  0  0  2  0  0  0  0  0  0
  188.3600  177.1550  142.6140 C   0  0  0  0  0  3  0  0  0  0  0  0
  1 17  1  1  0  0  0
  1  9  1  0  0  0  0
  4  9  1  0  0  0  0
  4  2  1  1  0  0  0
  5  1  1  0  0  0  0
  6  8  1  0  0  0  0
  6  4  1  0  0  0  0
  7  5  1  0  0  0  0
  7  6  1  0  0  0  0
  8 23  1  0  0  0  0
  8  4  1  0  0  0  0
  9  3  1  0  0  0  0
 10 11  1  0  0  0  0
 10 14  1  0  0  0  0
 11 13  1  0  0  0  0
 12 15  2  0  0  0  0
 12  7  1  0  0  0  0
 13 15  1  0  0  0  0
 14 12  1  0  0  0  0
 16 10  1  0  0  0  0
 17 22  1  0  0  0  0
 18 20  1  0  0  0  0
 19 17  2  0  0  0  0
 20 19  2  0  0  0  0
 22 21  1  0  0  0  0
 24 23  1  0  0  0  0
 25 27  1  0  0  0  0
 26 24  1  0  0  0  0
 27 26  1  0  0  0  0
 28 29  1  0  0  0  0
 29 30  1  0  0  0  0
 30 26  1  0  0  0  0
 31 28  2  0  0  0  0
 31 25  1  0  0  0  0
 32  5  1  0  0  0  0
 33 34  2  0  0  0  0
 34 32  1  0  0  0  0
M  END
>  <MODEL>
4

>  <REMARK>
 VINA RESULT:      -6.8      3.553      7.734
  Name = 
  8 active torsions:
  status: ('A' for Active; 'I' for Inactive)
    1  A    between atoms: C_2  and  C_4
    2  A    between atoms: C_2  and  O_25
    3  A    between atoms: N_3  and  C_13
    4  A    between atoms: N_3  and  C_17
    5  A    between atoms: C_12  and  C_28
    6  A    between atoms: C_17  and  C_29
    7  A    between atoms: N_21  and  C_32
    8  A    between atoms: C_24  and  C_32
                            x       y       z     vdW  Elec       q    Type
                         _______ _______ _______ _____ _____    ______ ____

>  <TORSDO>
F 8

$$$$
=
 OpenBabel11052418423D

 34 37  0  0  1  0  0  0  0  0999 V2000
  193.6060  175.2880  145.1650 C   0  0  2  0  0  3  0  0  0  0  0  0
  191.7060  178.3520  143.9300 O   0  0  0  0  0  1  0  0  0  0  0  0
  193.8230  177.5420  145.9640 O   0  0  0  0  0  1  0  0  0  0  0  0
  191.9240  177.1350  144.5790 C   0  0  2  0  0  0  0  0  0  0  0  0
  192.9130  174.4450  144.1710 N   0  0  0  0  0  0  0  0  0  0  0  0
  190.9620  176.0410  144.1550 C   0  0  1  0  0  3  0  0  0  0  0  0
  191.4540  174.6030  144.3500 C   0  0  1  0  0  3  0  0  0  0  0  0
  190.8370  176.6820  145.5400 C   0  0  2  0  0  3  0  0  0  0  0  0
  193.3720  176.7740  144.8880 C   0  0  2  0  0  3  0  0  0  0  0  0
  189.6330  173.2290  141.1370 C   0  0  1  0  0  3  0  0  0  0  0  0
  189.7530  171.7670  141.5430 C   0  0  0  0  0  2  0  0  0  0  0  0
  190.6730  173.7290  143.4030 C   0  0  0  0  0  0  0  0  0  0  0  0
  189.3650  171.6360  143.0100 C   0  0  0  0  0  2  0  0  0  0  0  0
  190.6250  174.0800  141.9300 C   0  0  0  0  0  2  0  0  0  0  0  0
  190.1580  172.5790  143.8730 C   0  0  0  0  0  3  0  0  0  0  0  0
  189.9660  173.3980  139.3990 Cl  0  0  0  0  0  0  0  0  0  0  0  0
  195.0920  175.0490  145.1590 C   0  0  0  0  0  0  0  0  0  0  0  0
  197.1970  177.1330  143.1300 C   0  0  0  0  0  1  0  0  0  0  0  0
  195.7950  175.4350  144.1260 C   0  0  0  0  0  0  0  0  0  0  0  0
  196.4940  175.8240  143.0980 C   0  0  0  0  0  3  0  0  0  0  0  0
  196.8690  173.7770  146.1260 O   0  0  0  0  0  1  0  0  0  0  0  0
  195.7010  174.4220  146.2500 O   0  0  0  0  0  0  0  0  0  0  0  0
  189.6340  177.6140  145.5600 C   0  0  0  0  0  2  0  0  0  0  0  0
  188.7700  177.2810  146.6820 N   0  0  0  0  0  2  0  0  0  0  0  0
  185.9080  178.1680  147.6660 C   0  0  0  0  0  2  0  0  0  0  0  0
  187.4760  176.8910  146.1410 C   0  0  1  0  0  3  0  0  0  0  0  0
  186.4390  176.7960  147.2690 C   0  0  0  0  0  2  0  0  0  0  0  0
  184.6690  178.4360  145.4620 C   0  0  0  0  0  3  0  0  0  0  0  0
  185.6330  177.6560  144.6040 C   0  0  0  0  0  2  0  0  0  0  0  0
  187.0820  177.8590  145.0220 C   0  0  0  0  0  2  0  0  0  0  0  0
  184.7670  178.6190  146.7920 C   0  0  0  0  0  3  0  0  0  0  0  0
  193.2300  173.0460  144.4890 C   0  0  0  0  0  2  0  0  0  0  0  0
  193.9920  172.9760  142.1510 C   0  0  0  0  0  2  0  0  0  0  0  0
  193.9400  172.3940  143.3450 C   0  0  0  0  0  3  0  0  0  0  0  0
  1 17  1  6  0  0  0
  4  2  1  6  0  0  0
  4  9  1  0  0  0  0
  4  8  1  0  0  0  0
  5  7  1  0  0  0  0
  5 32  1  0  0  0  0
  5  1  1  0  0  0  0
  6  7  1  0  0  0  0
  6  4  1  0  0  0  0
  6  8  1  0  0  0  0
  8 23  1  0  0  0  0
  9  1  1  0  0  0  0
  9  3  1  0  0  0  0
 10 11  1  0  0  0  0
 10 14  1  0  0  0  0
 11 13  1  0  0  0  0
 12 15  2  0  0  0  0
 12  7  1  0  0  0  0
 13 15  1  0  0  0  0
 14 12  1  0  0  0  0
 16 10  1  0  0  0  0
 17 22  1  0  0  0  0
 19 17  2  0  0  0  0
 20 18  1  0  0  0  0
 20 19  2  0  0  0  0
 21 22  1  0  0  0  0
 23 24  1  0  0  0  0
 26 24  1  0  0  0  0
 26 27  1  0  0  0  0
 27 25  1  0  0  0  0
 28 31  2  0  0  0  0
 29 30  1  0  0  0  0
 29 28  1  0  0  0  0
 30 26  1  0  0  0  0
 31 25  1  0  0  0  0
 33 34  2  0  0  0  0
 34 32  1  0  0  0  0
M  END
>  <MODEL>
5

>  <REMARK>
 VINA RESULT:      -6.4      3.170      4.797
  Name = 
  8 active torsions:
  status: ('A' for Active; 'I' for Inactive)
    1  A    between atoms: C_2  and  C_4
    2  A    between atoms: C_2  and  O_25
    3  A    between atoms: N_3  and  C_13
    4  A    between atoms: N_3  and  C_17
    5  A    between atoms: C_12  and  C_28
    6  A    between atoms: C_17  and  C_29
    7  A    between atoms: N_21  and  C_32
    8  A    between atoms: C_24  and  C_32
                            x       y       z     vdW  Elec       q    Type
                         _______ _______ _______ _____ _____    ______ ____

>  <TORSDO>
F 8

$$$$
=
 OpenBabel11052418423D

 34 37  0  0  1  0  0  0  0  0999 V2000
  190.2210  174.0920  141.3770 C   0  0  2  0  0  3  0  0  0  0  0  0
  186.7010  175.1770  142.3560 O   0  0  0  0  0  1  0  0  0  0  0  0
  188.3850  174.5470  139.8980 O   0  0  0  0  0  1  0  0  0  0  0  0
  188.0790  175.2760  142.1480 C   0  0  2  0  0  0  0  0  0  0  0  0
  190.6070  174.0260  142.8000 N   0  0  0  0  0  0  0  0  0  0  0  0
  188.8450  175.7350  143.3740 C   0  0  1  0  0  3  0  0  0  0  0  0
  190.3230  175.3330  143.4300 C   0  0  1  0  0  3  0  0  0  0  0  0
  188.6650  176.6780  142.1810 C   0  0  2  0  0  3  0  0  0  0  0  0
  188.7060  174.2410  141.2220 C   0  0  2  0  0  3  0  0  0  0  0  0
  192.4390  175.7860  146.7230 C   0  0  1  0  0  3  0  0  0  0  0  0
  191.2270  175.9770  147.6240 C   0  0  0  0  0  2  0  0  0  0  0  0
  190.7420  175.3620  144.8780 C   0  0  0  0  0  0  0  0  0  0  0  0
  190.1890  174.9190  147.2740 C   0  0  0  0  0  2  0  0  0  0  0  0
  192.0530  176.0160  145.2620 C   0  0  0  0  0  2  0  0  0  0  0  0
  189.8690  174.9300  145.8040 C   0  0  0  0  0  3  0  0  0  0  0  0
  193.7170  176.9310  147.1850 Cl  0  0  0  0  0  0  0  0  0  0  0  0
  190.6390  172.8560  140.6270 C   0  0  0  0  0  0  0  0  0  0  0  0
  193.8400  172.7870  139.0030 C   0  0  0  0  0  1  0  0  0  0  0  0
  191.5240  172.9610  139.6700 C   0  0  0  0  0  0  0  0  0  0  0  0
  192.4090  173.0660  138.7190 C   0  0  0  0  0  3  0  0  0  0  0  0
  190.8180  170.4980  140.9700 O   0  0  0  0  0  1  0  0  0  0  0  0
  190.0810  171.6180  140.9590 O   0  0  0  0  0  0  0  0  0  0  0  0
  187.6370  177.7450  142.5300 C   0  0  0  0  0  2  0  0  0  0  0  0
  187.7060  178.0500  143.9510 N   0  0  0  0  0  2  0  0  0  0  0  0
  186.9790  177.3500  146.9390 C   0  0  0  0  0  2  0  0  0  0  0  0
  186.3880  177.8050  144.5180 C   0  0  1  0  0  3  0  0  0  0  0  0
  186.4790  176.7500  145.6300 C   0  0  0  0  0  2  0  0  0  0  0  0
  184.8340  178.6730  147.2670 C   0  0  0  0  0  3  0  0  0  0  0  0
  184.5260  178.9040  145.8090 C   0  0  0  0  0  2  0  0  0  0  0  0
  185.7790  179.1320  144.9780 C   0  0  0  0  0  2  0  0  0  0  0  0
  185.8700  177.9640  147.7520 C   0  0  0  0  0  3  0  0  0  0  0  0
  192.0640  173.8400  142.8480 C   0  0  0  0  0  2  0  0  0  0  0  0
  191.5450  171.8120  144.1400 C   0  0  0  0  0  2  0  0  0  0  0  0
  192.4240  172.7530  143.8110 C   0  0  0  0  0  3  0  0  0  0  0  0
  1 17  1  6  0  0  0
  1  5  1  0  0  0  0
  3  9  1  0  0  0  0
  4  8  1  0  0  0  0
  4  2  1  1  0  0  0
  4  6  1  0  0  0  0
  5 32  1  0  0  0  0
  5  7  1  0  0  0  0
  6  7  1  0  0  0  0
  7 12  1  0  0  0  0
  8 23  1  0  0  0  0
  8  6  1  0  0  0  0
  9  1  1  0  0  0  0
  9  4  1  0  0  0  0
 10 16  1  0  0  0  0
 10 11  1  0  0  0  0
 12 14  1  0  0  0  0
 12 15  2  0  0  0  0
 13 11  1  0  0  0  0
 14 10  1  0  0  0  0
 15 13  1  0  0  0  0
 17 22  1  0  0  0  0
 19 17  2  0  0  0  0
 20 18  1  0  0  0  0
 20 19  2  0  0  0  0
 22 21  1  0  0  0  0
 23 24  1  0  0  0  0
 24 26  1  0  0  0  0
 25 31  1  0  0  0  0
 26 30  1  0  0  0  0
 26 27  1  0  0  0  0
 27 25  1  0  0  0  0
 28 31  2  0  0  0  0
 29 28  1  0  0  0  0
 30 29  1  0  0  0  0
 32 34  1  0  0  0  0
 34 33  2  0  0  0  0
M  END
>  <MODEL>
6

>  <REMARK>
 VINA RESULT:      -6.3      2.969      4.639
  Name = 
  8 active torsions:
  status: ('A' for Active; 'I' for Inactive)
    1  A    between atoms: C_2  and  C_4
    2  A    between atoms: C_2  and  O_25
    3  A    between atoms: N_3  and  C_13
    4  A    between atoms: N_3  and  C_17
    5  A    between atoms: C_12  and  C_28
    6  A    between atoms: C_17  and  C_29
    7  A    between atoms: N_21  and  C_32
    8  A    between atoms: C_24  and  C_32
                            x       y       z     vdW  Elec       q    Type
                         _______ _______ _______ _____ _____    ______ ____

>  <TORSDO>
F 8

$$$$
=
 OpenBabel11052418423D

 34 37  0  0  1  0  0  0  0  0999 V2000
  188.9290  176.8840  144.5590 C   0  0  2  0  0  3  0  0  0  0  0  0
  190.0220  174.9350  147.6470 O   0  0  0  0  0  1  0  0  0  0  0  0
  189.1300  177.7210  146.8010 O   0  0  0  0  0  1  0  0  0  0  0  0
  190.1350  175.5920  146.4190 C   0  0  2  0  0  0  0  0  0  0  0  0
  189.0600  175.6680  143.7320 N   0  0  0  0  0  0  0  0  0  0  0  0
  190.7740  174.7450  145.3350 C   0  0  1  0  0  3  0  0  0  0  0  0
  190.4280  175.1310  143.8920 C   0  0  1  0  0  3  0  0  0  0  0  0
  191.5470  175.9120  145.9550 C   0  0  2  0  0  3  0  0  0  0  0  0
  189.0090  176.5500  146.0500 C   0  0  2  0  0  3  0  0  0  0  0  0
  191.6630  172.7400  141.0150 C   0  0  1  0  0  3  0  0  0  0  0  0
  191.5370  171.4710  141.8460 C   0  0  0  0  0  2  0  0  0  0  0  0
  190.6580  173.9140  143.0340 C   0  0  0  0  0  0  0  0  0  0  0  0
  190.2030  171.4990  142.5800 C   0  0  0  0  0  2  0  0  0  0  0  0
  191.6900  173.9670  141.9260 C   0  0  0  0  0  2  0  0  0  0  0  0
  190.0390  172.7690  143.3700 C   0  0  0  0  0  3  0  0  0  0  0  0
  193.1580  172.6820  140.0550 Cl  0  0  0  0  0  0  0  0  0  0  0  0
  187.6190  177.5850  144.3170 C   0  0  0  0  0  0  0  0  0  0  0  0
  185.1150  177.5670  146.8890 C   0  0  0  0  0  1  0  0  0  0  0  0
  186.5620  177.2080  144.9870 C   0  0  0  0  0  0  0  0  0  0  0  0
  185.5090  176.8340  145.6580 C   0  0  0  0  0  3  0  0  0  0  0  0
  186.4490  178.8300  142.6460 O   0  0  0  0  0  1  0  0  0  0  0  0
  187.5480  178.6250  143.3850 O   0  0  0  0  0  0  0  0  0  0  0  0
  192.6180  175.3670  146.8900 C   0  0  0  0  0  2  0  0  0  0  0  0
  193.9370  175.7250  146.3920 N   0  0  0  0  0  2  0  0  0  0  0  0
  196.6070  174.0750  146.0890 C   0  0  0  0  0  2  0  0  0  0  0  0
  194.2870  174.7710  145.3500 C   0  0  1  0  0  3  0  0  0  0  0  0
  195.7920  174.8410  145.0540 C   0  0  0  0  0  2  0  0  0  0  0  0
  195.7350  171.8350  145.2640 C   0  0  0  0  0  3  0  0  0  0  0  0
  194.3700  172.3080  144.8320 C   0  0  0  0  0  2  0  0  0  0  0  0
  193.8040  173.3770  145.7550 C   0  0  0  0  0  2  0  0  0  0  0  0
  196.7150  172.6080  145.7660 C   0  0  0  0  0  3  0  0  0  0  0  0
  188.9270  176.0800  142.3290 C   0  0  0  0  0  2  0  0  0  0  0  0
  188.1940  174.6420  140.4720 C   0  0  0  0  0  2  0  0  0  0  0  0
  187.9100  175.2360  141.6270 C   0  0  0  0  0  3  0  0  0  0  0  0
  1 17  1  1  0  0  0
  1  9  1  0  0  0  0
  4  2  1  1  0  0  0
  5  7  1  0  0  0  0
  5  1  1  0  0  0  0
  6  8  1  0  0  0  0
  6  4  1  0  0  0  0
  7  6  1  0  0  0  0
  8  4  1  0  0  0  0
  8 23  1  0  0  0  0
  9  4  1  0  0  0  0
  9  3  1  0  0  0  0
 10 11  1  0  0  0  0
 10 14  1  0  0  0  0
 11 13  1  0  0  0  0
 12 15  2  0  0  0  0
 12  7  1  0  0  0  0
 13 15  1  0  0  0  0
 14 12  1  0  0  0  0
 16 10  1  0  0  0  0
 17 19  2  0  0  0  0
 19 20  2  0  0  0  0
 20 18  1  0  0  0  0
 21 22  1  0  0  0  0
 22 17  1  0  0  0  0
 24 23  1  0  0  0  0
 26 30  1  0  0  0  0
 26 24  1  0  0  0  0
 27 26  1  0  0  0  0
 27 25  1  0  0  0  0
 28 31  2  0  0  0  0
 29 28  1  0  0  0  0
 29 30  1  0  0  0  0
 31 25  1  0  0  0  0
 32  5  1  0  0  0  0
 33 34  2  0  0  0  0
 34 32  1  0  0  0  0
M  END
>  <MODEL>
7

>  <REMARK>
 VINA RESULT:      -6.3      3.520      7.982
  Name = 
  8 active torsions:
  status: ('A' for Active; 'I' for Inactive)
    1  A    between atoms: C_2  and  C_4
    2  A    between atoms: C_2  and  O_25
    3  A    between atoms: N_3  and  C_13
    4  A    between atoms: N_3  and  C_17
    5  A    between atoms: C_12  and  C_28
    6  A    between atoms: C_17  and  C_29
    7  A    between atoms: N_21  and  C_32
    8  A    between atoms: C_24  and  C_32
                            x       y       z     vdW  Elec       q    Type
                         _______ _______ _______ _____ _____    ______ ____

>  <TORSDO>
F 8

$$$$
=
 OpenBabel11052418423D

 34 37  0  0  1  0  0  0  0  0999 V2000
  192.0580  174.5770  142.0780 C   0  0  2  0  0  3  0  0  0  0  0  0
  188.6770  172.9630  141.3780 O   0  0  0  0  0  1  0  0  0  0  0  0
  191.2290  173.8220  139.9540 O   0  0  0  0  0  1  0  0  0  0  0  0
  189.5960  173.9680  141.6880 C   0  0  2  0  0  0  0  0  0  0  0  0
  191.7320  174.6610  143.5150 N   0  0  0  0  0  0  0  0  0  0  0  0
  189.2710  174.7130  142.9690 C   0  0  1  0  0  3  0  0  0  0  0  0
  190.4550  175.3890  143.6690 C   0  0  1  0  0  3  0  0  0  0  0  0
  189.0810  175.3960  141.6120 C   0  0  2  0  0  3  0  0  0  0  0  0
  191.0530  173.6950  141.3340 C   0  0  2  0  0  3  0  0  0  0  0  0
  189.8380  176.9620  147.2290 C   0  0  1  0  0  3  0  0  0  0  0  0
  188.7740  175.9490  147.6290 C   0  0  0  0  0  2  0  0  0  0  0  0
  190.0790  175.5650  145.1180 C   0  0  0  0  0  0  0  0  0  0  0  0
  189.2630  174.5560  147.2540 C   0  0  0  0  0  2  0  0  0  0  0  0
  190.0270  176.9580  145.7120 C   0  0  0  0  0  2  0  0  0  0  0  0
  189.6620  174.4870  145.8050 C   0  0  0  0  0  3  0  0  0  0  0  0
  189.3490  178.5860  147.7600 Cl  0  0  0  0  0  0  0  0  0  0  0  0
  193.4300  174.0000  141.8500 C   0  0  0  0  0  0  0  0  0  0  0  0
  196.2980  176.1470  142.0840 C   0  0  0  0  0  1  0  0  0  0  0  0
  194.3970  174.7910  141.4630 C   0  0  0  0  0  0  0  0  0  0  0  0
  195.3600  175.5800  141.0800 C   0  0  0  0  0  3  0  0  0  0  0  0
  194.5260  172.1990  142.9750 O   0  0  0  0  0  1  0  0  0  0  0  0
  193.6540  172.6360  142.0550 O   0  0  0  0  0  0  0  0  0  0  0  0
  187.5960  175.4770  141.2900 C   0  0  0  0  0  2  0  0  0  0  0  0
  187.1420  176.8550  141.3930 N   0  0  0  0  0  2  0  0  0  0  0  0
  186.9750  178.2420  144.2200 C   0  0  0  0  0  2  0  0  0  0  0  0
  186.0150  176.8800  142.3130 C   0  0  1  0  0  3  0  0  0  0  0  0
  186.5160  176.8620  143.7640 C   0  0  0  0  0  2  0  0  0  0  0  0
  184.5990  179.1460  144.2070 C   0  0  0  0  0  3  0  0  0  0  0  0
  184.0790  178.3010  143.0720 C   0  0  0  0  0  2  0  0  0  0  0  0
  185.1200  178.0780  141.9860 C   0  0  0  0  0  2  0  0  0  0  0  0
  185.8380  179.0880  144.7310 C   0  0  0  0  0  3  0  0  0  0  0  0
  192.7690  175.4860  144.1490 C   0  0  0  0  0  2  0  0  0  0  0  0
  193.1630  174.9130  146.5100 C   0  0  0  0  0  2  0  0  0  0  0  0
  193.4650  174.7180  145.2290 C   0  0  0  0  0  3  0  0  0  0  0  0
  1 17  1  1  0  0  0
  1  5  1  0  0  0  0
  3  9  1  0  0  0  0
  4  2  1  6  0  0  0
  4  6  1  0  0  0  0
  5  7  1  0  0  0  0
  5 32  1  0  0  0  0
  6  7  1  0  0  0  0
  7 12  1  0  0  0  0
  8  4  1  0  0  0  0
  8  6  1  0  0  0  0
  9  4  1  0  0  0  0
  9  1  1  0  0  0  0
 10 11  1  0  0  0  0
 10 16  1  0  0  0  0
 12 14  1  0  0  0  0
 12 15  2  0  0  0  0
 13 11  1  0  0  0  0
 14 10  1  0  0  0  0
 15 13  1  0  0  0  0
 17 22  1  0  0  0  0
 19 17  2  0  0  0  0
 20 19  2  0  0  0  0
 20 18  1  0  0  0  0
 22 21  1  0  0  0  0
 23 24  1  0  0  0  0
 23  8  1  0  0  0  0
 24 26  1  0  0  0  0
 25 31  1  0  0  0  0
 26 27  1  0  0  0  0
 27 25  1  0  0  0  0
 28 31  2  0  0  0  0
 29 28  1  0  0  0  0
 30 26  1  0  0  0  0
 30 29  1  0  0  0  0
 32 34  1  0  0  0  0
 34 33  2  0  0  0  0
M  END
>  <MODEL>
8

>  <REMARK>
 VINA RESULT:      -6.3      1.889      2.435
  Name = 
  8 active torsions:
  status: ('A' for Active; 'I' for Inactive)
    1  A    between atoms: C_2  and  C_4
    2  A    between atoms: C_2  and  O_25
    3  A    between atoms: N_3  and  C_13
    4  A    between atoms: N_3  and  C_17
    5  A    between atoms: C_12  and  C_28
    6  A    between atoms: C_17  and  C_29
    7  A    between atoms: N_21  and  C_32
    8  A    between atoms: C_24  and  C_32
                            x       y       z     vdW  Elec       q    Type
                         _______ _______ _______ _____ _____    ______ ____

>  <TORSDO>
F 8

$$$$
=
 OpenBabel11052418423D

 34 37  0  0  1  0  0  0  0  0999 V2000
  191.2130  175.3650  142.4450 C   0  0  2  0  0  3  0  0  0  0  0  0
  189.1360  172.1760  142.6610 O   0  0  0  0  0  1  0  0  0  0  0  0
  191.8820  173.1560  141.7810 O   0  0  0  0  0  1  0  0  0  0  0  0
  189.5490  173.4270  142.1960 C   0  0  2  0  0  0  0  0  0  0  0  0
  190.1080  176.1370  143.0480 N   0  0  0  0  0  0  0  0  0  0  0  0
  188.4390  174.4620  142.1740 C   0  0  1  0  0  3  0  0  0  0  0  0
  188.8870  175.9260  142.2420 C   0  0  1  0  0  3  0  0  0  0  0  0
  188.9710  173.8740  140.8630 C   0  0  2  0  0  3  0  0  0  0  0  0
  190.9630  173.8600  142.5630 C   0  0  2  0  0  3  0  0  0  0  0  0
  185.8090  177.1220  144.3910 C   0  0  1  0  0  3  0  0  0  0  0  0
  185.9760  178.5940  144.0390 C   0  0  0  0  0  2  0  0  0  0  0  0
  187.7230  176.7280  142.7650 C   0  0  0  0  0  0  0  0  0  0  0  0
  186.2190  178.7110  142.5390 C   0  0  0  0  0  2  0  0  0  0  0  0
  187.0990  176.3580  144.0950 C   0  0  0  0  0  2  0  0  0  0  0  0
  187.3640  177.8400  142.1000 C   0  0  0  0  0  3  0  0  0  0  0  0
  185.4070  176.9610  146.1150 Cl  0  0  0  0  0  0  0  0  0  0  0  0
  192.5300  175.6640  143.1090 C   0  0  0  0  0  0  0  0  0  0  0  0
  193.6820  173.5380  145.7630 C   0  0  0  0  0  1  0  0  0  0  0  0
  192.7400  175.2390  144.3280 C   0  0  0  0  0  0  0  0  0  0  0  0
  192.9490  174.8110  145.5410 C   0  0  0  0  0  3  0  0  0  0  0  0
  194.8150  176.1610  142.6150 O   0  0  0  0  0  1  0  0  0  0  0  0
  193.5080  176.3870  142.4210 O   0  0  0  0  0  0  0  0  0  0  0  0
  187.9510  172.8950  140.2990 C   0  0  0  0  0  2  0  0  0  0  0  0
  188.2140  172.6690  138.8860 N   0  0  0  0  0  2  0  0  0  0  0  0
  189.6940  170.1200  137.7640 C   0  0  0  0  0  2  0  0  0  0  0  0
  189.6460  172.4600  138.7320 C   0  0  1  0  0  3  0  0  0  0  0  0
  189.9950  170.9850  138.9820 C   0  0  0  0  0  2  0  0  0  0  0  0
  191.5820  171.1720  136.4260 C   0  0  0  0  0  3  0  0  0  0  0  0
  191.5140  172.5440  137.0450 C   0  0  0  0  0  2  0  0  0  0  0  0
  190.0890  172.9730  137.3600 C   0  0  0  0  0  2  0  0  0  0  0  0
  190.8240  170.1130  136.7690 C   0  0  0  0  0  3  0  0  0  0  0  0
  190.4550  177.5590  142.9280 C   0  0  0  0  0  2  0  0  0  0  0  0
  190.1030  177.5430  145.3630 C   0  0  0  0  0  2  0  0  0  0  0  0
  190.4530  178.2170  144.2720 C   0  0  0  0  0  3  0  0  0  0  0  0
  1  9  1  0  0  0  0
  1  5  1  0  0  0  0
  1 17  1  1  0  0  0
  3  9  1  0  0  0  0
  4  9  1  0  0  0  0
  4  2  1  1  0  0  0
  6  4  1  0  0  0  0
  6  7  1  0  0  0  0
  7 12  1  0  0  0  0
  7  5  1  0  0  0  0
  8  6  1  0  0  0  0
  8  4  1  0  0  0  0
 10 16  1  0  0  0  0
 11 10  1  0  0  0  0
 12 14  1  0  0  0  0
 13 11  1  0  0  0  0
 14 10  1  0  0  0  0
 15 13  1  0  0  0  0
 15 12  2  0  0  0  0
 17 19  2  0  0  0  0
 19 20  2  0  0  0  0
 20 18  1  0  0  0  0
 22 21  1  0  0  0  0
 22 17  1  0  0  0  0
 23  8  1  0  0  0  0
 24 23  1  0  0  0  0
 25 27  1  0  0  0  0
 26 24  1  0  0  0  0
 26 27  1  0  0  0  0
 28 31  2  0  0  0  0
 28 29  1  0  0  0  0
 29 30  1  0  0  0  0
 30 26  1  0  0  0  0
 31 25  1  0  0  0  0
 32  5  1  0  0  0  0
 32 34  1  0  0  0  0
 34 33  2  0  0  0  0
M  END
>  <MODEL>
9

>  <REMARK>
 VINA RESULT:      -6.3      2.678      4.842
  Name = 
  8 active torsions:
  status: ('A' for Active; 'I' for Inactive)
    1  A    between atoms: C_2  and  C_4
    2  A    between atoms: C_2  and  O_25
    3  A    between atoms: N_3  and  C_13
    4  A    between atoms: N_3  and  C_17
    5  A    between atoms: C_12  and  C_28
    6  A    between atoms: C_17  and  C_29
    7  A    between atoms: N_21  and  C_32
    8  A    between atoms: C_24  and  C_32
                            x       y       z     vdW  Elec       q    Type
                         _______ _______ _______ _____ _____    ______ ____

>  <TORSDO>
F 8

$$$$
