=
 OpenBabel11052418293D

 27 31  0  0  1  0  0  0  0  0999 V2000
  190.3970  174.5010  143.7770 N   0  0  0  0  0  0  0  0  0  0  0  0
  189.5320  176.4400  144.9600 C   0  0  0  0  0  0  0  0  0  0  0  0
  188.1130  176.3110  142.9090 N   0  0  0  0  0  2  0  0  0  0  0  0
  186.2730  178.1530  146.8000 N   0  0  0  0  0  0  0  0  0  0  0  0
  184.0600  178.6750  145.8900 C   0  0  0  0  0  1  0  0  0  0  0  0
  189.6560  176.7980  146.3290 C   0  0  0  0  0  3  0  0  0  0  0  0
  185.9840  177.6260  144.6820 C   0  0  0  0  0  0  0  0  0  0  0  0
  188.8840  174.0790  139.9840 C   0  0  0  0  0  2  0  0  0  0  0  0
  185.3090  177.4630  143.3610 C   0  0  0  0  0  1  0  0  0  0  0  0
  188.1440  172.8380  140.4260 C   0  0  0  0  0  2  0  0  0  0  0  0
  187.2730  177.2620  145.0090 C   0  0  0  0  0  0  0  0  0  0  0  0
  190.6910  175.8650  144.1920 C   0  0  1  0  0  3  0  0  0  0  0  0
  185.4160  178.1600  145.7870 N   0  0  0  0  0  0  0  0  0  0  0  0
  187.4090  177.6050  146.3300 C   0  0  0  0  0  0  0  0  0  0  0  0
  189.5320  174.1750  142.8640 C   0  0  0  0  0  0  0  0  0  0  0  0
  188.3050  176.6530  144.2890 C   0  0  0  0  0  0  0  0  0  0  0  0
  188.4520  175.1860  140.8730 C   0  0  0  0  0  3  0  0  0  0  0  0
  188.5880  177.3830  147.0300 C   0  0  0  0  0  3  0  0  0  0  0  0
  188.8520  172.1660  141.5560 C   0  0  0  0  0  3  0  0  0  0  0  0
  189.4200  172.7700  142.5600 N   0  0  0  0  0  0  0  0  0  0  0  0
  188.7150  175.2300  142.1780 C   0  0  0  0  0  0  0  0  0  0  0  0
  194.4900  176.0020  146.2080 C   0  0  0  0  0  3  0  0  0  0  0  0
  192.0130  175.9350  144.9020 C   0  0  0  0  0  0  0  0  0  0  0  0
  192.4230  174.8530  145.6880 C   0  0  0  0  0  3  0  0  0  0  0  0
  193.6580  174.8860  146.3420 C   0  0  0  0  0  3  0  0  0  0  0  0
  194.0890  177.0830  145.4190 C   0  0  0  0  0  3  0  0  0  0  0  0
  192.8540  177.0500  144.7660 C   0  0  0  0  0  3  0  0  0  0  0  0
  1 12  1  0  0  0  0
  2  6  1  0  0  0  0
  3 16  1  0  0  0  0
  6 18  2  0  0  0  0
  7 11  2  0  0  0  0
  7 13  1  0  0  0  0
  8 10  1  0  0  0  0
  8 17  1  0  0  0  0
  9  7  1  0  0  0  0
 10 19  1  0  0  0  0
 11 14  1  0  0  0  0
 12 23  1  1  0  0  0
 12  2  1  0  0  0  0
 13  5  1  0  0  0  0
 13  4  1  0  0  0  0
 14  4  2  0  0  0  0
 14 18  1  0  0  0  0
 15  1  2  0  0  0  0
 16  2  2  0  0  0  0
 16 11  1  0  0  0  0
 17 21  2  0  0  0  0
 19 20  2  0  0  0  0
 20 15  1  0  0  0  0
 21 15  1  0  0  0  0
 21  3  1  0  0  0  0
 22 25  1  0  0  0  0
 23 24  1  0  0  0  0
 24 25  2  0  0  0  0
 26 22  2  0  0  0  0
 27 23  2  0  0  0  0
 27 26  1  0  0  0  0
M  END
>  <MODEL>
1

>  <REMARK>
 VINA RESULT:      -8.0      0.000      0.000
  Name = 
  1 active torsions:
  status: ('A' for Active; 'I' for Inactive)
    1  A    between atoms: C_9  and  C_15
                            x       y       z     vdW  Elec       q    Type
                         _______ _______ _______ _____ _____    ______ ____

>  <TORSDO>
F 1

$$$$
=
 OpenBabel11052418293D

 27 31  0  0  1  0  0  0  0  0999 V2000
  187.4950  176.2310  142.8180 N   0  0  0  0  0  0  0  0  0  0  0  0
  188.8110  176.3330  144.8590 C   0  0  0  0  0  0  0  0  0  0  0  0
  189.5630  174.2140  143.7710 N   0  0  0  0  0  2  0  0  0  0  0  0
  192.5840  176.5360  146.4920 N   0  0  0  0  0  0  0  0  0  0  0  0
  194.4730  174.9940  146.2570 C   0  0  0  0  0  1  0  0  0  0  0  0
  189.1160  177.4460  145.6870 C   0  0  0  0  0  3  0  0  0  0  0  0
  192.2080  174.7810  145.2170 C   0  0  0  0  0  0  0  0  0  0  0  0
  187.8100  172.6490  140.8370 C   0  0  0  0  0  2  0  0  0  0  0  0
  192.4570  173.5030  144.4850 C   0  0  0  0  0  1  0  0  0  0  0  0
  188.5490  173.3420  139.7160 C   0  0  0  0  0  2  0  0  0  0  0  0
  191.0440  175.5200  145.2270 C   0  0  0  0  0  0  0  0  0  0  0  0
  187.4390  176.1470  144.2710 C   0  0  1  0  0  3  0  0  0  0  0  0
  193.1100  175.4240  145.9910 N   0  0  0  0  0  0  0  0  0  0  0  0
  191.3220  176.5990  146.0270 C   0  0  0  0  0  0  0  0  0  0  0  0
  188.0320  175.3350  142.0450 C   0  0  0  0  0  0  0  0  0  0  0  0
  189.8050  175.3590  144.6000 C   0  0  0  0  0  0  0  0  0  0  0  0
  188.5640  172.9120  142.0870 C   0  0  0  0  0  3  0  0  0  0  0  0
  190.3830  177.5910  146.2780 C   0  0  0  0  0  3  0  0  0  0  0  0
  188.1490  174.7780  139.6190 C   0  0  0  0  0  3  0  0  0  0  0  0
  187.9430  175.5760  140.6270 N   0  0  0  0  0  0  0  0  0  0  0  0
  188.6940  174.1220  142.6300 C   0  0  0  0  0  0  0  0  0  0  0  0
  184.4070  178.8010  145.7800 C   0  0  0  0  0  3  0  0  0  0  0  0
  186.3890  177.0690  144.8190 C   0  0  0  0  0  0  0  0  0  0  0  0
  186.1380  178.2820  144.1680 C   0  0  0  0  0  3  0  0  0  0  0  0
  185.1510  179.1470  144.6480 C   0  0  0  0  0  3  0  0  0  0  0  0
  184.6480  177.5880  146.4310 C   0  0  0  0  0  3  0  0  0  0  0  0
  185.6360  176.7230  145.9510 C   0  0  0  0  0  3  0  0  0  0  0  0
  1 12  1  0  0  0  0
  2  6  1  0  0  0  0
  3 16  1  0  0  0  0
  6 18  2  0  0  0  0
  7 11  2  0  0  0  0
  7 13  1  0  0  0  0
  8 17  1  0  0  0  0
  9  7  1  0  0  0  0
 10  8  1  0  0  0  0
 11 14  1  0  0  0  0
 12 23  1  1  0  0  0
 12  2  1  0  0  0  0
 13  5  1  0  0  0  0
 13  4  1  0  0  0  0
 14 18  1  0  0  0  0
 14  4  2  0  0  0  0
 15 21  1  0  0  0  0
 15  1  2  0  0  0  0
 16  2  2  0  0  0  0
 16 11  1  0  0  0  0
 17 21  2  0  0  0  0
 19 10  1  0  0  0  0
 19 20  2  0  0  0  0
 20 15  1  0  0  0  0
 21  3  1  0  0  0  0
 22 26  1  0  0  0  0
 23 27  1  0  0  0  0
 24 25  1  0  0  0  0
 24 23  2  0  0  0  0
 25 22  2  0  0  0  0
 27 26  2  0  0  0  0
M  END
>  <MODEL>
2

>  <REMARK>
 VINA RESULT:      -8.0      1.639      5.760
  Name = 
  1 active torsions:
  status: ('A' for Active; 'I' for Inactive)
    1  A    between atoms: C_9  and  C_15
                            x       y       z     vdW  Elec       q    Type
                         _______ _______ _______ _____ _____    ______ ____

>  <TORSDO>
F 1

$$$$
=
 OpenBabel11052418293D

 27 31  0  0  1  0  0  0  0  0999 V2000
  190.7620  175.4200  143.1210 N   0  0  0  0  0  0  0  0  0  0  0  0
  188.3360  175.5630  143.0970 C   0  0  0  0  0  0  0  0  0  0  0  0
  188.9190  175.7370  145.5190 N   0  0  0  0  0  0  0  0  0  0  0  0
  185.0340  177.8540  143.9880 N   0  0  0  0  0  0  0  0  0  0  0  0
  184.3050  178.7740  146.1380 C   0  0  0  0  0  1  0  0  0  0  0  0
  187.4580  175.9020  142.0340 C   0  0  0  0  0  3  0  0  0  0  0  0
  186.3400  177.3870  145.6980 C   0  0  0  0  0  0  0  0  0  0  0  0
  192.3490  175.0320  146.8880 C   0  0  0  0  0  2  0  0  0  0  0  0
  186.8590  177.3680  147.0980 C   0  0  0  0  0  1  0  0  0  0  0  0
  192.9440  176.4160  146.7710 C   0  0  0  0  0  2  0  0  0  0  0  0
  186.9070  176.7910  144.5920 C   0  0  0  0  0  0  0  0  0  0  0  0
  189.5330  174.6800  142.8740 C   0  0  1  0  0  3  0  0  0  0  0  0
  185.2140  178.0160  145.2940 N   0  0  0  0  0  0  0  0  0  0  0  0
  186.0670  177.1060  143.5550 C   0  0  0  0  0  0  0  0  0  0  0  0
  191.1710  175.8070  144.2930 C   0  0  0  0  0  0  0  0  0  0  0  0
  188.0710  176.0390  144.4030 C   0  0  0  0  0  0  0  0  0  0  0  0
  190.8870  175.1650  146.6720 C   0  0  0  0  0  2  0  0  0  0  0  0
  186.3120  176.6840  142.2540 C   0  0  0  0  0  3  0  0  0  0  0  0
  193.2180  176.7620  145.3450 C   0  0  0  0  0  3  0  0  0  0  0  0
  192.4410  176.4860  144.3370 N   0  0  0  0  0  0  0  0  0  0  0  0
  190.3420  175.5380  145.5150 C   0  0  0  0  0  0  0  0  0  0  0  0
  189.7160  172.7230  139.0460 C   0  0  0  0  0  3  0  0  0  0  0  0
  189.5760  174.0060  141.5330 C   0  0  0  0  0  0  0  0  0  0  0  0
  190.7550  174.0540  140.7820 C   0  0  0  0  0  3  0  0  0  0  0  0
  190.8250  173.4160  139.5400 C   0  0  0  0  0  3  0  0  0  0  0  0
  188.5370  172.6660  139.7940 C   0  0  0  0  0  3  0  0  0  0  0  0
  188.4660  173.3040  141.0360 C   0  0  0  0  0  3  0  0  0  0  0  0
  1 15  2  0  0  0  0
  2 16  2  0  0  0  0
  4 13  1  0  0  0  0
  6 18  2  0  0  0  0
  6  2  1  0  0  0  0
  7  9  1  0  0  0  0
 10  8  1  0  0  0  0
 11  7  2  0  0  0  0
 12 23  1  6  0  0  0
 12  2  1  0  0  0  0
 12  1  1  0  0  0  0
 13  7  1  0  0  0  0
 13  5  1  0  0  0  0
 14  4  2  0  0  0  0
 14 11  1  0  0  0  0
 15 20  1  0  0  0  0
 15 21  1  0  0  0  0
 16 11  1  0  0  0  0
 16  3  1  0  0  0  0
 17  8  1  0  0  0  0
 18 14  1  0  0  0  0
 19 10  1  0  0  0  0
 20 19  2  0  0  0  0
 21  3  2  0  0  0  0
 21 17  1  0  0  0  0
 22 25  2  0  0  0  0
 22 26  1  0  0  0  0
 24 23  2  0  0  0  0
 25 24  1  0  0  0  0
 26 27  2  0  0  0  0
 27 23  1  0  0  0  0
M  END
>  <MODEL>
3

>  <REMARK>
 VINA RESULT:      -7.6      1.440      5.118
  Name = 
  1 active torsions:
  status: ('A' for Active; 'I' for Inactive)
    1  A    between atoms: C_9  and  C_15
                            x       y       z     vdW  Elec       q    Type
                         _______ _______ _______ _____ _____    ______ ____

>  <TORSDO>
F 1

$$$$
=
 OpenBabel11052418293D

 27 31  0  0  1  0  0  0  0  0999 V2000
  189.6010  176.6420  145.2930 N   0  0  0  0  0  0  0  0  0  0  0  0
  188.8440  175.8380  143.1280 C   0  0  0  0  0  0  0  0  0  0  0  0
  191.3310  175.6500  142.9980 N   0  0  0  0  0  0  0  0  0  0  0  0
  188.7200  172.6660  140.5070 N   0  0  0  0  0  0  0  0  0  0  0  0
  190.5590  171.4210  139.4730 C   0  0  0  0  0  1  0  0  0  0  0  0
  187.5690  175.3510  142.7360 C   0  0  0  0  0  3  0  0  0  0  0  0
  190.7400  173.3440  141.0630 C   0  0  0  0  0  0  0  0  0  0  0  0
  193.6660  177.1680  145.5230 C   0  0  0  0  0  2  0  0  0  0  0  0
  192.2310  173.4000  141.1190 C   0  0  0  0  0  1  0  0  0  0  0  0
  193.7520  176.0140  146.4950 C   0  0  0  0  0  2  0  0  0  0  0  0
  189.8510  174.1550  141.7360 C   0  0  0  0  0  0  0  0  0  0  0  0
  188.9830  177.0310  144.0330 C   0  0  1  0  0  3  0  0  0  0  0  0
  190.0210  172.4620  140.3340 N   0  0  0  0  0  0  0  0  0  0  0  0
  188.6110  173.6990  141.3630 C   0  0  0  0  0  0  0  0  0  0  0  0
  190.8460  176.2950  145.4320 C   0  0  0  0  0  0  0  0  0  0  0  0
  190.0140  175.2100  142.6380 C   0  0  0  0  0  0  0  0  0  0  0  0
  193.0190  176.6530  144.2900 C   0  0  0  0  0  2  0  0  0  0  0  0
  187.4410  174.2690  141.8480 C   0  0  0  0  0  3  0  0  0  0  0  0
  192.4800  175.8640  147.2630 C   0  0  0  0  0  3  0  0  0  0  0  0
  191.2810  175.9920  146.7720 N   0  0  0  0  0  0  0  0  0  0  0  0
  191.7560  176.2330  144.2400 C   0  0  0  0  0  0  0  0  0  0  0  0
  185.3590  179.2270  144.7810 C   0  0  0  0  0  3  0  0  0  0  0  0
  187.7100  177.7900  144.2740 C   0  0  0  0  0  0  0  0  0  0  0  0
  187.1260  177.7570  145.5450 C   0  0  0  0  0  3  0  0  0  0  0  0
  185.9520  178.4730  145.7980 C   0  0  0  0  0  3  0  0  0  0  0  0
  185.9410  179.2690  143.5110 C   0  0  0  0  0  3  0  0  0  0  0  0
  187.1150  178.5530  143.2580 C   0  0  0  0  0  3  0  0  0  0  0  0
  1 15  2  0  0  0  0
  2 12  1  0  0  0  0
  3 21  2  0  0  0  0
  4 14  2  0  0  0  0
  5 13  1  0  0  0  0
  6  2  1  0  0  0  0
  7  9  1  0  0  0  0
  7 11  2  0  0  0  0
  8 10  1  0  0  0  0
 10 19  1  0  0  0  0
 11 16  1  0  0  0  0
 12 23  1  1  0  0  0
 12  1  1  0  0  0  0
 13  4  1  0  0  0  0
 13  7  1  0  0  0  0
 14 11  1  0  0  0  0
 14 18  1  0  0  0  0
 15 20  1  0  0  0  0
 16  3  1  0  0  0  0
 16  2  2  0  0  0  0
 17  8  1  0  0  0  0
 18  6  2  0  0  0  0
 20 19  2  0  0  0  0
 21 17  1  0  0  0  0
 21 15  1  0  0  0  0
 22 25  1  0  0  0  0
 23 24  1  0  0  0  0
 24 25  2  0  0  0  0
 26 22  2  0  0  0  0
 27 26  1  0  0  0  0
 27 23  2  0  0  0  0
M  END
>  <MODEL>
4

>  <REMARK>
 VINA RESULT:      -7.5      1.825      6.702
  Name = 
  1 active torsions:
  status: ('A' for Active; 'I' for Inactive)
    1  A    between atoms: C_9  and  C_15
                            x       y       z     vdW  Elec       q    Type
                         _______ _______ _______ _____ _____    ______ ____

>  <TORSDO>
F 1

$$$$
=
 OpenBabel11052418293D

 27 31  0  0  1  0  0  0  0  0999 V2000
  189.7180  176.1650  145.3120 N   0  0  0  0  0  0  0  0  0  0  0  0
  188.8290  175.6050  143.1200 C   0  0  0  0  0  0  0  0  0  0  0  0
  191.3000  175.6660  142.7630 N   0  0  0  0  0  0  0  0  0  0  0  0
  188.7140  172.8300  140.0810 N   0  0  0  0  0  0  0  0  0  0  0  0
  190.5410  171.9160  138.7300 C   0  0  0  0  0  1  0  0  0  0  0  0
  187.5660  175.0620  142.7650 C   0  0  0  0  0  3  0  0  0  0  0  0
  190.7170  173.6080  140.5650 C   0  0  0  0  0  0  0  0  0  0  0  0
  193.7320  177.0260  145.2860 C   0  0  0  0  0  2  0  0  0  0  0  0
  192.1970  173.7930  140.5080 C   0  0  0  0  0  1  0  0  0  0  0  0
  194.0010  175.7610  146.0680 C   0  0  0  0  0  2  0  0  0  0  0  0
  189.8320  174.2320  141.4190 C   0  0  0  0  0  0  0  0  0  0  0  0
  188.9570  176.6680  144.1760 C   0  0  1  0  0  3  0  0  0  0  0  0
  190.0050  172.7730  139.7750 N   0  0  0  0  0  0  0  0  0  0  0  0
  188.6030  173.7200  141.0850 C   0  0  0  0  0  0  0  0  0  0  0  0
  190.9940  175.9190  145.2970 C   0  0  0  0  0  0  0  0  0  0  0  0
  189.9950  175.1620  142.4500 C   0  0  0  0  0  0  0  0  0  0  0  0
  193.0160  176.6310  144.0480 C   0  0  0  0  0  2  0  0  0  0  0  0
  187.4420  174.1070  141.7420 C   0  0  0  0  0  3  0  0  0  0  0  0
  192.8210  175.3900  146.9060 C   0  0  0  0  0  3  0  0  0  0  0  0
  191.5750  175.4730  146.5380 N   0  0  0  0  0  0  0  0  0  0  0  0
  191.7910  176.1070  144.0390 C   0  0  0  0  0  0  0  0  0  0  0  0
  185.2050  178.3770  145.4070 C   0  0  0  0  0  3  0  0  0  0  0  0
  187.6550  177.2650  144.6280 C   0  0  0  0  0  0  0  0  0  0  0  0
  187.0760  178.2910  143.8730 C   0  0  0  0  0  3  0  0  0  0  0  0
  185.8550  178.8480  144.2620 C   0  0  0  0  0  3  0  0  0  0  0  0
  185.7750  177.3490  146.1620 C   0  0  0  0  0  3  0  0  0  0  0  0
  186.9960  176.7920  145.7730 C   0  0  0  0  0  3  0  0  0  0  0  0
  2 12  1  0  0  0  0
  3 21  2  0  0  0  0
  4 14  2  0  0  0  0
  5 13  1  0  0  0  0
  6  2  1  0  0  0  0
  7 11  2  0  0  0  0
  8 10  1  0  0  0  0
  9  7  1  0  0  0  0
 10 19  1  0  0  0  0
 11 16  1  0  0  0  0
 12 23  1  1  0  0  0
 12  1  1  0  0  0  0
 13  4  1  0  0  0  0
 13  7  1  0  0  0  0
 14 11  1  0  0  0  0
 14 18  1  0  0  0  0
 15  1  2  0  0  0  0
 15 20  1  0  0  0  0
 16  3  1  0  0  0  0
 16  2  2  0  0  0  0
 17  8  1  0  0  0  0
 18  6  2  0  0  0  0
 20 19  2  0  0  0  0
 21 17  1  0  0  0  0
 21 15  1  0  0  0  0
 22 26  1  0  0  0  0
 23 27  1  0  0  0  0
 24 25  1  0  0  0  0
 24 23  2  0  0  0  0
 25 22  2  0  0  0  0
 27 26  2  0  0  0  0
M  END
>  <MODEL>
5

>  <REMARK>
 VINA RESULT:      -7.5      1.852      6.703
  Name = 
  1 active torsions:
  status: ('A' for Active; 'I' for Inactive)
    1  A    between atoms: C_9  and  C_15
                            x       y       z     vdW  Elec       q    Type
                         _______ _______ _______ _____ _____    ______ ____

>  <TORSDO>
F 1

$$$$
=
 OpenBabel11052418293D

 27 31  0  0  1  0  0  0  0  0999 V2000
  191.3490  175.1340  143.0130 N   0  0  0  0  0  0  0  0  0  0  0  0
  188.9620  175.1870  142.5610 C   0  0  0  0  0  0  0  0  0  0  0  0
  189.1090  175.5430  145.0280 N   0  0  0  0  0  0  0  0  0  0  0  0
  185.5010  177.4110  142.7020 N   0  0  0  0  0  0  0  0  0  0  0  0
  184.3860  178.4460  144.6220 C   0  0  0  0  0  1  0  0  0  0  0  0
  188.2750  175.4220  141.3400 C   0  0  0  0  0  3  0  0  0  0  0  0
  186.5000  177.1070  144.6410 C   0  0  0  0  0  0  0  0  0  0  0  0
  192.2630  175.0550  147.0150 C   0  0  0  0  0  2  0  0  0  0  0  0
  186.7660  177.2000  146.1060 C   0  0  0  0  0  1  0  0  0  0  0  0
  192.8360  176.4490  146.9040 C   0  0  0  0  0  2  0  0  0  0  0  0
  187.2650  176.4590  143.6940 C   0  0  0  0  0  0  0  0  0  0  0  0
  190.2000  174.3350  142.6120 C   0  0  1  0  0  3  0  0  0  0  0  0
  185.4460  177.6670  144.0040 N   0  0  0  0  0  0  0  0  0  0  0  0
  186.6110  176.6750  142.5080 C   0  0  0  0  0  0  0  0  0  0  0  0
  191.5380  175.6120  144.2070 C   0  0  0  0  0  0  0  0  0  0  0  0
  188.4610  175.7390  143.7640 C   0  0  0  0  0  0  0  0  0  0  0  0
  190.8580  175.1210  146.5410 C   0  0  0  0  0  2  0  0  0  0  0  0
  187.0890  176.1760  141.3030 C   0  0  0  0  0  3  0  0  0  0  0  0
  193.3460  176.7090  145.5240 C   0  0  0  0  0  3  0  0  0  0  0  0
  192.7640  176.3380  144.4200 N   0  0  0  0  0  0  0  0  0  0  0  0
  190.5150  175.3950  145.2840 C   0  0  0  0  0  0  0  0  0  0  0  0
  191.1030  172.1590  139.0100 C   0  0  0  0  0  3  0  0  0  0  0  0
  190.4920  173.5750  141.3500 C   0  0  0  0  0  0  0  0  0  0  0  0
  191.5470  173.9910  140.5310 C   0  0  0  0  0  3  0  0  0  0  0  0
  191.8520  173.2870  139.3620 C   0  0  0  0  0  3  0  0  0  0  0  0
  190.0520  171.7340  139.8280 C   0  0  0  0  0  3  0  0  0  0  0  0
  189.7480  172.4390  140.9960 C   0  0  0  0  0  3  0  0  0  0  0  0
  1 15  2  0  0  0  0
  2 12  1  0  0  0  0
  2 16  2  0  0  0  0
  3 21  2  0  0  0  0
  4 13  1  0  0  0  0
  6  2  1  0  0  0  0
  7  9  1  0  0  0  0
 10  8  1  0  0  0  0
 11 16  1  0  0  0  0
 11  7  2  0  0  0  0
 12 23  1  6  0  0  0
 12  1  1  0  0  0  0
 13  5  1  0  0  0  0
 13  7  1  0  0  0  0
 14  4  2  0  0  0  0
 14 11  1  0  0  0  0
 15 20  1  0  0  0  0
 15 21  1  0  0  0  0
 16  3  1  0  0  0  0
 17  8  1  0  0  0  0
 18  6  2  0  0  0  0
 18 14  1  0  0  0  0
 19 10  1  0  0  0  0
 20 19  2  0  0  0  0
 21 17  1  0  0  0  0
 22 25  2  0  0  0  0
 22 26  1  0  0  0  0
 24 23  2  0  0  0  0
 25 24  1  0  0  0  0
 26 27  2  0  0  0  0
 27 23  1  0  0  0  0
M  END
>  <MODEL>
6

>  <REMARK>
 VINA RESULT:      -7.2      1.798      5.174
  Name = 
  1 active torsions:
  status: ('A' for Active; 'I' for Inactive)
    1  A    between atoms: C_9  and  C_15
                            x       y       z     vdW  Elec       q    Type
                         _______ _______ _______ _____ _____    ______ ____

>  <TORSDO>
F 1

$$$$
=
 OpenBabel11052418293D

 27 31  0  0  1  0  0  0  0  0999 V2000
  189.6530  174.9730  143.0840 N   0  0  0  0  0  0  0  0  0  0  0  0
  191.1040  175.1770  145.0240 C   0  0  0  0  0  0  0  0  0  0  0  0
  191.7390  172.9730  144.0340 N   0  0  0  0  0  2  0  0  0  0  0  0
  194.9800  175.3940  146.3910 N   0  0  0  0  0  0  0  0  0  0  0  0
  196.8170  173.7940  146.1390 C   0  0  0  0  0  1  0  0  0  0  0  0
  191.4850  176.3340  145.7530 C   0  0  0  0  0  3  0  0  0  0  0  0
  194.4840  173.5680  145.2640 C   0  0  0  0  0  0  0  0  0  0  0  0
  189.7640  171.2610  141.3330 C   0  0  0  0  0  2  0  0  0  0  0  0
  194.6590  172.2400  144.6060 C   0  0  0  0  0  1  0  0  0  0  0  0
  190.4410  171.8610  140.1220 C   0  0  0  0  0  2  0  0  0  0  0  0
  193.3390  174.3350  145.3000 C   0  0  0  0  0  0  0  0  0  0  0  0
  189.6920  174.9860  144.5390 C   0  0  1  0  0  3  0  0  0  0  0  0
  195.4490  174.2390  145.9330 N   0  0  0  0  0  0  0  0  0  0  0  0
  193.6920  175.4570  146.0060 C   0  0  0  0  0  0  0  0  0  0  0  0
  190.1200  174.0140  142.3390 C   0  0  0  0  0  0  0  0  0  0  0  0
  192.0580  174.1640  144.7670 C   0  0  0  0  0  0  0  0  0  0  0  0
  190.6050  171.5880  142.5110 C   0  0  0  0  0  3  0  0  0  0  0  0
  192.7910  176.4860  146.2500 C   0  0  0  0  0  3  0  0  0  0  0  0
  190.0640  173.2960  139.9540 C   0  0  0  0  0  3  0  0  0  0  0  0
  189.9420  174.1640  140.9170 N   0  0  0  0  0  0  0  0  0  0  0  0
  190.7940  172.8270  142.9610 C   0  0  0  0  0  0  0  0  0  0  0  0
  186.8130  177.7960  146.0640 C   0  0  0  0  0  3  0  0  0  0  0  0
  188.7000  175.9680  145.0920 C   0  0  0  0  0  0  0  0  0  0  0  0
  188.2360  177.0030  144.2730 C   0  0  0  0  0  3  0  0  0  0  0  0
  187.2960  177.9170  144.7580 C   0  0  0  0  0  3  0  0  0  0  0  0
  187.2670  176.7600  146.8850 C   0  0  0  0  0  3  0  0  0  0  0  0
  188.2070  175.8460  146.4000 C   0  0  0  0  0  3  0  0  0  0  0  0
  1 12  1  0  0  0  0
  2  6  1  0  0  0  0
  3 16  1  0  0  0  0
  6 18  2  0  0  0  0
  7 11  2  0  0  0  0
  7 13  1  0  0  0  0
  8 17  1  0  0  0  0
  9  7  1  0  0  0  0
 10  8  1  0  0  0  0
 11 14  1  0  0  0  0
 12  2  1  0  0  0  0
 12 23  1  6  0  0  0
 13  5  1  0  0  0  0
 13  4  1  0  0  0  0
 14 18  1  0  0  0  0
 14  4  2  0  0  0  0
 15 21  1  0  0  0  0
 15  1  2  0  0  0  0
 16  2  2  0  0  0  0
 16 11  1  0  0  0  0
 17 21  2  0  0  0  0
 19 10  1  0  0  0  0
 19 20  2  0  0  0  0
 20 15  1  0  0  0  0
 21  3  1  0  0  0  0
 22 26  1  0  0  0  0
 23 27  1  0  0  0  0
 24 25  1  0  0  0  0
 24 23  2  0  0  0  0
 25 22  2  0  0  0  0
 27 26  2  0  0  0  0
M  END
>  <MODEL>
7

>  <REMARK>
 VINA RESULT:      -7.1      2.222      6.207
  Name = 
  1 active torsions:
  status: ('A' for Active; 'I' for Inactive)
    1  A    between atoms: C_9  and  C_15
                            x       y       z     vdW  Elec       q    Type
                         _______ _______ _______ _____ _____    ______ ____

>  <TORSDO>
F 1

$$$$
=
 OpenBabel11052418293D

 27 31  0  0  1  0  0  0  0  0999 V2000
  188.6970  175.7830  144.5510 N   0  0  0  0  0  0  0  0  0  0  0  0
  188.9920  174.8560  142.3240 C   0  0  0  0  0  0  0  0  0  0  0  0
  191.2730  174.7220  143.3320 N   0  0  0  0  0  0  0  0  0  0  0  0
  190.0560  171.5580  140.1030 N   0  0  0  0  0  0  0  0  0  0  0  0
  192.1630  170.3080  140.0720 C   0  0  0  0  0  1  0  0  0  0  0  0
  188.0290  174.3210  141.4290 C   0  0  0  0  0  3  0  0  0  0  0  0
  191.6120  172.3110  141.4670 C   0  0  0  0  0  0  0  0  0  0  0  0
  192.2270  176.4170  146.5490 C   0  0  0  0  0  2  0  0  0  0  0  0
  192.9190  172.4050  142.1820 C   0  0  0  0  0  1  0  0  0  0  0  0
  191.8670  175.3150  147.5180 C   0  0  0  0  0  2  0  0  0  0  0  0
  190.5160  173.1320  141.6240 C   0  0  0  0  0  0  0  0  0  0  0  0
  188.7110  176.0950  143.1290 C   0  0  1  0  0  3  0  0  0  0  0  0
  191.2960  171.3770  140.5420 N   0  0  0  0  0  0  0  0  0  0  0  0
  189.5750  172.6290  140.7610 C   0  0  0  0  0  0  0  0  0  0  0  0
  189.7470  175.4740  145.2520 C   0  0  0  0  0  0  0  0  0  0  0  0
  190.2570  174.2340  142.4450 C   0  0  0  0  0  0  0  0  0  0  0  0
  192.2020  175.8280  145.1880 C   0  0  0  0  0  2  0  0  0  0  0  0
  188.3120  173.1930  140.6390 C   0  0  0  0  0  3  0  0  0  0  0  0
  190.3850  175.1730  147.6410 C   0  0  0  0  0  3  0  0  0  0  0  0
  189.5340  175.2470  146.6590 N   0  0  0  0  0  0  0  0  0  0  0  0
  191.0950  175.3750  144.5990 C   0  0  0  0  0  0  0  0  0  0  0  0
  185.1480  178.1880  141.9280 C   0  0  0  0  0  3  0  0  0  0  0  0
  187.4650  176.8340  142.7310 C   0  0  0  0  0  0  0  0  0  0  0  0
  187.4490  177.5460  141.5270 C   0  0  0  0  0  3  0  0  0  0  0  0
  186.2940  178.2240  141.1260 C   0  0  0  0  0  3  0  0  0  0  0  0
  185.1560  177.4730  143.1280 C   0  0  0  0  0  3  0  0  0  0  0  0
  186.3110  176.7950  143.5290 C   0  0  0  0  0  3  0  0  0  0  0  0
  1 15  2  0  0  0  0
  2 16  2  0  0  0  0
  2 12  1  0  0  0  0
  3 21  2  0  0  0  0
  4 13  1  0  0  0  0
  4 14  2  0  0  0  0
  5 13  1  0  0  0  0
  6  2  1  0  0  0  0
  7 11  2  0  0  0  0
  7  9  1  0  0  0  0
  8 10  1  0  0  0  0
 10 19  1  0  0  0  0
 11 16  1  0  0  0  0
 12 23  1  6  0  0  0
 12  1  1  0  0  0  0
 13  7  1  0  0  0  0
 14 11  1  0  0  0  0
 15 20  1  0  0  0  0
 16  3  1  0  0  0  0
 17  8  1  0  0  0  0
 18 14  1  0  0  0  0
 18  6  2  0  0  0  0
 20 19  2  0  0  0  0
 21 17  1  0  0  0  0
 21 15  1  0  0  0  0
 22 26  1  0  0  0  0
 23 27  1  0  0  0  0
 24 23  2  0  0  0  0
 25 24  1  0  0  0  0
 25 22  2  0  0  0  0
 26 27  2  0  0  0  0
M  END
>  <MODEL>
8

>  <REMARK>
 VINA RESULT:      -6.9      2.056      7.286
  Name = 
  1 active torsions:
  status: ('A' for Active; 'I' for Inactive)
    1  A    between atoms: C_9  and  C_15
                            x       y       z     vdW  Elec       q    Type
                         _______ _______ _______ _____ _____    ______ ____

>  <TORSDO>
F 1

$$$$
=
 OpenBabel11052418293D

 27 31  0  0  1  0  0  0  0  0999 V2000
  188.8610  174.4700  143.6910 N   0  0  0  0  0  0  0  0  0  0  0  0
  187.7130  176.5020  144.3710 C   0  0  0  0  0  0  0  0  0  0  0  0
  187.3150  176.3890  141.9080 N   0  0  0  0  0  2  0  0  0  0  0  0
  184.1130  178.4850  144.6050 N   0  0  0  0  0  0  0  0  0  0  0  0
  182.5570  179.1120  142.8210 C   0  0  0  0  0  1  0  0  0  0  0  0
  187.2580  176.9010  145.6560 C   0  0  0  0  0  3  0  0  0  0  0  0
  184.7310  177.9000  142.5740 C   0  0  0  0  0  0  0  0  0  0  0  0
  189.1110  174.0080  139.6190 C   0  0  0  0  0  2  0  0  0  0  0  0
  184.6840  177.7330  141.0910 C   0  0  0  0  0  1  0  0  0  0  0  0
  188.1640  172.8340  139.7020 C   0  0  0  0  0  2  0  0  0  0  0  0
  185.7220  177.4670  143.4300 C   0  0  0  0  0  0  0  0  0  0  0  0
  189.0450  175.8280  144.1850 C   0  0  1  0  0  3  0  0  0  0  0  0
  183.7820  178.5090  143.3200 N   0  0  0  0  0  0  0  0  0  0  0  0
  185.2980  177.8490  144.6770 C   0  0  0  0  0  0  0  0  0  0  0  0
  188.4540  174.1670  142.4940 C   0  0  0  0  0  0  0  0  0  0  0  0
  186.9160  176.7680  143.2320 C   0  0  0  0  0  0  0  0  0  0  0  0
  188.4190  175.1720  140.2260 C   0  0  0  0  0  3  0  0  0  0  0  0
  186.0380  177.5770  145.8210 C   0  0  0  0  0  3  0  0  0  0  0  0
  188.2620  172.1590  141.0310 C   0  0  0  0  0  3  0  0  0  0  0  0
  188.3830  172.7630  142.1780 N   0  0  0  0  0  0  0  0  0  0  0  0
  188.0940  175.2470  141.5160 C   0  0  0  0  0  0  0  0  0  0  0  0
  191.5770  175.7930  147.6640 C   0  0  0  0  0  3  0  0  0  0  0  0
  189.9300  175.8390  145.3980 C   0  0  0  0  0  0  0  0  0  0  0  0
  189.5930  175.0410  146.4970 C   0  0  0  0  0  3  0  0  0  0  0  0
  190.4130  175.0190  147.6280 C   0  0  0  0  0  3  0  0  0  0  0  0
  191.9220  176.5880  146.5680 C   0  0  0  0  0  3  0  0  0  0  0  0
  191.1020  176.6100  145.4360 C   0  0  0  0  0  3  0  0  0  0  0  0
  1 12  1  0  0  0  0
  2  6  1  0  0  0  0
  3 16  1  0  0  0  0
  4 14  2  0  0  0  0
  5 13  1  0  0  0  0
  6 18  2  0  0  0  0
  7 13  1  0  0  0  0
  7 11  2  0  0  0  0
  8 10  1  0  0  0  0
  8 17  1  0  0  0  0
  9  7  1  0  0  0  0
 10 19  1  0  0  0  0
 11 14  1  0  0  0  0
 12  2  1  0  0  0  0
 12 23  1  1  0  0  0
 13  4  1  0  0  0  0
 14 18  1  0  0  0  0
 15  1  2  0  0  0  0
 16 11  1  0  0  0  0
 16  2  2  0  0  0  0
 17 21  2  0  0  0  0
 19 20  2  0  0  0  0
 20 15  1  0  0  0  0
 21  3  1  0  0  0  0
 21 15  1  0  0  0  0
 23 27  2  0  0  0  0
 23 24  1  0  0  0  0
 24 25  2  0  0  0  0
 25 22  1  0  0  0  0
 26 22  2  0  0  0  0
 27 26  1  0  0  0  0
M  END
>  <MODEL>
9

>  <REMARK>
 VINA RESULT:      -6.9      1.555      2.220
  Name = 
  1 active torsions:
  status: ('A' for Active; 'I' for Inactive)
    1  A    between atoms: C_9  and  C_15
                            x       y       z     vdW  Elec       q    Type
                         _______ _______ _______ _____ _____    ______ ____

>  <TORSDO>
F 1

$$$$
