=
 OpenBabel11052417593D

 31 33  0  0  1  0  0  0  0  0999 V2000
  184.7450  178.4400  145.3800 C   0  0  0  0  0  0  0  0  0  0  0  0
  188.3520  177.9040  144.3180 C   0  0  0  0  0  2  0  0  0  0  0  0
  187.0600  177.7910  145.0760 C   0  0  0  0  0  0  0  0  0  0  0  0
  184.6380  177.5610  146.4620 C   0  0  0  0  0  3  0  0  0  0  0  0
  189.3600  176.4230  146.0310 N   0  0  0  0  0  0  0  0  0  0  0  0
  183.6760  179.1770  144.9990 F   0  0  0  0  0  0  0  0  0  0  0  0
  188.0840  176.1390  146.5580 N   0  0  0  0  0  2  0  0  0  0  0  0
  189.2890  176.7120  144.5850 C   0  0  1  0  0  3  0  0  0  0  0  0
  185.9550  178.5540  144.6860 C   0  0  0  0  0  3  0  0  0  0  0  0
  186.9550  176.9260  146.1780 C   0  0  0  0  0  0  0  0  0  0  0  0
  185.7420  176.8010  146.8600 C   0  0  0  0  0  3  0  0  0  0  0  0
  188.9920  175.4870  143.6930 C   0  0  1  0  0  3  0  0  0  0  0  0
  187.5970  175.9460  141.9000 C   0  0  0  0  0  2  0  0  0  0  0  0
  187.6550  175.4380  143.2140 O   0  0  0  0  0  0  0  0  0  0  0  0
  188.3400  175.0190  140.9210 C   0  0  0  0  0  2  0  0  0  0  0  0
  189.2370  173.0900  141.9310 C   0  0  0  0  0  1  0  0  0  0  0  0
  190.0660  175.2610  142.6040 C   0  0  2  0  0  3  0  0  0  0  0  0
  189.5700  174.4400  141.4850 N   0  0  0  0  0  0  0  0  0  0  0  0
  191.4460  174.8380  143.1220 C   0  0  0  0  0  2  0  0  0  0  0  0
  192.5520  175.8020  142.7240 C   0  0  0  0  0  1  0  0  0  0  0  0
  190.3410  175.3800  146.3800 C   0  0  0  0  0  2  0  0  0  0  0  0
  191.5400  176.7020  148.0250 C   0  0  0  0  0  0  0  0  0  0  0  0
  191.6120  175.8790  147.0140 C   0  0  0  0  0  0  0  0  0  0  0  0
  191.4750  177.4810  148.9850 O   0  0  0  0  0  0  0  0  0  0  0  0
  192.9330  175.3040  146.6180 C   0  0  0  0  0  2  0  0  0  0  0  0
  194.0020  176.3810  146.5640 C   0  0  0  0  0  2  0  0  0  0  0  0
  194.9910  176.0540  145.4670 C   0  0  0  0  0  2  0  0  0  0  0  0
  195.0910  174.5490  145.3090 C   0  0  0  0  0  2  0  0  0  0  0  0
  196.5210  174.1240  145.2890 C   0  0  0  0  0  0  0  0  0  0  0  0
  196.9800  173.0260  146.1850 C   0  0  0  0  0  1  0  0  0  0  0  0
  197.3220  174.6850  144.5590 O   0  0  0  0  0  0  0  0  0  0  0  0
  1  4  1  0  0  0  0
  2  3  1  0  0  0  0
  3 10  2  0  0  0  0
  4 11  2  0  0  0  0
  5 21  1  0  0  0  0
  5  7  1  0  0  0  0
  6  1  1  0  0  0  0
  8  2  1  1  0  0  0
  8  5  1  0  0  0  0
  9  3  1  0  0  0  0
  9  1  2  0  0  0  0
 10  7  1  0  0  0  0
 10 11  1  0  0  0  0
 12 14  1  6  0  0  0
 12  8  1  0  0  0  0
 13 14  1  0  0  0  0
 15 18  1  0  0  0  0
 15 13  1  0  0  0  0
 17 19  1  1  0  0  0
 17 12  1  0  0  0  0
 18 16  1  0  0  0  0
 18 17  1  0  0  0  0
 20 19  1  0  0  0  0
 21 23  1  0  0  0  0
 22 24  2  0  0  0  0
 23 22  2  0  0  0  0
 25 23  1  0  0  0  0
 26 25  1  0  0  0  0
 27 26  1  0  0  0  0
 28 27  1  0  0  0  0
 29 28  1  0  0  0  0
 29 30  1  0  0  0  0
 31 29  2  0  0  0  0
M  END
>  <MODEL>
1

>  <REMARK>
 VINA RESULT:      -7.4      0.000      0.000
  Name = 
  9 active torsions:
  status: ('A' for Active; 'I' for Inactive)
    1  A    between atoms: C_1  and  C_24
    2  A    between atoms: C_5  and  C_21
    3  A    between atoms: C_6  and  C_7
    4  A    between atoms: C_6  and  C_19
    5  A    between atoms: C_7  and  C_9
    6  A    between atoms: C_9  and  C_23
    7  A    between atoms: N_15  and  C_23
    8  A    between atoms: C_17  and  C_30
    9  A    between atoms: C_19  and  C_24
                            x       y       z     vdW  Elec       q    Type
                         _______ _______ _______ _____ _____    ______ ____

>  <TORSDO>
F 9

$$$$
=
 OpenBabel11052417593D

 31 33  0  0  1  0  0  0  0  0999 V2000
  185.3870  178.5890  145.7530 C   0  0  0  0  0  0  0  0  0  0  0  0
  188.7940  177.6760  144.3450 C   0  0  0  0  0  2  0  0  0  0  0  0
  187.5550  177.6620  145.1950 C   0  0  0  0  0  0  0  0  0  0  0  0
  185.2280  177.6230  146.7500 C   0  0  0  0  0  3  0  0  0  0  0  0
  189.6910  175.8940  145.8170 N   0  0  0  0  0  0  0  0  0  0  0  0
  184.4130  179.5040  145.5360 F   0  0  0  0  0  0  0  0  0  0  0  0
  188.4270  175.7350  146.4190 N   0  0  0  0  0  2  0  0  0  0  0  0
  189.5620  176.3430  144.4160 C   0  0  1  0  0  3  0  0  0  0  0  0
  186.5490  178.6080  144.9740 C   0  0  0  0  0  3  0  0  0  0  0  0
  187.4010  176.7070  146.2130 C   0  0  0  0  0  0  0  0  0  0  0  0
  186.2340  176.6780  146.9790 C   0  0  0  0  0  3  0  0  0  0  0  0
  189.0280  175.2750  143.4390 C   0  0  1  0  0  3  0  0  0  0  0  0
  187.5130  176.0930  141.8870 C   0  0  0  0  0  2  0  0  0  0  0  0
  187.6510  175.4250  143.1210 O   0  0  0  0  0  0  0  0  0  0  0  0
  188.0310  175.2190  140.7310 C   0  0  0  0  0  2  0  0  0  0  0  0
  188.7950  173.0970  141.4100 C   0  0  0  0  0  1  0  0  0  0  0  0
  189.9440  175.0710  142.2090 C   0  0  2  0  0  3  0  0  0  0  0  0
  189.2370  174.4480  141.0760 N   0  0  0  0  0  0  0  0  0  0  0  0
  191.3120  174.4450  142.5090 C   0  0  0  0  0  2  0  0  0  0  0  0
  192.4650  175.4180  142.3250 C   0  0  0  0  0  1  0  0  0  0  0  0
  190.5300  174.6930  145.9800 C   0  0  0  0  0  2  0  0  0  0  0  0
  192.8400  173.9630  145.8410 C   0  0  0  0  0  0  0  0  0  0  0  0
  192.0110  174.9500  146.0500 C   0  0  0  0  0  0  0  0  0  0  0  0
  193.6290  173.0300  145.6410 O   0  0  0  0  0  0  0  0  0  0  0  0
  192.5340  176.3440  146.1740 C   0  0  0  0  0  2  0  0  0  0  0  0
  194.0180  176.3430  146.4990 C   0  0  0  0  0  2  0  0  0  0  0  0
  194.8020  176.7540  145.2720 C   0  0  0  0  0  2  0  0  0  0  0  0
  195.8580  175.7080  144.9740 C   0  0  0  0  0  2  0  0  0  0  0  0
  195.9770  175.4970  143.5010 C   0  0  0  0  0  0  0  0  0  0  0  0
  196.3460  176.6380  142.6180 C   0  0  0  0  0  1  0  0  0  0  0  0
  195.7530  174.4010  143.0140 O   0  0  0  0  0  0  0  0  0  0  0  0
  1  4  1  0  0  0  0
  2  3  1  0  0  0  0
  3 10  2  0  0  0  0
  4 11  2  0  0  0  0
  5 21  1  0  0  0  0
  5  7  1  0  0  0  0
  6  1  1  0  0  0  0
  8  2  1  1  0  0  0
  8  5  1  0  0  0  0
  9  3  1  0  0  0  0
  9  1  2  0  0  0  0
 10  7  1  0  0  0  0
 10 11  1  0  0  0  0
 12 14  1  6  0  0  0
 12  8  1  0  0  0  0
 13 14  1  0  0  0  0
 15 18  1  0  0  0  0
 15 13  1  0  0  0  0
 17 19  1  1  0  0  0
 17 12  1  0  0  0  0
 18 16  1  0  0  0  0
 18 17  1  0  0  0  0
 20 19  1  0  0  0  0
 21 23  1  0  0  0  0
 22 23  2  0  0  0  0
 23 25  1  0  0  0  0
 24 22  2  0  0  0  0
 25 26  1  0  0  0  0
 27 26  1  0  0  0  0
 28 27  1  0  0  0  0
 29 28  1  0  0  0  0
 30 29  1  0  0  0  0
 31 29  2  0  0  0  0
M  END
>  <MODEL>
2

>  <REMARK>
 VINA RESULT:      -6.7      1.513      1.790
  Name = 
  9 active torsions:
  status: ('A' for Active; 'I' for Inactive)
    1  A    between atoms: C_1  and  C_24
    2  A    between atoms: C_5  and  C_21
    3  A    between atoms: C_6  and  C_7
    4  A    between atoms: C_6  and  C_19
    5  A    between atoms: C_7  and  C_9
    6  A    between atoms: C_9  and  C_23
    7  A    between atoms: N_15  and  C_23
    8  A    between atoms: C_17  and  C_30
    9  A    between atoms: C_19  and  C_24
                            x       y       z     vdW  Elec       q    Type
                         _______ _______ _______ _____ _____    ______ ____

>  <TORSDO>
F 9

$$$$
=
 OpenBabel11052417593D

 31 33  0  0  1  0  0  0  0  0999 V2000
  195.2740  174.6370  145.7490 C   0  0  0  0  0  0  0  0  0  0  0  0
  191.6490  174.2900  144.6710 C   0  0  0  0  0  2  0  0  0  0  0  0
  193.0260  174.8570  144.8740 C   0  0  0  0  0  0  0  0  0  0  0  0
  195.6020  175.8920  145.2280 C   0  0  0  0  0  3  0  0  0  0  0  0
  191.0160  176.4700  143.6760 N   0  0  0  0  0  0  0  0  0  0  0  0
  196.2050  173.9190  146.4210 F   0  0  0  0  0  0  0  0  0  0  0  0
  192.3680  176.8660  143.6480 N   0  0  0  0  0  2  0  0  0  0  0  0
  190.8870  175.0050  143.5410 C   0  0  1  0  0  3  0  0  0  0  0  0
  193.9870  174.1180  145.5710 C   0  0  0  0  0  3  0  0  0  0  0  0
  193.3520  176.1270  144.3720 C   0  0  0  0  0  0  0  0  0  0  0  0
  194.6430  176.6370  144.5360 C   0  0  0  0  0  3  0  0  0  0  0  0
  191.2100  174.4520  142.1370 C   0  0  1  0  0  3  0  0  0  0  0  0
  192.2860  172.4000  142.1600 C   0  0  0  0  0  2  0  0  0  0  0  0
  192.4670  173.7940  142.0560 O   0  0  0  0  0  0  0  0  0  0  0  0
  191.5390  171.8510  140.9320 C   0  0  0  0  0  2  0  0  0  0  0  0
  191.0280  173.4880  139.3180 C   0  0  0  0  0  1  0  0  0  0  0  0
  190.0360  173.6580  141.5180 C   0  0  2  0  0  3  0  0  0  0  0  0
  190.4760  172.7460  140.4470 N   0  0  0  0  0  0  0  0  0  0  0  0
  188.8000  174.4910  141.1570 C   0  0  0  0  0  2  0  0  0  0  0  0
  187.6170  174.2280  142.0750 C   0  0  0  0  0  1  0  0  0  0  0  0
  190.2030  177.2290  142.7090 C   0  0  0  0  0  2  0  0  0  0  0  0
  187.9070  177.9340  142.3580 C   0  0  0  0  0  0  0  0  0  0  0  0
  188.8600  177.6810  143.2150 C   0  0  0  0  0  0  0  0  0  0  0  0
  187.0020  178.1730  141.5480 O   0  0  0  0  0  0  0  0  0  0  0  0
  188.5560  177.6670  144.6780 C   0  0  0  0  0  2  0  0  0  0  0  0
  187.7530  176.4340  145.0560 C   0  0  0  0  0  2  0  0  0  0  0  0
  186.3350  176.8400  145.3900 C   0  0  0  0  0  2  0  0  0  0  0  0
  186.3310  178.2500  145.9480 C   0  0  0  0  0  2  0  0  0  0  0  0
  185.1710  179.0180  145.4080 C   0  0  0  0  0  0  0  0  0  0  0  0
  185.3510  179.8930  144.2160 C   0  0  0  0  0  1  0  0  0  0  0  0
  184.0800  178.9500  145.9510 O   0  0  0  0  0  0  0  0  0  0  0  0
  1  6  1  0  0  0  0
  2  3  1  0  0  0  0
  3  9  2  0  0  0  0
  4  1  2  0  0  0  0
  7  5  1  0  0  0  0
  7 10  1  0  0  0  0
  8  5  1  0  0  0  0
  8  2  1  1  0  0  0
  9  1  1  0  0  0  0
 10 11  2  0  0  0  0
 10  3  1  0  0  0  0
 11  4  1  0  0  0  0
 12 14  1  1  0  0  0
 12  8  1  0  0  0  0
 14 13  1  0  0  0  0
 15 13  1  0  0  0  0
 16 18  1  0  0  0  0
 17 19  1  6  0  0  0
 17 12  1  0  0  0  0
 18 15  1  0  0  0  0
 18 17  1  0  0  0  0
 19 20  1  0  0  0  0
 21 23  1  0  0  0  0
 21  5  1  0  0  0  0
 22 23  2  0  0  0  0
 23 25  1  0  0  0  0
 24 22  2  0  0  0  0
 25 26  1  0  0  0  0
 26 27  1  0  0  0  0
 27 28  1  0  0  0  0
 29 28  1  0  0  0  0
 29 31  2  0  0  0  0
 30 29  1  0  0  0  0
M  END
>  <MODEL>
3

>  <REMARK>
 VINA RESULT:      -6.3      3.556      7.714
  Name = 
  9 active torsions:
  status: ('A' for Active; 'I' for Inactive)
    1  A    between atoms: C_1  and  C_24
    2  A    between atoms: C_5  and  C_21
    3  A    between atoms: C_6  and  C_7
    4  A    between atoms: C_6  and  C_19
    5  A    between atoms: C_7  and  C_9
    6  A    between atoms: C_9  and  C_23
    7  A    between atoms: N_15  and  C_23
    8  A    between atoms: C_17  and  C_30
    9  A    between atoms: C_19  and  C_24
                            x       y       z     vdW  Elec       q    Type
                         _______ _______ _______ _____ _____    ______ ____

>  <TORSDO>
F 9

$$$$
=
 OpenBabel11052417593D

 31 33  0  0  1  0  0  0  0  0999 V2000
  185.6600  178.1220  141.4520 C   0  0  0  0  0  0  0  0  0  0  0  0
  189.1520  176.9810  142.4160 C   0  0  0  0  0  2  0  0  0  0  0  0
  187.6820  177.2840  142.4910 C   0  0  0  0  0  0  0  0  0  0  0  0
  184.9370  177.8200  142.6100 C   0  0  0  0  0  3  0  0  0  0  0  0
  189.0350  176.3600  144.8130 N   0  0  0  0  0  0  0  0  0  0  0  0
  185.0310  178.6700  140.3860 F   0  0  0  0  0  0  0  0  0  0  0  0
  187.6270  176.4070  144.7710 N   0  0  0  0  0  2  0  0  0  0  0  0
  189.5950  175.9820  143.5000 C   0  0  1  0  0  3  0  0  0  0  0  0
  187.0310  177.8530  141.3920 C   0  0  0  0  0  3  0  0  0  0  0  0
  186.9560  177.0030  143.6600 C   0  0  0  0  0  0  0  0  0  0  0  0
  185.5840  177.2570  143.7140 C   0  0  0  0  0  3  0  0  0  0  0  0
  189.3750  174.5070  143.1010 C   0  0  1  0  0  3  0  0  0  0  0  0
  188.8670  174.2040  140.8610 C   0  0  0  0  0  2  0  0  0  0  0  0
  188.3290  174.3180  142.1590 O   0  0  0  0  0  0  0  0  0  0  0  0
  189.6860  172.9090  140.7190 C   0  0  0  0  0  2  0  0  0  0  0  0
  189.6980  171.5730  142.6580 C   0  0  0  0  0  1  0  0  0  0  0  0
  190.6910  173.7770  142.7440 C   0  0  2  0  0  3  0  0  0  0  0  0
  190.4640  172.5750  141.9230 N   0  0  0  0  0  0  0  0  0  0  0  0
  191.6570  173.5570  143.9150 C   0  0  0  0  0  2  0  0  0  0  0  0
  193.0500  173.1430  143.4690 C   0  0  0  0  0  1  0  0  0  0  0  0
  189.5220  175.5290  145.9280 C   0  0  0  0  0  2  0  0  0  0  0  0
  190.3270  177.2290  147.4610 C   0  0  0  0  0  0  0  0  0  0  0  0
  190.6000  176.1540  146.7720 C   0  0  0  0  0  0  0  0  0  0  0  0
  190.0710  178.2470  148.1170 O   0  0  0  0  0  0  0  0  0  0  0  0
  191.9080  175.4590  146.9690 C   0  0  0  0  0  2  0  0  0  0  0  0
  193.0670  176.4300  146.8300 C   0  0  0  0  0  2  0  0  0  0  0  0
  194.2130  175.7470  146.1160 C   0  0  0  0  0  2  0  0  0  0  0  0
  194.8290  176.7080  145.1170 C   0  0  0  0  0  2  0  0  0  0  0  0
  195.8510  176.0050  144.2860 C   0  0  0  0  0  0  0  0  0  0  0  0
  196.6560  176.7740  143.2960 C   0  0  0  0  0  1  0  0  0  0  0  0
  196.0160  174.8010  144.3980 O   0  0  0  0  0  0  0  0  0  0  0  0
  1  4  1  0  0  0  0
  2  3  1  0  0  0  0
  3 10  2  0  0  0  0
  4 11  2  0  0  0  0
  5 21  1  0  0  0  0
  6  1  1  0  0  0  0
  7  5  1  0  0  0  0
  8  2  1  6  0  0  0
  8  5  1  0  0  0  0
  9  1  2  0  0  0  0
  9  3  1  0  0  0  0
 10 11  1  0  0  0  0
 10  7  1  0  0  0  0
 12 14  1  6  0  0  0
 12  8  1  0  0  0  0
 13 14  1  0  0  0  0
 15 13  1  0  0  0  0
 15 18  1  0  0  0  0
 17 12  1  0  0  0  0
 17 19  1  1  0  0  0
 18 16  1  0  0  0  0
 18 17  1  0  0  0  0
 20 19  1  0  0  0  0
 21 23  1  0  0  0  0
 22 24  2  0  0  0  0
 23 25  1  0  0  0  0
 23 22  2  0  0  0  0
 26 25  1  0  0  0  0
 27 26  1  0  0  0  0
 28 27  1  0  0  0  0
 29 31  2  0  0  0  0
 29 28  1  0  0  0  0
 30 29  1  0  0  0  0
M  END
>  <MODEL>
4

>  <REMARK>
 VINA RESULT:      -6.2      2.001      2.439
  Name = 
  9 active torsions:
  status: ('A' for Active; 'I' for Inactive)
    1  A    between atoms: C_1  and  C_24
    2  A    between atoms: C_5  and  C_21
    3  A    between atoms: C_6  and  C_7
    4  A    between atoms: C_6  and  C_19
    5  A    between atoms: C_7  and  C_9
    6  A    between atoms: C_9  and  C_23
    7  A    between atoms: N_15  and  C_23
    8  A    between atoms: C_17  and  C_30
    9  A    between atoms: C_19  and  C_24
                            x       y       z     vdW  Elec       q    Type
                         _______ _______ _______ _____ _____    ______ ____

>  <TORSDO>
F 9

$$$$
=
 OpenBabel11052417593D

 31 33  0  0  1  0  0  0  0  0999 V2000
  194.8370  174.9350  145.8160 C   0  0  0  0  0  0  0  0  0  0  0  0
  191.4150  173.9720  144.4770 C   0  0  0  0  0  2  0  0  0  0  0  0
  192.6390  174.7800  144.8080 C   0  0  0  0  0  0  0  0  0  0  0  0
  194.9360  176.2660  145.3990 C   0  0  0  0  0  3  0  0  0  0  0  0
  190.4160  176.0570  143.5820 N   0  0  0  0  0  0  0  0  0  0  0  0
  195.8540  174.3630  146.5020 F   0  0  0  0  0  0  0  0  0  0  0  0
  191.6620  176.7100  143.6710 N   0  0  0  0  0  2  0  0  0  0  0  0
  190.5880  174.6100  143.3460 C   0  0  1  0  0  3  0  0  0  0  0  0
  193.6890  174.1910  145.5190 C   0  0  0  0  0  3  0  0  0  0  0  0
  192.7340  176.1230  144.4110 C   0  0  0  0  0  0  0  0  0  0  0  0
  193.8860  176.8610  144.6940 C   0  0  0  0  0  3  0  0  0  0  0  0
  191.0890  174.2380  141.9340 C   0  0  1  0  0  3  0  0  0  0  0  0
  192.7250  172.5960  141.9200 C   0  0  0  0  0  2  0  0  0  0  0  0
  192.4860  173.9850  141.8700 O   0  0  0  0  0  0  0  0  0  0  0  0
  192.1990  171.9050  140.6490 C   0  0  0  0  0  2  0  0  0  0  0  0
  191.2600  173.3860  139.0790 C   0  0  0  0  0  1  0  0  0  0  0  0
  190.2170  173.1600  141.2500 C   0  0  2  0  0  3  0  0  0  0  0  0
  190.9290  172.4650  140.1620 N   0  0  0  0  0  0  0  0  0  0  0  0
  188.7970  173.6050  140.8790 C   0  0  0  0  0  2  0  0  0  0  0  0
  187.7240  172.9390  141.7250 C   0  0  0  0  0  1  0  0  0  0  0  0
  189.5220  176.7150  142.6130 C   0  0  0  0  0  2  0  0  0  0  0  0
  187.4600  177.9850  142.4470 C   0  0  0  0  0  0  0  0  0  0  0  0
  188.4180  177.5410  143.2150 C   0  0  0  0  0  0  0  0  0  0  0  0
  186.5500  178.4060  141.7200 O   0  0  0  0  0  0  0  0  0  0  0  0
  188.3120  177.7000  144.6980 C   0  0  0  0  0  2  0  0  0  0  0  0
  187.1540  176.8900  145.2520 C   0  0  0  0  0  2  0  0  0  0  0  0
  187.5230  176.3530  146.6170 C   0  0  0  0  0  2  0  0  0  0  0  0
  188.9860  176.6400  146.8940 C   0  0  0  0  0  2  0  0  0  0  0  0
  189.6740  175.4050  147.3730 C   0  0  0  0  0  0  0  0  0  0  0  0
  191.0600  175.4910  147.9110 C   0  0  0  0  0  1  0  0  0  0  0  0
  189.1150  174.3220  147.3060 O   0  0  0  0  0  0  0  0  0  0  0  0
  1  6  1  0  0  0  0
  2  3  1  0  0  0  0
  3  9  2  0  0  0  0
  4  1  2  0  0  0  0
  5  7  1  0  0  0  0
  7 10  1  0  0  0  0
  8  5  1  0  0  0  0
  8  2  1  1  0  0  0
  9  1  1  0  0  0  0
 10 11  2  0  0  0  0
 10  3  1  0  0  0  0
 11  4  1  0  0  0  0
 12 14  1  1  0  0  0
 12  8  1  0  0  0  0
 14 13  1  0  0  0  0
 15 13  1  0  0  0  0
 16 18  1  0  0  0  0
 17 19  1  6  0  0  0
 17 12  1  0  0  0  0
 18 15  1  0  0  0  0
 18 17  1  0  0  0  0
 19 20  1  0  0  0  0
 21 23  1  0  0  0  0
 21  5  1  0  0  0  0
 22 23  2  0  0  0  0
 23 25  1  0  0  0  0
 24 22  2  0  0  0  0
 25 26  1  0  0  0  0
 26 27  1  0  0  0  0
 27 28  1  0  0  0  0
 28 29  1  0  0  0  0
 29 30  1  0  0  0  0
 31 29  2  0  0  0  0
M  END
>  <MODEL>
5

>  <REMARK>
 VINA RESULT:      -6.2      3.269      6.675
  Name = 
  9 active torsions:
  status: ('A' for Active; 'I' for Inactive)
    1  A    between atoms: C_1  and  C_24
    2  A    between atoms: C_5  and  C_21
    3  A    between atoms: C_6  and  C_7
    4  A    between atoms: C_6  and  C_19
    5  A    between atoms: C_7  and  C_9
    6  A    between atoms: C_9  and  C_23
    7  A    between atoms: N_15  and  C_23
    8  A    between atoms: C_17  and  C_30
    9  A    between atoms: C_19  and  C_24
                            x       y       z     vdW  Elec       q    Type
                         _______ _______ _______ _____ _____    ______ ____

>  <TORSDO>
F 9

$$$$
=
 OpenBabel11052417593D

 31 33  0  0  1  0  0  0  0  0999 V2000
  190.5150  175.4440  147.3330 C   0  0  0  0  0  0  0  0  0  0  0  0
  188.7520  174.3190  144.1620 C   0  0  0  0  0  2  0  0  0  0  0  0
  189.4480  175.1870  145.1730 C   0  0  0  0  0  0  0  0  0  0  0  0
  190.7750  176.7880  147.0470 C   0  0  0  0  0  3  0  0  0  0  0  0
  188.4130  176.3640  142.8030 N   0  0  0  0  0  0  0  0  0  0  0  0
  190.9100  174.9150  148.5150 F   0  0  0  0  0  0  0  0  0  0  0  0
  189.2870  177.0840  143.6410 N   0  0  0  0  0  2  0  0  0  0  0  0
  188.7800  174.9340  142.7520 C   0  0  1  0  0  3  0  0  0  0  0  0
  189.8530  174.6430  146.3960 C   0  0  0  0  0  3  0  0  0  0  0  0
  189.6910  176.5430  144.8990 C   0  0  0  0  0  0  0  0  0  0  0  0
  190.3660  177.3380  145.8290 C   0  0  0  0  0  3  0  0  0  0  0  0
  190.0760  174.6250  141.9730 C   0  0  1  0  0  3  0  0  0  0  0  0
  191.4650  173.0980  143.0280 C   0  0  0  0  0  2  0  0  0  0  0  0
  191.2190  174.4680  142.8020 O   0  0  0  0  0  0  0  0  0  0  0  0
  191.8940  172.3970  141.7270 C   0  0  0  0  0  2  0  0  0  0  0  0
  192.0470  173.8410  139.8730 C   0  0  0  0  0  1  0  0  0  0  0  0
  189.8940  173.5030  140.9230 C   0  0  2  0  0  3  0  0  0  0  0  0
  191.1730  172.8800  140.5380 N   0  0  0  0  0  0  0  0  0  0  0  0
  188.9920  173.8580  139.7350 C   0  0  0  0  0  2  0  0  0  0  0  0
  188.1950  172.6720  139.2180 C   0  0  0  0  0  1  0  0  0  0  0  0
  188.2870  176.9920  141.4750 C   0  0  0  0  0  2  0  0  0  0  0  0
  186.3080  177.5260  140.1750 C   0  0  0  0  0  0  0  0  0  0  0  0
  187.0140  177.7620  141.2480 C   0  0  0  0  0  0  0  0  0  0  0  0
  185.6360  177.3040  139.1590 O   0  0  0  0  0  0  0  0  0  0  0  0
  186.4650  178.6510  142.3170 C   0  0  0  0  0  2  0  0  0  0  0  0
  185.0900  178.1840  142.7610 C   0  0  0  0  0  2  0  0  0  0  0  0
  184.9770  178.3120  144.2640 C   0  0  0  0  0  2  0  0  0  0  0  0
  185.7860  177.2140  144.9270 C   0  0  0  0  0  2  0  0  0  0  0  0
  185.6150  177.2670  146.4090 C   0  0  0  0  0  0  0  0  0  0  0  0
  186.7110  176.7930  147.2990 C   0  0  0  0  0  1  0  0  0  0  0  0
  184.5730  177.6770  146.8950 O   0  0  0  0  0  0  0  0  0  0  0  0
  1  6  1  0  0  0  0
  2  3  1  0  0  0  0
  3  9  1  0  0  0  0
  4  1  1  0  0  0  0
  5  7  1  0  0  0  0
  7 10  1  0  0  0  0
  8  5  1  0  0  0  0
  8  2  1  1  0  0  0
  9  1  2  0  0  0  0
 10  3  2  0  0  0  0
 10 11  1  0  0  0  0
 11  4  2  0  0  0  0
 12  8  1  0  0  0  0
 12 14  1  1  0  0  0
 14 13  1  0  0  0  0
 15 13  1  0  0  0  0
 16 18  1  0  0  0  0
 17 19  1  6  0  0  0
 17 12  1  0  0  0  0
 18 17  1  0  0  0  0
 18 15  1  0  0  0  0
 20 19  1  0  0  0  0
 21  5  1  0  0  0  0
 22 23  2  0  0  0  0
 23 21  1  0  0  0  0
 23 25  1  0  0  0  0
 24 22  2  0  0  0  0
 25 26  1  0  0  0  0
 26 27  1  0  0  0  0
 27 28  1  0  0  0  0
 28 29  1  0  0  0  0
 29 31  2  0  0  0  0
 29 30  1  0  0  0  0
M  END
>  <MODEL>
6

>  <REMARK>
 VINA RESULT:      -6.1      3.469      7.051
  Name = 
  9 active torsions:
  status: ('A' for Active; 'I' for Inactive)
    1  A    between atoms: C_1  and  C_24
    2  A    between atoms: C_5  and  C_21
    3  A    between atoms: C_6  and  C_7
    4  A    between atoms: C_6  and  C_19
    5  A    between atoms: C_7  and  C_9
    6  A    between atoms: C_9  and  C_23
    7  A    between atoms: N_15  and  C_23
    8  A    between atoms: C_17  and  C_30
    9  A    between atoms: C_19  and  C_24
                            x       y       z     vdW  Elec       q    Type
                         _______ _______ _______ _____ _____    ______ ____

>  <TORSDO>
F 9

$$$$
=
 OpenBabel11052417593D

 31 33  0  0  1  0  0  0  0  0999 V2000
  186.5780  177.8970  145.5930 C   0  0  0  0  0  0  0  0  0  0  0  0
  189.8440  177.1920  143.7870 C   0  0  0  0  0  2  0  0  0  0  0  0
  188.7450  177.1480  144.8120 C   0  0  0  0  0  0  0  0  0  0  0  0
  186.6800  177.0470  146.6990 C   0  0  0  0  0  3  0  0  0  0  0  0
  191.1500  175.7090  145.2840 N   0  0  0  0  0  0  0  0  0  0  0  0
  185.4770  178.6690  145.4320 F   0  0  0  0  0  0  0  0  0  0  0  0
  190.0110  175.4890  146.0840 N   0  0  0  0  0  2  0  0  0  0  0  0
  190.7730  175.9690  143.8790 C   0  0  1  0  0  3  0  0  0  0  0  0
  187.6090  177.9470  144.6490 C   0  0  0  0  0  3  0  0  0  0  0  0
  188.8540  176.3130  145.9360 C   0  0  0  0  0  0  0  0  0  0  0  0
  187.8170  176.2520  146.8690 C   0  0  0  0  0  3  0  0  0  0  0  0
  190.2460  174.7390  143.1120 C   0  0  1  0  0  3  0  0  0  0  0  0
  188.4370  175.1930  141.7360 C   0  0  0  0  0  2  0  0  0  0  0  0
  188.8300  174.6980  142.9970 O   0  0  0  0  0  0  0  0  0  0  0  0
  188.8940  174.2480  140.6100 C   0  0  0  0  0  2  0  0  0  0  0  0
  190.0070  172.3200  141.3780 C   0  0  0  0  0  1  0  0  0  0  0  0
  190.9990  174.4890  141.7830 C   0  0  2  0  0  3  0  0  0  0  0  0
  190.2230  173.6610  140.8430 N   0  0  0  0  0  0  0  0  0  0  0  0
  192.4630  174.0580  141.9310 C   0  0  0  0  0  2  0  0  0  0  0  0
  193.4430  175.0750  141.3700 C   0  0  0  0  0  1  0  0  0  0  0  0
  192.1470  174.6350  145.4420 C   0  0  0  0  0  2  0  0  0  0  0  0
  193.8810  176.1320  146.2430 C   0  0  0  0  0  0  0  0  0  0  0  0
  193.5780  175.0930  145.5130 C   0  0  0  0  0  0  0  0  0  0  0  0
  194.1710  177.1170  146.9360 O   0  0  0  0  0  0  0  0  0  0  0  0
  194.6690  174.2680  144.9100 C   0  0  0  0  0  2  0  0  0  0  0  0
  196.0220  174.6490  145.4850 C   0  0  0  0  0  2  0  0  0  0  0  0
  196.6150  173.4590  146.2070 C   0  0  0  0  0  2  0  0  0  0  0  0
  196.8070  172.3180  145.2270 C   0  0  0  0  0  2  0  0  0  0  0  0
  196.2510  171.0520  145.7900 C   0  0  0  0  0  0  0  0  0  0  0  0
  197.1630  169.9170  146.1000 C   0  0  0  0  0  1  0  0  0  0  0  0
  195.0510  170.9350  145.9770 O   0  0  0  0  0  0  0  0  0  0  0  0
  1  4  1  0  0  0  0
  2  3  1  0  0  0  0
  3 10  2  0  0  0  0
  4 11  2  0  0  0  0
  5 21  1  0  0  0  0
  5  7  1  0  0  0  0
  6  1  1  0  0  0  0
  8  2  1  1  0  0  0
  8  5  1  0  0  0  0
  9  3  1  0  0  0  0
  9  1  2  0  0  0  0
 10  7  1  0  0  0  0
 10 11  1  0  0  0  0
 12 14  1  6  0  0  0
 12  8  1  0  0  0  0
 13 14  1  0  0  0  0
 15 18  1  0  0  0  0
 15 13  1  0  0  0  0
 17 19  1  1  0  0  0
 17 12  1  0  0  0  0
 18 16  1  0  0  0  0
 18 17  1  0  0  0  0
 20 19  1  0  0  0  0
 21 23  1  0  0  0  0
 22 24  2  0  0  0  0
 23 22  2  0  0  0  0
 25 26  1  0  0  0  0
 25 23  1  0  0  0  0
 26 27  1  0  0  0  0
 28 29  1  0  0  0  0
 28 27  1  0  0  0  0
 29 31  2  0  0  0  0
 29 30  1  0  0  0  0
M  END
>  <MODEL>
7

>  <REMARK>
 VINA RESULT:      -6.1      1.715      2.312
  Name = 
  9 active torsions:
  status: ('A' for Active; 'I' for Inactive)
    1  A    between atoms: C_1  and  C_24
    2  A    between atoms: C_5  and  C_21
    3  A    between atoms: C_6  and  C_7
    4  A    between atoms: C_6  and  C_19
    5  A    between atoms: C_7  and  C_9
    6  A    between atoms: C_9  and  C_23
    7  A    between atoms: N_15  and  C_23
    8  A    between atoms: C_17  and  C_30
    9  A    between atoms: C_19  and  C_24
                            x       y       z     vdW  Elec       q    Type
                         _______ _______ _______ _____ _____    ______ ____

>  <TORSDO>
F 9

$$$$
=
 OpenBabel11052417593D

 31 33  0  0  1  0  0  0  0  0999 V2000
  189.3390  173.2320  140.5470 C   0  0  0  0  0  0  0  0  0  0  0  0
  191.5610  175.5300  142.5970 C   0  0  0  0  0  2  0  0  0  0  0  0
  190.5090  174.5210  142.2310 C   0  0  0  0  0  0  0  0  0  0  0  0
  188.5760  172.6170  141.5440 C   0  0  0  0  0  3  0  0  0  0  0  0
  190.7390  175.3780  144.9310 N   0  0  0  0  0  0  0  0  0  0  0  0
  189.1460  172.9030  139.2470 F   0  0  0  0  0  0  0  0  0  0  0  0
  189.9520  174.2580  144.5960 N   0  0  0  0  0  2  0  0  0  0  0  0
  191.9470  175.4530  144.0850 C   0  0  1  0  0  3  0  0  0  0  0  0
  190.3060  174.1820  140.8900 C   0  0  0  0  0  3  0  0  0  0  0  0
  189.7250  173.9180  143.2280 C   0  0  0  0  0  0  0  0  0  0  0  0
  188.7700  172.9570  142.8860 C   0  0  0  0  0  3  0  0  0  0  0  0
  193.0160  174.3810  144.3860 C   0  0  1  0  0  3  0  0  0  0  0  0
  194.1590  173.6400  142.5110 C   0  0  0  0  0  2  0  0  0  0  0  0
  193.1000  173.3620  143.4000 O   0  0  0  0  0  0  0  0  0  0  0  0
  195.5170  173.5290  143.2260 C   0  0  0  0  0  2  0  0  0  0  0  0
  195.3550  172.8870  145.4860 C   0  0  0  0  0  1  0  0  0  0  0  0
  194.3810  174.9890  144.7890 C   0  0  2  0  0  3  0  0  0  0  0  0
  195.4960  174.0430  144.6050 N   0  0  0  0  0  0  0  0  0  0  0  0
  194.4010  175.7190  146.1380 C   0  0  0  0  0  2  0  0  0  0  0  0
  194.5660  177.2230  145.9990 C   0  0  0  0  0  1  0  0  0  0  0  0
  191.0220  175.4370  146.3760 C   0  0  0  0  0  2  0  0  0  0  0  0
  191.0900  177.1000  148.1420 C   0  0  0  0  0  0  0  0  0  0  0  0
  190.4670  176.6400  147.0910 C   0  0  0  0  0  0  0  0  0  0  0  0
  191.6790  177.5400  149.1380 O   0  0  0  0  0  0  0  0  0  0  0  0
  189.3290  177.4110  146.5060 C   0  0  0  0  0  2  0  0  0  0  0  0
  188.0230  176.6490  146.6500 C   0  0  0  0  0  2  0  0  0  0  0  0
  187.2150  176.7910  145.3790 C   0  0  0  0  0  2  0  0  0  0  0  0
  188.0130  177.5780  144.3580 C   0  0  0  0  0  2  0  0  0  0  0  0
  187.7720  177.0400  142.9860 C   0  0  0  0  0  0  0  0  0  0  0  0
  186.6910  176.0400  142.7620 C   0  0  0  0  0  1  0  0  0  0  0  0
  188.4710  177.3990  142.0520 O   0  0  0  0  0  0  0  0  0  0  0  0
  1  9  2  0  0  0  0
  1  4  1  0  0  0  0
  3  2  1  0  0  0  0
  3 10  2  0  0  0  0
  4 11  2  0  0  0  0
  5 21  1  0  0  0  0
  6  1  1  0  0  0  0
  7  5  1  0  0  0  0
  8  2  1  6  0  0  0
  8 12  1  0  0  0  0
  8  5  1  0  0  0  0
  9  3  1  0  0  0  0
 10  7  1  0  0  0  0
 11 10  1  0  0  0  0
 12 14  1  6  0  0  0
 12 17  1  0  0  0  0
 13 15  1  0  0  0  0
 13 14  1  0  0  0  0
 15 18  1  0  0  0  0
 17 19  1  1  0  0  0
 18 17  1  0  0  0  0
 18 16  1  0  0  0  0
 20 19  1  0  0  0  0
 21 23  1  0  0  0  0
 22 24  2  0  0  0  0
 23 22  2  0  0  0  0
 25 26  1  0  0  0  0
 25 23  1  0  0  0  0
 27 26  1  0  0  0  0
 28 27  1  0  0  0  0
 29 28  1  0  0  0  0
 30 29  1  0  0  0  0
 31 29  2  0  0  0  0
M  END
>  <MODEL>
8

>  <REMARK>
 VINA RESULT:      -6.1      2.752      6.297
  Name = 
  9 active torsions:
  status: ('A' for Active; 'I' for Inactive)
    1  A    between atoms: C_1  and  C_24
    2  A    between atoms: C_5  and  C_21
    3  A    between atoms: C_6  and  C_7
    4  A    between atoms: C_6  and  C_19
    5  A    between atoms: C_7  and  C_9
    6  A    between atoms: C_9  and  C_23
    7  A    between atoms: N_15  and  C_23
    8  A    between atoms: C_17  and  C_30
    9  A    between atoms: C_19  and  C_24
                            x       y       z     vdW  Elec       q    Type
                         _______ _______ _______ _____ _____    ______ ____

>  <TORSDO>
F 9

$$$$
=
 OpenBabel11052417593D

 31 33  0  0  1  0  0  0  0  0999 V2000
  195.7760  175.2140  143.5190 C   0  0  0  0  0  0  0  0  0  0  0  0
  192.2120  176.5260  143.4860 C   0  0  0  0  0  2  0  0  0  0  0  0
  193.3940  175.6110  143.3270 C   0  0  0  0  0  0  0  0  0  0  0  0
  195.5960  173.9030  143.0670 C   0  0  0  0  0  3  0  0  0  0  0  0
  190.8360  174.7530  142.4330 N   0  0  0  0  0  0  0  0  0  0  0  0
  197.0160  175.6560  143.8360 F   0  0  0  0  0  0  0  0  0  0  0  0
  191.9050  173.8400  142.5400 N   0  0  0  0  0  2  0  0  0  0  0  0
  190.8800  175.7550  143.5170 C   0  0  1  0  0  3  0  0  0  0  0  0
  194.6750  176.0670  143.6510 C   0  0  0  0  0  3  0  0  0  0  0  0
  193.2200  174.3010  142.8520 C   0  0  0  0  0  0  0  0  0  0  0  0
  194.3170  173.4440  142.7360 C   0  0  0  0  0  3  0  0  0  0  0  0
  190.5180  175.2130  144.9160 C   0  0  1  0  0  3  0  0  0  0  0  0
  192.1350  175.6130  146.5270 C   0  0  0  0  0  2  0  0  0  0  0  0
  191.6220  174.6620  145.6210 O   0  0  0  0  0  0  0  0  0  0  0  0
  191.1250  175.8970  147.6520 C   0  0  0  0  0  2  0  0  0  0  0  0
  189.1490  174.6250  147.5030 C   0  0  0  0  0  1  0  0  0  0  0  0
  189.6660  176.2040  145.7440 C   0  0  2  0  0  3  0  0  0  0  0  0
  189.7290  175.9290  147.1900 N   0  0  0  0  0  0  0  0  0  0  0  0
  188.2470  176.4460  145.2170 C   0  0  0  0  0  2  0  0  0  0  0  0
  187.4890  177.4990  146.0090 C   0  0  0  0  0  1  0  0  0  0  0  0
  189.5390  174.0650  142.3130 C   0  0  0  0  0  2  0  0  0  0  0  0
  188.4940  174.2550  140.1310 C   0  0  0  0  0  0  0  0  0  0  0  0
  188.5630  174.6970  141.3570 C   0  0  0  0  0  0  0  0  0  0  0  0
  188.4250  173.8370  138.9670 O   0  0  0  0  0  0  0  0  0  0  0  0
  187.5570  175.6890  141.8460 C   0  0  0  0  0  2  0  0  0  0  0  0
  187.6480  176.9870  141.0640 C   0  0  0  0  0  2  0  0  0  0  0  0
  186.4280  177.8340  141.3510 C   0  0  0  0  0  2  0  0  0  0  0  0
  186.7330  178.7920  142.4860 C   0  0  0  0  0  2  0  0  0  0  0  0
  185.5190  178.9990  143.3310 C   0  0  0  0  0  0  0  0  0  0  0  0
  184.4570  177.9550  143.3680 C   0  0  0  0  0  1  0  0  0  0  0  0
  185.3830  180.0270  143.9730 O   0  0  0  0  0  0  0  0  0  0  0  0
  1  9  1  0  0  0  0
  1  6  1  0  0  0  0
  3  2  1  0  0  0  0
  3  9  2  0  0  0  0
  4  1  2  0  0  0  0
  5  7  1  0  0  0  0
  5  8  1  0  0  0  0
  7 10  1  0  0  0  0
  8  2  1  1  0  0  0
  8 12  1  0  0  0  0
 10  3  1  0  0  0  0
 11 10  2  0  0  0  0
 11  4  1  0  0  0  0
 12 14  1  1  0  0  0
 12 17  1  0  0  0  0
 13 15  1  0  0  0  0
 14 13  1  0  0  0  0
 17 19  1  6  0  0  0
 17 18  1  0  0  0  0
 18 16  1  0  0  0  0
 18 15  1  0  0  0  0
 19 20  1  0  0  0  0
 21  5  1  0  0  0  0
 22 23  2  0  0  0  0
 23 25  1  0  0  0  0
 23 21  1  0  0  0  0
 24 22  2  0  0  0  0
 26 27  1  0  0  0  0
 26 25  1  0  0  0  0
 27 28  1  0  0  0  0
 28 29  1  0  0  0  0
 29 30  1  0  0  0  0
 29 31  2  0  0  0  0
M  END
>  <MODEL>
9

>  <REMARK>
 VINA RESULT:      -6.0      3.316      8.385
  Name = 
  9 active torsions:
  status: ('A' for Active; 'I' for Inactive)
    1  A    between atoms: C_1  and  C_24
    2  A    between atoms: C_5  and  C_21
    3  A    between atoms: C_6  and  C_7
    4  A    between atoms: C_6  and  C_19
    5  A    between atoms: C_7  and  C_9
    6  A    between atoms: C_9  and  C_23
    7  A    between atoms: N_15  and  C_23
    8  A    between atoms: C_17  and  C_30
    9  A    between atoms: C_19  and  C_24
                            x       y       z     vdW  Elec       q    Type
                         _______ _______ _______ _____ _____    ______ ____

>  <TORSDO>
F 9

$$$$
