=
 OpenBabel11052417393D

 31 35  0  0  1  0  0  0  0  0999 V2000
  185.4260  177.9360  140.8550 C   0  0  0  0  0  0  0  0  0  0  0  0
  187.2860  177.0170  144.0650 C   0  0  0  0  0  0  0  0  0  0  0  0
  186.6710  177.7580  145.1170 C   0  0  0  0  0  0  0  0  0  0  0  0
  184.4300  178.7850  145.3110 C   0  0  0  0  0  3  0  0  0  0  0  0
  186.9370  177.1850  142.6170 C   0  0  0  0  0  0  0  0  0  0  0  0
  186.2610  177.3800  139.8870 C   0  0  0  0  0  3  0  0  0  0  0  0
  185.8280  178.9620  144.8240 C   0  0  0  0  0  2  0  0  0  0  0  0
  188.9560  175.3410  143.3410 N   0  0  0  0  0  0  0  0  0  0  0  0
  184.2340  178.6070  140.4670 N   0  0  0  0  0  1  0  0  0  0  0  0
  187.9190  176.4680  146.7510 C   0  0  0  0  0  3  0  0  0  0  0  0
  184.1290  178.6790  146.6030 C   0  0  0  0  0  3  0  0  0  0  0  0
  189.0240  175.8980  141.9950 C   0  0  0  0  0  2  0  0  0  0  0  0
  188.2600  176.0460  144.3900 C   0  0  0  0  0  0  0  0  0  0  0  0
  185.7590  177.8330  142.2080 C   0  0  0  0  0  3  0  0  0  0  0  0
  185.1190  178.6390  147.6940 C   0  0  0  0  0  3  0  0  0  0  0  0
  187.7570  176.5990  141.6280 C   0  0  0  0  0  0  0  0  0  0  0  0
  187.4250  176.7140  140.2740 C   0  0  0  0  0  3  0  0  0  0  0  0
  188.5580  175.7780  145.7310 C   0  0  0  0  0  3  0  0  0  0  0  0
  186.9730  177.4480  146.4640 C   0  0  0  0  0  0  0  0  0  0  0  0
  186.3490  178.1150  147.6280 C   0  0  0  0  0  3  0  0  0  0  0  0
  189.7380  174.1390  143.6110 C   0  0  0  0  0  2  0  0  0  0  0  0
  191.9750  174.0280  142.7900 O   0  0  0  0  0  1  0  0  0  0  0  0
  191.1970  174.4900  143.8530 C   0  0  2  0  0  3  0  0  0  0  0  0
  191.6610  173.8480  145.1480 C   0  0  0  0  0  2  0  0  0  0  0  0
  195.5610  174.1350  145.7340 C   0  0  0  0  0  0  0  0  0  0  0  0
  192.8140  176.4670  146.1370 O   0  0  0  0  0  1  0  0  0  0  0  0
  197.0080  173.8110  145.8310 C   0  0  0  0  0  1  0  0  0  0  0  0
  194.3660  173.0660  145.2220 S   0  0  0  0  0  0  0  0  0  0  0  0
  193.6070  175.3580  145.8700 C   0  0  0  0  0  0  0  0  0  0  0  0
  193.0980  174.1570  145.3960 C   0  0  0  0  0  0  0  0  0  0  0  0
  194.9940  175.3600  146.0600 C   0  0  0  0  0  3  0  0  0  0  0  0
  1 14  1  0  0  0  0
  2 13  2  0  0  0  0
  2  3  1  0  0  0  0
  3 19  2  0  0  0  0
  4 11  2  0  0  0  0
  5  2  1  0  0  0  0
  6 17  1  0  0  0  0
  6  1  2  0  0  0  0
  7  3  1  0  0  0  0
  7  4  1  0  0  0  0
  8 21  1  0  0  0  0
  8 13  1  0  0  0  0
  9  1  1  0  0  0  0
 11 15  1  0  0  0  0
 12  8  1  0  0  0  0
 13 18  1  0  0  0  0
 14  5  2  0  0  0  0
 16 12  1  0  0  0  0
 16  5  1  0  0  0  0
 17 16  2  0  0  0  0
 18 10  2  0  0  0  0
 19 10  1  0  0  0  0
 19 20  1  0  0  0  0
 20 15  2  0  0  0  0
 21 23  1  0  0  0  0
 23 22  1  6  0  0  0
 23 24  1  0  0  0  0
 24 30  1  0  0  0  0
 25 27  1  0  0  0  0
 25 31  2  0  0  0  0
 28 30  1  0  0  0  0
 28 25  1  0  0  0  0
 29 31  1  0  0  0  0
 29 26  1  0  0  0  0
 30 29  2  0  0  0  0
M  END
>  <MODEL>
1

>  <REMARK>
 VINA RESULT:      -9.1      0.000      0.000
  Name = 
  4 active torsions:
  status: ('A' for Active; 'I' for Inactive)
    1  A    between atoms: C_3  and  C_9
    2  A    between atoms: C_3  and  C_22
    3  A    between atoms: C_9  and  C_23
    4  A    between atoms: N_15  and  C_23
                            x       y       z     vdW  Elec       q    Type
                         _______ _______ _______ _____ _____    ______ ____

>  <TORSDO>
F 4

$$$$
=
 OpenBabel11052417393D

 31 35  0  0  1  0  0  0  0  0999 V2000
  185.3690  177.8740  140.9340 C   0  0  0  0  0  0  0  0  0  0  0  0
  187.4100  177.2890  144.1120 C   0  0  0  0  0  0  0  0  0  0  0  0
  186.7130  177.9450  145.1690 C   0  0  0  0  0  0  0  0  0  0  0  0
  184.3480  178.6290  145.4010 C   0  0  0  0  0  3  0  0  0  0  0  0
  187.0100  177.3820  142.6700 C   0  0  0  0  0  0  0  0  0  0  0  0
  186.2570  177.4340  139.9540 C   0  0  0  0  0  3  0  0  0  0  0  0
  185.6940  179.0060  144.8810 C   0  0  0  0  0  2  0  0  0  0  0  0
  189.2960  175.8700  143.3700 N   0  0  0  0  0  0  0  0  0  0  0  0
  184.0820  178.3530  140.5650 N   0  0  0  0  0  1  0  0  0  0  0  0
  188.1730  176.8790  146.7890 C   0  0  0  0  0  3  0  0  0  0  0  0
  184.0930  178.4980  146.7000 C   0  0  0  0  0  3  0  0  0  0  0  0
  189.2530  176.4110  142.0160 C   0  0  0  0  0  2  0  0  0  0  0  0
  188.5250  176.4780  144.4260 C   0  0  0  0  0  0  0  0  0  0  0  0
  185.7410  177.8400  142.2800 C   0  0  0  0  0  3  0  0  0  0  0  0
  185.1000  178.6220  147.7690 C   0  0  0  0  0  3  0  0  0  0  0  0
  187.8880  176.9100  141.6690 C   0  0  0  0  0  0  0  0  0  0  0  0
  187.5150  176.9550  140.3220 C   0  0  0  0  0  3  0  0  0  0  0  0
  188.8860  176.2770  145.7620 C   0  0  0  0  0  3  0  0  0  0  0  0
  187.0850  177.7030  146.5120 C   0  0  0  0  0  0  0  0  0  0  0  0
  186.3930  178.2860  147.6820 C   0  0  0  0  0  3  0  0  0  0  0  0
  190.2540  174.8020  143.6360 C   0  0  0  0  0  2  0  0  0  0  0  0
  189.7120  173.0040  145.1080 O   0  0  0  0  0  1  0  0  0  0  0  0
  189.5410  173.4700  143.8030 C   0  0  2  0  0  3  0  0  0  0  0  0
  190.1130  172.4650  142.8180 C   0  0  0  0  0  2  0  0  0  0  0  0
  189.5460  173.4940  139.0420 C   0  0  0  0  0  0  0  0  0  0  0  0
  187.2850  172.7020  141.7640 O   0  0  0  0  0  1  0  0  0  0  0  0
  189.7830  173.9040  137.6340 C   0  0  0  0  0  1  0  0  0  0  0  0
  190.7560  173.1890  140.1730 S   0  0  0  0  0  0  0  0  0  0  0  0
  188.3990  172.9320  140.9660 C   0  0  0  0  0  0  0  0  0  0  0  0
  189.7020  172.8080  141.4270 C   0  0  0  0  0  0  0  0  0  0  0  0
  188.2980  173.3150  139.6230 C   0  0  0  0  0  3  0  0  0  0  0  0
  1 14  1  0  0  0  0
  2 13  2  0  0  0  0
  2  3  1  0  0  0  0
  3 19  2  0  0  0  0
  4 11  2  0  0  0  0
  5  2  1  0  0  0  0
  6 17  1  0  0  0  0
  6  1  2  0  0  0  0
  7  3  1  0  0  0  0
  7  4  1  0  0  0  0
  8 21  1  0  0  0  0
  8 13  1  0  0  0  0
  9  1  1  0  0  0  0
 11 15  1  0  0  0  0
 12  8  1  0  0  0  0
 13 18  1  0  0  0  0
 14  5  2  0  0  0  0
 16 12  1  0  0  0  0
 16  5  1  0  0  0  0
 17 16  2  0  0  0  0
 18 10  2  0  0  0  0
 19 10  1  0  0  0  0
 19 20  1  0  0  0  0
 20 15  2  0  0  0  0
 21 23  1  0  0  0  0
 23 22  1  1  0  0  0
 24 23  1  0  0  0  0
 25 31  2  0  0  0  0
 25 28  1  0  0  0  0
 27 25  1  0  0  0  0
 28 30  1  0  0  0  0
 29 30  2  0  0  0  0
 29 26  1  0  0  0  0
 30 24  1  0  0  0  0
 31 29  1  0  0  0  0
M  END
>  <MODEL>
2

>  <REMARK>
 VINA RESULT:      -9.0      2.682      4.048
  Name = 
  4 active torsions:
  status: ('A' for Active; 'I' for Inactive)
    1  A    between atoms: C_3  and  C_9
    2  A    between atoms: C_3  and  C_22
    3  A    between atoms: C_9  and  C_23
    4  A    between atoms: N_15  and  C_23
                            x       y       z     vdW  Elec       q    Type
                         _______ _______ _______ _____ _____    ______ ____

>  <TORSDO>
F 4

$$$$
=
 OpenBabel11052417393D

 31 35  0  0  1  0  0  0  0  0999 V2000
  186.0810  177.0320  147.1630 C   0  0  0  0  0  0  0  0  0  0  0  0
  189.0610  177.4790  144.8120 C   0  0  0  0  0  0  0  0  0  0  0  0
  190.2270  177.1560  145.5680 C   0  0  0  0  0  0  0  0  0  0  0  0
  190.5350  175.7980  147.6110 C   0  0  0  0  0  3  0  0  0  0  0  0
  187.6850  177.5540  145.4010 C   0  0  0  0  0  0  0  0  0  0  0  0
  185.0570  177.6190  146.4200 C   0  0  0  0  0  3  0  0  0  0  0  0
  190.1980  177.1440  147.0660 C   0  0  0  0  0  2  0  0  0  0  0  0
  188.0400  178.1240  142.6530 N   0  0  0  0  0  0  0  0  0  0  0  0
  185.8030  176.4690  148.4390 N   0  0  0  0  0  1  0  0  0  0  0  0
  191.5540  177.2020  143.5350 C   0  0  0  0  0  3  0  0  0  0  0  0
  191.7370  175.2460  147.4620 C   0  0  0  0  0  3  0  0  0  0  0  0
  186.8860  178.7300  143.3070 C   0  0  0  0  0  2  0  0  0  0  0  0
  189.1890  177.7150  143.4240 C   0  0  0  0  0  0  0  0  0  0  0  0
  187.3810  176.9950  146.6530 C   0  0  0  0  0  3  0  0  0  0  0  0
  192.8410  175.8370  146.6850 C   0  0  0  0  0  3  0  0  0  0  0  0
  186.6320  178.1170  144.6460 C   0  0  0  0  0  0  0  0  0  0  0  0
  185.3340  178.1610  145.1640 C   0  0  0  0  0  3  0  0  0  0  0  0
  190.4330  177.5650  142.8020 C   0  0  0  0  0  3  0  0  0  0  0  0
  191.4670  176.9860  144.9080 C   0  0  0  0  0  0  0  0  0  0  0  0
  192.7210  176.5960  145.5890 C   0  0  0  0  0  3  0  0  0  0  0  0
  188.0440  178.0900  141.1940 C   0  0  0  0  0  2  0  0  0  0  0  0
  185.9480  177.2420  140.4320 O   0  0  0  0  0  1  0  0  0  0  0  0
  187.2740  176.8840  140.6820 C   0  0  2  0  0  3  0  0  0  0  0  0
  187.3210  175.7780  141.7220 C   0  0  0  0  0  2  0  0  0  0  0  0
  189.7320  173.0420  140.1930 C   0  0  0  0  0  0  0  0  0  0  0  0
  189.1550  174.2320  143.5690 O   0  0  0  0  0  1  0  0  0  0  0  0
  190.4260  172.1380  139.2410 C   0  0  0  0  0  1  0  0  0  0  0  0
  188.5670  174.1800  139.7660 S   0  0  0  0  0  0  0  0  0  0  0  0
  189.1340  174.0240  142.1960 C   0  0  0  0  0  0  0  0  0  0  0  0
  188.3150  174.7380  141.3320 C   0  0  0  0  0  0  0  0  0  0  0  0
  189.9390  173.0680  141.5660 C   0  0  0  0  0  3  0  0  0  0  0  0
  1  9  1  0  0  0  0
  2  5  1  0  0  0  0
  2  3  1  0  0  0  0
  3  7  1  0  0  0  0
  5 14  2  0  0  0  0
  6  1  2  0  0  0  0
  7  4  1  0  0  0  0
  8 12  1  0  0  0  0
  8 13  1  0  0  0  0
 10 19  1  0  0  0  0
 11  4  2  0  0  0  0
 12 16  1  0  0  0  0
 13  2  2  0  0  0  0
 14  1  1  0  0  0  0
 15 11  1  0  0  0  0
 16 17  2  0  0  0  0
 16  5  1  0  0  0  0
 17  6  1  0  0  0  0
 18 13  1  0  0  0  0
 18 10  2  0  0  0  0
 19  3  2  0  0  0  0
 19 20  1  0  0  0  0
 20 15  2  0  0  0  0
 21  8  1  0  0  0  0
 23 22  1  1  0  0  0
 23 21  1  0  0  0  0
 23 24  1  0  0  0  0
 25 31  2  0  0  0  0
 27 25  1  0  0  0  0
 28 25  1  0  0  0  0
 28 30  1  0  0  0  0
 29 26  1  0  0  0  0
 30 24  1  0  0  0  0
 30 29  2  0  0  0  0
 31 29  1  0  0  0  0
M  END
>  <MODEL>
3

>  <REMARK>
 VINA RESULT:      -8.6      3.036      5.999
  Name = 
  4 active torsions:
  status: ('A' for Active; 'I' for Inactive)
    1  A    between atoms: C_3  and  C_9
    2  A    between atoms: C_3  and  C_22
    3  A    between atoms: C_9  and  C_23
    4  A    between atoms: N_15  and  C_23
                            x       y       z     vdW  Elec       q    Type
                         _______ _______ _______ _____ _____    ______ ____

>  <TORSDO>
F 4

$$$$
=
 OpenBabel11052417393D

 31 35  0  0  1  0  0  0  0  0999 V2000
  190.9730  176.7850  147.6450 C   0  0  0  0  0  0  0  0  0  0  0  0
  188.1000  176.3830  145.1570 C   0  0  0  0  0  0  0  0  0  0  0  0
  186.9430  176.9370  145.7800 C   0  0  0  0  0  0  0  0  0  0  0  0
  186.6910  178.5800  147.6100 C   0  0  0  0  0  3  0  0  0  0  0  0
  189.4210  176.2260  145.8490 C   0  0  0  0  0  0  0  0  0  0  0  0
  191.9570  175.9900  147.0570 C   0  0  0  0  0  3  0  0  0  0  0  0
  186.8880  177.1440  147.2630 C   0  0  0  0  0  2  0  0  0  0  0  0
  189.1540  175.3440  143.1740 N   0  0  0  0  0  0  0  0  0  0  0  0
  191.2470  177.4750  148.8570 N   0  0  0  0  0  1  0  0  0  0  0  0
  185.7390  176.7790  143.6770 C   0  0  0  0  0  3  0  0  0  0  0  0
  185.5790  179.2440  147.3070 C   0  0  0  0  0  3  0  0  0  0  0  0
  190.1840  174.6980  143.9810 C   0  0  0  0  0  2  0  0  0  0  0  0
  188.0240  175.9820  143.8030 C   0  0  0  0  0  0  0  0  0  0  0  0
  189.7200  176.9060  147.0410 C   0  0  0  0  0  3  0  0  0  0  0  0
  184.4560  178.6880  146.5310 C   0  0  0  0  0  3  0  0  0  0  0  0
  190.4360  175.4490  145.2480 C   0  0  0  0  0  0  0  0  0  0  0  0
  191.6870  175.3220  145.8610 C   0  0  0  0  0  3  0  0  0  0  0  0
  186.8460  176.1930  143.0790 C   0  0  0  0  0  3  0  0  0  0  0  0
  185.7740  177.1630  145.0160 C   0  0  0  0  0  0  0  0  0  0  0  0
  184.5420  177.7830  145.5490 C   0  0  0  0  0  3  0  0  0  0  0  0
  189.2380  175.1850  141.7260 C   0  0  0  0  0  2  0  0  0  0  0  0
  190.7720  173.8340  140.4940 O   0  0  0  0  0  1  0  0  0  0  0  0
  189.6820  173.7770  141.3650 C   0  0  2  0  0  3  0  0  0  0  0  0
  188.5320  173.0400  140.7020 C   0  0  0  0  0  2  0  0  0  0  0  0
  189.6140  172.0190  137.0380 C   0  0  0  0  0  0  0  0  0  0  0  0
  187.8160  174.8620  138.3910 O   0  0  0  0  0  1  0  0  0  0  0  0
  190.2050  171.2910  135.8860 C   0  0  0  0  0  1  0  0  0  0  0  0
  189.6710  171.4980  138.6380 S   0  0  0  0  0  0  0  0  0  0  0  0
  188.5050  173.6690  138.2130 C   0  0  0  0  0  0  0  0  0  0  0  0
  188.8230  172.8110  139.2580 C   0  0  0  0  0  0  0  0  0  0  0  0
  188.9420  173.2310  136.9570 C   0  0  0  0  0  3  0  0  0  0  0  0
  1  9  1  0  0  0  0
  2  3  1  0  0  0  0
  2  5  1  0  0  0  0
  3  7  1  0  0  0  0
  5 14  1  0  0  0  0
  6  1  1  0  0  0  0
  7  4  1  0  0  0  0
  8 13  1  0  0  0  0
  8 12  1  0  0  0  0
 10 19  1  0  0  0  0
 11  4  2  0  0  0  0
 12 16  1  0  0  0  0
 13  2  2  0  0  0  0
 14  1  2  0  0  0  0
 15 11  1  0  0  0  0
 16  5  2  0  0  0  0
 16 17  1  0  0  0  0
 17  6  2  0  0  0  0
 18 10  2  0  0  0  0
 18 13  1  0  0  0  0
 19 20  1  0  0  0  0
 19  3  2  0  0  0  0
 20 15  2  0  0  0  0
 21  8  1  0  0  0  0
 23 22  1  6  0  0  0
 23 21  1  0  0  0  0
 24 23  1  0  0  0  0
 25 28  1  0  0  0  0
 27 25  1  0  0  0  0
 28 30  1  0  0  0  0
 29 26  1  0  0  0  0
 29 30  2  0  0  0  0
 30 24  1  0  0  0  0
 31 25  2  0  0  0  0
 31 29  1  0  0  0  0
M  END
>  <MODEL>
4

>  <REMARK>
 VINA RESULT:      -8.4      3.383      6.298
  Name = 
  4 active torsions:
  status: ('A' for Active; 'I' for Inactive)
    1  A    between atoms: C_3  and  C_9
    2  A    between atoms: C_3  and  C_22
    3  A    between atoms: C_9  and  C_23
    4  A    between atoms: N_15  and  C_23
                            x       y       z     vdW  Elec       q    Type
                         _______ _______ _______ _____ _____    ______ ____

>  <TORSDO>
F 4

$$$$
=
 OpenBabel11052417393D

 31 35  0  0  1  0  0  0  0  0999 V2000
  190.1780  177.3220  147.6420 C   0  0  0  0  0  0  0  0  0  0  0  0
  188.5530  175.8550  144.5100 C   0  0  0  0  0  0  0  0  0  0  0  0
  187.3360  176.5700  144.3110 C   0  0  0  0  0  0  0  0  0  0  0  0
  186.5950  178.7990  145.0840 C   0  0  0  0  0  3  0  0  0  0  0  0
  189.4360  176.0350  145.7080 C   0  0  0  0  0  0  0  0  0  0  0  0
  191.1900  176.3950  147.8850 C   0  0  0  0  0  3  0  0  0  0  0  0
  186.7070  177.3520  145.4240 C   0  0  0  0  0  2  0  0  0  0  0  0
  190.1660  174.1460  143.7330 N   0  0  0  0  0  0  0  0  0  0  0  0
  190.0270  178.4510  148.4950 N   0  0  0  0  0  1  0  0  0  0  0  0
  187.0920  175.5390  142.1260 C   0  0  0  0  0  3  0  0  0  0  0  0
  185.8140  179.2450  144.1030 C   0  0  0  0  0  3  0  0  0  0  0  0
  190.6680  173.9150  145.0830 C   0  0  0  0  0  2  0  0  0  0  0  0
  188.9820  174.9420  143.5190 C   0  0  0  0  0  0  0  0  0  0  0  0
  189.3150  177.1460  146.5590 C   0  0  0  0  0  3  0  0  0  0  0  0
  185.0400  178.3850  143.1900 C   0  0  0  0  0  3  0  0  0  0  0  0
  190.4850  175.1200  145.9480 C   0  0  0  0  0  0  0  0  0  0  0  0
  191.3410  175.2940  147.0400 C   0  0  0  0  0  3  0  0  0  0  0  0
  188.2490  174.8020  142.3350 C   0  0  0  0  0  3  0  0  0  0  0  0
  186.6290  176.4280  143.0930 C   0  0  0  0  0  0  0  0  0  0  0  0
  185.3900  177.1660  142.7630 C   0  0  0  0  0  3  0  0  0  0  0  0
  190.8120  173.4220  142.6430 C   0  0  0  0  0  2  0  0  0  0  0  0
  191.9130  174.1620  140.6600 O   0  0  0  0  0  1  0  0  0  0  0  0
  191.9480  174.2430  142.0530 C   0  0  2  0  0  3  0  0  0  0  0  0
  193.2740  173.7100  142.5670 C   0  0  0  0  0  2  0  0  0  0  0  0
  194.3610  176.2860  145.3630 C   0  0  0  0  0  0  0  0  0  0  0  0
  194.8650  172.7200  144.9440 O   0  0  0  0  0  1  0  0  0  0  0  0
  194.5660  177.5400  146.1330 C   0  0  0  0  0  1  0  0  0  0  0  0
  193.5200  176.1740  143.9090 S   0  0  0  0  0  0  0  0  0  0  0  0
  194.4910  174.0500  144.8010 C   0  0  0  0  0  0  0  0  0  0  0  0
  193.7440  174.5180  143.7290 C   0  0  0  0  0  0  0  0  0  0  0  0
  194.8420  175.0360  145.7310 C   0  0  0  0  0  3  0  0  0  0  0  0
  1  6  1  0  0  0  0
  1  9  1  0  0  0  0
  2  5  1  0  0  0  0
  3  2  1  0  0  0  0
  3  7  1  0  0  0  0
  4  7  1  0  0  0  0
  5 16  2  0  0  0  0
  5 14  1  0  0  0  0
  8 12  1  0  0  0  0
 10 18  2  0  0  0  0
 10 19  1  0  0  0  0
 11  4  2  0  0  0  0
 12 16  1  0  0  0  0
 13  8  1  0  0  0  0
 13  2  2  0  0  0  0
 14  1  2  0  0  0  0
 15 11  1  0  0  0  0
 16 17  1  0  0  0  0
 17  6  2  0  0  0  0
 18 13  1  0  0  0  0
 19  3  2  0  0  0  0
 20 19  1  0  0  0  0
 20 15  2  0  0  0  0
 21  8  1  0  0  0  0
 23 22  1  6  0  0  0
 23 24  1  0  0  0  0
 23 21  1  0  0  0  0
 24 30  1  0  0  0  0
 25 31  2  0  0  0  0
 25 27  1  0  0  0  0
 28 25  1  0  0  0  0
 29 26  1  0  0  0  0
 29 31  1  0  0  0  0
 30 28  1  0  0  0  0
 30 29  2  0  0  0  0
M  END
>  <MODEL>
5

>  <REMARK>
 VINA RESULT:      -8.3      2.391      4.477
  Name = 
  4 active torsions:
  status: ('A' for Active; 'I' for Inactive)
    1  A    between atoms: C_3  and  C_9
    2  A    between atoms: C_3  and  C_22
    3  A    between atoms: C_9  and  C_23
    4  A    between atoms: N_15  and  C_23
                            x       y       z     vdW  Elec       q    Type
                         _______ _______ _______ _____ _____    ______ ____

>  <TORSDO>
F 4

$$$$
=
 OpenBabel11052417393D

 31 35  0  0  1  0  0  0  0  0999 V2000
  185.2770  178.0140  140.8640 C   0  0  0  0  0  0  0  0  0  0  0  0
  187.2310  177.0930  144.0170 C   0  0  0  0  0  0  0  0  0  0  0  0
  186.6290  177.8110  145.0920 C   0  0  0  0  0  0  0  0  0  0  0  0
  184.3740  178.7920  145.3520 C   0  0  0  0  0  3  0  0  0  0  0  0
  186.8440  177.2710  142.5800 C   0  0  0  0  0  0  0  0  0  0  0  0
  186.0980  177.4840  139.8700 C   0  0  0  0  0  3  0  0  0  0  0  0
  185.7560  179.0010  144.8340 C   0  0  0  0  0  2  0  0  0  0  0  0
  188.9140  175.4580  143.2320 N   0  0  0  0  0  0  0  0  0  0  0  0
  184.0630  178.6660  140.5130 N   0  0  0  0  0  1  0  0  0  0  0  0
  187.9410  176.5250  146.6800 C   0  0  0  0  0  3  0  0  0  0  0  0
  184.1070  178.6660  146.6500 C   0  0  0  0  0  3  0  0  0  0  0  0
  188.9390  176.0310  141.8910 C   0  0  0  0  0  2  0  0  0  0  0  0
  188.2310  176.1370  144.3060 C   0  0  0  0  0  0  0  0  0  0  0  0
  185.6450  177.9010  142.2060 C   0  0  0  0  0  3  0  0  0  0  0  0
  185.1250  178.6320  147.7160 C   0  0  0  0  0  3  0  0  0  0  0  0
  187.6500  176.7120  141.5640 C   0  0  0  0  0  0  0  0  0  0  0  0
  187.2830  176.8360  140.2200 C   0  0  0  0  0  3  0  0  0  0  0  0
  188.5660  175.8590  145.6360 C   0  0  0  0  0  3  0  0  0  0  0  0
  186.9690  177.4900  146.4280 C   0  0  0  0  0  0  0  0  0  0  0  0
  186.3620  178.1320  147.6140 C   0  0  0  0  0  3  0  0  0  0  0  0
  189.7240  174.2670  143.4690 C   0  0  0  0  0  2  0  0  0  0  0  0
  188.5110  172.5040  142.4160 O   0  0  0  0  0  1  0  0  0  0  0  0
  189.6390  173.3160  142.2870 C   0  0  2  0  0  3  0  0  0  0  0  0
  190.8900  172.4560  142.2410 C   0  0  0  0  0  2  0  0  0  0  0  0
  191.4630  170.7690  138.7110 C   0  0  0  0  0  0  0  0  0  0  0  0
  192.2340  174.0500  140.0470 O   0  0  0  0  0  1  0  0  0  0  0  0
  191.4940  169.7850  137.5980 C   0  0  0  0  0  1  0  0  0  0  0  0
  190.8160  170.4770  140.2370 S   0  0  0  0  0  0  0  0  0  0  0  0
  191.7990  172.7450  139.8590 C   0  0  0  0  0  0  0  0  0  0  0  0
  191.1620  172.0060  140.8460 C   0  0  0  0  0  0  0  0  0  0  0  0
  191.9710  172.0600  138.6500 C   0  0  0  0  0  3  0  0  0  0  0  0
  1 14  1  0  0  0  0
  2 13  2  0  0  0  0
  2  3  1  0  0  0  0
  3 19  2  0  0  0  0
  4 11  2  0  0  0  0
  5  2  1  0  0  0  0
  6 17  1  0  0  0  0
  6  1  2  0  0  0  0
  7  3  1  0  0  0  0
  7  4  1  0  0  0  0
  8 21  1  0  0  0  0
  8 13  1  0  0  0  0
  9  1  1  0  0  0  0
 11 15  1  0  0  0  0
 12  8  1  0  0  0  0
 13 18  1  0  0  0  0
 14  5  2  0  0  0  0
 16 12  1  0  0  0  0
 16  5  1  0  0  0  0
 17 16  2  0  0  0  0
 18 10  2  0  0  0  0
 19 10  1  0  0  0  0
 19 20  1  0  0  0  0
 20 15  2  0  0  0  0
 23 22  1  1  0  0  0
 23 21  1  0  0  0  0
 24 23  1  0  0  0  0
 25 28  1  0  0  0  0
 27 25  1  0  0  0  0
 28 30  1  0  0  0  0
 29 26  1  0  0  0  0
 29 30  2  0  0  0  0
 30 24  1  0  0  0  0
 31 25  2  0  0  0  0
 31 29  1  0  0  0  0
M  END
>  <MODEL>
6

>  <REMARK>
 VINA RESULT:      -8.3      2.931      3.859
  Name = 
  4 active torsions:
  status: ('A' for Active; 'I' for Inactive)
    1  A    between atoms: C_3  and  C_9
    2  A    between atoms: C_3  and  C_22
    3  A    between atoms: C_9  and  C_23
    4  A    between atoms: N_15  and  C_23
                            x       y       z     vdW  Elec       q    Type
                         _______ _______ _______ _____ _____    ______ ____

>  <TORSDO>
F 4

$$$$
=
 OpenBabel11052417393D

 31 35  0  0  1  0  0  0  0  0999 V2000
  190.6420  172.3340  141.4600 C   0  0  0  0  0  0  0  0  0  0  0  0
  189.8290  175.3600  143.6470 C   0  0  0  0  0  0  0  0  0  0  0  0
  190.7160  175.3050  144.7630 C   0  0  0  0  0  0  0  0  0  0  0  0
  192.8980  174.1850  145.0720 C   0  0  0  0  0  3  0  0  0  0  0  0
  189.7320  174.2830  142.6100 C   0  0  0  0  0  0  0  0  0  0  0  0
  189.5670  172.3410  140.5730 C   0  0  0  0  0  3  0  0  0  0  0  0
  191.4160  174.0330  145.1320 C   0  0  0  0  0  2  0  0  0  0  0  0
  188.0460  176.5450  142.4070 N   0  0  0  0  0  0  0  0  0  0  0  0
  191.6560  171.3440  141.3410 N   0  0  0  0  0  1  0  0  0  0  0  0
  190.0270  177.5400  145.4160 C   0  0  0  0  0  3  0  0  0  0  0  0
  193.5690  174.9900  145.8920 C   0  0  0  0  0  3  0  0  0  0  0  0
  187.5740  175.3130  141.7840 C   0  0  0  0  0  2  0  0  0  0  0  0
  189.0090  176.5000  143.4790 C   0  0  0  0  0  0  0  0  0  0  0  0
  190.7260  173.3000  142.4640 C   0  0  0  0  0  3  0  0  0  0  0  0
  192.9460  175.8810  146.8880 C   0  0  0  0  0  3  0  0  0  0  0  0
  188.6650  174.2970  141.6840 C   0  0  0  0  0  0  0  0  0  0  0  0
  188.5800  173.3210  140.6860 C   0  0  0  0  0  3  0  0  0  0  0  0
  189.1260  177.5790  144.3620 C   0  0  0  0  0  3  0  0  0  0  0  0
  190.8310  176.4220  145.6240 C   0  0  0  0  0  0  0  0  0  0  0  0
  191.7600  176.4900  146.7730 C   0  0  0  0  0  3  0  0  0  0  0  0
  187.3970  177.7900  142.0080 C   0  0  0  0  0  2  0  0  0  0  0  0
  185.8610  177.9130  140.1870 O   0  0  0  0  0  1  0  0  0  0  0  0
  185.9810  177.5270  141.5230 C   0  0  2  0  0  3  0  0  0  0  0  0
  185.0020  178.3150  142.3770 C   0  0  0  0  0  2  0  0  0  0  0  0
  185.8670  177.5360  146.1560 C   0  0  0  0  0  0  0  0  0  0  0  0
  185.5660  180.6140  144.2630 O   0  0  0  0  0  1  0  0  0  0  0  0
  186.1190  176.8230  147.4340 C   0  0  0  0  0  1  0  0  0  0  0  0
  185.4960  176.7900  144.6930 S   0  0  0  0  0  0  0  0  0  0  0  0
  185.6090  179.2880  144.6730 C   0  0  0  0  0  0  0  0  0  0  0  0
  185.3740  178.2200  143.8170 C   0  0  0  0  0  0  0  0  0  0  0  0
  185.8920  178.9150  145.9920 C   0  0  0  0  0  3  0  0  0  0  0  0
  1 14  1  0  0  0  0
  2  3  1  0  0  0  0
  3  7  1  0  0  0  0
  3 19  2  0  0  0  0
  4  7  1  0  0  0  0
  4 11  2  0  0  0  0
  5  2  1  0  0  0  0
  6 17  1  0  0  0  0
  6  1  2  0  0  0  0
  8 13  1  0  0  0  0
  9  1  1  0  0  0  0
 10 19  1  0  0  0  0
 11 15  1  0  0  0  0
 12  8  1  0  0  0  0
 13  2  2  0  0  0  0
 13 18  1  0  0  0  0
 14  5  2  0  0  0  0
 16 12  1  0  0  0  0
 16  5  1  0  0  0  0
 17 16  2  0  0  0  0
 18 10  2  0  0  0  0
 19 20  1  0  0  0  0
 20 15  2  0  0  0  0
 21  8  1  0  0  0  0
 23 22  1  6  0  0  0
 23 21  1  0  0  0  0
 23 24  1  0  0  0  0
 24 30  1  0  0  0  0
 25 27  1  0  0  0  0
 26 29  1  0  0  0  0
 28 25  1  0  0  0  0
 29 31  1  0  0  0  0
 30 29  2  0  0  0  0
 30 28  1  0  0  0  0
 31 25  2  0  0  0  0
M  END
>  <MODEL>
7

>  <REMARK>
 VINA RESULT:      -8.2      3.259      7.092
  Name = 
  4 active torsions:
  status: ('A' for Active; 'I' for Inactive)
    1  A    between atoms: C_3  and  C_9
    2  A    between atoms: C_3  and  C_22
    3  A    between atoms: C_9  and  C_23
    4  A    between atoms: N_15  and  C_23
                            x       y       z     vdW  Elec       q    Type
                         _______ _______ _______ _____ _____    ______ ____

>  <TORSDO>
F 4

$$$$
=
 OpenBabel11052417393D

 31 35  0  0  1  0  0  0  0  0999 V2000
  191.1150  176.7800  147.7660 C   0  0  0  0  0  0  0  0  0  0  0  0
  188.2900  176.3460  145.2300 C   0  0  0  0  0  0  0  0  0  0  0  0
  187.1170  176.8920  145.8300 C   0  0  0  0  0  0  0  0  0  0  0  0
  186.8190  178.5380  147.6510 C   0  0  0  0  0  3  0  0  0  0  0  0
  189.5990  176.2020  145.9450 C   0  0  0  0  0  0  0  0  0  0  0  0
  192.1150  175.9920  147.1980 C   0  0  0  0  0  3  0  0  0  0  0  0
  187.0340  177.1020  147.3120 C   0  0  0  0  0  2  0  0  0  0  0  0
  189.3870  175.3100  143.2690 N   0  0  0  0  0  0  0  0  0  0  0  0
  191.3620  177.4760  148.9820 N   0  0  0  0  0  1  0  0  0  0  0  0
  185.9520  176.7170  143.7070 C   0  0  0  0  0  3  0  0  0  0  0  0
  185.7070  179.1920  147.3260 C   0  0  0  0  0  3  0  0  0  0  0  0
  190.4080  174.6760  144.0960 C   0  0  0  0  0  2  0  0  0  0  0  0
  188.2410  175.9400  143.8760 C   0  0  0  0  0  0  0  0  0  0  0  0
  189.8720  176.8880  147.1400 C   0  0  0  0  0  3  0  0  0  0  0  0
  184.6020  178.6240  146.5320 C   0  0  0  0  0  3  0  0  0  0  0  0
  190.6320  175.4330  145.3650 C   0  0  0  0  0  0  0  0  0  0  0  0
  191.8730  175.3180  146.0000 C   0  0  0  0  0  3  0  0  0  0  0  0
  187.0740  176.1390  143.1300 C   0  0  0  0  0  3  0  0  0  0  0  0
  185.9600  177.1050  145.0450 C   0  0  0  0  0  0  0  0  0  0  0  0
  184.7130  177.7170  145.5550 C   0  0  0  0  0  3  0  0  0  0  0  0
  189.4980  175.1470  141.8230 C   0  0  0  0  0  2  0  0  0  0  0  0
  191.5960  174.4040  140.9620 O   0  0  0  0  0  1  0  0  0  0  0  0
  190.3800  173.9570  141.4820 C   0  0  2  0  0  3  0  0  0  0  0  0
  189.6740  173.0830  140.4610 C   0  0  0  0  0  2  0  0  0  0  0  0
  190.9620  169.4390  141.2930 C   0  0  0  0  0  0  0  0  0  0  0  0
  190.3030  171.1870  138.1860 O   0  0  0  0  0  1  0  0  0  0  0  0
  191.4160  168.2280  142.0260 C   0  0  0  0  0  1  0  0  0  0  0  0
  190.4560  170.8710  142.0190 S   0  0  0  0  0  0  0  0  0  0  0  0
  190.4400  170.8220  139.5200 C   0  0  0  0  0  0  0  0  0  0  0  0
  190.1370  171.6710  140.5750 C   0  0  0  0  0  0  0  0  0  0  0  0
  190.9030  169.5600  139.9120 C   0  0  0  0  0  3  0  0  0  0  0  0
  1  9  1  0  0  0  0
  2  3  1  0  0  0  0
  2  5  1  0  0  0  0
  3  7  1  0  0  0  0
  5 14  1  0  0  0  0
  6  1  1  0  0  0  0
  7  4  1  0  0  0  0
  8 13  1  0  0  0  0
  8 12  1  0  0  0  0
 10 19  1  0  0  0  0
 11  4  2  0  0  0  0
 12 16  1  0  0  0  0
 13  2  2  0  0  0  0
 14  1  2  0  0  0  0
 15 11  1  0  0  0  0
 16  5  2  0  0  0  0
 16 17  1  0  0  0  0
 17  6  2  0  0  0  0
 18 10  2  0  0  0  0
 18 13  1  0  0  0  0
 19 20  1  0  0  0  0
 19  3  2  0  0  0  0
 20 15  2  0  0  0  0
 21  8  1  0  0  0  0
 23 22  1  6  0  0  0
 23 21  1  0  0  0  0
 24 30  1  0  0  0  0
 24 23  1  0  0  0  0
 25 28  1  0  0  0  0
 25 27  1  0  0  0  0
 26 29  1  0  0  0  0
 29 31  1  0  0  0  0
 29 30  2  0  0  0  0
 30 28  1  0  0  0  0
 31 25  2  0  0  0  0
M  END
>  <MODEL>
8

>  <REMARK>
 VINA RESULT:      -8.1      3.171      5.717
  Name = 
  4 active torsions:
  status: ('A' for Active; 'I' for Inactive)
    1  A    between atoms: C_3  and  C_9
    2  A    between atoms: C_3  and  C_22
    3  A    between atoms: C_9  and  C_23
    4  A    between atoms: N_15  and  C_23
                            x       y       z     vdW  Elec       q    Type
                         _______ _______ _______ _____ _____    ______ ____

>  <TORSDO>
F 4

$$$$
=
 OpenBabel11052417393D

 31 35  0  0  1  0  0  0  0  0999 V2000
  190.6520  173.5140  140.8700 C   0  0  0  0  0  0  0  0  0  0  0  0
  192.5900  174.8790  143.8690 C   0  0  0  0  0  0  0  0  0  0  0  0
  193.8930  175.2100  143.3940 C   0  0  0  0  0  0  0  0  0  0  0  0
  194.7340  175.7130  141.1240 C   0  0  0  0  0  3  0  0  0  0  0  0
  191.5510  174.1910  143.0340 C   0  0  0  0  0  0  0  0  0  0  0  0
  189.5210  172.9880  141.4930 C   0  0  0  0  0  3  0  0  0  0  0  0
  194.4150  174.6410  142.1100 C   0  0  0  0  0  2  0  0  0  0  0  0
  190.9490  174.8420  145.7200 N   0  0  0  0  0  0  0  0  0  0  0  0
  190.7850  173.4420  139.4560 N   0  0  0  0  0  1  0  0  0  0  0  0
  194.3710  176.3280  145.4950 C   0  0  0  0  0  3  0  0  0  0  0  0
  195.7050  176.6010  141.3210 C   0  0  0  0  0  3  0  0  0  0  0  0
  190.2150  173.7270  145.1320 C   0  0  0  0  0  2  0  0  0  0  0  0
  192.2290  175.2370  145.1880 C   0  0  0  0  0  0  0  0  0  0  0  0
  191.6530  174.1160  141.6350 C   0  0  0  0  0  3  0  0  0  0  0  0
  196.5180  176.6970  142.5470 C   0  0  0  0  0  3  0  0  0  0  0  0
  190.3860  173.6810  143.6480 C   0  0  0  0  0  0  0  0  0  0  0  0
  189.3900  173.0700  142.8800 C   0  0  0  0  0  3  0  0  0  0  0  0
  193.1230  175.9650  145.9810 C   0  0  0  0  0  3  0  0  0  0  0  0
  194.7650  175.9690  144.2090 C   0  0  0  0  0  0  0  0  0  0  0  0
  196.1130  176.4140  143.7910 C   0  0  0  0  0  3  0  0  0  0  0  0
  190.4100  175.4290  146.9430 C   0  0  0  0  0  2  0  0  0  0  0  0
  189.8220  177.6850  147.4510 O   0  0  0  0  0  1  0  0  0  0  0  0
  189.5060  176.6070  146.6210 C   0  0  2  0  0  3  0  0  0  0  0  0
  188.0580  176.2030  146.8310 C   0  0  0  0  0  2  0  0  0  0  0  0
  185.9260  178.9670  144.9740 C   0  0  0  0  0  0  0  0  0  0  0  0
  185.9800  177.7560  148.3910 O   0  0  0  0  0  1  0  0  0  0  0  0
  185.3890  179.8820  143.9330 C   0  0  0  0  0  1  0  0  0  0  0  0
  187.1330  177.8220  144.7190 S   0  0  0  0  0  0  0  0  0  0  0  0
  186.2080  177.9710  147.0370 C   0  0  0  0  0  0  0  0  0  0  0  0
  187.1420  177.2540  146.3020 C   0  0  0  0  0  0  0  0  0  0  0  0
  185.5140  178.9360  146.2990 C   0  0  0  0  0  3  0  0  0  0  0  0
  1  6  2  0  0  0  0
  1 14  1  0  0  0  0
  2 13  1  0  0  0  0
  3  2  2  0  0  0  0
  3 19  1  0  0  0  0
  4 11  2  0  0  0  0
  4  7  1  0  0  0  0
  5 16  1  0  0  0  0
  5  2  1  0  0  0  0
  6 17  1  0  0  0  0
  7  3  1  0  0  0  0
  8 21  1  0  0  0  0
  9  1  1  0  0  0  0
 10 18  1  0  0  0  0
 11 15  1  0  0  0  0
 12  8  1  0  0  0  0
 13  8  1  0  0  0  0
 13 18  2  0  0  0  0
 14  5  2  0  0  0  0
 15 20  2  0  0  0  0
 16 12  1  0  0  0  0
 17 16  2  0  0  0  0
 19 10  2  0  0  0  0
 20 19  1  0  0  0  0
 23 24  1  0  0  0  0
 23 21  1  0  0  0  0
 23 22  1  1  0  0  0
 25 31  2  0  0  0  0
 27 25  1  0  0  0  0
 28 25  1  0  0  0  0
 28 30  1  0  0  0  0
 29 26  1  0  0  0  0
 30 24  1  0  0  0  0
 30 29  2  0  0  0  0
 31 29  1  0  0  0  0
M  END
>  <MODEL>
9

>  <REMARK>
 VINA RESULT:      -8.0      3.377      7.903
  Name = 
  4 active torsions:
  status: ('A' for Active; 'I' for Inactive)
    1  A    between atoms: C_3  and  C_9
    2  A    between atoms: C_3  and  C_22
    3  A    between atoms: C_9  and  C_23
    4  A    between atoms: N_15  and  C_23
                            x       y       z     vdW  Elec       q    Type
                         _______ _______ _______ _____ _____    ______ ____

>  <TORSDO>
F 4

$$$$
