=
 OpenBabel11052421123D

 43 49  0  0  1  0  0  0  0  0999 V2000
  189.9350  171.4180  136.4440 C   0  0  0  0  0  0  0  0  0  0  0  0
  189.7300  172.9470  141.2740 C   0  0  0  0  0  0  0  0  0  0  0  0
  188.4050  175.4410  141.2800 C   0  0  0  0  0  0  0  0  0  0  0  0
  190.1470  171.5940  138.8770 C   0  0  0  0  0  0  0  0  0  0  0  0
  189.3010  172.5870  136.3470 C   0  0  0  0  0  3  0  0  0  0  0  0
  190.1850  170.6730  135.3000 O   0  0  0  0  0  1  0  0  0  0  0  0
  189.4830  172.8410  138.8560 C   0  0  0  0  0  0  0  0  0  0  0  0
  190.3700  170.9080  137.7540 C   0  0  0  0  0  3  0  0  0  0  0  0
  189.0010  173.4390  137.5520 C   0  0  0  0  0  2  0  0  0  0  0  0
  188.5840  174.8280  140.1050 C   0  0  0  0  0  3  0  0  0  0  0  0
  189.2730  173.5230  140.0680 C   0  0  0  0  0  0  0  0  0  0  0  0
  190.3650  171.7430  141.2520 N   0  0  0  0  0  0  0  0  0  0  0  0
  189.5330  173.5890  142.4370 C   0  0  0  0  0  0  0  0  0  0  0  0
  188.8760  174.8320  142.4510 O   0  0  0  0  0  0  0  0  0  0  0  0
  190.5800  171.0670  140.0940 C   0  0  0  0  0  3  0  0  0  0  0  0
  187.7240  176.7410  141.3650 C   0  0  0  0  0  0  0  0  0  0  0  0
  186.4350  176.8020  141.5250 N   0  0  0  0  0  0  0  0  0  0  0  0
  188.4720  177.8730  141.2760 F   0  0  0  0  0  0  0  0  0  0  0  0
  185.6650  178.0070  141.6260 C   0  0  0  0  0  0  0  0  0  0  0  0
  185.0230  178.4590  140.6400 O   0  0  0  0  0  0  0  0  0  0  0  0
  185.6560  178.7580  142.9100 C   0  0  0  0  0  2  0  0  0  0  0  0
  184.9700  177.9800  143.9330 N   0  0  0  0  0  0  0  0  0  0  0  0
  185.4800  178.6320  146.2660 C   0  0  0  0  0  2  0  0  0  0  0  0
  187.2140  177.1160  144.8600 C   0  0  2  0  0  3  0  0  0  0  0  0
  183.8930  178.8320  144.4400 C   0  0  0  0  0  2  0  0  0  0  0  0
  185.8720  177.8150  145.0650 C   0  0  2  0  0  0  0  0  0  0  0  0
  186.0220  176.3530  145.4230 C   0  0  0  0  0  2  0  0  0  0  0  0
  184.0590  179.0210  145.9450 C   0  0  0  0  0  2  0  0  0  0  0  0
  188.1420  177.4620  145.9300 N   0  0  2  0  0  0  0  0  0  0  0  0
  189.7210  176.0720  146.9710 C   0  0  0  0  0  0  0  0  0  0  0  0
  190.5160  176.9440  146.0990 C   0  0  0  0  0  2  0  0  0  0  0  0
  190.1950  174.9960  147.4790 N   0  0  0  0  0  2  0  0  0  0  0  0
  189.4550  177.6920  145.3120 C   0  0  0  0  0  2  0  0  0  0  0  0
  188.2750  176.2880  146.7900 C   0  0  0  0  0  2  0  0  0  0  0  0
  189.9830  173.0220  143.6320 O   0  0  0  0  0  0  0  0  0  0  0  0
  193.3410  172.9400  145.3640 C   0  0  0  0  0  2  0  0  0  0  0  0
  193.6120  174.4400  145.1900 C   0  0  2  0  0  3  0  0  0  0  0  0
  191.7050  174.7120  143.5480 C   0  0  0  0  0  2  0  0  0  0  0  0
  192.1510  172.4310  144.5400 C   0  0  0  0  0  2  0  0  0  0  0  0
  191.1110  173.5320  144.3290 C   0  0  2  0  0  3  0  0  0  0  0  0
  193.2060  174.9180  143.7950 C   0  0  0  0  0  2  0  0  0  0  0  0
  195.5370  175.8030  144.5890 N   0  0  0  0  0  1  0  0  0  0  0  0
  195.0810  174.7220  145.4450 C   0  0  0  0  0  2  0  0  0  0  0  0
  1  8  1  0  0  0  0
  2 13  2  0  0  0  0
  3 16  1  0  0  0  0
  3 14  1  0  0  0  0
  4 15  1  0  0  0  0
  5  1  2  0  0  0  0
  5  9  1  0  0  0  0
  6  1  1  0  0  0  0
  7  4  1  0  0  0  0
  7 11  2  0  0  0  0
  8  4  2  0  0  0  0
  9  7  1  0  0  0  0
 10  3  2  0  0  0  0
 11 10  1  0  0  0  0
 11  2  1  0  0  0  0
 12  2  1  0  0  0  0
 13 14  1  0  0  0  0
 13 35  1  0  0  0  0
 15 12  2  0  0  0  0
 16 17  2  0  0  0  0
 17 19  1  0  0  0  0
 18 16  1  0  0  0  0
 19 21  1  0  0  0  0
 20 19  2  0  0  0  0
 21 22  1  0  0  0  0
 22 25  1  0  0  0  0
 22 26  1  0  0  0  0
 24 26  1  0  0  0  0
 24 27  1  1  0  0  0
 24 29  1  0  0  0  0
 25 28  1  0  0  0  0
 26 27  1  1  0  0  0
 26 23  1  0  0  0  0
 28 23  1  0  0  0  0
 29 33  1  6  0  0  0
 29 34  1  0  0  0  0
 30 32  2  0  0  0  0
 31 30  1  0  0  0  0
 33 31  1  0  0  0  0
 34 30  1  0  0  0  0
 37 36  1  0  0  0  0
 37 43  1  6  0  0  0
 38 41  1  0  0  0  0
 38 40  1  0  0  0  0
 39 36  1  0  0  0  0
 40 35  1  6  0  0  0
 40 39  1  0  0  0  0
 41 37  1  0  0  0  0
 42 43  1  0  0  0  0
M  END
>  <MODEL>
1

>  <REMARK>
 VINA RESULT:      -8.2      0.000      0.000
  Name = 
  8 active torsions:
  status: ('A' for Active; 'I' for Inactive)
    1  A    between atoms: O_1  and  C_34
    2  A    between atoms: O_1  and  C_35
    3  A    between atoms: C_2  and  C_13
    4  A    between atoms: C_3  and  N_4
    5  A    between atoms: C_3  and  C_12
    6  A    between atoms: N_6  and  C_12
    7  A    between atoms: N_11  and  C_14
    8  A    between atoms: C_19  and  C_37
                            x       y       z     vdW  Elec       q    Type
                         _______ _______ _______ _____ _____    ______ ____

>  <TORSDO>
F 8

$$$$
=
 OpenBabel11052421123D

 43 49  0  0  1  0  0  0  0  0999 V2000
  185.1630  178.0830  146.7000 C   0  0  0  0  0  0  0  0  0  0  0  0
  188.3700  175.9950  143.3740 C   0  0  0  0  0  0  0  0  0  0  0  0
  190.9180  176.0040  144.5890 C   0  0  0  0  0  0  0  0  0  0  0  0
  186.1710  177.0280  144.7340 C   0  0  1  0  0  3  0  0  0  0  0  0
  186.3240  178.1300  147.3540 C   0  0  0  0  0  3  0  0  0  0  0  0
  184.0130  178.5750  147.3020 O   0  0  0  0  0  1  0  0  0  0  0  0
  187.4370  177.0440  145.3610 C   0  0  0  0  0  0  0  0  0  0  0  0
  185.0890  177.5120  145.3460 C   0  0  0  0  0  3  0  0  0  0  0  0
  187.6040  177.6120  146.7540 C   0  0  0  0  0  3  0  0  0  0  0  0
  189.8920  176.5110  145.2790 C   0  0  0  0  0  3  0  0  0  0  0  0
  188.5470  176.5210  144.6720 C   0  0  0  0  0  0  0  0  0  0  0  0
  187.1330  175.9980  142.8050 N   0  0  0  0  0  0  0  0  0  0  0  0
  189.4210  175.4920  142.7080 C   0  0  0  0  0  0  0  0  0  0  0  0
  190.6960  175.4930  143.3030 O   0  0  0  0  0  0  0  0  0  0  0  0
  186.0470  176.4980  143.4500 C   0  0  0  0  0  3  0  0  0  0  0  0
  192.2760  175.9720  145.1530 C   0  0  0  0  0  0  0  0  0  0  0  0
  193.1840  176.8040  144.7360 N   0  0  0  0  0  0  0  0  0  0  0  0
  192.5570  175.0570  146.1190 F   0  0  0  0  0  0  0  0  0  0  0  0
  194.5340  176.8700  145.2120 C   0  0  0  0  0  0  0  0  0  0  0  0
  194.8470  177.5860  146.2010 O   0  0  0  0  0  0  0  0  0  0  0  0
  195.5940  176.1080  144.4990 C   0  0  0  0  0  2  0  0  0  0  0  0
  195.3660  174.6770  144.6580 N   0  0  0  0  0  0  0  0  0  0  0  0
  196.6590  173.2310  143.1210 C   0  0  0  0  0  2  0  0  0  0  0  0
  194.4400  174.5020  142.2590 C   0  0  2  0  0  3  0  0  0  0  0  0
  196.5360  174.1530  145.3630 C   0  0  0  0  0  2  0  0  0  0  0  0
  195.4210  174.0560  143.3420 C   0  0  2  0  0  0  0  0  0  0  0  0
  194.1700  173.2460  143.0780 C   0  0  0  0  0  2  0  0  0  0  0  0
  197.1910  173.0610  144.5220 C   0  0  0  0  0  2  0  0  0  0  0  0
  194.9380  174.1430  140.9360 N   0  0  2  0  0  0  0  0  0  0  0  0
  193.7070  173.9040  138.9520 C   0  0  0  0  0  0  0  0  0  0  0  0
  194.4180  175.1780  138.7940 C   0  0  0  0  0  2  0  0  0  0  0  0
  192.7180  173.5750  138.2070 N   0  0  0  0  0  2  0  0  0  0  0  0
  195.0480  175.3850  140.1600 C   0  0  0  0  0  2  0  0  0  0  0  0
  193.9130  173.3250  140.2910 C   0  0  0  0  0  2  0  0  0  0  0  0
  189.2510  174.9690  141.4230 O   0  0  0  0  0  0  0  0  0  0  0  0
  190.3460  171.3550  141.5650 C   0  0  0  0  0  2  0  0  0  0  0  0
  190.6400  171.2510  140.0620 C   0  0  2  0  0  3  0  0  0  0  0  0
  189.4780  173.4440  139.5660 C   0  0  0  0  0  2  0  0  0  0  0  0
  189.5840  172.6280  141.9550 C   0  0  0  0  0  2  0  0  0  0  0  0
  189.9030  173.7800  141.0020 C   0  0  2  0  0  3  0  0  0  0  0  0
  189.5560  171.9470  139.2370 C   0  0  0  0  0  2  0  0  0  0  0  0
  189.9880  169.5360  138.4630 N   0  0  0  0  0  1  0  0  0  0  0  0
  190.7560  169.7900  139.6690 C   0  0  0  0  0  2  0  0  0  0  0  0
  1  6  1  0  0  0  0
  1  5  1  0  0  0  0
  2 11  1  0  0  0  0
  3 16  1  0  0  0  0
  3 10  2  0  0  0  0
  4 15  1  6  0  0  0
  4  8  1  0  0  0  0
  4  7  1  0  0  0  0
  7  9  1  0  0  0  0
  8  1  2  0  0  0  0
  9  5  2  0  0  0  0
 11 10  1  0  0  0  0
 11  7  2  0  0  0  0
 12  2  1  0  0  0  0
 12 15  2  0  0  0  0
 13 14  1  0  0  0  0
 13  2  2  0  0  0  0
 14  3  1  0  0  0  0
 16 18  1  0  0  0  0
 17 16  2  0  0  0  0
 17 19  1  0  0  0  0
 19 20  2  0  0  0  0
 21 22  1  0  0  0  0
 21 19  1  0  0  0  0
 22 25  1  0  0  0  0
 23 26  1  0  0  0  0
 23 28  1  0  0  0  0
 24 27  1  1  0  0  0
 24 26  1  0  0  0  0
 26 27  1  1  0  0  0
 26 22  1  0  0  0  0
 28 25  1  0  0  0  0
 29 33  1  6  0  0  0
 29 24  1  0  0  0  0
 30 34  1  0  0  0  0
 31 30  1  0  0  0  0
 31 33  1  0  0  0  0
 32 30  2  0  0  0  0
 34 29  1  0  0  0  0
 35 13  1  0  0  0  0
 36 39  1  0  0  0  0
 37 43  1  6  0  0  0
 37 36  1  0  0  0  0
 38 40  1  0  0  0  0
 40 35  1  1  0  0  0
 40 39  1  0  0  0  0
 41 38  1  0  0  0  0
 41 37  1  0  0  0  0
 42 43  1  0  0  0  0
M  END
>  <MODEL>
2

>  <REMARK>
 VINA RESULT:      -7.9      2.903      8.873
  Name = 
  8 active torsions:
  status: ('A' for Active; 'I' for Inactive)
    1  A    between atoms: O_1  and  C_34
    2  A    between atoms: O_1  and  C_35
    3  A    between atoms: C_2  and  C_13
    4  A    between atoms: C_3  and  N_4
    5  A    between atoms: C_3  and  C_12
    6  A    between atoms: N_6  and  C_12
    7  A    between atoms: N_11  and  C_14
    8  A    between atoms: C_19  and  C_37
                            x       y       z     vdW  Elec       q    Type
                         _______ _______ _______ _____ _____    ______ ____

>  <TORSDO>
F 8

$$$$
=
 OpenBabel11052421123D

 43 49  0  0  1  0  0  0  0  0999 V2000
  184.6450  178.4150  145.7350 C   0  0  0  0  0  0  0  0  0  0  0  0
  188.3760  176.0850  143.2140 C   0  0  0  0  0  0  0  0  0  0  0  0
  190.6290  176.0840  144.9170 C   0  0  0  0  0  0  0  0  0  0  0  0
  185.9890  177.2400  144.0580 C   0  0  2  0  0  3  0  0  0  0  0  0
  185.6530  178.4620  146.6070 C   0  0  0  0  0  3  0  0  0  0  0  0
  183.4160  178.9650  146.0720 O   0  0  0  0  0  1  0  0  0  0  0  0
  187.1030  177.2520  144.9270 C   0  0  0  0  0  0  0  0  0  0  0  0
  184.8230  177.7820  144.4190 C   0  0  0  0  0  3  0  0  0  0  0  0
  187.0080  177.8820  146.3000 C   0  0  0  0  0  3  0  0  0  0  0  0
  189.5040  176.6500  145.3640 C   0  0  0  0  0  3  0  0  0  0  0  0
  188.3080  176.6670  144.4980 C   0  0  0  0  0  0  0  0  0  0  0  0
  187.2800  176.0930  142.4070 N   0  0  0  0  0  0  0  0  0  0  0  0
  189.5210  175.5230  142.7950 C   0  0  0  0  0  0  0  0  0  0  0  0
  190.6500  175.5180  143.6350 O   0  0  0  0  0  0  0  0  0  0  0  0
  186.1050  176.6520  142.7990 C   0  0  0  0  0  3  0  0  0  0  0  0
  191.8430  176.0420  145.7440 C   0  0  0  0  0  0  0  0  0  0  0  0
  192.9900  176.4070  145.2510 N   0  0  0  0  0  0  0  0  0  0  0  0
  191.7390  175.6180  147.0310 F   0  0  0  0  0  0  0  0  0  0  0  0
  194.2360  176.4140  145.9600 C   0  0  0  0  0  0  0  0  0  0  0  0
  194.6890  177.4690  146.4810 O   0  0  0  0  0  0  0  0  0  0  0  0
  195.0290  175.1580  146.0470 C   0  0  0  0  0  2  0  0  0  0  0  0
  196.0750  175.1630  145.0320 N   0  0  0  0  0  0  0  0  0  0  0  0
  195.7730  173.5180  143.2070 C   0  0  0  0  0  2  0  0  0  0  0  0
  196.7220  172.7360  145.6080 C   0  0  2  0  0  3  0  0  0  0  0  0
  195.5080  175.8400  143.8650 C   0  0  0  0  0  2  0  0  0  0  0  0
  196.2920  173.7920  144.5920 C   0  0  2  0  0  0  0  0  0  0  0  0
  197.7520  173.4140  144.7130 C   0  0  0  0  0  2  0  0  0  0  0  0
  195.5640  174.9070  142.6590 C   0  0  0  0  0  2  0  0  0  0  0  0
  196.4290  171.3960  145.1130 N   0  0  2  0  0  0  0  0  0  0  0  0
  197.1380  169.3440  146.0050 C   0  0  0  0  0  0  0  0  0  0  0  0
  195.7210  169.4380  146.3780 C   0  0  0  0  0  2  0  0  0  0  0  0
  197.9370  168.5090  146.5560 N   0  0  0  0  0  2  0  0  0  0  0  0
  195.3530  170.8480  145.9500 C   0  0  0  0  0  2  0  0  0  0  0  0
  197.6140  170.5740  145.3470 C   0  0  0  0  0  2  0  0  0  0  0  0
  189.5930  174.9440  141.5260 O   0  0  0  0  0  0  0  0  0  0  0  0
  191.5360  171.7710  140.8610 C   0  0  0  0  0  2  0  0  0  0  0  0
  190.4970  170.8460  141.5090 C   0  0  2  0  0  3  0  0  0  0  0  0
  189.2510  172.7860  142.5540 C   0  0  0  0  0  2  0  0  0  0  0  0
  191.2930  173.2590  141.1420 C   0  0  0  0  0  2  0  0  0  0  0  0
  189.8060  173.5510  141.3440 C   0  0  2  0  0  3  0  0  0  0  0  0
  189.9560  171.4470  142.8080 C   0  0  0  0  0  2  0  0  0  0  0  0
  192.3140  169.6320  142.5820 N   0  0  0  0  0  1  0  0  0  0  0  0
  191.1200  169.4870  141.7670 C   0  0  0  0  0  2  0  0  0  0  0  0
  1  6  1  0  0  0  0
  1  5  1  0  0  0  0
  2 11  1  0  0  0  0
  3 10  2  0  0  0  0
  3 16  1  0  0  0  0
  4 15  1  1  0  0  0
  4  8  1  0  0  0  0
  4  7  1  0  0  0  0
  7  9  1  0  0  0  0
  8  1  2  0  0  0  0
  9  5  2  0  0  0  0
 11  7  2  0  0  0  0
 11 10  1  0  0  0  0
 12 15  2  0  0  0  0
 12  2  1  0  0  0  0
 13  2  2  0  0  0  0
 13 14  1  0  0  0  0
 14  3  1  0  0  0  0
 16 18  1  0  0  0  0
 17 16  2  0  0  0  0
 17 19  1  0  0  0  0
 19 21  1  0  0  0  0
 19 20  2  0  0  0  0
 22 21  1  0  0  0  0
 24 27  1  6  0  0  0
 25 22  1  0  0  0  0
 26 23  1  6  0  0  0
 26 27  1  0  0  0  0
 26 22  1  0  0  0  0
 26 24  1  0  0  0  0
 28 23  1  0  0  0  0
 28 25  1  0  0  0  0
 29 34  1  1  0  0  0
 29 24  1  0  0  0  0
 29 33  1  0  0  0  0
 30 31  1  0  0  0  0
 30 32  2  0  0  0  0
 33 31  1  0  0  0  0
 34 30  1  0  0  0  0
 35 13  1  0  0  0  0
 36 39  1  0  0  0  0
 36 37  1  0  0  0  0
 37 43  1  1  0  0  0
 37 41  1  0  0  0  0
 38 41  1  0  0  0  0
 39 40  1  0  0  0  0
 40 35  1  1  0  0  0
 40 38  1  0  0  0  0
 43 42  1  0  0  0  0
M  END
>  <MODEL>
3

>  <REMARK>
 VINA RESULT:      -7.8      3.068      8.855
  Name = 
  8 active torsions:
  status: ('A' for Active; 'I' for Inactive)
    1  A    between atoms: O_1  and  C_34
    2  A    between atoms: O_1  and  C_35
    3  A    between atoms: C_2  and  C_13
    4  A    between atoms: C_3  and  N_4
    5  A    between atoms: C_3  and  C_12
    6  A    between atoms: N_6  and  C_12
    7  A    between atoms: N_11  and  C_14
    8  A    between atoms: C_19  and  C_37
                            x       y       z     vdW  Elec       q    Type
                         _______ _______ _______ _____ _____    ______ ____

>  <TORSDO>
F 8

$$$$
=
 OpenBabel11052421123D

 43 49  0  0  1  0  0  0  0  0999 V2000
  184.7840  178.2720  145.3160 C   0  0  0  0  0  0  0  0  0  0  0  0
  189.1270  175.6700  145.0500 C   0  0  0  0  0  0  0  0  0  0  0  0
  189.3520  174.7370  142.3940 C   0  0  0  0  0  0  0  0  0  0  0  0
  186.9200  177.1830  145.8150 C   0  0  0  0  0  0  0  0  0  0  0  0
  184.8040  177.8770  144.0430 C   0  0  0  0  0  3  0  0  0  0  0  0
  183.7220  179.0330  145.7860 O   0  0  0  0  0  1  0  0  0  0  0  0
  187.0120  176.7260  144.4820 C   0  0  0  0  0  0  0  0  0  0  0  0
  185.8810  177.9120  146.2290 C   0  0  0  0  0  3  0  0  0  0  0  0
  185.9280  177.0520  143.4760 C   0  0  0  0  0  2  0  0  0  0  0  0
  188.2750  175.4600  142.7170 C   0  0  0  0  0  3  0  0  0  0  0  0
  188.1280  175.9620  144.0970 C   0  0  0  0  0  0  0  0  0  0  0  0
  189.0030  176.1290  146.3250 N   0  0  0  0  0  0  0  0  0  0  0  0
  190.1980  174.9420  144.6930 C   0  0  0  0  0  0  0  0  0  0  0  0
  190.3200  174.4710  143.3730 O   0  0  0  0  0  0  0  0  0  0  0  0
  187.9340  176.8690  146.7200 C   0  0  0  0  0  3  0  0  0  0  0  0
  189.5420  174.2170  141.0320 C   0  0  0  0  0  0  0  0  0  0  0  0
  188.5220  173.8250  140.3270 N   0  0  0  0  0  0  0  0  0  0  0  0
  190.8030  174.1570  140.5300 F   0  0  0  0  0  0  0  0  0  0  0  0
  188.5830  173.3050  138.9930 C   0  0  0  0  0  0  0  0  0  0  0  0
  188.2750  174.0150  137.9980 O   0  0  0  0  0  0  0  0  0  0  0  0
  188.9800  171.8870  138.7820 C   0  0  0  0  0  2  0  0  0  0  0  0
  190.2010  171.8280  137.9890 N   0  0  0  0  0  0  0  0  0  0  0  0
  191.3050  169.6140  137.9250 C   0  0  0  0  0  2  0  0  0  0  0  0
  191.5920  171.2220  140.0720 C   0  0  2  0  0  3  0  0  0  0  0  0
  189.8450  171.1510  136.7420 C   0  0  0  0  0  2  0  0  0  0  0  0
  191.1310  170.9220  138.6470 C   0  0  2  0  0  0  0  0  0  0  0  0
  192.4640  171.5980  138.8820 C   0  0  0  0  0  2  0  0  0  0  0  0
  190.7190  169.9120  136.5680 C   0  0  0  0  0  2  0  0  0  0  0  0
  192.1040  170.0160  140.7120 N   0  0  2  0  0  0  0  0  0  0  0  0
  193.7340  169.8600  142.3940 C   0  0  0  0  0  0  0  0  0  0  0  0
  192.4650  169.6000  143.0840 C   0  0  0  0  0  2  0  0  0  0  0  0
  194.8110  170.1450  143.0250 N   0  0  0  0  0  2  0  0  0  0  0  0
  191.4310  169.8920  142.0120 C   0  0  0  0  0  2  0  0  0  0  0  0
  193.5230  170.2350  140.9840 C   0  0  0  0  0  2  0  0  0  0  0  0
  191.1900  174.6520  145.6330 O   0  0  0  0  0  0  0  0  0  0  0  0
  194.8570  175.4730  146.0350 C   0  0  0  0  0  2  0  0  0  0  0  0
  195.3420  174.3560  145.1010 C   0  0  2  0  0  3  0  0  0  0  0  0
  193.0680  173.2470  145.0570 C   0  0  0  0  0  2  0  0  0  0  0  0
  193.3740  175.3590  146.4100 C   0  0  0  0  0  2  0  0  0  0  0  0
  192.5720  174.6780  145.3010 C   0  0  2  0  0  3  0  0  0  0  0  0
  194.5650  173.0600  145.3380 C   0  0  0  0  0  2  0  0  0  0  0  0
  197.0620  173.4670  146.5770 N   0  0  0  0  0  1  0  0  0  0  0  0
  196.8290  174.1330  145.3070 C   0  0  0  0  0  2  0  0  0  0  0  0
  1  6  1  0  0  0  0
  1  8  1  0  0  0  0
  2 12  1  0  0  0  0
  3 10  2  0  0  0  0
  3 14  1  0  0  0  0
  4  8  2  0  0  0  0
  4 15  1  0  0  0  0
  5  1  2  0  0  0  0
  7  4  1  0  0  0  0
  9  5  1  0  0  0  0
  9  7  1  0  0  0  0
 10 11  1  0  0  0  0
 11  7  2  0  0  0  0
 11  2  1  0  0  0  0
 12 15  2  0  0  0  0
 13  2  2  0  0  0  0
 13 35  1  0  0  0  0
 14 13  1  0  0  0  0
 16  3  1  0  0  0  0
 17 16  2  0  0  0  0
 18 16  1  0  0  0  0
 19 17  1  0  0  0  0
 20 19  2  0  0  0  0
 21 19  1  0  0  0  0
 22 26  1  0  0  0  0
 22 21  1  0  0  0  0
 24 27  1  6  0  0  0
 24 29  1  0  0  0  0
 25 22  1  0  0  0  0
 26 23  1  6  0  0  0
 26 27  1  0  0  0  0
 26 24  1  0  0  0  0
 28 25  1  0  0  0  0
 28 23  1  0  0  0  0
 29 34  1  1  0  0  0
 29 33  1  0  0  0  0
 30 32  2  0  0  0  0
 30 31  1  0  0  0  0
 33 31  1  0  0  0  0
 34 30  1  0  0  0  0
 36 39  1  0  0  0  0
 37 43  1  1  0  0  0
 37 41  1  0  0  0  0
 37 36  1  0  0  0  0
 38 40  1  0  0  0  0
 38 41  1  0  0  0  0
 40 35  1  1  0  0  0
 40 39  1  0  0  0  0
 43 42  1  0  0  0  0
M  END
>  <MODEL>
4

>  <REMARK>
 VINA RESULT:      -7.8      2.332      7.946
  Name = 
  8 active torsions:
  status: ('A' for Active; 'I' for Inactive)
    1  A    between atoms: O_1  and  C_34
    2  A    between atoms: O_1  and  C_35
    3  A    between atoms: C_2  and  C_13
    4  A    between atoms: C_3  and  N_4
    5  A    between atoms: C_3  and  C_12
    6  A    between atoms: N_6  and  C_12
    7  A    between atoms: N_11  and  C_14
    8  A    between atoms: C_19  and  C_37
                            x       y       z     vdW  Elec       q    Type
                         _______ _______ _______ _____ _____    ______ ____

>  <TORSDO>
F 8

$$$$
=
 OpenBabel11052421123D

 43 49  0  0  1  0  0  0  0  0999 V2000
  184.8320  178.3240  145.3620 C   0  0  0  0  0  0  0  0  0  0  0  0
  189.0500  175.5230  145.1010 C   0  0  0  0  0  0  0  0  0  0  0  0
  189.1810  174.4960  142.4740 C   0  0  0  0  0  0  0  0  0  0  0  0
  186.9280  177.1570  145.8570 C   0  0  0  0  0  0  0  0  0  0  0  0
  184.8080  177.8870  144.1020 C   0  0  0  0  0  3  0  0  0  0  0  0
  183.8140  179.1460  145.8260 O   0  0  0  0  0  1  0  0  0  0  0  0
  186.9720  176.6540  144.5380 C   0  0  0  0  0  0  0  0  0  0  0  0
  185.9300  177.9450  146.2650 C   0  0  0  0  0  3  0  0  0  0  0  0
  185.8840  176.9950  143.5420 C   0  0  0  0  0  2  0  0  0  0  0  0
  188.1430  175.2760  142.7920 C   0  0  0  0  0  3  0  0  0  0  0  0
  188.0460  175.8280  144.1580 C   0  0  0  0  0  0  0  0  0  0  0  0
  188.9710  176.0290  146.3630 N   0  0  0  0  0  0  0  0  0  0  0  0
  190.0810  174.7370  144.7490 C   0  0  0  0  0  0  0  0  0  0  0  0
  190.1550  174.2190  143.4430 O   0  0  0  0  0  0  0  0  0  0  0  0
  187.9440  176.8270  146.7530 C   0  0  0  0  0  3  0  0  0  0  0  0
  189.3200  173.9240  141.1270 C   0  0  0  0  0  0  0  0  0  0  0  0
  189.7780  172.7160  140.9670 N   0  0  0  0  0  0  0  0  0  0  0  0
  188.9600  174.6820  140.0590 F   0  0  0  0  0  0  0  0  0  0  0  0
  189.9530  172.0530  139.7080 C   0  0  0  0  0  0  0  0  0  0  0  0
  188.9680  171.7590  138.9790 O   0  0  0  0  0  0  0  0  0  0  0  0
  191.3230  171.6700  139.2740 C   0  0  0  0  0  2  0  0  0  0  0  0
  191.6710  172.3810  138.0500 N   0  0  0  0  0  0  0  0  0  0  0  0
  194.0360  172.1700  137.3490 C   0  0  0  0  0  2  0  0  0  0  0  0
  193.3420  173.8730  139.3250 C   0  0  2  0  0  3  0  0  0  0  0  0
  191.7720  171.3640  137.0020 C   0  0  0  0  0  2  0  0  0  0  0  0
  193.0240  172.9000  138.1900 C   0  0  2  0  0  0  0  0  0  0  0  0
  193.0590  174.3880  137.9200 C   0  0  0  0  0  2  0  0  0  0  0  0
  193.1650  171.4110  136.3800 C   0  0  0  0  0  2  0  0  0  0  0  0
  194.7750  173.8990  139.5930 N   0  0  2  0  0  0  0  0  0  0  0  0
  195.9820  175.5050  140.8080 C   0  0  0  0  0  0  0  0  0  0  0  0
  195.9100  174.3420  141.7010 C   0  0  0  0  0  2  0  0  0  0  0  0
  196.3090  176.6700  141.2250 N   0  0  0  0  0  2  0  0  0  0  0  0
  194.9720  173.4050  140.9620 C   0  0  0  0  0  2  0  0  0  0  0  0
  195.1960  175.2990  139.5780 C   0  0  0  0  0  2  0  0  0  0  0  0
  191.0780  174.4330  145.6790 O   0  0  0  0  0  0  0  0  0  0  0  0
  194.6950  175.4280  146.1360 C   0  0  0  0  0  2  0  0  0  0  0  0
  195.2440  174.3570  145.1840 C   0  0  2  0  0  3  0  0  0  0  0  0
  193.0290  173.1360  145.0940 C   0  0  0  0  0  2  0  0  0  0  0  0
  193.2170  175.2320  146.4930 C   0  0  0  0  0  2  0  0  0  0  0  0
  192.4590  174.5360  145.3620 C   0  0  2  0  0  3  0  0  0  0  0  0
  194.5310  173.0190  145.3860 C   0  0  0  0  0  2  0  0  0  0  0  0
  197.0180  172.9510  146.0790 N   0  0  0  0  0  1  0  0  0  0  0  0
  196.7380  174.2040  145.4010 C   0  0  0  0  0  2  0  0  0  0  0  0
  1  6  1  0  0  0  0
  1  8  1  0  0  0  0
  2 12  1  0  0  0  0
  3 10  2  0  0  0  0
  3 14  1  0  0  0  0
  4  8  2  0  0  0  0
  4 15  1  0  0  0  0
  5  1  2  0  0  0  0
  7  4  1  0  0  0  0
  9  5  1  0  0  0  0
  9  7  1  0  0  0  0
 10 11  1  0  0  0  0
 11  7  2  0  0  0  0
 11  2  1  0  0  0  0
 12 15  2  0  0  0  0
 13  2  2  0  0  0  0
 13 35  1  0  0  0  0
 14 13  1  0  0  0  0
 16  3  1  0  0  0  0
 17 16  2  0  0  0  0
 18 16  1  0  0  0  0
 19 17  1  0  0  0  0
 20 19  2  0  0  0  0
 21 19  1  0  0  0  0
 22 26  1  0  0  0  0
 22 21  1  0  0  0  0
 24 27  1  6  0  0  0
 24 29  1  0  0  0  0
 25 22  1  0  0  0  0
 26 23  1  6  0  0  0
 26 24  1  0  0  0  0
 27 26  1  0  0  0  0
 28 25  1  0  0  0  0
 28 23  1  0  0  0  0
 29 34  1  1  0  0  0
 29 33  1  0  0  0  0
 30 32  2  0  0  0  0
 30 31  1  0  0  0  0
 33 31  1  0  0  0  0
 34 30  1  0  0  0  0
 36 39  1  0  0  0  0
 37 41  1  0  0  0  0
 37 43  1  1  0  0  0
 37 36  1  0  0  0  0
 38 40  1  0  0  0  0
 38 41  1  0  0  0  0
 40 35  1  1  0  0  0
 40 39  1  0  0  0  0
 43 42  1  0  0  0  0
M  END
>  <MODEL>
5

>  <REMARK>
 VINA RESULT:      -7.6      2.659      8.150
  Name = 
  8 active torsions:
  status: ('A' for Active; 'I' for Inactive)
    1  A    between atoms: O_1  and  C_34
    2  A    between atoms: O_1  and  C_35
    3  A    between atoms: C_2  and  C_13
    4  A    between atoms: C_3  and  N_4
    5  A    between atoms: C_3  and  C_12
    6  A    between atoms: N_6  and  C_12
    7  A    between atoms: N_11  and  C_14
    8  A    between atoms: C_19  and  C_37
                            x       y       z     vdW  Elec       q    Type
                         _______ _______ _______ _____ _____    ______ ____

>  <TORSDO>
F 8

$$$$
=
 OpenBabel11052421123D

 43 49  0  0  1  0  0  0  0  0999 V2000
  186.2520  178.6770  144.4460 C   0  0  0  0  0  0  0  0  0  0  0  0
  188.4300  175.2470  141.4120 C   0  0  0  0  0  0  0  0  0  0  0  0
  189.8970  173.5050  143.0800 C   0  0  0  0  0  0  0  0  0  0  0  0
  187.0000  177.3640  142.5180 C   0  0  2  0  0  3  0  0  0  0  0  0
  186.9130  177.9080  145.3110 C   0  0  0  0  0  3  0  0  0  0  0  0
  185.5100  179.7550  144.9080 O   0  0  0  0  0  1  0  0  0  0  0  0
  187.7280  176.5050  143.3720 C   0  0  0  0  0  0  0  0  0  0  0  0
  186.2990  178.3910  143.0030 C   0  0  0  0  0  3  0  0  0  0  0  0
  187.7340  176.7250  144.8700 C   0  0  0  0  0  3  0  0  0  0  0  0
  189.2260  174.5070  143.6550 C   0  0  0  0  0  3  0  0  0  0  0  0
  188.4500  175.4360  142.8110 C   0  0  0  0  0  0  0  0  0  0  0  0
  187.7160  176.0970  140.6240 N   0  0  0  0  0  0  0  0  0  0  0  0
  189.1140  174.2300  140.8660 C   0  0  0  0  0  0  0  0  0  0  0  0
  189.8500  173.3560  141.6870 O   0  0  0  0  0  0  0  0  0  0  0  0
  187.0120  177.1360  141.1430 C   0  0  0  0  0  3  0  0  0  0  0  0
  190.6840  172.5550  143.8810 C   0  0  0  0  0  0  0  0  0  0  0  0
  191.8770  172.2020  143.5020 N   0  0  0  0  0  0  0  0  0  0  0  0
  190.1380  172.0580  145.0210 F   0  0  0  0  0  0  0  0  0  0  0  0
  192.7360  171.2910  144.1990 C   0  0  0  0  0  0  0  0  0  0  0  0
  192.7060  170.0530  143.9660 O   0  0  0  0  0  0  0  0  0  0  0  0
  193.6530  171.8140  145.2470 C   0  0  0  0  0  2  0  0  0  0  0  0
  194.8180  172.4270  144.6230 N   0  0  0  0  0  0  0  0  0  0  0  0
  195.6780  174.4490  145.7630 C   0  0  0  0  0  2  0  0  0  0  0  0
  193.5040  174.5970  144.1710 C   0  0  2  0  0  3  0  0  0  0  0  0
  195.9670  172.0590  145.4520 C   0  0  0  0  0  2  0  0  0  0  0  0
  194.7090  173.8720  144.7680 C   0  0  2  0  0  0  0  0  0  0  0  0
  194.8310  174.5570  143.4250 C   0  0  0  0  0  2  0  0  0  0  0  0
  196.6640  173.3230  145.9470 C   0  0  0  0  0  2  0  0  0  0  0  0
  193.3220  175.8980  144.8050 N   0  0  2  0  0  0  0  0  0  0  0  0
  191.6820  177.5110  144.3360 C   0  0  0  0  0  0  0  0  0  0  0  0
  191.2580  176.9130  145.6070 C   0  0  0  0  0  2  0  0  0  0  0  0
  190.8960  178.2210  143.6170 N   0  0  0  0  0  2  0  0  0  0  0  0
  192.2300  175.7590  145.7790 C   0  0  0  0  0  2  0  0  0  0  0  0
  192.8600  176.8250  143.7750 C   0  0  0  0  0  2  0  0  0  0  0  0
  189.0980  174.0380  139.4820 O   0  0  0  0  0  0  0  0  0  0  0  0
  189.7660  170.5420  138.2140 C   0  0  0  0  0  2  0  0  0  0  0  0
  190.8380  170.9740  137.2050 C   0  0  2  0  0  3  0  0  0  0  0  0
  190.2480  173.4220  137.4500 C   0  0  0  0  0  2  0  0  0  0  0  0
  188.9740  171.7140  138.8080 C   0  0  0  0  0  2  0  0  0  0  0  0
  189.8200  172.9860  138.8580 C   0  0  2  0  0  3  0  0  0  0  0  0
  190.4270  172.2530  136.4730 C   0  0  0  0  0  2  0  0  0  0  0  0
  191.0640  168.5690  136.9030 N   0  0  0  0  0  1  0  0  0  0  0  0
  191.0870  169.8490  136.2170 C   0  0  0  0  0  2  0  0  0  0  0  0
  1  6  1  0  0  0  0
  1  5  1  0  0  0  0
  2 11  1  0  0  0  0
  3 10  2  0  0  0  0
  3 16  1  0  0  0  0
  4 15  1  1  0  0  0
  4  8  1  0  0  0  0
  4  7  1  0  0  0  0
  7  9  1  0  0  0  0
  8  1  2  0  0  0  0
  9  5  2  0  0  0  0
 11  7  2  0  0  0  0
 11 10  1  0  0  0  0
 12 15  2  0  0  0  0
 12  2  1  0  0  0  0
 13  2  2  0  0  0  0
 13 14  1  0  0  0  0
 14  3  1  0  0  0  0
 16 18  1  0  0  0  0
 17 16  2  0  0  0  0
 17 19  1  0  0  0  0
 19 21  1  0  0  0  0
 20 19  2  0  0  0  0
 22 26  1  0  0  0  0
 22 21  1  0  0  0  0
 22 25  1  0  0  0  0
 23 28  1  0  0  0  0
 24 27  1  6  0  0  0
 24 26  1  0  0  0  0
 24 29  1  0  0  0  0
 25 28  1  0  0  0  0
 26 27  1  6  0  0  0
 26 23  1  0  0  0  0
 29 34  1  6  0  0  0
 29 33  1  0  0  0  0
 30 31  1  0  0  0  0
 31 33  1  0  0  0  0
 32 30  2  0  0  0  0
 34 30  1  0  0  0  0
 35 13  1  0  0  0  0
 36 39  1  0  0  0  0
 37 43  1  6  0  0  0
 37 36  1  0  0  0  0
 38 40  1  0  0  0  0
 39 40  1  0  0  0  0
 40 35  1  6  0  0  0
 41 37  1  0  0  0  0
 41 38  1  0  0  0  0
 43 42  1  0  0  0  0
M  END
>  <MODEL>
6

>  <REMARK>
 VINA RESULT:      -7.5      2.369      8.224
  Name = 
  8 active torsions:
  status: ('A' for Active; 'I' for Inactive)
    1  A    between atoms: O_1  and  C_34
    2  A    between atoms: O_1  and  C_35
    3  A    between atoms: C_2  and  C_13
    4  A    between atoms: C_3  and  N_4
    5  A    between atoms: C_3  and  C_12
    6  A    between atoms: N_6  and  C_12
    7  A    between atoms: N_11  and  C_14
    8  A    between atoms: C_19  and  C_37
                            x       y       z     vdW  Elec       q    Type
                         _______ _______ _______ _____ _____    ______ ____

>  <TORSDO>
F 8

$$$$
=
 OpenBabel11052421123D

 43 49  0  0  1  0  0  0  0  0999 V2000
  185.2020  178.4150  144.3160 C   0  0  0  0  0  0  0  0  0  0  0  0
  189.3530  175.6250  145.1470 C   0  0  0  0  0  0  0  0  0  0  0  0
  189.5010  173.7450  143.0460 C   0  0  0  0  0  0  0  0  0  0  0  0
  187.2590  177.4570  145.2360 C   0  0  0  0  0  0  0  0  0  0  0  0
  185.1880  177.5670  143.2870 C   0  0  0  0  0  3  0  0  0  0  0  0
  184.1970  179.3650  144.4400 O   0  0  0  0  0  1  0  0  0  0  0  0
  187.3130  176.5250  144.1760 C   0  0  0  0  0  0  0  0  0  0  0  0
  186.2750  178.3550  145.3210 C   0  0  0  0  0  3  0  0  0  0  0  0
  186.2500  176.5170  143.0970 C   0  0  0  0  0  2  0  0  0  0  0  0
  188.4780  174.6050  143.0480 C   0  0  0  0  0  3  0  0  0  0  0  0
  188.3720  175.6000  144.1330 C   0  0  0  0  0  0  0  0  0  0  0  0
  189.2660  176.5400  146.1520 N   0  0  0  0  0  0  0  0  0  0  0  0
  190.3690  174.7480  145.1150 C   0  0  0  0  0  0  0  0  0  0  0  0
  190.4520  173.8060  144.0740 O   0  0  0  0  0  0  0  0  0  0  0  0
  188.2520  177.4420  146.2150 C   0  0  0  0  0  3  0  0  0  0  0  0
  189.6490  172.7370  141.9860 C   0  0  0  0  0  0  0  0  0  0  0  0
  189.9820  173.0910  140.7800 N   0  0  0  0  0  0  0  0  0  0  0  0
  189.4310  171.4320  142.2960 F   0  0  0  0  0  0  0  0  0  0  0  0
  190.1590  172.2010  139.6700 C   0  0  0  0  0  0  0  0  0  0  0  0
  189.2440  172.0200  138.8230 O   0  0  0  0  0  0  0  0  0  0  0  0
  191.4340  171.4460  139.5400 C   0  0  0  0  0  2  0  0  0  0  0  0
  192.5610  172.3290  139.8140 N   0  0  0  0  0  0  0  0  0  0  0  0
  194.7370  171.1890  140.1190 C   0  0  0  0  0  2  0  0  0  0  0  0
  192.9270  171.2370  142.1190 C   0  0  2  0  0  3  0  0  0  0  0  0
  193.3250  172.4140  138.5690 C   0  0  0  0  0  2  0  0  0  0  0  0
  193.4530  171.6560  140.7480 C   0  0  2  0  0  0  0  0  0  0  0  0
  193.7210  172.5270  141.9560 C   0  0  0  0  0  2  0  0  0  0  0  0
  194.7590  171.9540  138.8190 C   0  0  0  0  0  2  0  0  0  0  0  0
  193.7700  170.1960  142.6970 N   0  0  2  0  0  0  0  0  0  0  0  0
  194.3720  169.9160  144.9480 C   0  0  0  0  0  0  0  0  0  0  0  0
  193.3740  168.8690  144.7000 C   0  0  0  0  0  2  0  0  0  0  0  0
  194.7190  170.2650  146.1300 N   0  0  0  0  0  2  0  0  0  0  0  0
  192.8780  169.1990  143.3030 C   0  0  0  0  0  2  0  0  0  0  0  0
  194.5330  170.8050  143.7840 C   0  0  0  0  0  2  0  0  0  0  0  0
  191.3430  174.7690  146.1170 O   0  0  0  0  0  0  0  0  0  0  0  0
  195.0070  174.1660  145.4110 C   0  0  0  0  0  2  0  0  0  0  0  0
  195.2410  175.5390  144.7680 C   0  0  2  0  0  3  0  0  0  0  0  0
  192.7610  176.0210  144.6160 C   0  0  0  0  0  2  0  0  0  0  0  0
  193.5240  173.8340  145.6260 C   0  0  0  0  0  2  0  0  0  0  0  0
  192.6970  175.1010  145.8430 C   0  0  2  0  0  3  0  0  0  0  0  0
  194.0840  175.9230  143.8440 C   0  0  0  0  0  2  0  0  0  0  0  0
  196.7590  176.8000  143.3430 N   0  0  0  0  0  1  0  0  0  0  0  0
  196.5520  175.5240  144.0040 C   0  0  0  0  0  2  0  0  0  0  0  0
  1  6  1  0  0  0  0
  1  8  1  0  0  0  0
  2 12  1  0  0  0  0
  3 10  2  0  0  0  0
  3 14  1  0  0  0  0
  4  8  2  0  0  0  0
  4 15  1  0  0  0  0
  5  1  2  0  0  0  0
  7  4  1  0  0  0  0
  9  5  1  0  0  0  0
  9  7  1  0  0  0  0
 10 11  1  0  0  0  0
 11  7  2  0  0  0  0
 11  2  1  0  0  0  0
 12 15  2  0  0  0  0
 13  2  2  0  0  0  0
 13 35  1  0  0  0  0
 14 13  1  0  0  0  0
 16 18  1  0  0  0  0
 16  3  1  0  0  0  0
 17 16  2  0  0  0  0
 19 17  1  0  0  0  0
 20 19  2  0  0  0  0
 21 19  1  0  0  0  0
 21 22  1  0  0  0  0
 22 26  1  0  0  0  0
 24 27  1  1  0  0  0
 24 29  1  0  0  0  0
 25 28  1  0  0  0  0
 25 22  1  0  0  0  0
 26 23  1  6  0  0  0
 26 27  1  0  0  0  0
 26 24  1  0  0  0  0
 28 23  1  0  0  0  0
 29 33  1  1  0  0  0
 29 34  1  0  0  0  0
 30 32  2  0  0  0  0
 31 30  1  0  0  0  0
 33 31  1  0  0  0  0
 34 30  1  0  0  0  0
 36 39  1  0  0  0  0
 37 43  1  6  0  0  0
 37 36  1  0  0  0  0
 38 40  1  0  0  0  0
 39 40  1  0  0  0  0
 40 35  1  6  0  0  0
 41 38  1  0  0  0  0
 41 37  1  0  0  0  0
 42 43  1  0  0  0  0
M  END
>  <MODEL>
7

>  <REMARK>
 VINA RESULT:      -7.5      2.690      7.883
  Name = 
  8 active torsions:
  status: ('A' for Active; 'I' for Inactive)
    1  A    between atoms: O_1  and  C_34
    2  A    between atoms: O_1  and  C_35
    3  A    between atoms: C_2  and  C_13
    4  A    between atoms: C_3  and  N_4
    5  A    between atoms: C_3  and  C_12
    6  A    between atoms: N_6  and  C_12
    7  A    between atoms: N_11  and  C_14
    8  A    between atoms: C_19  and  C_37
                            x       y       z     vdW  Elec       q    Type
                         _______ _______ _______ _____ _____    ______ ____

>  <TORSDO>
F 8

$$$$
=
 OpenBabel11052421123D

 43 49  0  0  1  0  0  0  0  0999 V2000
  185.1500  178.4560  144.1160 C   0  0  0  0  0  0  0  0  0  0  0  0
  189.2980  175.7180  145.1190 C   0  0  0  0  0  0  0  0  0  0  0  0
  189.4780  173.7500  143.1020 C   0  0  0  0  0  0  0  0  0  0  0  0
  187.1980  177.5450  145.1030 C   0  0  0  0  0  0  0  0  0  0  0  0
  185.1520  177.5650  143.1240 C   0  0  0  0  0  3  0  0  0  0  0  0
  184.1410  179.4070  144.1870 O   0  0  0  0  0  1  0  0  0  0  0  0
  187.2680  176.5690  144.0840 C   0  0  0  0  0  0  0  0  0  0  0  0
  186.2100  178.4420  145.1360 C   0  0  0  0  0  3  0  0  0  0  0  0
  186.2190  176.5110  142.9930 C   0  0  0  0  0  2  0  0  0  0  0  0
  188.4530  174.6060  143.0540 C   0  0  0  0  0  3  0  0  0  0  0  0
  188.3300  175.6470  144.0940 C   0  0  0  0  0  0  0  0  0  0  0  0
  189.1960  176.6740  146.0820 N   0  0  0  0  0  0  0  0  0  0  0  0
  190.3170  174.8440  145.1370 C   0  0  0  0  0  0  0  0  0  0  0  0
  190.4160  173.8580  144.1380 O   0  0  0  0  0  0  0  0  0  0  0  0
  188.1790  177.5750  146.0930 C   0  0  0  0  0  3  0  0  0  0  0  0
  189.6420  172.6980  142.0880 C   0  0  0  0  0  0  0  0  0  0  0  0
  190.8020  172.1430  141.8940 N   0  0  0  0  0  0  0  0  0  0  0  0
  188.5560  172.3200  141.3630 F   0  0  0  0  0  0  0  0  0  0  0  0
  191.0810  171.1090  140.9410 C   0  0  0  0  0  0  0  0  0  0  0  0
  190.9650  169.8910  141.2420 O   0  0  0  0  0  0  0  0  0  0  0  0
  191.5550  171.4830  139.5810 C   0  0  0  0  0  2  0  0  0  0  0  0
  190.4140  171.7720  138.7220 N   0  0  0  0  0  0  0  0  0  0  0  0
  190.8780  171.6760  136.2920 C   0  0  0  0  0  2  0  0  0  0  0  0
  191.6050  173.8350  137.7390 C   0  0  2  0  0  3  0  0  0  0  0  0
  189.9610  170.4830  138.1980 C   0  0  0  0  0  2  0  0  0  0  0  0
  190.8920  172.4970  137.5530 C   0  0  2  0  0  0  0  0  0  0  0  0
  190.1270  173.7900  137.3730 C   0  0  0  0  0  2  0  0  0  0  0  0
  189.9960  170.5130  136.6720 C   0  0  0  0  0  2  0  0  0  0  0  0
  192.4050  174.1590  136.5640 N   0  0  2  0  0  0  0  0  0  0  0  0
  193.1340  176.2750  135.8570 C   0  0  0  0  0  0  0  0  0  0  0  0
  194.3350  175.6370  136.4090 C   0  0  0  0  0  2  0  0  0  0  0  0
  193.0670  177.5350  135.6380 N   0  0  0  0  0  2  0  0  0  0  0  0
  193.7880  174.3580  137.0190 C   0  0  0  0  0  2  0  0  0  0  0  0
  191.9330  175.4440  136.0540 C   0  0  0  0  0  2  0  0  0  0  0  0
  191.2780  174.9110  146.1490 O   0  0  0  0  0  0  0  0  0  0  0  0
  194.9150  174.2120  145.3980 C   0  0  0  0  0  2  0  0  0  0  0  0
  195.1900  175.5960  144.7940 C   0  0  2  0  0  3  0  0  0  0  0  0
  192.7260  176.1610  144.6750 C   0  0  0  0  0  2  0  0  0  0  0  0
  193.4250  173.9210  145.6140 C   0  0  0  0  0  2  0  0  0  0  0  0
  192.6400  175.2070  145.8750 C   0  0  2  0  0  3  0  0  0  0  0  0
  194.0390  176.0440  143.8910 C   0  0  0  0  0  2  0  0  0  0  0  0
  196.6550  176.7870  143.2580 N   0  0  0  0  0  1  0  0  0  0  0  0
  196.4950  175.5610  144.0200 C   0  0  0  0  0  2  0  0  0  0  0  0
  1  6  1  0  0  0  0
  1  8  1  0  0  0  0
  2 13  2  0  0  0  0
  2 12  1  0  0  0  0
  3 14  1  0  0  0  0
  4  8  2  0  0  0  0
  4 15  1  0  0  0  0
  5  1  2  0  0  0  0
  7 11  2  0  0  0  0
  7  4  1  0  0  0  0
  9  5  1  0  0  0  0
  9  7  1  0  0  0  0
 10  3  2  0  0  0  0
 10 11  1  0  0  0  0
 11  2  1  0  0  0  0
 12 15  2  0  0  0  0
 13 35  1  0  0  0  0
 14 13  1  0  0  0  0
 16  3  1  0  0  0  0
 17 16  2  0  0  0  0
 18 16  1  0  0  0  0
 19 20  2  0  0  0  0
 19 17  1  0  0  0  0
 21 19  1  0  0  0  0
 22 21  1  0  0  0  0
 23 28  1  0  0  0  0
 24 27  1  6  0  0  0
 25 22  1  0  0  0  0
 26 23  1  6  0  0  0
 26 24  1  0  0  0  0
 26 22  1  0  0  0  0
 27 26  1  0  0  0  0
 28 25  1  0  0  0  0
 29 34  1  1  0  0  0
 29 33  1  0  0  0  0
 29 24  1  0  0  0  0
 30 34  1  0  0  0  0
 30 31  1  0  0  0  0
 31 33  1  0  0  0  0
 32 30  2  0  0  0  0
 36 39  1  0  0  0  0
 37 43  1  6  0  0  0
 37 36  1  0  0  0  0
 38 40  1  0  0  0  0
 39 40  1  0  0  0  0
 40 35  1  6  0  0  0
 41 38  1  0  0  0  0
 41 37  1  0  0  0  0
 42 43  1  0  0  0  0
M  END
>  <MODEL>
8

>  <REMARK>
 VINA RESULT:      -7.2      2.845      8.332
  Name = 
  8 active torsions:
  status: ('A' for Active; 'I' for Inactive)
    1  A    between atoms: O_1  and  C_34
    2  A    between atoms: O_1  and  C_35
    3  A    between atoms: C_2  and  C_13
    4  A    between atoms: C_3  and  N_4
    5  A    between atoms: C_3  and  C_12
    6  A    between atoms: N_6  and  C_12
    7  A    between atoms: N_11  and  C_14
    8  A    between atoms: C_19  and  C_37
                            x       y       z     vdW  Elec       q    Type
                         _______ _______ _______ _____ _____    ______ ____

>  <TORSDO>
F 8

$$$$
=
 OpenBabel11052421123D

 43 49  0  0  1  0  0  0  0  0999 V2000
  185.8530  178.1800  145.6110 C   0  0  0  0  0  0  0  0  0  0  0  0
  188.6570  174.9420  142.8990 C   0  0  0  0  0  0  0  0  0  0  0  0
  191.1910  174.8290  144.1380 C   0  0  0  0  0  0  0  0  0  0  0  0
  186.6610  176.5740  143.9480 C   0  0  1  0  0  3  0  0  0  0  0  0
  187.0150  178.1920  146.2640 C   0  0  0  0  0  3  0  0  0  0  0  0
  184.7990  178.9630  146.0640 O   0  0  0  0  0  1  0  0  0  0  0  0
  187.9220  176.5340  144.5840 C   0  0  0  0  0  0  0  0  0  0  0  0
  185.6740  177.3420  144.4150 C   0  0  0  0  0  3  0  0  0  0  0  0
  188.1920  177.3640  145.8220 C   0  0  0  0  0  3  0  0  0  0  0  0
  190.2640  175.6270  144.6770 C   0  0  0  0  0  3  0  0  0  0  0  0
  188.9290  175.7090  144.0520 C   0  0  0  0  0  0  0  0  0  0  0  0
  187.4280  175.0080  142.3160 N   0  0  0  0  0  0  0  0  0  0  0  0
  189.6100  174.1490  142.3840 C   0  0  0  0  0  0  0  0  0  0  0  0
  190.8770  174.0860  142.9920 O   0  0  0  0  0  0  0  0  0  0  0  0
  186.4410  175.7980  142.8110 C   0  0  0  0  0  3  0  0  0  0  0  0
  192.5350  174.7150  144.7250 C   0  0  0  0  0  0  0  0  0  0  0  0
  193.5900  174.9920  144.0170 N   0  0  0  0  0  0  0  0  0  0  0  0
  192.6460  174.3170  146.0200 F   0  0  0  0  0  0  0  0  0  0  0  0
  194.9450  174.9220  144.4810 C   0  0  0  0  0  0  0  0  0  0  0  0
  195.4810  175.8880  145.0870 O   0  0  0  0  0  0  0  0  0  0  0  0
  195.7450  173.6990  144.2040 C   0  0  0  0  0  2  0  0  0  0  0  0
  195.5050  172.7060  145.2430 N   0  0  0  0  0  0  0  0  0  0  0  0
  196.1840  170.3970  144.6660 C   0  0  0  0  0  2  0  0  0  0  0  0
  193.8750  171.4200  143.7170 C   0  0  2  0  0  3  0  0  0  0  0  0
  196.8080  172.4240  145.8470 C   0  0  0  0  0  2  0  0  0  0  0  0
  195.1180  171.4570  144.6030 C   0  0  2  0  0  0  0  0  0  0  0  0
  193.8080  170.9490  145.1640 C   0  0  0  0  0  2  0  0  0  0  0  0
  197.1140  170.9340  145.7240 C   0  0  0  0  0  2  0  0  0  0  0  0
  193.9190  170.2750  142.8150 N   0  0  2  0  0  0  0  0  0  0  0  0
  192.1170  169.2010  141.7620 C   0  0  0  0  0  0  0  0  0  0  0  0
  192.7600  169.9750  140.6940 C   0  0  0  0  0  2  0  0  0  0  0  0
  190.9380  168.7150  141.6420 N   0  0  0  0  0  2  0  0  0  0  0  0
  193.7950  170.7930  141.4460 C   0  0  0  0  0  2  0  0  0  0  0  0
  192.7300  169.4670  143.0760 C   0  0  0  0  0  2  0  0  0  0  0  0
  189.3450  173.3870  141.2420 O   0  0  0  0  0  0  0  0  0  0  0  0
  191.3110  173.2110  138.0200 C   0  0  0  0  0  2  0  0  0  0  0  0
  190.3440  174.1030  137.2300 C   0  0  2  0  0  3  0  0  0  0  0  0
  188.5710  173.9740  139.0320 C   0  0  0  0  0  2  0  0  0  0  0  0
  190.7590  172.7580  139.3780 C   0  0  0  0  0  2  0  0  0  0  0  0
  189.7850  173.7870  139.9520 C   0  0  2  0  0  3  0  0  0  0  0  0
  188.8880  173.7560  137.5460 C   0  0  0  0  0  2  0  0  0  0  0  0
  189.3700  173.9690  135.0040 N   0  0  0  0  0  1  0  0  0  0  0  0
  190.6190  173.9570  135.7450 C   0  0  0  0  0  2  0  0  0  0  0  0
  1  6  1  0  0  0  0
  1  5  1  0  0  0  0
  2 11  1  0  0  0  0
  3 10  2  0  0  0  0
  3 16  1  0  0  0  0
  4 15  1  6  0  0  0
  4  8  1  0  0  0  0
  4  7  1  0  0  0  0
  7  9  1  0  0  0  0
  8  1  2  0  0  0  0
  9  5  2  0  0  0  0
 11  7  2  0  0  0  0
 11 10  1  0  0  0  0
 12 15  2  0  0  0  0
 12  2  1  0  0  0  0
 13  2  2  0  0  0  0
 13 14  1  0  0  0  0
 14  3  1  0  0  0  0
 16 18  1  0  0  0  0
 17 19  1  0  0  0  0
 17 16  2  0  0  0  0
 19 20  2  0  0  0  0
 21 19  1  0  0  0  0
 21 22  1  0  0  0  0
 22 25  1  0  0  0  0
 23 28  1  0  0  0  0
 24 26  1  0  0  0  0
 24 27  1  1  0  0  0
 26 23  1  6  0  0  0
 26 27  1  0  0  0  0
 26 22  1  0  0  0  0
 28 25  1  0  0  0  0
 29 33  1  6  0  0  0
 29 34  1  0  0  0  0
 29 24  1  0  0  0  0
 30 34  1  0  0  0  0
 31 33  1  0  0  0  0
 31 30  1  0  0  0  0
 32 30  2  0  0  0  0
 35 13  1  0  0  0  0
 36 39  1  0  0  0  0
 37 43  1  6  0  0  0
 37 41  1  0  0  0  0
 37 36  1  0  0  0  0
 38 40  1  0  0  0  0
 39 40  1  0  0  0  0
 40 35  1  1  0  0  0
 41 38  1  0  0  0  0
 42 43  1  0  0  0  0
M  END
>  <MODEL>
9

>  <REMARK>
 VINA RESULT:      -7.0      2.899      9.080
  Name = 
  8 active torsions:
  status: ('A' for Active; 'I' for Inactive)
    1  A    between atoms: O_1  and  C_34
    2  A    between atoms: O_1  and  C_35
    3  A    between atoms: C_2  and  C_13
    4  A    between atoms: C_3  and  N_4
    5  A    between atoms: C_3  and  C_12
    6  A    between atoms: N_6  and  C_12
    7  A    between atoms: N_11  and  C_14
    8  A    between atoms: C_19  and  C_37
                            x       y       z     vdW  Elec       q    Type
                         _______ _______ _______ _____ _____    ______ ____

>  <TORSDO>
F 8

$$$$
