=
 OpenBabel11052419143D

 32 37  0  0  0  0  0  0  0  0999 V2000
  189.4200  175.4230  144.5030 C   0  0  0  0  0  0  0  0  0  0  0  0
  187.4590  176.6460  144.0750 N   0  0  0  0  0  0  0  0  0  0  0  0
  190.1630  174.7750  145.5100 C   0  0  0  0  0  3  0  0  0  0  0  0
  188.2910  176.0860  144.9170 C   0  0  0  0  0  0  0  0  0  0  0  0
  186.4050  177.0920  144.7460 C   0  0  0  0  0  0  0  0  0  0  0  0
  185.5260  177.7740  139.8920 C   0  0  0  0  0  3  0  0  0  0  0  0
  187.6090  176.6150  142.7460 C   0  0  0  0  0  0  0  0  0  0  0  0
  184.3620  178.2310  141.9740 C   0  0  0  0  0  3  0  0  0  0  0  0
  185.4230  177.6830  142.7000 C   0  0  0  0  0  0  0  0  0  0  0  0
  187.8110  176.1410  146.1900 C   0  0  0  0  0  0  0  0  0  0  0  0
  185.3500  177.6200  144.0740 N   0  0  0  0  0  0  0  0  0  0  0  0
  188.5150  175.5070  147.2160 C   0  0  0  0  0  3  0  0  0  0  0  0
  188.7280  176.0000  142.2430 N   0  0  0  0  0  0  0  0  0  0  0  0
  189.6550  175.4190  143.0950 C   0  0  0  0  0  0  0  0  0  0  0  0
  186.5650  177.1690  141.9910 C   0  0  0  0  0  0  0  0  0  0  0  0
  186.5740  176.8150  146.1140 C   0  0  0  0  0  0  0  0  0  0  0  0
  189.7130  174.8280  146.8620 C   0  0  0  0  0  3  0  0  0  0  0  0
  184.4150  178.2780  140.5780 C   0  0  0  0  0  3  0  0  0  0  0  0
  186.6000  177.2180  140.5950 C   0  0  0  0  0  3  0  0  0  0  0  0
  191.9560  172.7730  141.6270 C   0  0  0  0  0  0  0  0  0  0  0  0
  191.9610  171.4570  141.3000 F   0  0  0  0  0  0  0  0  0  0  0  0
  190.8270  174.7370  142.5140 C   0  0  0  0  0  0  0  0  0  0  0  0
  193.1080  173.5340  141.4140 C   0  0  0  0  0  3  0  0  0  0  0  0
  191.9940  175.4830  142.3080 C   0  0  0  0  0  3  0  0  0  0  0  0
  190.8120  173.3640  142.1850 C   0  0  0  0  0  0  0  0  0  0  0  0
  189.4100  172.3500  142.5230 Cl  0  0  0  0  0  0  0  0  0  0  0  0
  193.1310  174.8850  141.7640 C   0  0  0  0  0  0  0  0  0  0  0  0
  194.8740  176.1420  142.7360 O   0  0  0  0  0  1  0  0  0  0  0  0
  194.3550  175.6960  141.5210 C   0  0  0  0  0  2  0  0  0  0  0  0
  185.5820  177.0190  147.2080 C   0  0  0  0  0  2  0  0  0  0  0  0
  185.5280  178.4850  147.5890 C   0  0  0  0  0  2  0  0  0  0  0  0
  186.7360  178.8580  148.1740 O   0  0  0  0  0  1  0  0  0  0  0  0
  1  4  1  0  0  0  0
  1  3  2  0  0  0  0
  2  5  1  0  0  0  0
  2  4  1  0  0  0  0
  3 17  1  0  0  0  0
  4 10  2  0  0  0  0
  5 16  2  0  0  0  0
  6 18  1  0  0  0  0
  6 19  2  0  0  0  0
  7  2  1  0  0  0  0
  8  9  1  0  0  0  0
  9 11  2  0  0  0  0
 10 12  1  0  0  0  0
 11  5  1  0  0  0  0
 13  7  1  0  0  0  0
 13 14  2  0  0  0  0
 14  1  1  0  0  0  0
 15  9  1  0  0  0  0
 15  7  2  0  0  0  0
 16 10  1  0  0  0  0
 16 30  1  0  0  0  0
 17 12  2  0  0  0  0
 18  8  2  0  0  0  0
 19 15  1  0  0  0  0
 20 25  1  0  0  0  0
 21 20  1  0  0  0  0
 22 14  1  0  0  0  0
 23 20  2  0  0  0  0
 23 27  1  0  0  0  0
 24 22  1  0  0  0  0
 25 22  2  0  0  0  0
 25 26  1  0  0  0  0
 27 24  2  0  0  0  0
 29 27  1  0  0  0  0
 29 28  1  0  0  0  0
 30 31  1  0  0  0  0
 31 32  1  0  0  0  0
M  END
>  <MODEL>
1

>  <REMARK>
 VINA RESULT:      -8.2      0.000      0.000
  Name = 
  4 active torsions:
  status: ('A' for Active; 'I' for Inactive)
    1  A    between atoms: C_13  and  C_18
    2  A    between atoms: C_15  and  C_26
    3  A    between atoms: C_16  and  C_27
    4  A    between atoms: C_18  and  C_29
                            x       y       z     vdW  Elec       q    Type
                         _______ _______ _______ _____ _____    ______ ____

>  <TORSDO>
F 4

$$$$
=
 OpenBabel11052419143D

 32 37  0  0  0  0  0  0  0  0999 V2000
  189.4920  175.2530  144.4800 C   0  0  0  0  0  0  0  0  0  0  0  0
  187.5840  176.5600  144.0640 N   0  0  0  0  0  0  0  0  0  0  0  0
  190.2180  174.5800  145.4840 C   0  0  0  0  0  3  0  0  0  0  0  0
  188.3990  175.9700  144.9010 C   0  0  0  0  0  0  0  0  0  0  0  0
  186.5590  177.0570  144.7430 C   0  0  0  0  0  0  0  0  0  0  0  0
  185.6560  177.7430  139.8940 C   0  0  0  0  0  3  0  0  0  0  0  0
  187.7170  176.5120  142.7340 C   0  0  0  0  0  0  0  0  0  0  0  0
  184.5370  178.2670  141.9860 C   0  0  0  0  0  3  0  0  0  0  0  0
  185.5800  177.6770  142.7030 C   0  0  0  0  0  0  0  0  0  0  0  0
  187.9360  176.0550  146.1800 C   0  0  0  0  0  0  0  0  0  0  0  0
  185.5210  177.6280  144.0780 N   0  0  0  0  0  0  0  0  0  0  0  0
  188.6230  175.3980  147.2030 C   0  0  0  0  0  3  0  0  0  0  0  0
  188.8010  175.8440  142.2240 N   0  0  0  0  0  0  0  0  0  0  0  0
  189.7110  175.2280  143.0690 C   0  0  0  0  0  0  0  0  0  0  0  0
  186.6900  177.1070  141.9860 C   0  0  0  0  0  0  0  0  0  0  0  0
  186.7300  176.7830  146.1110 C   0  0  0  0  0  0  0  0  0  0  0  0
  189.7850  174.6630  146.8400 C   0  0  0  0  0  3  0  0  0  0  0  0
  184.5770  178.3010  140.5880 C   0  0  0  0  0  3  0  0  0  0  0  0
  186.7110  177.1440  140.5890 C   0  0  0  0  0  3  0  0  0  0  0  0
  193.1630  174.3180  141.7650 C   0  0  0  0  0  0  0  0  0  0  0  0
  194.3980  174.8580  141.6090 F   0  0  0  0  0  0  0  0  0  0  0  0
  190.8440  174.4900  142.4810 C   0  0  0  0  0  0  0  0  0  0  0  0
  192.9360  173.0030  141.3520 C   0  0  0  0  0  3  0  0  0  0  0  0
  190.6280  173.1760  142.0490 C   0  0  0  0  0  3  0  0  0  0  0  0
  192.1210  175.0730  142.3240 C   0  0  0  0  0  0  0  0  0  0  0  0
  192.4240  176.7570  142.7480 Cl  0  0  0  0  0  0  0  0  0  0  0  0
  191.6670  172.4360  141.4830 C   0  0  0  0  0  0  0  0  0  0  0  0
  190.4720  170.4420  141.8780 O   0  0  0  0  0  1  0  0  0  0  0  0
  191.4330  171.0290  141.0560 C   0  0  0  0  0  2  0  0  0  0  0  0
  185.7620  177.0400  147.2140 C   0  0  0  0  0  2  0  0  0  0  0  0
  186.1580  178.2930  147.9700 C   0  0  0  0  0  2  0  0  0  0  0  0
  185.7470  179.4160  147.2540 O   0  0  0  0  0  1  0  0  0  0  0  0
  1  4  1  0  0  0  0
  1  3  2  0  0  0  0
  2  5  1  0  0  0  0
  2  4  1  0  0  0  0
  3 17  1  0  0  0  0
  4 10  2  0  0  0  0
  5 16  2  0  0  0  0
  6 18  1  0  0  0  0
  6 19  2  0  0  0  0
  7  2  1  0  0  0  0
  8  9  1  0  0  0  0
  9 11  2  0  0  0  0
 10 12  1  0  0  0  0
 11  5  1  0  0  0  0
 13  7  1  0  0  0  0
 13 14  2  0  0  0  0
 14  1  1  0  0  0  0
 15  9  1  0  0  0  0
 15  7  2  0  0  0  0
 16 10  1  0  0  0  0
 16 30  1  0  0  0  0
 17 12  2  0  0  0  0
 18  8  2  0  0  0  0
 19 15  1  0  0  0  0
 20 25  1  0  0  0  0
 21 20  1  0  0  0  0
 22 14  1  0  0  0  0
 23 27  1  0  0  0  0
 23 20  2  0  0  0  0
 24 22  1  0  0  0  0
 25 22  2  0  0  0  0
 25 26  1  0  0  0  0
 27 24  2  0  0  0  0
 29 27  1  0  0  0  0
 29 28  1  0  0  0  0
 30 31  1  0  0  0  0
 32 31  1  0  0  0  0
M  END
>  <MODEL>
2

>  <REMARK>
 VINA RESULT:      -8.2      1.827      2.214
  Name = 
  4 active torsions:
  status: ('A' for Active; 'I' for Inactive)
    1  A    between atoms: C_13  and  C_18
    2  A    between atoms: C_15  and  C_26
    3  A    between atoms: C_16  and  C_27
    4  A    between atoms: C_18  and  C_29
                            x       y       z     vdW  Elec       q    Type
                         _______ _______ _______ _____ _____    ______ ____

>  <TORSDO>
F 4

$$$$
=
 OpenBabel11052419143D

 32 37  0  0  0  0  0  0  0  0999 V2000
  188.9700  174.9590  143.0270 C   0  0  0  0  0  0  0  0  0  0  0  0
  191.2280  174.4010  143.3600 N   0  0  0  0  0  0  0  0  0  0  0  0
  187.7780  174.5600  142.3890 C   0  0  0  0  0  3  0  0  0  0  0  0
  190.0820  174.2000  142.7590 C   0  0  0  0  0  0  0  0  0  0  0  0
  192.0730  173.4430  143.0010 C   0  0  0  0  0  0  0  0  0  0  0  0
  194.3010  176.2220  146.4820 C   0  0  0  0  0  3  0  0  0  0  0  0
  191.4270  175.3370  144.2940 C   0  0  0  0  0  0  0  0  0  0  0  0
  194.8870  174.2930  145.1260 C   0  0  0  0  0  3  0  0  0  0  0  0
  193.6280  174.3240  144.5200 C   0  0  0  0  0  0  0  0  0  0  0  0
  190.1280  173.0880  141.9740 C   0  0  0  0  0  0  0  0  0  0  0  0
  193.3010  173.3740  143.5780 N   0  0  0  0  0  0  0  0  0  0  0  0
  188.9670  172.6560  141.3290 C   0  0  0  0  0  3  0  0  0  0  0  0
  190.3770  176.1650  144.6030 N   0  0  0  0  0  0  0  0  0  0  0  0
  189.1510  176.0140  143.9730 C   0  0  0  0  0  0  0  0  0  0  0  0
  192.6860  175.3390  144.9120 C   0  0  0  0  0  0  0  0  0  0  0  0
  191.4360  172.5740  142.0980 C   0  0  0  0  0  0  0  0  0  0  0  0
  187.7840  173.4180  141.5370 C   0  0  0  0  0  3  0  0  0  0  0  0
  195.2210  175.2390  146.1000 C   0  0  0  0  0  3  0  0  0  0  0  0
  193.0340  176.2730  145.8920 C   0  0  0  0  0  3  0  0  0  0  0  0
  186.4660  178.7020  143.9070 C   0  0  0  0  0  0  0  0  0  0  0  0
  185.9640  179.6590  143.0870 F   0  0  0  0  0  0  0  0  0  0  0  0
  188.0380  176.9010  144.3570 C   0  0  0  0  0  0  0  0  0  0  0  0
  185.9170  178.5380  145.1810 C   0  0  0  0  0  3  0  0  0  0  0  0
  187.4870  176.7590  145.6360 C   0  0  0  0  0  3  0  0  0  0  0  0
  187.5330  177.8940  143.4880 C   0  0  0  0  0  0  0  0  0  0  0  0
  188.2580  178.1930  141.9100 Cl  0  0  0  0  0  0  0  0  0  0  0  0
  186.4340  177.5760  146.0490 C   0  0  0  0  0  0  0  0  0  0  0  0
  184.9110  178.4080  147.6460 O   0  0  0  0  0  1  0  0  0  0  0  0
  185.8360  177.3930  147.4000 C   0  0  0  0  0  2  0  0  0  0  0  0
  191.9640  171.2950  141.5470 C   0  0  0  0  0  2  0  0  0  0  0  0
  191.5290  170.1360  142.4220 C   0  0  0  0  0  2  0  0  0  0  0  0
  190.7070  169.2830  141.6880 O   0  0  0  0  0  1  0  0  0  0  0  0
  1 14  1  0  0  0  0
  2  7  1  0  0  0  0
  3  1  1  0  0  0  0
  4  1  2  0  0  0  0
  4  2  1  0  0  0  0
  5  2  1  0  0  0  0
  5 11  1  0  0  0  0
  7 13  1  0  0  0  0
  7 15  2  0  0  0  0
  8 18  2  0  0  0  0
  9 15  1  0  0  0  0
  9  8  1  0  0  0  0
 10 16  1  0  0  0  0
 10  4  1  0  0  0  0
 11  9  2  0  0  0  0
 12 17  1  0  0  0  0
 12 10  2  0  0  0  0
 14 22  1  0  0  0  0
 14 13  2  0  0  0  0
 15 19  1  0  0  0  0
 16  5  2  0  0  0  0
 17  3  2  0  0  0  0
 18  6  1  0  0  0  0
 19  6  2  0  0  0  0
 20 23  1  0  0  0  0
 21 20  1  0  0  0  0
 22 24  2  0  0  0  0
 23 27  2  0  0  0  0
 24 27  1  0  0  0  0
 25 20  2  0  0  0  0
 25 22  1  0  0  0  0
 26 25  1  0  0  0  0
 27 29  1  0  0  0  0
 29 28  1  0  0  0  0
 30 16  1  0  0  0  0
 30 31  1  0  0  0  0
 32 31  1  0  0  0  0
M  END
>  <MODEL>
3

>  <REMARK>
 VINA RESULT:      -7.8      3.493      8.050
  Name = 
  4 active torsions:
  status: ('A' for Active; 'I' for Inactive)
    1  A    between atoms: C_13  and  C_18
    2  A    between atoms: C_15  and  C_26
    3  A    between atoms: C_16  and  C_27
    4  A    between atoms: C_18  and  C_29
                            x       y       z     vdW  Elec       q    Type
                         _______ _______ _______ _____ _____    ______ ____

>  <TORSDO>
F 4

$$$$
=
 OpenBabel11052419143D

 32 37  0  0  0  0  0  0  0  0999 V2000
  189.5620  175.9780  145.3840 C   0  0  0  0  0  0  0  0  0  0  0  0
  190.5710  174.2020  144.2220 N   0  0  0  0  0  0  0  0  0  0  0  0
  189.7240  176.8790  146.4560 C   0  0  0  0  0  3  0  0  0  0  0  0
  190.5480  175.0350  145.2320 C   0  0  0  0  0  0  0  0  0  0  0  0
  191.6990  173.5050  144.2680 C   0  0  0  0  0  0  0  0  0  0  0  0
  189.3210  172.2910  140.0640 C   0  0  0  0  0  3  0  0  0  0  0  0
  189.6630  174.1940  143.2410 C   0  0  0  0  0  0  0  0  0  0  0  0
  191.3800  171.6380  141.1740 C   0  0  0  0  0  3  0  0  0  0  0  0
  191.1080  172.5220  142.2220 C   0  0  0  0  0  0  0  0  0  0  0  0
  191.6740  174.9190  145.9900 C   0  0  0  0  0  0  0  0  0  0  0  0
  192.0020  172.6450  143.2610 N   0  0  0  0  0  0  0  0  0  0  0  0
  191.8760  175.7960  147.0570 C   0  0  0  0  0  3  0  0  0  0  0  0
  188.6210  175.0820  143.3270 N   0  0  0  0  0  0  0  0  0  0  0  0
  188.5340  175.9650  144.3930 C   0  0  0  0  0  0  0  0  0  0  0  0
  189.9030  173.3080  142.1800 C   0  0  0  0  0  0  0  0  0  0  0  0
  192.4470  173.9030  145.3890 C   0  0  0  0  0  0  0  0  0  0  0  0
  190.8750  176.7780  147.2910 C   0  0  0  0  0  3  0  0  0  0  0  0
  190.4890  171.5230  140.1020 C   0  0  0  0  0  3  0  0  0  0  0  0
  189.0260  173.1850  141.0990 C   0  0  0  0  0  3  0  0  0  0  0  0
  186.1710  178.8180  143.5420 C   0  0  0  0  0  0  0  0  0  0  0  0
  185.9990  179.7920  142.6130 F   0  0  0  0  0  0  0  0  0  0  0  0
  187.4180  176.9280  144.4320 C   0  0  0  0  0  0  0  0  0  0  0  0
  185.2600  178.7100  144.5950 C   0  0  0  0  0  3  0  0  0  0  0  0
  186.5040  176.8410  145.4890 C   0  0  0  0  0  3  0  0  0  0  0  0
  187.2600  177.9370  143.4570 C   0  0  0  0  0  0  0  0  0  0  0  0
  188.4380  178.1630  142.1650 Cl  0  0  0  0  0  0  0  0  0  0  0  0
  185.4310  177.7310  145.5740 C   0  0  0  0  0  0  0  0  0  0  0  0
  184.7100  178.5780  147.6530 O   0  0  0  0  0  1  0  0  0  0  0  0
  184.4490  177.6090  146.6850 C   0  0  0  0  0  2  0  0  0  0  0  0
  193.8300  173.4810  145.7510 C   0  0  0  0  0  2  0  0  0  0  0  0
  194.8380  174.4400  145.1490 C   0  0  0  0  0  2  0  0  0  0  0  0
  195.3070  175.3020  146.1380 O   0  0  0  0  0  1  0  0  0  0  0  0
  1  3  2  0  0  0  0
  2  5  1  0  0  0  0
  2  4  1  0  0  0  0
  3 17  1  0  0  0  0
  4  1  1  0  0  0  0
  4 10  2  0  0  0  0
  5 16  2  0  0  0  0
  6 18  1  0  0  0  0
  6 19  2  0  0  0  0
  7 13  1  0  0  0  0
  7  2  1  0  0  0  0
  8  9  1  0  0  0  0
  9 11  2  0  0  0  0
 10 12  1  0  0  0  0
 11  5  1  0  0  0  0
 12 17  2  0  0  0  0
 13 14  2  0  0  0  0
 14 22  1  0  0  0  0
 14  1  1  0  0  0  0
 15  9  1  0  0  0  0
 15  7  2  0  0  0  0
 16 30  1  0  0  0  0
 16 10  1  0  0  0  0
 18  8  2  0  0  0  0
 19 15  1  0  0  0  0
 20 23  1  0  0  0  0
 21 20  1  0  0  0  0
 22 24  2  0  0  0  0
 23 27  2  0  0  0  0
 24 27  1  0  0  0  0
 25 20  2  0  0  0  0
 25 22  1  0  0  0  0
 26 25  1  0  0  0  0
 27 29  1  0  0  0  0
 29 28  1  0  0  0  0
 31 30  1  0  0  0  0
 31 32  1  0  0  0  0
M  END
>  <MODEL>
4

>  <REMARK>
 VINA RESULT:      -7.8      3.033      7.064
  Name = 
  4 active torsions:
  status: ('A' for Active; 'I' for Inactive)
    1  A    between atoms: C_13  and  C_18
    2  A    between atoms: C_15  and  C_26
    3  A    between atoms: C_16  and  C_27
    4  A    between atoms: C_18  and  C_29
                            x       y       z     vdW  Elec       q    Type
                         _______ _______ _______ _____ _____    ______ ____

>  <TORSDO>
F 4

$$$$
=
 OpenBabel11052419143D

 32 37  0  0  0  0  0  0  0  0999 V2000
  188.8890  175.5750  143.1570 C   0  0  0  0  0  0  0  0  0  0  0  0
  191.1830  175.0660  143.1810 N   0  0  0  0  0  0  0  0  0  0  0  0
  187.6690  175.3140  142.5010 C   0  0  0  0  0  3  0  0  0  0  0  0
  190.0050  174.9870  142.6160 C   0  0  0  0  0  0  0  0  0  0  0  0
  192.0330  174.2990  142.5110 C   0  0  0  0  0  0  0  0  0  0  0  0
  194.4050  176.0720  146.5140 C   0  0  0  0  0  3  0  0  0  0  0  0
  191.4160  175.7030  144.3340 C   0  0  0  0  0  0  0  0  0  0  0  0
  194.9600  174.6510  144.6240 C   0  0  0  0  0  3  0  0  0  0  0  0
  193.6610  174.7880  144.1270 C   0  0  0  0  0  0  0  0  0  0  0  0
  190.0330  174.1520  141.5390 C   0  0  0  0  0  0  0  0  0  0  0  0
  193.3000  174.1340  142.9700 N   0  0  0  0  0  0  0  0  0  0  0  0
  188.8450  173.8630  140.8650 C   0  0  0  0  0  3  0  0  0  0  0  0
  190.3630  176.3490  144.9310 N   0  0  0  0  0  0  0  0  0  0  0  0
  189.1010  176.3200  144.3570 C   0  0  0  0  0  0  0  0  0  0  0  0
  192.7150  175.5940  144.8520 C   0  0  0  0  0  0  0  0  0  0  0  0
  191.3630  173.6950  141.4330 C   0  0  0  0  0  0  0  0  0  0  0  0
  187.6540  174.4670  141.3540 C   0  0  0  0  0  3  0  0  0  0  0  0
  195.3300  175.2930  145.8100 C   0  0  0  0  0  3  0  0  0  0  0  0
  193.0990  176.2230  146.0400 C   0  0  0  0  0  3  0  0  0  0  0  0
  186.5180  177.3240  146.9570 C   0  0  0  0  0  0  0  0  0  0  0  0
  186.1120  176.9960  148.2090 F   0  0  0  0  0  0  0  0  0  0  0  0
  187.9880  176.9980  145.0470 C   0  0  0  0  0  0  0  0  0  0  0  0
  185.8590  178.3490  146.2730 C   0  0  0  0  0  3  0  0  0  0  0  0
  187.3080  178.0160  144.3680 C   0  0  0  0  0  3  0  0  0  0  0  0
  187.5790  176.6370  146.3490 C   0  0  0  0  0  0  0  0  0  0  0  0
  188.3240  175.2910  147.2090 Cl  0  0  0  0  0  0  0  0  0  0  0  0
  186.2460  178.6870  144.9750 C   0  0  0  0  0  0  0  0  0  0  0  0
  184.2660  179.3830  143.8980 O   0  0  0  0  0  1  0  0  0  0  0  0
  185.5520  179.7900  144.2550 C   0  0  0  0  0  2  0  0  0  0  0  0
  191.8950  172.6600  140.5020 C   0  0  0  0  0  2  0  0  0  0  0  0
  191.6080  171.2760  141.0510 C   0  0  0  0  0  2  0  0  0  0  0  0
  190.4910  170.7450  140.4080 O   0  0  0  0  0  1  0  0  0  0  0  0
  1 14  1  0  0  0  0
  2  7  1  0  0  0  0
  3  1  1  0  0  0  0
  4  1  2  0  0  0  0
  4  2  1  0  0  0  0
  5 11  1  0  0  0  0
  5  2  1  0  0  0  0
  7 15  2  0  0  0  0
  7 13  1  0  0  0  0
  8 18  2  0  0  0  0
  9  8  1  0  0  0  0
  9 15  1  0  0  0  0
 10  4  1  0  0  0  0
 11  9  2  0  0  0  0
 12 17  1  0  0  0  0
 12 10  2  0  0  0  0
 14 13  2  0  0  0  0
 14 22  1  0  0  0  0
 15 19  1  0  0  0  0
 16 10  1  0  0  0  0
 16  5  2  0  0  0  0
 17  3  2  0  0  0  0
 18  6  1  0  0  0  0
 19  6  2  0  0  0  0
 20 21  1  0  0  0  0
 22 25  2  0  0  0  0
 23 20  2  0  0  0  0
 24 27  2  0  0  0  0
 24 22  1  0  0  0  0
 25 20  1  0  0  0  0
 25 26  1  0  0  0  0
 27 23  1  0  0  0  0
 28 29  1  0  0  0  0
 29 27  1  0  0  0  0
 30 31  1  0  0  0  0
 30 16  1  0  0  0  0
 32 31  1  0  0  0  0
M  END
>  <MODEL>
5

>  <REMARK>
 VINA RESULT:      -7.8      3.462      8.021
  Name = 
  4 active torsions:
  status: ('A' for Active; 'I' for Inactive)
    1  A    between atoms: C_13  and  C_18
    2  A    between atoms: C_15  and  C_26
    3  A    between atoms: C_16  and  C_27
    4  A    between atoms: C_18  and  C_29
                            x       y       z     vdW  Elec       q    Type
                         _______ _______ _______ _____ _____    ______ ____

>  <TORSDO>
F 4

$$$$
=
 OpenBabel11052419143D

 32 37  0  0  0  0  0  0  0  0999 V2000
  192.0330  175.2740  145.6600 C   0  0  0  0  0  0  0  0  0  0  0  0
  190.3860  175.6040  144.0170 N   0  0  0  0  0  0  0  0  0  0  0  0
  192.3800  175.5460  146.9990 C   0  0  0  0  0  3  0  0  0  0  0  0
  190.8740  175.8520  145.2060 C   0  0  0  0  0  0  0  0  0  0  0  0
  189.2030  176.1940  143.9070 C   0  0  0  0  0  0  0  0  0  0  0  0
  189.9460  173.4830  139.7970 C   0  0  0  0  0  3  0  0  0  0  0  0
  190.9460  174.7610  143.1420 C   0  0  0  0  0  0  0  0  0  0  0  0
  188.2130  174.9590  140.6440 C   0  0  0  0  0  3  0  0  0  0  0  0
  188.9550  175.1790  141.8060 C   0  0  0  0  0  0  0  0  0  0  0  0
  190.0200  176.6240  145.9350 C   0  0  0  0  0  0  0  0  0  0  0  0
  188.4490  175.9930  142.7960 N   0  0  0  0  0  0  0  0  0  0  0  0
  190.3240  176.9120  147.2670 C   0  0  0  0  0  3  0  0  0  0  0  0
  192.1270  174.1610  143.4990 N   0  0  0  0  0  0  0  0  0  0  0  0
  192.7010  174.4140  144.7350 C   0  0  0  0  0  0  0  0  0  0  0  0
  190.2300  174.5290  141.9580 C   0  0  0  0  0  0  0  0  0  0  0  0
  188.9140  176.8810  145.0980 C   0  0  0  0  0  0  0  0  0  0  0  0
  191.5300  176.3700  147.7920 C   0  0  0  0  0  3  0  0  0  0  0  0
  188.7080  174.1170  139.6430 C   0  0  0  0  0  3  0  0  0  0  0  0
  190.7070  173.6850  140.9520 C   0  0  0  0  0  3  0  0  0  0  0  0
  196.3490  173.6860  145.5120 C   0  0  0  0  0  0  0  0  0  0  0  0
  197.5500  174.3130  145.5770 F   0  0  0  0  0  0  0  0  0  0  0  0
  193.9530  173.7230  145.0960 C   0  0  0  0  0  0  0  0  0  0  0  0
  196.2770  172.3190  145.7920 C   0  0  0  0  0  3  0  0  0  0  0  0
  193.8990  172.3510  145.3650 C   0  0  0  0  0  3  0  0  0  0  0  0
  195.1930  174.3960  145.1540 C   0  0  0  0  0  0  0  0  0  0  0  0
  195.3410  176.0970  144.7190 Cl  0  0  0  0  0  0  0  0  0  0  0  0
  195.0560  171.6490  145.7080 C   0  0  0  0  0  0  0  0  0  0  0  0
  196.1270  169.8040  146.7140 O   0  0  0  0  0  1  0  0  0  0  0  0
  194.9800  170.1970  146.0230 C   0  0  0  0  0  2  0  0  0  0  0  0
  187.6420  177.5670  145.4620 C   0  0  0  0  0  2  0  0  0  0  0  0
  186.7640  176.6350  146.2730 C   0  0  0  0  0  2  0  0  0  0  0  0
  185.4490  176.7230  145.8210 O   0  0  0  0  0  1  0  0  0  0  0  0
  1  3  2  0  0  0  0
  2  4  1  0  0  0  0
  3 17  1  0  0  0  0
  4  1  1  0  0  0  0
  4 10  2  0  0  0  0
  5  2  1  0  0  0  0
  5 16  2  0  0  0  0
  6 19  2  0  0  0  0
  7 13  1  0  0  0  0
  7  2  1  0  0  0  0
  8  9  1  0  0  0  0
  9 15  1  0  0  0  0
  9 11  2  0  0  0  0
 10 12  1  0  0  0  0
 11  5  1  0  0  0  0
 12 17  2  0  0  0  0
 13 14  2  0  0  0  0
 14 22  1  0  0  0  0
 14  1  1  0  0  0  0
 15  7  2  0  0  0  0
 16 30  1  0  0  0  0
 16 10  1  0  0  0  0
 18  6  1  0  0  0  0
 18  8  2  0  0  0  0
 19 15  1  0  0  0  0
 20 21  1  0  0  0  0
 20 23  1  0  0  0  0
 22 25  1  0  0  0  0
 22 24  2  0  0  0  0
 24 27  1  0  0  0  0
 25 20  2  0  0  0  0
 26 25  1  0  0  0  0
 27 23  2  0  0  0  0
 27 29  1  0  0  0  0
 29 28  1  0  0  0  0
 30 31  1  0  0  0  0
 32 31  1  0  0  0  0
M  END
>  <MODEL>
6

>  <REMARK>
 VINA RESULT:      -7.7      3.691      4.696
  Name = 
  4 active torsions:
  status: ('A' for Active; 'I' for Inactive)
    1  A    between atoms: C_13  and  C_18
    2  A    between atoms: C_15  and  C_26
    3  A    between atoms: C_16  and  C_27
    4  A    between atoms: C_18  and  C_29
                            x       y       z     vdW  Elec       q    Type
                         _______ _______ _______ _____ _____    ______ ____

>  <TORSDO>
F 4

$$$$
=
 OpenBabel11052419143D

 32 37  0  0  0  0  0  0  0  0999 V2000
  191.8780  175.1370  145.5390 C   0  0  0  0  0  0  0  0  0  0  0  0
  192.7950  173.1640  144.6530 N   0  0  0  0  0  0  0  0  0  0  0  0
  192.1860  176.3380  146.2110 C   0  0  0  0  0  3  0  0  0  0  0  0
  192.9220  174.2670  145.3460 C   0  0  0  0  0  0  0  0  0  0  0  0
  193.9890  172.5980  144.5270 C   0  0  0  0  0  0  0  0  0  0  0  0
  190.7530  169.9650  141.8080 C   0  0  0  0  0  3  0  0  0  0  0  0
  191.6610  172.7850  144.0550 C   0  0  0  0  0  0  0  0  0  0  0  0
  193.1200  169.8400  142.3370 C   0  0  0  0  0  3  0  0  0  0  0  0
  193.0130  170.9850  143.1310 C   0  0  0  0  0  0  0  0  0  0  0  0
  194.2200  174.4740  145.7060 C   0  0  0  0  0  0  0  0  0  0  0  0
  194.1320  171.4900  143.7540 N   0  0  0  0  0  0  0  0  0  0  0  0
  194.5670  175.6530  146.3680 C   0  0  0  0  0  3  0  0  0  0  0  0
  190.5540  173.5790  144.2210 N   0  0  0  0  0  0  0  0  0  0  0  0
  190.6280  174.7420  144.9710 C   0  0  0  0  0  0  0  0  0  0  0  0
  191.7340  171.6300  143.2610 C   0  0  0  0  0  0  0  0  0  0  0  0
  194.9470  173.3790  145.1950 C   0  0  0  0  0  0  0  0  0  0  0  0
  193.5260  176.5860  146.6290 C   0  0  0  0  0  3  0  0  0  0  0  0
  191.9940  169.3320  141.6810 C   0  0  0  0  0  3  0  0  0  0  0  0
  190.6200  171.1140  142.5930 C   0  0  0  0  0  3  0  0  0  0  0  0
  187.5030  176.4250  146.3290 C   0  0  0  0  0  0  0  0  0  0  0  0
  186.7280  176.4490  147.4420 F   0  0  0  0  0  0  0  0  0  0  0  0
  189.4270  175.5870  145.0980 C   0  0  0  0  0  0  0  0  0  0  0  0
  187.1590  177.2300  145.2400 C   0  0  0  0  0  3  0  0  0  0  0  0
  189.0610  176.3880  144.0090 C   0  0  0  0  0  3  0  0  0  0  0  0
  188.6300  175.5930  146.2640 C   0  0  0  0  0  0  0  0  0  0  0  0
  188.9780  174.5260  147.6230 Cl  0  0  0  0  0  0  0  0  0  0  0  0
  187.9300  177.2030  144.0770 C   0  0  0  0  0  0  0  0  0  0  0  0
  188.3240  177.7130  141.8080 O   0  0  0  0  0  1  0  0  0  0  0  0
  187.5700  178.0740  142.9250 C   0  0  0  0  0  2  0  0  0  0  0  0
  196.4250  173.1910  145.1990 C   0  0  0  0  0  2  0  0  0  0  0  0
  196.7900  171.9800  146.0340 C   0  0  0  0  0  2  0  0  0  0  0  0
  197.5090  171.0770  145.2530 O   0  0  0  0  0  1  0  0  0  0  0  0
  1  3  2  0  0  0  0
  2  4  1  0  0  0  0
  3 17  1  0  0  0  0
  4  1  1  0  0  0  0
  4 10  2  0  0  0  0
  5  2  1  0  0  0  0
  5 16  2  0  0  0  0
  6 19  2  0  0  0  0
  7 13  1  0  0  0  0
  7  2  1  0  0  0  0
  8  9  1  0  0  0  0
  9 15  1  0  0  0  0
  9 11  2  0  0  0  0
 10 12  1  0  0  0  0
 11  5  1  0  0  0  0
 12 17  2  0  0  0  0
 13 14  2  0  0  0  0
 14 22  1  0  0  0  0
 14  1  1  0  0  0  0
 15  7  2  0  0  0  0
 16 30  1  0  0  0  0
 16 10  1  0  0  0  0
 18  6  1  0  0  0  0
 18  8  2  0  0  0  0
 19 15  1  0  0  0  0
 20 21  1  0  0  0  0
 22 25  2  0  0  0  0
 23 20  2  0  0  0  0
 24 27  2  0  0  0  0
 24 22  1  0  0  0  0
 25 20  1  0  0  0  0
 25 26  1  0  0  0  0
 27 23  1  0  0  0  0
 28 29  1  0  0  0  0
 29 27  1  0  0  0  0
 30 31  1  0  0  0  0
 32 31  1  0  0  0  0
M  END
>  <MODEL>
7

>  <REMARK>
 VINA RESULT:      -7.6      4.037      7.947
  Name = 
  4 active torsions:
  status: ('A' for Active; 'I' for Inactive)
    1  A    between atoms: C_13  and  C_18
    2  A    between atoms: C_15  and  C_26
    3  A    between atoms: C_16  and  C_27
    4  A    between atoms: C_18  and  C_29
                            x       y       z     vdW  Elec       q    Type
                         _______ _______ _______ _____ _____    ______ ____

>  <TORSDO>
F 4

$$$$
=
 OpenBabel11052419143D

 32 37  0  0  0  0  0  0  0  0999 V2000
  190.9070  176.0200  145.4520 C   0  0  0  0  0  0  0  0  0  0  0  0
  191.8240  174.8580  143.6280 N   0  0  0  0  0  0  0  0  0  0  0  0
  191.2200  176.6950  146.6500 C   0  0  0  0  0  3  0  0  0  0  0  0
  191.9590  175.4310  144.7970 C   0  0  0  0  0  0  0  0  0  0  0  0
  193.0220  174.4980  143.1860 C   0  0  0  0  0  0  0  0  0  0  0  0
  189.7180  173.5650  139.5790 C   0  0  0  0  0  3  0  0  0  0  0  0
  190.6710  174.8030  142.9530 C   0  0  0  0  0  0  0  0  0  0  0  0
  192.1100  173.2830  139.8920 C   0  0  0  0  0  3  0  0  0  0  0  0
  192.0170  173.8280  141.1750 C   0  0  0  0  0  0  0  0  0  0  0  0
  193.2680  175.4730  145.1740 C   0  0  0  0  0  0  0  0  0  0  0  0
  193.1530  173.9760  141.9390 N   0  0  0  0  0  0  0  0  0  0  0  0
  193.6210  176.1370  146.3510 C   0  0  0  0  0  3  0  0  0  0  0  0
  189.5560  175.3390  143.5470 N   0  0  0  0  0  0  0  0  0  0  0  0
  189.6400  175.9310  144.7980 C   0  0  0  0  0  0  0  0  0  0  0  0
  190.7310  174.2500  141.6650 C   0  0  0  0  0  0  0  0  0  0  0  0
  193.9940  174.8490  144.1380 C   0  0  0  0  0  0  0  0  0  0  0  0
  192.5730  176.7420  147.0970 C   0  0  0  0  0  3  0  0  0  0  0  0
  190.9660  173.1500  139.0990 C   0  0  0  0  0  3  0  0  0  0  0  0
  189.5980  174.1160  140.8580 C   0  0  0  0  0  3  0  0  0  0  0  0
  186.7410  176.6940  147.1340 C   0  0  0  0  0  0  0  0  0  0  0  0
  186.2150  176.2850  148.3160 F   0  0  0  0  0  0  0  0  0  0  0  0
  188.4280  176.5260  145.3890 C   0  0  0  0  0  0  0  0  0  0  0  0
  186.1160  177.7240  146.4280 C   0  0  0  0  0  3  0  0  0  0  0  0
  187.7810  177.5490  144.6850 C   0  0  0  0  0  3  0  0  0  0  0  0
  187.8940  176.0820  146.6180 C   0  0  0  0  0  0  0  0  0  0  0  0
  188.6000  174.7250  147.4940 Cl  0  0  0  0  0  0  0  0  0  0  0  0
  186.6270  178.1440  145.1990 C   0  0  0  0  0  0  0  0  0  0  0  0
  186.1040  179.0480  143.0850 O   0  0  0  0  0  1  0  0  0  0  0  0
  185.9670  179.2530  144.4580 C   0  0  0  0  0  2  0  0  0  0  0  0
  195.4750  174.7530  143.9990 C   0  0  0  0  0  2  0  0  0  0  0  0
  196.0520  176.1140  143.6660 C   0  0  0  0  0  2  0  0  0  0  0  0
  195.7980  176.4120  142.3290 O   0  0  0  0  0  1  0  0  0  0  0  0
  1  3  2  0  0  0  0
  2  4  1  0  0  0  0
  3 17  1  0  0  0  0
  4 10  2  0  0  0  0
  4  1  1  0  0  0  0
  5  2  1  0  0  0  0
  5 16  2  0  0  0  0
  6 19  2  0  0  0  0
  7 13  1  0  0  0  0
  7  2  1  0  0  0  0
  8  9  1  0  0  0  0
  9 15  1  0  0  0  0
  9 11  2  0  0  0  0
 10 12  1  0  0  0  0
 11  5  1  0  0  0  0
 12 17  2  0  0  0  0
 13 14  2  0  0  0  0
 14 22  1  0  0  0  0
 14  1  1  0  0  0  0
 15  7  2  0  0  0  0
 16 10  1  0  0  0  0
 18  6  1  0  0  0  0
 18  8  2  0  0  0  0
 19 15  1  0  0  0  0
 20 21  1  0  0  0  0
 22 25  2  0  0  0  0
 23 20  2  0  0  0  0
 24 27  2  0  0  0  0
 24 22  1  0  0  0  0
 25 20  1  0  0  0  0
 25 26  1  0  0  0  0
 27 23  1  0  0  0  0
 28 29  1  0  0  0  0
 29 27  1  0  0  0  0
 30 16  1  0  0  0  0
 31 30  1  0  0  0  0
 32 31  1  0  0  0  0
M  END
>  <MODEL>
8

>  <REMARK>
 VINA RESULT:      -7.5      3.146      7.117
  Name = 
  4 active torsions:
  status: ('A' for Active; 'I' for Inactive)
    1  A    between atoms: C_13  and  C_18
    2  A    between atoms: C_15  and  C_26
    3  A    between atoms: C_16  and  C_27
    4  A    between atoms: C_18  and  C_29
                            x       y       z     vdW  Elec       q    Type
                         _______ _______ _______ _____ _____    ______ ____

>  <TORSDO>
F 4

$$$$
=
 OpenBabel11052419143D

 32 37  0  0  0  0  0  0  0  0999 V2000
  187.4250  176.4250  141.6530 C   0  0  0  0  0  0  0  0  0  0  0  0
  185.8020  177.2680  143.1280 N   0  0  0  0  0  0  0  0  0  0  0  0
  187.7840  176.3110  140.2950 C   0  0  0  0  0  3  0  0  0  0  0  0
  186.2120  177.0130  141.9110 C   0  0  0  0  0  0  0  0  0  0  0  0
  184.6660  177.9500  143.0630 C   0  0  0  0  0  0  0  0  0  0  0  0
  186.0220  177.6930  147.8470 C   0  0  0  0  0  3  0  0  0  0  0  0
  186.5170  177.0050  144.2270 C   0  0  0  0  0  0  0  0  0  0  0  0
  184.1660  178.6280  146.5910 C   0  0  0  0  0  3  0  0  0  0  0  0
  184.7270  178.1660  145.3980 C   0  0  0  0  0  0  0  0  0  0  0  0
  185.3520  177.5240  140.9860 C   0  0  0  0  0  0  0  0  0  0  0  0
  184.0970  178.4250  144.2010 N   0  0  0  0  0  0  0  0  0  0  0  0
  185.6730  177.4370  139.6300 C   0  0  0  0  0  3  0  0  0  0  0  0
  187.7320  176.3870  144.0660 N   0  0  0  0  0  0  0  0  0  0  0  0
  188.1980  176.0670  142.8000 C   0  0  0  0  0  0  0  0  0  0  0  0
  185.9730  177.4460  145.4420 C   0  0  0  0  0  0  0  0  0  0  0  0
  184.3110  178.1350  141.7160 C   0  0  0  0  0  0  0  0  0  0  0  0
  186.9030  176.8090  139.2900 C   0  0  0  0  0  3  0  0  0  0  0  0
  184.8100  178.3900  147.8090 C   0  0  0  0  0  3  0  0  0  0  0  0
  186.6070  177.2230  146.6670 C   0  0  0  0  0  3  0  0  0  0  0  0
  191.9540  175.5190  142.6110 C   0  0  0  0  0  0  0  0  0  0  0  0
  193.1170  176.2140  142.6790 F   0  0  0  0  0  0  0  0  0  0  0  0
  189.5230  175.4350  142.6670 C   0  0  0  0  0  0  0  0  0  0  0  0
  191.9940  174.1380  142.4010 C   0  0  0  0  0  3  0  0  0  0  0  0
  189.5790  174.0540  142.4410 C   0  0  0  0  0  3  0  0  0  0  0  0
  190.7220  176.1780  142.7360 C   0  0  0  0  0  0  0  0  0  0  0  0
  190.7100  177.9320  142.9090 Cl  0  0  0  0  0  0  0  0  0  0  0  0
  190.8090  173.4080  142.3050 C   0  0  0  0  0  0  0  0  0  0  0  0
  189.6200  171.3740  142.4130 O   0  0  0  0  0  1  0  0  0  0  0  0
  190.8570  171.9350  142.0970 C   0  0  0  0  0  2  0  0  0  0  0  0
  183.1880  178.9550  141.1800 C   0  0  0  0  0  2  0  0  0  0  0  0
  181.8920  178.1730  141.2600 C   0  0  0  0  0  2  0  0  0  0  0  0
  180.8840  178.9940  141.7620 O   0  0  0  0  0  1  0  0  0  0  0  0
  1  4  2  0  0  0  0
  1 14  1  0  0  0  0
  2  7  1  0  0  0  0
  3  1  1  0  0  0  0
  4  2  1  0  0  0  0
  5  2  1  0  0  0  0
  5 11  1  0  0  0  0
  7 15  2  0  0  0  0
  8 18  2  0  0  0  0
  9 15  1  0  0  0  0
  9  8  1  0  0  0  0
 10 16  1  0  0  0  0
 10  4  1  0  0  0  0
 11  9  2  0  0  0  0
 12 10  2  0  0  0  0
 13  7  1  0  0  0  0
 14 13  2  0  0  0  0
 15 19  1  0  0  0  0
 16  5  2  0  0  0  0
 17 12  1  0  0  0  0
 17  3  2  0  0  0  0
 18  6  1  0  0  0  0
 19  6  2  0  0  0  0
 20 21  1  0  0  0  0
 20 25  1  0  0  0  0
 22 25  2  0  0  0  0
 22 14  1  0  0  0  0
 23 20  2  0  0  0  0
 24 22  1  0  0  0  0
 25 26  1  0  0  0  0
 27 23  1  0  0  0  0
 27 24  2  0  0  0  0
 29 27  1  0  0  0  0
 29 28  1  0  0  0  0
 30 31  1  0  0  0  0
 30 16  1  0  0  0  0
 31 32  1  0  0  0  0
M  END
>  <MODEL>
9

>  <REMARK>
 VINA RESULT:      -7.3      2.828      5.088
  Name = 
  4 active torsions:
  status: ('A' for Active; 'I' for Inactive)
    1  A    between atoms: C_13  and  C_18
    2  A    between atoms: C_15  and  C_26
    3  A    between atoms: C_16  and  C_27
    4  A    between atoms: C_18  and  C_29
                            x       y       z     vdW  Elec       q    Type
                         _______ _______ _______ _____ _____    ______ ____

>  <TORSDO>
F 4

$$$$
