=
 OpenBabel11052419363D

 55 61  0  0  1  0  0  0  0  0999 V2000
  189.3880  177.1460  144.7280 C   0  0  1  0  0  3  0  0  0  0  0  0
  190.8430  177.1560  145.1530 C   0  0  0  0  0  2  0  0  0  0  0  0
  191.5850  175.9960  144.4940 C   0  0  0  0  0  2  0  0  0  0  0  0
  192.7440  176.2590  146.9590 S   0  0  0  0  0  1  0  0  0  0  0  0
  192.8280  175.5470  145.2750 C   0  0  1  0  0  0  0  0  0  0  0  0
  192.7470  174.1730  145.4070 F   0  0  0  0  0  0  0  0  0  0  0  0
  195.7420  173.8160  144.1150 C   0  0  0  0  0  2  0  0  0  0  0  0
  196.5370  175.9830  143.0850 O   0  0  0  0  0  0  0  0  0  0  0  0
  194.1690  175.9130  144.5470 C   0  0  1  0  0  0  0  0  0  0  0  0
  193.3480  174.6550  142.6400 F   0  0  0  0  0  0  0  0  0  0  0  0
  194.0120  175.8200  143.0120 C   0  0  2  0  0  3  0  0  0  0  0  0
  195.5710  174.8120  146.3470 O   0  0  0  0  0  1  0  0  0  0  0  0
  196.6140  175.0700  144.1830 C   0  0  1  0  0  3  0  0  0  0  0  0
  195.3690  175.9410  142.2820 C   0  0  2  0  0  3  0  0  0  0  0  0
  194.5230  177.2290  144.8640 O   0  0  0  0  0  1  0  0  0  0  0  0
  195.3280  174.9880  144.9870 C   0  0  1  0  0  0  0  0  0  0  0  0
  195.5720  175.1880  140.9720 C   0  0  1  0  0  3  0  0  0  0  0  0
  194.7360  175.6700  139.9760 O   0  0  0  0  0  1  0  0  0  0  0  0
  197.0120  175.2720  140.5310 C   0  0  0  0  0  2  0  0  0  0  0  0
  197.0620  175.5930  139.1810 O   0  0  0  0  0  1  0  0  0  0  0  0
  189.3010  177.1580  143.2040 C   0  0  0  0  0  2  0  0  0  0  0  0
  188.0680  176.4140  142.7180 C   0  0  0  0  0  2  0  0  0  0  0  0
  188.3490  175.7530  141.4930 O   0  0  0  0  0  0  0  0  0  0  0  0
  187.6430  173.6140  141.9170 O   0  0  0  0  0  0  0  0  0  0  0  0
  189.7160  173.8180  140.8620 N   0  0  0  0  0  2  0  0  0  0  0  0
  188.5270  174.3720  141.4340 C   0  0  0  0  0  0  0  0  0  0  0  0
  191.5520  171.7020  144.0940 C   0  0  0  0  0  3  0  0  0  0  0  0
  189.2990  172.1030  138.3690 C   0  0  0  0  0  3  0  0  0  0  0  0
  194.5460  170.6720  142.0170 C   0  0  0  0  0  2  0  0  0  0  0  0
  189.6060  171.7970  137.0390 C   0  0  0  0  0  3  0  0  0  0  0  0
  191.5750  171.5700  139.0130 C   0  0  0  0  0  0  0  0  0  0  0  0
  191.8780  171.2750  137.6810 C   0  0  0  0  0  3  0  0  0  0  0  0
  190.8960  171.3870  136.6950 C   0  0  0  0  0  3  0  0  0  0  0  0
  190.2790  171.9930  139.3640 C   0  0  0  0  0  0  0  0  0  0  0  0
  190.6680  172.0570  143.1210 N   0  0  0  0  0  0  0  0  0  0  0  0
  195.0520  170.1470  144.3880 C   0  0  2  0  0  3  0  0  0  0  0  0
  192.2530  171.5380  141.4090 C   0  0  0  0  0  0  0  0  0  0  0  0
  192.8270  171.2520  143.7560 C   0  0  0  0  0  0  0  0  0  0  0  0
  192.5690  171.3900  140.0210 N   0  0  0  0  0  0  0  0  0  0  0  0
  193.7290  170.7560  144.8540 C   0  0  0  0  0  2  0  0  0  0  0  0
  189.9400  172.3820  140.7810 C   0  0  0  0  0  0  0  0  0  0  0  0
  194.9710  169.5740  142.9760 C   0  0  0  0  0  2  0  0  0  0  0  0
  190.9760  171.9750  141.7990 C   0  0  0  0  0  0  0  0  0  0  0  0
  193.1850  171.1740  142.3960 C   0  0  0  0  0  0  0  0  0  0  0  0
  195.4170  169.1350  145.2800 O   0  0  0  0  0  0  0  0  0  0  0  0
  194.8250  169.4670  146.4950 C   0  0  0  0  0  2  0  0  0  0  0  0
  195.3840  168.5620  147.5790 C   0  0  0  0  0  1  0  0  0  0  0  0
  188.7160  175.9030  145.2890 C   0  0  0  0  0  2  0  0  0  0  0  0
  188.2150  176.1900  146.6960 C   0  0  0  0  0  2  0  0  0  0  0  0
  184.7160  178.6870  146.6450 C   0  0  0  0  0  3  0  0  0  0  0  0
  187.0060  177.0630  146.6630 C   0  0  0  0  0  0  0  0  0  0  0  0
  186.9390  178.1880  147.4950 C   0  0  0  0  0  3  0  0  0  0  0  0
  184.7850  177.5660  145.8100 C   0  0  0  0  0  3  0  0  0  0  0  0
  185.7940  178.9980  147.4870 C   0  0  0  0  0  3  0  0  0  0  0  0
  185.9290  176.7540  145.8180 C   0  0  0  0  0  3  0  0  0  0  0  0
  1 21  1  6  0  0  0
  1  2  1  0  0  0  0
  1 48  1  0  0  0  0
  3  2  1  0  0  0  0
  3  5  1  0  0  0  0
  5  6  1  1  0  0  0
  5  4  1  0  0  0  0
  7 16  1  0  0  0  0
  8 13  1  0  0  0  0
  9 15  1  1  0  0  0
  9 16  1  0  0  0  0
  9  5  1  0  0  0  0
 11 10  1  1  0  0  0
 11  9  1  0  0  0  0
 13  7  1  6  0  0  0
 13 16  1  0  0  0  0
 14 17  1  6  0  0  0
 14 11  1  0  0  0  0
 14  8  1  0  0  0  0
 16 12  1  1  0  0  0
 17 18  1  6  0  0  0
 19 17  1  0  0  0  0
 20 19  1  0  0  0  0
 22 21  1  0  0  0  0
 23 22  1  0  0  0  0
 25 26  1  0  0  0  0
 26 23  1  0  0  0  0
 26 24  2  0  0  0  0
 28 34  1  0  0  0  0
 29 44  1  0  0  0  0
 29 42  1  0  0  0  0
 30 28  2  0  0  0  0
 31 34  2  0  0  0  0
 31 39  1  0  0  0  0
 32 31  1  0  0  0  0
 33 30  1  0  0  0  0
 33 32  2  0  0  0  0
 34 41  1  0  0  0  0
 35 27  2  0  0  0  0
 36 40  1  0  0  0  0
 36 45  1  1  0  0  0
 37 43  1  0  0  0  0
 37 44  1  0  0  0  0
 38 27  1  0  0  0  0
 38 40  1  0  0  0  0
 39 37  2  0  0  0  0
 41 25  1  0  0  0  0
 41 43  2  0  0  0  0
 42 36  1  0  0  0  0
 43 35  1  0  0  0  0
 44 38  2  0  0  0  0
 45 46  1  0  0  0  0
 46 47  1  0  0  0  0
 48 49  1  0  0  0  0
 50 54  1  0  0  0  0
 51 49  1  0  0  0  0
 51 52  1  0  0  0  0
 53 55  1  0  0  0  0
 53 50  2  0  0  0  0
 54 52  2  0  0  0  0
 55 51  2  0  0  0  0
M  END
>  <MODEL>
1

>  <REMARK>
 VINA RESULT:      -7.4      0.000      0.000
  Name = 
  16 active torsions:
  status: ('A' for Active; 'I' for Inactive)
    1  A    between atoms: O_4  and  C_37
    2  A    between atoms: O_4  and  C_40
    3  A    between atoms: C_6  and  C_20
    4  A    between atoms: C_8  and  C_22
    5  A    between atoms: C_8  and  C_43
    6  A    between atoms: O_10  and  C_18
    7  A    between atoms: O_10  and  C_32
    8  A    between atoms: C_11  and  C_29
    9  A    between atoms: N_19  and  C_45
   10  A    between atoms: C_20  and  C_22
   11  A    between atoms: C_27  and  C_54
   12  A    between atoms: C_29  and  C_38
   13  A    between atoms: C_35  and  C_37
   14  A    between atoms: C_35  and  C_43
   15  A    between atoms: C_43  and  C_51
   16  A    between atoms: C_51  and  C_54
                            x       y       z     vdW  Elec       q    Type
                         _______ _______ _______ _____ _____    ______ ____

>  <TORSDO>
F 16

$$$$
=
 OpenBabel11052419363D

 55 61  0  0  1  0  0  0  0  0999 V2000
  189.1460  174.0810  140.6590 C   0  0  1  0  0  3  0  0  0  0  0  0
  189.0810  172.5760  140.4950 C   0  0  0  0  0  2  0  0  0  0  0  0
  189.0050  172.2180  139.0130 C   0  0  0  0  0  2  0  0  0  0  0  0
  190.9290  170.5860  140.0730 S   0  0  0  0  0  1  0  0  0  0  0  0
  190.0640  171.1940  138.5780 C   0  0  1  0  0  0  0  0  0  0  0  0
  189.3870  170.1200  138.0310 F   0  0  0  0  0  0  0  0  0  0  0  0
  190.3490  174.1470  136.5710 C   0  0  0  0  0  2  0  0  0  0  0  0
  192.6070  173.3180  135.7920 O   0  0  0  0  0  0  0  0  0  0  0  0
  191.0630  171.7670  137.5130 C   0  0  1  0  0  0  0  0  0  0  0  0
  191.6260  173.4890  139.1300 F   0  0  0  0  0  0  0  0  0  0  0  0
  192.1640  172.6200  138.1850 C   0  0  2  0  0  3  0  0  0  0  0  0
  189.2170  172.1100  135.8120 O   0  0  0  0  0  1  0  0  0  0  0  0
  191.2090  173.4470  135.5180 C   0  0  1  0  0  3  0  0  0  0  0  0
  193.0150  173.3880  137.1480 C   0  0  2  0  0  3  0  0  0  0  0  0
  191.6880  170.7080  136.8470 O   0  0  0  0  0  1  0  0  0  0  0  0
  190.3360  172.6330  136.4570 C   0  0  1  0  0  0  0  0  0  0  0  0
  193.5910  174.7480  137.5280 C   0  0  1  0  0  3  0  0  0  0  0  0
  194.6880  174.6150  138.3680 O   0  0  0  0  0  1  0  0  0  0  0  0
  193.9700  175.5260  136.2930 C   0  0  0  0  0  2  0  0  0  0  0  0
  193.1800  176.6660  136.2070 O   0  0  0  0  0  1  0  0  0  0  0  0
  187.7300  174.6530  140.6860 C   0  0  0  0  0  2  0  0  0  0  0  0
  187.6070  175.8590  139.7690 C   0  0  0  0  0  2  0  0  0  0  0  0
  186.9690  176.9280  140.4520 O   0  0  0  0  0  0  0  0  0  0  0  0
  188.3130  178.6210  141.2110 O   0  0  0  0  0  0  0  0  0  0  0  0
  187.4810  177.1670  142.8370 N   0  0  0  0  0  2  0  0  0  0  0  0
  187.6040  177.6160  141.4840 C   0  0  0  0  0  0  0  0  0  0  0  0
  191.7300  177.0330  143.3170 C   0  0  0  0  0  3  0  0  0  0  0  0
  186.0360  178.5010  145.1740 C   0  0  0  0  0  3  0  0  0  0  0  0
  191.5240  175.2450  146.6480 C   0  0  0  0  0  2  0  0  0  0  0  0
  185.1820  178.4230  146.2790 C   0  0  0  0  0  3  0  0  0  0  0  0
  187.6040  177.0220  146.2850 C   0  0  0  0  0  0  0  0  0  0  0  0
  186.7420  176.9400  147.3820 C   0  0  0  0  0  3  0  0  0  0  0  0
  185.5330  177.6400  147.3810 C   0  0  0  0  0  3  0  0  0  0  0  0
  187.2500  177.8030  145.1680 C   0  0  0  0  0  0  0  0  0  0  0  0
  190.4600  177.5080  143.1960 N   0  0  0  0  0  0  0  0  0  0  0  0
  193.8900  175.1930  145.9060 C   0  0  2  0  0  3  0  0  0  0  0  0
  189.8330  176.5360  145.2880 C   0  0  0  0  0  0  0  0  0  0  0  0
  192.0970  176.2860  144.4350 C   0  0  0  0  0  0  0  0  0  0  0  0
  188.8650  176.3540  146.3250 N   0  0  0  0  0  0  0  0  0  0  0  0
  193.5400  175.8840  144.5880 C   0  0  0  0  0  2  0  0  0  0  0  0
  188.1290  177.8570  143.9430 C   0  0  0  0  0  0  0  0  0  0  0  0
  192.9500  175.5850  147.0430 C   0  0  0  0  0  2  0  0  0  0  0  0
  189.5130  177.2930  144.1490 C   0  0  0  0  0  0  0  0  0  0  0  0
  191.1360  176.0300  145.4310 C   0  0  0  0  0  0  0  0  0  0  0  0
  195.2020  175.5290  146.2530 O   0  0  0  0  0  0  0  0  0  0  0  0
  196.0170  174.8620  145.3420 C   0  0  0  0  0  2  0  0  0  0  0  0
  196.7160  173.7170  146.0530 C   0  0  0  0  0  1  0  0  0  0  0  0
  189.8760  174.4080  141.9510 C   0  0  0  0  0  2  0  0  0  0  0  0
  189.9570  173.1600  142.8170 C   0  0  0  0  0  2  0  0  0  0  0  0
  194.0360  172.2170  143.7920 C   0  0  0  0  0  3  0  0  0  0  0  0
  191.3720  172.8460  143.1670 C   0  0  0  0  0  0  0  0  0  0  0  0
  192.3970  173.1680  142.2680 C   0  0  0  0  0  3  0  0  0  0  0  0
  193.0130  171.9010  144.6930 C   0  0  0  0  0  3  0  0  0  0  0  0
  193.7280  172.8520  142.5800 C   0  0  0  0  0  3  0  0  0  0  0  0
  191.6810  172.2150  144.3810 C   0  0  0  0  0  3  0  0  0  0  0  0
  1  2  1  1  0  0  0
  1 21  1  0  0  0  0
  1 48  1  0  0  0  0
  3  2  1  0  0  0  0
  5  6  1  6  0  0  0
  5  3  1  0  0  0  0
  5  4  1  0  0  0  0
  8 14  1  0  0  0  0
  9 15  1  6  0  0  0
  9 11  1  0  0  0  0
  9  5  1  0  0  0  0
 11 10  1  1  0  0  0
 13  8  1  0  0  0  0
 13 16  1  0  0  0  0
 13  7  1  1  0  0  0
 14 17  1  1  0  0  0
 14 11  1  0  0  0  0
 16 12  1  6  0  0  0
 16  7  1  0  0  0  0
 16  9  1  0  0  0  0
 17 18  1  1  0  0  0
 19 17  1  0  0  0  0
 20 19  1  0  0  0  0
 22 23  1  0  0  0  0
 22 21  1  0  0  0  0
 23 26  1  0  0  0  0
 24 26  2  0  0  0  0
 25 41  1  0  0  0  0
 26 25  1  0  0  0  0
 27 38  1  0  0  0  0
 28 30  1  0  0  0  0
 29 42  1  0  0  0  0
 30 33  2  0  0  0  0
 31 39  1  0  0  0  0
 31 32  2  0  0  0  0
 33 32  1  0  0  0  0
 34 28  2  0  0  0  0
 34 31  1  0  0  0  0
 35 27  2  0  0  0  0
 35 43  1  0  0  0  0
 36 45  1  1  0  0  0
 36 42  1  0  0  0  0
 37 44  1  0  0  0  0
 37 39  2  0  0  0  0
 38 40  1  0  0  0  0
 38 44  2  0  0  0  0
 40 36  1  0  0  0  0
 41 43  2  0  0  0  0
 41 34  1  0  0  0  0
 43 37  1  0  0  0  0
 44 29  1  0  0  0  0
 46 47  1  0  0  0  0
 46 45  1  0  0  0  0
 48 49  1  0  0  0  0
 49 51  1  0  0  0  0
 50 53  1  0  0  0  0
 51 55  1  0  0  0  0
 52 54  1  0  0  0  0
 52 51  2  0  0  0  0
 54 50  2  0  0  0  0
 55 53  2  0  0  0  0
M  END
>  <MODEL>
2

>  <REMARK>
 VINA RESULT:      -6.9      3.021      7.714
  Name = 
  16 active torsions:
  status: ('A' for Active; 'I' for Inactive)
    1  A    between atoms: O_4  and  C_37
    2  A    between atoms: O_4  and  C_40
    3  A    between atoms: C_6  and  C_20
    4  A    between atoms: C_8  and  C_22
    5  A    between atoms: C_8  and  C_43
    6  A    between atoms: O_10  and  C_18
    7  A    between atoms: O_10  and  C_32
    8  A    between atoms: C_11  and  C_29
    9  A    between atoms: N_19  and  C_45
   10  A    between atoms: C_20  and  C_22
   11  A    between atoms: C_27  and  C_54
   12  A    between atoms: C_29  and  C_38
   13  A    between atoms: C_35  and  C_37
   14  A    between atoms: C_35  and  C_43
   15  A    between atoms: C_43  and  C_51
   16  A    between atoms: C_51  and  C_54
                            x       y       z     vdW  Elec       q    Type
                         _______ _______ _______ _____ _____    ______ ____

>  <TORSDO>
F 16

$$$$
=
 OpenBabel11052419363D

 55 61  0  0  1  0  0  0  0  0999 V2000
  189.3660  173.7090  139.4420 C   0  0  1  0  0  3  0  0  0  0  0  0
  189.6550  173.1390  138.0680 C   0  0  0  0  0  2  0  0  0  0  0  0
  190.7400  173.9650  137.3810 C   0  0  0  0  0  2  0  0  0  0  0  0
  191.0820  171.5350  136.1690 S   0  0  0  0  0  1  0  0  0  0  0  0
  191.8340  173.1090  136.7260 C   0  0  1  0  0  0  0  0  0  0  0  0
  192.2530  173.7860  135.5950 F   0  0  0  0  0  0  0  0  0  0  0  0
  195.3670  173.6880  136.6200 C   0  0  0  0  0  2  0  0  0  0  0  0
  195.5010  172.9010  139.0190 O   0  0  0  0  0  0  0  0  0  0  0  0
  193.0660  172.8720  137.6680 C   0  0  1  0  0  0  0  0  0  0  0  0
  193.2420  175.2860  137.8600 F   0  0  0  0  0  0  0  0  0  0  0  0
  193.3120  174.0970  138.5790 C   0  0  2  0  0  3  0  0  0  0  0  0
  194.3250  171.5990  135.8770 O   0  0  0  0  0  1  0  0  0  0  0  0
  195.6610  172.5810  137.6340 C   0  0  1  0  0  3  0  0  0  0  0  0
  194.6520  173.9910  139.3420 C   0  0  2  0  0  3  0  0  0  0  0  0
  192.8150  171.7690  138.4900 O   0  0  0  0  0  1  0  0  0  0  0  0
  194.3540  172.5830  136.8610 C   0  0  1  0  0  0  0  0  0  0  0  0
  195.4200  175.2670  139.6680 C   0  0  1  0  0  3  0  0  0  0  0  0
  194.7140  176.0700  140.5520 O   0  0  0  0  0  1  0  0  0  0  0  0
  196.7790  174.9380  140.2320 C   0  0  0  0  0  2  0  0  0  0  0  0
  196.6600  174.6610  141.5880 O   0  0  0  0  0  1  0  0  0  0  0  0
  187.8960  174.1140  139.5280 C   0  0  0  0  0  2  0  0  0  0  0  0
  187.6980  175.5590  139.1000 C   0  0  0  0  0  2  0  0  0  0  0  0
  186.9130  176.2490  140.0620 O   0  0  0  0  0  0  0  0  0  0  0  0
  187.9100  178.1970  140.7410 O   0  0  0  0  0  0  0  0  0  0  0  0
  187.6610  176.5500  142.3770 N   0  0  0  0  0  2  0  0  0  0  0  0
  187.4980  177.0460  141.0440 C   0  0  0  0  0  0  0  0  0  0  0  0
  191.8970  176.5510  142.9670 C   0  0  0  0  0  3  0  0  0  0  0  0
  186.1320  178.0560  144.5500 C   0  0  0  0  0  3  0  0  0  0  0  0
  191.6410  175.0630  146.4390 C   0  0  0  0  0  2  0  0  0  0  0  0
  185.2520  178.0590  145.6370 C   0  0  0  0  0  3  0  0  0  0  0  0
  187.6980  176.7170  145.8260 C   0  0  0  0  0  0  0  0  0  0  0  0
  186.8110  176.7140  146.9050 C   0  0  0  0  0  3  0  0  0  0  0  0
  185.5890  177.3850  146.8130 C   0  0  0  0  0  3  0  0  0  0  0  0
  187.3580  177.3860  144.6350 C   0  0  0  0  0  0  0  0  0  0  0  0
  190.6220  176.9860  142.7730 N   0  0  0  0  0  0  0  0  0  0  0  0
  194.0260  174.9960  145.7610 C   0  0  2  0  0  3  0  0  0  0  0  0
  189.9610  176.1910  144.9290 C   0  0  0  0  0  0  0  0  0  0  0  0
  192.2510  175.9150  144.1550 C   0  0  0  0  0  0  0  0  0  0  0  0
  188.9710  176.0820  145.9550 N   0  0  0  0  0  0  0  0  0  0  0  0
  193.6970  175.5590  144.3780 C   0  0  0  0  0  2  0  0  0  0  0  0
  188.2660  177.3500  143.4310 C   0  0  0  0  0  0  0  0  0  0  0  0
  193.0500  175.4680  146.8350 C   0  0  0  0  0  2  0  0  0  0  0  0
  189.6560  176.8370  143.7190 C   0  0  0  0  0  0  0  0  0  0  0  0
  191.2700  175.7280  145.1480 C   0  0  0  0  0  0  0  0  0  0  0  0
  195.3220  175.3890  146.1060 O   0  0  0  0  0  0  0  0  0  0  0  0
  196.1720  174.6880  145.2550 C   0  0  0  0  0  2  0  0  0  0  0  0
  196.7670  173.5130  146.0120 C   0  0  0  0  0  1  0  0  0  0  0  0
  189.6900  172.6610  140.4930 C   0  0  0  0  0  2  0  0  0  0  0  0
  189.8570  173.3360  141.8460 C   0  0  0  0  0  2  0  0  0  0  0  0
  193.4370  171.9410  143.7740 C   0  0  0  0  0  3  0  0  0  0  0  0
  191.1000  172.8670  142.5250 C   0  0  0  0  0  0  0  0  0  0  0  0
  192.3190  172.8940  141.8360 C   0  0  0  0  0  3  0  0  0  0  0  0
  192.2200  171.9190  144.4640 C   0  0  0  0  0  3  0  0  0  0  0  0
  193.4860  172.4290  142.4600 C   0  0  0  0  0  3  0  0  0  0  0  0
  191.0510  172.3820  143.8410 C   0  0  0  0  0  3  0  0  0  0  0  0
  1  2  1  6  0  0  0
  1 21  1  0  0  0  0
  1 48  1  0  0  0  0
  3  2  1  0  0  0  0
  4  5  1  0  0  0  0
  5  6  1  6  0  0  0
  5  3  1  0  0  0  0
  5  9  1  0  0  0  0
  7 16  1  0  0  0  0
  8 14  1  0  0  0  0
  9 15  1  1  0  0  0
  9 11  1  0  0  0  0
 11 10  1  6  0  0  0
 11 14  1  0  0  0  0
 13  7  1  6  0  0  0
 13  8  1  0  0  0  0
 14 17  1  6  0  0  0
 16 12  1  6  0  0  0
 16 13  1  0  0  0  0
 16  9  1  0  0  0  0
 17 19  1  0  0  0  0
 17 18  1  1  0  0  0
 19 20  1  0  0  0  0
 22 21  1  0  0  0  0
 22 23  1  0  0  0  0
 23 26  1  0  0  0  0
 24 26  2  0  0  0  0
 25 41  1  0  0  0  0
 26 25  1  0  0  0  0
 27 38  1  0  0  0  0
 28 34  2  0  0  0  0
 28 30  1  0  0  0  0
 29 42  1  0  0  0  0
 30 33  2  0  0  0  0
 31 39  1  0  0  0  0
 31 32  2  0  0  0  0
 33 32  1  0  0  0  0
 34 31  1  0  0  0  0
 35 27  2  0  0  0  0
 35 43  1  0  0  0  0
 36 45  1  1  0  0  0
 36 42  1  0  0  0  0
 37 44  1  0  0  0  0
 37 39  2  0  0  0  0
 38 40  1  0  0  0  0
 38 44  2  0  0  0  0
 40 36  1  0  0  0  0
 41 43  2  0  0  0  0
 41 34  1  0  0  0  0
 43 37  1  0  0  0  0
 44 29  1  0  0  0  0
 46 47  1  0  0  0  0
 46 45  1  0  0  0  0
 48 49  1  0  0  0  0
 49 51  1  0  0  0  0
 50 53  1  0  0  0  0
 51 55  1  0  0  0  0
 52 54  1  0  0  0  0
 52 51  2  0  0  0  0
 54 50  2  0  0  0  0
 55 53  2  0  0  0  0
M  END
>  <MODEL>
3

>  <REMARK>
 VINA RESULT:      -6.5      3.040      7.266
  Name = 
  16 active torsions:
  status: ('A' for Active; 'I' for Inactive)
    1  A    between atoms: O_4  and  C_37
    2  A    between atoms: O_4  and  C_40
    3  A    between atoms: C_6  and  C_20
    4  A    between atoms: C_8  and  C_22
    5  A    between atoms: C_8  and  C_43
    6  A    between atoms: O_10  and  C_18
    7  A    between atoms: O_10  and  C_32
    8  A    between atoms: C_11  and  C_29
    9  A    between atoms: N_19  and  C_45
   10  A    between atoms: C_20  and  C_22
   11  A    between atoms: C_27  and  C_54
   12  A    between atoms: C_29  and  C_38
   13  A    between atoms: C_35  and  C_37
   14  A    between atoms: C_35  and  C_43
   15  A    between atoms: C_43  and  C_51
   16  A    between atoms: C_51  and  C_54
                            x       y       z     vdW  Elec       q    Type
                         _______ _______ _______ _____ _____    ______ ____

>  <TORSDO>
F 16

$$$$
=
 OpenBabel11052419363D

 55 61  0  0  1  0  0  0  0  0999 V2000
  185.5620  178.6350  142.7180 C   0  0  1  0  0  3  0  0  0  0  0  0
  185.6040  178.6900  144.2320 C   0  0  0  0  0  2  0  0  0  0  0  0
  187.0240  178.4220  144.7230 C   0  0  0  0  0  2  0  0  0  0  0  0
  185.9520  177.8560  147.1760 S   0  0  0  0  0  1  0  0  0  0  0  0
  187.0960  177.3650  145.8340 C   0  0  1  0  0  0  0  0  0  0  0  0
  186.6160  176.1840  145.2980 F   0  0  0  0  0  0  0  0  0  0  0  0
  189.3730  174.6160  146.1260 C   0  0  0  0  0  2  0  0  0  0  0  0
  191.1360  176.2460  146.9180 O   0  0  0  0  0  0  0  0  0  0  0  0
  188.5560  177.1330  146.3600 C   0  0  1  0  0  0  0  0  0  0  0  0
  189.1950  176.6910  144.0600 F   0  0  0  0  0  0  0  0  0  0  0  0
  189.5920  177.3310  145.2290 C   0  0  2  0  0  3  0  0  0  0  0  0
  187.8170  175.2650  147.9030 O   0  0  0  0  0  1  0  0  0  0  0  0
  190.1480  175.2730  147.2690 C   0  0  1  0  0  3  0  0  0  0  0  0
  191.0070  176.8790  145.6550 C   0  0  2  0  0  3  0  0  0  0  0  0
  188.8380  178.0600  147.3680 O   0  0  0  0  0  1  0  0  0  0  0  0
  188.7300  175.7140  146.9530 C   0  0  1  0  0  0  0  0  0  0  0  0
  191.9460  176.3010  144.6010 C   0  0  1  0  0  3  0  0  0  0  0  0
  192.1940  177.2180  143.5890 O   0  0  0  0  0  1  0  0  0  0  0  0
  193.2420  175.8570  145.2330 C   0  0  0  0  0  2  0  0  0  0  0  0
  194.1750  176.8820  145.1360 O   0  0  0  0  0  1  0  0  0  0  0  0
  186.8890  178.0960  142.1900 C   0  0  0  0  0  2  0  0  0  0  0  0
  186.7390  176.6740  141.6740 C   0  0  0  0  0  2  0  0  0  0  0  0
  188.0060  176.1570  141.2930 O   0  0  0  0  0  0  0  0  0  0  0  0
  187.5470  174.0520  142.0740 O   0  0  0  0  0  0  0  0  0  0  0  0
  189.4570  174.2580  140.7480 N   0  0  0  0  0  2  0  0  0  0  0  0
  188.2980  174.7980  141.3900 C   0  0  0  0  0  0  0  0  0  0  0  0
  191.4230  172.6630  144.1960 C   0  0  0  0  0  3  0  0  0  0  0  0
  189.2080  172.2540  138.4560 C   0  0  0  0  0  3  0  0  0  0  0  0
  194.5130  171.6610  142.2500 C   0  0  0  0  0  2  0  0  0  0  0  0
  189.5540  171.8310  137.1680 C   0  0  0  0  0  3  0  0  0  0  0  0
  191.5120  171.9820  139.1600 C   0  0  0  0  0  0  0  0  0  0  0  0
  191.8530  171.5700  137.8690 C   0  0  0  0  0  3  0  0  0  0  0  0
  190.8760  171.4930  136.8740 C   0  0  0  0  0  3  0  0  0  0  0  0
  190.1820  172.3330  139.4590 C   0  0  0  0  0  0  0  0  0  0  0  0
  190.5240  172.8370  143.1880 N   0  0  0  0  0  0  0  0  0  0  0  0
  195.0340  171.4400  144.6650 C   0  0  2  0  0  3  0  0  0  0  0  0
  192.1650  172.2660  141.5460 C   0  0  0  0  0  0  0  0  0  0  0  0
  192.7340  172.2840  143.9110 C   0  0  0  0  0  0  0  0  0  0  0  0
  192.5070  171.9950  140.1830 N   0  0  0  0  0  0  0  0  0  0  0  0
  193.6610  171.9860  145.0580 C   0  0  0  0  0  2  0  0  0  0  0  0
  189.7970  172.8450  140.8250 C   0  0  0  0  0  0  0  0  0  0  0  0
  195.0150  170.7120  143.3240 C   0  0  0  0  0  2  0  0  0  0  0  0
  190.8520  172.6370  141.8840 C   0  0  0  0  0  0  0  0  0  0  0  0
  193.1110  172.0880  142.5690 C   0  0  0  0  0  0  0  0  0  0  0  0
  195.4700  170.5640  145.6620 O   0  0  0  0  0  0  0  0  0  0  0  0
  196.8100  170.8740  145.8810 C   0  0  0  0  0  2  0  0  0  0  0  0
  196.9490  172.3790  146.0270 C   0  0  0  0  0  1  0  0  0  0  0  0
  184.4140  177.7390  142.2850 C   0  0  0  0  0  2  0  0  0  0  0  0
  183.7740  178.3090  141.0280 C   0  0  0  0  0  2  0  0  0  0  0  0
  179.5240  178.6810  141.5600 C   0  0  0  0  0  3  0  0  0  0  0  0
  182.2990  178.4520  141.2010 C   0  0  0  0  0  0  0  0  0  0  0  0
  181.7900  179.0310  142.3700 C   0  0  0  0  0  3  0  0  0  0  0  0
  180.0320  178.1080  140.3890 C   0  0  0  0  0  3  0  0  0  0  0  0
  180.4030  179.1440  142.5500 C   0  0  0  0  0  3  0  0  0  0  0  0
  181.4190  177.9920  140.2090 C   0  0  0  0  0  3  0  0  0  0  0  0
  1 21  1  1  0  0  0
  1  2  1  0  0  0  0
  2  3  1  0  0  0  0
  3  5  1  0  0  0  0
  5  6  1  6  0  0  0
  5  9  1  0  0  0  0
  5  4  1  0  0  0  0
  7 16  1  0  0  0  0
  8 13  1  0  0  0  0
  9 16  1  0  0  0  0
  9 15  1  1  0  0  0
 11 10  1  6  0  0  0
 11 14  1  0  0  0  0
 11  9  1  0  0  0  0
 13  7  1  6  0  0  0
 14 17  1  6  0  0  0
 14  8  1  0  0  0  0
 16 13  1  0  0  0  0
 16 12  1  1  0  0  0
 17 18  1  6  0  0  0
 17 19  1  0  0  0  0
 20 19  1  0  0  0  0
 22 21  1  0  0  0  0
 23 26  1  0  0  0  0
 23 22  1  0  0  0  0
 25 41  1  0  0  0  0
 25 26  1  0  0  0  0
 26 24  2  0  0  0  0
 28 34  1  0  0  0  0
 29 44  1  0  0  0  0
 29 42  1  0  0  0  0
 30 28  2  0  0  0  0
 31 34  2  0  0  0  0
 31 39  1  0  0  0  0
 32 31  1  0  0  0  0
 33 30  1  0  0  0  0
 33 32  2  0  0  0  0
 34 41  1  0  0  0  0
 35 27  2  0  0  0  0
 36 40  1  0  0  0  0
 36 45  1  1  0  0  0
 37 43  1  0  0  0  0
 37 44  1  0  0  0  0
 38 27  1  0  0  0  0
 38 40  1  0  0  0  0
 39 37  2  0  0  0  0
 41 43  2  0  0  0  0
 42 36  1  0  0  0  0
 43 35  1  0  0  0  0
 44 38  2  0  0  0  0
 45 46  1  0  0  0  0
 46 47  1  0  0  0  0
 48  1  1  0  0  0  0
 49 51  1  0  0  0  0
 49 48  1  0  0  0  0
 50 54  1  0  0  0  0
 51 52  1  0  0  0  0
 52 54  2  0  0  0  0
 53 50  2  0  0  0  0
 55 53  1  0  0  0  0
 55 51  2  0  0  0  0
M  END
>  <MODEL>
4

>  <REMARK>
 VINA RESULT:      -6.5      3.142      4.676
  Name = 
  16 active torsions:
  status: ('A' for Active; 'I' for Inactive)
    1  A    between atoms: O_4  and  C_37
    2  A    between atoms: O_4  and  C_40
    3  A    between atoms: C_6  and  C_20
    4  A    between atoms: C_8  and  C_22
    5  A    between atoms: C_8  and  C_43
    6  A    between atoms: O_10  and  C_18
    7  A    between atoms: O_10  and  C_32
    8  A    between atoms: C_11  and  C_29
    9  A    between atoms: N_19  and  C_45
   10  A    between atoms: C_20  and  C_22
   11  A    between atoms: C_27  and  C_54
   12  A    between atoms: C_29  and  C_38
   13  A    between atoms: C_35  and  C_37
   14  A    between atoms: C_35  and  C_43
   15  A    between atoms: C_43  and  C_51
   16  A    between atoms: C_51  and  C_54
                            x       y       z     vdW  Elec       q    Type
                         _______ _______ _______ _____ _____    ______ ____

>  <TORSDO>
F 16

$$$$
=
 OpenBabel11052419363D

 55 61  0  0  1  0  0  0  0  0999 V2000
  191.3910  169.6840  141.5980 C   0  0  1  0  0  3  0  0  0  0  0  0
  190.8740  169.9610  140.2010 C   0  0  0  0  0  2  0  0  0  0  0  0
  192.0440  170.0820  139.2280 C   0  0  0  0  0  2  0  0  0  0  0  0
  190.9900  169.9740  136.7050 S   0  0  0  0  0  1  0  0  0  0  0  0
  191.7460  170.9910  138.0270 C   0  0  1  0  0  0  0  0  0  0  0  0
  190.7930  171.9030  138.4380 F   0  0  0  0  0  0  0  0  0  0  0  0
  192.7140  174.4060  137.5460 C   0  0  0  0  0  2  0  0  0  0  0  0
  195.0350  173.5950  136.9540 O   0  0  0  0  0  0  0  0  0  0  0  0
  193.0130  171.7660  137.5210 C   0  0  1  0  0  0  0  0  0  0  0  0
  193.2720  172.5960  139.7880 F   0  0  0  0  0  0  0  0  0  0  0  0
  193.9680  172.0940  138.6930 C   0  0  2  0  0  3  0  0  0  0  0  0
  191.6730  173.0450  135.7950 O   0  0  0  0  0  1  0  0  0  0  0  0
  193.7600  174.0460  136.4890 C   0  0  1  0  0  3  0  0  0  0  0  0
  195.0980  173.0590  138.2660 C   0  0  2  0  0  3  0  0  0  0  0  0
  193.7120  170.9680  136.6100 O   0  0  0  0  0  1  0  0  0  0  0  0
  192.6290  173.0830  136.8060 C   0  0  1  0  0  0  0  0  0  0  0  0
  195.6510  174.0460  139.2880 C   0  0  1  0  0  3  0  0  0  0  0  0
  196.2350  173.3890  140.3610 O   0  0  0  0  0  1  0  0  0  0  0  0
  196.6470  174.9760  138.6400 C   0  0  0  0  0  2  0  0  0  0  0  0
  197.3510  175.6550  139.6260 O   0  0  0  0  0  1  0  0  0  0  0  0
  192.9180  169.6710  141.5850 C   0  0  0  0  0  2  0  0  0  0  0  0
  193.4770  169.3070  142.9500 C   0  0  0  0  0  2  0  0  0  0  0  0
  194.6810  170.0200  143.1900 O   0  0  0  0  0  0  0  0  0  0  0  0
  194.8860  170.9270  145.2840 O   0  0  0  0  0  0  0  0  0  0  0  0
  194.5410  172.4420  143.5420 N   0  0  0  0  0  2  0  0  0  0  0  0
  194.7210  171.1160  144.0500 C   0  0  0  0  0  0  0  0  0  0  0  0
  190.9610  173.9440  145.3370 C   0  0  0  0  0  3  0  0  0  0  0  0
  196.9670  174.2460  143.9760 C   0  0  0  0  0  3  0  0  0  0  0  0
  191.1700  177.2590  143.5180 C   0  0  0  0  0  2  0  0  0  0  0  0
  197.9410  175.1150  143.4740 C   0  0  0  0  0  3  0  0  0  0  0  0
  195.2380  175.8170  143.3300 C   0  0  0  0  0  0  0  0  0  0  0  0
  196.2150  176.6770  142.8200 C   0  0  0  0  0  3  0  0  0  0  0  0
  197.5660  176.3270  142.8920 C   0  0  0  0  0  3  0  0  0  0  0  0
  195.6110  174.5890  143.9080 C   0  0  0  0  0  0  0  0  0  0  0  0
  192.2320  173.4820  145.1860 N   0  0  0  0  0  0  0  0  0  0  0  0
  188.9330  177.1170  144.5800 C   0  0  2  0  0  3  0  0  0  0  0  0
  192.8580  175.4310  143.9520 C   0  0  0  0  0  0  0  0  0  0  0  0
  190.5910  175.1740  144.7950 C   0  0  0  0  0  0  0  0  0  0  0  0
  193.8670  176.2140  143.3080 N   0  0  0  0  0  0  0  0  0  0  0  0
  189.2120  175.7020  145.0880 C   0  0  0  0  0  2  0  0  0  0  0  0
  194.5750  173.6130  144.4060 C   0  0  0  0  0  0  0  0  0  0  0  0
  190.2010  177.9580  144.4540 C   0  0  0  0  0  2  0  0  0  0  0  0
  193.1860  174.1920  144.5260 C   0  0  0  0  0  0  0  0  0  0  0  0
  191.5490  175.9250  144.0890 C   0  0  0  0  0  0  0  0  0  0  0  0
  188.0470  177.7430  145.4610 O   0  0  0  0  0  0  0  0  0  0  0  0
  186.7700  177.4570  144.9830 C   0  0  0  0  0  2  0  0  0  0  0  0
  186.6600  177.9520  143.5510 C   0  0  0  0  0  1  0  0  0  0  0  0
  190.8780  170.7610  142.5400 C   0  0  0  0  0  2  0  0  0  0  0  0
  191.3190  172.1260  142.0360 C   0  0  0  0  0  2  0  0  0  0  0  0
  187.9490  174.7720  141.6920 C   0  0  0  0  0  3  0  0  0  0  0  0
  190.1570  173.0550  141.9290 C   0  0  0  0  0  0  0  0  0  0  0  0
  188.9270  172.6950  142.4940 C   0  0  0  0  0  3  0  0  0  0  0  0
  189.1790  175.1350  141.1320 C   0  0  0  0  0  3  0  0  0  0  0  0
  187.8230  173.5530  142.3730 C   0  0  0  0  0  3  0  0  0  0  0  0
  190.2830  174.2770  141.2500 C   0  0  0  0  0  3  0  0  0  0  0  0
  1  2  1  6  0  0  0
  1 48  1  0  0  0  0
  3  2  1  0  0  0  0
  5  4  1  6  0  0  0
  5  6  1  0  0  0  0
  5  3  1  0  0  0  0
  8 14  1  0  0  0  0
  9 15  1  6  0  0  0
  9  5  1  0  0  0  0
  9 11  1  0  0  0  0
 11 10  1  1  0  0  0
 13 16  1  0  0  0  0
 13  8  1  0  0  0  0
 13  7  1  1  0  0  0
 14 11  1  0  0  0  0
 14 17  1  1  0  0  0
 16 12  1  6  0  0  0
 16  9  1  0  0  0  0
 16  7  1  0  0  0  0
 17 18  1  1  0  0  0
 19 17  1  0  0  0  0
 19 20  1  0  0  0  0
 21  1  1  0  0  0  0
 21 22  1  0  0  0  0
 22 23  1  0  0  0  0
 23 26  1  0  0  0  0
 25 26  1  0  0  0  0
 25 41  1  0  0  0  0
 26 24  2  0  0  0  0
 29 44  1  0  0  0  0
 29 42  1  0  0  0  0
 30 28  2  0  0  0  0
 31 34  1  0  0  0  0
 32 33  2  0  0  0  0
 32 31  1  0  0  0  0
 33 30  1  0  0  0  0
 34 28  1  0  0  0  0
 34 41  2  0  0  0  0
 35 27  1  0  0  0  0
 36 40  1  0  0  0  0
 36 45  1  1  0  0  0
 37 44  2  0  0  0  0
 37 43  1  0  0  0  0
 38 40  1  0  0  0  0
 38 27  2  0  0  0  0
 39 31  2  0  0  0  0
 39 37  1  0  0  0  0
 41 43  1  0  0  0  0
 42 36  1  0  0  0  0
 43 35  2  0  0  0  0
 44 38  1  0  0  0  0
 46 45  1  0  0  0  0
 47 46  1  0  0  0  0
 49 48  1  0  0  0  0
 50 54  1  0  0  0  0
 51 49  1  0  0  0  0
 51 52  1  0  0  0  0
 53 55  1  0  0  0  0
 53 50  2  0  0  0  0
 54 52  2  0  0  0  0
 55 51  2  0  0  0  0
M  END
>  <MODEL>
5

>  <REMARK>
 VINA RESULT:      -6.4      3.051      7.759
  Name = 
  16 active torsions:
  status: ('A' for Active; 'I' for Inactive)
    1  A    between atoms: O_4  and  C_37
    2  A    between atoms: O_4  and  C_40
    3  A    between atoms: C_6  and  C_20
    4  A    between atoms: C_8  and  C_22
    5  A    between atoms: C_8  and  C_43
    6  A    between atoms: O_10  and  C_18
    7  A    between atoms: O_10  and  C_32
    8  A    between atoms: C_11  and  C_29
    9  A    between atoms: N_19  and  C_45
   10  A    between atoms: C_20  and  C_22
   11  A    between atoms: C_27  and  C_54
   12  A    between atoms: C_29  and  C_38
   13  A    between atoms: C_35  and  C_37
   14  A    between atoms: C_35  and  C_43
   15  A    between atoms: C_43  and  C_51
   16  A    between atoms: C_51  and  C_54
                            x       y       z     vdW  Elec       q    Type
                         _______ _______ _______ _____ _____    ______ ____

>  <TORSDO>
F 16

$$$$
=
 OpenBabel11052419363D

 55 61  0  0  1  0  0  0  0  0999 V2000
  193.0940  169.7070  138.6630 C   0  0  1  0  0  3  0  0  0  0  0  0
  194.0380  170.3320  137.6560 C   0  0  0  0  0  2  0  0  0  0  0  0
  195.3580  170.6920  138.3340 C   0  0  0  0  0  2  0  0  0  0  0  0
  197.5750  170.7170  136.7300 S   0  0  0  0  0  1  0  0  0  0  0  0
  196.2190  171.6640  137.5140 C   0  0  1  0  0  0  0  0  0  0  0  0
  195.4180  172.1520  136.4980 F   0  0  0  0  0  0  0  0  0  0  0  0
  196.1370  175.2410  137.3460 C   0  0  0  0  0  2  0  0  0  0  0  0
  197.2600  175.3060  139.6110 O   0  0  0  0  0  0  0  0  0  0  0  0
  196.7560  172.8670  138.3660 C   0  0  1  0  0  0  0  0  0  0  0  0
  194.4420  173.3970  138.8740 F   0  0  0  0  0  0  0  0  0  0  0  0
  195.7170  173.3080  139.4230 C   0  0  2  0  0  3  0  0  0  0  0  0
  197.9340  173.8910  136.3710 O   0  0  0  0  0  1  0  0  0  0  0  0
  197.4040  175.3910  138.1900 C   0  0  1  0  0  3  0  0  0  0  0  0
  196.1170  174.6330  140.1110 C   0  0  2  0  0  3  0  0  0  0  0  0
  197.9160  172.4750  139.0420 O   0  0  0  0  0  1  0  0  0  0  0  0
  197.1090  174.0830  137.4770 C   0  0  1  0  0  0  0  0  0  0  0  0
  195.0190  175.5840  140.5740 C   0  0  1  0  0  3  0  0  0  0  0  0
  194.1250  174.9490  141.4240 O   0  0  0  0  0  1  0  0  0  0  0  0
  195.6170  176.7920  141.2530 C   0  0  0  0  0  2  0  0  0  0  0  0
  196.2190  176.4000  142.4420 O   0  0  0  0  0  1  0  0  0  0  0  0
  193.5110  170.1140  140.0750 C   0  0  0  0  0  2  0  0  0  0  0  0
  192.6230  169.4590  141.1200 C   0  0  0  0  0  2  0  0  0  0  0  0
  193.3830  169.1510  142.2800 O   0  0  0  0  0  0  0  0  0  0  0  0
  192.7870  169.1930  144.4930 O   0  0  0  0  0  0  0  0  0  0  0  0
  193.4010  171.2430  143.5590 N   0  0  0  0  0  2  0  0  0  0  0  0
  193.1860  169.8300  143.4820 C   0  0  0  0  0  0  0  0  0  0  0  0
  189.7410  173.3280  144.3060 C   0  0  0  0  0  3  0  0  0  0  0  0
  195.5600  171.7910  145.6490 C   0  0  0  0  0  3  0  0  0  0  0  0
  191.4280  176.7160  144.4010 C   0  0  0  0  0  2  0  0  0  0  0  0
  196.7930  172.3470  146.0060 C   0  0  0  0  0  3  0  0  0  0  0  0
  194.7040  174.0070  145.1660 C   0  0  0  0  0  0  0  0  0  0  0  0
  195.9420  174.5560  145.5150 C   0  0  0  0  0  3  0  0  0  0  0  0
  196.9850  173.7280  145.9350 C   0  0  0  0  0  3  0  0  0  0  0  0
  194.5090  172.6150  145.2270 C   0  0  0  0  0  0  0  0  0  0  0  0
  190.8090  172.4990  144.4660 N   0  0  0  0  0  0  0  0  0  0  0  0
  188.9770  177.0920  144.3360 C   0  0  2  0  0  3  0  0  0  0  0  0
  192.3090  174.3570  144.5820 C   0  0  0  0  0  0  0  0  0  0  0  0
  189.9220  174.7090  144.2770 C   0  0  0  0  0  0  0  0  0  0  0  0
  193.6270  174.8690  144.7990 N   0  0  0  0  0  0  0  0  0  0  0  0
  188.7040  175.5920  144.2200 C   0  0  0  0  0  2  0  0  0  0  0  0
  193.2060  171.9880  144.7940 C   0  0  0  0  0  0  0  0  0  0  0  0
  190.2640  177.3980  145.0980 C   0  0  0  0  0  2  0  0  0  0  0  0
  192.0760  172.9720  144.6170 C   0  0  0  0  0  0  0  0  0  0  0  0
  191.2220  175.2310  144.4110 C   0  0  0  0  0  0  0  0  0  0  0  0
  187.8980  177.6950  144.9870 O   0  0  0  0  0  0  0  0  0  0  0  0
  187.9600  177.2600  146.3080 C   0  0  0  0  0  2  0  0  0  0  0  0
  186.7410  177.7770  147.0540 C   0  0  0  0  0  1  0  0  0  0  0  0
  191.6780  170.1750  138.3720 C   0  0  0  0  0  2  0  0  0  0  0  0
  191.6890  171.6670  138.0730 C   0  0  0  0  0  2  0  0  0  0  0  0
  189.1020  173.8210  140.7450 C   0  0  0  0  0  3  0  0  0  0  0  0
  190.7980  172.4050  139.0140 C   0  0  0  0  0  0  0  0  0  0  0  0
  189.4280  172.1150  139.0440 C   0  0  0  0  0  3  0  0  0  0  0  0
  190.4710  174.1080  140.7200 C   0  0  0  0  0  3  0  0  0  0  0  0
  188.5810  172.8250  139.9080 C   0  0  0  0  0  3  0  0  0  0  0  0
  191.3200  173.4000  139.8540 C   0  0  0  0  0  3  0  0  0  0  0  0
  1  2  1  6  0  0  0
  1 21  1  0  0  0  0
  2  3  1  0  0  0  0
  4  5  1  0  0  0  0
  5  6  1  6  0  0  0
  5  3  1  0  0  0  0
  5  9  1  0  0  0  0
  7 16  1  0  0  0  0
  8 14  1  0  0  0  0
  9 15  1  1  0  0  0
  9 11  1  0  0  0  0
 11 10  1  6  0  0  0
 11 14  1  0  0  0  0
 13  7  1  6  0  0  0
 13  8  1  0  0  0  0
 14 17  1  6  0  0  0
 16 12  1  6  0  0  0
 16 13  1  0  0  0  0
 16  9  1  0  0  0  0
 17 19  1  0  0  0  0
 17 18  1  1  0  0  0
 19 20  1  0  0  0  0
 21 22  1  0  0  0  0
 22 23  1  0  0  0  0
 23 26  1  0  0  0  0
 25 41  1  0  0  0  0
 26 25  1  0  0  0  0
 26 24  2  0  0  0  0
 27 35  1  0  0  0  0
 28 30  2  0  0  0  0
 29 44  1  0  0  0  0
 29 42  1  0  0  0  0
 31 34  1  0  0  0  0
 31 32  1  0  0  0  0
 32 33  2  0  0  0  0
 33 30  1  0  0  0  0
 34 28  1  0  0  0  0
 35 43  2  0  0  0  0
 36 45  1  1  0  0  0
 36 42  1  0  0  0  0
 37 43  1  0  0  0  0
 37 39  1  0  0  0  0
 38 27  2  0  0  0  0
 38 44  1  0  0  0  0
 39 31  2  0  0  0  0
 40 38  1  0  0  0  0
 40 36  1  0  0  0  0
 41 34  2  0  0  0  0
 43 41  1  0  0  0  0
 44 37  2  0  0  0  0
 45 46  1  0  0  0  0
 46 47  1  0  0  0  0
 48  1  1  0  0  0  0
 49 48  1  0  0  0  0
 49 51  1  0  0  0  0
 51 52  2  0  0  0  0
 51 55  1  0  0  0  0
 52 54  1  0  0  0  0
 53 50  1  0  0  0  0
 54 50  2  0  0  0  0
 55 53  2  0  0  0  0
M  END
>  <MODEL>
6

>  <REMARK>
 VINA RESULT:      -6.2      2.940      8.010
  Name = 
  16 active torsions:
  status: ('A' for Active; 'I' for Inactive)
    1  A    between atoms: O_4  and  C_37
    2  A    between atoms: O_4  and  C_40
    3  A    between atoms: C_6  and  C_20
    4  A    between atoms: C_8  and  C_22
    5  A    between atoms: C_8  and  C_43
    6  A    between atoms: O_10  and  C_18
    7  A    between atoms: O_10  and  C_32
    8  A    between atoms: C_11  and  C_29
    9  A    between atoms: N_19  and  C_45
   10  A    between atoms: C_20  and  C_22
   11  A    between atoms: C_27  and  C_54
   12  A    between atoms: C_29  and  C_38
   13  A    between atoms: C_35  and  C_37
   14  A    between atoms: C_35  and  C_43
   15  A    between atoms: C_43  and  C_51
   16  A    between atoms: C_51  and  C_54
                            x       y       z     vdW  Elec       q    Type
                         _______ _______ _______ _____ _____    ______ ____

>  <TORSDO>
F 16

$$$$
=
 OpenBabel11052419363D

 55 61  0  0  1  0  0  0  0  0999 V2000
  196.9730  174.5230  141.6340 C   0  0  1  0  0  3  0  0  0  0  0  0
  196.5400  173.6920  140.4420 C   0  0  0  0  0  2  0  0  0  0  0  0
  195.8690  172.4080  140.9200 C   0  0  0  0  0  2  0  0  0  0  0  0
  196.1900  172.0040  138.2330 S   0  0  0  0  0  1  0  0  0  0  0  0
  195.3160  171.5460  139.7750 C   0  0  1  0  0  0  0  0  0  0  0  0
  195.6480  170.2350  140.0610 F   0  0  0  0  0  0  0  0  0  0  0  0
  192.5100  169.3200  139.7820 C   0  0  0  0  0  2  0  0  0  0  0  0
  190.9930  171.3390  139.6630 O   0  0  0  0  0  0  0  0  0  0  0  0
  193.7580  171.6600  139.6250 C   0  0  1  0  0  0  0  0  0  0  0  0
  193.5970  170.9740  141.9480 F   0  0  0  0  0  0  0  0  0  0  0  0
  193.0800  171.8530  141.0020 C   0  0  2  0  0  3  0  0  0  0  0  0
  193.7090  169.9640  137.7450 O   0  0  0  0  0  1  0  0  0  0  0  0
  191.6450  170.2770  138.9610 C   0  0  1  0  0  3  0  0  0  0  0  0
  191.5420  171.7280  140.9120 C   0  0  2  0  0  3  0  0  0  0  0  0
  193.4490  172.7720  138.8350 O   0  0  0  0  0  1  0  0  0  0  0  0
  193.1580  170.4080  138.9440 C   0  0  1  0  0  0  0  0  0  0  0  0
  190.7770  171.1630  142.1030 C   0  0  1  0  0  3  0  0  0  0  0  0
  191.5760  171.1020  143.2350 O   0  0  0  0  0  1  0  0  0  0  0  0
  189.5430  171.9860  142.3780 C   0  0  0  0  0  2  0  0  0  0  0  0
  189.7360  172.7310  143.5340 O   0  0  0  0  0  1  0  0  0  0  0  0
  195.7760  175.3010  142.1750 C   0  0  0  0  0  2  0  0  0  0  0  0
  194.8140  175.6770  141.0610 C   0  0  0  0  0  2  0  0  0  0  0  0
  193.7150  176.4040  141.5900 O   0  0  0  0  0  0  0  0  0  0  0  0
  192.6390  174.5150  142.3150 O   0  0  0  0  0  0  0  0  0  0  0  0
  191.7340  176.5460  143.0280 N   0  0  0  0  0  2  0  0  0  0  0  0
  192.7060  175.7730  142.3160 C   0  0  0  0  0  0  0  0  0  0  0  0
  187.6990  176.6010  141.6110 C   0  0  0  0  0  3  0  0  0  0  0  0
  192.0120  175.4370  145.8600 C   0  0  0  0  0  3  0  0  0  0  0  0
  186.4570  178.6470  144.5450 C   0  0  0  0  0  2  0  0  0  0  0  0
  192.3030  175.6240  147.2160 C   0  0  0  0  0  3  0  0  0  0  0  0
  190.1320  176.9540  146.0590 C   0  0  0  0  0  0  0  0  0  0  0  0
  190.4330  177.1450  147.4100 C   0  0  0  0  0  3  0  0  0  0  0  0
  191.5170  176.4800  147.9890 C   0  0  0  0  0  3  0  0  0  0  0  0
  190.9270  176.1000  145.2730 C   0  0  0  0  0  0  0  0  0  0  0  0
  188.8920  176.1530  142.0900 N   0  0  0  0  0  0  0  0  0  0  0  0
  184.6470  178.5760  142.8510 C   0  0  2  0  0  3  0  0  0  0  0  0
  188.5590  177.3010  144.1600 C   0  0  0  0  0  0  0  0  0  0  0  0
  186.8900  177.4210  142.3940 C   0  0  0  0  0  0  0  0  0  0  0  0
  188.9840  177.5890  145.4950 N   0  0  0  0  0  0  0  0  0  0  0  0
  185.5270  177.7950  141.8750 C   0  0  0  0  0  2  0  0  0  0  0  0
  190.6660  175.9260  143.7970 C   0  0  0  0  0  0  0  0  0  0  0  0
  184.9980  178.2990  144.3100 C   0  0  0  0  0  2  0  0  0  0  0  0
  189.3340  176.4660  143.3370 C   0  0  0  0  0  0  0  0  0  0  0  0
  187.3270  177.7810  143.6830 C   0  0  0  0  0  0  0  0  0  0  0  0
  183.3110  178.2330  142.6220 O   0  0  0  0  0  0  0  0  0  0  0  0
  183.1710  178.1570  141.2380 C   0  0  0  0  0  2  0  0  0  0  0  0
  181.6980  178.2760  140.8870 C   0  0  0  0  0  1  0  0  0  0  0  0
  197.5350  173.6010  142.7030 C   0  0  0  0  0  2  0  0  0  0  0  0
  196.9460  173.9760  144.0550 C   0  0  0  0  0  2  0  0  0  0  0  0
  194.6000  170.7700  145.6970 C   0  0  0  0  0  3  0  0  0  0  0  0
  196.1300  172.8560  144.6080 C   0  0  0  0  0  0  0  0  0  0  0  0
  194.8060  173.0900  144.9970 C   0  0  0  0  0  3  0  0  0  0  0  0
  195.9220  170.5350  145.3040 C   0  0  0  0  0  3  0  0  0  0  0  0
  194.0420  172.0470  145.5430 C   0  0  0  0  0  3  0  0  0  0  0  0
  196.6880  171.5780  144.7590 C   0  0  0  0  0  3  0  0  0  0  0  0
  1  2  1  6  0  0  0
  1 21  1  0  0  0  0
  1 48  1  0  0  0  0
  2  3  1  0  0  0  0
  5  4  1  6  0  0  0
  5  6  1  0  0  0  0
  5  3  1  0  0  0  0
  8 14  1  0  0  0  0
  9 15  1  6  0  0  0
  9  5  1  0  0  0  0
  9 11  1  0  0  0  0
 11 10  1  1  0  0  0
 13  8  1  0  0  0  0
 13  7  1  1  0  0  0
 14 11  1  0  0  0  0
 14 17  1  1  0  0  0
 16 12  1  6  0  0  0
 16 13  1  0  0  0  0
 16  9  1  0  0  0  0
 16  7  1  0  0  0  0
 17 19  1  0  0  0  0
 17 18  1  1  0  0  0
 19 20  1  0  0  0  0
 22 23  1  0  0  0  0
 22 21  1  0  0  0  0
 23 26  1  0  0  0  0
 24 26  2  0  0  0  0
 25 41  1  0  0  0  0
 26 25  1  0  0  0  0
 27 35  2  0  0  0  0
 27 38  1  0  0  0  0
 28 30  1  0  0  0  0
 30 33  2  0  0  0  0
 31 32  2  0  0  0  0
 32 33  1  0  0  0  0
 34 28  2  0  0  0  0
 34 31  1  0  0  0  0
 35 43  1  0  0  0  0
 36 45  1  1  0  0  0
 36 42  1  0  0  0  0
 37 39  2  0  0  0  0
 38 44  2  0  0  0  0
 39 31  1  0  0  0  0
 40 38  1  0  0  0  0
 40 36  1  0  0  0  0
 41 34  1  0  0  0  0
 42 29  1  0  0  0  0
 43 41  2  0  0  0  0
 43 37  1  0  0  0  0
 44 37  1  0  0  0  0
 44 29  1  0  0  0  0
 46 45  1  0  0  0  0
 47 46  1  0  0  0  0
 48 49  1  0  0  0  0
 49 51  1  0  0  0  0
 51 55  2  0  0  0  0
 51 52  1  0  0  0  0
 52 54  2  0  0  0  0
 53 50  2  0  0  0  0
 54 50  1  0  0  0  0
 55 53  1  0  0  0  0
M  END
>  <MODEL>
7

>  <REMARK>
 VINA RESULT:      -5.9      3.139      9.299
  Name = 
  16 active torsions:
  status: ('A' for Active; 'I' for Inactive)
    1  A    between atoms: O_4  and  C_37
    2  A    between atoms: O_4  and  C_40
    3  A    between atoms: C_6  and  C_20
    4  A    between atoms: C_8  and  C_22
    5  A    between atoms: C_8  and  C_43
    6  A    between atoms: O_10  and  C_18
    7  A    between atoms: O_10  and  C_32
    8  A    between atoms: C_11  and  C_29
    9  A    between atoms: N_19  and  C_45
   10  A    between atoms: C_20  and  C_22
   11  A    between atoms: C_27  and  C_54
   12  A    between atoms: C_29  and  C_38
   13  A    between atoms: C_35  and  C_37
   14  A    between atoms: C_35  and  C_43
   15  A    between atoms: C_43  and  C_51
   16  A    between atoms: C_51  and  C_54
                            x       y       z     vdW  Elec       q    Type
                         _______ _______ _______ _____ _____    ______ ____

>  <TORSDO>
F 16

$$$$
=
 OpenBabel11052419363D

 55 61  0  0  1  0  0  0  0  0999 V2000
  194.1140  174.8910  144.9820 C   0  0  1  0  0  3  0  0  0  0  0  0
  193.3450  173.6260  145.3030 C   0  0  0  0  0  2  0  0  0  0  0  0
  193.6360  172.5590  144.2500 C   0  0  0  0  0  2  0  0  0  0  0  0
  192.3870  170.1850  143.7100 S   0  0  0  0  0  1  0  0  0  0  0  0
  192.3710  172.0110  143.5730 C   0  0  1  0  0  0  0  0  0  0  0  0
  191.2910  172.4680  144.3060 F   0  0  0  0  0  0  0  0  0  0  0  0
  192.1760  170.4900  140.3360 C   0  0  0  0  0  2  0  0  0  0  0  0
  191.7330  172.7810  139.3610 O   0  0  0  0  0  0  0  0  0  0  0  0
  192.2210  172.4890  142.0860 C   0  0  1  0  0  0  0  0  0  0  0  0
  190.0280  171.4490  142.0900 F   0  0  0  0  0  0  0  0  0  0  0  0
  190.7320  172.5750  141.6780 C   0  0  2  0  0  3  0  0  0  0  0  0
  194.2830  171.2110  141.3570 O   0  0  0  0  0  1  0  0  0  0  0  0
  192.6840  171.7460  139.6250 C   0  0  1  0  0  3  0  0  0  0  0  0
  190.5610  172.8090  140.1590 C   0  0  2  0  0  3  0  0  0  0  0  0
  192.7780  173.7650  141.9510 O   0  0  0  0  0  1  0  0  0  0  0  0
  192.9540  171.5420  141.1070 C   0  0  1  0  0  0  0  0  0  0  0  0
  189.3440  172.2200  139.4540 C   0  0  1  0  0  3  0  0  0  0  0  0
  188.2570  173.0800  139.5210 O   0  0  0  0  0  1  0  0  0  0  0  0
  189.6690  171.9000  138.0160 C   0  0  0  0  0  2  0  0  0  0  0  0
  189.0010  172.7900  137.1850 O   0  0  0  0  0  1  0  0  0  0  0  0
  193.1530  176.0770  144.9400 C   0  0  0  0  0  2  0  0  0  0  0  0
  193.3380  176.8900  143.6700 C   0  0  0  0  0  2  0  0  0  0  0  0
  192.1620  177.6380  143.3940 O   0  0  0  0  0  0  0  0  0  0  0  0
  190.1230  177.8040  144.4270 O   0  0  0  0  0  0  0  0  0  0  0  0
  190.4850  175.8620  143.1830 N   0  0  0  0  0  2  0  0  0  0  0  0
  190.8950  177.1370  143.6870 C   0  0  0  0  0  0  0  0  0  0  0  0
  187.2140  176.4870  140.4980 C   0  0  0  0  0  3  0  0  0  0  0  0
  189.6710  174.4950  145.7900 C   0  0  0  0  0  3  0  0  0  0  0  0
  185.1860  178.4060  143.0560 C   0  0  0  0  0  2  0  0  0  0  0  0
  189.4850  174.5340  147.1760 C   0  0  0  0  0  3  0  0  0  0  0  0
  187.9610  176.1920  145.5160 C   0  0  0  0  0  0  0  0  0  0  0  0
  187.7860  176.2330  146.9020 C   0  0  0  0  0  3  0  0  0  0  0  0
  188.5460  175.4050  147.7320 C   0  0  0  0  0  3  0  0  0  0  0  0
  188.9130  175.3220  144.9520 C   0  0  0  0  0  0  0  0  0  0  0  0
  188.1270  175.8700  141.2970 N   0  0  0  0  0  0  0  0  0  0  0  0
  184.0810  178.6810  140.8520 C   0  0  2  0  0  3  0  0  0  0  0  0
  187.1810  176.8700  143.2510 C   0  0  0  0  0  0  0  0  0  0  0  0
  186.2480  177.3250  141.0510 C   0  0  0  0  0  0  0  0  0  0  0  0
  187.1340  176.9960  144.6750 N   0  0  0  0  0  0  0  0  0  0  0  0
  185.1850  177.8910  140.1480 C   0  0  0  0  0  2  0  0  0  0  0  0
  189.1710  175.3040  143.4660 C   0  0  0  0  0  0  0  0  0  0  0  0
  183.8790  178.2450  142.3010 C   0  0  0  0  0  2  0  0  0  0  0  0
  188.1280  176.0260  142.6480 C   0  0  0  0  0  0  0  0  0  0  0  0
  186.2330  177.5230  142.4450 C   0  0  0  0  0  0  0  0  0  0  0  0
  182.8880  178.5100  140.1450 O   0  0  0  0  0  0  0  0  0  0  0  0
  181.8920  178.3700  141.1080 C   0  0  0  0  0  2  0  0  0  0  0  0
  180.5550  178.1890  140.4110 C   0  0  0  0  0  1  0  0  0  0  0  0
  195.1790  175.1080  146.0440 C   0  0  0  0  0  2  0  0  0  0  0  0
  196.4320  174.3290  145.6710 C   0  0  0  0  0  2  0  0  0  0  0  0
  197.5360  175.1460  141.5970 C   0  0  0  0  0  3  0  0  0  0  0  0
  196.8320  174.6090  144.2610 C   0  0  0  0  0  0  0  0  0  0  0  0
  196.8490  175.9290  143.7940 C   0  0  0  0  0  3  0  0  0  0  0  0
  197.5250  173.8270  142.0650 C   0  0  0  0  0  3  0  0  0  0  0  0
  197.2000  176.1970  142.4620 C   0  0  0  0  0  3  0  0  0  0  0  0
  197.1730  173.5580  143.3960 C   0  0  0  0  0  3  0  0  0  0  0  0
  1 21  1  1  0  0  0
  1  2  1  0  0  0  0
  1 48  1  0  0  0  0
  3  2  1  0  0  0  0
  5  4  1  1  0  0  0
  5  3  1  0  0  0  0
  5  6  1  0  0  0  0
  7 16  1  0  0  0  0
  8 13  1  0  0  0  0
  8 14  1  0  0  0  0
  9 15  1  6  0  0  0
  9  5  1  0  0  0  0
 11  9  1  0  0  0  0
 11 10  1  6  0  0  0
 13  7  1  1  0  0  0
 13 16  1  0  0  0  0
 14 17  1  6  0  0  0
 14 11  1  0  0  0  0
 16 12  1  1  0  0  0
 16  9  1  0  0  0  0
 17 18  1  6  0  0  0
 19 17  1  0  0  0  0
 20 19  1  0  0  0  0
 22 21  1  0  0  0  0
 23 22  1  0  0  0  0
 23 26  1  0  0  0  0
 25 41  1  0  0  0  0
 25 26  1  0  0  0  0
 26 24  2  0  0  0  0
 27 38  2  0  0  0  0
 27 35  1  0  0  0  0
 28 30  2  0  0  0  0
 30 33  1  0  0  0  0
 31 32  1  0  0  0  0
 32 33  2  0  0  0  0
 34 31  1  0  0  0  0
 34 28  1  0  0  0  0
 35 43  2  0  0  0  0
 36 45  1  6  0  0  0
 36 42  1  0  0  0  0
 37 39  1  0  0  0  0
 38 44  1  0  0  0  0
 39 31  2  0  0  0  0
 40 36  1  0  0  0  0
 40 38  1  0  0  0  0
 41 34  2  0  0  0  0
 42 29  1  0  0  0  0
 43 37  1  0  0  0  0
 43 41  1  0  0  0  0
 44 29  1  0  0  0  0
 44 37  2  0  0  0  0
 45 46  1  0  0  0  0
 47 46  1  0  0  0  0
 49 48  1  0  0  0  0
 50 53  2  0  0  0  0
 50 54  1  0  0  0  0
 51 49  1  0  0  0  0
 52 51  1  0  0  0  0
 53 55  1  0  0  0  0
 54 52  2  0  0  0  0
 55 51  2  0  0  0  0
M  END
>  <MODEL>
8

>  <REMARK>
 VINA RESULT:      -5.9      2.959      9.031
  Name = 
  16 active torsions:
  status: ('A' for Active; 'I' for Inactive)
    1  A    between atoms: O_4  and  C_37
    2  A    between atoms: O_4  and  C_40
    3  A    between atoms: C_6  and  C_20
    4  A    between atoms: C_8  and  C_22
    5  A    between atoms: C_8  and  C_43
    6  A    between atoms: O_10  and  C_18
    7  A    between atoms: O_10  and  C_32
    8  A    between atoms: C_11  and  C_29
    9  A    between atoms: N_19  and  C_45
   10  A    between atoms: C_20  and  C_22
   11  A    between atoms: C_27  and  C_54
   12  A    between atoms: C_29  and  C_38
   13  A    between atoms: C_35  and  C_37
   14  A    between atoms: C_35  and  C_43
   15  A    between atoms: C_43  and  C_51
   16  A    between atoms: C_51  and  C_54
                            x       y       z     vdW  Elec       q    Type
                         _______ _______ _______ _____ _____    ______ ____

>  <TORSDO>
F 16

$$$$
=
 OpenBabel11052419363D

 55 61  0  0  1  0  0  0  0  0999 V2000
  189.6020  173.2970  139.3040 C   0  0  1  0  0  3  0  0  0  0  0  0
  190.8640  172.7900  138.6360 C   0  0  0  0  0  2  0  0  0  0  0  0
  192.0300  173.7230  138.9500 C   0  0  0  0  0  2  0  0  0  0  0  0
  192.9890  171.9320  137.1170 S   0  0  0  0  0  1  0  0  0  0  0  0
  193.2700  173.4610  138.0840 C   0  0  1  0  0  0  0  0  0  0  0  0
  193.3600  174.5060  137.1820 F   0  0  0  0  0  0  0  0  0  0  0  0
  196.3890  175.2180  138.2100 C   0  0  0  0  0  2  0  0  0  0  0  0
  197.0000  173.8510  140.2480 O   0  0  0  0  0  0  0  0  0  0  0  0
  194.5950  173.3920  138.9220 C   0  0  1  0  0  0  0  0  0  0  0  0
  193.9830  175.5480  139.8570 F   0  0  0  0  0  0  0  0  0  0  0  0
  194.5090  174.2990  140.1720 C   0  0  2  0  0  3  0  0  0  0  0  0
  196.0280  173.2190  136.8410 O   0  0  0  0  0  1  0  0  0  0  0  0
  197.1260  174.0320  138.8350 C   0  0  1  0  0  3  0  0  0  0  0  0
  195.8750  174.4360  140.8820 C   0  0  2  0  0  3  0  0  0  0  0  0
  194.8000  172.0790  139.3570 O   0  0  0  0  0  1  0  0  0  0  0  0
  195.8230  173.8150  138.0830 C   0  0  1  0  0  0  0  0  0  0  0  0
  196.2060  175.7410  141.5990 C   0  0  1  0  0  3  0  0  0  0  0  0
  195.1930  176.1090  142.4730 O   0  0  0  0  0  1  0  0  0  0  0  0
  197.5150  175.6210  142.3380 C   0  0  0  0  0  2  0  0  0  0  0  0
  197.2940  175.7970  143.6980 O   0  0  0  0  0  1  0  0  0  0  0  0
  188.4540  173.2930  138.2980 C   0  0  0  0  0  2  0  0  0  0  0  0
  188.3570  174.6230  137.5670 C   0  0  0  0  0  2  0  0  0  0  0  0
  187.1220  175.2560  137.8680 O   0  0  0  0  0  0  0  0  0  0  0  0
  187.0640  177.5370  138.0730 O   0  0  0  0  0  0  0  0  0  0  0  0
  187.0470  176.3300  140.0710 N   0  0  0  0  0  2  0  0  0  0  0  0
  187.0660  176.4140  138.6430 C   0  0  0  0  0  0  0  0  0  0  0  0
  190.0630  177.0730  143.0120 C   0  0  0  0  0  3  0  0  0  0  0  0
  184.7050  178.2850  140.2130 C   0  0  0  0  0  3  0  0  0  0  0  0
  187.6220  176.8530  145.8980 C   0  0  0  0  0  2  0  0  0  0  0  0
  183.3570  178.5500  140.4780 C   0  0  0  0  0  3  0  0  0  0  0  0
  185.0390  177.6770  142.5360 C   0  0  0  0  0  0  0  0  0  0  0  0
  183.6900  177.9350  142.7930 C   0  0  0  0  0  3  0  0  0  0  0  0
  182.8490  178.3710  141.7660 C   0  0  0  0  0  3  0  0  0  0  0  0
  185.5540  177.8470  141.2370 C   0  0  0  0  0  0  0  0  0  0  0  0
  189.2130  177.2480  141.9630 N   0  0  0  0  0  0  0  0  0  0  0  0
  189.9150  176.8610  146.8450 C   0  0  2  0  0  3  0  0  0  0  0  0
  187.3140  177.1680  143.4120 C   0  0  0  0  0  0  0  0  0  0  0  0
  189.5640  176.9360  144.3060 C   0  0  0  0  0  0  0  0  0  0  0  0
  185.9020  177.2940  143.6070 N   0  0  0  0  0  0  0  0  0  0  0  0
  190.5410  176.8650  145.4490 C   0  0  0  0  0  2  0  0  0  0  0  0
  186.9900  177.5140  140.9150 C   0  0  0  0  0  0  0  0  0  0  0  0
  188.5510  177.5450  146.8790 C   0  0  0  0  0  2  0  0  0  0  0  0
  187.8650  177.3130  142.1280 C   0  0  0  0  0  0  0  0  0  0  0  0
  188.1720  176.9790  144.5090 C   0  0  0  0  0  0  0  0  0  0  0  0
  190.7830  177.5100  147.7260 O   0  0  0  0  0  0  0  0  0  0  0  0
  191.9370  176.7320  147.7660 C   0  0  0  0  0  2  0  0  0  0  0  0
  191.5520  175.2960  148.0780 C   0  0  0  0  0  1  0  0  0  0  0  0
  189.2730  172.4040  140.4890 C   0  0  0  0  0  2  0  0  0  0  0  0
  188.7670  173.2590  141.6410 C   0  0  0  0  0  2  0  0  0  0  0  0
  191.7760  173.5750  144.6950 C   0  0  0  0  0  3  0  0  0  0  0  0
  189.8050  173.3840  142.7060 C   0  0  0  0  0  0  0  0  0  0  0  0
  191.1290  173.6740  142.3530 C   0  0  0  0  0  3  0  0  0  0  0  0
  190.4520  173.2910  145.0480 C   0  0  0  0  0  3  0  0  0  0  0  0
  192.1140  173.7670  143.3480 C   0  0  0  0  0  3  0  0  0  0  0  0
  189.4660  173.1960  144.0540 C   0  0  0  0  0  3  0  0  0  0  0  0
  1 21  1  6  0  0  0
  1 48  1  0  0  0  0
  2  3  1  0  0  0  0
  2  1  1  0  0  0  0
  5  4  1  6  0  0  0
  5  9  1  0  0  0  0
  5  3  1  0  0  0  0
  6  5  1  0  0  0  0
  8 14  1  0  0  0  0
  9 15  1  1  0  0  0
  9 11  1  0  0  0  0
 11 10  1  6  0  0  0
 11 14  1  0  0  0  0
 13  7  1  1  0  0  0
 13  8  1  0  0  0  0
 14 17  1  6  0  0  0
 16 12  1  6  0  0  0
 16  7  1  0  0  0  0
 16 13  1  0  0  0  0
 16  9  1  0  0  0  0
 17 19  1  0  0  0  0
 17 18  1  1  0  0  0
 19 20  1  0  0  0  0
 22 23  1  0  0  0  0
 22 21  1  0  0  0  0
 23 26  1  0  0  0  0
 24 26  2  0  0  0  0
 25 41  1  0  0  0  0
 26 25  1  0  0  0  0
 27 38  1  0  0  0  0
 28 30  2  0  0  0  0
 28 34  1  0  0  0  0
 29 42  1  0  0  0  0
 30 33  1  0  0  0  0
 31 32  1  0  0  0  0
 31 39  1  0  0  0  0
 33 32  2  0  0  0  0
 34 31  2  0  0  0  0
 35 43  1  0  0  0  0
 35 27  2  0  0  0  0
 36 42  1  0  0  0  0
 36 45  1  1  0  0  0
 37 39  2  0  0  0  0
 37 44  1  0  0  0  0
 38 44  2  0  0  0  0
 38 40  1  0  0  0  0
 40 36  1  0  0  0  0
 41 34  1  0  0  0  0
 41 43  2  0  0  0  0
 43 37  1  0  0  0  0
 44 29  1  0  0  0  0
 45 46  1  0  0  0  0
 46 47  1  0  0  0  0
 48 49  1  0  0  0  0
 49 51  1  0  0  0  0
 50 53  1  0  0  0  0
 51 55  1  0  0  0  0
 52 51  2  0  0  0  0
 52 54  1  0  0  0  0
 54 50  2  0  0  0  0
 55 53  2  0  0  0  0
M  END
>  <MODEL>
9

>  <REMARK>
 VINA RESULT:      -5.8      3.477      7.216
  Name = 
  16 active torsions:
  status: ('A' for Active; 'I' for Inactive)
    1  A    between atoms: O_4  and  C_37
    2  A    between atoms: O_4  and  C_40
    3  A    between atoms: C_6  and  C_20
    4  A    between atoms: C_8  and  C_22
    5  A    between atoms: C_8  and  C_43
    6  A    between atoms: O_10  and  C_18
    7  A    between atoms: O_10  and  C_32
    8  A    between atoms: C_11  and  C_29
    9  A    between atoms: N_19  and  C_45
   10  A    between atoms: C_20  and  C_22
   11  A    between atoms: C_27  and  C_54
   12  A    between atoms: C_29  and  C_38
   13  A    between atoms: C_35  and  C_37
   14  A    between atoms: C_35  and  C_43
   15  A    between atoms: C_43  and  C_51
   16  A    between atoms: C_51  and  C_54
                            x       y       z     vdW  Elec       q    Type
                         _______ _______ _______ _____ _____    ______ ____

>  <TORSDO>
F 16

$$$$
