=
 OpenBabel11052417333D

 25 29  0  0  1  0  0  0  0  0999 V2000
  190.0300  174.8420  143.8610 N   0  0  0  0  0  0  0  0  0  0  0  0
  190.0070  176.0550  144.6870 C   0  0  1  0  0  3  0  0  0  0  0  0
  191.8250  173.8390  145.1010 C   0  0  0  0  0  3  0  0  0  0  0  0
  189.4680  174.7210  142.5620 C   0  0  0  0  0  0  0  0  0  0  0  0
  188.5700  174.2790  139.9640 C   0  0  0  0  0  3  0  0  0  0  0  0
  191.6280  174.8570  146.1490 C   0  0  0  0  0  3  0  0  0  0  0  0
  189.9600  173.6500  141.8310 C   0  0  0  0  0  0  0  0  0  0  0  0
  189.5220  173.4160  140.5260 C   0  0  0  0  0  3  0  0  0  0  0  0
  190.4640  176.7870  147.0430 N   0  0  0  0  0  0  0  0  0  0  0  0
  191.3460  176.9550  148.1880 C   0  0  0  0  0  1  0  0  0  0  0  0
  188.6340  176.5080  144.9270 N   0  0  0  0  0  0  0  0  0  0  0  0
  188.0740  175.3650  140.7040 C   0  0  0  0  0  3  0  0  0  0  0  0
  191.0340  173.8410  144.0290 C   0  0  0  0  0  0  0  0  0  0  0  0
  191.1930  172.6640  142.6820 S   0  0  0  0  0  0  0  0  0  0  0  0
  189.2490  177.4880  147.0010 N   0  0  0  0  0  2  0  0  0  0  0  0
  188.5250  175.5940  142.0100 C   0  0  0  0  0  3  0  0  0  0  0  0
  188.2950  177.2330  145.9570 C   0  0  0  0  0  0  0  0  0  0  0  0
  190.7500  175.8600  145.9890 C   0  0  0  0  0  0  0  0  0  0  0  0
  184.8550  178.5040  145.0770 C   0  0  0  0  0  0  0  0  0  0  0  0
  186.9140  177.7350  146.0840 C   0  0  0  0  0  0  0  0  0  0  0  0
  186.1620  178.0310  144.9410 C   0  0  0  0  0  3  0  0  0  0  0  0
  184.0520  178.8210  143.8670 C   0  0  0  0  0  1  0  0  0  0  0  0
  186.3340  177.9210  147.3470 C   0  0  0  0  0  3  0  0  0  0  0  0
  184.3180  178.6770  146.3140 N   0  0  0  0  0  0  0  0  0  0  0  0
  185.0250  178.3970  147.4420 C   0  0  0  0  0  3  0  0  0  0  0  0
  1 13  1  0  0  0  0
  1  2  1  0  0  0  0
  2 11  1  1  0  0  0
  2 18  1  0  0  0  0
  3  6  1  0  0  0  0
  4  1  1  0  0  0  0
  5  8  2  0  0  0  0
  5 12  1  0  0  0  0
  7  4  2  0  0  0  0
  7 14  1  0  0  0  0
  8  7  1  0  0  0  0
  9 10  1  0  0  0  0
 11 17  2  0  0  0  0
 12 16  2  0  0  0  0
 13  3  2  0  0  0  0
 14 13  1  0  0  0  0
 15  9  1  0  0  0  0
 16  4  1  0  0  0  0
 17 20  1  0  0  0  0
 17 15  1  0  0  0  0
 18  6  2  0  0  0  0
 18  9  1  0  0  0  0
 19 24  1  0  0  0  0
 20 23  2  0  0  0  0
 21 19  2  0  0  0  0
 21 20  1  0  0  0  0
 22 19  1  0  0  0  0
 23 25  1  0  0  0  0
 24 25  2  0  0  0  0
M  END
>  <MODEL>
1

>  <REMARK>
 VINA RESULT:      -7.6      0.000      0.000
  Name = 
  1 active torsions:
  status: ('A' for Active; 'I' for Inactive)
    1  A    between atoms: C_6  and  C_23
                            x       y       z     vdW  Elec       q    Type
                         _______ _______ _______ _____ _____    ______ ____

>  <TORSDO>
F 1

$$$$
=
 OpenBabel11052417333D

 25 29  0  0  1  0  0  0  0  0999 V2000
  185.9420  177.7090  143.8570 N   0  0  0  0  0  0  0  0  0  0  0  0
  186.9250  177.4040  142.8110 C   0  0  1  0  0  3  0  0  0  0  0  0
  184.2860  178.4840  142.3000 C   0  0  0  0  0  3  0  0  0  0  0  0
  186.2360  177.8850  145.2360 C   0  0  0  0  0  0  0  0  0  0  0  0
  186.5780  178.4060  147.9500 C   0  0  0  0  0  3  0  0  0  0  0  0
  185.0830  177.8940  141.2080 C   0  0  0  0  0  3  0  0  0  0  0  0
  185.2500  178.5560  145.9430 C   0  0  0  0  0  0  0  0  0  0  0  0
  185.4080  178.8280  147.3040 C   0  0  0  0  0  3  0  0  0  0  0  0
  187.0170  176.6660  140.4150 N   0  0  0  0  0  0  0  0  0  0  0  0
  186.7190  176.8470  139.0020 C   0  0  0  0  0  1  0  0  0  0  0  0
  187.6490  176.1650  143.1080 N   0  0  0  0  0  0  0  0  0  0  0  0
  187.5780  177.7280  147.2330 C   0  0  0  0  0  3  0  0  0  0  0  0
  184.7080  178.3610  143.5580 C   0  0  0  0  0  0  0  0  0  0  0  0
  183.8320  179.0550  144.9640 S   0  0  0  0  0  0  0  0  0  0  0  0
  187.9940  175.7340  140.7980 N   0  0  0  0  0  2  0  0  0  0  0  0
  187.4120  177.4660  145.8660 C   0  0  0  0  0  3  0  0  0  0  0  0
  188.2080  175.4310  142.1870 C   0  0  0  0  0  0  0  0  0  0  0  0
  186.2860  177.3450  141.4420 C   0  0  0  0  0  0  0  0  0  0  0  0
  190.8280  173.2500  143.8010 C   0  0  0  0  0  0  0  0  0  0  0  0
  189.0040  174.2490  142.5660 C   0  0  0  0  0  0  0  0  0  0  0  0
  190.0830  174.3780  143.4490 C   0  0  0  0  0  3  0  0  0  0  0  0
  191.9750  173.3810  144.7360 C   0  0  0  0  0  1  0  0  0  0  0  0
  188.6930  172.9810  142.0540 C   0  0  0  0  0  3  0  0  0  0  0  0
  190.5050  172.0330  143.2870 N   0  0  0  0  0  0  0  0  0  0  0  0
  189.4610  171.8780  142.4290 C   0  0  0  0  0  3  0  0  0  0  0  0
  1  4  1  0  0  0  0
  2 18  1  6  0  0  0
  2 11  1  0  0  0  0
  2  1  1  0  0  0  0
  3 13  2  0  0  0  0
  4 16  2  0  0  0  0
  4  7  1  0  0  0  0
  6 18  2  0  0  0  0
  6  3  1  0  0  0  0
  7  8  2  0  0  0  0
  8  5  1  0  0  0  0
  9 15  1  0  0  0  0
  9 18  1  0  0  0  0
 10  9  1  0  0  0  0
 12  5  2  0  0  0  0
 13  1  1  0  0  0  0
 13 14  1  0  0  0  0
 14  7  1  0  0  0  0
 15 17  1  0  0  0  0
 16 12  1  0  0  0  0
 17 20  1  0  0  0  0
 17 11  2  0  0  0  0
 19 22  1  0  0  0  0
 20 21  2  0  0  0  0
 21 19  1  0  0  0  0
 23 25  2  0  0  0  0
 23 20  1  0  0  0  0
 24 19  2  0  0  0  0
 25 24  1  0  0  0  0
M  END
>  <MODEL>
2

>  <REMARK>
 VINA RESULT:      -7.6      2.951      7.545
  Name = 
  1 active torsions:
  status: ('A' for Active; 'I' for Inactive)
    1  A    between atoms: C_6  and  C_23
                            x       y       z     vdW  Elec       q    Type
                         _______ _______ _______ _____ _____    ______ ____

>  <TORSDO>
F 1

$$$$
=
 OpenBabel11052417333D

 25 29  0  0  1  0  0  0  0  0999 V2000
  190.9120  175.5560  144.0320 N   0  0  0  0  0  0  0  0  0  0  0  0
  189.6500  174.9830  143.5530 C   0  0  1  0  0  3  0  0  0  0  0  0
  192.1870  174.7000  142.1860 C   0  0  0  0  0  3  0  0  0  0  0  0
  191.1670  175.9880  145.3620 C   0  0  0  0  0  0  0  0  0  0  0  0
  191.9500  176.7710  147.9160 C   0  0  0  0  0  3  0  0  0  0  0  0
  190.9210  174.3960  141.4940 C   0  0  0  0  0  3  0  0  0  0  0  0
  192.5150  176.1010  145.6700 C   0  0  0  0  0  0  0  0  0  0  0  0
  192.9240  176.4890  146.9470 C   0  0  0  0  0  3  0  0  0  0  0  0
  188.4990  174.3910  141.4040 N   0  0  0  0  0  0  0  0  0  0  0  0
  188.4140  173.6540  140.1520 C   0  0  0  0  0  1  0  0  0  0  0  0
  188.5300  175.9030  143.7730 N   0  0  0  0  0  0  0  0  0  0  0  0
  190.5860  176.6560  147.6030 C   0  0  0  0  0  3  0  0  0  0  0  0
  192.1540  175.2750  143.3870 C   0  0  0  0  0  0  0  0  0  0  0  0
  193.6300  175.6730  144.3310 S   0  0  0  0  0  0  0  0  0  0  0  0
  187.3520  175.0230  141.9090 N   0  0  0  0  0  2  0  0  0  0  0  0
  190.1860  176.2580  146.3200 C   0  0  0  0  0  3  0  0  0  0  0  0
  187.4380  175.8750  143.0630 C   0  0  0  0  0  0  0  0  0  0  0  0
  189.7360  174.5710  142.1010 C   0  0  0  0  0  0  0  0  0  0  0  0
  184.9370  177.8820  145.0500 C   0  0  0  0  0  0  0  0  0  0  0  0
  186.3120  176.7660  143.4030 C   0  0  0  0  0  0  0  0  0  0  0  0
  186.0040  177.0350  144.7420 C   0  0  0  0  0  3  0  0  0  0  0  0
  184.6040  178.1710  146.4690 C   0  0  0  0  0  1  0  0  0  0  0  0
  185.5390  177.3590  142.3950 C   0  0  0  0  0  3  0  0  0  0  0  0
  184.2020  178.4410  144.0520 N   0  0  0  0  0  0  0  0  0  0  0  0
  184.4790  178.1990  142.7420 C   0  0  0  0  0  3  0  0  0  0  0  0
  1  4  1  0  0  0  0
  2 18  1  6  0  0  0
  2 11  1  0  0  0  0
  2  1  1  0  0  0  0
  3 13  2  0  0  0  0
  4  7  2  0  0  0  0
  4 16  1  0  0  0  0
  6 18  2  0  0  0  0
  6  3  1  0  0  0  0
  7  8  1  0  0  0  0
  8  5  2  0  0  0  0
  9 15  1  0  0  0  0
  9 18  1  0  0  0  0
 10  9  1  0  0  0  0
 12  5  1  0  0  0  0
 13  1  1  0  0  0  0
 13 14  1  0  0  0  0
 14  7  1  0  0  0  0
 15 17  1  0  0  0  0
 16 12  2  0  0  0  0
 17 20  1  0  0  0  0
 17 11  2  0  0  0  0
 19 22  1  0  0  0  0
 20 21  2  0  0  0  0
 21 19  1  0  0  0  0
 23 25  2  0  0  0  0
 23 20  1  0  0  0  0
 24 19  2  0  0  0  0
 25 24  1  0  0  0  0
M  END
>  <MODEL>
3

>  <REMARK>
 VINA RESULT:      -7.5      1.883      4.813
  Name = 
  1 active torsions:
  status: ('A' for Active; 'I' for Inactive)
    1  A    between atoms: C_6  and  C_23
                            x       y       z     vdW  Elec       q    Type
                         _______ _______ _______ _____ _____    ______ ____

>  <TORSDO>
F 1

$$$$
=
 OpenBabel11052417333D

 25 29  0  0  1  0  0  0  0  0999 V2000
  185.9940  177.6810  143.8170 N   0  0  0  0  0  0  0  0  0  0  0  0
  186.9710  177.3760  142.7660 C   0  0  1  0  0  3  0  0  0  0  0  0
  184.3360  178.4710  142.2720 C   0  0  0  0  0  3  0  0  0  0  0  0
  186.2960  177.8480  145.1970 C   0  0  0  0  0  0  0  0  0  0  0  0
  186.6520  178.3530  147.9110 C   0  0  0  0  0  3  0  0  0  0  0  0
  185.1240  177.8830  141.1740 C   0  0  0  0  0  3  0  0  0  0  0  0
  185.3160  178.5200  145.9120 C   0  0  0  0  0  0  0  0  0  0  0  0
  185.4810  178.7840  147.2730 C   0  0  0  0  0  3  0  0  0  0  0  0
  187.0490  176.6500  140.3660 N   0  0  0  0  0  0  0  0  0  0  0  0
  186.7450  176.8400  138.9550 C   0  0  0  0  0  1  0  0  0  0  0  0
  187.6900  176.1320  143.0530 N   0  0  0  0  0  0  0  0  0  0  0  0
  187.6450  177.6730  147.1860 C   0  0  0  0  0  3  0  0  0  0  0  0
  184.7620  178.3410  143.5270 C   0  0  0  0  0  0  0  0  0  0  0  0
  183.8960  179.0310  144.9410 S   0  0  0  0  0  0  0  0  0  0  0  0
  188.0230  175.7110  140.7400 N   0  0  0  0  0  2  0  0  0  0  0  0
  187.4720  177.4200  145.8190 C   0  0  0  0  0  3  0  0  0  0  0  0
  188.2410  175.4000  142.1260 C   0  0  0  0  0  0  0  0  0  0  0  0
  186.3250  177.3270  141.4000 C   0  0  0  0  0  0  0  0  0  0  0  0
  190.1290  172.1430  141.8890 C   0  0  0  0  0  0  0  0  0  0  0  0
  189.0330  174.2120  142.4950 C   0  0  0  0  0  0  0  0  0  0  0  0
  189.3770  173.2630  141.5250 C   0  0  0  0  0  3  0  0  0  0  0  0
  190.4960  171.1310  140.8640 C   0  0  0  0  0  1  0  0  0  0  0  0
  189.4580  174.0170  143.8170 C   0  0  0  0  0  3  0  0  0  0  0  0
  190.5250  171.9790  143.1790 N   0  0  0  0  0  0  0  0  0  0  0  0
  190.2070  172.8850  144.1420 C   0  0  0  0  0  3  0  0  0  0  0  0
  1  4  1  0  0  0  0
  2 18  1  6  0  0  0
  2 11  1  0  0  0  0
  2  1  1  0  0  0  0
  3 13  2  0  0  0  0
  4 16  2  0  0  0  0
  4  7  1  0  0  0  0
  6 18  2  0  0  0  0
  6  3  1  0  0  0  0
  7  8  2  0  0  0  0
  8  5  1  0  0  0  0
  9 15  1  0  0  0  0
  9 18  1  0  0  0  0
 10  9  1  0  0  0  0
 12  5  2  0  0  0  0
 13  1  1  0  0  0  0
 13 14  1  0  0  0  0
 14  7  1  0  0  0  0
 15 17  1  0  0  0  0
 16 12  1  0  0  0  0
 17 20  1  0  0  0  0
 17 11  2  0  0  0  0
 19 24  1  0  0  0  0
 20 23  2  0  0  0  0
 21 19  2  0  0  0  0
 21 20  1  0  0  0  0
 22 19  1  0  0  0  0
 23 25  1  0  0  0  0
 24 25  2  0  0  0  0
M  END
>  <MODEL>
4

>  <REMARK>
 VINA RESULT:      -7.4      2.992      7.542
  Name = 
  1 active torsions:
  status: ('A' for Active; 'I' for Inactive)
    1  A    between atoms: C_6  and  C_23
                            x       y       z     vdW  Elec       q    Type
                         _______ _______ _______ _____ _____    ______ ____

>  <TORSDO>
F 1

$$$$
=
 OpenBabel11052417333D

 25 29  0  0  1  0  0  0  0  0999 V2000
  189.1860  173.9830  142.8580 N   0  0  0  0  0  0  0  0  0  0  0  0
  189.2350  175.2380  143.6170 C   0  0  1  0  0  3  0  0  0  0  0  0
  190.4430  172.7560  144.4930 C   0  0  0  0  0  3  0  0  0  0  0  0
  188.8930  173.8720  141.4710 C   0  0  0  0  0  0  0  0  0  0  0  0
  188.4870  173.4120  138.7550 C   0  0  0  0  0  3  0  0  0  0  0  0
  190.2400  173.8690  145.4380 C   0  0  0  0  0  3  0  0  0  0  0  0
  189.3010  172.6750  140.9020 C   0  0  0  0  0  0  0  0  0  0  0  0
  189.1070  172.4300  139.5410 C   0  0  0  0  0  3  0  0  0  0  0  0
  189.3290  176.0470  145.9900 N   0  0  0  0  0  0  0  0  0  0  0  0
  189.9690  176.1320  147.2940 C   0  0  0  0  0  1  0  0  0  0  0  0
  187.9630  175.9600  143.5350 N   0  0  0  0  0  0  0  0  0  0  0  0
  188.0760  174.6250  139.3320 C   0  0  0  0  0  3  0  0  0  0  0  0
  189.9090  172.8260  143.2750 C   0  0  0  0  0  0  0  0  0  0  0  0
  190.1060  171.5410  142.0350 S   0  0  0  0  0  0  0  0  0  0  0  0
  188.3160  176.9600  145.6590 N   0  0  0  0  0  2  0  0  0  0  0  0
  188.2810  174.8630  140.6970 C   0  0  0  0  0  3  0  0  0  0  0  0
  187.5690  176.8110  144.4400 C   0  0  0  0  0  0  0  0  0  0  0  0
  189.6360  175.0050  145.0560 C   0  0  0  0  0  0  0  0  0  0  0  0
  184.4320  178.1990  142.8720 C   0  0  0  0  0  0  0  0  0  0  0  0
  186.3220  177.5750  144.2450 C   0  0  0  0  0  0  0  0  0  0  0  0
  185.6120  177.4720  143.0430 C   0  0  0  0  0  3  0  0  0  0  0  0
  183.6740  178.0950  141.5980 C   0  0  0  0  0  1  0  0  0  0  0  0
  185.8280  178.4090  145.2570 C   0  0  0  0  0  3  0  0  0  0  0  0
  183.9770  179.0020  143.8710 N   0  0  0  0  0  0  0  0  0  0  0  0
  184.6450  179.1200  145.0490 C   0  0  0  0  0  3  0  0  0  0  0  0
  1 13  1  0  0  0  0
  1  2  1  0  0  0  0
  2 11  1  1  0  0  0
  2 18  1  0  0  0  0
  3  6  1  0  0  0  0
  4  1  1  0  0  0  0
  5 12  2  0  0  0  0
  5  8  1  0  0  0  0
  7  4  1  0  0  0  0
  7 14  1  0  0  0  0
  8  7  2  0  0  0  0
  9 10  1  0  0  0  0
 11 17  2  0  0  0  0
 12 16  1  0  0  0  0
 13  3  2  0  0  0  0
 14 13  1  0  0  0  0
 15  9  1  0  0  0  0
 16  4  2  0  0  0  0
 17 15  1  0  0  0  0
 18  6  2  0  0  0  0
 18  9  1  0  0  0  0
 19 21  2  0  0  0  0
 19 24  1  0  0  0  0
 20 17  1  0  0  0  0
 20 23  2  0  0  0  0
 21 20  1  0  0  0  0
 22 19  1  0  0  0  0
 24 25  2  0  0  0  0
 25 23  1  0  0  0  0
M  END
>  <MODEL>
5

>  <REMARK>
 VINA RESULT:      -7.3      1.522      1.846
  Name = 
  1 active torsions:
  status: ('A' for Active; 'I' for Inactive)
    1  A    between atoms: C_6  and  C_23
                            x       y       z     vdW  Elec       q    Type
                         _______ _______ _______ _____ _____    ______ ____

>  <TORSDO>
F 1

$$$$
=
 OpenBabel11052417333D

 25 29  0  0  1  0  0  0  0  0999 V2000
  192.0630  175.3120  143.3510 N   0  0  0  0  0  0  0  0  0  0  0  0
  190.6930  174.7900  143.4170 C   0  0  1  0  0  3  0  0  0  0  0  0
  192.4790  174.3930  141.1720 C   0  0  0  0  0  3  0  0  0  0  0  0
  192.8350  175.7410  144.4650 C   0  0  0  0  0  0  0  0  0  0  0  0
  194.5850  176.5030  146.4910 C   0  0  0  0  0  3  0  0  0  0  0  0
  191.0330  174.1390  141.0380 C   0  0  0  0  0  3  0  0  0  0  0  0
  194.1990  175.7980  144.2180 C   0  0  0  0  0  0  0  0  0  0  0  0
  195.0900  176.1760  145.2240 C   0  0  0  0  0  3  0  0  0  0  0  0
  188.7700  174.2360  141.9040 N   0  0  0  0  0  0  0  0  0  0  0  0
  188.1750  173.4960  140.8020 C   0  0  0  0  0  1  0  0  0  0  0  0
  189.7850  175.7580  144.0380 N   0  0  0  0  0  0  0  0  0  0  0  0
  193.2040  176.4440  146.7400 C   0  0  0  0  0  3  0  0  0  0  0  0
  192.9410  174.9750  142.2770 C   0  0  0  0  0  0  0  0  0  0  0  0
  194.6820  175.3160  142.5590 S   0  0  0  0  0  0  0  0  0  0  0  0
  187.9380  174.9180  142.8050 N   0  0  0  0  0  2  0  0  0  0  0  0
  192.3190  176.0570  145.7250 C   0  0  0  0  0  3  0  0  0  0  0  0
  188.5010  175.7720  143.8150 C   0  0  0  0  0  0  0  0  0  0  0  0
  190.1880  174.3670  142.0560 C   0  0  0  0  0  0  0  0  0  0  0  0
  186.1740  178.6390  144.5810 C   0  0  0  0  0  0  0  0  0  0  0  0
  187.6330  176.7120  144.5490 C   0  0  0  0  0  0  0  0  0  0  0  0
  186.9940  177.7580  143.8730 C   0  0  0  0  0  3  0  0  0  0  0  0
  185.4940  179.7540  143.8700 C   0  0  0  0  0  1  0  0  0  0  0  0
  187.4300  176.5700  145.9290 C   0  0  0  0  0  3  0  0  0  0  0  0
  185.9970  178.4800  145.9200 N   0  0  0  0  0  0  0  0  0  0  0  0
  186.6040  177.4710  146.6020 C   0  0  0  0  0  3  0  0  0  0  0  0
  1  2  1  0  0  0  0
  1  4  1  0  0  0  0
  2 18  1  6  0  0  0
  2 11  1  0  0  0  0
  3 13  2  0  0  0  0
  4 16  1  0  0  0  0
  5 12  1  0  0  0  0
  6  3  1  0  0  0  0
  6 18  2  0  0  0  0
  7  4  2  0  0  0  0
  7  8  1  0  0  0  0
  8  5  2  0  0  0  0
  9 18  1  0  0  0  0
  9 15  1  0  0  0  0
 10  9  1  0  0  0  0
 13 14  1  0  0  0  0
 13  1  1  0  0  0  0
 14  7  1  0  0  0  0
 15 17  1  0  0  0  0
 16 12  2  0  0  0  0
 17 11  2  0  0  0  0
 17 20  1  0  0  0  0
 19 24  1  0  0  0  0
 20 23  2  0  0  0  0
 21 20  1  0  0  0  0
 21 19  2  0  0  0  0
 22 19  1  0  0  0  0
 23 25  1  0  0  0  0
 24 25  2  0  0  0  0
M  END
>  <MODEL>
6

>  <REMARK>
 VINA RESULT:      -7.3      2.205      4.683
  Name = 
  1 active torsions:
  status: ('A' for Active; 'I' for Inactive)
    1  A    between atoms: C_6  and  C_23
                            x       y       z     vdW  Elec       q    Type
                         _______ _______ _______ _____ _____    ______ ____

>  <TORSDO>
F 1

$$$$
=
 OpenBabel11052417333D

 25 29  0  0  1  0  0  0  0  0999 V2000
  186.8370  177.3080  142.8340 N   0  0  0  0  0  0  0  0  0  0  0  0
  186.9140  176.9480  144.2540 C   0  0  1  0  0  3  0  0  0  0  0  0
  185.1790  179.0080  143.1880 C   0  0  0  0  0  3  0  0  0  0  0  0
  187.2830  176.4970  141.7550 C   0  0  0  0  0  0  0  0  0  0  0  0
  187.9490  175.0410  139.4770 C   0  0  0  0  0  3  0  0  0  0  0  0
  185.4530  178.9290  144.6350 C   0  0  0  0  0  3  0  0  0  0  0  0
  186.7450  176.8480  140.5250 C   0  0  0  0  0  0  0  0  0  0  0  0
  187.0680  176.1260  139.3740 C   0  0  0  0  0  3  0  0  0  0  0  0
  186.6590  177.9960  146.5200 N   0  0  0  0  0  0  0  0  0  0  0  0
  185.8800  178.6920  147.5330 C   0  0  0  0  0  1  0  0  0  0  0  0
  188.2950  176.6690  144.6580 N   0  0  0  0  0  0  0  0  0  0  0  0
  188.4920  174.6850  140.7230 C   0  0  0  0  0  3  0  0  0  0  0  0
  185.8710  178.2390  142.3480 C   0  0  0  0  0  0  0  0  0  0  0  0
  185.6110  178.2370  140.5710 S   0  0  0  0  0  0  0  0  0  0  0  0
  187.8530  177.3560  146.8880 N   0  0  0  0  0  2  0  0  0  0  0  0
  188.1570  175.4120  141.8730 C   0  0  0  0  0  3  0  0  0  0  0  0
  188.7130  176.7860  145.8870 C   0  0  0  0  0  0  0  0  0  0  0  0
  186.2950  178.0100  145.1350 C   0  0  0  0  0  0  0  0  0  0  0  0
  192.4610  176.3890  145.7660 C   0  0  0  0  0  0  0  0  0  0  0  0
  190.0900  176.3950  146.2400 C   0  0  0  0  0  0  0  0  0  0  0  0
  191.1620  176.7650  145.4190 C   0  0  0  0  0  3  0  0  0  0  0  0
  193.6030  176.7780  144.8970 C   0  0  0  0  0  1  0  0  0  0  0  0
  190.3490  175.6520  147.4010 C   0  0  0  0  0  3  0  0  0  0  0  0
  192.6830  175.6670  146.8960 N   0  0  0  0  0  0  0  0  0  0  0  0
  191.6610  175.2940  147.7140 C   0  0  0  0  0  3  0  0  0  0  0  0
  1  2  1  0  0  0  0
  2 11  1  1  0  0  0
  2 18  1  0  0  0  0
  3  6  1  0  0  0  0
  4 16  1  0  0  0  0
  4  1  1  0  0  0  0
  5 12  1  0  0  0  0
  6 18  2  0  0  0  0
  7 14  1  0  0  0  0
  7  4  2  0  0  0  0
  8  5  2  0  0  0  0
  8  7  1  0  0  0  0
  9 15  1  0  0  0  0
  9 10  1  0  0  0  0
 11 17  2  0  0  0  0
 12 16  2  0  0  0  0
 13  1  1  0  0  0  0
 13  3  2  0  0  0  0
 14 13  1  0  0  0  0
 17 20  1  0  0  0  0
 17 15  1  0  0  0  0
 18  9  1  0  0  0  0
 19 24  1  0  0  0  0
 20 23  2  0  0  0  0
 21 19  2  0  0  0  0
 21 20  1  0  0  0  0
 22 19  1  0  0  0  0
 23 25  1  0  0  0  0
 24 25  2  0  0  0  0
M  END
>  <MODEL>
7

>  <REMARK>
 VINA RESULT:      -7.2      2.301      5.485
  Name = 
  1 active torsions:
  status: ('A' for Active; 'I' for Inactive)
    1  A    between atoms: C_6  and  C_23
                            x       y       z     vdW  Elec       q    Type
                         _______ _______ _______ _____ _____    ______ ____

>  <TORSDO>
F 1

$$$$
=
 OpenBabel11052417333D

 25 29  0  0  1  0  0  0  0  0999 V2000
  188.1730  177.1520  144.4230 N   0  0  0  0  0  0  0  0  0  0  0  0
  188.0920  177.3020  142.9660 C   0  0  1  0  0  3  0  0  0  0  0  0
  186.1940  178.4490  144.8280 C   0  0  0  0  0  3  0  0  0  0  0  0
  189.3360  176.7730  145.1480 C   0  0  0  0  0  0  0  0  0  0  0  0
  191.5050  176.1870  146.7920 C   0  0  0  0  0  3  0  0  0  0  0  0
  185.8750  178.3520  143.3920 C   0  0  0  0  0  3  0  0  0  0  0  0
  189.2910  177.0940  146.4960 C   0  0  0  0  0  0  0  0  0  0  0  0
  190.3710  176.8090  147.3330 C   0  0  0  0  0  3  0  0  0  0  0  0
  186.3790  177.5720  141.1530 N   0  0  0  0  0  0  0  0  0  0  0  0
  185.2880  178.2910  140.5130 C   0  0  0  0  0  1  0  0  0  0  0  0
  188.4620  176.0590  142.2820 N   0  0  0  0  0  0  0  0  0  0  0  0
  191.5510  175.8640  145.4250 C   0  0  0  0  0  3  0  0  0  0  0  0
  187.2860  177.8480  145.2980 C   0  0  0  0  0  0  0  0  0  0  0  0
  187.7840  177.9140  147.0220 S   0  0  0  0  0  0  0  0  0  0  0  0
  187.0660  176.5810  140.4330 N   0  0  0  0  0  2  0  0  0  0  0  0
  190.4640  176.1610  144.5930 C   0  0  0  0  0  3  0  0  0  0  0  0
  188.0490  175.7580  141.0830 C   0  0  0  0  0  0  0  0  0  0  0  0
  186.7250  177.7760  142.5270 C   0  0  0  0  0  0  0  0  0  0  0  0
  189.8130  172.4820  140.4670 C   0  0  0  0  0  0  0  0  0  0  0  0
  188.5390  174.5360  140.4180 C   0  0  0  0  0  0  0  0  0  0  0  0
  189.3580  173.6350  141.1090 C   0  0  0  0  0  3  0  0  0  0  0  0
  190.6840  171.5220  141.1950 C   0  0  0  0  0  1  0  0  0  0  0  0
  188.1910  174.2560  139.0880 C   0  0  0  0  0  3  0  0  0  0  0  0
  189.4620  172.2360  139.1770 N   0  0  0  0  0  0  0  0  0  0  0  0
  188.6670  173.0930  138.4810 C   0  0  0  0  0  3  0  0  0  0  0  0
  1  4  1  0  0  0  0
  1 13  1  0  0  0  0
  2 11  1  6  0  0  0
  2  1  1  0  0  0  0
  3 13  2  0  0  0  0
  4  7  1  0  0  0  0
  5  8  1  0  0  0  0
  6  3  1  0  0  0  0
  7 14  1  0  0  0  0
  7  8  2  0  0  0  0
  9 18  1  0  0  0  0
 10  9  1  0  0  0  0
 12  5  2  0  0  0  0
 13 14  1  0  0  0  0
 15 17  1  0  0  0  0
 15  9  1  0  0  0  0
 16  4  2  0  0  0  0
 16 12  1  0  0  0  0
 17 11  2  0  0  0  0
 18  2  1  0  0  0  0
 18  6  2  0  0  0  0
 19 21  1  0  0  0  0
 19 22  1  0  0  0  0
 20 17  1  0  0  0  0
 20 21  2  0  0  0  0
 23 20  1  0  0  0  0
 24 19  2  0  0  0  0
 25 23  2  0  0  0  0
 25 24  1  0  0  0  0
M  END
>  <MODEL>
8

>  <REMARK>
 VINA RESULT:      -7.1      2.705      7.170
  Name = 
  1 active torsions:
  status: ('A' for Active; 'I' for Inactive)
    1  A    between atoms: C_6  and  C_23
                            x       y       z     vdW  Elec       q    Type
                         _______ _______ _______ _____ _____    ______ ____

>  <TORSDO>
F 1

$$$$
=
 OpenBabel11052417333D

 25 29  0  0  1  0  0  0  0  0999 V2000
  190.2660  175.8550  145.1810 N   0  0  0  0  0  0  0  0  0  0  0  0
  189.1400  176.7940  145.2520 C   0  0  1  0  0  3  0  0  0  0  0  0
  189.8270  174.9160  147.3460 C   0  0  0  0  0  3  0  0  0  0  0  0
  191.3760  175.9670  144.3000 C   0  0  0  0  0  0  0  0  0  0  0  0
  193.7060  176.0410  142.7790 C   0  0  0  0  0  3  0  0  0  0  0  0
  188.5100  175.5810  147.3330 C   0  0  0  0  0  3  0  0  0  0  0  0
  192.4810  175.2240  144.6880 C   0  0  0  0  0  0  0  0  0  0  0  0
  193.6580  175.2530  143.9380 C   0  0  0  0  0  3  0  0  0  0  0  0
  186.8470  176.9760  146.2540 N   0  0  0  0  0  0  0  0  0  0  0  0
  185.9410  177.0070  147.3920 C   0  0  0  0  0  1  0  0  0  0  0  0
  188.4650  176.9130  143.9560 N   0  0  0  0  0  0  0  0  0  0  0  0
  192.5870  176.7940  142.3880 C   0  0  0  0  0  3  0  0  0  0  0  0
  190.6350  175.0450  146.2960 C   0  0  0  0  0  0  0  0  0  0  0  0
  192.2660  174.2970  146.2090 S   0  0  0  0  0  0  0  0  0  0  0  0
  186.3980  177.4300  145.0040 N   0  0  0  0  0  2  0  0  0  0  0  0
  191.4130  176.7630  143.1520 C   0  0  0  0  0  3  0  0  0  0  0  0
  187.2200  177.2780  143.8340 C   0  0  0  0  0  0  0  0  0  0  0  0
  188.1620  176.4150  146.3400 C   0  0  0  0  0  0  0  0  0  0  0  0
  184.7340  177.9630  141.0820 C   0  0  0  0  0  0  0  0  0  0  0  0
  186.6340  177.4710  142.4950 C   0  0  0  0  0  0  0  0  0  0  0  0
  185.2750  177.7810  142.3570 C   0  0  0  0  0  3  0  0  0  0  0  0
  183.2920  178.2910  140.9290 C   0  0  0  0  0  1  0  0  0  0  0  0
  187.4240  177.3520  141.3430 C   0  0  0  0  0  3  0  0  0  0  0  0
  185.5230  177.8400  139.9820 N   0  0  0  0  0  0  0  0  0  0  0  0
  186.8470  177.5410  140.0870 C   0  0  0  0  0  3  0  0  0  0  0  0
  1  2  1  0  0  0  0
  1 13  1  0  0  0  0
  2 11  1  6  0  0  0
  2 18  1  0  0  0  0
  4  7  1  0  0  0  0
  4  1  1  0  0  0  0
  5  8  1  0  0  0  0
  6  3  1  0  0  0  0
  7 14  1  0  0  0  0
  8  7  2  0  0  0  0
  9 18  1  0  0  0  0
  9 10  1  0  0  0  0
 12  5  2  0  0  0  0
 12 16  1  0  0  0  0
 13  3  2  0  0  0  0
 14 13  1  0  0  0  0
 15  9  1  0  0  0  0
 16  4  2  0  0  0  0
 17 11  2  0  0  0  0
 17 15  1  0  0  0  0
 18  6  2  0  0  0  0
 19 21  1  0  0  0  0
 20 17  1  0  0  0  0
 21 20  2  0  0  0  0
 22 19  1  0  0  0  0
 23 20  1  0  0  0  0
 24 25  1  0  0  0  0
 24 19  2  0  0  0  0
 25 23  2  0  0  0  0
M  END
>  <MODEL>
9

>  <REMARK>
 VINA RESULT:      -7.1      2.574      4.167
  Name = 
  1 active torsions:
  status: ('A' for Active; 'I' for Inactive)
    1  A    between atoms: C_6  and  C_23
                            x       y       z     vdW  Elec       q    Type
                         _______ _______ _______ _____ _____    ______ ____

>  <TORSDO>
F 1

$$$$
