=
 OpenBabel11052418463D

 34 39  0  0  1  0  0  0  0  0999 V2000
  188.8130  174.7610  141.5670 C   0  0  0  0  0  0  0  0  0  0  0  0
  191.2150  174.9540  141.9960 C   0  0  0  0  0  0  0  0  0  0  0  0
  189.4370  175.7560  143.7100 C   0  0  0  0  0  0  0  0  0  0  0  0
  189.8280  176.6420  145.9310 C   0  0  0  0  0  0  0  0  0  0  0  0
  190.5160  173.4690  140.2720 C   0  0  0  0  0  3  0  0  0  0  0  0
  191.4610  173.9140  141.0440 N   0  0  0  0  0  0  0  0  0  0  0  0
  191.6350  175.7400  144.8460 N   0  0  0  0  0  0  0  0  0  0  0  0
  189.8200  175.1800  142.4600 C   0  0  0  0  0  0  0  0  0  0  0  0
  193.5590  176.0020  146.3370 N   0  0  0  0  0  2  0  0  0  0  0  0
  191.0500  176.8470  147.0610 S   0  0  0  0  0  0  0  0  0  0  0  0
  189.1560  174.1120  140.2530 C   0  0  0  0  0  2  0  0  0  0  0  0
  187.1320  175.6550  142.9950 N   0  0  0  0  0  0  0  0  0  0  0  0
  187.4780  175.0300  141.8460 C   0  0  0  0  0  3  0  0  0  0  0  0
  192.1640  175.7040  142.3420 O   0  0  0  0  0  0  0  0  0  0  0  0
  188.5250  176.9520  146.0990 N   0  0  0  0  0  0  0  0  0  0  0  0
  187.6200  176.6470  145.1240 C   0  0  0  0  0  0  0  0  0  0  0  0
  192.1730  176.1330  146.0260 C   0  0  0  0  0  0  0  0  0  0  0  0
  190.3140  176.0430  144.7820 C   0  0  0  0  0  0  0  0  0  0  0  0
  188.0490  176.0230  143.9290 C   0  0  0  0  0  0  0  0  0  0  0  0
  185.8770  179.4570  145.9990 N   0  0  0  0  0  0  0  0  0  0  0  0
  185.7200  179.1250  147.2450 C   0  0  0  0  0  3  0  0  0  0  0  0
  186.1750  177.0190  145.3240 C   0  0  2  0  0  3  0  0  0  0  0  0
  185.5900  177.7130  147.6420 C   0  0  0  0  0  3  0  0  0  0  0  0
  185.9790  178.4680  144.9680 C   0  0  0  0  0  0  0  0  0  0  0  0
  185.7610  176.7380  146.7480 C   0  0  0  0  0  3  0  0  0  0  0  0
  185.9460  178.8210  143.7590 O   0  0  0  0  0  0  0  0  0  0  0  0
  194.4700  175.4960  145.3990 N   0  0  0  0  0  2  0  0  0  0  0  0
  196.4080  174.0260  145.6430 C   0  0  0  0  0  2  0  0  0  0  0  0
  194.9060  174.1990  145.8910 C   0  0  2  0  0  3  0  0  0  0  0  0
  196.8780  172.6700  146.1580 C   0  0  0  0  0  2  0  0  0  0  0  0
  196.4130  171.4750  144.1280 O   0  0  0  0  0  1  0  0  0  0  0  0
  194.5890  171.7220  145.6820 C   0  0  0  0  0  2  0  0  0  0  0  0
  194.1280  173.0940  145.1790 C   0  0  0  0  0  2  0  0  0  0  0  0
  196.1000  171.5350  145.4870 C   0  0  2  0  0  3  0  0  0  0  0  0
  1 13  2  0  0  0  0
  1  8  1  0  0  0  0
  2 14  2  0  0  0  0
  2  8  1  0  0  0  0
  3 19  1  0  0  0  0
  3 18  1  0  0  0  0
  4 15  1  0  0  0  0
  4 10  1  0  0  0  0
  5  6  2  0  0  0  0
  6  2  1  0  0  0  0
  7 17  2  0  0  0  0
  8  3  2  0  0  0  0
 11  5  1  0  0  0  0
 11  1  1  0  0  0  0
 12 19  2  0  0  0  0
 13 12  1  0  0  0  0
 16 15  2  0  0  0  0
 17  9  1  0  0  0  0
 17 10  1  0  0  0  0
 18  7  1  0  0  0  0
 18  4  2  0  0  0  0
 19 16  1  0  0  0  0
 20 21  2  0  0  0  0
 21 23  1  0  0  0  0
 22 16  1  1  0  0  0
 22 25  1  0  0  0  0
 24 22  1  0  0  0  0
 24 20  1  0  0  0  0
 25 23  2  0  0  0  0
 26 24  2  0  0  0  0
 27  9  1  0  0  0  0
 28 29  1  0  0  0  0
 28 30  1  0  0  0  0
 29 27  1  6  0  0  0
 33 32  1  0  0  0  0
 33 29  1  0  0  0  0
 34 31  1  6  0  0  0
 34 32  1  0  0  0  0
 34 30  1  0  0  0  0
M  END
>  <MODEL>
1

>  <REMARK>
 VINA RESULT:      -8.4      0.000      0.000
  Name = 
  3 active torsions:
  status: ('A' for Active; 'I' for Inactive)
    1  A    between atoms: N_3  and  C_13
    2  A    between atoms: N_3  and  N_17
    3  A    between atoms: C_12  and  C_28
                            x       y       z     vdW  Elec       q    Type
                         _______ _______ _______ _____ _____    ______ ____

>  <TORSDO>
F 3

$$$$
=
 OpenBabel11052418463D

 34 39  0  0  1  0  0  0  0  0999 V2000
  191.9300  174.7430  145.5980 C   0  0  0  0  0  0  0  0  0  0  0  0
  190.5250  176.7350  145.3730 C   0  0  0  0  0  0  0  0  0  0  0  0
  190.5800  174.8730  143.5650 C   0  0  0  0  0  0  0  0  0  0  0  0
  189.2360  174.7350  141.5530 C   0  0  0  0  0  0  0  0  0  0  0  0
  191.3720  176.2160  147.5370 C   0  0  0  0  0  3  0  0  0  0  0  0
  190.5710  176.9170  146.7930 N   0  0  0  0  0  0  0  0  0  0  0  0
  188.6680  176.3620  143.0650 N   0  0  0  0  0  0  0  0  0  0  0  0
  190.9980  175.4440  144.8060 C   0  0  0  0  0  0  0  0  0  0  0  0
  186.7760  177.5880  142.1090 N   0  0  0  0  0  2  0  0  0  0  0  0
  187.9230  175.4610  140.8050 S   0  0  0  0  0  0  0  0  0  0  0  0
  192.3780  175.2770  146.9320 C   0  0  0  0  0  2  0  0  0  0  0  0
  192.1860  173.0990  143.8950 N   0  0  0  0  0  0  0  0  0  0  0  0
  192.5260  173.5850  145.1110 C   0  0  0  0  0  3  0  0  0  0  0  0
  190.1760  177.6980  144.6440 O   0  0  0  0  0  0  0  0  0  0  0  0
  189.9160  173.6590  141.1040 N   0  0  0  0  0  0  0  0  0  0  0  0
  190.9120  173.1150  141.8630 C   0  0  0  0  0  0  0  0  0  0  0  0
  187.7520  176.5470  142.0840 C   0  0  0  0  0  0  0  0  0  0  0  0
  189.5200  175.3510  142.7590 C   0  0  0  0  0  0  0  0  0  0  0  0
  191.2450  173.6900  143.1120 C   0  0  0  0  0  0  0  0  0  0  0  0
  192.3000  172.1840  138.8790 N   0  0  0  0  0  0  0  0  0  0  0  0
  191.3160  171.4210  138.5140 C   0  0  0  0  0  3  0  0  0  0  0  0
  191.6700  171.9280  141.3340 C   0  0  2  0  0  3  0  0  0  0  0  0
  190.5190  170.6850  139.5100 C   0  0  0  0  0  3  0  0  0  0  0  0
  192.6230  172.3820  140.2610 C   0  0  0  0  0  0  0  0  0  0  0  0
  190.7070  170.8880  140.8150 C   0  0  0  0  0  3  0  0  0  0  0  0
  193.6880  172.9750  140.5750 O   0  0  0  0  0  0  0  0  0  0  0  0
  186.7450  178.5290  143.1470 N   0  0  0  0  0  2  0  0  0  0  0  0
  184.9620  179.2960  144.6340 C   0  0  0  0  0  2  0  0  0  0  0  0
  185.7270  178.0860  144.0870 C   0  0  2  0  0  3  0  0  0  0  0  0
  183.8890  178.8430  145.6190 C   0  0  0  0  0  2  0  0  0  0  0  0
  185.3140  178.8820  147.5500 O   0  0  0  0  0  1  0  0  0  0  0  0
  185.3240  176.8630  146.2370 C   0  0  0  0  0  2  0  0  0  0  0  0
  186.3870  177.3230  145.2340 C   0  0  0  0  0  2  0  0  0  0  0  0
  184.5090  178.0500  146.7700 C   0  0  2  0  0  3  0  0  0  0  0  0
  1 11  1  0  0  0  0
  2  6  1  0  0  0  0
  3  8  1  0  0  0  0
  4 18  1  0  0  0  0
  6  5  2  0  0  0  0
  8  2  1  0  0  0  0
  8  1  2  0  0  0  0
  9 27  1  0  0  0  0
 10  4  1  0  0  0  0
 10 17  1  0  0  0  0
 11  5  1  0  0  0  0
 12 13  2  0  0  0  0
 13  1  1  0  0  0  0
 14  2  2  0  0  0  0
 15  4  2  0  0  0  0
 15 16  1  0  0  0  0
 16 19  2  0  0  0  0
 17  9  1  0  0  0  0
 17  7  2  0  0  0  0
 18  7  1  0  0  0  0
 18  3  2  0  0  0  0
 19  3  1  0  0  0  0
 19 12  1  0  0  0  0
 20 24  1  0  0  0  0
 21 20  2  0  0  0  0
 21 23  1  0  0  0  0
 22 16  1  6  0  0  0
 23 25  2  0  0  0  0
 24 26  2  0  0  0  0
 24 22  1  0  0  0  0
 25 22  1  0  0  0  0
 28 30  1  0  0  0  0
 29 27  1  6  0  0  0
 29 28  1  0  0  0  0
 29 33  1  0  0  0  0
 30 34  1  0  0  0  0
 32 34  1  0  0  0  0
 33 32  1  0  0  0  0
 34 31  1  6  0  0  0
M  END
>  <MODEL>
2

>  <REMARK>
 VINA RESULT:      -8.2      2.702      8.580
  Name = 
  3 active torsions:
  status: ('A' for Active; 'I' for Inactive)
    1  A    between atoms: N_3  and  C_13
    2  A    between atoms: N_3  and  N_17
    3  A    between atoms: C_12  and  C_28
                            x       y       z     vdW  Elec       q    Type
                         _______ _______ _______ _____ _____    ______ ____

>  <TORSDO>
F 3

$$$$
=
 OpenBabel11052418463D

 34 39  0  0  1  0  0  0  0  0999 V2000
  190.7420  172.5910  140.1560 C   0  0  0  0  0  0  0  0  0  0  0  0
  188.6240  173.5440  140.9300 C   0  0  0  0  0  0  0  0  0  0  0  0
  190.9180  174.3660  141.8260 C   0  0  0  0  0  0  0  0  0  0  0  0
  191.3270  176.1870  143.3720 C   0  0  0  0  0  0  0  0  0  0  0  0
  188.5990  172.2920  138.9050 C   0  0  0  0  0  3  0  0  0  0  0  0
  187.9910  173.0900  139.7290 N   0  0  0  0  0  0  0  0  0  0  0  0
  189.1910  175.9760  142.5670 N   0  0  0  0  0  0  0  0  0  0  0  0
  190.1100  173.5250  141.0010 C   0  0  0  0  0  0  0  0  0  0  0  0
  187.8610  177.7430  143.6160 N   0  0  0  0  0  2  0  0  0  0  0  0
  190.5440  177.4630  144.1270 S   0  0  0  0  0  0  0  0  0  0  0  0
  189.9440  171.7060  139.2370 C   0  0  0  0  0  2  0  0  0  0  0  0
  192.8650  173.1490  141.0760 N   0  0  0  0  0  0  0  0  0  0  0  0
  192.1180  172.4060  140.2270 C   0  0  0  0  0  3  0  0  0  0  0  0
  187.9110  173.8570  141.9170 O   0  0  0  0  0  0  0  0  0  0  0  0
  192.6420  175.8960  143.4550 N   0  0  0  0  0  0  0  0  0  0  0  0
  193.1650  174.8770  142.7130 C   0  0  0  0  0  0  0  0  0  0  0  0
  189.0870  177.0550  143.3790 C   0  0  0  0  0  0  0  0  0  0  0  0
  190.4510  175.4720  142.5750 C   0  0  0  0  0  0  0  0  0  0  0  0
  192.3250  174.1130  141.8680 C   0  0  0  0  0  0  0  0  0  0  0  0
  195.7750  175.9130  144.6640 N   0  0  0  0  0  0  0  0  0  0  0  0
  196.2690  176.7340  143.7890 C   0  0  0  0  0  3  0  0  0  0  0  0
  194.6300  174.5570  142.8370 C   0  0  2  0  0  3  0  0  0  0  0  0
  196.1570  176.4610  142.3460 C   0  0  0  0  0  3  0  0  0  0  0  0
  195.0600  174.7370  144.2680 C   0  0  0  0  0  0  0  0  0  0  0  0
  195.4320  175.4320  141.9050 C   0  0  0  0  0  3  0  0  0  0  0  0
  194.7550  173.8710  145.1310 O   0  0  0  0  0  0  0  0  0  0  0  0
  186.6580  177.2990  143.0500 N   0  0  0  0  0  2  0  0  0  0  0  0
  185.2640  178.8800  144.2890 C   0  0  0  0  0  2  0  0  0  0  0  0
  185.6400  177.4090  144.0830 C   0  0  2  0  0  3  0  0  0  0  0  0
  184.1940  179.0080  145.3680 C   0  0  0  0  0  2  0  0  0  0  0  0
  185.7310  179.1520  147.2060 O   0  0  0  0  0  1  0  0  0  0  0  0
  185.1070  176.9400  146.4860 C   0  0  0  0  0  2  0  0  0  0  0  0
  186.1680  176.8170  145.3880 C   0  0  0  0  0  2  0  0  0  0  0  0
  184.6760  178.4000  146.6860 C   0  0  2  0  0  3  0  0  0  0  0  0
  1 13  2  0  0  0  0
  1  8  1  0  0  0  0
  2  8  1  0  0  0  0
  2 14  2  0  0  0  0
  3 19  1  0  0  0  0
  3 18  1  0  0  0  0
  4 15  1  0  0  0  0
  4 10  1  0  0  0  0
  5 11  1  0  0  0  0
  5  6  2  0  0  0  0
  6  2  1  0  0  0  0
  7 18  1  0  0  0  0
  7 17  2  0  0  0  0
  8  3  2  0  0  0  0
 11  1  1  0  0  0  0
 12 19  2  0  0  0  0
 13 12  1  0  0  0  0
 16 15  2  0  0  0  0
 17  9  1  0  0  0  0
 17 10  1  0  0  0  0
 18  4  2  0  0  0  0
 19 16  1  0  0  0  0
 21 20  2  0  0  0  0
 22 16  1  1  0  0  0
 22 24  1  0  0  0  0
 23 21  1  0  0  0  0
 24 20  1  0  0  0  0
 24 26  2  0  0  0  0
 25 23  2  0  0  0  0
 25 22  1  0  0  0  0
 27  9  1  0  0  0  0
 28 30  1  0  0  0  0
 29 27  1  6  0  0  0
 29 28  1  0  0  0  0
 29 33  1  0  0  0  0
 30 34  1  0  0  0  0
 32 34  1  0  0  0  0
 33 32  1  0  0  0  0
 34 31  1  6  0  0  0
M  END
>  <MODEL>
3

>  <REMARK>
 VINA RESULT:      -8.1      2.305      8.055
  Name = 
  3 active torsions:
  status: ('A' for Active; 'I' for Inactive)
    1  A    between atoms: N_3  and  C_13
    2  A    between atoms: N_3  and  N_17
    3  A    between atoms: C_12  and  C_28
                            x       y       z     vdW  Elec       q    Type
                         _______ _______ _______ _____ _____    ______ ____

>  <TORSDO>
F 3

$$$$
=
 OpenBabel11052418463D

 34 39  0  0  1  0  0  0  0  0999 V2000
  191.1320  175.6650  146.2870 C   0  0  0  0  0  0  0  0  0  0  0  0
  191.2880  174.1490  144.3710 C   0  0  0  0  0  0  0  0  0  0  0  0
  189.3620  175.8740  144.6150 C   0  0  0  0  0  0  0  0  0  0  0  0
  187.5920  176.3370  143.0270 C   0  0  0  0  0  0  0  0  0  0  0  0
  193.2400  174.4600  145.6980 C   0  0  0  0  0  3  0  0  0  0  0  0
  192.6900  173.9980  144.6160 N   0  0  0  0  0  0  0  0  0  0  0  0
  189.2920  174.9770  142.3100 N   0  0  0  0  0  0  0  0  0  0  0  0
  190.5560  175.2380  145.0730 C   0  0  0  0  0  0  0  0  0  0  0  0
  188.7510  174.3160  140.0150 N   0  0  0  0  0  2  0  0  0  0  0  0
  187.1240  175.9960  141.4530 S   0  0  0  0  0  0  0  0  0  0  0  0
  192.4110  175.0590  146.8000 C   0  0  0  0  0  2  0  0  0  0  0  0
  189.2930  177.1250  146.6800 N   0  0  0  0  0  0  0  0  0  0  0  0
  190.4700  176.5930  147.0830 C   0  0  0  0  0  3  0  0  0  0  0  0
  190.6980  173.3080  143.6470 O   0  0  0  0  0  0  0  0  0  0  0  0
  186.9600  177.1640  143.8850 N   0  0  0  0  0  0  0  0  0  0  0  0
  187.5030  177.4210  145.1110 C   0  0  0  0  0  0  0  0  0  0  0  0
  188.4910  175.0350  141.2190 C   0  0  0  0  0  0  0  0  0  0  0  0
  188.7780  175.6960  143.3390 C   0  0  0  0  0  0  0  0  0  0  0  0
  188.7200  176.8070  145.4890 C   0  0  0  0  0  0  0  0  0  0  0  0
  184.3740  177.5810  146.4810 N   0  0  0  0  0  0  0  0  0  0  0  0
  183.9170  178.4680  145.6510 C   0  0  0  0  0  3  0  0  0  0  0  0
  186.7710  178.3310  146.0600 C   0  0  2  0  0  3  0  0  0  0  0  0
  184.8030  179.4960  145.0780 C   0  0  0  0  0  3  0  0  0  0  0  0
  185.7600  177.5310  146.8380 C   0  0  0  0  0  0  0  0  0  0  0  0
  186.1180  179.4580  145.2980 C   0  0  0  0  0  3  0  0  0  0  0  0
  186.1370  176.7830  147.7780 O   0  0  0  0  0  0  0  0  0  0  0  0
  189.8480  173.4490  139.9100 N   0  0  0  0  0  2  0  0  0  0  0  0
  190.1890  171.1170  139.2600 C   0  0  0  0  0  2  0  0  0  0  0  0
  189.4950  172.4400  138.9240 C   0  0  2  0  0  3  0  0  0  0  0  0
  189.8240  170.0500  138.2340 C   0  0  0  0  0  2  0  0  0  0  0  0
  191.5970  170.5810  136.7050 O   0  0  0  0  0  1  0  0  0  0  0  0
  189.5620  171.8520  136.4890 C   0  0  0  0  0  2  0  0  0  0  0  0
  189.9180  172.9140  137.5340 C   0  0  0  0  0  2  0  0  0  0  0  0
  190.2080  170.5000  136.8230 C   0  0  2  0  0  3  0  0  0  0  0  0
  1 11  1  0  0  0  0
  1 13  1  0  0  0  0
  2  6  1  0  0  0  0
  2  8  1  0  0  0  0
  3  8  1  0  0  0  0
  3 19  1  0  0  0  0
  4 18  1  0  0  0  0
  4 15  2  0  0  0  0
  5 11  1  0  0  0  0
  6  5  2  0  0  0  0
  7 18  1  0  0  0  0
  8  1  2  0  0  0  0
  9 17  1  0  0  0  0
 10  4  1  0  0  0  0
 12 13  2  0  0  0  0
 14  2  2  0  0  0  0
 15 16  1  0  0  0  0
 16 19  2  0  0  0  0
 17 10  1  0  0  0  0
 17  7  2  0  0  0  0
 18  3  2  0  0  0  0
 19 12  1  0  0  0  0
 20 24  1  0  0  0  0
 21 20  2  0  0  0  0
 22 16  1  6  0  0  0
 22 24  1  0  0  0  0
 23 25  2  0  0  0  0
 23 21  1  0  0  0  0
 24 26  2  0  0  0  0
 25 22  1  0  0  0  0
 27  9  1  0  0  0  0
 29 28  1  0  0  0  0
 29 27  1  1  0  0  0
 30 28  1  0  0  0  0
 32 34  1  0  0  0  0
 32 33  1  0  0  0  0
 33 29  1  0  0  0  0
 34 31  1  1  0  0  0
 34 30  1  0  0  0  0
M  END
>  <MODEL>
4

>  <REMARK>
 VINA RESULT:      -7.9      2.823      5.919
  Name = 
  3 active torsions:
  status: ('A' for Active; 'I' for Inactive)
    1  A    between atoms: N_3  and  C_13
    2  A    between atoms: N_3  and  N_17
    3  A    between atoms: C_12  and  C_28
                            x       y       z     vdW  Elec       q    Type
                         _______ _______ _______ _____ _____    ______ ____

>  <TORSDO>
F 3

$$$$
=
 OpenBabel11052418463D

 34 39  0  0  1  0  0  0  0  0999 V2000
  190.7160  172.9630  139.9340 C   0  0  0  0  0  0  0  0  0  0  0  0
  188.9410  173.4930  141.5340 C   0  0  0  0  0  0  0  0  0  0  0  0
  191.3600  174.3970  141.8050 C   0  0  0  0  0  0  0  0  0  0  0  0
  192.1780  175.9280  143.4960 C   0  0  0  0  0  0  0  0  0  0  0  0
  188.2940  172.6540  139.4020 C   0  0  0  0  0  3  0  0  0  0  0  0
  187.9620  173.2040  140.5310 N   0  0  0  0  0  0  0  0  0  0  0  0
  189.9090  175.6210  143.3920 N   0  0  0  0  0  0  0  0  0  0  0  0
  190.3630  173.6380  141.1200 C   0  0  0  0  0  0  0  0  0  0  0  0
  188.9270  176.9860  145.1720 N   0  0  0  0  0  2  0  0  0  0  0  0
  191.6350  176.9350  144.7210 S   0  0  0  0  0  0  0  0  0  0  0  0
  189.6990  172.1790  139.1490 C   0  0  0  0  0  2  0  0  0  0  0  0
  192.9960  173.5850  140.2240 N   0  0  0  0  0  0  0  0  0  0  0  0
  192.0430  172.9330  139.5180 C   0  0  0  0  0  3  0  0  0  0  0  0
  188.5900  173.5260  142.7410 O   0  0  0  0  0  0  0  0  0  0  0  0
  193.4570  175.7850  143.0880 N   0  0  0  0  0  0  0  0  0  0  0  0
  193.7470  174.9940  142.0140 C   0  0  0  0  0  0  0  0  0  0  0  0
  190.0340  176.5070  144.4100 C   0  0  0  0  0  0  0  0  0  0  0  0
  191.1200  175.2770  142.8860 C   0  0  0  0  0  0  0  0  0  0  0  0
  192.7090  174.3100  141.3370 C   0  0  0  0  0  0  0  0  0  0  0  0
  196.8220  175.3810  143.4590 N   0  0  0  0  0  0  0  0  0  0  0  0
  197.0510  176.5550  142.9570 C   0  0  0  0  0  3  0  0  0  0  0  0
  195.1810  174.8330  141.5890 C   0  0  2  0  0  3  0  0  0  0  0  0
  196.5220  176.9300  141.6340 C   0  0  0  0  0  3  0  0  0  0  0  0
  196.0100  174.4190  142.7760 C   0  0  0  0  0  0  0  0  0  0  0  0
  195.6890  176.1180  140.9820 C   0  0  0  0  0  3  0  0  0  0  0  0
  195.9570  173.2330  143.1970 O   0  0  0  0  0  0  0  0  0  0  0  0
  187.6270  176.5180  144.9390 N   0  0  0  0  0  2  0  0  0  0  0  0
  185.3400  177.2100  145.4560 C   0  0  0  0  0  2  0  0  0  0  0  0
  186.7410  177.6660  145.0350 C   0  0  2  0  0  3  0  0  0  0  0  0
  184.4020  178.4070  145.5640 C   0  0  0  0  0  2  0  0  0  0  0  0
  183.7140  178.3720  143.2640 O   0  0  0  0  0  1  0  0  0  0  0  0
  185.7330  179.5820  143.7730 C   0  0  0  0  0  2  0  0  0  0  0  0
  186.6750  178.3770  143.6850 C   0  0  0  0  0  2  0  0  0  0  0  0
  184.3310  179.1630  144.2350 C   0  0  2  0  0  3  0  0  0  0  0  0
  1  8  1  0  0  0  0
  2 14  2  0  0  0  0
  3 18  1  0  0  0  0
  4 10  1  0  0  0  0
  5  6  2  0  0  0  0
  6  2  1  0  0  0  0
  7 17  2  0  0  0  0
  8  2  1  0  0  0  0
  8  3  2  0  0  0  0
 11  5  1  0  0  0  0
 11  1  1  0  0  0  0
 12 19  2  0  0  0  0
 13  1  2  0  0  0  0
 13 12  1  0  0  0  0
 15  4  1  0  0  0  0
 16 15  2  0  0  0  0
 17 10  1  0  0  0  0
 17  9  1  0  0  0  0
 18  7  1  0  0  0  0
 18  4  2  0  0  0  0
 19  3  1  0  0  0  0
 19 16  1  0  0  0  0
 21 20  2  0  0  0  0
 22 16  1  1  0  0  0
 22 24  1  0  0  0  0
 23 21  1  0  0  0  0
 24 26  2  0  0  0  0
 24 20  1  0  0  0  0
 25 22  1  0  0  0  0
 25 23  2  0  0  0  0
 27  9  1  0  0  0  0
 28 30  1  0  0  0  0
 29 27  1  6  0  0  0
 29 28  1  0  0  0  0
 32 34  1  0  0  0  0
 33 32  1  0  0  0  0
 33 29  1  0  0  0  0
 34 31  1  6  0  0  0
 34 30  1  0  0  0  0
M  END
>  <MODEL>
5

>  <REMARK>
 VINA RESULT:      -7.9      2.426      8.313
  Name = 
  3 active torsions:
  status: ('A' for Active; 'I' for Inactive)
    1  A    between atoms: N_3  and  C_13
    2  A    between atoms: N_3  and  N_17
    3  A    between atoms: C_12  and  C_28
                            x       y       z     vdW  Elec       q    Type
                         _______ _______ _______ _____ _____    ______ ____

>  <TORSDO>
F 3

$$$$
=
 OpenBabel11052418463D

 34 39  0  0  1  0  0  0  0  0999 V2000
  192.9890  174.6010  144.9440 C   0  0  0  0  0  0  0  0  0  0  0  0
  191.4360  176.4910  144.8530 C   0  0  0  0  0  0  0  0  0  0  0  0
  191.3200  174.5250  143.1610 C   0  0  0  0  0  0  0  0  0  0  0  0
  189.6780  174.1830  141.4120 C   0  0  0  0  0  0  0  0  0  0  0  0
  192.6570  176.1590  146.8690 C   0  0  0  0  0  3  0  0  0  0  0  0
  191.7000  176.7640  146.2330 N   0  0  0  0  0  0  0  0  0  0  0  0
  189.2570  175.8670  142.9100 N   0  0  0  0  0  0  0  0  0  0  0  0
  191.8950  175.1960  144.2830 C   0  0  0  0  0  0  0  0  0  0  0  0
  187.1560  176.9190  142.2190 N   0  0  0  0  0  2  0  0  0  0  0  0
  188.2150  174.7840  140.8560 S   0  0  0  0  0  0  0  0  0  0  0  0
  193.6120  175.2430  146.1550 C   0  0  0  0  0  2  0  0  0  0  0  0
  193.0730  172.8710  143.3120 N   0  0  0  0  0  0  0  0  0  0  0  0
  193.5740  173.4510  144.4270 C   0  0  0  0  0  3  0  0  0  0  0  0
  190.9090  177.3840  144.1420 O   0  0  0  0  0  0  0  0  0  0  0  0
  190.3460  173.1220  140.9130 N   0  0  0  0  0  0  0  0  0  0  0  0
  191.4870  172.6850  141.5230 C   0  0  0  0  0  0  0  0  0  0  0  0
  188.1820  175.9370  142.0870 C   0  0  0  0  0  0  0  0  0  0  0  0
  190.1130  174.8890  142.5200 C   0  0  0  0  0  0  0  0  0  0  0  0
  191.9790  173.3560  142.6670 C   0  0  0  0  0  0  0  0  0  0  0  0
  191.4670  170.9590  138.5710 N   0  0  0  0  0  0  0  0  0  0  0  0
  190.7310  169.9800  139.0010 C   0  0  0  0  0  3  0  0  0  0  0  0
  192.2260  171.5120  140.9380 C   0  0  2  0  0  3  0  0  0  0  0  0
  190.8000  169.5420  140.4060 C   0  0  0  0  0  3  0  0  0  0  0  0
  192.3360  171.6850  139.4470 C   0  0  0  0  0  0  0  0  0  0  0  0
  191.5220  170.2260  141.2950 C   0  0  0  0  0  3  0  0  0  0  0  0
  193.1670  172.5020  138.9670 O   0  0  0  0  0  0  0  0  0  0  0  0
  187.2310  177.9210  143.1970 N   0  0  0  0  0  2  0  0  0  0  0  0
  185.4960  179.1500  144.4030 C   0  0  0  0  0  2  0  0  0  0  0  0
  186.0590  177.7710  144.0450 C   0  0  2  0  0  3  0  0  0  0  0  0
  184.2640  179.0060  145.2890 C   0  0  0  0  0  2  0  0  0  0  0  0
  185.4720  178.9710  147.3630 O   0  0  0  0  0  1  0  0  0  0  0  0
  185.2150  176.8650  146.2230 C   0  0  0  0  0  2  0  0  0  0  0  0
  186.4410  177.0170  145.3170 C   0  0  0  0  0  2  0  0  0  0  0  0
  184.6000  178.2300  146.5640 C   0  0  2  0  0  3  0  0  0  0  0  0
  1 11  1  0  0  0  0
  2  6  1  0  0  0  0
  3  8  1  0  0  0  0
  4 18  1  0  0  0  0
  6  5  2  0  0  0  0
  8  2  1  0  0  0  0
  8  1  2  0  0  0  0
  9 27  1  0  0  0  0
 10  4  1  0  0  0  0
 10 17  1  0  0  0  0
 11  5  1  0  0  0  0
 12 13  2  0  0  0  0
 13  1  1  0  0  0  0
 14  2  2  0  0  0  0
 15  4  2  0  0  0  0
 15 16  1  0  0  0  0
 16 19  2  0  0  0  0
 17  9  1  0  0  0  0
 17  7  2  0  0  0  0
 18  7  1  0  0  0  0
 18  3  2  0  0  0  0
 19  3  1  0  0  0  0
 19 12  1  0  0  0  0
 20 21  2  0  0  0  0
 20 24  1  0  0  0  0
 21 23  1  0  0  0  0
 22 25  1  0  0  0  0
 22 16  1  6  0  0  0
 23 25  2  0  0  0  0
 24 22  1  0  0  0  0
 26 24  2  0  0  0  0
 28 30  1  0  0  0  0
 29 27  1  6  0  0  0
 29 28  1  0  0  0  0
 29 33  1  0  0  0  0
 30 34  1  0  0  0  0
 32 34  1  0  0  0  0
 33 32  1  0  0  0  0
 34 31  1  1  0  0  0
M  END
>  <MODEL>
6

>  <REMARK>
 VINA RESULT:      -7.9      2.581      8.669
  Name = 
  3 active torsions:
  status: ('A' for Active; 'I' for Inactive)
    1  A    between atoms: N_3  and  C_13
    2  A    between atoms: N_3  and  N_17
    3  A    between atoms: C_12  and  C_28
                            x       y       z     vdW  Elec       q    Type
                         _______ _______ _______ _____ _____    ______ ____

>  <TORSDO>
F 3

$$$$
=
 OpenBabel11052418463D

 34 39  0  0  1  0  0  0  0  0999 V2000
  191.2680  175.8380  146.3690 C   0  0  0  0  0  0  0  0  0  0  0  0
  191.4660  174.2620  144.5070 C   0  0  0  0  0  0  0  0  0  0  0  0
  189.4740  175.9150  144.7120 C   0  0  0  0  0  0  0  0  0  0  0  0
  187.6700  176.2490  143.1290 C   0  0  0  0  0  0  0  0  0  0  0  0
  193.4170  174.6980  145.7980 C   0  0  0  0  0  3  0  0  0  0  0  0
  192.8750  174.1750  144.7400 N   0  0  0  0  0  0  0  0  0  0  0  0
  189.4170  174.9320  142.4410 N   0  0  0  0  0  0  0  0  0  0  0  0
  190.6980  175.3450  145.1780 C   0  0  0  0  0  0  0  0  0  0  0  0
  188.8790  174.1670  140.1780 N   0  0  0  0  0  2  0  0  0  0  0  0
  187.2000  175.8320  141.5750 S   0  0  0  0  0  0  0  0  0  0  0  0
  192.5760  175.3040  146.8880 C   0  0  0  0  0  2  0  0  0  0  0  0
  189.3760  177.2370  146.7310 N   0  0  0  0  0  0  0  0  0  0  0  0
  190.5780  176.7680  147.1390 C   0  0  0  0  0  3  0  0  0  0  0  0
  190.9030  173.3710  143.8200 O   0  0  0  0  0  0  0  0  0  0  0  0
  187.0140  177.0800  143.9650 N   0  0  0  0  0  0  0  0  0  0  0  0
  187.5590  177.4030  145.1740 C   0  0  0  0  0  0  0  0  0  0  0  0
  188.6020  174.9190  141.3590 C   0  0  0  0  0  0  0  0  0  0  0  0
  188.8840  175.6680  143.4500 C   0  0  0  0  0  0  0  0  0  0  0  0
  188.8040  176.8530  145.5590 C   0  0  0  0  0  0  0  0  0  0  0  0
  184.4150  177.5280  146.5130 N   0  0  0  0  0  0  0  0  0  0  0  0
  183.9480  178.3890  145.6610 C   0  0  0  0  0  3  0  0  0  0  0  0
  186.8010  178.3160  146.0990 C   0  0  2  0  0  3  0  0  0  0  0  0
  184.8190  179.4230  145.0770 C   0  0  0  0  0  3  0  0  0  0  0  0
  185.7980  177.5120  146.8830 C   0  0  0  0  0  0  0  0  0  0  0  0
  186.1330  179.4150  145.3090 C   0  0  0  0  0  3  0  0  0  0  0  0
  186.1810  176.7910  147.8410 O   0  0  0  0  0  0  0  0  0  0  0  0
  190.0080  173.3420  140.0920 N   0  0  0  0  0  2  0  0  0  0  0  0
  189.2970  173.7910  137.7960 C   0  0  0  0  0  2  0  0  0  0  0  0
  190.4590  173.3870  138.7100 C   0  0  2  0  0  3  0  0  0  0  0  0
  189.7590  173.8450  136.3440 C   0  0  0  0  0  2  0  0  0  0  0  0
  189.3170  171.5340  135.8720 O   0  0  0  0  0  1  0  0  0  0  0  0
  191.4600  172.0510  136.8410 C   0  0  0  0  0  2  0  0  0  0  0  0
  190.9940  172.0160  138.3000 C   0  0  0  0  0  2  0  0  0  0  0  0
  190.3280  172.4950  135.9040 C   0  0  2  0  0  3  0  0  0  0  0  0
  1 11  1  0  0  0  0
  1 13  1  0  0  0  0
  2  6  1  0  0  0  0
  2  8  1  0  0  0  0
  3  8  1  0  0  0  0
  3 19  1  0  0  0  0
  4 18  1  0  0  0  0
  4 15  2  0  0  0  0
  5 11  1  0  0  0  0
  6  5  2  0  0  0  0
  7 18  1  0  0  0  0
  8  1  2  0  0  0  0
  9 17  1  0  0  0  0
 10  4  1  0  0  0  0
 12 13  2  0  0  0  0
 14  2  2  0  0  0  0
 15 16  1  0  0  0  0
 16 19  2  0  0  0  0
 17 10  1  0  0  0  0
 17  7  2  0  0  0  0
 18  3  2  0  0  0  0
 19 12  1  0  0  0  0
 20 24  1  0  0  0  0
 21 20  2  0  0  0  0
 22 16  1  6  0  0  0
 22 24  1  0  0  0  0
 23 25  2  0  0  0  0
 23 21  1  0  0  0  0
 24 26  2  0  0  0  0
 25 22  1  0  0  0  0
 27  9  1  0  0  0  0
 28 29  1  0  0  0  0
 29 27  1  1  0  0  0
 30 28  1  0  0  0  0
 32 33  1  0  0  0  0
 33 29  1  0  0  0  0
 34 31  1  1  0  0  0
 34 30  1  0  0  0  0
 34 32  1  0  0  0  0
M  END
>  <MODEL>
7

>  <REMARK>
 VINA RESULT:      -7.8      2.801      6.067
  Name = 
  3 active torsions:
  status: ('A' for Active; 'I' for Inactive)
    1  A    between atoms: N_3  and  C_13
    2  A    between atoms: N_3  and  N_17
    3  A    between atoms: C_12  and  C_28
                            x       y       z     vdW  Elec       q    Type
                         _______ _______ _______ _____ _____    ______ ____

>  <TORSDO>
F 3

$$$$
=
 OpenBabel11052418463D

 34 39  0  0  1  0  0  0  0  0999 V2000
  194.2780  175.4950  143.0180 C   0  0  0  0  0  0  0  0  0  0  0  0
  192.5670  176.7880  144.1990 C   0  0  0  0  0  0  0  0  0  0  0  0
  191.9700  175.1060  142.3140 C   0  0  0  0  0  0  0  0  0  0  0  0
  189.7590  174.4720  141.5520 C   0  0  0  0  0  0  0  0  0  0  0  0
  194.7190  176.6230  145.2040 C   0  0  0  0  0  3  0  0  0  0  0  0
  193.4690  176.9630  145.2970 N   0  0  0  0  0  0  0  0  0  0  0  0
  189.8710  175.7400  143.4590 N   0  0  0  0  0  0  0  0  0  0  0  0
  192.9050  175.7850  143.1530 C   0  0  0  0  0  0  0  0  0  0  0  0
  187.5650  176.1430  144.1780 N   0  0  0  0  0  2  0  0  0  0  0  0
  188.1400  174.6370  141.9560 S   0  0  0  0  0  0  0  0  0  0  0  0
  195.3050  176.1510  143.9010 C   0  0  0  0  0  2  0  0  0  0  0  0
  193.8270  174.0910  141.1480 N   0  0  0  0  0  0  0  0  0  0  0  0
  194.7160  174.6620  141.9940 C   0  0  0  0  0  3  0  0  0  0  0  0
  191.5680  177.5450  144.1010 O   0  0  0  0  0  0  0  0  0  0  0  0
  190.2560  173.7470  140.5290 N   0  0  0  0  0  0  0  0  0  0  0  0
  191.6070  173.6270  140.3700 C   0  0  0  0  0  0  0  0  0  0  0  0
  188.5360  175.5620  143.3090 C   0  0  0  0  0  0  0  0  0  0  0  0
  190.5640  175.1410  142.4570 C   0  0  0  0  0  0  0  0  0  0  0  0
  192.4860  174.2760  141.2680 C   0  0  0  0  0  0  0  0  0  0  0  0
  190.6570  172.9980  137.1450 N   0  0  0  0  0  0  0  0  0  0  0  0
  190.1270  171.8390  137.3930 C   0  0  0  0  0  3  0  0  0  0  0  0
  192.1400  172.8300  139.2100 C   0  0  2  0  0  3  0  0  0  0  0  0
  190.6640  170.9730  138.4560 C   0  0  0  0  0  3  0  0  0  0  0  0
  191.7500  173.5030  137.9210 C   0  0  0  0  0  0  0  0  0  0  0  0
  191.6220  171.4140  139.2730 C   0  0  0  0  0  3  0  0  0  0  0  0
  192.3580  174.5400  137.5430 O   0  0  0  0  0  0  0  0  0  0  0  0
  187.9450  176.9910  145.2280 N   0  0  0  0  0  2  0  0  0  0  0  0
  185.5630  177.2200  145.7280 C   0  0  0  0  0  2  0  0  0  0  0  0
  186.8690  177.9530  145.4040 C   0  0  2  0  0  3  0  0  0  0  0  0
  184.4270  178.2190  145.9180 C   0  0  0  0  0  2  0  0  0  0  0  0
  183.7970  178.2990  143.6040 O   0  0  0  0  0  1  0  0  0  0  0  0
  185.5620  179.7830  144.2980 C   0  0  0  0  0  2  0  0  0  0  0  0
  186.7030  178.7750  144.1270 C   0  0  0  0  0  2  0  0  0  0  0  0
  184.2480  179.0820  144.6680 C   0  0  2  0  0  3  0  0  0  0  0  0
  1  8  1  0  0  0  0
  1 11  1  0  0  0  0
  2  6  1  0  0  0  0
  3 18  1  0  0  0  0
  3  8  2  0  0  0  0
  4 10  1  0  0  0  0
  4 18  2  0  0  0  0
  5  6  2  0  0  0  0
  8  2  1  0  0  0  0
  9 27  1  0  0  0  0
 10 17  1  0  0  0  0
 11  5  1  0  0  0  0
 12 19  2  0  0  0  0
 12 13  1  0  0  0  0
 13  1  2  0  0  0  0
 14  2  2  0  0  0  0
 15  4  1  0  0  0  0
 16 15  2  0  0  0  0
 16 19  1  0  0  0  0
 17  7  2  0  0  0  0
 17  9  1  0  0  0  0
 18  7  1  0  0  0  0
 19  3  1  0  0  0  0
 20 21  2  0  0  0  0
 20 24  1  0  0  0  0
 21 23  1  0  0  0  0
 22 25  1  0  0  0  0
 22 16  1  1  0  0  0
 23 25  2  0  0  0  0
 24 22  1  0  0  0  0
 26 24  2  0  0  0  0
 28 30  1  0  0  0  0
 29 27  1  6  0  0  0
 29 28  1  0  0  0  0
 32 34  1  0  0  0  0
 33 32  1  0  0  0  0
 33 29  1  0  0  0  0
 34 31  1  6  0  0  0
 34 30  1  0  0  0  0
M  END
>  <MODEL>
8

>  <REMARK>
 VINA RESULT:      -7.8      2.827      8.625
  Name = 
  3 active torsions:
  status: ('A' for Active; 'I' for Inactive)
    1  A    between atoms: N_3  and  C_13
    2  A    between atoms: N_3  and  N_17
    3  A    between atoms: C_12  and  C_28
                            x       y       z     vdW  Elec       q    Type
                         _______ _______ _______ _____ _____    ______ ____

>  <TORSDO>
F 3

$$$$
=
 OpenBabel11052418463D

 34 39  0  0  1  0  0  0  0  0999 V2000
  184.9400  178.0080  143.3440 C   0  0  0  0  0  0  0  0  0  0  0  0
  185.6240  177.5040  141.0490 C   0  0  0  0  0  0  0  0  0  0  0  0
  186.9380  176.6200  143.1070 C   0  0  0  0  0  0  0  0  0  0  0  0
  188.8510  175.1340  143.1040 C   0  0  0  0  0  0  0  0  0  0  0  0
  183.4040  178.2910  141.3940 C   0  0  0  0  0  3  0  0  0  0  0  0
  184.2890  177.7650  140.6020 N   0  0  0  0  0  0  0  0  0  0  0  0
  187.7670  175.4250  141.1050 N   0  0  0  0  0  0  0  0  0  0  0  0
  185.8710  177.3580  142.5080 C   0  0  0  0  0  0  0  0  0  0  0  0
  188.9760  174.0950  139.4430 N   0  0  0  0  0  2  0  0  0  0  0  0
  189.7430  174.1510  142.0790 S   0  0  0  0  0  0  0  0  0  0  0  0
  183.7740  178.7680  142.7710 C   0  0  0  0  0  2  0  0  0  0  0  0
  186.2040  177.4060  145.2700 N   0  0  0  0  0  0  0  0  0  0  0  0
  185.1400  178.0360  144.7200 C   0  0  0  0  0  3  0  0  0  0  0  0
  186.5600  177.4960  140.2090 O   0  0  0  0  0  0  0  0  0  0  0  0
  189.0350  175.2740  144.4330 N   0  0  0  0  0  0  0  0  0  0  0  0
  188.1740  176.0420  145.1640 C   0  0  0  0  0  0  0  0  0  0  0  0
  188.7580  174.5630  140.7730 C   0  0  0  0  0  0  0  0  0  0  0  0
  187.8280  175.7640  142.4180 C   0  0  0  0  0  0  0  0  0  0  0  0
  187.0990  176.7050  144.5260 C   0  0  0  0  0  0  0  0  0  0  0  0
  190.8330  176.7600  147.1920 N   0  0  0  0  0  0  0  0  0  0  0  0
  191.0740  175.5280  147.5250 C   0  0  0  0  0  3  0  0  0  0  0  0
  188.4100  176.2010  146.6420 C   0  0  2  0  0  3  0  0  0  0  0  0
  189.9830  174.5450  147.6310 C   0  0  0  0  0  3  0  0  0  0  0  0
  189.5110  177.2030  146.8660 C   0  0  0  0  0  0  0  0  0  0  0  0
  188.7420  174.8660  147.2600 C   0  0  0  0  0  3  0  0  0  0  0  0
  189.2810  178.4330  146.7280 O   0  0  0  0  0  0  0  0  0  0  0  0
  188.1920  174.5510  138.3750 N   0  0  0  0  0  2  0  0  0  0  0  0
  189.3300  172.5050  137.6690 C   0  0  0  0  0  2  0  0  0  0  0  0
  188.5370  173.7370  137.2200 C   0  0  2  0  0  3  0  0  0  0  0  0
  189.6950  171.6410  136.4670 C   0  0  0  0  0  2  0  0  0  0  0  0
  191.7520  172.7770  135.9800 O   0  0  0  0  0  1  0  0  0  0  0  0
  189.7480  173.7110  135.0260 C   0  0  0  0  0  2  0  0  0  0  0  0
  189.3680  174.5640  136.2410 C   0  0  0  0  0  2  0  0  0  0  0  0
  190.5050  172.4440  135.4480 C   0  0  2  0  0  3  0  0  0  0  0  0
  1 13  1  0  0  0  0
  2  8  1  0  0  0  0
  3 19  1  0  0  0  0
  4 15  2  0  0  0  0
  5 11  1  0  0  0  0
  6  2  1  0  0  0  0
  6  5  2  0  0  0  0
  7 18  1  0  0  0  0
  8  3  1  0  0  0  0
  8  1  2  0  0  0  0
  9 17  1  0  0  0  0
 10  4  1  0  0  0  0
 11  1  1  0  0  0  0
 13 12  2  0  0  0  0
 14  2  2  0  0  0  0
 15 16  1  0  0  0  0
 17  7  2  0  0  0  0
 17 10  1  0  0  0  0
 18  4  1  0  0  0  0
 18  3  2  0  0  0  0
 19 16  2  0  0  0  0
 19 12  1  0  0  0  0
 20 21  2  0  0  0  0
 21 23  1  0  0  0  0
 22 16  1  6  0  0  0
 22 24  1  0  0  0  0
 22 25  1  0  0  0  0
 24 20  1  0  0  0  0
 25 23  2  0  0  0  0
 26 24  2  0  0  0  0
 27  9  1  0  0  0  0
 29 28  1  0  0  0  0
 29 27  1  1  0  0  0
 30 28  1  0  0  0  0
 32 34  1  0  0  0  0
 32 33  1  0  0  0  0
 33 29  1  0  0  0  0
 34 31  1  1  0  0  0
 34 30  1  0  0  0  0
M  END
>  <MODEL>
9

>  <REMARK>
 VINA RESULT:      -7.5      3.749      7.011
  Name = 
  3 active torsions:
  status: ('A' for Active; 'I' for Inactive)
    1  A    between atoms: N_3  and  C_13
    2  A    between atoms: N_3  and  N_17
    3  A    between atoms: C_12  and  C_28
                            x       y       z     vdW  Elec       q    Type
                         _______ _______ _______ _____ _____    ______ ____

>  <TORSDO>
F 3

$$$$
