=
 OpenBabel11052418183D

 28 30  0  0  1  0  0  0  0  0999 V2000
  192.4270  176.7270  147.0440 C   0  0  0  0  0  1  0  0  0  0  0  0
  188.9710  176.5090  145.4870 N   0  0  0  0  0  0  0  0  0  0  0  0
  189.6510  177.8600  147.4650 C   0  0  0  0  0  1  0  0  0  0  0  0
  191.4920  175.1520  145.3680 C   0  0  2  0  0  3  0  0  0  0  0  0
  189.2750  175.6350  144.3590 C   0  0  0  0  0  2  0  0  0  0  0  0
  192.4190  174.1680  145.7300 O   0  0  0  0  0  1  0  0  0  0  0  0
  191.1570  176.0320  146.5820 C   0  0  1  0  0  0  0  0  0  0  0  0
  190.6770  175.2290  147.6210 O   0  0  0  0  0  1  0  0  0  0  0  0
  190.1070  177.1040  146.2140 C   0  0  1  0  0  3  0  0  0  0  0  0
  190.2260  174.5150  144.7730 C   0  0  1  0  0  3  0  0  0  0  0  0
  190.5690  173.5750  143.5960 C   0  0  2  0  0  3  0  0  0  0  0  0
  190.8770  174.3220  142.2650 C   0  0  2  0  0  3  0  0  0  0  0  0
  189.8320  172.5460  140.6710 C   0  0  0  0  0  2  0  0  0  0  0  0
  190.6700  171.7370  141.4530 O   0  0  0  0  0  0  0  0  0  0  0  0
  189.9190  171.3200  142.5660 C   0  0  0  0  0  2  0  0  0  0  0  0
  188.5900  174.6530  141.2460 C   0  0  0  0  0  1  0  0  0  0  0  0
  189.4960  172.4850  143.4750 C   0  0  0  0  0  2  0  0  0  0  0  0
  189.9600  174.0300  141.0580 C   0  0  1  0  0  3  0  0  0  0  0  0
  192.2120  174.1160  141.9050 O   0  0  0  0  0  0  0  0  0  0  0  0
  192.8060  175.3760  141.9680 C   0  0  0  0  0  1  0  0  0  0  0  0
  187.4050  178.0730  144.4920 N   0  0  0  0  0  0  0  0  0  0  0  0
  186.6910  176.7970  146.3840 C   0  0  0  0  0  0  0  0  0  0  0  0
  185.1750  178.3350  145.3020 C   0  0  0  0  0  0  0  0  0  0  0  0
  187.6830  177.1460  145.4540 C   0  0  0  0  0  0  0  0  0  0  0  0
  185.4330  177.3960  146.3010 C   0  0  0  0  0  3  0  0  0  0  0  0
  186.9480  175.8720  147.3890 O   0  0  0  0  0  1  0  0  0  0  0  0
  183.9250  178.9330  145.2090 O   0  0  0  0  0  1  0  0  0  0  0  0
  186.1850  178.6700  144.4010 C   0  0  0  0  0  3  0  0  0  0  0  0
  2  9  1  0  0  0  0
  4  6  1  1  0  0  0
  4  7  1  0  0  0  0
  5  2  1  0  0  0  0
  7  1  1  1  0  0  0
  7  8  1  0  0  0  0
  9  7  1  0  0  0  0
  9  3  1  1  0  0  0
 10  5  1  6  0  0  0
 10  4  1  0  0  0  0
 11 17  1  6  0  0  0
 11 10  1  0  0  0  0
 12 19  1  6  0  0  0
 12 11  1  0  0  0  0
 13 18  1  0  0  0  0
 13 14  1  0  0  0  0
 14 15  1  0  0  0  0
 15 17  1  0  0  0  0
 18 16  1  1  0  0  0
 18 12  1  0  0  0  0
 19 20  1  0  0  0  0
 21 24  1  0  0  0  0
 22 26  1  0  0  0  0
 23 25  2  0  0  0  0
 24  2  1  0  0  0  0
 24 22  2  0  0  0  0
 25 22  1  0  0  0  0
 27 23  1  0  0  0  0
 28 21  2  0  0  0  0
 28 23  1  0  0  0  0
M  END
>  <MODEL>
1

>  <REMARK>
 VINA RESULT:      -6.8      0.000      0.000
  Name = 
  3 active torsions:
  status: ('A' for Active; 'I' for Inactive)
    1  A    between atoms: C_1  and  C_27
    2  A    between atoms: O_2  and  C_3
    3  A    between atoms: N_10  and  C_13
                            x       y       z     vdW  Elec       q    Type
                         _______ _______ _______ _____ _____    ______ ____

>  <TORSDO>
F 3

$$$$
=
 OpenBabel11052418183D

 28 30  0  0  1  0  0  0  0  0999 V2000
  191.0730  170.9130  142.0990 C   0  0  0  0  0  1  0  0  0  0  0  0
  192.7890  174.0690  143.3270 N   0  0  0  0  0  0  0  0  0  0  0  0
  193.8680  172.0490  142.3500 C   0  0  0  0  0  1  0  0  0  0  0  0
  190.2180  172.8110  143.4520 C   0  0  2  0  0  3  0  0  0  0  0  0
  191.6130  174.8510  143.6910 C   0  0  0  0  0  2  0  0  0  0  0  0
  189.2320  171.9990  144.0240 O   0  0  0  0  0  1  0  0  0  0  0  0
  191.4620  171.9720  143.1170 C   0  0  1  0  0  0  0  0  0  0  0  0
  191.9220  171.3400  144.2760 O   0  0  0  0  0  1  0  0  0  0  0  0
  192.5780  172.8560  142.5180 C   0  0  1  0  0  3  0  0  0  0  0  0
  190.5680  173.9810  144.3850 C   0  0  1  0  0  3  0  0  0  0  0  0
  189.3080  174.7830  144.7780 C   0  0  2  0  0  3  0  0  0  0  0  0
  188.9260  175.8940  143.7560 C   0  0  2  0  0  3  0  0  0  0  0  0
  188.0370  177.6160  145.4970 C   0  0  0  0  0  2  0  0  0  0  0  0
  187.3220  176.4690  145.8740 O   0  0  0  0  0  0  0  0  0  0  0  0
  188.1120  175.7820  146.8130 C   0  0  0  0  0  2  0  0  0  0  0  0
  190.3250  177.8630  144.4930 C   0  0  0  0  0  1  0  0  0  0  0  0
  189.4390  175.2750  146.2260 C   0  0  0  0  0  2  0  0  0  0  0  0
  188.9170  177.3520  144.2620 C   0  0  1  0  0  3  0  0  0  0  0  0
  187.6950  175.5910  143.1650 O   0  0  0  0  0  0  0  0  0  0  0  0
  187.9790  175.3830  141.8170 C   0  0  0  0  0  1  0  0  0  0  0  0
  194.3610  175.5270  142.1880 N   0  0  0  0  0  0  0  0  0  0  0  0
  194.8980  174.7760  144.3940 C   0  0  0  0  0  0  0  0  0  0  0  0
  196.3830  176.2730  143.2140 C   0  0  0  0  0  0  0  0  0  0  0  0
  194.0310  174.7910  143.2890 C   0  0  0  0  0  0  0  0  0  0  0  0
  196.0760  175.5240  144.3510 C   0  0  0  0  0  3  0  0  0  0  0  0
  194.6040  174.0210  145.5230 O   0  0  0  0  0  1  0  0  0  0  0  0
  197.5500  177.0220  143.1630 O   0  0  0  0  0  1  0  0  0  0  0  0
  195.5070  176.2570  142.1280 C   0  0  0  0  0  3  0  0  0  0  0  0
  2  5  1  0  0  0  0
  4  6  1  1  0  0  0
  4 10  1  0  0  0  0
  7  1  1  6  0  0  0
  7  4  1  0  0  0  0
  7  8  1  0  0  0  0
  9  3  1  1  0  0  0
  9  7  1  0  0  0  0
  9  2  1  0  0  0  0
 10  5  1  6  0  0  0
 10 11  1  0  0  0  0
 11 17  1  1  0  0  0
 12 19  1  1  0  0  0
 12 18  1  0  0  0  0
 12 11  1  0  0  0  0
 13 14  1  0  0  0  0
 14 15  1  0  0  0  0
 17 15  1  0  0  0  0
 18 16  1  1  0  0  0
 18 13  1  0  0  0  0
 20 19  1  0  0  0  0
 21 24  1  0  0  0  0
 22 26  1  0  0  0  0
 23 25  2  0  0  0  0
 24  2  1  0  0  0  0
 24 22  2  0  0  0  0
 25 22  1  0  0  0  0
 27 23  1  0  0  0  0
 28 21  2  0  0  0  0
 28 23  1  0  0  0  0
M  END
>  <MODEL>
2

>  <REMARK>
 VINA RESULT:      -6.5      2.960      6.968
  Name = 
  3 active torsions:
  status: ('A' for Active; 'I' for Inactive)
    1  A    between atoms: C_1  and  C_27
    2  A    between atoms: O_2  and  C_3
    3  A    between atoms: N_10  and  C_13
                            x       y       z     vdW  Elec       q    Type
                         _______ _______ _______ _____ _____    ______ ____

>  <TORSDO>
F 3

$$$$
=
 OpenBabel11052418183D

 28 30  0  0  1  0  0  0  0  0999 V2000
  189.5990  171.9960  141.5800 C   0  0  0  0  0  1  0  0  0  0  0  0
  189.3390  175.3720  143.2990 N   0  0  0  0  0  0  0  0  0  0  0  0
  187.5630  174.1940  142.0130 C   0  0  0  0  0  1  0  0  0  0  0  0
  191.3490  173.4790  142.5320 C   0  0  2  0  0  3  0  0  0  0  0  0
  190.6640  175.4310  143.9060 C   0  0  0  0  0  2  0  0  0  0  0  0
  192.3170  172.9360  141.6790 O   0  0  0  0  0  1  0  0  0  0  0  0
  189.9710  173.4450  141.8530 C   0  0  1  0  0  0  0  0  0  0  0  0
  190.0330  174.1330  140.6370 O   0  0  0  0  0  1  0  0  0  0  0  0
  188.8920  174.0740  142.7620 C   0  0  1  0  0  3  0  0  0  0  0  0
  191.7320  174.9090  142.9470 C   0  0  1  0  0  3  0  0  0  0  0  0
  193.1460  174.9550  143.5660 C   0  0  2  0  0  3  0  0  0  0  0  0
  193.3340  173.9940  144.7770 C   0  0  2  0  0  3  0  0  0  0  0  0
  194.9410  175.5280  146.1370 C   0  0  0  0  0  2  0  0  0  0  0  0
  195.5790  175.5220  144.8870 O   0  0  0  0  0  0  0  0  0  0  0  0
  195.0380  176.5860  144.1430 C   0  0  0  0  0  2  0  0  0  0  0  0
  192.5070  175.3600  146.7330 C   0  0  0  0  0  1  0  0  0  0  0  0
  193.5390  176.4110  143.8490 C   0  0  0  0  0  2  0  0  0  0  0  0
  193.6930  174.6270  146.1380 C   0  0  1  0  0  3  0  0  0  0  0  0
  194.2670  173.0040  144.4540 O   0  0  0  0  0  0  0  0  0  0  0  0
  194.0680  171.9930  145.3930 C   0  0  0  0  0  1  0  0  0  0  0  0
  187.8680  176.2750  145.0050 N   0  0  0  0  0  0  0  0  0  0  0  0
  188.0510  177.4430  142.9270 C   0  0  0  0  0  0  0  0  0  0  0  0
  186.6510  178.3050  144.6970 C   0  0  0  0  0  0  0  0  0  0  0  0
  188.4000  176.3610  143.7520 C   0  0  0  0  0  0  0  0  0  0  0  0
  187.1740  178.4160  143.4080 C   0  0  0  0  0  3  0  0  0  0  0  0
  188.5590  177.5510  141.6380 O   0  0  0  0  0  1  0  0  0  0  0  0
  185.7810  179.2700  145.1850 O   0  0  0  0  0  1  0  0  0  0  0  0
  187.0080  177.2130  145.4870 C   0  0  0  0  0  3  0  0  0  0  0  0
  2 24  1  0  0  0  0
  2  5  1  0  0  0  0
  4  6  1  6  0  0  0
  4 10  1  0  0  0  0
  7  1  1  6  0  0  0
  7  4  1  0  0  0  0
  7  9  1  0  0  0  0
  8  7  1  0  0  0  0
  9  3  1  6  0  0  0
  9  2  1  0  0  0  0
 10 11  1  0  0  0  0
 10  5  1  1  0  0  0
 11 17  1  1  0  0  0
 11 12  1  0  0  0  0
 12 19  1  6  0  0  0
 12 18  1  0  0  0  0
 13 18  1  0  0  0  0
 14 13  1  0  0  0  0
 15 14  1  0  0  0  0
 17 15  1  0  0  0  0
 18 16  1  6  0  0  0
 19 20  1  0  0  0  0
 21 28  1  0  0  0  0
 22 25  2  0  0  0  0
 22 24  1  0  0  0  0
 23 27  1  0  0  0  0
 23 28  2  0  0  0  0
 24 21  2  0  0  0  0
 25 23  1  0  0  0  0
 26 22  1  0  0  0  0
M  END
>  <MODEL>
3

>  <REMARK>
 VINA RESULT:      -6.4      2.257      4.944
  Name = 
  3 active torsions:
  status: ('A' for Active; 'I' for Inactive)
    1  A    between atoms: C_1  and  C_27
    2  A    between atoms: O_2  and  C_3
    3  A    between atoms: N_10  and  C_13
                            x       y       z     vdW  Elec       q    Type
                         _______ _______ _______ _____ _____    ______ ____

>  <TORSDO>
F 3

$$$$
=
 OpenBabel11052418183D

 28 30  0  0  1  0  0  0  0  0999 V2000
  189.4600  177.5050  146.6170 C   0  0  0  0  0  1  0  0  0  0  0  0
  189.9840  174.8660  143.9380 N   0  0  0  0  0  0  0  0  0  0  0  0
  187.8700  176.0630  144.4820 C   0  0  0  0  0  1  0  0  0  0  0  0
  191.3480  175.9420  146.2180 C   0  0  2  0  0  3  0  0  0  0  0  0
  191.4170  174.6460  144.1000 C   0  0  0  0  0  2  0  0  0  0  0  0
  191.7140  175.9900  147.5670 O   0  0  0  0  0  1  0  0  0  0  0  0
  189.8290  176.1330  146.0770 C   0  0  1  0  0  0  0  0  0  0  0  0
  189.1660  175.1580  146.8270 O   0  0  0  0  0  1  0  0  0  0  0  0
  189.3970  176.0460  144.5970 C   0  0  1  0  0  3  0  0  0  0  0  0
  191.8060  174.6220  145.5770 C   0  0  1  0  0  3  0  0  0  0  0  0
  193.3200  174.3950  145.7780 C   0  0  2  0  0  3  0  0  0  0  0  0
  194.2070  175.5570  145.2400 C   0  0  2  0  0  3  0  0  0  0  0  0
  196.1950  174.0770  144.4400 C   0  0  0  0  0  2  0  0  0  0  0  0
  196.0350  173.6130  145.7550 O   0  0  0  0  0  0  0  0  0  0  0  0
  195.1070  172.5580  145.7100 C   0  0  0  0  0  2  0  0  0  0  0  0
  194.5130  174.9700  142.8030 C   0  0  0  0  0  1  0  0  0  0  0  0
  193.7100  173.0080  145.2510 C   0  0  0  0  0  2  0  0  0  0  0  0
  195.2160  175.2210  144.1230 C   0  0  1  0  0  3  0  0  0  0  0  0
  194.8680  176.1790  146.3040 O   0  0  0  0  0  0  0  0  0  0  0  0
  194.6500  177.5430  146.1230 C   0  0  0  0  0  1  0  0  0  0  0  0
  189.2030  175.0540  141.6480 N   0  0  0  0  0  0  0  0  0  0  0  0
  189.0410  172.9300  142.7340 C   0  0  0  0  0  0  0  0  0  0  0  0
  188.3360  173.1880  140.4380 C   0  0  0  0  0  0  0  0  0  0  0  0
  189.3930  174.2890  142.7620 C   0  0  0  0  0  0  0  0  0  0  0  0
  188.5120  172.3830  141.5640 C   0  0  0  0  0  3  0  0  0  0  0  0
  189.2020  172.1280  143.8570 O   0  0  0  0  0  1  0  0  0  0  0  0
  187.8150  172.6510  139.2690 O   0  0  0  0  0  1  0  0  0  0  0  0
  188.6840  174.5370  140.5010 C   0  0  0  0  0  3  0  0  0  0  0  0
  2  5  1  0  0  0  0
  2  9  1  0  0  0  0
  4  6  1  1  0  0  0
  7  4  1  0  0  0  0
  7  1  1  1  0  0  0
  7  8  1  0  0  0  0
  9  3  1  1  0  0  0
  9  7  1  0  0  0  0
 10  5  1  6  0  0  0
 10 11  1  0  0  0  0
 10  4  1  0  0  0  0
 11 17  1  6  0  0  0
 12 11  1  0  0  0  0
 12 19  1  1  0  0  0
 13 14  1  0  0  0  0
 15 14  1  0  0  0  0
 17 15  1  0  0  0  0
 18 16  1  6  0  0  0
 18 13  1  0  0  0  0
 18 12  1  0  0  0  0
 20 19  1  0  0  0  0
 21 24  1  0  0  0  0
 22 24  2  0  0  0  0
 22 26  1  0  0  0  0
 23 28  1  0  0  0  0
 23 25  2  0  0  0  0
 24  2  1  0  0  0  0
 25 22  1  0  0  0  0
 27 23  1  0  0  0  0
 28 21  2  0  0  0  0
M  END
>  <MODEL>
4

>  <REMARK>
 VINA RESULT:      -6.3      2.489      5.145
  Name = 
  3 active torsions:
  status: ('A' for Active; 'I' for Inactive)
    1  A    between atoms: C_1  and  C_27
    2  A    between atoms: O_2  and  C_3
    3  A    between atoms: N_10  and  C_13
                            x       y       z     vdW  Elec       q    Type
                         _______ _______ _______ _____ _____    ______ ____

>  <TORSDO>
F 3

$$$$
=
 OpenBabel11052418183D

 28 30  0  0  1  0  0  0  0  0999 V2000
  192.2580  176.2520  146.3340 C   0  0  0  0  0  1  0  0  0  0  0  0
  189.0970  176.1630  144.2330 N   0  0  0  0  0  0  0  0  0  0  0  0
  189.5280  177.5580  146.2490 C   0  0  0  0  0  1  0  0  0  0  0  0
  191.5120  174.6600  144.5800 C   0  0  2  0  0  3  0  0  0  0  0  0
  189.5250  175.2250  143.2010 C   0  0  0  0  0  2  0  0  0  0  0  0
  192.3020  173.6420  145.1240 O   0  0  0  0  0  1  0  0  0  0  0  0
  191.0380  175.6110  145.6920 C   0  0  1  0  0  0  0  0  0  0  0  0
  190.3450  174.8820  146.6620 O   0  0  0  0  0  1  0  0  0  0  0  0
  190.1330  176.7230  145.1180 C   0  0  1  0  0  3  0  0  0  0  0  0
  190.3230  174.0710  143.8050 C   0  0  1  0  0  3  0  0  0  0  0  0
  190.7940  173.0630  142.7340 C   0  0  2  0  0  3  0  0  0  0  0  0
  191.0140  173.6960  141.3290 C   0  0  2  0  0  3  0  0  0  0  0  0
  190.2200  171.6400  139.9400 C   0  0  0  0  0  2  0  0  0  0  0  0
  191.1480  171.0340  140.8000 O   0  0  0  0  0  0  0  0  0  0  0  0
  190.4480  170.6450  141.9560 C   0  0  0  0  0  2  0  0  0  0  0  0
  188.7130  173.6180  140.2920 C   0  0  0  0  0  1  0  0  0  0  0  0
  189.8700  171.8370  142.7360 C   0  0  0  0  0  2  0  0  0  0  0  0
  190.1530  173.1610  140.1650 C   0  0  1  0  0  3  0  0  0  0  0  0
  192.3680  173.6270  140.9860 O   0  0  0  0  0  0  0  0  0  0  0  0
  192.8810  174.8920  141.2640 C   0  0  0  0  0  1  0  0  0  0  0  0
  186.7400  176.5590  144.6550 N   0  0  0  0  0  0  0  0  0  0  0  0
  187.8450  177.9080  143.0190 C   0  0  0  0  0  0  0  0  0  0  0  0
  185.5140  178.2750  143.5370 C   0  0  0  0  0  0  0  0  0  0  0  0
  187.8750  176.8700  143.9640 C   0  0  0  0  0  0  0  0  0  0  0  0
  186.6570  178.6110  142.8100 C   0  0  0  0  0  3  0  0  0  0  0  0
  188.9770  178.2370  142.2840 O   0  0  0  0  0  1  0  0  0  0  0  0
  184.3290  178.9720  143.3390 O   0  0  0  0  0  1  0  0  0  0  0  0
  185.5720  177.2310  144.4600 C   0  0  0  0  0  3  0  0  0  0  0  0
  2  9  1  0  0  0  0
  4  6  1  1  0  0  0
  4  7  1  0  0  0  0
  5  2  1  0  0  0  0
  7  1  1  1  0  0  0
  7  8  1  0  0  0  0
  9  7  1  0  0  0  0
  9  3  1  1  0  0  0
 10  5  1  6  0  0  0
 10  4  1  0  0  0  0
 11 17  1  6  0  0  0
 11 10  1  0  0  0  0
 12 19  1  6  0  0  0
 12 11  1  0  0  0  0
 13 18  1  0  0  0  0
 13 14  1  0  0  0  0
 14 15  1  0  0  0  0
 15 17  1  0  0  0  0
 18 16  1  1  0  0  0
 18 12  1  0  0  0  0
 19 20  1  0  0  0  0
 22 24  1  0  0  0  0
 23 28  2  0  0  0  0
 24  2  1  0  0  0  0
 24 21  2  0  0  0  0
 25 22  2  0  0  0  0
 25 23  1  0  0  0  0
 26 22  1  0  0  0  0
 27 23  1  0  0  0  0
 28 21  1  0  0  0  0
M  END
>  <MODEL>
5

>  <REMARK>
 VINA RESULT:      -6.3      1.561      1.924
  Name = 
  3 active torsions:
  status: ('A' for Active; 'I' for Inactive)
    1  A    between atoms: C_1  and  C_27
    2  A    between atoms: O_2  and  C_3
    3  A    between atoms: N_10  and  C_13
                            x       y       z     vdW  Elec       q    Type
                         _______ _______ _______ _____ _____    ______ ____

>  <TORSDO>
F 3

$$$$
=
 OpenBabel11052418183D

 28 30  0  0  1  0  0  0  0  0999 V2000
  191.1500  175.3520  147.8790 C   0  0  0  0  0  1  0  0  0  0  0  0
  191.8820  174.9310  144.1770 N   0  0  0  0  0  0  0  0  0  0  0  0
  193.2550  174.1170  146.0860 C   0  0  0  0  0  1  0  0  0  0  0  0
  190.1360  176.4300  145.8850 C   0  0  2  0  0  3  0  0  0  0  0  0
  190.6820  175.5520  143.6270 C   0  0  0  0  0  2  0  0  0  0  0  0
  189.7540  177.5430  146.6420 O   0  0  0  0  0  1  0  0  0  0  0  0
  191.4240  175.8190  146.4580 C   0  0  1  0  0  0  0  0  0  0  0  0
  192.4280  176.7920  146.4870 O   0  0  0  0  0  1  0  0  0  0  0  0
  191.8840  174.6100  145.6150 C   0  0  1  0  0  3  0  0  0  0  0  0
  190.3080  176.8120  144.4060 C   0  0  1  0  0  3  0  0  0  0  0  0
  189.0380  177.4890  143.8480 C   0  0  2  0  0  3  0  0  0  0  0  0
  187.7140  176.7830  144.2660 C   0  0  2  0  0  3  0  0  0  0  0  0
  186.4190  177.2300  142.0510 C   0  0  0  0  0  2  0  0  0  0  0  0
  186.8730  178.5230  142.3540 O   0  0  0  0  0  0  0  0  0  0  0  0
  188.1380  178.6660  141.7560 C   0  0  0  0  0  2  0  0  0  0  0  0
  187.4410  174.9840  142.5150 C   0  0  0  0  0  1  0  0  0  0  0  0
  189.1880  177.7050  142.3360 C   0  0  0  0  0  2  0  0  0  0  0  0
  186.8230  176.2200  143.1390 C   0  0  1  0  0  3  0  0  0  0  0  0
  186.9630  177.6330  145.0830 O   0  0  0  0  0  0  0  0  0  0  0  0
  186.2930  176.7910  145.9690 C   0  0  0  0  0  1  0  0  0  0  0  0
  192.3150  172.9470  142.8470 N   0  0  0  0  0  0  0  0  0  0  0  0
  193.8490  174.7760  142.6960 C   0  0  0  0  0  0  0  0  0  0  0  0
  194.1790  172.7870  141.3650 C   0  0  0  0  0  0  0  0  0  0  0  0
  192.6900  174.1990  143.2410 C   0  0  0  0  0  0  0  0  0  0  0  0
  194.5910  174.0620  141.7530 C   0  0  0  0  0  3  0  0  0  0  0  0
  194.2700  176.0400  143.0900 O   0  0  0  0  0  1  0  0  0  0  0  0
  194.9090  172.0720  140.4250 O   0  0  0  0  0  1  0  0  0  0  0  0
  193.0300  172.2370  141.9330 C   0  0  0  0  0  3  0  0  0  0  0  0
  2  9  1  0  0  0  0
  4  7  1  0  0  0  0
  4  6  1  1  0  0  0
  5  2  1  0  0  0  0
  7  8  1  0  0  0  0
  7  1  1  1  0  0  0
  9  3  1  1  0  0  0
  9  7  1  0  0  0  0
 10  5  1  6  0  0  0
 10  4  1  0  0  0  0
 11 17  1  6  0  0  0
 11 12  1  0  0  0  0
 11 10  1  0  0  0  0
 12 19  1  6  0  0  0
 13 14  1  0  0  0  0
 13 18  1  0  0  0  0
 15 17  1  0  0  0  0
 15 14  1  0  0  0  0
 18 16  1  6  0  0  0
 18 12  1  0  0  0  0
 19 20  1  0  0  0  0
 21 24  1  0  0  0  0
 22 26  1  0  0  0  0
 22 24  2  0  0  0  0
 23 25  2  0  0  0  0
 23 28  1  0  0  0  0
 24  2  1  0  0  0  0
 25 22  1  0  0  0  0
 27 23  1  0  0  0  0
 28 21  2  0  0  0  0
M  END
>  <MODEL>
6

>  <REMARK>
 VINA RESULT:      -6.3      2.601      6.567
  Name = 
  3 active torsions:
  status: ('A' for Active; 'I' for Inactive)
    1  A    between atoms: C_1  and  C_27
    2  A    between atoms: O_2  and  C_3
    3  A    between atoms: N_10  and  C_13
                            x       y       z     vdW  Elec       q    Type
                         _______ _______ _______ _____ _____    ______ ____

>  <TORSDO>
F 3

$$$$
=
 OpenBabel11052418183D

 28 30  0  0  1  0  0  0  0  0999 V2000
  189.3170  174.7380  147.6380 C   0  0  0  0  0  1  0  0  0  0  0  0
  191.6920  176.1670  145.0430 N   0  0  0  0  0  0  0  0  0  0  0  0
  192.2930  174.9160  147.1090 C   0  0  0  0  0  1  0  0  0  0  0  0
  188.9270  176.3350  145.7760 C   0  0  2  0  0  3  0  0  0  0  0  0
  190.7170  176.6880  144.0920 C   0  0  0  0  0  2  0  0  0  0  0  0
  187.8240  176.8850  146.4380 O   0  0  0  0  0  1  0  0  0  0  0  0
  189.9580  175.8320  146.7990 C   0  0  1  0  0  0  0  0  0  0  0  0
  190.3330  176.8850  147.6380 O   0  0  0  0  0  1  0  0  0  0  0  0
  191.2020  175.2530  146.0890 C   0  0  1  0  0  3  0  0  0  0  0  0
  189.5490  177.3580  144.8130 C   0  0  1  0  0  3  0  0  0  0  0  0
  188.4980  177.9160  143.8290 C   0  0  2  0  0  3  0  0  0  0  0  0
  187.0600  177.3690  144.0700 C   0  0  2  0  0  3  0  0  0  0  0  0
  186.3360  177.3040  141.5680 C   0  0  0  0  0  2  0  0  0  0  0  0
  186.8180  178.6180  141.6680 O   0  0  0  0  0  0  0  0  0  0  0  0
  188.1920  178.5770  141.3710 C   0  0  0  0  0  2  0  0  0  0  0  0
  187.0360  175.2090  142.7630 C   0  0  0  0  0  1  0  0  0  0  0  0
  189.0010  177.7560  142.3880 C   0  0  0  0  0  2  0  0  0  0  0  0
  186.4000  176.5750  142.9220 C   0  0  1  0  0  3  0  0  0  0  0  0
  186.2180  178.4120  144.4690 O   0  0  0  0  0  0  0  0  0  0  0  0
  185.0380  177.7930  144.8800 C   0  0  0  0  0  1  0  0  0  0  0  0
  193.9670  177.0120  145.0570 N   0  0  0  0  0  0  0  0  0  0  0  0
  193.4590  175.1370  143.6630 C   0  0  0  0  0  0  0  0  0  0  0  0
  195.7110  176.0040  143.7760 C   0  0  0  0  0  0  0  0  0  0  0  0
  193.0520  176.1200  144.5800 C   0  0  0  0  0  0  0  0  0  0  0  0
  194.7960  175.0830  143.2650 C   0  0  0  0  0  3  0  0  0  0  0  0
  192.5480  174.2260  143.1410 O   0  0  0  0  0  1  0  0  0  0  0  0
  197.0430  175.9560  143.3890 O   0  0  0  0  0  1  0  0  0  0  0  0
  195.2730  176.9760  144.6760 C   0  0  0  0  0  3  0  0  0  0  0  0
  2  9  1  0  0  0  0
  4  6  1  1  0  0  0
  4  7  1  0  0  0  0
  5  2  1  0  0  0  0
  7  8  1  0  0  0  0
  7  1  1  1  0  0  0
  9  7  1  0  0  0  0
  9  3  1  1  0  0  0
 10  5  1  6  0  0  0
 10  4  1  0  0  0  0
 11 17  1  6  0  0  0
 11 12  1  0  0  0  0
 11 10  1  0  0  0  0
 12 19  1  6  0  0  0
 13 14  1  0  0  0  0
 13 18  1  0  0  0  0
 15 14  1  0  0  0  0
 15 17  1  0  0  0  0
 18 16  1  6  0  0  0
 18 12  1  0  0  0  0
 19 20  1  0  0  0  0
 22 24  1  0  0  0  0
 23 28  2  0  0  0  0
 24  2  1  0  0  0  0
 24 21  2  0  0  0  0
 25 22  2  0  0  0  0
 25 23  1  0  0  0  0
 26 22  1  0  0  0  0
 27 23  1  0  0  0  0
 28 21  1  0  0  0  0
M  END
>  <MODEL>
7

>  <REMARK>
 VINA RESULT:      -6.2      2.700      6.457
  Name = 
  3 active torsions:
  status: ('A' for Active; 'I' for Inactive)
    1  A    between atoms: C_1  and  C_27
    2  A    between atoms: O_2  and  C_3
    3  A    between atoms: N_10  and  C_13
                            x       y       z     vdW  Elec       q    Type
                         _______ _______ _______ _____ _____    ______ ____

>  <TORSDO>
F 3

$$$$
=
 OpenBabel11052418183D

 28 30  0  0  1  0  0  0  0  0999 V2000
  191.2760  175.4500  147.6920 C   0  0  0  0  0  1  0  0  0  0  0  0
  190.1050  174.9250  144.1190 N   0  0  0  0  0  0  0  0  0  0  0  0
  192.0560  173.8580  145.2380 C   0  0  0  0  0  1  0  0  0  0  0  0
  189.6410  176.7110  146.3110 C   0  0  2  0  0  3  0  0  0  0  0  0
  188.9100  175.7620  144.1360 C   0  0  0  0  0  2  0  0  0  0  0  0
  189.8510  177.8710  147.0660 O   0  0  0  0  0  1  0  0  0  0  0  0
  190.9260  175.8680  146.2730 C   0  0  1  0  0  0  0  0  0  0  0  0
  191.9720  176.6380  145.7560 O   0  0  0  0  0  1  0  0  0  0  0  0
  190.7280  174.6000  145.4140 C   0  0  1  0  0  3  0  0  0  0  0  0
  189.1620  177.0630  144.8940 C   0  0  1  0  0  3  0  0  0  0  0  0
  187.9110  177.9680  144.9330 C   0  0  2  0  0  3  0  0  0  0  0  0
  186.8280  177.5010  145.9490 C   0  0  2  0  0  3  0  0  0  0  0  0
  184.7580  178.2190  144.5410 C   0  0  0  0  0  2  0  0  0  0  0  0
  185.5110  179.4030  144.5230 O   0  0  0  0  0  0  0  0  0  0  0  0
  186.3650  179.3310  143.4080 C   0  0  0  0  0  2  0  0  0  0  0  0
  185.4850  175.8170  144.6310 C   0  0  0  0  0  1  0  0  0  0  0  0
  187.3860  178.1860  143.5070 C   0  0  0  0  0  2  0  0  0  0  0  0
  185.4400  177.1300  145.3880 C   0  0  1  0  0  3  0  0  0  0  0  0
  186.6900  178.4540  146.9640 O   0  0  0  0  0  0  0  0  0  0  0  0
  185.9480  177.8220  147.9600 C   0  0  0  0  0  1  0  0  0  0  0  0
  189.4780  172.9380  142.8740 N   0  0  0  0  0  0  0  0  0  0  0  0
  191.1440  174.3820  141.9480 C   0  0  0  0  0  0  0  0  0  0  0  0
  190.4240  172.4140  140.7460 C   0  0  0  0  0  0  0  0  0  0  0  0
  190.2450  174.0610  142.9790 C   0  0  0  0  0  0  0  0  0  0  0  0
  191.2270  173.5520  140.8290 C   0  0  0  0  0  3  0  0  0  0  0  0
  191.9550  175.5070  142.0320 O   0  0  0  0  0  1  0  0  0  0  0  0
  190.4980  171.5850  139.6350 O   0  0  0  0  0  1  0  0  0  0  0  0
  189.5510  172.1160  141.7920 C   0  0  0  0  0  3  0  0  0  0  0  0
  2  5  1  0  0  0  0
  2  9  1  0  0  0  0
  4  6  1  1  0  0  0
  7  4  1  0  0  0  0
  7  1  1  1  0  0  0
  8  7  1  0  0  0  0
  9  3  1  6  0  0  0
  9  7  1  0  0  0  0
 10  5  1  6  0  0  0
 10 11  1  0  0  0  0
 10  4  1  0  0  0  0
 11 17  1  6  0  0  0
 11 12  1  0  0  0  0
 12 19  1  1  0  0  0
 13 18  1  0  0  0  0
 14 13  1  0  0  0  0
 15 17  1  0  0  0  0
 15 14  1  0  0  0  0
 18 16  1  6  0  0  0
 18 12  1  0  0  0  0
 19 20  1  0  0  0  0
 21 24  1  0  0  0  0
 22 26  1  0  0  0  0
 22 24  2  0  0  0  0
 23 25  2  0  0  0  0
 23 28  1  0  0  0  0
 24  2  1  0  0  0  0
 25 22  1  0  0  0  0
 27 23  1  0  0  0  0
 28 21  2  0  0  0  0
M  END
>  <MODEL>
8

>  <REMARK>
 VINA RESULT:      -6.1      1.721      6.487
  Name = 
  3 active torsions:
  status: ('A' for Active; 'I' for Inactive)
    1  A    between atoms: C_1  and  C_27
    2  A    between atoms: O_2  and  C_3
    3  A    between atoms: N_10  and  C_13
                            x       y       z     vdW  Elec       q    Type
                         _______ _______ _______ _____ _____    ______ ____

>  <TORSDO>
F 3

$$$$
=
 OpenBabel11052418183D

 28 30  0  0  1  0  0  0  0  0999 V2000
  187.1050  178.1660  145.2110 C   0  0  0  0  0  1  0  0  0  0  0  0
  188.8240  175.6030  142.9990 N   0  0  0  0  0  0  0  0  0  0  0  0
  186.3830  176.0710  143.1480 C   0  0  0  0  0  1  0  0  0  0  0  0
  189.4300  177.2940  145.2320 C   0  0  2  0  0  3  0  0  0  0  0  0
  190.2130  175.8930  143.3360 C   0  0  0  0  0  2  0  0  0  0  0  0
  189.5640  177.5950  146.5920 O   0  0  0  0  0  1  0  0  0  0  0  0
  187.9670  176.9500  144.9110 C   0  0  1  0  0  0  0  0  0  0  0  0
  187.5500  175.8880  145.7180 O   0  0  0  0  0  1  0  0  0  0  0  0
  187.8020  176.5780  143.4200 C   0  0  1  0  0  3  0  0  0  0  0  0
  190.3730  176.1470  144.8340 C   0  0  1  0  0  3  0  0  0  0  0  0
  191.8350  176.4620  145.2200 C   0  0  2  0  0  3  0  0  0  0  0  0
  192.8890  175.7860  144.2940 C   0  0  2  0  0  3  0  0  0  0  0  0
  194.6750  175.3460  146.1380 C   0  0  0  0  0  2  0  0  0  0  0  0
  194.4150  176.7090  146.3450 O   0  0  0  0  0  0  0  0  0  0  0  0
  193.3510  176.7910  147.2610 C   0  0  0  0  0  2  0  0  0  0  0  0
  193.1810  173.4990  145.3240 C   0  0  0  0  0  1  0  0  0  0  0  0
  192.0440  176.1920  146.7160 C   0  0  0  0  0  2  0  0  0  0  0  0
  193.8740  174.7930  144.9460 C   0  0  1  0  0  3  0  0  0  0  0  0
  193.5990  176.7650  143.5920 O   0  0  0  0  0  0  0  0  0  0  0  0
  194.0290  176.1380  142.4240 C   0  0  0  0  0  1  0  0  0  0  0  0
  188.3480  175.2910  140.6400 N   0  0  0  0  0  0  0  0  0  0  0  0
  188.7460  173.3550  141.9860 C   0  0  0  0  0  0  0  0  0  0  0  0
  188.3190  173.1340  139.6180 C   0  0  0  0  0  0  0  0  0  0  0  0
  188.6240  174.7490  141.8610 C   0  0  0  0  0  0  0  0  0  0  0  0
  188.5930  172.5500  140.8560 C   0  0  0  0  0  3  0  0  0  0  0  0
  189.0050  172.7690  143.2180 O   0  0  0  0  0  1  0  0  0  0  0  0
  188.1700  172.3410  138.4880 O   0  0  0  0  0  1  0  0  0  0  0  0
  188.1910  174.5200  139.5290 C   0  0  0  0  0  3  0  0  0  0  0  0
  2  5  1  0  0  0  0
  2  9  1  0  0  0  0
  4  6  1  1  0  0  0
  7  1  1  1  0  0  0
  7  4  1  0  0  0  0
  7  8  1  0  0  0  0
  9  3  1  1  0  0  0
  9  7  1  0  0  0  0
 10  5  1  6  0  0  0
 10 11  1  0  0  0  0
 10  4  1  0  0  0  0
 11 17  1  1  0  0  0
 12 19  1  1  0  0  0
 12 18  1  0  0  0  0
 12 11  1  0  0  0  0
 13 14  1  0  0  0  0
 14 15  1  0  0  0  0
 17 15  1  0  0  0  0
 18 16  1  1  0  0  0
 18 13  1  0  0  0  0
 20 19  1  0  0  0  0
 21 24  1  0  0  0  0
 22 26  1  0  0  0  0
 23 25  2  0  0  0  0
 24 22  2  0  0  0  0
 24  2  1  0  0  0  0
 25 22  1  0  0  0  0
 27 23  1  0  0  0  0
 28 23  1  0  0  0  0
 28 21  2  0  0  0  0
M  END
>  <MODEL>
9

>  <REMARK>
 VINA RESULT:      -6.0      2.277      5.566
  Name = 
  3 active torsions:
  status: ('A' for Active; 'I' for Inactive)
    1  A    between atoms: C_1  and  C_27
    2  A    between atoms: O_2  and  C_3
    3  A    between atoms: N_10  and  C_13
                            x       y       z     vdW  Elec       q    Type
                         _______ _______ _______ _____ _____    ______ ____

>  <TORSDO>
F 3

$$$$
