=
 OpenBabel11052419213D

 32 35  0  0  1  0  0  0  0  0999 V2000
  190.8840  176.5170  145.8500 C   0  0  0  0  0  2  0  0  0  0  0  0
  191.1400  175.0540  146.0340 N   0  0  0  0  0  0  0  0  0  0  0  0
  189.8530  176.5610  144.7110 C   0  0  1  0  0  3  0  0  0  0  0  0
  189.6570  175.2450  144.1850 N   0  0  0  0  0  0  0  0  0  0  0  0
  190.1630  173.0630  145.1590 C   0  0  0  0  0  1  0  0  0  0  0  0
  190.7400  174.4410  144.7910 C   0  0  2  0  0  3  0  0  0  0  0  0
  188.4820  177.0150  145.2190 C   0  0  0  0  0  0  0  0  0  0  0  0
  187.9190  176.4210  146.3640 C   0  0  0  0  0  3  0  0  0  0  0  0
  184.3440  179.4170  144.4990 C   0  0  0  0  0  3  0  0  0  0  0  0
  187.7110  177.8950  144.4770 C   0  0  0  0  0  3  0  0  0  0  0  0
  184.6030  178.0030  146.4370 C   0  0  0  0  0  3  0  0  0  0  0  0
  185.9200  177.6720  146.0630 C   0  0  0  0  0  0  0  0  0  0  0  0
  186.6540  176.7830  146.7960 C   0  0  0  0  0  3  0  0  0  0  0  0
  186.4170  178.2460  144.8800 C   0  0  0  0  0  0  0  0  0  0  0  0
  183.8550  178.8600  145.6880 C   0  0  0  0  0  3  0  0  0  0  0  0
  185.6520  179.1140  144.1230 C   0  0  0  0  0  3  0  0  0  0  0  0
  192.5900  174.8730  146.3790 C   0  0  2  0  0  3  0  0  0  0  0  0
  193.0230  175.9020  147.1120 O   0  0  0  0  0  1  0  0  0  0  0  0
  193.5460  174.5260  145.1750 C   0  0  0  0  0  2  0  0  0  0  0  0
  194.9610  175.1590  145.2240 C   0  0  1  0  0  3  0  0  0  0  0  0
  195.8930  174.1840  144.7610 O   0  0  0  0  0  0  0  0  0  0  0  0
  196.8030  173.8020  145.8040 C   0  0  0  0  0  2  0  0  0  0  0  0
  196.9150  172.2880  145.9400 C   0  0  0  0  0  2  0  0  0  0  0  0
  195.6380  171.6620  145.7690 O   0  0  0  0  0  1  0  0  0  0  0  0
  195.0600  176.3980  144.4170 N   0  0  0  0  0  2  0  0  0  0  0  0
  197.2630  176.7630  143.1730 N   0  0  0  0  0  1  0  0  0  0  0  0
  195.0340  176.0080  141.8620 S   0  0  0  0  0  0  0  0  0  0  0  0
  195.8600  176.4000  143.1960 C   0  0  0  0  0  0  0  0  0  0  0  0
  189.8300  175.2320  142.7290 C   0  0  0  0  0  2  0  0  0  0  0  0
  188.4860  174.9150  142.1200 C   0  0  1  0  0  3  0  0  0  0  0  0
  187.9130  175.8260  141.1130 C   0  0  0  0  0  2  0  0  0  0  0  0
  188.7730  174.7870  140.7360 O   0  0  0  0  0  0  0  0  0  0  0  0
  1  2  1  0  0  0  0
  2 17  1  0  0  0  0
  3  7  1  1  0  0  0
  3  1  1  0  0  0  0
  4  3  1  0  0  0  0
  4  6  1  0  0  0  0
  6  5  1  1  0  0  0
  6  2  1  0  0  0  0
  7  8  1  0  0  0  0
  8 13  2  0  0  0  0
  9 15  1  0  0  0  0
 10 14  1  0  0  0  0
 10  7  2  0  0  0  0
 12 11  1  0  0  0  0
 12 13  1  0  0  0  0
 14 12  2  0  0  0  0
 15 11  2  0  0  0  0
 16  9  2  0  0  0  0
 16 14  1  0  0  0  0
 17 18  1  6  0  0  0
 19 17  1  0  0  0  0
 20 19  1  6  0  0  0
 21 20  1  0  0  0  0
 21 22  1  0  0  0  0
 22 23  1  0  0  0  0
 24 23  1  0  0  0  0
 25 20  1  0  0  0  0
 26 28  1  0  0  0  0
 27 28  2  0  0  0  0
 28 25  1  0  0  0  0
 29  4  1  0  0  0  0
 30 29  1  1  0  0  0
 31 30  1  0  0  0  0
 32 31  1  0  0  0  0
 32 30  1  0  0  0  0
M  END
>  <MODEL>
1

>  <REMARK>
 VINA RESULT:      -7.0      0.000      0.000
  Name = 
  11 active torsions:
  status: ('A' for Active; 'I' for Inactive)
    1  A    between atoms: C_2  and  C_5
    2  A    between atoms: C_3  and  O_8
    3  A    between atoms: C_3  and  C_22
    4  A    between atoms: N_4  and  C_24
    5  A    between atoms: O_8  and  C_20
    6  A    between atoms: C_13  and  C_18
    7  A    between atoms: N_14  and  C_18
    8  A    between atoms: N_15  and  C_20
    9  A    between atoms: N_15  and  C_26
   10  A    between atoms: C_16  and  C_20
   11  A    between atoms: C_16  and  C_24
                            x       y       z     vdW  Elec       q    Type
                         _______ _______ _______ _____ _____    ______ ____

>  <TORSDO>
F 11

$$$$
=
 OpenBabel11052419213D

 32 35  0  0  1  0  0  0  0  0999 V2000
  190.0030  176.7860  142.6320 C   0  0  0  0  0  2  0  0  0  0  0  0
  190.6140  175.7690  143.5450 N   0  0  0  0  0  0  0  0  0  0  0  0
  188.6420  176.1720  142.2700 C   0  0  1  0  0  3  0  0  0  0  0  0
  188.5510  174.8480  142.8040 N   0  0  0  0  0  0  0  0  0  0  0  0
  189.8320  173.7710  144.5840 C   0  0  0  0  0  1  0  0  0  0  0  0
  189.9260  174.5360  143.2520 C   0  0  2  0  0  3  0  0  0  0  0  0
  187.4900  176.9570  142.9050 C   0  0  0  0  0  0  0  0  0  0  0  0
  187.0860  178.1870  142.3570 C   0  0  0  0  0  3  0  0  0  0  0  0
  184.4780  177.6850  146.6200 C   0  0  0  0  0  3  0  0  0  0  0  0
  186.9400  176.5500  144.1090 C   0  0  0  0  0  3  0  0  0  0  0  0
  184.5710  179.2730  144.8070 C   0  0  0  0  0  3  0  0  0  0  0  0
  185.5370  178.5010  144.1340 C   0  0  0  0  0  0  0  0  0  0  0  0
  186.0850  178.9320  142.9590 C   0  0  0  0  0  3  0  0  0  0  0  0
  185.9520  177.3070  144.7500 C   0  0  0  0  0  0  0  0  0  0  0  0
  184.0510  178.8640  145.9980 C   0  0  0  0  0  3  0  0  0  0  0  0
  185.4210  176.8980  145.9590 C   0  0  0  0  0  3  0  0  0  0  0  0
  192.0920  175.7350  143.2830 C   0  0  2  0  0  3  0  0  0  0  0  0
  192.3540  174.9820  142.2120 O   0  0  0  0  0  1  0  0  0  0  0  0
  193.0020  175.3870  144.5220 C   0  0  0  0  0  2  0  0  0  0  0  0
  193.5150  176.5930  145.3510 C   0  0  1  0  0  3  0  0  0  0  0  0
  193.3450  176.2780  146.7320 O   0  0  0  0  0  0  0  0  0  0  0  0
  192.4320  175.1840  146.9050 C   0  0  0  0  0  2  0  0  0  0  0  0
  191.2280  175.5710  147.7570 C   0  0  0  0  0  2  0  0  0  0  0  0
  190.3570  176.4550  147.0410 O   0  0  0  0  0  1  0  0  0  0  0  0
  194.9300  176.9240  145.0640 N   0  0  0  0  0  2  0  0  0  0  0  0
  196.2840  174.7570  145.0700 N   0  0  0  0  0  1  0  0  0  0  0  0
  196.1510  176.3070  142.8720 S   0  0  0  0  0  0  0  0  0  0  0  0
  195.7800  175.9400  144.4020 C   0  0  0  0  0  0  0  0  0  0  0  0
  188.1750  173.8870  141.7610 C   0  0  0  0  0  2  0  0  0  0  0  0
  188.8590  174.3180  140.4870 C   0  0  1  0  0  3  0  0  0  0  0  0
  189.6280  173.3310  139.7070 C   0  0  0  0  0  2  0  0  0  0  0  0
  188.2540  173.5030  139.4950 O   0  0  0  0  0  0  0  0  0  0  0  0
  1  2  1  0  0  0  0
  3  1  1  0  0  0  0
  3  4  1  0  0  0  0
  3  7  1  1  0  0  0
  4  6  1  0  0  0  0
  6  2  1  0  0  0  0
  6  5  1  1  0  0  0
  7 10  1  0  0  0  0
  8  7  2  0  0  0  0
  8 13  1  0  0  0  0
 10 14  2  0  0  0  0
 11 15  2  0  0  0  0
 12 14  1  0  0  0  0
 12 11  1  0  0  0  0
 13 12  2  0  0  0  0
 14 16  1  0  0  0  0
 15  9  1  0  0  0  0
 16  9  2  0  0  0  0
 17 18  1  6  0  0  0
 17  2  1  0  0  0  0
 17 19  1  0  0  0  0
 20 19  1  6  0  0  0
 20 21  1  0  0  0  0
 21 22  1  0  0  0  0
 22 23  1  0  0  0  0
 24 23  1  0  0  0  0
 25 20  1  0  0  0  0
 27 28  2  0  0  0  0
 28 25  1  0  0  0  0
 28 26  1  0  0  0  0
 29  4  1  0  0  0  0
 30 29  1  1  0  0  0
 31 30  1  0  0  0  0
 32 31  1  0  0  0  0
 32 30  1  0  0  0  0
M  END
>  <MODEL>
2

>  <REMARK>
 VINA RESULT:      -6.9      2.010      3.169
  Name = 
  11 active torsions:
  status: ('A' for Active; 'I' for Inactive)
    1  A    between atoms: C_2  and  C_5
    2  A    between atoms: C_3  and  O_8
    3  A    between atoms: C_3  and  C_22
    4  A    between atoms: N_4  and  C_24
    5  A    between atoms: O_8  and  C_20
    6  A    between atoms: C_13  and  C_18
    7  A    between atoms: N_14  and  C_18
    8  A    between atoms: N_15  and  C_20
    9  A    between atoms: N_15  and  C_26
   10  A    between atoms: C_16  and  C_20
   11  A    between atoms: C_16  and  C_24
                            x       y       z     vdW  Elec       q    Type
                         _______ _______ _______ _____ _____    ______ ____

>  <TORSDO>
F 11

$$$$
=
 OpenBabel11052419213D

 32 35  0  0  1  0  0  0  0  0999 V2000
  190.6310  176.6990  144.7950 C   0  0  0  0  0  2  0  0  0  0  0  0
  190.7970  175.3500  145.4200 N   0  0  0  0  0  0  0  0  0  0  0  0
  189.7090  176.4290  143.5950 C   0  0  1  0  0  3  0  0  0  0  0  0
  189.4950  175.0210  143.4570 N   0  0  0  0  0  0  0  0  0  0  0  0
  189.8040  173.2110  145.0690 C   0  0  0  0  0  1  0  0  0  0  0  0
  190.4800  174.4070  144.3750 C   0  0  2  0  0  3  0  0  0  0  0  0
  188.3220  177.0410  143.8100 C   0  0  0  0  0  0  0  0  0  0  0  0
  187.8080  177.9710  142.8880 C   0  0  0  0  0  3  0  0  0  0  0  0
  184.5270  177.8840  146.6910 C   0  0  0  0  0  3  0  0  0  0  0  0
  187.6240  176.8120  144.9850 C   0  0  0  0  0  3  0  0  0  0  0  0
  184.6810  178.9690  144.5420 C   0  0  0  0  0  3  0  0  0  0  0  0
  185.8960  178.3150  144.2600 C   0  0  0  0  0  0  0  0  0  0  0  0
  186.5800  178.5730  143.1060 C   0  0  0  0  0  3  0  0  0  0  0  0
  186.3990  177.4390  145.2380 C   0  0  0  0  0  0  0  0  0  0  0  0
  184.0170  178.7420  145.7090 C   0  0  0  0  0  3  0  0  0  0  0  0
  185.7200  177.2140  146.4200 C   0  0  0  0  0  3  0  0  0  0  0  0
  192.2000  175.2480  145.9450 C   0  0  2  0  0  3  0  0  0  0  0  0
  192.1870  175.1130  147.2740 O   0  0  0  0  0  1  0  0  0  0  0  0
  193.2040  176.3550  145.4460 C   0  0  0  0  0  2  0  0  0  0  0  0
  194.5900  175.8520  144.9660 C   0  0  1  0  0  3  0  0  0  0  0  0
  195.3970  176.9940  144.6840 O   0  0  0  0  0  0  0  0  0  0  0  0
  196.3070  176.7310  143.6050 C   0  0  0  0  0  2  0  0  0  0  0  0
  195.5990  176.1380  142.3920 C   0  0  0  0  0  2  0  0  0  0  0  0
  195.8420  176.9270  141.2210 O   0  0  0  0  0  1  0  0  0  0  0  0
  195.2550  174.9770  145.9590 N   0  0  0  0  0  2  0  0  0  0  0  0
  194.6540  172.5250  145.5590 N   0  0  0  0  0  1  0  0  0  0  0  0
  197.1840  173.4020  145.2650 S   0  0  0  0  0  0  0  0  0  0  0  0
  195.6140  173.6110  145.5900 C   0  0  0  0  0  0  0  0  0  0  0  0
  189.7960  174.5770  142.0920 C   0  0  0  0  0  2  0  0  0  0  0  0
  188.4810  174.2690  141.4210 C   0  0  1  0  0  3  0  0  0  0  0  0
  188.3460  173.0390  140.6190 C   0  0  0  0  0  2  0  0  0  0  0  0
  188.0980  173.0290  141.9970 O   0  0  0  0  0  0  0  0  0  0  0  0
  1  2  1  0  0  0  0
  2 17  1  0  0  0  0
  3  7  1  1  0  0  0
  3  1  1  0  0  0  0
  4  3  1  0  0  0  0
  4  6  1  0  0  0  0
  6  5  1  1  0  0  0
  6  2  1  0  0  0  0
  7 10  1  0  0  0  0
  8 13  1  0  0  0  0
  8  7  2  0  0  0  0
 10 14  2  0  0  0  0
 11 15  2  0  0  0  0
 12 11  1  0  0  0  0
 12 14  1  0  0  0  0
 13 12  2  0  0  0  0
 14 16  1  0  0  0  0
 15  9  1  0  0  0  0
 16  9  2  0  0  0  0
 17 18  1  1  0  0  0
 19 17  1  0  0  0  0
 20 19  1  1  0  0  0
 20 25  1  0  0  0  0
 21 20  1  0  0  0  0
 22 21  1  0  0  0  0
 23 22  1  0  0  0  0
 24 23  1  0  0  0  0
 26 28  1  0  0  0  0
 27 28  2  0  0  0  0
 28 25  1  0  0  0  0
 29  4  1  0  0  0  0
 30 32  1  0  0  0  0
 30 29  1  1  0  0  0
 31 30  1  0  0  0  0
 31 32  1  0  0  0  0
M  END
>  <MODEL>
3

>  <REMARK>
 VINA RESULT:      -6.9      1.842      2.828
  Name = 
  11 active torsions:
  status: ('A' for Active; 'I' for Inactive)
    1  A    between atoms: C_2  and  C_5
    2  A    between atoms: C_3  and  O_8
    3  A    between atoms: C_3  and  C_22
    4  A    between atoms: N_4  and  C_24
    5  A    between atoms: O_8  and  C_20
    6  A    between atoms: C_13  and  C_18
    7  A    between atoms: N_14  and  C_18
    8  A    between atoms: N_15  and  C_20
    9  A    between atoms: N_15  and  C_26
   10  A    between atoms: C_16  and  C_20
   11  A    between atoms: C_16  and  C_24
                            x       y       z     vdW  Elec       q    Type
                         _______ _______ _______ _____ _____    ______ ____

>  <TORSDO>
F 11

$$$$
=
 OpenBabel11052419213D

 32 35  0  0  1  0  0  0  0  0999 V2000
  191.1150  176.9420  145.2500 C   0  0  0  0  0  2  0  0  0  0  0  0
  191.5870  175.5440  145.4970 N   0  0  0  0  0  0  0  0  0  0  0  0
  189.9490  176.7590  144.2650 C   0  0  1  0  0  3  0  0  0  0  0  0
  189.8670  175.3880  143.8630 N   0  0  0  0  0  0  0  0  0  0  0  0
  190.7830  173.3780  144.9060 C   0  0  0  0  0  1  0  0  0  0  0  0
  191.1180  174.7800  144.3670 C   0  0  2  0  0  3  0  0  0  0  0  0
  188.6060  177.0800  144.9250 C   0  0  0  0  0  0  0  0  0  0  0  0
  188.1690  176.3380  146.0380 C   0  0  0  0  0  3  0  0  0  0  0  0
  184.3170  179.3160  144.8010 C   0  0  0  0  0  3  0  0  0  0  0  0
  187.7360  177.9910  144.3480 C   0  0  0  0  0  3  0  0  0  0  0  0
  184.8020  177.7210  146.5450 C   0  0  0  0  0  3  0  0  0  0  0  0
  186.0960  177.5040  146.0350 C   0  0  0  0  0  0  0  0  0  0  0  0
  186.9290  176.5830  146.6050 C   0  0  0  0  0  3  0  0  0  0  0  0
  186.4660  178.2260  144.8860 C   0  0  0  0  0  0  0  0  0  0  0  0
  183.9550  178.6110  145.9550 C   0  0  0  0  0  3  0  0  0  0  0  0
  185.6020  179.1270  144.2930 C   0  0  0  0  0  3  0  0  0  0  0  0
  193.0810  175.5750  145.6490 C   0  0  2  0  0  3  0  0  0  0  0  0
  193.4180  176.2510  146.7500 O   0  0  0  0  0  1  0  0  0  0  0  0
  193.8930  176.0220  144.3750 C   0  0  0  0  0  2  0  0  0  0  0  0
  195.1180  175.1460  144.0060 C   0  0  1  0  0  3  0  0  0  0  0  0
  196.2960  175.8970  144.2970 O   0  0  0  0  0  0  0  0  0  0  0  0
  196.6780  176.7140  143.1790 C   0  0  0  0  0  2  0  0  0  0  0  0
  197.0070  175.8800  141.9460 C   0  0  0  0  0  2  0  0  0  0  0  0
  196.4320  176.4580  140.7680 O   0  0  0  0  0  1  0  0  0  0  0  0
  195.1350  173.8530  144.7290 N   0  0  0  0  0  2  0  0  0  0  0  0
  197.0290  173.3540  146.3710 N   0  0  0  0  0  1  0  0  0  0  0  0
  197.1030  172.4340  143.8400 S   0  0  0  0  0  0  0  0  0  0  0  0
  196.4120  173.2320  145.0650 C   0  0  0  0  0  0  0  0  0  0  0  0
  189.8510  175.2710  142.4010 C   0  0  0  0  0  2  0  0  0  0  0  0
  188.4210  175.0290  141.9860 C   0  0  1  0  0  3  0  0  0  0  0  0
  187.7660  175.9700  141.0590 C   0  0  0  0  0  2  0  0  0  0  0  0
  188.5070  174.8840  140.5760 O   0  0  0  0  0  0  0  0  0  0  0  0
  1  2  1  0  0  0  0
  2 17  1  0  0  0  0
  3  7  1  1  0  0  0
  3  1  1  0  0  0  0
  4  3  1  0  0  0  0
  4  6  1  0  0  0  0
  6  5  1  1  0  0  0
  6  2  1  0  0  0  0
  7  8  1  0  0  0  0
  8 13  2  0  0  0  0
  9 15  1  0  0  0  0
 10 14  1  0  0  0  0
 10  7  2  0  0  0  0
 12 11  1  0  0  0  0
 12 13  1  0  0  0  0
 14 12  2  0  0  0  0
 15 11  2  0  0  0  0
 16  9  2  0  0  0  0
 16 14  1  0  0  0  0
 17 18  1  1  0  0  0
 19 17  1  0  0  0  0
 20 21  1  0  0  0  0
 20 19  1  1  0  0  0
 20 25  1  0  0  0  0
 22 21  1  0  0  0  0
 23 22  1  0  0  0  0
 24 23  1  0  0  0  0
 25 28  1  0  0  0  0
 27 28  2  0  0  0  0
 28 26  1  0  0  0  0
 29  4  1  0  0  0  0
 30 29  1  6  0  0  0
 31 30  1  0  0  0  0
 32 31  1  0  0  0  0
 32 30  1  0  0  0  0
M  END
>  <MODEL>
4

>  <REMARK>
 VINA RESULT:      -6.9      1.619      2.302
  Name = 
  11 active torsions:
  status: ('A' for Active; 'I' for Inactive)
    1  A    between atoms: C_2  and  C_5
    2  A    between atoms: C_3  and  O_8
    3  A    between atoms: C_3  and  C_22
    4  A    between atoms: N_4  and  C_24
    5  A    between atoms: O_8  and  C_20
    6  A    between atoms: C_13  and  C_18
    7  A    between atoms: N_14  and  C_18
    8  A    between atoms: N_15  and  C_20
    9  A    between atoms: N_15  and  C_26
   10  A    between atoms: C_16  and  C_20
   11  A    between atoms: C_16  and  C_24
                            x       y       z     vdW  Elec       q    Type
                         _______ _______ _______ _____ _____    ______ ____

>  <TORSDO>
F 11

$$$$
=
 OpenBabel11052419213D

 32 35  0  0  1  0  0  0  0  0999 V2000
  191.1290  176.5830  144.6730 C   0  0  0  0  0  2  0  0  0  0  0  0
  191.6960  176.4190  146.0490 N   0  0  0  0  0  0  0  0  0  0  0  0
  189.8970  175.6640  144.6800 C   0  0  1  0  0  3  0  0  0  0  0  0
  189.8550  174.9200  145.9020 N   0  0  0  0  0  0  0  0  0  0  0  0
  190.9630  175.3310  148.0400 C   0  0  0  0  0  1  0  0  0  0  0  0
  191.1750  175.1610  146.5250 C   0  0  2  0  0  3  0  0  0  0  0  0
  188.5980  176.4740  144.6410 C   0  0  0  0  0  0  0  0  0  0  0  0
  188.3600  177.3780  143.5900 C   0  0  0  0  0  3  0  0  0  0  0  0
  184.6040  178.0750  146.8520 C   0  0  0  0  0  3  0  0  0  0  0  0
  187.7180  176.4470  145.7100 C   0  0  0  0  0  3  0  0  0  0  0  0
  185.2130  178.9330  144.6810 C   0  0  0  0  0  3  0  0  0  0  0  0
  186.3470  178.0980  144.6310 C   0  0  0  0  0  0  0  0  0  0  0  0
  187.2150  178.1580  143.5780 C   0  0  0  0  0  3  0  0  0  0  0  0
  186.5750  177.2540  145.7320 C   0  0  0  0  0  0  0  0  0  0  0  0
  184.3660  178.9030  145.7470 C   0  0  0  0  0  3  0  0  0  0  0  0
  185.7120  177.2290  146.8110 C   0  0  0  0  0  3  0  0  0  0  0  0
  193.1920  176.4750  145.9480 C   0  0  2  0  0  3  0  0  0  0  0  0
  193.5600  177.3460  145.0050 O   0  0  0  0  0  1  0  0  0  0  0  0
  193.9260  175.0860  145.8270 C   0  0  0  0  0  2  0  0  0  0  0  0
  195.3940  175.1310  145.3280 C   0  0  1  0  0  3  0  0  0  0  0  0
  196.1650  174.2650  146.1580 O   0  0  0  0  0  0  0  0  0  0  0  0
  197.1920  173.6030  145.4030 C   0  0  0  0  0  2  0  0  0  0  0  0
  197.1040  172.0860  145.5230 C   0  0  0  0  0  2  0  0  0  0  0  0
  195.7750  171.6760  145.8660 O   0  0  0  0  0  1  0  0  0  0  0  0
  195.5260  174.7420  143.9050 N   0  0  0  0  0  2  0  0  0  0  0  0
  194.7490  175.9230  141.7760 N   0  0  0  0  0  1  0  0  0  0  0  0
  196.9740  176.7140  143.0720 S   0  0  0  0  0  0  0  0  0  0  0  0
  195.6700  175.7760  142.8860 C   0  0  0  0  0  0  0  0  0  0  0  0
  189.7240  173.4840  145.6360 C   0  0  0  0  0  2  0  0  0  0  0  0
  190.2600  173.2340  144.2480 C   0  0  1  0  0  3  0  0  0  0  0  0
  190.7700  171.8960  143.8970 C   0  0  0  0  0  2  0  0  0  0  0  0
  189.4130  172.2110  143.7460 O   0  0  0  0  0  0  0  0  0  0  0  0
  1  3  1  0  0  0  0
  1  2  1  0  0  0  0
  2  6  1  0  0  0  0
  3  7  1  1  0  0  0
  3  4  1  0  0  0  0
  4  6  1  0  0  0  0
  6  5  1  1  0  0  0
  7 10  1  0  0  0  0
  8  7  2  0  0  0  0
 10 14  2  0  0  0  0
 11 15  2  0  0  0  0
 12 11  1  0  0  0  0
 12 14  1  0  0  0  0
 13  8  1  0  0  0  0
 13 12  2  0  0  0  0
 14 16  1  0  0  0  0
 15  9  1  0  0  0  0
 16  9  2  0  0  0  0
 17 18  1  6  0  0  0
 17  2  1  0  0  0  0
 19 17  1  0  0  0  0
 20 19  1  1  0  0  0
 20 21  1  0  0  0  0
 22 23  1  0  0  0  0
 22 21  1  0  0  0  0
 23 24  1  0  0  0  0
 25 20  1  0  0  0  0
 26 28  1  0  0  0  0
 28 27  2  0  0  0  0
 28 25  1  0  0  0  0
 29  4  1  0  0  0  0
 30 29  1  1  0  0  0
 31 30  1  0  0  0  0
 32 31  1  0  0  0  0
 32 30  1  0  0  0  0
M  END
>  <MODEL>
5

>  <REMARK>
 VINA RESULT:      -6.8      1.607      2.368
  Name = 
  11 active torsions:
  status: ('A' for Active; 'I' for Inactive)
    1  A    between atoms: C_2  and  C_5
    2  A    between atoms: C_3  and  O_8
    3  A    between atoms: C_3  and  C_22
    4  A    between atoms: N_4  and  C_24
    5  A    between atoms: O_8  and  C_20
    6  A    between atoms: C_13  and  C_18
    7  A    between atoms: N_14  and  C_18
    8  A    between atoms: N_15  and  C_20
    9  A    between atoms: N_15  and  C_26
   10  A    between atoms: C_16  and  C_20
   11  A    between atoms: C_16  and  C_24
                            x       y       z     vdW  Elec       q    Type
                         _______ _______ _______ _____ _____    ______ ____

>  <TORSDO>
F 11

$$$$
=
 OpenBabel11052419213D

 32 35  0  0  1  0  0  0  0  0999 V2000
  189.8580  177.1460  142.3850 C   0  0  0  0  0  2  0  0  0  0  0  0
  190.5880  176.1260  143.2030 N   0  0  0  0  0  0  0  0  0  0  0  0
  188.5100  176.4700  142.0870 C   0  0  1  0  0  3  0  0  0  0  0  0
  188.5300  175.1210  142.5610 N   0  0  0  0  0  0  0  0  0  0  0  0
  189.9920  174.0410  144.1940 C   0  0  0  0  0  1  0  0  0  0  0  0
  189.9490  174.8690  142.8980 C   0  0  2  0  0  3  0  0  0  0  0  0
  187.3660  177.1570  142.8380 C   0  0  0  0  0  0  0  0  0  0  0  0
  186.8740  178.3990  142.3940 C   0  0  0  0  0  3  0  0  0  0  0  0
  184.5560  177.5070  146.7600 C   0  0  0  0  0  3  0  0  0  0  0  0
  186.9080  176.6510  144.0430 C   0  0  0  0  0  3  0  0  0  0  0  0
  184.4670  179.2080  145.0510 C   0  0  0  0  0  3  0  0  0  0  0  0
  185.4240  178.5260  144.2740 C   0  0  0  0  0  0  0  0  0  0  0  0
  185.8800  179.0550  143.1000 C   0  0  0  0  0  3  0  0  0  0  0  0
  185.9290  177.3180  144.7880 C   0  0  0  0  0  0  0  0  0  0  0  0
  184.0390  178.7010  146.2410 C   0  0  0  0  0  3  0  0  0  0  0  0
  185.4910  176.8100  145.9960 C   0  0  0  0  0  3  0  0  0  0  0  0
  192.0430  176.1890  142.8390 C   0  0  2  0  0  3  0  0  0  0  0  0
  192.3960  175.0980  142.1560 O   0  0  0  0  0  1  0  0  0  0  0  0
  193.0320  176.5280  144.0180 C   0  0  0  0  0  2  0  0  0  0  0  0
  192.8900  175.6630  145.2970 C   0  0  1  0  0  3  0  0  0  0  0  0
  194.1260  174.9810  145.5040 O   0  0  0  0  0  0  0  0  0  0  0  0
  193.9240  173.5630  145.6070 C   0  0  0  0  0  2  0  0  0  0  0  0
  194.2170  172.8450  144.2940 C   0  0  0  0  0  2  0  0  0  0  0  0
  193.0280  172.2490  143.7610 O   0  0  0  0  0  1  0  0  0  0  0  0
  192.5320  176.4630  146.4910 N   0  0  0  0  0  2  0  0  0  0  0  0
  191.1270  175.2210  148.2280 N   0  0  0  0  0  1  0  0  0  0  0  0
  190.0290  177.0900  146.6290 S   0  0  0  0  0  0  0  0  0  0  0  0
  191.2690  176.2090  147.1760 C   0  0  0  0  0  0  0  0  0  0  0  0
  188.1340  174.1880  141.5010 C   0  0  0  0  0  2  0  0  0  0  0  0
  189.3100  174.0490  140.5640 C   0  0  1  0  0  3  0  0  0  0  0  0
  189.3830  172.8860  139.6610 C   0  0  0  0  0  2  0  0  0  0  0  0
  188.7080  174.0520  139.2780 O   0  0  0  0  0  0  0  0  0  0  0  0
  1  2  1  0  0  0  0
  3  1  1  0  0  0  0
  3  4  1  0  0  0  0
  3  7  1  1  0  0  0
  4  6  1  0  0  0  0
  6  2  1  0  0  0  0
  6  5  1  1  0  0  0
  7 10  1  0  0  0  0
  8  7  2  0  0  0  0
  8 13  1  0  0  0  0
 10 14  2  0  0  0  0
 11 15  2  0  0  0  0
 12 14  1  0  0  0  0
 12 11  1  0  0  0  0
 13 12  2  0  0  0  0
 14 16  1  0  0  0  0
 15  9  1  0  0  0  0
 16  9  2  0  0  0  0
 17 18  1  1  0  0  0
 17  2  1  0  0  0  0
 17 19  1  0  0  0  0
 20 19  1  6  0  0  0
 20 21  1  0  0  0  0
 20 25  1  0  0  0  0
 21 22  1  0  0  0  0
 23 22  1  0  0  0  0
 24 23  1  0  0  0  0
 25 28  1  0  0  0  0
 27 28  2  0  0  0  0
 28 26  1  0  0  0  0
 29  4  1  0  0  0  0
 30 29  1  1  0  0  0
 31 30  1  0  0  0  0
 32 31  1  0  0  0  0
 32 30  1  0  0  0  0
M  END
>  <MODEL>
6

>  <REMARK>
 VINA RESULT:      -6.7      2.429      3.489
  Name = 
  11 active torsions:
  status: ('A' for Active; 'I' for Inactive)
    1  A    between atoms: C_2  and  C_5
    2  A    between atoms: C_3  and  O_8
    3  A    between atoms: C_3  and  C_22
    4  A    between atoms: N_4  and  C_24
    5  A    between atoms: O_8  and  C_20
    6  A    between atoms: C_13  and  C_18
    7  A    between atoms: N_14  and  C_18
    8  A    between atoms: N_15  and  C_20
    9  A    between atoms: N_15  and  C_26
   10  A    between atoms: C_16  and  C_20
   11  A    between atoms: C_16  and  C_24
                            x       y       z     vdW  Elec       q    Type
                         _______ _______ _______ _____ _____    ______ ____

>  <TORSDO>
F 11

$$$$
=
 OpenBabel11052419213D

 32 35  0  0  1  0  0  0  0  0999 V2000
  190.4960  176.0870  143.1940 C   0  0  0  0  0  2  0  0  0  0  0  0
  191.1550  174.7900  143.5450 N   0  0  0  0  0  0  0  0  0  0  0  0
  189.0130  175.7100  143.0510 C   0  0  1  0  0  3  0  0  0  0  0  0
  188.8630  174.2910  143.1560 N   0  0  0  0  0  0  0  0  0  0  0  0
  190.3650  172.6080  144.0930 C   0  0  0  0  0  1  0  0  0  0  0  0
  190.2440  173.7680  143.0890 C   0  0  2  0  0  3  0  0  0  0  0  0
  188.1750  176.3020  144.1880 C   0  0  0  0  0  0  0  0  0  0  0  0
  188.4720  175.9830  145.5260 C   0  0  0  0  0  3  0  0  0  0  0  0
  184.1980  178.6180  145.6800 C   0  0  0  0  0  3  0  0  0  0  0  0
  187.0270  177.0270  143.9140 C   0  0  0  0  0  3  0  0  0  0  0  0
  185.7080  177.6430  147.2900 C   0  0  0  0  0  3  0  0  0  0  0  0
  186.5690  177.2010  146.2660 C   0  0  0  0  0  0  0  0  0  0  0  0
  187.6840  176.4670  146.5570 C   0  0  0  0  0  3  0  0  0  0  0  0
  186.1990  177.4940  144.9420 C   0  0  0  0  0  0  0  0  0  0  0  0
  184.5750  178.3430  147.0010 C   0  0  0  0  0  3  0  0  0  0  0  0
  185.0480  178.2030  144.6550 C   0  0  0  0  0  3  0  0  0  0  0  0
  192.5050  174.7590  142.8880 C   0  0  2  0  0  3  0  0  0  0  0  0
  192.3890  174.3860  141.6110 O   0  0  0  0  0  1  0  0  0  0  0  0
  193.6290  173.9720  143.6640 C   0  0  0  0  0  2  0  0  0  0  0  0
  194.7640  174.8330  144.2770 C   0  0  1  0  0  3  0  0  0  0  0  0
  194.7910  176.0790  143.5830 O   0  0  0  0  0  0  0  0  0  0  0  0
  196.1260  176.4140  143.1740 C   0  0  0  0  0  2  0  0  0  0  0  0
  196.2040  176.7440  141.6880 C   0  0  0  0  0  2  0  0  0  0  0  0
  194.9660  176.4440  141.0310 O   0  0  0  0  0  1  0  0  0  0  0  0
  194.5920  175.0520  145.7320 N   0  0  0  0  0  2  0  0  0  0  0  0
  194.5710  177.5420  146.3050 N   0  0  0  0  0  1  0  0  0  0  0  0
  192.3790  176.0160  146.6530 S   0  0  0  0  0  0  0  0  0  0  0  0
  193.9140  176.2540  146.2050 C   0  0  0  0  0  0  0  0  0  0  0  0
  188.1100  173.7590  142.0150 C   0  0  0  0  0  2  0  0  0  0  0  0
  189.0820  173.6030  140.8710 C   0  0  1  0  0  3  0  0  0  0  0  0
  188.5950  173.1210  139.5660 C   0  0  0  0  0  2  0  0  0  0  0  0
  188.5720  174.4850  139.8820 O   0  0  0  0  0  0  0  0  0  0  0  0
  1  2  1  0  0  0  0
  3  4  1  0  0  0  0
  3  1  1  0  0  0  0
  3  7  1  1  0  0  0
  6  4  1  0  0  0  0
  6  2  1  0  0  0  0
  6  5  1  1  0  0  0
  7  8  1  0  0  0  0
  8 13  2  0  0  0  0
  9 15  1  0  0  0  0
 10  7  2  0  0  0  0
 10 14  1  0  0  0  0
 12 13  1  0  0  0  0
 12 11  1  0  0  0  0
 14 12  2  0  0  0  0
 15 11  2  0  0  0  0
 16 14  1  0  0  0  0
 16  9  2  0  0  0  0
 17 18  1  6  0  0  0
 17  2  1  0  0  0  0
 17 19  1  0  0  0  0
 20 19  1  6  0  0  0
 20 25  1  0  0  0  0
 21 20  1  0  0  0  0
 22 21  1  0  0  0  0
 23 22  1  0  0  0  0
 24 23  1  0  0  0  0
 25 28  1  0  0  0  0
 28 26  1  0  0  0  0
 28 27  2  0  0  0  0
 29  4  1  0  0  0  0
 30 29  1  1  0  0  0
 31 32  1  0  0  0  0
 31 30  1  0  0  0  0
 32 30  1  0  0  0  0
M  END
>  <MODEL>
7

>  <REMARK>
 VINA RESULT:      -6.6      2.276      2.950
  Name = 
  11 active torsions:
  status: ('A' for Active; 'I' for Inactive)
    1  A    between atoms: C_2  and  C_5
    2  A    between atoms: C_3  and  O_8
    3  A    between atoms: C_3  and  C_22
    4  A    between atoms: N_4  and  C_24
    5  A    between atoms: O_8  and  C_20
    6  A    between atoms: C_13  and  C_18
    7  A    between atoms: N_14  and  C_18
    8  A    between atoms: N_15  and  C_20
    9  A    between atoms: N_15  and  C_26
   10  A    between atoms: C_16  and  C_20
   11  A    between atoms: C_16  and  C_24
                            x       y       z     vdW  Elec       q    Type
                         _______ _______ _______ _____ _____    ______ ____

>  <TORSDO>
F 11

$$$$
=
 OpenBabel11052419213D

 32 35  0  0  1  0  0  0  0  0999 V2000
  189.4130  174.8840  144.0720 C   0  0  0  0  0  2  0  0  0  0  0  0
  190.2420  175.6340  143.0780 N   0  0  0  0  0  0  0  0  0  0  0  0
  189.5750  175.6990  145.3640 C   0  0  1  0  0  3  0  0  0  0  0  0
  190.5400  176.7360  145.1640 N   0  0  0  0  0  0  0  0  0  0  0  0
  191.3940  177.7230  143.0980 C   0  0  0  0  0  1  0  0  0  0  0  0
  191.1700  176.4080  143.8670 C   0  0  2  0  0  3  0  0  0  0  0  0
  188.2720  176.4110  145.7410 C   0  0  0  0  0  0  0  0  0  0  0  0
  187.6170  176.0940  146.9450 C   0  0  0  0  0  3  0  0  0  0  0  0
  184.5180  179.1950  144.4920 C   0  0  0  0  0  3  0  0  0  0  0  0
  187.6420  177.2520  144.8400 C   0  0  0  0  0  3  0  0  0  0  0  0
  184.5510  178.0980  146.6400 C   0  0  0  0  0  3  0  0  0  0  0  0
  185.8140  177.5360  146.3730 C   0  0  0  0  0  0  0  0  0  0  0  0
  186.4080  176.6890  147.2660 C   0  0  0  0  0  3  0  0  0  0  0  0
  186.4030  177.8350  145.1320 C   0  0  0  0  0  0  0  0  0  0  0  0
  183.9400  178.9130  145.7360 C   0  0  0  0  0  3  0  0  0  0  0  0
  185.7780  178.6620  144.2180 C   0  0  0  0  0  3  0  0  0  0  0  0
  190.8870  174.6370  142.1590 C   0  0  2  0  0  3  0  0  0  0  0  0
  189.9890  174.1570  141.2960 O   0  0  0  0  0  1  0  0  0  0  0  0
  191.7400  173.5100  142.8560 C   0  0  0  0  0  2  0  0  0  0  0  0
  193.2410  173.4570  142.4730 C   0  0  1  0  0  3  0  0  0  0  0  0
  193.5130  174.5620  141.6130 O   0  0  0  0  0  0  0  0  0  0  0  0
  194.4050  175.4980  142.2380 C   0  0  0  0  0  2  0  0  0  0  0  0
  195.0360  176.4500  141.2280 C   0  0  0  0  0  2  0  0  0  0  0  0
  196.3030  176.9260  141.6960 O   0  0  0  0  0  1  0  0  0  0  0  0
  194.1340  173.4880  143.6560 N   0  0  0  0  0  2  0  0  0  0  0  0
  195.1390  171.2260  143.0210 N   0  0  0  0  0  1  0  0  0  0  0  0
  195.8920  172.5000  145.2710 S   0  0  0  0  0  0  0  0  0  0  0  0
  195.0400  172.3720  143.9030 C   0  0  0  0  0  0  0  0  0  0  0  0
  191.5740  176.6970  146.2030 C   0  0  0  0  0  2  0  0  0  0  0  0
  192.7510  175.9420  145.6360 C   0  0  1  0  0  3  0  0  0  0  0  0
  194.0290  175.9320  146.3720 C   0  0  0  0  0  2  0  0  0  0  0  0
  193.0390  174.9780  146.6380 O   0  0  0  0  0  0  0  0  0  0  0  0
  1  3  1  0  0  0  0
  2  6  1  0  0  0  0
  2  1  1  0  0  0  0
  3  7  1  6  0  0  0
  4  3  1  0  0  0  0
  4 29  1  0  0  0  0
  6  5  1  6  0  0  0
  6  4  1  0  0  0  0
  7  8  1  0  0  0  0
  8 13  2  0  0  0  0
  9 15  1  0  0  0  0
 10 14  1  0  0  0  0
 10  7  2  0  0  0  0
 12 11  1  0  0  0  0
 12 13  1  0  0  0  0
 14 12  2  0  0  0  0
 15 11  2  0  0  0  0
 16  9  2  0  0  0  0
 16 14  1  0  0  0  0
 17 18  1  1  0  0  0
 17 19  1  0  0  0  0
 17  2  1  0  0  0  0
 20 19  1  1  0  0  0
 20 25  1  0  0  0  0
 21 22  1  0  0  0  0
 21 20  1  0  0  0  0
 23 24  1  0  0  0  0
 23 22  1  0  0  0  0
 25 28  1  0  0  0  0
 26 28  1  0  0  0  0
 28 27  2  0  0  0  0
 30 29  1  1  0  0  0
 30 31  1  0  0  0  0
 30 32  1  0  0  0  0
 31 32  1  0  0  0  0
M  END
>  <MODEL>
8

>  <REMARK>
 VINA RESULT:      -6.4      2.215      4.059
  Name = 
  11 active torsions:
  status: ('A' for Active; 'I' for Inactive)
    1  A    between atoms: C_2  and  C_5
    2  A    between atoms: C_3  and  O_8
    3  A    between atoms: C_3  and  C_22
    4  A    between atoms: N_4  and  C_24
    5  A    between atoms: O_8  and  C_20
    6  A    between atoms: C_13  and  C_18
    7  A    between atoms: N_14  and  C_18
    8  A    between atoms: N_15  and  C_20
    9  A    between atoms: N_15  and  C_26
   10  A    between atoms: C_16  and  C_20
   11  A    between atoms: C_16  and  C_24
                            x       y       z     vdW  Elec       q    Type
                         _______ _______ _______ _____ _____    ______ ____

>  <TORSDO>
F 11

$$$$
=
 OpenBabel11052419213D

 32 35  0  0  1  0  0  0  0  0999 V2000
  189.5510  174.7520  144.5180 C   0  0  0  0  0  2  0  0  0  0  0  0
  190.3640  175.3540  143.4160 N   0  0  0  0  0  0  0  0  0  0  0  0
  189.6810  175.7730  145.6590 C   0  0  1  0  0  3  0  0  0  0  0  0
  190.6150  176.7930  145.2920 N   0  0  0  0  0  0  0  0  0  0  0  0
  191.4510  177.4520  143.0940 C   0  0  0  0  0  1  0  0  0  0  0  0
  191.2630  176.2750  144.0680 C   0  0  2  0  0  3  0  0  0  0  0  0
  188.3540  176.4960  145.9130 C   0  0  0  0  0  0  0  0  0  0  0  0
  187.5820  176.1810  147.0450 C   0  0  0  0  0  3  0  0  0  0  0  0
  184.7660  179.3230  144.3210 C   0  0  0  0  0  3  0  0  0  0  0  0
  187.8220  177.3480  144.9580 C   0  0  0  0  0  3  0  0  0  0  0  0
  184.5800  178.2170  146.4560 C   0  0  0  0  0  3  0  0  0  0  0  0
  185.8580  177.6430  146.3100 C   0  0  0  0  0  0  0  0  0  0  0  0
  186.3540  176.7870  147.2510 C   0  0  0  0  0  3  0  0  0  0  0  0
  186.5670  177.9420  145.1330 C   0  0  0  0  0  0  0  0  0  0  0  0
  184.0670  179.0420  145.5010 C   0  0  0  0  0  3  0  0  0  0  0  0
  186.0410  178.7790  144.1670 C   0  0  0  0  0  3  0  0  0  0  0  0
  191.0450  174.2400  142.6740 C   0  0  2  0  0  3  0  0  0  0  0  0
  192.3710  174.3680  142.7630 O   0  0  0  0  0  1  0  0  0  0  0  0
  190.5440  173.9870  141.2010 C   0  0  0  0  0  2  0  0  0  0  0  0
  189.3350  173.0290  141.0480 C   0  0  1  0  0  3  0  0  0  0  0  0
  188.1470  173.7810  141.2930 O   0  0  0  0  0  0  0  0  0  0  0  0
  188.1910  175.0510  140.6230 C   0  0  0  0  0  2  0  0  0  0  0  0
  187.4440  176.1320  141.3950 C   0  0  0  0  0  2  0  0  0  0  0  0
  187.0930  177.2240  140.5360 O   0  0  0  0  0  1  0  0  0  0  0  0
  189.2780  172.3890  139.7130 N   0  0  0  0  0  2  0  0  0  0  0  0
  190.8170  170.3820  140.0790 N   0  0  0  0  0  1  0  0  0  0  0  0
  191.0470  171.9290  137.8860 S   0  0  0  0  0  0  0  0  0  0  0  0
  190.3630  171.5100  139.2890 C   0  0  0  0  0  0  0  0  0  0  0  0
  191.6430  176.9570  146.3260 C   0  0  0  0  0  2  0  0  0  0  0  0
  192.9060  176.3140  145.8070 C   0  0  1  0  0  3  0  0  0  0  0  0
  194.1790  176.5440  146.5140 C   0  0  0  0  0  2  0  0  0  0  0  0
  193.3280  175.4970  146.8880 O   0  0  0  0  0  0  0  0  0  0  0  0
  1  3  1  0  0  0  0
  2  6  1  0  0  0  0
  2  1  1  0  0  0  0
  3  7  1  6  0  0  0
  4  3  1  0  0  0  0
  4 29  1  0  0  0  0
  6  5  1  6  0  0  0
  6  4  1  0  0  0  0
  7  8  1  0  0  0  0
  8 13  2  0  0  0  0
  9 15  1  0  0  0  0
 10 14  1  0  0  0  0
 10  7  2  0  0  0  0
 12 11  1  0  0  0  0
 12 13  1  0  0  0  0
 14 12  2  0  0  0  0
 15 11  2  0  0  0  0
 16  9  2  0  0  0  0
 16 14  1  0  0  0  0
 17 18  1  6  0  0  0
 17  2  1  0  0  0  0
 19 17  1  0  0  0  0
 20 19  1  6  0  0  0
 20 21  1  0  0  0  0
 22 21  1  0  0  0  0
 22 23  1  0  0  0  0
 24 23  1  0  0  0  0
 25 20  1  0  0  0  0
 27 28  2  0  0  0  0
 28 25  1  0  0  0  0
 28 26  1  0  0  0  0
 30 29  1  1  0  0  0
 30 31  1  0  0  0  0
 30 32  1  0  0  0  0
 31 32  1  0  0  0  0
M  END
>  <MODEL>
9

>  <REMARK>
 VINA RESULT:      -6.4      2.738      5.768
  Name = 
  11 active torsions:
  status: ('A' for Active; 'I' for Inactive)
    1  A    between atoms: C_2  and  C_5
    2  A    between atoms: C_3  and  O_8
    3  A    between atoms: C_3  and  C_22
    4  A    between atoms: N_4  and  C_24
    5  A    between atoms: O_8  and  C_20
    6  A    between atoms: C_13  and  C_18
    7  A    between atoms: N_14  and  C_18
    8  A    between atoms: N_15  and  C_20
    9  A    between atoms: N_15  and  C_26
   10  A    between atoms: C_16  and  C_20
   11  A    between atoms: C_16  and  C_24
                            x       y       z     vdW  Elec       q    Type
                         _______ _______ _______ _____ _____    ______ ____

>  <TORSDO>
F 11

$$$$
