=
 OpenBabel11052421263D

 32 37  0  0  1  0  0  0  0  0999 V2000
  191.0680  177.2410  143.0660 C   0  0  1  0  0  3  0  0  0  0  0  0
  192.4100  175.3260  147.4480 C   0  0  0  0  0  3  0  0  0  0  0  0
  191.0760  175.3280  147.8560 C   0  0  0  0  0  3  0  0  0  0  0  0
  188.7130  178.0690  142.7050 C   0  0  0  0  0  0  0  0  0  0  0  0
  187.3470  177.8850  143.1840 C   0  0  0  0  0  0  0  0  0  0  0  0
  192.0030  175.2010  141.9520 C   0  0  2  0  0  3  0  0  0  0  0  0
  193.3560  176.5080  143.4990 O   0  0  0  0  0  0  0  0  0  0  0  0
  185.7320  177.2690  144.6410 C   0  0  0  0  0  0  0  0  0  0  0  0
  194.3370  174.5290  142.6070 C   0  0  0  0  0  1  0  0  0  0  0  0
  192.7670  175.8990  146.2270 C   0  0  0  0  0  3  0  0  0  0  0  0
  192.2130  177.1090  144.0850 C   0  0  2  0  0  3  0  0  0  0  0  0
  191.7930  176.4680  145.3930 C   0  0  0  0  0  0  0  0  0  0  0  0
  189.4080  177.1660  144.9810 C   0  0  0  0  0  0  0  0  0  0  0  0
  185.2680  176.9850  143.3290 N   0  0  0  0  0  2  0  0  0  0  0  0
  193.0520  175.1920  143.0760 C   0  0  2  0  0  3  0  0  0  0  0  0
  186.3480  177.3610  142.4800 C   0  0  0  0  0  3  0  0  0  0  0  0
  190.1010  175.9150  147.0490 C   0  0  0  0  0  3  0  0  0  0  0  0
  190.4440  176.5020  145.8180 C   0  0  0  0  0  0  0  0  0  0  0  0
  188.1190  177.1640  145.3800 C   0  0  0  0  0  3  0  0  0  0  0  0
  190.7400  175.8710  142.4770 C   0  0  0  0  0  2  0  0  0  0  0  0
  188.9430  178.3560  141.4980 O   0  0  0  0  0  0  0  0  0  0  0  0
  185.0530  177.0300  145.6740 O   0  0  0  0  0  0  0  0  0  0  0  0
  189.8400  177.9030  143.7060 C   0  0  1  0  0  3  0  0  0  0  0  0
  187.0600  177.9300  144.6400 C   0  0  1  0  0  3  0  0  0  0  0  0
  191.6640  173.7780  141.5140 C   0  0  0  0  0  2  0  0  0  0  0  0
  190.2030  173.4420  139.2430 S   0  0  0  0  0  1  0  0  0  0  0  0
  190.2200  173.6700  141.0460 C   0  0  1  0  0  3  0  0  0  0  0  0
  189.5370  172.4890  141.7170 C   0  0  0  0  0  2  0  0  0  0  0  0
  188.9820  172.8930  143.0690 C   0  0  0  0  0  2  0  0  0  0  0  0
  189.6150  172.0380  144.1470 C   0  0  0  0  0  3  0  0  0  0  0  0
  190.8970  172.6930  144.6110 C   0  0  0  0  0  2  0  0  0  0  0  0
  189.6420  172.8130  145.4490 C   0  0  0  0  0  2  0  0  0  0  0  0
  1 20  1  1  0  0  0
  1 23  1  0  0  0  0
  1 11  1  0  0  0  0
  2  3  1  0  0  0  0
  4  5  1  0  0  0  0
  5 24  1  0  0  0  0
  6 25  1  1  0  0  0
  6 20  1  0  0  0  0
  6 15  1  0  0  0  0
  8 22  2  0  0  0  0
 10  2  2  0  0  0  0
 11  7  1  6  0  0  0
 11 12  1  0  0  0  0
 12 18  2  0  0  0  0
 12 10  1  0  0  0  0
 13 19  2  0  0  0  0
 13 18  1  0  0  0  0
 14  8  1  0  0  0  0
 15  9  1  6  0  0  0
 15  7  1  0  0  0  0
 16  5  2  0  0  0  0
 16 14  1  0  0  0  0
 17  3  2  0  0  0  0
 18 17  1  0  0  0  0
 21  4  2  0  0  0  0
 23  4  1  6  0  0  0
 23 13  1  0  0  0  0
 24  8  1  0  0  0  0
 24 19  1  1  0  0  0
 27 26  1  6  0  0  0
 27 25  1  0  0  0  0
 27 28  1  0  0  0  0
 28 29  1  0  0  0  0
 29 30  1  0  0  0  0
 30 31  1  0  0  0  0
 30 32  1  0  0  0  0
 31 32  1  0  0  0  0
M  END
>  <MODEL>
1

>  <REMARK>
 VINA RESULT:      -7.5      0.000      0.000
  Name = 
  5 active torsions:
  status: ('A' for Active; 'I' for Inactive)
    1  A    between atoms: C_1  and  C_10
    2  A    between atoms: C_8  and  C_23
    3  A    between atoms: C_10  and  C_24
    4  A    between atoms: C_19  and  C_23
    5  A    between atoms: C_19  and  C_24
                            x       y       z     vdW  Elec       q    Type
                         _______ _______ _______ _____ _____    ______ ____

>  <TORSDO>
F 5

$$$$
=
 OpenBabel11052421263D

 32 37  0  0  1  0  0  0  0  0999 V2000
  190.1820  177.2040  143.1160 C   0  0  1  0  0  3  0  0  0  0  0  0
  193.4590  175.4770  146.4240 C   0  0  0  0  0  3  0  0  0  0  0  0
  192.4560  175.4290  147.3920 C   0  0  0  0  0  3  0  0  0  0  0  0
  187.8770  177.9130  143.8560 C   0  0  0  0  0  0  0  0  0  0  0  0
  186.8870  177.6810  144.9030 C   0  0  0  0  0  0  0  0  0  0  0  0
  190.6200  175.1780  141.7090 C   0  0  2  0  0  3  0  0  0  0  0  0
  192.4540  176.5890  142.4690 O   0  0  0  0  0  0  0  0  0  0  0  0
  186.1410  177.0320  146.9360 C   0  0  0  0  0  0  0  0  0  0  0  0
  193.0300  174.6320  141.2390 C   0  0  0  0  0  1  0  0  0  0  0  0
  193.1950  176.0310  145.1710 C   0  0  0  0  0  3  0  0  0  0  0  0
  191.6690  177.1540  143.5060 C   0  0  2  0  0  3  0  0  0  0  0  0
  191.9200  176.5310  144.8660 C   0  0  0  0  0  0  0  0  0  0  0  0
  189.5730  177.1070  145.5750 C   0  0  0  0  0  0  0  0  0  0  0  0
  185.1490  176.6910  145.9770 N   0  0  0  0  0  2  0  0  0  0  0  0
  192.0620  175.2490  142.2350 C   0  0  2  0  0  3  0  0  0  0  0  0
  185.7070  177.0910  144.7300 C   0  0  0  0  0  3  0  0  0  0  0  0
  191.1910  175.9480  147.1110 C   0  0  0  0  0  3  0  0  0  0  0  0
  190.9090  176.5150  145.8550 C   0  0  0  0  0  0  0  0  0  0  0  0
  188.6050  177.0580  146.5150 C   0  0  0  0  0  3  0  0  0  0  0  0
  189.6960  175.8050  142.7450 C   0  0  0  0  0  2  0  0  0  0  0  0
  187.5220  178.1760  142.6750 O   0  0  0  0  0  0  0  0  0  0  0  0
  186.0150  176.7920  148.1650 O   0  0  0  0  0  0  0  0  0  0  0  0
  189.3420  177.8270  144.2400 C   0  0  1  0  0  3  0  0  0  0  0  0
  187.2870  177.7530  146.3310 C   0  0  1  0  0  3  0  0  0  0  0  0
  190.1960  173.7290  141.4780 C   0  0  0  0  0  2  0  0  0  0  0  0
  187.6710  172.7470  141.7290 S   0  0  0  0  0  1  0  0  0  0  0  0
  189.2130  173.2620  142.5410 C   0  0  1  0  0  3  0  0  0  0  0  0
  189.7970  172.0930  143.3180 C   0  0  0  0  0  2  0  0  0  0  0  0
  190.7830  172.5840  144.3600 C   0  0  0  0  0  2  0  0  0  0  0  0
  191.9390  171.6110  144.4560 C   0  0  0  0  0  3  0  0  0  0  0  0
  192.7360  171.6590  143.1700 C   0  0  0  0  0  2  0  0  0  0  0  0
  193.2450  172.3780  144.4020 C   0  0  0  0  0  2  0  0  0  0  0  0
  1 20  1  1  0  0  0
  1 11  1  0  0  0  0
  1 23  1  0  0  0  0
  2  3  1  0  0  0  0
  4  5  1  0  0  0  0
  5 24  1  0  0  0  0
  6 25  1  1  0  0  0
  6 15  1  0  0  0  0
  6 20  1  0  0  0  0
  8 22  2  0  0  0  0
 10  2  2  0  0  0  0
 11  7  1  6  0  0  0
 11 12  1  0  0  0  0
 12 10  1  0  0  0  0
 12 18  2  0  0  0  0
 13 18  1  0  0  0  0
 13 19  2  0  0  0  0
 14  8  1  0  0  0  0
 15  9  1  6  0  0  0
 15  7  1  0  0  0  0
 16  5  2  0  0  0  0
 16 14  1  0  0  0  0
 17  3  2  0  0  0  0
 18 17  1  0  0  0  0
 21  4  2  0  0  0  0
 23  4  1  6  0  0  0
 23 13  1  0  0  0  0
 24 19  1  6  0  0  0
 24  8  1  0  0  0  0
 25 27  1  0  0  0  0
 27 26  1  6  0  0  0
 27 28  1  0  0  0  0
 28 29  1  0  0  0  0
 29 30  1  0  0  0  0
 31 32  1  0  0  0  0
 31 30  1  0  0  0  0
 32 30  1  0  0  0  0
M  END
>  <MODEL>
2

>  <REMARK>
 VINA RESULT:      -7.2      1.463      1.866
  Name = 
  5 active torsions:
  status: ('A' for Active; 'I' for Inactive)
    1  A    between atoms: C_1  and  C_10
    2  A    between atoms: C_8  and  C_23
    3  A    between atoms: C_10  and  C_24
    4  A    between atoms: C_19  and  C_23
    5  A    between atoms: C_19  and  C_24
                            x       y       z     vdW  Elec       q    Type
                         _______ _______ _______ _____ _____    ______ ____

>  <TORSDO>
F 5

$$$$
=
 OpenBabel11052421263D

 32 37  0  0  1  0  0  0  0  0999 V2000
  190.0690  174.0720  145.2430 C   0  0  1  0  0  3  0  0  0  0  0  0
  194.1830  176.4710  146.6520 C   0  0  0  0  0  3  0  0  0  0  0  0
  194.8640  175.9490  145.5510 C   0  0  0  0  0  3  0  0  0  0  0  0
  190.1610  172.3670  143.3860 C   0  0  0  0  0  0  0  0  0  0  0  0
  190.9290  172.0040  142.1990 C   0  0  0  0  0  0  0  0  0  0  0  0
  188.9180  176.2870  145.0300 C   0  0  2  0  0  3  0  0  0  0  0  0
  190.0550  175.6640  147.0920 O   0  0  0  0  0  0  0  0  0  0  0  0
  192.7320  171.9640  140.8360 C   0  0  0  0  0  0  0  0  0  0  0  0
  189.1070  177.8480  146.9940 C   0  0  0  0  0  1  0  0  0  0  0  0
  192.8790  176.0570  146.9280 C   0  0  0  0  0  3  0  0  0  0  0  0
  190.8290  174.6730  146.4370 C   0  0  2  0  0  3  0  0  0  0  0  0
  192.2360  175.1270  146.0980 C   0  0  0  0  0  0  0  0  0  0  0  0
  192.2930  173.5280  144.1530 C   0  0  0  0  0  0  0  0  0  0  0  0
  191.5690  172.0070  140.0220 N   0  0  0  0  0  2  0  0  0  0  0  0
  189.7920  176.7400  146.2110 C   0  0  2  0  0  3  0  0  0  0  0  0
  190.4880  172.0710  140.9460 C   0  0  0  0  0  3  0  0  0  0  0  0
  194.2440  175.0020  144.7340 C   0  0  0  0  0  3  0  0  0  0  0  0
  192.9320  174.5700  145.0000 C   0  0  0  0  0  0  0  0  0  0  0  0
  192.9540  173.0270  143.0890 C   0  0  0  0  0  3  0  0  0  0  0  0
  189.6530  175.1830  144.2820 C   0  0  0  0  0  2  0  0  0  0  0  0
  188.9170  172.1650  143.4390 O   0  0  0  0  0  0  0  0  0  0  0  0
  193.8980  171.9380  140.3630 O   0  0  0  0  0  0  0  0  0  0  0  0
  190.9100  172.9920  144.5470 C   0  0  1  0  0  3  0  0  0  0  0  0
  192.4070  171.8850  142.2810 C   0  0  1  0  0  3  0  0  0  0  0  0
  188.6550  177.4460  144.0720 C   0  0  0  0  0  2  0  0  0  0  0  0
  186.7610  178.3640  142.3470 S   0  0  0  0  0  1  0  0  0  0  0  0
  187.1770  177.8030  144.0250 C   0  0  1  0  0  3  0  0  0  0  0  0
  186.3320  176.5910  144.3820 C   0  0  0  0  0  2  0  0  0  0  0  0
  185.5870  176.8250  145.6820 C   0  0  0  0  0  2  0  0  0  0  0  0
  185.5000  178.3130  145.9500 C   0  0  0  0  0  3  0  0  0  0  0  0
  184.0440  178.7150  146.0480 C   0  0  0  0  0  2  0  0  0  0  0  0
  184.8660  178.5400  147.3080 C   0  0  0  0  0  2  0  0  0  0  0  0
  1 20  1  6  0  0  0
  1 11  1  0  0  0  0
  2 10  1  0  0  0  0
  3  2  2  0  0  0  0
  4 21  2  0  0  0  0
  5 24  1  0  0  0  0
  5  4  1  0  0  0  0
  6 25  1  6  0  0  0
  6 15  1  0  0  0  0
  8 24  1  0  0  0  0
 11 12  1  6  0  0  0
 11  7  1  0  0  0  0
 12 10  2  0  0  0  0
 13 23  1  0  0  0  0
 13 18  1  0  0  0  0
 14  8  1  0  0  0  0
 14 16  1  0  0  0  0
 15  9  1  1  0  0  0
 15  7  1  0  0  0  0
 16  5  2  0  0  0  0
 17 18  2  0  0  0  0
 17  3  1  0  0  0  0
 18 12  1  0  0  0  0
 19 13  2  0  0  0  0
 20  6  1  0  0  0  0
 22  8  2  0  0  0  0
 23  4  1  6  0  0  0
 23  1  1  0  0  0  0
 24 19  1  1  0  0  0
 27 26  1  6  0  0  0
 27 25  1  0  0  0  0
 27 28  1  0  0  0  0
 28 29  1  0  0  0  0
 29 30  1  0  0  0  0
 30 31  1  0  0  0  0
 30 32  1  0  0  0  0
 31 32  1  0  0  0  0
M  END
>  <MODEL>
3

>  <REMARK>
 VINA RESULT:      -6.9      3.017      6.226
  Name = 
  5 active torsions:
  status: ('A' for Active; 'I' for Inactive)
    1  A    between atoms: C_1  and  C_10
    2  A    between atoms: C_8  and  C_23
    3  A    between atoms: C_10  and  C_24
    4  A    between atoms: C_19  and  C_23
    5  A    between atoms: C_19  and  C_24
                            x       y       z     vdW  Elec       q    Type
                         _______ _______ _______ _____ _____    ______ ____

>  <TORSDO>
F 5

$$$$
=
 OpenBabel11052421263D

 32 37  0  0  1  0  0  0  0  0999 V2000
  190.4930  177.0280  142.7540 C   0  0  1  0  0  3  0  0  0  0  0  0
  192.2900  176.0950  147.2890 C   0  0  0  0  0  3  0  0  0  0  0  0
  191.0230  176.3060  147.8330 C   0  0  0  0  0  3  0  0  0  0  0  0
  188.1600  177.9450  142.4710 C   0  0  0  0  0  0  0  0  0  0  0  0
  186.8600  177.9960  143.1330 C   0  0  0  0  0  0  0  0  0  0  0  0
  191.1600  174.7110  142.0740 C   0  0  2  0  0  3  0  0  0  0  0  0
  192.7740  176.2270  143.0890 O   0  0  0  0  0  0  0  0  0  0  0  0
  185.4190  177.8800  144.8710 C   0  0  0  0  0  0  0  0  0  0  0  0
  193.5200  174.0170  142.6040 C   0  0  0  0  0  1  0  0  0  0  0  0
  192.5150  176.3310  145.9320 C   0  0  0  0  0  3  0  0  0  0  0  0
  191.7520  177.0440  143.6360 C   0  0  2  0  0  3  0  0  0  0  0  0
  191.4730  176.7680  145.1010 C   0  0  0  0  0  0  0  0  0  0  0  0
  189.0970  177.5490  144.8050 C   0  0  0  0  0  0  0  0  0  0  0  0
  184.7720  177.3350  143.7300 N   0  0  0  0  0  2  0  0  0  0  0  0
  192.3460  174.8790  143.0380 C   0  0  2  0  0  3  0  0  0  0  0  0
  185.7500  177.4060  142.6970 C   0  0  0  0  0  3  0  0  0  0  0  0
  189.9840  176.7670  147.0230 C   0  0  0  0  0  3  0  0  0  0  0  0
  190.1950  177.0150  145.6550 C   0  0  0  0  0  0  0  0  0  0  0  0
  187.8720  177.7500  145.3360 C   0  0  0  0  0  3  0  0  0  0  0  0
  190.0150  175.5910  142.5590 C   0  0  0  0  0  2  0  0  0  0  0  0
  188.2450  177.9180  141.2130 O   0  0  0  0  0  0  0  0  0  0  0  0
  184.8680  177.9500  146.0010 O   0  0  0  0  0  0  0  0  0  0  0  0
  189.3970  177.9240  143.3480 C   0  0  1  0  0  3  0  0  0  0  0  0
  186.7690  178.4070  144.5570 C   0  0  1  0  0  3  0  0  0  0  0  0
  190.6890  173.2590  142.0390 C   0  0  0  0  0  2  0  0  0  0  0  0
  191.1510  171.3390  140.1670 S   0  0  0  0  0  1  0  0  0  0  0  0
  190.2570  172.8490  140.6390 C   0  0  1  0  0  3  0  0  0  0  0  0
  188.7600  172.5880  140.6060 C   0  0  0  0  0  2  0  0  0  0  0  0
  188.2100  172.8140  139.2110 C   0  0  0  0  0  2  0  0  0  0  0  0
  188.8130  174.0760  138.6320 C   0  0  0  0  0  3  0  0  0  0  0  0
  189.0800  173.8670  137.1570 C   0  0  0  0  0  2  0  0  0  0  0  0
  187.8660  174.6560  137.6010 C   0  0  0  0  0  2  0  0  0  0  0  0
  1 20  1  1  0  0  0
  1 23  1  0  0  0  0
  1 11  1  0  0  0  0
  2  3  1  0  0  0  0
  4  5  1  0  0  0  0
  5 24  1  0  0  0  0
  6 25  1  1  0  0  0
  6 20  1  0  0  0  0
  6 15  1  0  0  0  0
  8 22  2  0  0  0  0
 10  2  2  0  0  0  0
 11  7  1  6  0  0  0
 11 12  1  0  0  0  0
 12 18  2  0  0  0  0
 12 10  1  0  0  0  0
 13 19  2  0  0  0  0
 13 18  1  0  0  0  0
 14  8  1  0  0  0  0
 15  9  1  6  0  0  0
 15  7  1  0  0  0  0
 16  5  2  0  0  0  0
 16 14  1  0  0  0  0
 17  3  2  0  0  0  0
 18 17  1  0  0  0  0
 21  4  2  0  0  0  0
 23  4  1  6  0  0  0
 23 13  1  0  0  0  0
 24  8  1  0  0  0  0
 24 19  1  1  0  0  0
 27 26  1  1  0  0  0
 27 25  1  0  0  0  0
 28 27  1  0  0  0  0
 29 28  1  0  0  0  0
 30 29  1  0  0  0  0
 31 32  1  0  0  0  0
 31 30  1  0  0  0  0
 32 30  1  0  0  0  0
M  END
>  <MODEL>
4

>  <REMARK>
 VINA RESULT:      -6.8      1.523      2.516
  Name = 
  5 active torsions:
  status: ('A' for Active; 'I' for Inactive)
    1  A    between atoms: C_1  and  C_10
    2  A    between atoms: C_8  and  C_23
    3  A    between atoms: C_10  and  C_24
    4  A    between atoms: C_19  and  C_23
    5  A    between atoms: C_19  and  C_24
                            x       y       z     vdW  Elec       q    Type
                         _______ _______ _______ _____ _____    ______ ____

>  <TORSDO>
F 5

$$$$
=
 OpenBabel11052421263D

 32 37  0  0  1  0  0  0  0  0999 V2000
  190.6510  176.9940  142.9160 C   0  0  1  0  0  3  0  0  0  0  0  0
  192.0630  175.2290  147.3380 C   0  0  0  0  0  3  0  0  0  0  0  0
  190.7650  175.4010  147.8200 C   0  0  0  0  0  3  0  0  0  0  0  0
  188.3770  178.0470  142.6300 C   0  0  0  0  0  0  0  0  0  0  0  0
  187.0320  178.0430  143.1980 C   0  0  0  0  0  0  0  0  0  0  0  0
  191.2960  174.7980  141.8970 C   0  0  2  0  0  3  0  0  0  0  0  0
  192.8730  176.0480  143.2690 O   0  0  0  0  0  0  0  0  0  0  0  0
  185.4580  177.6980  144.7830 C   0  0  0  0  0  0  0  0  0  0  0  0
  193.5850  173.9220  142.4640 C   0  0  0  0  0  1  0  0  0  0  0  0
  192.3990  175.6810  146.0610 C   0  0  0  0  0  3  0  0  0  0  0  0
  191.8390  176.8050  143.8750 C   0  0  2  0  0  3  0  0  0  0  0  0
  191.4390  176.2980  145.2470 C   0  0  0  0  0  0  0  0  0  0  0  0
  189.1180  177.2210  144.9220 C   0  0  0  0  0  0  0  0  0  0  0  0
  184.8840  177.3830  143.5230 N   0  0  0  0  0  2  0  0  0  0  0  0
  192.4080  174.7490  142.9570 C   0  0  2  0  0  3  0  0  0  0  0  0
  185.9410  177.5850  142.5900 C   0  0  0  0  0  3  0  0  0  0  0  0
  189.8060  176.0370  147.0300 C   0  0  0  0  0  3  0  0  0  0  0  0
  190.1300  176.5040  145.7430 C   0  0  0  0  0  0  0  0  0  0  0  0
  187.8630  177.3840  145.3920 C   0  0  0  0  0  3  0  0  0  0  0  0
  190.1460  175.6330  142.4430 C   0  0  0  0  0  2  0  0  0  0  0  0
  188.5580  178.2300  141.3960 O   0  0  0  0  0  0  0  0  0  0  0  0
  184.8250  177.6010  145.8670 O   0  0  0  0  0  0  0  0  0  0  0  0
  189.5410  177.8250  143.5760 C   0  0  1  0  0  3  0  0  0  0  0  0
  186.8440  178.2110  144.6610 C   0  0  1  0  0  3  0  0  0  0  0  0
  190.7840  173.3960  141.5790 C   0  0  0  0  0  2  0  0  0  0  0  0
  191.8240  173.3830  139.0640 S   0  0  0  0  0  1  0  0  0  0  0  0
  190.3510  173.2790  140.1250 C   0  0  1  0  0  3  0  0  0  0  0  0
  189.6470  171.9520  139.8910 C   0  0  0  0  0  2  0  0  0  0  0  0
  190.5290  171.0140  139.0910 C   0  0  0  0  0  2  0  0  0  0  0  0
  189.6680  170.1830  138.1630 C   0  0  0  0  0  3  0  0  0  0  0  0
  190.0410  170.4920  136.7290 C   0  0  0  0  0  2  0  0  0  0  0  0
  190.5480  169.2250  137.3860 C   0  0  0  0  0  2  0  0  0  0  0  0
  1 20  1  1  0  0  0
  1 23  1  0  0  0  0
  1 11  1  0  0  0  0
  2  3  1  0  0  0  0
  4  5  1  0  0  0  0
  5 24  1  0  0  0  0
  6 25  1  1  0  0  0
  6 20  1  0  0  0  0
  6 15  1  0  0  0  0
  8 22  2  0  0  0  0
 10  2  2  0  0  0  0
 11  7  1  6  0  0  0
 11 12  1  0  0  0  0
 12 18  2  0  0  0  0
 12 10  1  0  0  0  0
 13 19  2  0  0  0  0
 13 18  1  0  0  0  0
 14  8  1  0  0  0  0
 15  9  1  6  0  0  0
 15  7  1  0  0  0  0
 16  5  2  0  0  0  0
 16 14  1  0  0  0  0
 17  3  2  0  0  0  0
 18 17  1  0  0  0  0
 21  4  2  0  0  0  0
 23  4  1  6  0  0  0
 23 13  1  0  0  0  0
 24  8  1  0  0  0  0
 24 19  1  1  0  0  0
 27 26  1  6  0  0  0
 27 25  1  0  0  0  0
 28 27  1  0  0  0  0
 29 28  1  0  0  0  0
 30 29  1  0  0  0  0
 31 32  1  0  0  0  0
 31 30  1  0  0  0  0
 32 30  1  0  0  0  0
M  END
>  <MODEL>
5

>  <REMARK>
 VINA RESULT:      -6.6      1.784      2.636
  Name = 
  5 active torsions:
  status: ('A' for Active; 'I' for Inactive)
    1  A    between atoms: C_1  and  C_10
    2  A    between atoms: C_8  and  C_23
    3  A    between atoms: C_10  and  C_24
    4  A    between atoms: C_19  and  C_23
    5  A    between atoms: C_19  and  C_24
                            x       y       z     vdW  Elec       q    Type
                         _______ _______ _______ _____ _____    ______ ____

>  <TORSDO>
F 5

$$$$
=
 OpenBabel11052421263D

 32 37  0  0  1  0  0  0  0  0999 V2000
  189.1230  176.6550  142.2970 C   0  0  1  0  0  3  0  0  0  0  0  0
  190.4470  174.7820  146.7030 C   0  0  0  0  0  3  0  0  0  0  0  0
  189.2700  175.2770  147.2660 C   0  0  0  0  0  3  0  0  0  0  0  0
  187.1430  178.2060  142.1150 C   0  0  0  0  0  0  0  0  0  0  0  0
  185.8860  178.5440  142.7760 C   0  0  0  0  0  0  0  0  0  0  0  0
  189.1490  174.3300  141.3650 C   0  0  2  0  0  3  0  0  0  0  0  0
  191.0840  175.2220  142.5450 O   0  0  0  0  0  0  0  0  0  0  0  0
  184.4140  178.6480  144.4880 C   0  0  0  0  0  0  0  0  0  0  0  0
  191.2080  172.9570  141.8170 C   0  0  0  0  0  1  0  0  0  0  0  0
  190.7720  175.0900  145.3810 C   0  0  0  0  0  3  0  0  0  0  0  0
  190.3090  176.2270  143.1780 C   0  0  2  0  0  3  0  0  0  0  0  0
  189.9180  175.8850  144.6020 C   0  0  0  0  0  0  0  0  0  0  0  0
  187.8590  177.3200  144.3910 C   0  0  0  0  0  0  0  0  0  0  0  0
  183.6790  178.4280  143.2920 N   0  0  0  0  0  2  0  0  0  0  0  0
  190.3030  174.0590  142.3430 C   0  0  2  0  0  3  0  0  0  0  0  0
  184.6720  178.3350  142.2760 C   0  0  0  0  0  3  0  0  0  0  0  0
  188.4250  176.0910  146.5100 C   0  0  0  0  0  3  0  0  0  0  0  0
  188.7400  176.4160  145.1780 C   0  0  0  0  0  0  0  0  0  0  0  0
  186.7210  177.7950  144.9400 C   0  0  0  0  0  3  0  0  0  0  0  0
  188.2750  175.4350  141.9430 C   0  0  0  0  0  2  0  0  0  0  0  0
  187.2580  178.2910  140.8610 O   0  0  0  0  0  0  0  0  0  0  0  0
  183.8680  178.7470  145.6180 O   0  0  0  0  0  0  0  0  0  0  0  0
  188.2980  177.7510  142.9850 C   0  0  1  0  0  3  0  0  0  0  0  0
  185.8660  178.8110  144.2370 C   0  0  1  0  0  3  0  0  0  0  0  0
  188.2980  173.0770  141.1670 C   0  0  0  0  0  2  0  0  0  0  0  0
  188.5470  174.1700  138.6880 S   0  0  0  0  0  1  0  0  0  0  0  0
  188.2000  172.6990  139.6970 C   0  0  1  0  0  3  0  0  0  0  0  0
  189.2040  171.6060  139.3680 C   0  0  0  0  0  2  0  0  0  0  0  0
  189.5330  171.6120  137.8880 C   0  0  0  0  0  2  0  0  0  0  0  0
  190.8980  170.9930  137.6730 C   0  0  0  0  0  3  0  0  0  0  0  0
  190.9420  169.6410  138.3510 C   0  0  0  0  0  2  0  0  0  0  0  0
  190.7510  169.7280  136.8510 C   0  0  0  0  0  2  0  0  0  0  0  0
  1 20  1  1  0  0  0
  1 23  1  0  0  0  0
  1 11  1  0  0  0  0
  2  3  1  0  0  0  0
  4  5  1  0  0  0  0
  5 24  1  0  0  0  0
  6 25  1  1  0  0  0
  6 20  1  0  0  0  0
  6 15  1  0  0  0  0
  8 22  2  0  0  0  0
 10  2  2  0  0  0  0
 11  7  1  6  0  0  0
 11 12  1  0  0  0  0
 12 18  2  0  0  0  0
 12 10  1  0  0  0  0
 13 19  2  0  0  0  0
 13 18  1  0  0  0  0
 14  8  1  0  0  0  0
 15  9  1  6  0  0  0
 15  7  1  0  0  0  0
 16  5  2  0  0  0  0
 16 14  1  0  0  0  0
 17  3  2  0  0  0  0
 18 17  1  0  0  0  0
 21  4  2  0  0  0  0
 23  4  1  6  0  0  0
 23 13  1  0  0  0  0
 24  8  1  0  0  0  0
 24 19  1  1  0  0  0
 27 26  1  6  0  0  0
 27 25  1  0  0  0  0
 28 27  1  0  0  0  0
 29 28  1  0  0  0  0
 30 29  1  0  0  0  0
 30 31  1  0  0  0  0
 32 30  1  0  0  0  0
 32 31  1  0  0  0  0
M  END
>  <MODEL>
6

>  <REMARK>
 VINA RESULT:      -6.6      2.271      3.315
  Name = 
  5 active torsions:
  status: ('A' for Active; 'I' for Inactive)
    1  A    between atoms: C_1  and  C_10
    2  A    between atoms: C_8  and  C_23
    3  A    between atoms: C_10  and  C_24
    4  A    between atoms: C_19  and  C_23
    5  A    between atoms: C_19  and  C_24
                            x       y       z     vdW  Elec       q    Type
                         _______ _______ _______ _____ _____    ______ ____

>  <TORSDO>
F 5

$$$$
=
 OpenBabel11052421263D

 32 37  0  0  1  0  0  0  0  0999 V2000
  189.7320  174.1470  143.7630 C   0  0  1  0  0  3  0  0  0  0  0  0
  194.2840  175.9380  144.6210 C   0  0  0  0  0  3  0  0  0  0  0  0
  194.6030  175.7720  143.2730 C   0  0  0  0  0  3  0  0  0  0  0  0
  189.1740  173.0970  141.5390 C   0  0  0  0  0  0  0  0  0  0  0  0
  189.5700  173.1080  140.1340 C   0  0  0  0  0  0  0  0  0  0  0  0
  188.7870  176.3350  144.5350 C   0  0  2  0  0  3  0  0  0  0  0  0
  190.3520  175.0910  145.9270 O   0  0  0  0  0  0  0  0  0  0  0  0
  190.9460  173.4660  138.3770 C   0  0  0  0  0  0  0  0  0  0  0  0
  189.6290  177.2110  146.7380 C   0  0  0  0  0  1  0  0  0  0  0  0
  193.0620  175.4770  145.1120 C   0  0  0  0  0  3  0  0  0  0  0  0
  190.8290  174.3400  144.8230 C   0  0  2  0  0  3  0  0  0  0  0  0
  192.1380  174.8570  144.2570 C   0  0  0  0  0  0  0  0  0  0  0  0
  191.5340  173.9360  141.9920 C   0  0  0  0  0  0  0  0  0  0  0  0
  189.6220  173.7730  137.9640 N   0  0  0  0  0  2  0  0  0  0  0  0
  189.9760  176.3900  145.5080 C   0  0  2  0  0  3  0  0  0  0  0  0
  188.8290  173.5640  139.1280 C   0  0  0  0  0  3  0  0  0  0  0  0
  193.7040  175.1320  142.4180 C   0  0  0  0  0  3  0  0  0  0  0  0
  192.4700  174.6570  142.8970 C   0  0  0  0  0  0  0  0  0  0  0  0
  191.8460  173.7790  140.6890 C   0  0  0  0  0  3  0  0  0  0  0  0
  189.1920  175.5060  143.3240 C   0  0  0  0  0  2  0  0  0  0  0  0
  187.9720  172.9060  141.8710 O   0  0  0  0  0  0  0  0  0  0  0  0
  191.9420  173.5710  137.6140 O   0  0  0  0  0  0  0  0  0  0  0  0
  190.2540  173.3230  142.5780 C   0  0  1  0  0  3  0  0  0  0  0  0
  190.9990  172.9490  139.7660 C   0  0  1  0  0  3  0  0  0  0  0  0
  188.4000  177.7370  144.0700 C   0  0  0  0  0  2  0  0  0  0  0  0
  186.3770  178.3120  142.3430 S   0  0  0  0  0  1  0  0  0  0  0  0
  186.8890  177.9140  144.0410 C   0  0  1  0  0  3  0  0  0  0  0  0
  186.2010  176.6370  144.4950 C   0  0  0  0  0  2  0  0  0  0  0  0
  185.5210  176.8450  145.8350 C   0  0  0  0  0  2  0  0  0  0  0  0
  185.7820  178.2570  146.3160 C   0  0  0  0  0  3  0  0  0  0  0  0
  184.6850  178.6640  147.2760 C   0  0  0  0  0  2  0  0  0  0  0  0
  186.0370  178.2380  147.8100 C   0  0  0  0  0  2  0  0  0  0  0  0
  1 20  1  6  0  0  0
  1 11  1  0  0  0  0
  2 10  1  0  0  0  0
  3  2  2  0  0  0  0
  4 21  2  0  0  0  0
  5  4  1  0  0  0  0
  6 25  1  6  0  0  0
  6 15  1  0  0  0  0
  8 24  1  0  0  0  0
 11 12  1  6  0  0  0
 11  7  1  0  0  0  0
 12 10  2  0  0  0  0
 13 23  1  0  0  0  0
 13 18  1  0  0  0  0
 14  8  1  0  0  0  0
 14 16  1  0  0  0  0
 15  7  1  0  0  0  0
 15  9  1  1  0  0  0
 16  5  2  0  0  0  0
 17 18  2  0  0  0  0
 17  3  1  0  0  0  0
 18 12  1  0  0  0  0
 19 13  2  0  0  0  0
 20  6  1  0  0  0  0
 22  8  2  0  0  0  0
 23  4  1  6  0  0  0
 23  1  1  0  0  0  0
 24  5  1  0  0  0  0
 24 19  1  1  0  0  0
 27 26  1  6  0  0  0
 27 25  1  0  0  0  0
 27 28  1  0  0  0  0
 28 29  1  0  0  0  0
 29 30  1  0  0  0  0
 30 31  1  0  0  0  0
 30 32  1  0  0  0  0
 31 32  1  0  0  0  0
M  END
>  <MODEL>
7

>  <REMARK>
 VINA RESULT:      -6.5      2.924      5.996
  Name = 
  5 active torsions:
  status: ('A' for Active; 'I' for Inactive)
    1  A    between atoms: C_1  and  C_10
    2  A    between atoms: C_8  and  C_23
    3  A    between atoms: C_10  and  C_24
    4  A    between atoms: C_19  and  C_23
    5  A    between atoms: C_19  and  C_24
                            x       y       z     vdW  Elec       q    Type
                         _______ _______ _______ _____ _____    ______ ____

>  <TORSDO>
F 5

$$$$
=
 OpenBabel11052421263D

 32 37  0  0  1  0  0  0  0  0999 V2000
  190.4320  174.2430  145.5930 C   0  0  1  0  0  3  0  0  0  0  0  0
  194.5230  177.0360  145.9630 C   0  0  0  0  0  3  0  0  0  0  0  0
  194.9420  176.5870  144.7100 C   0  0  0  0  0  3  0  0  0  0  0  0
  190.2030  172.5590  143.7290 C   0  0  0  0  0  0  0  0  0  0  0  0
  190.6690  172.2770  142.3750 C   0  0  0  0  0  0  0  0  0  0  0  0
  189.0600  176.3340  145.7440 C   0  0  2  0  0  3  0  0  0  0  0  0
  190.7450  175.8230  147.4270 O   0  0  0  0  0  0  0  0  0  0  0  0
  192.0530  172.4190  140.5930 C   0  0  0  0  0  0  0  0  0  0  0  0
  189.6000  177.9020  147.6360 C   0  0  0  0  0  1  0  0  0  0  0  0
  193.3800  176.4940  146.5520 C   0  0  0  0  0  3  0  0  0  0  0  0
  191.4140  174.9150  146.5680 C   0  0  2  0  0  3  0  0  0  0  0  0
  192.6360  175.5060  145.8910 C   0  0  0  0  0  0  0  0  0  0  0  0
  192.3400  173.9250  143.9530 C   0  0  0  0  0  0  0  0  0  0  0  0
  190.7210  172.3470  140.1070 N   0  0  0  0  0  2  0  0  0  0  0  0
  190.1620  176.8690  146.6730 C   0  0  2  0  0  3  0  0  0  0  0  0
  189.9150  172.3020  141.2800 C   0  0  0  0  0  3  0  0  0  0  0  0
  194.2250  175.5850  144.0530 C   0  0  0  0  0  3  0  0  0  0  0  0
  193.0750  175.0240  144.6360 C   0  0  0  0  0  0  0  0  0  0  0  0
  192.7490  173.4940  142.7410 C   0  0  0  0  0  3  0  0  0  0  0  0
  189.6780  175.3090  144.8020 C   0  0  0  0  0  2  0  0  0  0  0  0
  189.0400  172.2350  144.0940 O   0  0  0  0  0  0  0  0  0  0  0  0
  193.0550  172.5100  139.8360 O   0  0  0  0  0  0  0  0  0  0  0  0
  191.1630  173.2540  144.6750 C   0  0  1  0  0  3  0  0  0  0  0  0
  192.1220  172.3050  142.0700 C   0  0  1  0  0  3  0  0  0  0  0  0
  188.4490  177.4630  144.9190 C   0  0  0  0  0  2  0  0  0  0  0  0
  186.1120  177.1130  146.2690 S   0  0  0  0  0  1  0  0  0  0  0  0
  186.9660  177.2280  144.6680 C   0  0  1  0  0  3  0  0  0  0  0  0
  186.3820  178.3750  143.8590 C   0  0  0  0  0  2  0  0  0  0  0  0
  185.9380  177.8900  142.4920 C   0  0  0  0  0  2  0  0  0  0  0  0
  187.0990  177.9830  141.5240 C   0  0  0  0  0  3  0  0  0  0  0  0
  187.4410  176.5970  141.0240 C   0  0  0  0  0  2  0  0  0  0  0  0
  186.6420  177.5400  140.1490 C   0  0  0  0  0  2  0  0  0  0  0  0
  1 20  1  6  0  0  0
  1 11  1  0  0  0  0
  2 10  1  0  0  0  0
  3  2  2  0  0  0  0
  4 21  2  0  0  0  0
  5  4  1  0  0  0  0
  6 25  1  6  0  0  0
  6 15  1  0  0  0  0
  8 24  1  0  0  0  0
 11 12  1  6  0  0  0
 11  7  1  0  0  0  0
 12 10  2  0  0  0  0
 13 18  1  0  0  0  0
 13 23  1  0  0  0  0
 14  8  1  0  0  0  0
 14 16  1  0  0  0  0
 15  7  1  0  0  0  0
 15  9  1  1  0  0  0
 16  5  2  0  0  0  0
 17 18  2  0  0  0  0
 17  3  1  0  0  0  0
 18 12  1  0  0  0  0
 19 13  2  0  0  0  0
 20  6  1  0  0  0  0
 22  8  2  0  0  0  0
 23  4  1  6  0  0  0
 23  1  1  0  0  0  0
 24  5  1  0  0  0  0
 24 19  1  1  0  0  0
 27 25  1  0  0  0  0
 27 26  1  1  0  0  0
 28 27  1  0  0  0  0
 29 28  1  0  0  0  0
 30 29  1  0  0  0  0
 31 30  1  0  0  0  0
 32 31  1  0  0  0  0
 32 30  1  0  0  0  0
M  END
>  <MODEL>
8

>  <REMARK>
 VINA RESULT:      -6.3      3.102      6.108
  Name = 
  5 active torsions:
  status: ('A' for Active; 'I' for Inactive)
    1  A    between atoms: C_1  and  C_10
    2  A    between atoms: C_8  and  C_23
    3  A    between atoms: C_10  and  C_24
    4  A    between atoms: C_19  and  C_23
    5  A    between atoms: C_19  and  C_24
                            x       y       z     vdW  Elec       q    Type
                         _______ _______ _______ _____ _____    ______ ____

>  <TORSDO>
F 5

$$$$
=
 OpenBabel11052421263D

 32 37  0  0  1  0  0  0  0  0999 V2000
  190.4300  173.6820  144.2050 C   0  0  1  0  0  3  0  0  0  0  0  0
  194.7430  176.1360  143.9930 C   0  0  0  0  0  3  0  0  0  0  0  0
  194.7030  176.0850  142.5990 C   0  0  0  0  0  3  0  0  0  0  0  0
  189.4430  172.6580  142.1220 C   0  0  0  0  0  0  0  0  0  0  0  0
  189.4360  172.7960  140.6680 C   0  0  0  0  0  0  0  0  0  0  0  0
  189.4310  175.6530  145.3840 C   0  0  2  0  0  3  0  0  0  0  0  0
  191.4750  174.6130  146.2040 O   0  0  0  0  0  0  0  0  0  0  0  0
  190.2180  173.4480  138.6500 C   0  0  0  0  0  0  0  0  0  0  0  0
  190.7070  176.5510  147.3570 C   0  0  0  0  0  1  0  0  0  0  0  0
  193.7780  175.4640  144.7440 C   0  0  0  0  0  3  0  0  0  0  0  0
  191.7360  173.9990  144.9530 C   0  0  2  0  0  3  0  0  0  0  0  0
  192.7540  174.7440  144.1110 C   0  0  0  0  0  0  0  0  0  0  0  0
  191.6940  173.8420  142.0120 C   0  0  0  0  0  0  0  0  0  0  0  0
  188.8020  173.5590  138.6270 N   0  0  0  0  0  2  0  0  0  0  0  0
  190.8200  175.8530  146.0120 C   0  0  2  0  0  3  0  0  0  0  0  0
  188.3930  173.1720  139.9350 C   0  0  0  0  0  3  0  0  0  0  0  0
  193.7050  175.3490  141.9570 C   0  0  0  0  0  3  0  0  0  0  0  0
  192.7280  174.6610  142.6990 C   0  0  0  0  0  0  0  0  0  0  0  0
  191.6590  173.7960  140.6640 C   0  0  0  0  0  3  0  0  0  0  0  0
  189.6040  174.9550  144.0410 C   0  0  0  0  0  2  0  0  0  0  0  0
  188.4170  172.2620  142.7390 O   0  0  0  0  0  0  0  0  0  0  0  0
  190.9430  173.7460  137.6650 O   0  0  0  0  0  0  0  0  0  0  0  0
  190.7220  173.0070  142.8570 C   0  0  1  0  0  3  0  0  0  0  0  0
  190.7190  172.8850  139.9270 C   0  0  1  0  0  3  0  0  0  0  0  0
  188.7370  176.9950  145.1600 C   0  0  0  0  0  2  0  0  0  0  0  0
  186.8940  177.4860  147.1010 S   0  0  0  0  0  1  0  0  0  0  0  0
  187.2410  176.8960  145.4170 C   0  0  1  0  0  3  0  0  0  0  0  0
  186.4780  177.7430  144.4110 C   0  0  0  0  0  2  0  0  0  0  0  0
  187.2170  177.7930  143.0880 C   0  0  0  0  0  2  0  0  0  0  0  0
  186.6200  176.7740  142.1400 C   0  0  0  0  0  3  0  0  0  0  0  0
  186.3350  177.4390  140.8110 C   0  0  0  0  0  2  0  0  0  0  0  0
  187.5610  176.5650  140.9710 C   0  0  0  0  0  2  0  0  0  0  0  0
  1 20  1  6  0  0  0
  1 11  1  0  0  0  0
  2 10  1  0  0  0  0
  3  2  2  0  0  0  0
  4 21  2  0  0  0  0
  4 23  1  0  0  0  0
  5  4  1  0  0  0  0
  6 25  1  6  0  0  0
  6 15  1  0  0  0  0
  8 24  1  0  0  0  0
 11 12  1  6  0  0  0
 11  7  1  0  0  0  0
 12 10  2  0  0  0  0
 13 18  1  0  0  0  0
 14  8  1  0  0  0  0
 14 16  1  0  0  0  0
 15  7  1  0  0  0  0
 15  9  1  1  0  0  0
 16  5  2  0  0  0  0
 17  3  1  0  0  0  0
 17 18  2  0  0  0  0
 18 12  1  0  0  0  0
 19 13  2  0  0  0  0
 20  6  1  0  0  0  0
 22  8  2  0  0  0  0
 23 13  1  6  0  0  0
 23  1  1  0  0  0  0
 24 19  1  1  0  0  0
 24  5  1  0  0  0  0
 25 27  1  0  0  0  0
 27 26  1  1  0  0  0
 28 27  1  0  0  0  0
 29 28  1  0  0  0  0
 30 29  1  0  0  0  0
 31 32  1  0  0  0  0
 31 30  1  0  0  0  0
 32 30  1  0  0  0  0
M  END
>  <MODEL>
9

>  <REMARK>
 VINA RESULT:      -6.2      2.992      5.925
  Name = 
  5 active torsions:
  status: ('A' for Active; 'I' for Inactive)
    1  A    between atoms: C_1  and  C_10
    2  A    between atoms: C_8  and  C_23
    3  A    between atoms: C_10  and  C_24
    4  A    between atoms: C_19  and  C_23
    5  A    between atoms: C_19  and  C_24
                            x       y       z     vdW  Elec       q    Type
                         _______ _______ _______ _____ _____    ______ ____

>  <TORSDO>
F 5

$$$$
