=
 OpenBabel11052421053D

 43 48  0  0  1  0  0  0  0  0999 V2000
  192.0540  172.0140  140.7460 C   0  0  0  0  0  0  0  0  0  0  0  0
  192.8540  175.6370  144.1220 C   0  0  0  0  0  0  0  0  0  0  0  0
  192.6330  174.1080  141.8150 C   0  0  0  0  0  0  0  0  0  0  0  0
  191.7030  171.4680  141.9880 C   0  0  0  0  0  3  0  0  0  0  0  0
  191.9080  171.0440  139.2980 Cl  0  0  0  0  0  0  0  0  0  0  0  0
  192.2780  173.5520  143.0730 C   0  0  0  0  0  0  0  0  0  0  0  0
  192.5170  173.3300  140.6600 C   0  0  0  0  0  3  0  0  0  0  0  0
  191.8130  172.2360  143.1530 C   0  0  0  0  0  3  0  0  0  0  0  0
  192.0880  174.0450  145.5350 N   0  0  0  0  0  2  0  0  0  0  0  0
  192.4080  174.3620  144.2010 C   0  0  0  0  0  0  0  0  0  0  0  0
  193.2020  176.2200  142.9010 C   0  0  0  0  0  3  0  0  0  0  0  0
  192.8320  176.2240  145.4910 C   0  0  1  0  0  3  0  0  0  0  0  0
  192.3230  175.1520  146.3770 N   0  0  0  0  0  0  0  0  0  0  0  0
  193.0920  175.4380  141.7380 C   0  0  0  0  0  3  0  0  0  0  0  0
  194.2390  176.6110  145.9150 C   0  0  0  0  0  2  0  0  0  0  0  0
  194.9540  175.4530  146.3240 O   0  0  0  0  0  0  0  0  0  0  0  0
  196.7020  174.7630  143.1450 C   0  0  0  0  0  3  0  0  0  0  0  0
  196.3600  172.2860  144.8850 C   0  0  0  0  0  3  0  0  0  0  0  0
  196.6140  172.3390  143.5780 C   0  0  0  0  0  3  0  0  0  0  0  0
  196.4510  175.2940  144.3410 C   0  0  0  0  0  3  0  0  0  0  0  0
  195.6710  174.6540  145.4310 C   0  0  0  0  0  0  0  0  0  0  0  0
  196.1460  173.4520  142.7030 C   0  0  0  0  0  2  0  0  0  0  0  0
  195.6700  173.3330  145.6650 C   0  0  0  0  0  3  0  0  0  0  0  0
  191.0220  175.5940  146.8730 C   0  0  0  0  0  2  0  0  0  0  0  0
  190.5510  176.9240  146.2670 C   0  0  1  0  0  3  0  0  0  0  0  0
  189.3270  176.6600  145.4030 C   0  0  1  0  0  3  0  0  0  0  0  0
  189.1710  177.3900  146.7200 C   0  0  0  0  0  2  0  0  0  0  0  0
  189.2210  177.6110  144.1940 C   0  0  1  0  0  3  0  0  0  0  0  0
  190.4430  178.2240  143.8780 O   0  0  0  0  0  1  0  0  0  0  0  0
  188.6340  177.8240  141.8760 O   0  0  0  0  0  1  0  0  0  0  0  0
  188.6250  176.9230  142.9500 C   0  0  1  0  0  0  0  0  0  0  0  0
  189.4250  175.6470  142.6080 C   0  0  0  0  0  2  0  0  0  0  0  0
  188.5240  173.4400  141.8570 C   0  0  0  0  0  1  0  0  0  0  0  0
  188.8810  174.8490  141.4270 C   0  0  0  0  0  2  0  0  0  0  0  0
  187.2410  176.5420  143.2640 N   0  0  0  0  0  2  0  0  0  0  0  0
  186.3320  177.6770  143.0970 C   0  0  1  0  0  3  0  0  0  0  0  0
  185.4710  177.4210  142.0290 O   0  0  0  0  0  1  0  0  0  0  0  0
  185.5270  177.8950  144.3770 C   0  0  0  0  0  3  0  0  0  0  0  0
  185.6420  179.2920  146.5360 C   0  0  0  0  0  2  0  0  0  0  0  0
  184.8630  176.8950  146.6100 C   0  0  0  0  0  2  0  0  0  0  0  0
  184.5100  178.3520  146.9410 C   0  0  0  0  0  2  0  0  0  0  0  0
  185.7470  176.7460  145.3640 C   0  0  0  0  0  2  0  0  0  0  0  0
  185.8920  179.2450  145.0220 C   0  0  0  0  0  2  0  0  0  0  0  0
  1  4  1  0  0  0  0
  2 10  1  0  0  0  0
  2 12  1  0  0  0  0
  3  6  1  0  0  0  0
  4  8  2  0  0  0  0
  5  1  1  0  0  0  0
  6  8  1  0  0  0  0
  6 10  2  0  0  0  0
  7  1  2  0  0  0  0
  7  3  1  0  0  0  0
  9 13  1  0  0  0  0
 10  9  1  0  0  0  0
 11  2  2  0  0  0  0
 12 15  1  1  0  0  0
 12 13  1  0  0  0  0
 13 24  1  0  0  0  0
 14  3  2  0  0  0  0
 14 11  1  0  0  0  0
 15 16  1  0  0  0  0
 17 20  2  0  0  0  0
 18 23  1  0  0  0  0
 19 18  2  0  0  0  0
 20 21  1  0  0  0  0
 21 23  2  0  0  0  0
 21 16  1  0  0  0  0
 22 17  1  0  0  0  0
 22 19  1  0  0  0  0
 25 27  1  0  0  0  0
 25 24  1  1  0  0  0
 26 28  1  6  0  0  0
 26 25  1  0  0  0  0
 26 27  1  0  0  0  0
 28 29  1  6  0  0  0
 31 30  1  6  0  0  0
 31 35  1  0  0  0  0
 31 28  1  0  0  0  0
 32 31  1  0  0  0  0
 34 33  1  0  0  0  0
 34 32  1  0  0  0  0
 36 37  1  6  0  0  0
 36 35  1  0  0  0  0
 36 38  1  0  0  0  0
 38 43  1  0  0  0  0
 38 42  1  0  0  0  0
 39 41  1  0  0  0  0
 40 41  1  0  0  0  0
 42 40  1  0  0  0  0
 43 39  1  0  0  0  0
M  END
>  <MODEL>
1

>  <REMARK>
 VINA RESULT:      -7.4      0.000      0.000
  Name = 
  12 active torsions:
  status: ('A' for Active; 'I' for Inactive)
    1  A    between atoms: C_1  and  O_28
    2  A    between atoms: C_1  and  C_34
    3  A    between atoms: C_2  and  C_13
    4  A    between atoms: C_4  and  C_12
    5  A    between atoms: C_4  and  C_15
    6  A    between atoms: C_4  and  N_22
    7  A    between atoms: C_6  and  C_12
    8  A    between atoms: C_11  and  C_14
    9  A    between atoms: C_13  and  N_38
   10  A    between atoms: C_14  and  N_22
   11  A    between atoms: C_15  and  C_42
   12  A    between atoms: O_28  and  C_35
                            x       y       z     vdW  Elec       q    Type
                         _______ _______ _______ _____ _____    ______ ____

>  <TORSDO>
F 12

$$$$
=
 OpenBabel11052421053D

 43 48  0  0  1  0  0  0  0  0999 V2000
  190.9870  176.6840  147.7450 C   0  0  0  0  0  0  0  0  0  0  0  0
  189.3160  176.2250  143.0370 C   0  0  0  0  0  0  0  0  0  0  0  0
  190.3380  177.1290  145.4550 C   0  0  0  0  0  0  0  0  0  0  0  0
  190.6100  175.3420  147.5990 C   0  0  0  0  0  3  0  0  0  0  0  0
  191.6330  177.2440  149.2710 Cl  0  0  0  0  0  0  0  0  0  0  0  0
  189.9540  175.7700  145.3100 C   0  0  0  0  0  0  0  0  0  0  0  0
  190.8520  177.5750  146.6750 C   0  0  0  0  0  3  0  0  0  0  0  0
  190.0940  174.8830  146.3820 C   0  0  0  0  0  3  0  0  0  0  0  0
  189.0380  174.0760  143.6880 N   0  0  0  0  0  2  0  0  0  0  0  0
  189.4470  175.3660  144.0750 C   0  0  0  0  0  0  0  0  0  0  0  0
  189.6920  177.5660  143.1400 C   0  0  0  0  0  3  0  0  0  0  0  0
  188.7870  175.4660  141.8690 C   0  0  1  0  0  3  0  0  0  0  0  0
  188.6250  174.0710  142.3390 N   0  0  0  0  0  0  0  0  0  0  0  0
  190.2050  178.0180  144.3690 C   0  0  0  0  0  3  0  0  0  0  0  0
  187.4360  176.0250  141.4530 C   0  0  0  0  0  2  0  0  0  0  0  0
  186.5130  175.9000  142.5260 O   0  0  0  0  0  0  0  0  0  0  0  0
  185.3580  177.3900  145.7020 C   0  0  0  0  0  3  0  0  0  0  0  0
  185.7050  179.4390  143.4750 C   0  0  0  0  0  3  0  0  0  0  0  0
  184.9960  179.5610  144.5960 C   0  0  0  0  0  3  0  0  0  0  0  0
  186.1380  176.7380  144.8410 C   0  0  0  0  0  3  0  0  0  0  0  0
  186.1930  176.9630  143.3740 C   0  0  0  0  0  0  0  0  0  0  0  0
  184.3500  178.4040  145.2810 C   0  0  0  0  0  2  0  0  0  0  0  0
  186.0270  178.1650  142.8010 C   0  0  0  0  0  3  0  0  0  0  0  0
  189.5900  173.2600  141.6010 C   0  0  0  0  0  2  0  0  0  0  0  0
  190.7890  174.0590  141.0710 C   0  0  1  0  0  3  0  0  0  0  0  0
  192.0560  173.5340  141.7290 C   0  0  1  0  0  3  0  0  0  0  0  0
  191.8000  173.2510  140.2630 C   0  0  0  0  0  2  0  0  0  0  0  0
  193.1290  174.6220  141.9340 C   0  0  1  0  0  3  0  0  0  0  0  0
  192.5930  175.9180  141.9370 O   0  0  0  0  0  1  0  0  0  0  0  0
  195.2940  174.8000  142.9570 O   0  0  0  0  0  1  0  0  0  0  0  0
  193.9770  174.3850  143.2000 C   0  0  1  0  0  0  0  0  0  0  0  0
  193.3710  175.1440  144.4000 C   0  0  0  0  0  2  0  0  0  0  0  0
  194.3570  176.1130  146.4820 C   0  0  0  0  0  1  0  0  0  0  0  0
  194.2600  176.2430  144.9750 C   0  0  0  0  0  2  0  0  0  0  0  0
  193.9580  172.9460  143.4930 N   0  0  0  0  0  2  0  0  0  0  0  0
  193.4370  172.6890  144.8360 C   0  0  1  0  0  3  0  0  0  0  0  0
  192.1880  172.0710  144.7320 O   0  0  0  0  0  1  0  0  0  0  0  0
  194.4010  171.7910  145.6090 C   0  0  0  0  0  3  0  0  0  0  0  0
  196.9320  171.3680  145.8090 C   0  0  0  0  0  2  0  0  0  0  0  0
  195.3100  169.4370  145.8480 C   0  0  0  0  0  2  0  0  0  0  0  0
  196.4420  170.1560  146.5960 C   0  0  0  0  0  2  0  0  0  0  0  0
  194.4290  170.3800  145.0170 C   0  0  0  0  0  2  0  0  0  0  0  0
  195.8130  172.4030  145.6260 C   0  0  0  0  0  2  0  0  0  0  0  0
  1  5  1  0  0  0  0
  2 11  2  0  0  0  0
  2 10  1  0  0  0  0
  3  7  1  0  0  0  0
  4  1  1  0  0  0  0
  6  3  1  0  0  0  0
  6  8  1  0  0  0  0
  7  1  2  0  0  0  0
  8  4  2  0  0  0  0
  9 10  1  0  0  0  0
 10  6  2  0  0  0  0
 11 14  1  0  0  0  0
 12 15  1  1  0  0  0
 12 13  1  0  0  0  0
 12  2  1  0  0  0  0
 13  9  1  0  0  0  0
 14  3  2  0  0  0  0
 15 16  1  0  0  0  0
 16 21  1  0  0  0  0
 18 19  2  0  0  0  0
 19 22  1  0  0  0  0
 20 17  2  0  0  0  0
 21 20  1  0  0  0  0
 22 17  1  0  0  0  0
 23 21  2  0  0  0  0
 23 18  1  0  0  0  0
 24 13  1  0  0  0  0
 25 24  1  1  0  0  0
 25 26  1  0  0  0  0
 26 28  1  6  0  0  0
 27 25  1  0  0  0  0
 27 26  1  0  0  0  0
 28 29  1  1  0  0  0
 28 31  1  0  0  0  0
 31 30  1  6  0  0  0
 31 35  1  0  0  0  0
 31 32  1  0  0  0  0
 32 34  1  0  0  0  0
 34 33  1  0  0  0  0
 35 36  1  0  0  0  0
 36 37  1  6  0  0  0
 36 38  1  0  0  0  0
 38 43  1  0  0  0  0
 39 41  1  0  0  0  0
 40 41  1  0  0  0  0
 42 38  1  0  0  0  0
 42 40  1  0  0  0  0
 43 39  1  0  0  0  0
M  END
>  <MODEL>
2

>  <REMARK>
 VINA RESULT:      -7.0      2.593      8.696
  Name = 
  12 active torsions:
  status: ('A' for Active; 'I' for Inactive)
    1  A    between atoms: C_1  and  O_28
    2  A    between atoms: C_1  and  C_34
    3  A    between atoms: C_2  and  C_13
    4  A    between atoms: C_4  and  C_12
    5  A    between atoms: C_4  and  C_15
    6  A    between atoms: C_4  and  N_22
    7  A    between atoms: C_6  and  C_12
    8  A    between atoms: C_11  and  C_14
    9  A    between atoms: C_13  and  N_38
   10  A    between atoms: C_14  and  N_22
   11  A    between atoms: C_15  and  C_42
   12  A    between atoms: O_28  and  C_35
                            x       y       z     vdW  Elec       q    Type
                         _______ _______ _______ _____ _____    ______ ____

>  <TORSDO>
F 12

$$$$
=
 OpenBabel11052421053D

 43 48  0  0  1  0  0  0  0  0999 V2000
  186.0690  177.3450  146.0450 C   0  0  0  0  0  0  0  0  0  0  0  0
  190.9060  176.0750  145.6560 C   0  0  0  0  0  0  0  0  0  0  0  0
  188.2200  176.2700  146.3280 C   0  0  0  0  0  0  0  0  0  0  0  0
  186.6200  178.2150  145.0940 C   0  0  0  0  0  3  0  0  0  0  0  0
  184.3740  177.4730  146.4600 Cl  0  0  0  0  0  0  0  0  0  0  0  0
  188.7770  177.1530  145.3670 C   0  0  0  0  0  0  0  0  0  0  0  0
  186.8660  176.3750  146.6590 C   0  0  0  0  0  3  0  0  0  0  0  0
  187.9740  178.1200  144.7530 C   0  0  0  0  0  3  0  0  0  0  0  0
  190.8880  177.7450  144.1280 N   0  0  0  0  0  2  0  0  0  0  0  0
  190.1310  177.0140  145.0640 C   0  0  0  0  0  0  0  0  0  0  0  0
  190.3900  175.1830  146.5980 C   0  0  0  0  0  3  0  0  0  0  0  0
  192.2770  176.1730  145.0810 C   0  0  1  0  0  3  0  0  0  0  0  0
  192.2160  177.2710  144.0880 N   0  0  0  0  0  0  0  0  0  0  0  0
  189.0290  175.2900  146.9370 C   0  0  0  0  0  3  0  0  0  0  0  0
  193.2760  176.5250  146.1700 C   0  0  0  0  0  2  0  0  0  0  0  0
  194.5460  176.7910  145.5900 O   0  0  0  0  0  0  0  0  0  0  0  0
  196.5320  174.9170  143.1030 C   0  0  0  0  0  3  0  0  0  0  0  0
  196.4690  173.5790  145.8390 C   0  0  0  0  0  3  0  0  0  0  0  0
  196.7770  173.0280  144.6660 C   0  0  0  0  0  3  0  0  0  0  0  0
  196.1470  175.9170  143.8950 C   0  0  0  0  0  3  0  0  0  0  0  0
  195.4150  175.7780  145.1800 C   0  0  0  0  0  0  0  0  0  0  0  0
  196.1950  173.4900  143.3730 C   0  0  0  0  0  2  0  0  0  0  0  0
  195.5960  174.7540  146.0290 C   0  0  0  0  0  3  0  0  0  0  0  0
  192.4130  176.6660  142.7730 C   0  0  0  0  0  2  0  0  0  0  0  0
  192.6860  175.1550  142.8250 C   0  0  1  0  0  3  0  0  0  0  0  0
  191.6580  174.4440  141.9580 C   0  0  1  0  0  3  0  0  0  0  0  0
  193.0990  174.5260  141.4980 C   0  0  0  0  0  2  0  0  0  0  0  0
  191.2930  173.0400  142.4800 C   0  0  1  0  0  3  0  0  0  0  0  0
  191.9210  172.7340  143.6970 O   0  0  0  0  0  1  0  0  0  0  0  0
  189.5160  171.7490  143.4490 O   0  0  0  0  0  1  0  0  0  0  0  0
  189.7700  172.8270  142.5900 C   0  0  1  0  0  0  0  0  0  0  0  0
  189.0850  174.1140  143.1000 C   0  0  0  0  0  2  0  0  0  0  0  0
  188.2760  176.0200  141.7000 C   0  0  0  0  0  1  0  0  0  0  0  0
  187.9550  174.6300  142.2140 C   0  0  0  0  0  2  0  0  0  0  0  0
  189.2590  172.5210  141.2480 N   0  0  0  0  0  2  0  0  0  0  0  0
  190.3100  171.9580  140.3990 C   0  0  1  0  0  3  0  0  0  0  0  0
  190.2110  170.5650  140.4100 O   0  0  0  0  0  1  0  0  0  0  0  0
  190.1670  172.4810  138.9710 C   0  0  0  0  0  3  0  0  0  0  0  0
  191.4030  174.0340  137.3320 C   0  0  0  0  0  2  0  0  0  0  0  0
  188.8840  174.0570  137.4540 C   0  0  0  0  0  2  0  0  0  0  0  0
  190.1070  173.8680  136.5450 C   0  0  0  0  0  2  0  0  0  0  0  0
  189.1190  173.5950  138.8990 C   0  0  0  0  0  2  0  0  0  0  0  0
  191.5240  172.9750  138.4370 C   0  0  0  0  0  2  0  0  0  0  0  0
  1  5  1  0  0  0  0
  1  7  1  0  0  0  0
  2 11  1  0  0  0  0
  3  7  2  0  0  0  0
  3 14  1  0  0  0  0
  4  1  2  0  0  0  0
  6  3  1  0  0  0  0
  8  4  1  0  0  0  0
  8  6  2  0  0  0  0
  9 10  1  0  0  0  0
 10  6  1  0  0  0  0
 10  2  2  0  0  0  0
 11 14  2  0  0  0  0
 12  2  1  0  0  0  0
 12 15  1  1  0  0  0
 13  9  1  0  0  0  0
 13 12  1  0  0  0  0
 16 15  1  0  0  0  0
 17 22  1  0  0  0  0
 17 20  2  0  0  0  0
 18 23  1  0  0  0  0
 19 18  2  0  0  0  0
 20 21  1  0  0  0  0
 21 16  1  0  0  0  0
 21 23  2  0  0  0  0
 22 19  1  0  0  0  0
 24 13  1  0  0  0  0
 25 24  1  6  0  0  0
 26 28  1  1  0  0  0
 26 25  1  0  0  0  0
 27 26  1  0  0  0  0
 27 25  1  0  0  0  0
 28 31  1  0  0  0  0
 28 29  1  1  0  0  0
 31 32  1  0  0  0  0
 31 30  1  1  0  0  0
 33 34  1  0  0  0  0
 34 32  1  0  0  0  0
 35 31  1  0  0  0  0
 36 37  1  6  0  0  0
 36 35  1  0  0  0  0
 38 36  1  0  0  0  0
 39 43  1  0  0  0  0
 40 42  1  0  0  0  0
 41 39  1  0  0  0  0
 41 40  1  0  0  0  0
 42 38  1  0  0  0  0
 43 38  1  0  0  0  0
M  END
>  <MODEL>
3

>  <REMARK>
 VINA RESULT:      -6.9      3.175      6.320
  Name = 
  12 active torsions:
  status: ('A' for Active; 'I' for Inactive)
    1  A    between atoms: C_1  and  O_28
    2  A    between atoms: C_1  and  C_34
    3  A    between atoms: C_2  and  C_13
    4  A    between atoms: C_4  and  C_12
    5  A    between atoms: C_4  and  C_15
    6  A    between atoms: C_4  and  N_22
    7  A    between atoms: C_6  and  C_12
    8  A    between atoms: C_11  and  C_14
    9  A    between atoms: C_13  and  N_38
   10  A    between atoms: C_14  and  N_22
   11  A    between atoms: C_15  and  C_42
   12  A    between atoms: O_28  and  C_35
                            x       y       z     vdW  Elec       q    Type
                         _______ _______ _______ _____ _____    ______ ____

>  <TORSDO>
F 12

$$$$
=
 OpenBabel11052421053D

 43 48  0  0  1  0  0  0  0  0999 V2000
  185.7280  177.5880  146.4230 C   0  0  0  0  0  0  0  0  0  0  0  0
  190.4830  176.0980  145.8470 C   0  0  0  0  0  0  0  0  0  0  0  0
  187.8160  176.3710  146.5670 C   0  0  0  0  0  0  0  0  0  0  0  0
  186.3220  178.5210  145.5620 C   0  0  0  0  0  3  0  0  0  0  0  0
  184.0450  177.7660  146.8680 Cl  0  0  0  0  0  0  0  0  0  0  0  0
  188.4170  177.3170  145.6970 C   0  0  0  0  0  0  0  0  0  0  0  0
  186.4720  176.5160  146.9230 C   0  0  0  0  0  3  0  0  0  0  0  0
  187.6660  178.3860  145.1970 C   0  0  0  0  0  3  0  0  0  0  0  0
  190.5510  177.9170  144.5020 N   0  0  0  0  0  2  0  0  0  0  0  0
  189.7590  177.1360  145.3660 C   0  0  0  0  0  0  0  0  0  0  0  0
  189.9230  175.1420  146.6970 C   0  0  0  0  0  3  0  0  0  0  0  0
  191.8540  176.1790  145.2690 C   0  0  1  0  0  3  0  0  0  0  0  0
  191.8500  177.3770  144.3970 N   0  0  0  0  0  0  0  0  0  0  0  0
  188.5720  175.2890  147.0610 C   0  0  0  0  0  3  0  0  0  0  0  0
  192.8770  176.3590  146.3780 C   0  0  0  0  0  2  0  0  0  0  0  0
  193.8130  175.2900  146.3460 O   0  0  0  0  0  0  0  0  0  0  0  0
  196.1180  176.6890  143.8230 C   0  0  0  0  0  3  0  0  0  0  0  0
  197.1850  174.1610  145.1470 C   0  0  0  0  0  3  0  0  0  0  0  0
  197.5710  174.7070  143.9950 C   0  0  0  0  0  3  0  0  0  0  0  0
  195.3700  176.6130  144.9230 C   0  0  0  0  0  3  0  0  0  0  0  0
  195.0240  175.3670  145.6550 C   0  0  0  0  0  0  0  0  0  0  0  0
  196.6540  175.4900  143.1170 C   0  0  0  0  0  2  0  0  0  0  0  0
  195.8510  174.3160  145.7610 C   0  0  0  0  0  3  0  0  0  0  0  0
  192.0050  176.9020  143.0250 C   0  0  0  0  0  2  0  0  0  0  0  0
  192.5670  175.4770  142.9250 C   0  0  1  0  0  3  0  0  0  0  0  0
  191.9170  174.7780  141.7410 C   0  0  1  0  0  3  0  0  0  0  0  0
  193.3730  175.1850  141.6630 C   0  0  0  0  0  2  0  0  0  0  0  0
  191.7480  173.2600  141.9510 C   0  0  1  0  0  3  0  0  0  0  0  0
  192.1080  172.8480  143.2430 O   0  0  0  0  0  1  0  0  0  0  0  0
  190.0880  172.9810  140.2390 O   0  0  0  0  0  1  0  0  0  0  0  0
  190.3270  172.7700  141.6040 C   0  0  1  0  0  0  0  0  0  0  0  0
  190.1720  171.2770  141.9680 C   0  0  0  0  0  2  0  0  0  0  0  0
  191.0560  168.9640  141.6280 C   0  0  0  0  0  1  0  0  0  0  0  0
  190.8040  170.3080  140.9730 C   0  0  0  0  0  2  0  0  0  0  0  0
  189.3730  173.5520  142.4000 N   0  0  0  0  0  2  0  0  0  0  0  0
  188.1900  173.9000  141.6110 C   0  0  1  0  0  3  0  0  0  0  0  0
  187.1080  173.1300  142.0440 O   0  0  0  0  0  1  0  0  0  0  0  0
  187.8720  175.3850  141.7720 C   0  0  0  0  0  3  0  0  0  0  0  0
  185.9290  176.8890  142.5400 C   0  0  0  0  0  2  0  0  0  0  0  0
  187.3340  177.5400  140.5490 C   0  0  0  0  0  2  0  0  0  0  0  0
  186.8170  177.9690  141.9290 C   0  0  0  0  0  2  0  0  0  0  0  0
  187.5500  176.0260  140.4200 C   0  0  0  0  0  2  0  0  0  0  0  0
  186.7090  175.5850  142.7600 C   0  0  0  0  0  2  0  0  0  0  0  0
  1  5  1  0  0  0  0
  1  7  1  0  0  0  0
  2 11  1  0  0  0  0
  3  7  2  0  0  0  0
  3 14  1  0  0  0  0
  4  1  2  0  0  0  0
  6  3  1  0  0  0  0
  8  4  1  0  0  0  0
  8  6  2  0  0  0  0
  9 10  1  0  0  0  0
 10  6  1  0  0  0  0
 10  2  2  0  0  0  0
 11 14  2  0  0  0  0
 12  2  1  0  0  0  0
 12 15  1  1  0  0  0
 13  9  1  0  0  0  0
 13 12  1  0  0  0  0
 16 15  1  0  0  0  0
 17 20  2  0  0  0  0
 18 23  1  0  0  0  0
 19 18  2  0  0  0  0
 20 21  1  0  0  0  0
 21 23  2  0  0  0  0
 21 16  1  0  0  0  0
 22 17  1  0  0  0  0
 22 19  1  0  0  0  0
 24 13  1  0  0  0  0
 25 24  1  6  0  0  0
 26 28  1  1  0  0  0
 26 25  1  0  0  0  0
 27 26  1  0  0  0  0
 27 25  1  0  0  0  0
 28 29  1  1  0  0  0
 31 30  1  6  0  0  0
 31 28  1  0  0  0  0
 31 32  1  0  0  0  0
 31 35  1  0  0  0  0
 34 33  1  0  0  0  0
 34 32  1  0  0  0  0
 36 38  1  0  0  0  0
 36 37  1  1  0  0  0
 36 35  1  0  0  0  0
 38 43  1  0  0  0  0
 39 43  1  0  0  0  0
 40 41  1  0  0  0  0
 41 39  1  0  0  0  0
 42 40  1  0  0  0  0
 42 38  1  0  0  0  0
M  END
>  <MODEL>
4

>  <REMARK>
 VINA RESULT:      -6.6      2.863      5.404
  Name = 
  12 active torsions:
  status: ('A' for Active; 'I' for Inactive)
    1  A    between atoms: C_1  and  O_28
    2  A    between atoms: C_1  and  C_34
    3  A    between atoms: C_2  and  C_13
    4  A    between atoms: C_4  and  C_12
    5  A    between atoms: C_4  and  C_15
    6  A    between atoms: C_4  and  N_22
    7  A    between atoms: C_6  and  C_12
    8  A    between atoms: C_11  and  C_14
    9  A    between atoms: C_13  and  N_38
   10  A    between atoms: C_14  and  N_22
   11  A    between atoms: C_15  and  C_42
   12  A    between atoms: O_28  and  C_35
                            x       y       z     vdW  Elec       q    Type
                         _______ _______ _______ _____ _____    ______ ____

>  <TORSDO>
F 12

$$$$
=
 OpenBabel11052421053D

 43 48  0  0  1  0  0  0  0  0999 V2000
  190.8610  176.1410  147.1180 C   0  0  0  0  0  0  0  0  0  0  0  0
  188.9460  176.4510  142.4920 C   0  0  0  0  0  0  0  0  0  0  0  0
  190.2640  176.8930  144.8950 C   0  0  0  0  0  0  0  0  0  0  0  0
  190.1370  174.9580  146.9210 C   0  0  0  0  0  3  0  0  0  0  0  0
  191.6920  176.4090  148.6340 Cl  0  0  0  0  0  0  0  0  0  0  0  0
  189.5300  175.6940  144.6980 C   0  0  0  0  0  0  0  0  0  0  0  0
  190.9250  177.1060  146.1070 C   0  0  0  0  0  3  0  0  0  0  0  0
  189.4720  174.7310  145.7110 C   0  0  0  0  0  3  0  0  0  0  0  0
  188.1350  174.4100  143.0400 N   0  0  0  0  0  2  0  0  0  0  0  0
  188.8850  175.5200  143.4730 C   0  0  0  0  0  0  0  0  0  0  0  0
  189.6670  177.6360  142.6460 C   0  0  0  0  0  3  0  0  0  0  0  0
  188.1900  175.9370  141.3150 C   0  0  1  0  0  3  0  0  0  0  0  0
  187.6840  174.6040  141.7170 N   0  0  0  0  0  0  0  0  0  0  0  0
  190.3290  177.8550  143.8680 C   0  0  0  0  0  3  0  0  0  0  0  0
  187.0200  176.8550  141.0050 C   0  0  0  0  0  2  0  0  0  0  0  0
  185.9900  176.6620  141.9650 O   0  0  0  0  0  0  0  0  0  0  0  0
  185.1960  177.3030  145.5140 C   0  0  0  0  0  3  0  0  0  0  0  0
  185.6930  179.8510  143.9190 C   0  0  0  0  0  3  0  0  0  0  0  0
  185.0620  179.7260  145.0860 C   0  0  0  0  0  3  0  0  0  0  0  0
  185.8420  176.8420  144.4440 C   0  0  0  0  0  3  0  0  0  0  0  0
  185.8520  177.4680  143.0970 C   0  0  0  0  0  0  0  0  0  0  0  0
  184.3080  178.5000  145.4760 C   0  0  0  0  0  2  0  0  0  0  0  0
  185.8140  178.7940  142.8950 C   0  0  0  0  0  3  0  0  0  0  0  0
  188.3700  173.6200  140.8840 C   0  0  0  0  0  2  0  0  0  0  0  0
  189.8500  173.9470  140.6370 C   0  0  1  0  0  3  0  0  0  0  0  0
  190.6060  172.6470  140.4060 C   0  0  1  0  0  3  0  0  0  0  0  0
  190.3680  173.5920  139.2470 C   0  0  0  0  0  2  0  0  0  0  0  0
  192.0630  172.6960  140.9080 C   0  0  1  0  0  3  0  0  0  0  0  0
  192.5360  174.0070  141.0720 O   0  0  0  0  0  1  0  0  0  0  0  0
  191.0690  171.8460  142.9210 O   0  0  0  0  0  1  0  0  0  0  0  0
  192.2710  171.8810  142.2000 C   0  0  1  0  0  0  0  0  0  0  0  0
  192.7530  170.4530  141.8610 C   0  0  0  0  0  2  0  0  0  0  0  0
  190.9610  168.7510  141.4920 C   0  0  0  0  0  1  0  0  0  0  0  0
  191.9340  169.3350  142.4970 C   0  0  0  0  0  2  0  0  0  0  0  0
  193.3060  172.5520  142.9960 N   0  0  0  0  0  2  0  0  0  0  0  0
  192.9400  172.5890  144.4120 C   0  0  1  0  0  3  0  0  0  0  0  0
  193.5860  171.5460  145.0800 O   0  0  0  0  0  1  0  0  0  0  0  0
  193.3440  173.9300  145.0220 C   0  0  0  0  0  3  0  0  0  0  0  0
  194.0160  176.2950  144.2580 C   0  0  0  0  0  2  0  0  0  0  0  0
  195.1900  175.2030  146.2050 C   0  0  0  0  0  2  0  0  0  0  0  0
  194.3880  176.4240  145.7320 C   0  0  0  0  0  2  0  0  0  0  0  0
  194.8000  173.9010  145.4920 C   0  0  0  0  0  2  0  0  0  0  0  0
  193.1190  175.0720  144.0150 C   0  0  0  0  0  2  0  0  0  0  0  0
  1  5  1  0  0  0  0
  2 11  2  0  0  0  0
  2 10  1  0  0  0  0
  3  7  1  0  0  0  0
  4  1  1  0  0  0  0
  6  3  1  0  0  0  0
  6  8  1  0  0  0  0
  7  1  2  0  0  0  0
  8  4  2  0  0  0  0
  9 10  1  0  0  0  0
 10  6  2  0  0  0  0
 11 14  1  0  0  0  0
 12 15  1  1  0  0  0
 12 13  1  0  0  0  0
 12  2  1  0  0  0  0
 13  9  1  0  0  0  0
 14  3  2  0  0  0  0
 15 16  1  0  0  0  0
 16 21  1  0  0  0  0
 18 19  2  0  0  0  0
 19 22  1  0  0  0  0
 20 17  2  0  0  0  0
 21 20  1  0  0  0  0
 22 17  1  0  0  0  0
 23 21  2  0  0  0  0
 23 18  1  0  0  0  0
 24 13  1  0  0  0  0
 25 24  1  6  0  0  0
 26 25  1  0  0  0  0
 26 28  1  1  0  0  0
 27 26  1  0  0  0  0
 27 25  1  0  0  0  0
 28 29  1  1  0  0  0
 28 31  1  0  0  0  0
 31 30  1  1  0  0  0
 31 35  1  0  0  0  0
 32 31  1  0  0  0  0
 32 34  1  0  0  0  0
 33 34  1  0  0  0  0
 35 36  1  0  0  0  0
 36 38  1  0  0  0  0
 36 37  1  1  0  0  0
 38 42  1  0  0  0  0
 39 41  1  0  0  0  0
 41 40  1  0  0  0  0
 42 40  1  0  0  0  0
 43 39  1  0  0  0  0
 43 38  1  0  0  0  0
M  END
>  <MODEL>
5

>  <REMARK>
 VINA RESULT:      -6.6      2.613      8.263
  Name = 
  12 active torsions:
  status: ('A' for Active; 'I' for Inactive)
    1  A    between atoms: C_1  and  O_28
    2  A    between atoms: C_1  and  C_34
    3  A    between atoms: C_2  and  C_13
    4  A    between atoms: C_4  and  C_12
    5  A    between atoms: C_4  and  C_15
    6  A    between atoms: C_4  and  N_22
    7  A    between atoms: C_6  and  C_12
    8  A    between atoms: C_11  and  C_14
    9  A    between atoms: C_13  and  N_38
   10  A    between atoms: C_14  and  N_22
   11  A    between atoms: C_15  and  C_42
   12  A    between atoms: O_28  and  C_35
                            x       y       z     vdW  Elec       q    Type
                         _______ _______ _______ _____ _____    ______ ____

>  <TORSDO>
F 12

$$$$
=
 OpenBabel11052421053D

 43 48  0  0  1  0  0  0  0  0999 V2000
  190.7820  171.7780  140.1140 C   0  0  0  0  0  0  0  0  0  0  0  0
  190.3700  175.3180  143.6440 C   0  0  0  0  0  0  0  0  0  0  0  0
  190.0760  173.0780  142.0310 C   0  0  0  0  0  0  0  0  0  0  0  0
  191.7740  172.7250  139.8270 C   0  0  0  0  0  3  0  0  0  0  0  0
  190.6070  170.3670  139.0950 Cl  0  0  0  0  0  0  0  0  0  0  0  0
  191.0800  174.0380  141.7370 C   0  0  0  0  0  0  0  0  0  0  0  0
  189.9370  171.9530  141.2140 C   0  0  0  0  0  3  0  0  0  0  0  0
  191.9250  173.8560  140.6370 C   0  0  0  0  0  3  0  0  0  0  0  0
  192.1170  176.2000  142.5070 N   0  0  0  0  0  2  0  0  0  0  0  0
  191.1860  175.1450  142.5770 C   0  0  0  0  0  0  0  0  0  0  0  0
  189.3790  174.3900  143.9700 C   0  0  0  0  0  3  0  0  0  0  0  0
  190.7770  176.5690  144.3430 C   0  0  1  0  0  3  0  0  0  0  0  0
  191.9200  177.1060  143.5690 N   0  0  0  0  0  0  0  0  0  0  0  0
  189.2330  173.2590  143.1450 C   0  0  0  0  0  3  0  0  0  0  0  0
  189.6340  177.5710  144.3270 C   0  0  0  0  0  2  0  0  0  0  0  0
  188.8400  177.4130  145.4960 O   0  0  0  0  0  0  0  0  0  0  0  0
  185.6370  178.9650  144.5100 C   0  0  0  0  0  3  0  0  0  0  0  0
  185.3150  176.7890  146.6180 C   0  0  0  0  0  3  0  0  0  0  0  0
  184.4560  177.7580  146.3050 C   0  0  0  0  0  3  0  0  0  0  0  0
  186.7860  178.2990  144.4020 C   0  0  0  0  0  3  0  0  0  0  0  0
  187.4480  177.5250  145.4840 C   0  0  0  0  0  0  0  0  0  0  0  0
  184.8870  179.0910  145.7920 C   0  0  0  0  0  2  0  0  0  0  0  0
  186.7780  176.8480  146.4280 C   0  0  0  0  0  3  0  0  0  0  0  0
  193.0960  177.0160  144.4310 C   0  0  0  0  0  2  0  0  0  0  0  0
  193.0080  175.8950  145.4770 C   0  0  1  0  0  3  0  0  0  0  0  0
  194.2050  174.9730  145.3060 C   0  0  1  0  0  3  0  0  0  0  0  0
  194.1290  175.8860  146.5120 C   0  0  0  0  0  2  0  0  0  0  0  0
  193.8970  173.5060  145.6670 C   0  0  1  0  0  3  0  0  0  0  0  0
  192.6740  173.0640  145.1390 O   0  0  0  0  0  1  0  0  0  0  0  0
  196.2180  172.9440  145.9070 O   0  0  0  0  0  1  0  0  0  0  0  0
  195.0350  172.5460  145.2670 C   0  0  1  0  0  0  0  0  0  0  0  0
  194.6680  171.0940  145.6400 C   0  0  0  0  0  2  0  0  0  0  0  0
  195.4640  169.2270  147.0990 C   0  0  0  0  0  1  0  0  0  0  0  0
  195.8550  170.2100  146.0130 C   0  0  0  0  0  2  0  0  0  0  0  0
  195.2080  172.6320  143.8110 N   0  0  0  0  0  2  0  0  0  0  0  0
  196.5940  172.9450  143.4630 C   0  0  1  0  0  3  0  0  0  0  0  0
  197.1320  171.8870  142.7270 O   0  0  0  0  0  1  0  0  0  0  0  0
  196.6500  174.2330  142.6430 C   0  0  0  0  0  3  0  0  0  0  0  0
  196.6570  176.7800  143.0160 C   0  0  0  0  0  2  0  0  0  0  0  0
  195.3520  175.7760  141.1060 C   0  0  0  0  0  2  0  0  0  0  0  0
  196.4440  176.7780  141.5050 C   0  0  0  0  0  2  0  0  0  0  0  0
  195.2870  174.5440  142.0200 C   0  0  0  0  0  2  0  0  0  0  0  0
  197.1320  175.4070  143.5140 C   0  0  0  0  0  2  0  0  0  0  0  0
  1  7  1  0  0  0  0
  2 11  1  0  0  0  0
  2 12  1  0  0  0  0
  3 14  1  0  0  0  0
  4  1  2  0  0  0  0
  4  8  1  0  0  0  0
  5  1  1  0  0  0  0
  6  3  1  0  0  0  0
  6 10  1  0  0  0  0
  7  3  2  0  0  0  0
  8  6  2  0  0  0  0
  9 10  1  0  0  0  0
  9 13  1  0  0  0  0
 10  2  2  0  0  0  0
 12 15  1  6  0  0  0
 13 12  1  0  0  0  0
 13 24  1  0  0  0  0
 14 11  2  0  0  0  0
 15 16  1  0  0  0  0
 17 22  1  0  0  0  0
 19 18  2  0  0  0  0
 20 17  2  0  0  0  0
 20 21  1  0  0  0  0
 21 16  1  0  0  0  0
 21 23  2  0  0  0  0
 22 19  1  0  0  0  0
 23 18  1  0  0  0  0
 25 24  1  6  0  0  0
 25 27  1  0  0  0  0
 26 25  1  0  0  0  0
 26 28  1  1  0  0  0
 26 27  1  0  0  0  0
 28 29  1  6  0  0  0
 31 32  1  0  0  0  0
 31 28  1  0  0  0  0
 31 30  1  1  0  0  0
 32 34  1  0  0  0  0
 34 33  1  0  0  0  0
 35 31  1  0  0  0  0
 36 37  1  6  0  0  0
 36 35  1  0  0  0  0
 38 36  1  0  0  0  0
 38 43  1  0  0  0  0
 39 43  1  0  0  0  0
 40 41  1  0  0  0  0
 40 42  1  0  0  0  0
 41 39  1  0  0  0  0
 42 38  1  0  0  0  0
M  END
>  <MODEL>
6

>  <REMARK>
 VINA RESULT:      -6.3      2.116      8.174
  Name = 
  12 active torsions:
  status: ('A' for Active; 'I' for Inactive)
    1  A    between atoms: C_1  and  O_28
    2  A    between atoms: C_1  and  C_34
    3  A    between atoms: C_2  and  C_13
    4  A    between atoms: C_4  and  C_12
    5  A    between atoms: C_4  and  C_15
    6  A    between atoms: C_4  and  N_22
    7  A    between atoms: C_6  and  C_12
    8  A    between atoms: C_11  and  C_14
    9  A    between atoms: C_13  and  N_38
   10  A    between atoms: C_14  and  N_22
   11  A    between atoms: C_15  and  C_42
   12  A    between atoms: O_28  and  C_35
                            x       y       z     vdW  Elec       q    Type
                         _______ _______ _______ _____ _____    ______ ____

>  <TORSDO>
F 12

$$$$
=
 OpenBabel11052421053D

 43 48  0  0  1  0  0  0  0  0999 V2000
  190.0100  172.0470  140.4450 C   0  0  0  0  0  0  0  0  0  0  0  0
  189.9040  174.1930  144.9780 C   0  0  0  0  0  0  0  0  0  0  0  0
  189.9020  172.4300  142.8340 C   0  0  0  0  0  0  0  0  0  0  0  0
  190.1200  173.4260  140.2210 C   0  0  0  0  0  3  0  0  0  0  0  0
  190.0130  170.9430  139.0880 Cl  0  0  0  0  0  0  0  0  0  0  0  0
  190.0110  173.8270  142.6050 C   0  0  0  0  0  0  0  0  0  0  0  0
  189.9020  171.5500  141.7480 C   0  0  0  0  0  3  0  0  0  0  0  0
  190.1210  174.3180  141.3000 C   0  0  0  0  0  3  0  0  0  0  0  0
  190.1370  176.0720  143.7380 N   0  0  0  0  0  2  0  0  0  0  0  0
  190.0070  174.6700  143.7150 C   0  0  0  0  0  0  0  0  0  0  0  0
  189.8060  172.8250  145.2420 C   0  0  0  0  0  3  0  0  0  0  0  0
  189.9720  175.3470  145.9190 C   0  0  1  0  0  3  0  0  0  0  0  0
  190.1280  176.5480  145.0660 N   0  0  0  0  0  0  0  0  0  0  0  0
  189.8010  171.9380  144.1500 C   0  0  0  0  0  3  0  0  0  0  0  0
  188.6820  175.4490  146.7140 C   0  0  0  0  0  2  0  0  0  0  0  0
  188.2370  176.7990  146.7380 O   0  0  0  0  0  0  0  0  0  0  0  0
  185.5210  177.5470  144.3500 C   0  0  0  0  0  3  0  0  0  0  0  0
  184.7990  178.2150  147.2330 C   0  0  0  0  0  3  0  0  0  0  0  0
  184.2220  178.6650  146.1200 C   0  0  0  0  0  3  0  0  0  0  0  0
  186.4210  176.8430  145.0340 C   0  0  0  0  0  3  0  0  0  0  0  0
  186.9380  177.1720  146.3880 C   0  0  0  0  0  0  0  0  0  0  0  0
  184.9590  178.8400  144.8350 C   0  0  0  0  0  2  0  0  0  0  0  0
  186.1950  177.7500  147.3440 C   0  0  0  0  0  3  0  0  0  0  0  0
  191.4580  177.0890  145.3340 C   0  0  0  0  0  2  0  0  0  0  0  0
  192.3610  176.1370  146.1310 C   0  0  1  0  0  3  0  0  0  0  0  0
  193.6710  175.9620  145.3770 C   0  0  1  0  0  3  0  0  0  0  0  0
  193.6480  176.7600  146.6650 C   0  0  0  0  0  2  0  0  0  0  0  0
  194.2990  174.5670  145.5680 C   0  0  1  0  0  3  0  0  0  0  0  0
  193.4780  173.5340  145.0920 O   0  0  0  0  0  1  0  0  0  0  0  0
  196.1860  175.7530  144.6750 O   0  0  0  0  0  1  0  0  0  0  0  0
  195.7090  174.4640  144.9520 C   0  0  1  0  0  0  0  0  0  0  0  0
  196.6600  173.7180  145.9130 C   0  0  0  0  0  2  0  0  0  0  0  0
  196.5700  171.2300  146.1360 C   0  0  0  0  0  1  0  0  0  0  0  0
  197.1910  172.3900  145.3820 C   0  0  0  0  0  2  0  0  0  0  0  0
  195.6010  173.6970  143.7040 N   0  0  0  0  0  2  0  0  0  0  0  0
  196.1150  174.4650  142.5690 C   0  0  1  0  0  3  0  0  0  0  0  0
  197.2870  173.8660  142.1040 O   0  0  0  0  0  1  0  0  0  0  0  0
  195.0720  174.5090  141.4530 C   0  0  0  0  0  3  0  0  0  0  0  0
  193.6550  172.8850  140.0460 C   0  0  0  0  0  2  0  0  0  0  0  0
  194.6900  174.9240  138.9810 C   0  0  0  0  0  2  0  0  0  0  0  0
  193.3860  174.1600  139.2510 C   0  0  0  0  0  2  0  0  0  0  0  0
  195.7330  174.7690  140.0970 C   0  0  0  0  0  2  0  0  0  0  0  0
  194.2580  173.2030  141.4210 C   0  0  0  0  0  2  0  0  0  0  0  0
  1  7  1  0  0  0  0
  2 11  1  0  0  0  0
  2 12  1  0  0  0  0
  3 14  1  0  0  0  0
  4  1  2  0  0  0  0
  4  8  1  0  0  0  0
  5  1  1  0  0  0  0
  6  3  1  0  0  0  0
  6 10  1  0  0  0  0
  7  3  2  0  0  0  0
  8  6  2  0  0  0  0
  9 13  1  0  0  0  0
 10  9  1  0  0  0  0
 10  2  2  0  0  0  0
 12 15  1  6  0  0  0
 13 24  1  0  0  0  0
 13 12  1  0  0  0  0
 14 11  2  0  0  0  0
 15 16  1  0  0  0  0
 17 22  1  0  0  0  0
 17 20  2  0  0  0  0
 18 23  1  0  0  0  0
 19 18  2  0  0  0  0
 20 21  1  0  0  0  0
 21 16  1  0  0  0  0
 21 23  2  0  0  0  0
 22 19  1  0  0  0  0
 25 24  1  6  0  0  0
 25 27  1  0  0  0  0
 26 28  1  1  0  0  0
 26 25  1  0  0  0  0
 26 27  1  0  0  0  0
 28 29  1  6  0  0  0
 31 30  1  6  0  0  0
 31 28  1  0  0  0  0
 31 32  1  0  0  0  0
 34 32  1  0  0  0  0
 34 33  1  0  0  0  0
 35 31  1  0  0  0  0
 36 37  1  6  0  0  0
 36 35  1  0  0  0  0
 38 36  1  0  0  0  0
 39 43  1  0  0  0  0
 40 41  1  0  0  0  0
 40 42  1  0  0  0  0
 41 39  1  0  0  0  0
 42 38  1  0  0  0  0
 43 38  1  0  0  0  0
M  END
>  <MODEL>
7

>  <REMARK>
 VINA RESULT:      -6.3      2.146      8.155
  Name = 
  12 active torsions:
  status: ('A' for Active; 'I' for Inactive)
    1  A    between atoms: C_1  and  O_28
    2  A    between atoms: C_1  and  C_34
    3  A    between atoms: C_2  and  C_13
    4  A    between atoms: C_4  and  C_12
    5  A    between atoms: C_4  and  C_15
    6  A    between atoms: C_4  and  N_22
    7  A    between atoms: C_6  and  C_12
    8  A    between atoms: C_11  and  C_14
    9  A    between atoms: C_13  and  N_38
   10  A    between atoms: C_14  and  N_22
   11  A    between atoms: C_15  and  C_42
   12  A    between atoms: O_28  and  C_35
                            x       y       z     vdW  Elec       q    Type
                         _______ _______ _______ _____ _____    ______ ____

>  <TORSDO>
F 12

$$$$
=
 OpenBabel11052421053D

 43 48  0  0  1  0  0  0  0  0999 V2000
  184.4500  178.1930  143.7020 C   0  0  0  0  0  0  0  0  0  0  0  0
  188.2600  176.0390  146.1530 C   0  0  0  0  0  0  0  0  0  0  0  0
  185.9370  177.3760  145.4300 C   0  0  0  0  0  0  0  0  0  0  0  0
  185.2950  177.6670  142.7150 C   0  0  0  0  0  3  0  0  0  0  0  0
  182.9860  179.0300  143.2370 Cl  0  0  0  0  0  0  0  0  0  0  0  0
  186.7930  176.8470  144.4280 C   0  0  0  0  0  0  0  0  0  0  0  0
  184.7690  178.0470  145.0560 C   0  0  0  0  0  3  0  0  0  0  0  0
  186.4660  176.9930  143.0760 C   0  0  0  0  0  3  0  0  0  0  0  0
  188.9190  175.5520  144.0430 N   0  0  0  0  0  2  0  0  0  0  0  0
  187.9470  176.1840  144.8440 C   0  0  0  0  0  0  0  0  0  0  0  0
  187.4370  176.5380  147.1650 C   0  0  0  0  0  3  0  0  0  0  0  0
  189.5240  175.2560  146.2460 C   0  0  1  0  0  3  0  0  0  0  0  0
  189.9130  174.9580  144.8480 N   0  0  0  0  0  0  0  0  0  0  0  0
  186.2640  177.2180  146.7910 C   0  0  0  0  0  3  0  0  0  0  0  0
  190.6060  176.0890  146.9110 C   0  0  0  0  0  2  0  0  0  0  0  0
  191.7340  175.2730  147.1970 O   0  0  0  0  0  0  0  0  0  0  0  0
  194.5030  173.6190  145.3980 C   0  0  0  0  0  3  0  0  0  0  0  0
  194.7250  176.6570  145.4030 C   0  0  0  0  0  3  0  0  0  0  0  0
  195.6880  175.7670  145.1680 C   0  0  0  0  0  3  0  0  0  0  0  0
  193.2620  173.9890  145.7060 C   0  0  0  0  0  3  0  0  0  0  0  0
  192.8740  175.2500  146.3890 C   0  0  0  0  0  0  0  0  0  0  0  0
  195.7080  174.4090  145.7830 C   0  0  0  0  0  2  0  0  0  0  0  0
  193.5170  176.4150  146.2170 C   0  0  0  0  0  3  0  0  0  0  0  0
  189.7950  173.5130  144.6730 C   0  0  0  0  0  2  0  0  0  0  0  0
  189.5350  173.0870  143.2210 C   0  0  1  0  0  3  0  0  0  0  0  0
  190.8220  172.5210  142.6400 C   0  0  1  0  0  3  0  0  0  0  0  0
  189.6670  171.5920  142.9510 C   0  0  0  0  0  2  0  0  0  0  0  0
  190.9700  172.7800  141.1280 C   0  0  1  0  0  3  0  0  0  0  0  0
  190.2320  173.8920  140.6930 O   0  0  0  0  0  1  0  0  0  0  0  0
  192.9250  171.6420  140.3230 O   0  0  0  0  0  1  0  0  0  0  0  0
  192.4440  172.9070  140.6910 C   0  0  1  0  0  0  0  0  0  0  0  0
  192.5720  173.9090  139.5230 C   0  0  0  0  0  2  0  0  0  0  0  0
  194.3400  173.8900  137.7560 C   0  0  0  0  0  1  0  0  0  0  0  0
  193.0190  173.2930  138.2010 C   0  0  0  0  0  2  0  0  0  0  0  0
  193.2120  173.4140  141.8350 N   0  0  0  0  0  2  0  0  0  0  0  0
  193.5320  174.8330  141.6680 C   0  0  1  0  0  3  0  0  0  0  0  0
  192.8210  175.5760  142.6130 O   0  0  0  0  0  1  0  0  0  0  0  0
  195.0320  175.0560  141.8480 C   0  0  0  0  0  3  0  0  0  0  0  0
  197.0980  175.6380  140.4270 C   0  0  0  0  0  2  0  0  0  0  0  0
  197.2630  173.9310  142.2770 C   0  0  0  0  0  2  0  0  0  0  0  0
  197.8180  175.2480  141.7150 C   0  0  0  0  0  2  0  0  0  0  0  0
  195.7710  173.7220  141.9880 C   0  0  0  0  0  2  0  0  0  0  0  0
  195.6010  175.8730  140.6740 C   0  0  0  0  0  2  0  0  0  0  0  0
  1  7  1  0  0  0  0
  2 12  1  0  0  0  0
  2 11  1  0  0  0  0
  3 14  1  0  0  0  0
  4  8  1  0  0  0  0
  4  1  2  0  0  0  0
  5  1  1  0  0  0  0
  6 10  1  0  0  0  0
  6  3  1  0  0  0  0
  7  3  2  0  0  0  0
  8  6  2  0  0  0  0
  9 10  1  0  0  0  0
  9 13  1  0  0  0  0
 10  2  2  0  0  0  0
 12 15  1  6  0  0  0
 13 12  1  0  0  0  0
 14 11  2  0  0  0  0
 15 16  1  0  0  0  0
 17 20  2  0  0  0  0
 17 22  1  0  0  0  0
 18 23  1  0  0  0  0
 19 18  2  0  0  0  0
 19 22  1  0  0  0  0
 20 21  1  0  0  0  0
 21 16  1  0  0  0  0
 23 21  2  0  0  0  0
 24 13  1  0  0  0  0
 25 24  1  1  0  0  0
 26 28  1  6  0  0  0
 26 27  1  0  0  0  0
 26 25  1  0  0  0  0
 27 25  1  0  0  0  0
 28 29  1  1  0  0  0
 31 30  1  6  0  0  0
 31 28  1  0  0  0  0
 31 35  1  0  0  0  0
 32 31  1  0  0  0  0
 33 34  1  0  0  0  0
 34 32  1  0  0  0  0
 36 35  1  0  0  0  0
 36 38  1  0  0  0  0
 36 37  1  1  0  0  0
 38 42  1  0  0  0  0
 39 43  1  0  0  0  0
 39 41  1  0  0  0  0
 41 40  1  0  0  0  0
 42 40  1  0  0  0  0
 43 38  1  0  0  0  0
M  END
>  <MODEL>
8

>  <REMARK>
 VINA RESULT:      -6.2      2.970      7.485
  Name = 
  12 active torsions:
  status: ('A' for Active; 'I' for Inactive)
    1  A    between atoms: C_1  and  O_28
    2  A    between atoms: C_1  and  C_34
    3  A    between atoms: C_2  and  C_13
    4  A    between atoms: C_4  and  C_12
    5  A    between atoms: C_4  and  C_15
    6  A    between atoms: C_4  and  N_22
    7  A    between atoms: C_6  and  C_12
    8  A    between atoms: C_11  and  C_14
    9  A    between atoms: C_13  and  N_38
   10  A    between atoms: C_14  and  N_22
   11  A    between atoms: C_15  and  C_42
   12  A    between atoms: O_28  and  C_35
                            x       y       z     vdW  Elec       q    Type
                         _______ _______ _______ _____ _____    ______ ____

>  <TORSDO>
F 12

$$$$
=
 OpenBabel11052421053D

 43 48  0  0  1  0  0  0  0  0999 V2000
  190.6970  171.8510  140.5040 C   0  0  0  0  0  0  0  0  0  0  0  0
  190.1010  174.2900  144.8460 C   0  0  0  0  0  0  0  0  0  0  0  0
  190.3050  172.3920  142.8310 C   0  0  0  0  0  0  0  0  0  0  0  0
  190.8820  173.2090  140.2110 C   0  0  0  0  0  3  0  0  0  0  0  0
  190.8320  170.6610  139.2280 Cl  0  0  0  0  0  0  0  0  0  0  0  0
  190.4900  173.7670  142.5330 C   0  0  0  0  0  0  0  0  0  0  0  0
  190.4110  171.4430  141.8100 C   0  0  0  0  0  3  0  0  0  0  0  0
  190.7790  174.1690  141.2240 C   0  0  0  0  0  3  0  0  0  0  0  0
  190.5510  176.0770  143.5330 N   0  0  0  0  0  2  0  0  0  0  0  0
  190.3770  174.6810  143.5800 C   0  0  0  0  0  0  0  0  0  0  0  0
  189.9230  172.9460  145.1790 C   0  0  0  0  0  3  0  0  0  0  0  0
  190.0910  175.5000  145.7150 C   0  0  1  0  0  3  0  0  0  0  0  0
  190.3930  176.6390  144.8170 N   0  0  0  0  0  0  0  0  0  0  0  0
  190.0240  171.9900  144.1520 C   0  0  0  0  0  3  0  0  0  0  0  0
  188.7160  175.6880  146.3330 C   0  0  0  0  0  2  0  0  0  0  0  0
  188.3770  177.0690  146.3420 O   0  0  0  0  0  0  0  0  0  0  0  0
  186.1940  178.6880  143.8410 C   0  0  0  0  0  3  0  0  0  0  0  0
  184.7980  178.1850  146.5020 C   0  0  0  0  0  3  0  0  0  0  0  0
  184.4410  179.0320  145.5390 C   0  0  0  0  0  3  0  0  0  0  0  0
  186.9820  177.7720  144.4020 C   0  0  0  0  0  3  0  0  0  0  0  0
  187.1570  177.5500  145.8600 C   0  0  0  0  0  0  0  0  0  0  0  0
  185.4230  179.6920  144.6300 C   0  0  0  0  0  2  0  0  0  0  0  0
  186.1730  177.7120  146.7580 C   0  0  0  0  0  3  0  0  0  0  0  0
  191.6970  177.1610  145.2180 C   0  0  0  0  0  2  0  0  0  0  0  0
  192.5330  176.1680  146.0390 C   0  0  1  0  0  3  0  0  0  0  0  0
  193.8000  175.8400  145.2640 C   0  0  1  0  0  3  0  0  0  0  0  0
  193.8840  176.6950  146.5110 C   0  0  0  0  0  2  0  0  0  0  0  0
  194.3040  174.4030  145.5080 C   0  0  1  0  0  3  0  0  0  0  0  0
  193.3420  173.5880  146.1230 O   0  0  0  0  0  1  0  0  0  0  0  0
  193.8250  172.9360  143.6690 O   0  0  0  0  0  1  0  0  0  0  0  0
  194.8340  173.7370  144.2230 C   0  0  1  0  0  0  0  0  0  0  0  0
  195.3020  174.8100  143.2160 C   0  0  0  0  0  2  0  0  0  0  0  0
  193.8890  176.0420  141.5630 C   0  0  0  0  0  1  0  0  0  0  0  0
  194.6210  174.7470  141.8520 C   0  0  0  0  0  2  0  0  0  0  0  0
  195.9840  172.9000  144.5890 N   0  0  0  0  0  2  0  0  0  0  0  0
  195.6860  171.4800  144.3930 C   0  0  1  0  0  3  0  0  0  0  0  0
  196.4600  170.9910  143.3390 O   0  0  0  0  0  1  0  0  0  0  0  0
  195.9900  170.7010  145.6710 C   0  0  0  0  0  3  0  0  0  0  0  0
  197.5490  168.8200  146.4810 C   0  0  0  0  0  2  0  0  0  0  0  0
  195.1540  168.9140  147.2640 C   0  0  0  0  0  2  0  0  0  0  0  0
  196.6270  168.8810  147.6950 C   0  0  0  0  0  2  0  0  0  0  0  0
  194.9230  169.6340  145.9280 C   0  0  0  0  0  2  0  0  0  0  0  0
  197.3890  170.0640  145.5960 C   0  0  0  0  0  2  0  0  0  0  0  0
  1  7  1  0  0  0  0
  2 11  1  0  0  0  0
  2 12  1  0  0  0  0
  3 14  1  0  0  0  0
  4  1  2  0  0  0  0
  4  8  1  0  0  0  0
  5  1  1  0  0  0  0
  6  3  1  0  0  0  0
  6 10  1  0  0  0  0
  7  3  2  0  0  0  0
  8  6  2  0  0  0  0
  9 10  1  0  0  0  0
  9 13  1  0  0  0  0
 10  2  2  0  0  0  0
 12 15  1  6  0  0  0
 13 24  1  0  0  0  0
 13 12  1  0  0  0  0
 14 11  2  0  0  0  0
 15 16  1  0  0  0  0
 17 20  2  0  0  0  0
 17 22  1  0  0  0  0
 18 23  1  0  0  0  0
 19 18  2  0  0  0  0
 20 21  1  0  0  0  0
 21 16  1  0  0  0  0
 21 23  2  0  0  0  0
 22 19  1  0  0  0  0
 25 24  1  6  0  0  0
 25 27  1  0  0  0  0
 26 28  1  1  0  0  0
 26 25  1  0  0  0  0
 26 27  1  0  0  0  0
 28 29  1  6  0  0  0
 31 30  1  6  0  0  0
 31 35  1  0  0  0  0
 31 28  1  0  0  0  0
 32 31  1  0  0  0  0
 33 34  1  0  0  0  0
 34 32  1  0  0  0  0
 36 37  1  6  0  0  0
 36 35  1  0  0  0  0
 36 38  1  0  0  0  0
 38 42  1  0  0  0  0
 39 41  1  0  0  0  0
 40 41  1  0  0  0  0
 42 40  1  0  0  0  0
 43 38  1  0  0  0  0
 43 39  1  0  0  0  0
M  END
>  <MODEL>
9

>  <REMARK>
 VINA RESULT:      -6.2      2.386      8.414
  Name = 
  12 active torsions:
  status: ('A' for Active; 'I' for Inactive)
    1  A    between atoms: C_1  and  O_28
    2  A    between atoms: C_1  and  C_34
    3  A    between atoms: C_2  and  C_13
    4  A    between atoms: C_4  and  C_12
    5  A    between atoms: C_4  and  C_15
    6  A    between atoms: C_4  and  N_22
    7  A    between atoms: C_6  and  C_12
    8  A    between atoms: C_11  and  C_14
    9  A    between atoms: C_13  and  N_38
   10  A    between atoms: C_14  and  N_22
   11  A    between atoms: C_15  and  C_42
   12  A    between atoms: O_28  and  C_35
                            x       y       z     vdW  Elec       q    Type
                         _______ _______ _______ _____ _____    ______ ____

>  <TORSDO>
F 12

$$$$
