=
 OpenBabel11052419063D

 32 37  0  0  1  0  0  0  0  0999 V2000
  191.4190  175.4250  143.4160 C   0  0  1  0  0  3  0  0  0  0  0  0
  191.1050  174.0620  141.5240 C   0  0  0  0  0  2  0  0  0  0  0  0
  192.0550  175.0530  144.7610 C   0  0  0  0  0  2  0  0  0  0  0  0
  190.5380  174.3880  142.8410 N   0  0  1  0  0  0  0  0  0  0  0  0
  190.5730  172.7530  140.9150 C   0  0  1  0  0  0  0  0  0  0  0  0
  191.8490  170.9850  139.9890 C   0  0  0  0  0  0  0  0  0  0  0  0
  191.1460  171.3580  138.7420 C   0  0  2  0  0  3  0  0  0  0  0  0
  190.4320  173.1690  143.6670 C   0  0  2  0  0  3  0  0  0  0  0  0
  190.3700  172.9680  139.1010 S   0  0  0  0  0  0  0  0  0  0  0  0
  189.3530  172.2380  143.1070 C   0  0  0  0  0  2  0  0  0  0  0  0
  190.0660  173.5060  145.1140 C   0  0  0  0  0  2  0  0  0  0  0  0
  191.5490  171.7430  141.1030 O   0  0  0  0  0  0  0  0  0  0  0  0
  189.2570  172.2910  141.5770 C   0  0  1  0  0  3  0  0  0  0  0  0
  191.0110  174.5310  145.7440 C   0  0  0  0  0  2  0  0  0  0  0  0
  192.6810  170.0410  140.0390 O   0  0  0  0  0  0  0  0  0  0  0  0
  189.7500  170.3640  136.9490 C   0  0  0  0  0  2  0  0  0  0  0  0
  190.0660  170.3330  138.4320 C   0  0  0  0  0  3  0  0  0  0  0  0
  190.6270  169.2670  137.5120 C   0  0  0  0  0  2  0  0  0  0  0  0
  187.9980  173.0410  141.1240 C   0  0  0  0  0  2  0  0  0  0  0  0
  187.4060  173.7370  142.1790 O   0  0  0  0  0  1  0  0  0  0  0  0
  191.2130  177.5420  144.5390 O   0  0  0  0  0  1  0  0  0  0  0  0
  190.7070  176.7830  143.4790 C   0  0  2  0  0  3  0  0  0  0  0  0
  186.5010  176.5320  143.8400 O   0  0  0  0  0  0  0  0  0  0  0  0
  186.9280  177.3860  142.8020 C   0  0  0  0  0  2  0  0  0  0  0  0
  187.1610  176.8820  145.0530 C   0  0  1  0  0  3  0  0  0  0  0  0
  189.1930  176.5980  143.6280 C   0  0  1  0  0  3  0  0  0  0  0  0
  188.6590  177.2140  144.9170 C   0  0  0  0  0  2  0  0  0  0  0  0
  188.3880  177.1180  142.4190 C   0  0  2  0  0  3  0  0  0  0  0  0
  188.9410  178.2980  141.9170 O   0  0  0  0  0  1  0  0  0  0  0  0
  186.4100  177.8700  145.9630 C   0  0  0  0  0  3  0  0  0  0  0  0
  184.9550  177.4720  146.1380 C   0  0  0  0  0  2  0  0  0  0  0  0
  185.9410  177.2390  147.2630 C   0  0  0  0  0  2  0  0  0  0  0  0
  1 22  1  1  0  0  0
  1  3  1  0  0  0  0
  3 14  1  0  0  0  0
  4  2  1  6  0  0  0
  4  1  1  0  0  0  0
  4  8  1  0  0  0  0
  5 12  1  0  0  0  0
  5  2  1  1  0  0  0
  5 13  1  0  0  0  0
  6 15  2  0  0  0  0
  6 12  1  0  0  0  0
  7 17  1  1  0  0  0
  7  9  1  0  0  0  0
  7  6  1  0  0  0  0
  8 10  1  6  0  0  0
  8 11  1  0  0  0  0
  9  5  1  0  0  0  0
 11 14  1  0  0  0  0
 13 19  1  1  0  0  0
 13 10  1  0  0  0  0
 16 18  1  0  0  0  0
 16 17  1  0  0  0  0
 18 17  1  0  0  0  0
 19 20  1  0  0  0  0
 22 21  1  1  0  0  0
 23 25  1  0  0  0  0
 24 23  1  0  0  0  0
 25 30  1  6  0  0  0
 26 22  1  6  0  0  0
 26 27  1  0  0  0  0
 27 25  1  0  0  0  0
 28 29  1  1  0  0  0
 28 24  1  0  0  0  0
 28 26  1  0  0  0  0
 30 31  1  0  0  0  0
 30 32  1  0  0  0  0
 31 32  1  0  0  0  0
M  END
>  <MODEL>
1

>  <REMARK>
 VINA RESULT:      -7.0      0.000      0.000
  Name = 
  5 active torsions:
  status: ('A' for Active; 'I' for Inactive)
    1  A    between atoms: C_1  and  C_27
    2  A    between atoms: C_7  and  C_15
    3  A    between atoms: C_11  and  C_12
    4  A    between atoms: C_13  and  C_29
    5  A    between atoms: C_16  and  C_27
                            x       y       z     vdW  Elec       q    Type
                         _______ _______ _______ _____ _____    ______ ____

>  <TORSDO>
F 5

$$$$
=
 OpenBabel11052419063D

 32 37  0  0  1  0  0  0  0  0999 V2000
  189.3650  174.9740  142.6960 C   0  0  1  0  0  3  0  0  0  0  0  0
  191.4460  174.6690  143.7520 C   0  0  0  0  0  2  0  0  0  0  0  0
  188.4690  173.9160  142.0400 C   0  0  0  0  0  2  0  0  0  0  0  0
  190.8100  174.8090  142.4350 N   0  0  1  0  0  0  0  0  0  0  0  0
  192.8800  174.1170  143.7050 C   0  0  1  0  0  0  0  0  0  0  0  0
  193.7750  172.3440  144.9980 C   0  0  0  0  0  0  0  0  0  0  0  0
  194.6510  173.4070  145.5370 C   0  0  2  0  0  3  0  0  0  0  0  0
  191.1340  173.6460  141.5850 C   0  0  2  0  0  3  0  0  0  0  0  0
  193.9010  174.9700  144.9740 S   0  0  0  0  0  0  0  0  0  0  0  0
  192.6150  173.6650  141.1980 C   0  0  0  0  0  2  0  0  0  0  0  0
  190.3050  173.6450  140.2990 C   0  0  0  0  0  2  0  0  0  0  0  0
  192.8450  172.7450  144.0600 O   0  0  0  0  0  0  0  0  0  0  0  0
  193.5110  174.2430  142.3010 C   0  0  1  0  0  3  0  0  0  0  0  0
  188.8010  173.7490  140.5600 C   0  0  0  0  0  2  0  0  0  0  0  0
  193.8570  171.1450  145.3730 O   0  0  0  0  0  0  0  0  0  0  0  0
  197.0740  173.6920  145.9820 C   0  0  0  0  0  2  0  0  0  0  0  0
  196.0470  173.2740  144.9490 C   0  0  0  0  0  3  0  0  0  0  0  0
  196.8240  172.2240  145.7180 C   0  0  0  0  0  2  0  0  0  0  0  0
  194.0140  175.6440  141.9320 C   0  0  0  0  0  2  0  0  0  0  0  0
  195.3930  175.6590  141.7240 O   0  0  0  0  0  1  0  0  0  0  0  0
  189.7410  177.3320  142.9830 O   0  0  0  0  0  1  0  0  0  0  0  0
  188.9020  176.3980  142.3660 C   0  0  2  0  0  3  0  0  0  0  0  0
  184.9050  177.2340  143.4680 O   0  0  0  0  0  0  0  0  0  0  0  0
  185.2530  177.7260  142.1920 C   0  0  0  0  0  2  0  0  0  0  0  0
  185.8670  177.6640  144.4270 C   0  0  1  0  0  3  0  0  0  0  0  0
  187.4490  176.6140  142.8050 C   0  0  1  0  0  3  0  0  0  0  0  0
  187.3340  177.5940  143.9670 C   0  0  0  0  0  2  0  0  0  0  0  0
  186.5170  177.0450  141.6530 C   0  0  2  0  0  3  0  0  0  0  0  0
  187.1630  177.9280  140.7860 O   0  0  0  0  0  1  0  0  0  0  0  0
  185.5340  178.9700  145.1700 C   0  0  0  0  0  3  0  0  0  0  0  0
  184.1030  178.9730  145.6790 C   0  0  0  0  0  2  0  0  0  0  0  0
  185.2470  178.7550  146.6460 C   0  0  0  0  0  2  0  0  0  0  0  0
  1 22  1  6  0  0  0
  3  1  1  0  0  0  0
  4  1  1  0  0  0  0
  4  2  1  1  0  0  0
  5  2  1  6  0  0  0
  5 12  1  0  0  0  0
  5  9  1  0  0  0  0
  6 15  2  0  0  0  0
  6  7  1  0  0  0  0
  7 17  1  6  0  0  0
  8 11  1  6  0  0  0
  8  4  1  0  0  0  0
  9  7  1  0  0  0  0
 10  8  1  0  0  0  0
 10 13  1  0  0  0  0
 11 14  1  0  0  0  0
 12  6  1  0  0  0  0
 13 19  1  6  0  0  0
 13  5  1  0  0  0  0
 14  3  1  0  0  0  0
 17 18  1  0  0  0  0
 17 16  1  0  0  0  0
 18 16  1  0  0  0  0
 20 19  1  0  0  0  0
 22 21  1  1  0  0  0
 23 25  1  0  0  0  0
 24 23  1  0  0  0  0
 25 30  1  6  0  0  0
 26 22  1  6  0  0  0
 26 27  1  0  0  0  0
 27 25  1  0  0  0  0
 28 29  1  6  0  0  0
 28 24  1  0  0  0  0
 28 26  1  0  0  0  0
 30 31  1  0  0  0  0
 30 32  1  0  0  0  0
 31 32  1  0  0  0  0
M  END
>  <MODEL>
2

>  <REMARK>
 VINA RESULT:      -6.9      2.926      5.108
  Name = 
  5 active torsions:
  status: ('A' for Active; 'I' for Inactive)
    1  A    between atoms: C_1  and  C_27
    2  A    between atoms: C_7  and  C_15
    3  A    between atoms: C_11  and  C_12
    4  A    between atoms: C_13  and  C_29
    5  A    between atoms: C_16  and  C_27
                            x       y       z     vdW  Elec       q    Type
                         _______ _______ _______ _____ _____    ______ ____

>  <TORSDO>
F 5

$$$$
=
 OpenBabel11052419063D

 32 37  0  0  1  0  0  0  0  0999 V2000
  190.6410  176.5940  145.5190 C   0  0  1  0  0  3  0  0  0  0  0  0
  192.3230  176.1280  143.9410 C   0  0  0  0  0  2  0  0  0  0  0  0
  190.8000  177.1290  146.9480 C   0  0  0  0  0  2  0  0  0  0  0  0
  191.6410  175.5820  145.1220 N   0  0  1  0  0  0  0  0  0  0  0  0
  193.6420  175.4200  143.5900 C   0  0  1  0  0  0  0  0  0  0  0  0
  195.7350  176.4350  143.1350 C   0  0  0  0  0  0  0  0  0  0  0  0
  195.5440  175.8320  141.7980 C   0  0  2  0  0  3  0  0  0  0  0  0
  192.6230  175.2670  146.1790 C   0  0  2  0  0  3  0  0  0  0  0  0
  193.8000  175.3020  141.7620 S   0  0  0  0  0  0  0  0  0  0  0  0
  193.4890  174.0750  145.7630 C   0  0  0  0  0  2  0  0  0  0  0  0
  191.9320  174.9180  147.4980 C   0  0  0  0  0  2  0  0  0  0  0  0
  194.7180  176.2240  144.0440 O   0  0  0  0  0  0  0  0  0  0  0  0
  193.7570  174.0300  144.2540 C   0  0  1  0  0  3  0  0  0  0  0  0
  190.9410  175.9900  147.9540 C   0  0  0  0  0  2  0  0  0  0  0  0
  196.7540  177.1110  143.4320 O   0  0  0  0  0  0  0  0  0  0  0  0
  196.8850  174.4910  140.2000 C   0  0  0  0  0  2  0  0  0  0  0  0
  196.4460  174.6170  141.6450 C   0  0  0  0  0  3  0  0  0  0  0  0
  197.8330  175.0640  141.2310 C   0  0  0  0  0  2  0  0  0  0  0  0
  192.9500  172.9140  143.5780 C   0  0  0  0  0  2  0  0  0  0  0  0
  192.3600  172.0660  144.5160 O   0  0  0  0  0  1  0  0  0  0  0  0
  189.2500  174.8740  144.5740 O   0  0  0  0  0  1  0  0  0  0  0  0
  189.2150  176.0980  145.2520 C   0  0  2  0  0  3  0  0  0  0  0  0
  186.8010  178.8180  143.0930 O   0  0  0  0  0  0  0  0  0  0  0  0
  186.2210  178.3890  144.3060 C   0  0  0  0  0  2  0  0  0  0  0  0
  187.2130  177.6860  142.3310 C   0  0  1  0  0  3  0  0  0  0  0  0
  188.4190  177.1320  144.4460 C   0  0  1  0  0  3  0  0  0  0  0  0
  187.8910  176.5610  143.1340 C   0  0  0  0  0  2  0  0  0  0  0  0
  187.2690  177.7800  145.2440 C   0  0  2  0  0  3  0  0  0  0  0  0
  186.6400  176.8450  146.0690 O   0  0  0  0  0  1  0  0  0  0  0  0
  186.1910  177.1590  141.3090 C   0  0  0  0  0  3  0  0  0  0  0  0
  185.4540  178.2940  140.6200 C   0  0  0  0  0  2  0  0  0  0  0  0
  186.5350  177.5370  139.8780 C   0  0  0  0  0  2  0  0  0  0  0  0
  1 22  1  1  0  0  0
  1  3  1  0  0  0  0
  3 14  1  0  0  0  0
  4  2  1  6  0  0  0
  4  1  1  0  0  0  0
  4  8  1  0  0  0  0
  5  2  1  1  0  0  0
  5 12  1  0  0  0  0
  5 13  1  0  0  0  0
  6 15  2  0  0  0  0
  6 12  1  0  0  0  0
  7 17  1  1  0  0  0
  7  6  1  0  0  0  0
  8 10  1  6  0  0  0
  8 11  1  0  0  0  0
  9  7  1  0  0  0  0
  9  5  1  0  0  0  0
 11 14  1  0  0  0  0
 13 19  1  6  0  0  0
 13 10  1  0  0  0  0
 16 18  1  0  0  0  0
 16 17  1  0  0  0  0
 18 17  1  0  0  0  0
 19 20  1  0  0  0  0
 22 21  1  6  0  0  0
 23 24  1  0  0  0  0
 24 28  1  0  0  0  0
 25 30  1  1  0  0  0
 25 23  1  0  0  0  0
 25 27  1  0  0  0  0
 26 28  1  0  0  0  0
 26 22  1  1  0  0  0
 27 26  1  0  0  0  0
 28 29  1  6  0  0  0
 31 30  1  0  0  0  0
 32 31  1  0  0  0  0
 32 30  1  0  0  0  0
M  END
>  <MODEL>
3

>  <REMARK>
 VINA RESULT:      -6.9      3.611      5.274
  Name = 
  5 active torsions:
  status: ('A' for Active; 'I' for Inactive)
    1  A    between atoms: C_1  and  C_27
    2  A    between atoms: C_7  and  C_15
    3  A    between atoms: C_11  and  C_12
    4  A    between atoms: C_13  and  C_29
    5  A    between atoms: C_16  and  C_27
                            x       y       z     vdW  Elec       q    Type
                         _______ _______ _______ _____ _____    ______ ____

>  <TORSDO>
F 5

$$$$
=
 OpenBabel11052419063D

 32 37  0  0  1  0  0  0  0  0999 V2000
  191.6990  174.5000  145.4590 C   0  0  1  0  0  3  0  0  0  0  0  0
  189.5780  175.4330  145.0490 C   0  0  0  0  0  2  0  0  0  0  0  0
  192.7290  174.9100  146.5190 C   0  0  0  0  0  2  0  0  0  0  0  0
  191.0130  175.6280  144.7950 N   0  0  1  0  0  0  0  0  0  0  0  0
  188.7150  176.6760  144.7760 C   0  0  1  0  0  0  0  0  0  0  0  0
  187.0830  177.6280  146.2050 C   0  0  0  0  0  0  0  0  0  0  0  0
  186.1580  177.2630  145.1110 C   0  0  2  0  0  3  0  0  0  0  0  0
  191.4420  176.9550  145.2780 C   0  0  2  0  0  3  0  0  0  0  0  0
  187.1190  176.1530  144.0300 S   0  0  0  0  0  0  0  0  0  0  0  0
  190.8380  178.0600  144.4070 C   0  0  0  0  0  2  0  0  0  0  0  0
  192.9640  177.0970  145.2420 C   0  0  0  0  0  2  0  0  0  0  0  0
  188.4080  177.2910  146.0150 O   0  0  0  0  0  0  0  0  0  0  0  0
  189.4390  177.7090  143.8840 C   0  0  1  0  0  3  0  0  0  0  0  0
  193.6860  175.9700  145.9820 C   0  0  0  0  0  2  0  0  0  0  0  0
  186.6940  178.2030  147.2560 O   0  0  0  0  0  0  0  0  0  0  0  0
  184.4420  178.2640  143.6250 C   0  0  0  0  0  2  0  0  0  0  0  0
  185.7600  178.5080  144.3340 C   0  0  0  0  0  3  0  0  0  0  0  0
  184.4740  179.0730  144.9040 C   0  0  0  0  0  2  0  0  0  0  0  0
  189.4720  177.3730  142.3880 C   0  0  0  0  0  2  0  0  0  0  0  0
  188.7370  178.2910  141.6380 O   0  0  0  0  0  1  0  0  0  0  0  0
  191.4860  172.3970  144.3110 O   0  0  0  0  0  1  0  0  0  0  0  0
  192.2950  173.5320  144.4290 C   0  0  2  0  0  3  0  0  0  0  0  0
  196.2460  172.2880  145.2820 O   0  0  0  0  0  0  0  0  0  0  0  0
  196.0280  172.5750  143.9190 C   0  0  0  0  0  2  0  0  0  0  0  0
  195.2470  171.3860  145.7500 C   0  0  1  0  0  3  0  0  0  0  0  0
  193.7230  173.1320  144.8190 C   0  0  1  0  0  3  0  0  0  0  0  0
  193.8160  171.6750  145.2600 C   0  0  0  0  0  2  0  0  0  0  0  0
  194.7650  173.4210  143.7190 C   0  0  2  0  0  3  0  0  0  0  0  0
  194.2450  173.1520  142.4510 O   0  0  0  0  0  1  0  0  0  0  0  0
  195.6100  169.8920  145.6860 C   0  0  0  0  0  3  0  0  0  0  0  0
  197.0390  169.6460  146.1360 C   0  0  0  0  0  2  0  0  0  0  0  0
  195.8880  169.2910  147.0530 C   0  0  0  0  0  2  0  0  0  0  0  0
  1 22  1  6  0  0  0
  1  3  1  0  0  0  0
  4  2  1  1  0  0  0
  4  8  1  0  0  0  0
  4  1  1  0  0  0  0
  5  2  1  1  0  0  0
  5 12  1  0  0  0  0
  6 15  2  0  0  0  0
  7 17  1  6  0  0  0
  7  6  1  0  0  0  0
  8 10  1  6  0  0  0
  9  5  1  0  0  0  0
  9  7  1  0  0  0  0
 11  8  1  0  0  0  0
 11 14  1  0  0  0  0
 12  6  1  0  0  0  0
 13 19  1  6  0  0  0
 13 10  1  0  0  0  0
 13  5  1  0  0  0  0
 14  3  1  0  0  0  0
 16 17  1  0  0  0  0
 16 18  1  0  0  0  0
 17 18  1  0  0  0  0
 20 19  1  0  0  0  0
 22 21  1  1  0  0  0
 23 25  1  0  0  0  0
 24 23  1  0  0  0  0
 25 30  1  6  0  0  0
 26 22  1  6  0  0  0
 26 27  1  0  0  0  0
 27 25  1  0  0  0  0
 28 29  1  6  0  0  0
 28 24  1  0  0  0  0
 28 26  1  0  0  0  0
 30 31  1  0  0  0  0
 30 32  1  0  0  0  0
 31 32  1  0  0  0  0
M  END
>  <MODEL>
4

>  <REMARK>
 VINA RESULT:      -6.8      3.912      8.337
  Name = 
  5 active torsions:
  status: ('A' for Active; 'I' for Inactive)
    1  A    between atoms: C_1  and  C_27
    2  A    between atoms: C_7  and  C_15
    3  A    between atoms: C_11  and  C_12
    4  A    between atoms: C_13  and  C_29
    5  A    between atoms: C_16  and  C_27
                            x       y       z     vdW  Elec       q    Type
                         _______ _______ _______ _____ _____    ______ ____

>  <TORSDO>
F 5

$$$$
=
 OpenBabel11052419063D

 32 37  0  0  1  0  0  0  0  0999 V2000
  191.3730  174.2880  145.4960 C   0  0  1  0  0  3  0  0  0  0  0  0
  189.3370  175.3730  145.0300 C   0  0  0  0  0  2  0  0  0  0  0  0
  192.3930  174.6110  146.5950 C   0  0  0  0  0  2  0  0  0  0  0  0
  190.7900  175.4690  144.8260 N   0  0  1  0  0  0  0  0  0  0  0  0
  188.5740  176.6770  144.7450 C   0  0  1  0  0  0  0  0  0  0  0  0
  186.9650  177.7250  146.1340 C   0  0  0  0  0  0  0  0  0  0  0  0
  186.0540  177.4390  145.0040 C   0  0  2  0  0  3  0  0  0  0  0  0
  191.2950  176.7570  145.3410 C   0  0  2  0  0  3  0  0  0  0  0  0
  186.9710  176.2770  143.9400 S   0  0  0  0  0  0  0  0  0  0  0  0
  190.8000  177.9110  144.4660 C   0  0  0  0  0  2  0  0  0  0  0  0
  192.8240  176.7920  145.3560 C   0  0  0  0  0  2  0  0  0  0  0  0
  188.2690  177.2980  145.9820 O   0  0  0  0  0  0  0  0  0  0  0  0
  189.3980  177.6660  143.8920 C   0  0  1  0  0  3  0  0  0  0  0  0
  193.4390  175.6080  146.1040 C   0  0  0  0  0  2  0  0  0  0  0  0
  186.5820  178.3140  147.1790 O   0  0  0  0  0  0  0  0  0  0  0  0
  184.4470  178.5890  143.5050 C   0  0  0  0  0  2  0  0  0  0  0  0
  185.7710  178.7180  144.2320 C   0  0  0  0  0  3  0  0  0  0  0  0
  184.5290  179.3840  144.7900 C   0  0  0  0  0  2  0  0  0  0  0  0
  189.4580  177.3460  142.3940 C   0  0  0  0  0  2  0  0  0  0  0  0
  188.7640  178.2910  141.6370 O   0  0  0  0  0  1  0  0  0  0  0  0
  193.0380  172.6220  145.0100 O   0  0  0  0  0  1  0  0  0  0  0  0
  191.9340  173.2920  144.4730 C   0  0  2  0  0  3  0  0  0  0  0  0
  193.0690  175.0250  140.7860 O   0  0  0  0  0  0  0  0  0  0  0  0
  192.3900  173.7970  140.6460 C   0  0  0  0  0  2  0  0  0  0  0  0
  194.1470  174.8770  141.7060 C   0  0  1  0  0  3  0  0  0  0  0  0
  192.3220  174.0060  143.1730 C   0  0  1  0  0  3  0  0  0  0  0  0
  193.8320  174.0420  142.9610 C   0  0  0  0  0  2  0  0  0  0  0  0
  191.6250  173.4300  141.9230 C   0  0  2  0  0  3  0  0  0  0  0  0
  191.5260  172.0390  141.9990 O   0  0  0  0  0  1  0  0  0  0  0  0
  195.5130  174.5350  141.0870 C   0  0  0  0  0  3  0  0  0  0  0  0
  195.7390  175.2830  139.7860 C   0  0  0  0  0  2  0  0  0  0  0  0
  196.4580  175.7240  141.0440 C   0  0  0  0  0  2  0  0  0  0  0  0
  1 22  1  6  0  0  0
  1  3  1  0  0  0  0
  4  2  1  1  0  0  0
  4  8  1  0  0  0  0
  4  1  1  0  0  0  0
  5  2  1  1  0  0  0
  5 12  1  0  0  0  0
  6 15  2  0  0  0  0
  7 17  1  6  0  0  0
  7  6  1  0  0  0  0
  8 10  1  6  0  0  0
  8 11  1  0  0  0  0
  9  5  1  0  0  0  0
  9  7  1  0  0  0  0
 11 14  1  0  0  0  0
 12  6  1  0  0  0  0
 13 19  1  6  0  0  0
 13 10  1  0  0  0  0
 13  5  1  0  0  0  0
 14  3  1  0  0  0  0
 16 17  1  0  0  0  0
 16 18  1  0  0  0  0
 17 18  1  0  0  0  0
 20 19  1  0  0  0  0
 22 21  1  1  0  0  0
 23 25  1  0  0  0  0
 24 23  1  0  0  0  0
 24 28  1  0  0  0  0
 25 30  1  6  0  0  0
 25 27  1  0  0  0  0
 26 22  1  1  0  0  0
 27 26  1  0  0  0  0
 28 29  1  1  0  0  0
 28 26  1  0  0  0  0
 31 32  1  0  0  0  0
 31 30  1  0  0  0  0
 32 30  1  0  0  0  0
M  END
>  <MODEL>
5

>  <REMARK>
 VINA RESULT:      -6.8      2.893      7.748
  Name = 
  5 active torsions:
  status: ('A' for Active; 'I' for Inactive)
    1  A    between atoms: C_1  and  C_27
    2  A    between atoms: C_7  and  C_15
    3  A    between atoms: C_11  and  C_12
    4  A    between atoms: C_13  and  C_29
    5  A    between atoms: C_16  and  C_27
                            x       y       z     vdW  Elec       q    Type
                         _______ _______ _______ _____ _____    ______ ____

>  <TORSDO>
F 5

$$$$
=
 OpenBabel11052419063D

 32 37  0  0  1  0  0  0  0  0999 V2000
  191.0060  176.2580  146.5570 C   0  0  1  0  0  3  0  0  0  0  0  0
  192.9950  175.8610  145.3630 C   0  0  0  0  0  2  0  0  0  0  0  0
  190.2700  175.3150  147.5180 C   0  0  0  0  0  2  0  0  0  0  0  0
  191.5480  175.6070  145.3460 N   0  0  1  0  0  0  0  0  0  0  0  0
  193.8040  174.9670  144.4090 C   0  0  1  0  0  0  0  0  0  0  0  0
  195.7560  173.7260  144.9210 C   0  0  0  0  0  0  0  0  0  0  0  0
  196.3840  174.6290  143.9310 C   0  0  2  0  0  3  0  0  0  0  0  0
  191.2840  174.1550  145.2800 C   0  0  2  0  0  3  0  0  0  0  0  0
  195.1610  175.9530  143.6580 S   0  0  0  0  0  0  0  0  0  0  0  0
  191.6950  173.6010  143.9130 C   0  0  0  0  0  2  0  0  0  0  0  0
  189.8020  173.8460  145.4940 C   0  0  0  0  0  2  0  0  0  0  0  0
  194.4150  173.9380  145.1680 O   0  0  0  0  0  0  0  0  0  0  0  0
  192.9190  174.3150  143.3240 C   0  0  1  0  0  3  0  0  0  0  0  0
  189.2440  174.4610  146.7790 C   0  0  0  0  0  2  0  0  0  0  0  0
  196.4010  172.8220  145.5150 O   0  0  0  0  0  0  0  0  0  0  0  0
  197.8480  174.4450  141.9380 C   0  0  0  0  0  2  0  0  0  0  0  0
  196.6210  173.8820  142.6280 C   0  0  0  0  0  3  0  0  0  0  0  0
  197.9410  173.1410  142.7010 C   0  0  0  0  0  2  0  0  0  0  0  0
  192.5210  175.2350  142.1640 C   0  0  0  0  0  2  0  0  0  0  0  0
  191.7860  174.5520  141.1940 O   0  0  0  0  0  1  0  0  0  0  0  0
  189.2550  177.7650  147.2270 O   0  0  0  0  0  1  0  0  0  0  0  0
  190.1540  177.4810  146.1940 C   0  0  2  0  0  3  0  0  0  0  0  0
  188.1200  177.0970  142.5060 O   0  0  0  0  0  0  0  0  0  0  0  0
  189.2720  177.9070  142.4330 C   0  0  0  0  0  2  0  0  0  0  0  0
  187.2890  177.5380  143.5770 C   0  0  1  0  0  3  0  0  0  0  0  0
  189.4010  177.2490  144.8790 C   0  0  1  0  0  3  0  0  0  0  0  0
  188.0290  177.9160  144.8730 C   0  0  0  0  0  2  0  0  0  0  0  0
  190.2010  177.6720  143.6300 C   0  0  2  0  0  3  0  0  0  0  0  0
  190.9260  178.8420  143.8680 O   0  0  0  0  0  1  0  0  0  0  0  0
  186.1900  178.5460  143.1990 C   0  0  0  0  0  3  0  0  0  0  0  0
  185.5190  178.1760  141.8880 C   0  0  0  0  0  2  0  0  0  0  0  0
  184.8000  177.9350  143.1990 C   0  0  0  0  0  2  0  0  0  0  0  0
  1 22  1  6  0  0  0
  1  3  1  0  0  0  0
  4  2  1  1  0  0  0
  4  1  1  0  0  0  0
  5 12  1  0  0  0  0
  5  2  1  1  0  0  0
  6 12  1  0  0  0  0
  6 15  2  0  0  0  0
  7 17  1  6  0  0  0
  7  6  1  0  0  0  0
  8 10  1  6  0  0  0
  8  4  1  0  0  0  0
  8 11  1  0  0  0  0
  9  7  1  0  0  0  0
  9  5  1  0  0  0  0
 11 14  1  0  0  0  0
 13 19  1  6  0  0  0
 13 10  1  0  0  0  0
 13  5  1  0  0  0  0
 14  3  1  0  0  0  0
 16 17  1  0  0  0  0
 16 18  1  0  0  0  0
 17 18  1  0  0  0  0
 20 19  1  0  0  0  0
 22 21  1  1  0  0  0
 23 25  1  0  0  0  0
 24 23  1  0  0  0  0
 24 28  1  0  0  0  0
 25 30  1  6  0  0  0
 25 27  1  0  0  0  0
 26 22  1  1  0  0  0
 27 26  1  0  0  0  0
 28 29  1  1  0  0  0
 28 26  1  0  0  0  0
 31 32  1  0  0  0  0
 31 30  1  0  0  0  0
 32 30  1  0  0  0  0
M  END
>  <MODEL>
6

>  <REMARK>
 VINA RESULT:      -6.8      3.634      4.936
  Name = 
  5 active torsions:
  status: ('A' for Active; 'I' for Inactive)
    1  A    between atoms: C_1  and  C_27
    2  A    between atoms: C_7  and  C_15
    3  A    between atoms: C_11  and  C_12
    4  A    between atoms: C_13  and  C_29
    5  A    between atoms: C_16  and  C_27
                            x       y       z     vdW  Elec       q    Type
                         _______ _______ _______ _____ _____    ______ ____

>  <TORSDO>
F 5

$$$$
=
 OpenBabel11052419063D

 32 37  0  0  1  0  0  0  0  0999 V2000
  192.2710  175.2180  141.9840 C   0  0  1  0  0  3  0  0  0  0  0  0
  190.5910  176.1280  143.3580 C   0  0  0  0  0  2  0  0  0  0  0  0
  192.1260  174.1700  140.8720 C   0  0  0  0  0  2  0  0  0  0  0  0
  191.4610  174.9550  143.1910 N   0  0  1  0  0  0  0  0  0  0  0  0
  189.4140  175.9070  144.3220 C   0  0  1  0  0  0  0  0  0  0  0  0
  187.1330  176.4180  143.9350 C   0  0  0  0  0  0  0  0  0  0  0  0
  187.3300  177.3600  145.0590 C   0  0  2  0  0  3  0  0  0  0  0  0
  190.6500  173.7240  143.1090 C   0  0  2  0  0  3  0  0  0  0  0  0
  189.1350  177.4390  145.2980 S   0  0  0  0  0  0  0  0  0  0  0  0
  190.0050  173.4200  144.4640 C   0  0  0  0  0  2  0  0  0  0  0  0
  191.5020  172.5190  142.7050 C   0  0  0  0  0  2  0  0  0  0  0  0
  188.2420  175.6890  143.5560 O   0  0  0  0  0  0  0  0  0  0  0  0
  189.6300  174.6870  145.2430 C   0  0  1  0  0  3  0  0  0  0  0  0
  192.2960  172.7560  141.4180 C   0  0  0  0  0  2  0  0  0  0  0  0
  186.0270  176.2910  143.3460 O   0  0  0  0  0  0  0  0  0  0  0  0
  186.1900  177.9550  147.1800 C   0  0  0  0  0  2  0  0  0  0  0  0
  186.6760  176.8080  146.3160 C   0  0  0  0  0  3  0  0  0  0  0  0
  185.2070  177.1800  146.3290 C   0  0  0  0  0  2  0  0  0  0  0  0
  190.5840  174.9170  146.4220 C   0  0  0  0  0  2  0  0  0  0  0  0
  189.9050  174.9150  147.6410 O   0  0  0  0  0  1  0  0  0  0  0  0
  194.5720  175.0360  141.3050 O   0  0  0  0  0  1  0  0  0  0  0  0
  193.7410  175.4650  142.3460 C   0  0  2  0  0  3  0  0  0  0  0  0
  194.9960  173.5990  145.9280 O   0  0  0  0  0  0  0  0  0  0  0  0
  195.4920  174.9110  145.7710 C   0  0  0  0  0  2  0  0  0  0  0  0
  195.2750  172.8380  144.7560 C   0  0  1  0  0  3  0  0  0  0  0  0
  194.1080  174.7500  143.6510 C   0  0  1  0  0  3  0  0  0  0  0  0
  195.0520  173.5740  143.4220 C   0  0  0  0  0  2  0  0  0  0  0  0
  194.6880  175.6940  144.7260 C   0  0  2  0  0  3  0  0  0  0  0  0
  195.5210  176.6570  144.1530 O   0  0  0  0  0  1  0  0  0  0  0  0
  196.5820  172.0260  144.7800 C   0  0  0  0  0  3  0  0  0  0  0  0
  196.8180  171.3880  146.1370 C   0  0  0  0  0  2  0  0  0  0  0  0
  196.3510  170.5380  144.9750 C   0  0  0  0  0  2  0  0  0  0  0  0
  1 22  1  1  0  0  0
  1  4  1  0  0  0  0
  3 14  1  0  0  0  0
  3  1  1  0  0  0  0
  4  2  1  6  0  0  0
  5  2  1  6  0  0  0
  5 13  1  0  0  0  0
  5  9  1  0  0  0  0
  6  7  1  0  0  0  0
  7  9  1  0  0  0  0
  7 17  1  1  0  0  0
  8 11  1  1  0  0  0
  8  4  1  0  0  0  0
  8 10  1  0  0  0  0
 10 13  1  0  0  0  0
 12  6  1  0  0  0  0
 12  5  1  0  0  0  0
 13 19  1  1  0  0  0
 14 11  1  0  0  0  0
 15  6  2  0  0  0  0
 17 18  1  0  0  0  0
 17 16  1  0  0  0  0
 18 16  1  0  0  0  0
 19 20  1  0  0  0  0
 22 21  1  6  0  0  0
 24 23  1  0  0  0  0
 25 30  1  1  0  0  0
 25 23  1  0  0  0  0
 26 22  1  6  0  0  0
 26 28  1  0  0  0  0
 27 26  1  0  0  0  0
 27 25  1  0  0  0  0
 28 29  1  6  0  0  0
 28 24  1  0  0  0  0
 30 32  1  0  0  0  0
 30 31  1  0  0  0  0
 32 31  1  0  0  0  0
M  END
>  <MODEL>
7

>  <REMARK>
 VINA RESULT:      -6.7      3.264      7.787
  Name = 
  5 active torsions:
  status: ('A' for Active; 'I' for Inactive)
    1  A    between atoms: C_1  and  C_27
    2  A    between atoms: C_7  and  C_15
    3  A    between atoms: C_11  and  C_12
    4  A    between atoms: C_13  and  C_29
    5  A    between atoms: C_16  and  C_27
                            x       y       z     vdW  Elec       q    Type
                         _______ _______ _______ _____ _____    ______ ____

>  <TORSDO>
F 5

$$$$
=
 OpenBabel11052419063D

 32 37  0  0  1  0  0  0  0  0999 V2000
  190.9810  174.5080  145.9050 C   0  0  1  0  0  3  0  0  0  0  0  0
  188.9190  175.6410  145.9580 C   0  0  0  0  0  2  0  0  0  0  0  0
  192.3120  174.9270  146.5420 C   0  0  0  0  0  2  0  0  0  0  0  0
  190.2220  175.6100  145.2780 N   0  0  1  0  0  0  0  0  0  0  0  0
  188.1180  176.9340  145.7290 C   0  0  1  0  0  0  0  0  0  0  0  0
  187.0750  178.2810  147.3760 C   0  0  0  0  0  0  0  0  0  0  0  0
  185.8370  177.8880  146.6690 C   0  0  2  0  0  3  0  0  0  0  0  0
  190.8840  176.9260  145.3820 C   0  0  2  0  0  3  0  0  0  0  0  0
  186.3350  176.5220  145.5680 S   0  0  0  0  0  0  0  0  0  0  0  0
  190.1380  177.9650  144.5400 C   0  0  0  0  0  2  0  0  0  0  0  0
  192.3310  176.8630  144.8920 C   0  0  0  0  0  2  0  0  0  0  0  0
  188.2490  177.7520  146.8790 O   0  0  0  0  0  0  0  0  0  0  0  0
  188.6230  177.7270  144.5040 C   0  0  1  0  0  3  0  0  0  0  0  0
  193.1470  175.7680  145.5810 C   0  0  0  0  0  2  0  0  0  0  0  0
  187.0680  179.0440  148.3770 O   0  0  0  0  0  0  0  0  0  0  0  0
  184.7230  178.5250  144.5460 C   0  0  0  0  0  2  0  0  0  0  0  0
  185.3280  179.0520  145.8330 C   0  0  0  0  0  3  0  0  0  0  0  0
  183.8230  178.9500  145.6860 C   0  0  0  0  0  2  0  0  0  0  0  0
  188.1780  177.1820  143.1420 C   0  0  0  0  0  2  0  0  0  0  0  0
  189.2400  177.1200  142.2400 O   0  0  0  0  0  1  0  0  0  0  0  0
  192.4730  172.8600  144.9870 O   0  0  0  0  0  1  0  0  0  0  0  0
  191.1590  173.3360  144.9320 C   0  0  2  0  0  3  0  0  0  0  0  0
  190.1400  174.2360  140.9270 O   0  0  0  0  0  0  0  0  0  0  0  0
  189.3730  173.1900  141.4830 C   0  0  0  0  0  2  0  0  0  0  0  0
  191.5260  173.9700  141.1210 C   0  0  1  0  0  3  0  0  0  0  0  0
  190.8010  173.7550  143.5010 C   0  0  1  0  0  3  0  0  0  0  0  0
  191.9040  173.4110  142.5050 C   0  0  0  0  0  2  0  0  0  0  0  0
  189.4510  173.1890  143.0140 C   0  0  2  0  0  3  0  0  0  0  0  0
  189.2600  171.8830  143.4690 O   0  0  0  0  0  1  0  0  0  0  0  0
  192.2350  173.2390  139.9670 C   0  0  0  0  0  3  0  0  0  0  0  0
  191.6470  173.6200  138.6200 C   0  0  0  0  0  2  0  0  0  0  0  0
  192.9880  174.1810  139.0440 C   0  0  0  0  0  2  0  0  0  0  0  0
  1 22  1  6  0  0  0
  1  3  1  0  0  0  0
  4  8  1  0  0  0  0
  4  1  1  0  0  0  0
  4  2  1  1  0  0  0
  5  2  1  1  0  0  0
  5 12  1  0  0  0  0
  6 15  2  0  0  0  0
  7 17  1  6  0  0  0
  7  6  1  0  0  0  0
  8 10  1  6  0  0  0
  9  5  1  0  0  0  0
  9  7  1  0  0  0  0
 11  8  1  0  0  0  0
 11 14  1  0  0  0  0
 12  6  1  0  0  0  0
 13 19  1  6  0  0  0
 13 10  1  0  0  0  0
 13  5  1  0  0  0  0
 14  3  1  0  0  0  0
 16 18  1  0  0  0  0
 16 17  1  0  0  0  0
 18 17  1  0  0  0  0
 20 19  1  0  0  0  0
 22 21  1  6  0  0  0
 23 25  1  0  0  0  0
 23 24  1  0  0  0  0
 24 28  1  0  0  0  0
 25 30  1  6  0  0  0
 25 27  1  0  0  0  0
 26 22  1  1  0  0  0
 27 26  1  0  0  0  0
 28 29  1  6  0  0  0
 28 26  1  0  0  0  0
 31 32  1  0  0  0  0
 31 30  1  0  0  0  0
 32 30  1  0  0  0  0
M  END
>  <MODEL>
8

>  <REMARK>
 VINA RESULT:      -6.7      2.671      7.742
  Name = 
  5 active torsions:
  status: ('A' for Active; 'I' for Inactive)
    1  A    between atoms: C_1  and  C_27
    2  A    between atoms: C_7  and  C_15
    3  A    between atoms: C_11  and  C_12
    4  A    between atoms: C_13  and  C_29
    5  A    between atoms: C_16  and  C_27
                            x       y       z     vdW  Elec       q    Type
                         _______ _______ _______ _____ _____    ______ ____

>  <TORSDO>
F 5

$$$$
=
 OpenBabel11052419063D

 32 37  0  0  1  0  0  0  0  0999 V2000
  191.4980  174.0220  144.5780 C   0  0  1  0  0  3  0  0  0  0  0  0
  189.4340  175.1500  144.5170 C   0  0  0  0  0  2  0  0  0  0  0  0
  192.4210  173.7930  145.7820 C   0  0  0  0  0  2  0  0  0  0  0  0
  190.8880  175.3660  144.5130 N   0  0  1  0  0  0  0  0  0  0  0  0
  188.6100  176.4100  144.8310 C   0  0  1  0  0  0  0  0  0  0  0  0
  186.8510  176.6130  146.4060 C   0  0  0  0  0  0  0  0  0  0  0  0
  186.0360  176.8910  145.2030 C   0  0  2  0  0  3  0  0  0  0  0  0
  191.2760  176.2520  145.6290 C   0  0  2  0  0  3  0  0  0  0  0  0
  187.0920  176.4150  143.7950 S   0  0  0  0  0  0  0  0  0  0  0  0
  190.7680  177.6750  145.3790 C   0  0  0  0  0  2  0  0  0  0  0  0
  192.7950  176.3100  145.7930 C   0  0  0  0  0  2  0  0  0  0  0  0
  188.1860  176.3430  146.1820 O   0  0  0  0  0  0  0  0  0  0  0  0
  189.4250  177.7070  144.6380 C   0  0  1  0  0  3  0  0  0  0  0  0
  193.4330  174.9260  145.9280 C   0  0  0  0  0  2  0  0  0  0  0  0
  186.3640  176.6100  147.5670 O   0  0  0  0  0  0  0  0  0  0  0  0
  184.4410  178.5850  144.3440 C   0  0  0  0  0  2  0  0  0  0  0  0
  185.7250  178.3780  145.1230 C   0  0  0  0  0  3  0  0  0  0  0  0
  184.4290  178.6660  145.8550 C   0  0  0  0  0  2  0  0  0  0  0  0
  189.6030  178.1580  143.1830 C   0  0  0  0  0  2  0  0  0  0  0  0
  190.9510  178.2640  142.8390 O   0  0  0  0  0  1  0  0  0  0  0  0
  192.7110  174.8130  142.6570 O   0  0  0  0  0  1  0  0  0  0  0  0
  192.1870  173.6620  143.2560 C   0  0  2  0  0  3  0  0  0  0  0  0
  189.6830  171.7230  140.4520 O   0  0  0  0  0  0  0  0  0  0  0  0
  191.0070  171.2350  140.4590 C   0  0  0  0  0  2  0  0  0  0  0  0
  189.6950  173.1420  140.3260 C   0  0  1  0  0  3  0  0  0  0  0  0
  191.2090  172.9630  142.3040 C   0  0  1  0  0  3  0  0  0  0  0  0
  190.7640  173.8700  141.1620 C   0  0  0  0  0  2  0  0  0  0  0  0
  191.7440  171.6290  141.7440 C   0  0  2  0  0  3  0  0  0  0  0  0
  193.1100  171.7120  141.4660 O   0  0  0  0  0  1  0  0  0  0  0  0
  189.5850  173.6880  138.8910 C   0  0  0  0  0  3  0  0  0  0  0  0
  188.6540  172.8410  138.0420 C   0  0  0  0  0  2  0  0  0  0  0  0
  188.1920  174.1890  138.5530 C   0  0  0  0  0  2  0  0  0  0  0  0
  1 22  1  6  0  0  0
  1  3  1  0  0  0  0
  3 14  1  0  0  0  0
  4  2  1  1  0  0  0
  4  1  1  0  0  0  0
  4  8  1  0  0  0  0
  5  2  1  6  0  0  0
  5 12  1  0  0  0  0
  6 15  2  0  0  0  0
  7 17  1  6  0  0  0
  7  6  1  0  0  0  0
  8 10  1  6  0  0  0
  8 11  1  0  0  0  0
  9  5  1  0  0  0  0
  9  7  1  0  0  0  0
 11 14  1  0  0  0  0
 12  6  1  0  0  0  0
 13 19  1  6  0  0  0
 13  5  1  0  0  0  0
 13 10  1  0  0  0  0
 16 17  1  0  0  0  0
 16 18  1  0  0  0  0
 17 18  1  0  0  0  0
 20 19  1  0  0  0  0
 22 21  1  6  0  0  0
 23 24  1  0  0  0  0
 24 28  1  0  0  0  0
 25 30  1  6  0  0  0
 25 23  1  0  0  0  0
 25 27  1  0  0  0  0
 26 22  1  6  0  0  0
 27 26  1  0  0  0  0
 28 29  1  6  0  0  0
 28 26  1  0  0  0  0
 31 32  1  0  0  0  0
 31 30  1  0  0  0  0
 32 30  1  0  0  0  0
M  END
>  <MODEL>
9

>  <REMARK>
 VINA RESULT:      -6.6      2.261      7.374
  Name = 
  5 active torsions:
  status: ('A' for Active; 'I' for Inactive)
    1  A    between atoms: C_1  and  C_27
    2  A    between atoms: C_7  and  C_15
    3  A    between atoms: C_11  and  C_12
    4  A    between atoms: C_13  and  C_29
    5  A    between atoms: C_16  and  C_27
                            x       y       z     vdW  Elec       q    Type
                         _______ _______ _______ _____ _____    ______ ____

>  <TORSDO>
F 5

$$$$
