=
 OpenBabel11052417323D

 25 29  0  0  1  0  0  0  0  0999 V2000
  185.9720  177.4280  142.8950 C   0  0  2  0  0  3  0  0  0  0  0  0
  186.5190  177.6350  144.2800 C   0  0  0  0  0  0  0  0  0  0  0  0
  183.8600  178.5220  143.4920 C   0  0  0  0  0  2  0  0  0  0  0  0
  186.9730  177.3680  141.7600 C   0  0  2  0  0  3  0  0  0  0  0  0
  187.3810  175.9950  139.2620 C   0  0  0  0  0  3  0  0  0  0  0  0
  184.3550  178.8490  144.9120 C   0  0  0  0  0  2  0  0  0  0  0  0
  186.2020  177.6310  140.5430 N   0  0  0  0  0  0  0  0  0  0  0  0
  186.5500  177.0360  139.2890 C   0  0  0  0  0  3  0  0  0  0  0  0
  186.1840  178.3250  146.5740 C   0  0  0  0  0  0  0  0  0  0  0  0
  185.4260  178.9300  147.5700 O   0  0  0  0  0  1  0  0  0  0  0  0
  187.7320  177.1250  144.6250 N   0  0  0  0  0  0  0  0  0  0  0  0
  187.8980  175.4310  140.5230 C   0  0  0  0  0  3  0  0  0  0  0  0
  185.0400  178.5650  142.5410 C   0  0  2  0  0  3  0  0  0  0  0  0
  184.6120  178.3640  140.7900 S   0  0  0  0  0  0  0  0  0  0  0  0
  187.4420  177.8120  146.8890 C   0  0  0  0  0  3  0  0  0  0  0  0
  187.6750  176.0350  141.6930 C   0  0  0  0  0  3  0  0  0  0  0  0
  188.2200  177.2050  145.8940 C   0  0  0  0  0  0  0  0  0  0  0  0
  185.6960  178.2300  145.2650 C   0  0  0  0  0  0  0  0  0  0  0  0
  191.9290  176.4410  145.7360 C   0  0  0  0  0  0  0  0  0  0  0  0
  189.5520  176.6460  146.2080 C   0  0  0  0  0  0  0  0  0  0  0  0
  190.6750  176.9740  145.4310 C   0  0  0  0  0  3  0  0  0  0  0  0
  193.1100  176.7950  144.9060 C   0  0  0  0  0  1  0  0  0  0  0  0
  189.7090  175.7750  147.2970 C   0  0  0  0  0  3  0  0  0  0  0  0
  192.0750  175.5740  146.8230 C   0  0  0  0  0  3  0  0  0  0  0  0
  190.9650  175.2410  147.6030 C   0  0  0  0  0  3  0  0  0  0  0  0
  1  2  1  1  0  0  0
  2 11  2  0  0  0  0
  2 18  1  0  0  0  0
  3  6  1  0  0  0  0
  4 16  1  6  0  0  0
  4  1  1  0  0  0  0
  5  8  2  0  0  0  0
  5 12  1  0  0  0  0
  6 18  1  0  0  0  0
  7 14  1  0  0  0  0
  7  4  1  0  0  0  0
  8  7  1  0  0  0  0
  9 15  1  0  0  0  0
  9 10  1  0  0  0  0
 11 17  1  0  0  0  0
 12 16  2  0  0  0  0
 13  1  1  0  0  0  0
 13  3  1  1  0  0  0
 14 13  1  0  0  0  0
 17 20  1  0  0  0  0
 17 15  2  0  0  0  0
 18  9  2  0  0  0  0
 19 24  1  0  0  0  0
 20 23  2  0  0  0  0
 21 19  2  0  0  0  0
 21 20  1  0  0  0  0
 22 19  1  0  0  0  0
 23 25  1  0  0  0  0
 24 25  2  0  0  0  0
M  END
>  <MODEL>
1

>  <REMARK>
 VINA RESULT:      -8.3      0.000      0.000
  Name = 
  1 active torsions:
  status: ('A' for Active; 'I' for Inactive)
    1  A    between atoms: C_6  and  C_23
                            x       y       z     vdW  Elec       q    Type
                         _______ _______ _______ _____ _____    ______ ____

>  <TORSDO>
F 1

$$$$
=
 OpenBabel11052417323D

 25 29  0  0  1  0  0  0  0  0999 V2000
  190.8630  174.3540  144.3950 C   0  0  2  0  0  3  0  0  0  0  0  0
  190.3460  175.3020  145.4410 C   0  0  0  0  0  0  0  0  0  0  0  0
  193.0600  174.2500  145.4800 C   0  0  0  0  0  2  0  0  0  0  0  0
  189.8520  173.4500  143.7220 C   0  0  2  0  0  3  0  0  0  0  0  0
  189.3160  172.2910  141.1420 C   0  0  0  0  0  3  0  0  0  0  0  0
  192.6040  175.1550  146.6380 C   0  0  0  0  0  2  0  0  0  0  0  0
  190.6320  172.3590  143.1350 N   0  0  0  0  0  0  0  0  0  0  0  0
  190.2280  171.7120  141.9230 C   0  0  0  0  0  3  0  0  0  0  0  0
  190.7520  176.7130  147.3630 C   0  0  0  0  0  0  0  0  0  0  0  0
  191.5640  177.1660  148.3970 O   0  0  0  0  0  1  0  0  0  0  0  0
  189.0990  175.8350  145.3310 N   0  0  0  0  0  0  0  0  0  0  0  0
  188.7660  173.6110  141.5010 C   0  0  0  0  0  3  0  0  0  0  0  0
  191.8800  173.4210  145.0130 C   0  0  2  0  0  3  0  0  0  0  0  0
  192.2770  172.1750  143.7570 S   0  0  0  0  0  0  0  0  0  0  0  0
  189.4600  177.2220  147.2360 C   0  0  0  0  0  3  0  0  0  0  0  0
  189.0460  174.1790  142.6770 C   0  0  0  0  0  3  0  0  0  0  0  0
  188.6290  176.7700  146.2020 C   0  0  0  0  0  0  0  0  0  0  0  0
  191.2200  175.7550  146.4560 C   0  0  0  0  0  0  0  0  0  0  0  0
  185.6710  178.7680  144.9240 C   0  0  0  0  0  0  0  0  0  0  0  0
  187.2590  177.3030  146.0430 C   0  0  0  0  0  0  0  0  0  0  0  0
  186.9690  178.2700  145.0670 C   0  0  0  0  0  3  0  0  0  0  0  0
  185.3770  179.7910  143.8880 C   0  0  0  0  0  1  0  0  0  0  0  0
  186.2250  176.8430  146.8730 C   0  0  0  0  0  3  0  0  0  0  0  0
  184.6490  178.3030  145.7560 C   0  0  0  0  0  3  0  0  0  0  0  0
  184.9260  177.3410  146.7310 C   0  0  0  0  0  3  0  0  0  0  0  0
  1 13  1  0  0  0  0
  1  2  1  1  0  0  0
  2 18  1  0  0  0  0
  3  6  1  0  0  0  0
  4 16  1  6  0  0  0
  4  1  1  0  0  0  0
  5 12  1  0  0  0  0
  5  8  2  0  0  0  0
  7  4  1  0  0  0  0
  7 14  1  0  0  0  0
  8  7  1  0  0  0  0
  9 10  1  0  0  0  0
 11  2  2  0  0  0  0
 11 17  1  0  0  0  0
 12 16  2  0  0  0  0
 13  3  1  6  0  0  0
 14 13  1  0  0  0  0
 15  9  1  0  0  0  0
 17 15  2  0  0  0  0
 18  6  1  0  0  0  0
 18  9  2  0  0  0  0
 19 21  2  0  0  0  0
 19 24  1  0  0  0  0
 20 17  1  0  0  0  0
 20 23  2  0  0  0  0
 21 20  1  0  0  0  0
 22 19  1  0  0  0  0
 24 25  2  0  0  0  0
 25 23  1  0  0  0  0
M  END
>  <MODEL>
2

>  <REMARK>
 VINA RESULT:      -8.2      3.373      6.211
  Name = 
  1 active torsions:
  status: ('A' for Active; 'I' for Inactive)
    1  A    between atoms: C_6  and  C_23
                            x       y       z     vdW  Elec       q    Type
                         _______ _______ _______ _____ _____    ______ ____

>  <TORSDO>
F 1

$$$$
=
 OpenBabel11052417323D

 25 29  0  0  1  0  0  0  0  0999 V2000
  191.9540  175.0630  143.5290 C   0  0  2  0  0  3  0  0  0  0  0  0
  190.5340  175.2810  143.0860 C   0  0  0  0  0  0  0  0  0  0  0  0
  192.4030  173.6140  141.6020 C   0  0  0  0  0  2  0  0  0  0  0  0
  192.6040  176.1700  144.3300 C   0  0  2  0  0  3  0  0  0  0  0  0
  194.4550  176.5080  146.5100 C   0  0  0  0  0  3  0  0  0  0  0  0
  190.9950  173.8340  141.0240 C   0  0  0  0  0  2  0  0  0  0  0  0
  194.0460  175.9340  144.2270 N   0  0  0  0  0  0  0  0  0  0  0  0
  194.9410  176.2700  145.2920 C   0  0  0  0  0  3  0  0  0  0  0  0
  188.7070  174.7440  141.5940 C   0  0  0  0  0  0  0  0  0  0  0  0
  188.1990  174.1270  140.4560 O   0  0  0  0  0  1  0  0  0  0  0  0
  189.6730  175.9970  143.8590 N   0  0  0  0  0  0  0  0  0  0  0  0
  193.0090  176.3790  146.7660 C   0  0  0  0  0  3  0  0  0  0  0  0
  192.8410  174.8760  142.3190 C   0  0  2  0  0  3  0  0  0  0  0  0
  194.5500  174.8520  142.9230 S   0  0  0  0  0  0  0  0  0  0  0  0
  187.8570  175.5040  142.3960 C   0  0  0  0  0  3  0  0  0  0  0  0
  192.1460  176.1750  145.7670 C   0  0  0  0  0  3  0  0  0  0  0  0
  188.3560  176.1370  143.5430 C   0  0  0  0  0  0  0  0  0  0  0  0
  190.0580  174.6080  141.9360 C   0  0  0  0  0  0  0  0  0  0  0  0
  185.9850  178.8360  144.7510 C   0  0  0  0  0  0  0  0  0  0  0  0
  187.4700  176.9400  144.4120 C   0  0  0  0  0  0  0  0  0  0  0  0
  186.8200  178.0840  143.9220 C   0  0  0  0  0  3  0  0  0  0  0  0
  185.3030  180.0450  144.2210 C   0  0  0  0  0  1  0  0  0  0  0  0
  187.2680  176.5630  145.7490 C   0  0  0  0  0  3  0  0  0  0  0  0
  185.7900  178.4520  146.0810 C   0  0  0  0  0  3  0  0  0  0  0  0
  186.4320  177.3150  146.5790 C   0  0  0  0  0  3  0  0  0  0  0  0
  1  2  1  6  0  0  0
  1  4  1  0  0  0  0
  2 11  1  0  0  0  0
  4 16  1  1  0  0  0
  5 12  1  0  0  0  0
  6  3  1  0  0  0  0
  6 18  1  0  0  0  0
  7  4  1  0  0  0  0
  7  8  1  0  0  0  0
  8  5  2  0  0  0  0
  9 18  1  0  0  0  0
  9 15  2  0  0  0  0
 10  9  1  0  0  0  0
 13  3  1  1  0  0  0
 13 14  1  0  0  0  0
 13  1  1  0  0  0  0
 14  7  1  0  0  0  0
 15 17  1  0  0  0  0
 16 12  2  0  0  0  0
 17 11  2  0  0  0  0
 17 20  1  0  0  0  0
 18  2  2  0  0  0  0
 19 24  1  0  0  0  0
 20 23  2  0  0  0  0
 21 20  1  0  0  0  0
 21 19  2  0  0  0  0
 22 19  1  0  0  0  0
 23 25  1  0  0  0  0
 24 25  2  0  0  0  0
M  END
>  <MODEL>
3

>  <REMARK>
 VINA RESULT:      -8.0      3.669      7.211
  Name = 
  1 active torsions:
  status: ('A' for Active; 'I' for Inactive)
    1  A    between atoms: C_6  and  C_23
                            x       y       z     vdW  Elec       q    Type
                         _______ _______ _______ _____ _____    ______ ____

>  <TORSDO>
F 1

$$$$
=
 OpenBabel11052417323D

 25 29  0  0  1  0  0  0  0  0999 V2000
  190.3560  174.7260  143.9570 C   0  0  2  0  0  3  0  0  0  0  0  0
  189.2900  175.2710  143.0480 C   0  0  0  0  0  0  0  0  0  0  0  0
  191.3650  173.4520  142.1220 C   0  0  0  0  0  2  0  0  0  0  0  0
  190.7570  175.5820  145.1400 C   0  0  2  0  0  3  0  0  0  0  0  0
  191.5660  175.2910  147.8880 C   0  0  0  0  0  3  0  0  0  0  0  0
  190.3650  174.0110  141.0950 C   0  0  0  0  0  2  0  0  0  0  0  0
  192.0660  175.0790  145.5610 N   0  0  0  0  0  0  0  0  0  0  0  0
  192.4760  175.1040  146.9320 C   0  0  0  0  0  3  0  0  0  0  0  0
  188.1910  175.2830  140.8930 C   0  0  0  0  0  0  0  0  0  0  0  0
  188.1230  174.9150  139.5540 O   0  0  0  0  0  1  0  0  0  0  0  0
  188.2900  176.0480  143.5460 N   0  0  0  0  0  0  0  0  0  0  0  0
  190.1410  175.4210  147.5350 C   0  0  0  0  0  3  0  0  0  0  0  0
  191.6310  174.5090  143.1740 C   0  0  2  0  0  3  0  0  0  0  0  0
  192.9160  174.0780  144.3780 S   0  0  0  0  0  0  0  0  0  0  0  0
  187.1950  176.0980  141.4300 C   0  0  0  0  0  3  0  0  0  0  0  0
  189.7500  175.5100  146.2600 C   0  0  0  0  0  3  0  0  0  0  0  0
  187.2540  176.4810  142.7760 C   0  0  0  0  0  0  0  0  0  0  0  0
  189.2480  174.8440  141.7000 C   0  0  0  0  0  0  0  0  0  0  0  0
  185.2950  178.5830  145.2490 C   0  0  0  0  0  0  0  0  0  0  0  0
  186.2030  177.3360  143.3680 C   0  0  0  0  0  0  0  0  0  0  0  0
  186.2930  177.7750  144.6990 C   0  0  0  0  0  3  0  0  0  0  0  0
  185.4020  179.0410  146.6590 C   0  0  0  0  0  1  0  0  0  0  0  0
  185.0950  177.7220  142.5980 C   0  0  0  0  0  3  0  0  0  0  0  0
  184.1960  178.9620  144.4740 C   0  0  0  0  0  3  0  0  0  0  0  0
  184.0960  178.5310  143.1480 C   0  0  0  0  0  3  0  0  0  0  0  0
  1  2  1  6  0  0  0
  1  4  1  0  0  0  0
  2 11  1  0  0  0  0
  4  7  1  0  0  0  0
  4 16  1  1  0  0  0
  6 18  1  0  0  0  0
  6  3  1  0  0  0  0
  7  8  1  0  0  0  0
  8  5  2  0  0  0  0
  9 15  2  0  0  0  0
  9 18  1  0  0  0  0
 10  9  1  0  0  0  0
 12  5  1  0  0  0  0
 13  3  1  6  0  0  0
 13  1  1  0  0  0  0
 13 14  1  0  0  0  0
 14  7  1  0  0  0  0
 15 17  1  0  0  0  0
 16 12  2  0  0  0  0
 17 20  1  0  0  0  0
 17 11  2  0  0  0  0
 18  2  2  0  0  0  0
 19 22  1  0  0  0  0
 20 21  2  0  0  0  0
 21 19  1  0  0  0  0
 23 25  2  0  0  0  0
 23 20  1  0  0  0  0
 24 19  2  0  0  0  0
 25 24  1  0  0  0  0
M  END
>  <MODEL>
4

>  <REMARK>
 VINA RESULT:      -7.7      3.329      7.218
  Name = 
  1 active torsions:
  status: ('A' for Active; 'I' for Inactive)
    1  A    between atoms: C_6  and  C_23
                            x       y       z     vdW  Elec       q    Type
                         _______ _______ _______ _____ _____    ______ ____

>  <TORSDO>
F 1

$$$$
=
 OpenBabel11052417323D

 25 29  0  0  1  0  0  0  0  0999 V2000
  189.7860  173.7110  142.3390 C   0  0  2  0  0  3  0  0  0  0  0  0
  189.3840  174.5000  143.5540 C   0  0  0  0  0  0  0  0  0  0  0  0
  191.5430  172.5480  143.5920 C   0  0  0  0  0  2  0  0  0  0  0  0
  188.7110  173.4350  141.3090 C   0  0  2  0  0  3  0  0  0  0  0  0
  188.4080  173.2160  138.4540 C   0  0  0  0  0  3  0  0  0  0  0  0
  191.1600  173.2470  144.9080 C   0  0  0  0  0  2  0  0  0  0  0  0
  189.2100  172.3110  140.5150 N   0  0  0  0  0  0  0  0  0  0  0  0
  188.8940  172.1720  139.1250 C   0  0  0  0  0  3  0  0  0  0  0  0
  189.7910  175.1520  145.8480 C   0  0  0  0  0  0  0  0  0  0  0  0
  190.4600  175.0090  147.0580 O   0  0  0  0  0  1  0  0  0  0  0  0
  188.4280  175.4640  143.4640 N   0  0  0  0  0  0  0  0  0  0  0  0
  188.2440  174.5160  139.1290 C   0  0  0  0  0  3  0  0  0  0  0  0
  190.2920  172.3510  142.7600 C   0  0  2  0  0  3  0  0  0  0  0  0
  190.5340  171.3900  141.2410 S   0  0  0  0  0  0  0  0  0  0  0  0
  188.7890  176.1150  145.7290 C   0  0  0  0  0  3  0  0  0  0  0  0
  188.4280  174.6390  140.4470 C   0  0  0  0  0  3  0  0  0  0  0  0
  188.1030  176.2650  144.5170 C   0  0  0  0  0  0  0  0  0  0  0  0
  190.1150  174.3390  144.7540 C   0  0  0  0  0  0  0  0  0  0  0  0
  185.0450  178.4020  145.1870 C   0  0  0  0  0  0  0  0  0  0  0  0
  187.0450  177.2860  144.3660 C   0  0  0  0  0  0  0  0  0  0  0  0
  186.0410  177.4350  145.3380 C   0  0  0  0  0  3  0  0  0  0  0  0
  183.9890  178.5500  146.2210 C   0  0  0  0  0  1  0  0  0  0  0  0
  187.0320  178.1250  143.2410 C   0  0  0  0  0  3  0  0  0  0  0  0
  185.0410  179.2330  144.0620 C   0  0  0  0  0  3  0  0  0  0  0  0
  186.0350  179.0940  143.0900 C   0  0  0  0  0  3  0  0  0  0  0  0
  1 13  1  0  0  0  0
  1  2  1  1  0  0  0
  2 18  1  0  0  0  0
  3  6  1  0  0  0  0
  4 16  1  6  0  0  0
  4  1  1  0  0  0  0
  5  8  2  0  0  0  0
  5 12  1  0  0  0  0
  7 14  1  0  0  0  0
  7  4  1  0  0  0  0
  8  7  1  0  0  0  0
  9 10  1  0  0  0  0
 11  2  2  0  0  0  0
 11 17  1  0  0  0  0
 12 16  2  0  0  0  0
 13  3  1  6  0  0  0
 14 13  1  0  0  0  0
 15  9  1  0  0  0  0
 17 15  2  0  0  0  0
 18  6  1  0  0  0  0
 18  9  2  0  0  0  0
 19 21  1  0  0  0  0
 19 22  1  0  0  0  0
 20 17  1  0  0  0  0
 20 21  2  0  0  0  0
 23 20  1  0  0  0  0
 24 19  2  0  0  0  0
 25 23  2  0  0  0  0
 25 24  1  0  0  0  0
M  END
>  <MODEL>
5

>  <REMARK>
 VINA RESULT:      -7.7      3.403      6.049
  Name = 
  1 active torsions:
  status: ('A' for Active; 'I' for Inactive)
    1  A    between atoms: C_6  and  C_23
                            x       y       z     vdW  Elec       q    Type
                         _______ _______ _______ _____ _____    ______ ____

>  <TORSDO>
F 1

$$$$
=
 OpenBabel11052417323D

 25 29  0  0  1  0  0  0  0  0999 V2000
  186.3190  177.7100  143.9430 C   0  0  2  0  0  3  0  0  0  0  0  0
  187.0490  176.7320  143.0650 C   0  0  0  0  0  0  0  0  0  0  0  0
  185.1440  178.6660  142.0150 C   0  0  0  0  0  2  0  0  0  0  0  0
  186.0600  177.2920  145.3750 C   0  0  2  0  0  3  0  0  0  0  0  0
  185.9490  178.4410  148.0130 C   0  0  0  0  0  3  0  0  0  0  0  0
  185.7820  177.6590  141.0430 C   0  0  0  0  0  2  0  0  0  0  0  0
  184.9790  178.1590  145.8470 N   0  0  0  0  0  0  0  0  0  0  0  0
  184.8900  178.5740  147.2140 C   0  0  0  0  0  3  0  0  0  0  0  0
  187.6170  175.9320  140.8540 C   0  0  0  0  0  0  0  0  0  0  0  0
  187.4410  175.9240  139.4750 O   0  0  0  0  0  1  0  0  0  0  0  0
  187.9950  175.9070  143.5910 N   0  0  0  0  0  0  0  0  0  0  0  0
  187.2170  177.9160  147.4750 C   0  0  0  0  0  3  0  0  0  0  0  0
  184.9530  177.9950  143.3600 C   0  0  2  0  0  3  0  0  0  0  0  0
  184.0590  178.9890  144.5850 S   0  0  0  0  0  0  0  0  0  0  0  0
  188.5630  175.0820  141.4280 C   0  0  0  0  0  3  0  0  0  0  0  0
  187.2910  177.4230  146.2350 C   0  0  0  0  0  3  0  0  0  0  0  0
  188.7460  175.0760  142.8170 C   0  0  0  0  0  0  0  0  0  0  0  0
  186.8560  176.7830  141.6650 C   0  0  0  0  0  0  0  0  0  0  0  0
  191.6730  173.8600  144.8980 C   0  0  0  0  0  0  0  0  0  0  0  0
  189.7490  174.1900  143.4450 C   0  0  0  0  0  0  0  0  0  0  0  0
  190.7290  174.7060  144.3090 C   0  0  0  0  0  3  0  0  0  0  0  0
  192.7040  174.4180  145.8100 C   0  0  0  0  0  1  0  0  0  0  0  0
  189.7320  172.8120  143.1820 C   0  0  0  0  0  3  0  0  0  0  0  0
  191.6470  172.4890  144.6290 C   0  0  0  0  0  3  0  0  0  0  0  0
  190.6760  171.9650  143.7710 C   0  0  0  0  0  3  0  0  0  0  0  0
  1  2  1  6  0  0  0
  1  4  1  0  0  0  0
  2 11  1  0  0  0  0
  4  7  1  0  0  0  0
  4 16  1  1  0  0  0
  6 18  1  0  0  0  0
  6  3  1  0  0  0  0
  7  8  1  0  0  0  0
  8  5  2  0  0  0  0
  9 15  2  0  0  0  0
  9 18  1  0  0  0  0
 10  9  1  0  0  0  0
 12  5  1  0  0  0  0
 13  3  1  6  0  0  0
 13  1  1  0  0  0  0
 13 14  1  0  0  0  0
 14  7  1  0  0  0  0
 15 17  1  0  0  0  0
 16 12  2  0  0  0  0
 17 20  1  0  0  0  0
 17 11  2  0  0  0  0
 18  2  2  0  0  0  0
 19 22  1  0  0  0  0
 20 21  1  0  0  0  0
 21 19  2  0  0  0  0
 23 20  2  0  0  0  0
 23 25  1  0  0  0  0
 24 19  1  0  0  0  0
 25 24  2  0  0  0  0
M  END
>  <MODEL>
6

>  <REMARK>
 VINA RESULT:      -7.5      2.870      4.928
  Name = 
  1 active torsions:
  status: ('A' for Active; 'I' for Inactive)
    1  A    between atoms: C_6  and  C_23
                            x       y       z     vdW  Elec       q    Type
                         _______ _______ _______ _____ _____    ______ ____

>  <TORSDO>
F 1

$$$$
=
 OpenBabel11052417323D

 25 29  0  0  1  0  0  0  0  0999 V2000
  191.6650  175.1100  144.5110 C   0  0  2  0  0  3  0  0  0  0  0  0
  190.9190  175.8640  145.5770 C   0  0  0  0  0  0  0  0  0  0  0  0
  193.7270  175.1420  145.8360 C   0  0  0  0  0  2  0  0  0  0  0  0
  190.8570  174.1770  143.6340 C   0  0  2  0  0  3  0  0  0  0  0  0
  190.7560  173.2670  140.9040 C   0  0  0  0  0  3  0  0  0  0  0  0
  193.0370  175.8470  147.0160 C   0  0  0  0  0  2  0  0  0  0  0  0
  191.8310  173.2600  143.0380 N   0  0  0  0  0  0  0  0  0  0  0  0
  191.6460  172.7140  141.7270 C   0  0  0  0  0  3  0  0  0  0  0  0
  190.9310  177.0830  147.6670 C   0  0  0  0  0  0  0  0  0  0  0  0
  191.5620  177.5060  148.8310 O   0  0  0  0  0  1  0  0  0  0  0  0
  189.6330  176.2560  145.3720 N   0  0  0  0  0  0  0  0  0  0  0  0
  190.0030  174.4630  141.3250 C   0  0  0  0  0  3  0  0  0  0  0  0
  192.7220  174.2390  145.1490 C   0  0  2  0  0  3  0  0  0  0  0  0
  193.4100  173.2010  143.8310 S   0  0  0  0  0  0  0  0  0  0  0  0
  189.6040  177.4470  147.4360 C   0  0  0  0  0  3  0  0  0  0  0  0
  190.0800  174.9210  142.5780 C   0  0  0  0  0  3  0  0  0  0  0  0
  188.9550  177.0230  146.2700 C   0  0  0  0  0  0  0  0  0  0  0  0
  191.6140  176.2970  146.7300 C   0  0  0  0  0  0  0  0  0  0  0  0
  185.6790  177.6540  144.4700 C   0  0  0  0  0  0  0  0  0  0  0  0
  187.5520  177.4050  146.0020 C   0  0  0  0  0  0  0  0  0  0  0  0
  187.0050  177.2900  144.7130 C   0  0  0  0  0  3  0  0  0  0  0  0
  185.1120  177.5280  143.1020 C   0  0  0  0  0  1  0  0  0  0  0  0
  186.7450  177.8920  147.0420 C   0  0  0  0  0  3  0  0  0  0  0  0
  184.8840  178.1380  145.5130 C   0  0  0  0  0  3  0  0  0  0  0  0
  185.4170  178.2560  146.7990 C   0  0  0  0  0  3  0  0  0  0  0  0
  1 13  1  0  0  0  0
  1  2  1  1  0  0  0
  2 18  1  0  0  0  0
  3  6  1  0  0  0  0
  4 16  1  6  0  0  0
  4  1  1  0  0  0  0
  5 12  1  0  0  0  0
  5  8  2  0  0  0  0
  7  4  1  0  0  0  0
  7 14  1  0  0  0  0
  8  7  1  0  0  0  0
  9 10  1  0  0  0  0
 11  2  2  0  0  0  0
 11 17  1  0  0  0  0
 12 16  2  0  0  0  0
 13  3  1  6  0  0  0
 14 13  1  0  0  0  0
 15  9  1  0  0  0  0
 17 15  2  0  0  0  0
 18  6  1  0  0  0  0
 18  9  2  0  0  0  0
 19 21  2  0  0  0  0
 19 24  1  0  0  0  0
 20 17  1  0  0  0  0
 20 23  2  0  0  0  0
 21 20  1  0  0  0  0
 22 19  1  0  0  0  0
 24 25  2  0  0  0  0
 25 23  1  0  0  0  0
M  END
>  <MODEL>
7

>  <REMARK>
 VINA RESULT:      -7.5      3.346      6.318
  Name = 
  1 active torsions:
  status: ('A' for Active; 'I' for Inactive)
    1  A    between atoms: C_6  and  C_23
                            x       y       z     vdW  Elec       q    Type
                         _______ _______ _______ _____ _____    ______ ____

>  <TORSDO>
F 1

$$$$
=
 OpenBabel11052417323D

 25 29  0  0  1  0  0  0  0  0999 V2000
  187.8410  177.2460  144.0960 C   0  0  2  0  0  3  0  0  0  0  0  0
  189.1970  177.0500  144.7150 C   0  0  0  0  0  0  0  0  0  0  0  0
  186.8140  177.6000  146.2950 C   0  0  0  0  0  2  0  0  0  0  0  0
  187.7990  177.8000  142.6880 C   0  0  2  0  0  3  0  0  0  0  0  0
  186.2700  177.5240  140.2640 C   0  0  0  0  0  3  0  0  0  0  0  0
  188.1680  177.4900  147.0180 C   0  0  0  0  0  2  0  0  0  0  0  0
  186.4410  178.3180  142.5110 N   0  0  0  0  0  0  0  0  0  0  0  0
  185.7870  178.2950  141.2380 C   0  0  0  0  0  3  0  0  0  0  0  0
  190.5730  176.7910  146.6880 C   0  0  0  0  0  0  0  0  0  0  0  0
  190.7540  176.8310  148.0650 O   0  0  0  0  0  1  0  0  0  0  0  0
  190.2640  176.7080  143.9430 N   0  0  0  0  0  0  0  0  0  0  0  0
  187.4410  176.6650  140.5140 C   0  0  0  0  0  3  0  0  0  0  0  0
  187.0370  178.2180  144.9290 C   0  0  2  0  0  3  0  0  0  0  0  0
  185.5220  178.5740  143.9990 S   0  0  0  0  0  0  0  0  0  0  0  0
  191.6520  176.4660  145.8660 C   0  0  0  0  0  3  0  0  0  0  0  0
  188.1300  176.7520  141.6560 C   0  0  0  0  0  3  0  0  0  0  0  0
  191.4860  176.4280  144.4750 C   0  0  0  0  0  0  0  0  0  0  0  0
  189.3230  177.0730  146.1240 C   0  0  0  0  0  0  0  0  0  0  0  0
  194.9970  176.0410  143.0990 C   0  0  0  0  0  0  0  0  0  0  0  0
  192.6140  176.0770  143.5860 C   0  0  0  0  0  0  0  0  0  0  0  0
  193.9380  176.3770  143.9460 C   0  0  0  0  0  3  0  0  0  0  0  0
  196.3930  176.3630  143.4910 C   0  0  0  0  0  1  0  0  0  0  0  0
  192.3710  175.4340  142.3620 C   0  0  0  0  0  3  0  0  0  0  0  0
  194.7440  175.4010  141.8830 C   0  0  0  0  0  3  0  0  0  0  0  0
  193.4300  175.0980  141.5150 C   0  0  0  0  0  3  0  0  0  0  0  0
  1  2  1  1  0  0  0
  1 13  1  0  0  0  0
  2 18  1  0  0  0  0
  3  6  1  0  0  0  0
  4 16  1  6  0  0  0
  4  1  1  0  0  0  0
  5 12  1  0  0  0  0
  5  8  2  0  0  0  0
  7  4  1  0  0  0  0
  7 14  1  0  0  0  0
  8  7  1  0  0  0  0
  9 10  1  0  0  0  0
 11 17  1  0  0  0  0
 11  2  2  0  0  0  0
 12 16  2  0  0  0  0
 13  3  1  1  0  0  0
 14 13  1  0  0  0  0
 15  9  1  0  0  0  0
 17 15  2  0  0  0  0
 18  9  2  0  0  0  0
 18  6  1  0  0  0  0
 19 22  1  0  0  0  0
 19 21  1  0  0  0  0
 20 21  2  0  0  0  0
 20 17  1  0  0  0  0
 23 20  1  0  0  0  0
 24 19  2  0  0  0  0
 25 24  1  0  0  0  0
 25 23  2  0  0  0  0
M  END
>  <MODEL>
8

>  <REMARK>
 VINA RESULT:      -7.4      2.327      3.834
  Name = 
  1 active torsions:
  status: ('A' for Active; 'I' for Inactive)
    1  A    between atoms: C_6  and  C_23
                            x       y       z     vdW  Elec       q    Type
                         _______ _______ _______ _____ _____    ______ ____

>  <TORSDO>
F 1

$$$$
=
 OpenBabel11052417323D

 25 29  0  0  1  0  0  0  0  0999 V2000
  186.1340  177.7450  143.7030 C   0  0  2  0  0  3  0  0  0  0  0  0
  187.2100  177.7500  144.7540 C   0  0  0  0  0  0  0  0  0  0  0  0
  184.4040  178.2130  145.3770 C   0  0  0  0  0  2  0  0  0  0  0  0
  186.5380  178.1470  142.3010 C   0  0  2  0  0  3  0  0  0  0  0  0
  185.9390  177.4770  139.5650 C   0  0  0  0  0  3  0  0  0  0  0  0
  185.4360  178.3130  146.5130 C   0  0  0  0  0  2  0  0  0  0  0  0
  185.2910  178.5060  141.6220 N   0  0  0  0  0  0  0  0  0  0  0  0
  185.1090  178.2890  140.2190 C   0  0  0  0  0  3  0  0  0  0  0  0
  187.8500  177.8300  147.0850 C   0  0  0  0  0  0  0  0  0  0  0  0
  187.5500  178.0270  148.4280 O   0  0  0  0  0  1  0  0  0  0  0  0
  188.4940  177.4420  144.4260 N   0  0  0  0  0  0  0  0  0  0  0  0
  187.0070  176.7700  140.2960 C   0  0  0  0  0  3  0  0  0  0  0  0
  185.0380  178.7100  144.0930 C   0  0  2  0  0  3  0  0  0  0  0  0
  183.9080  178.8160  142.6790 S   0  0  0  0  0  0  0  0  0  0  0  0
  189.1610  177.5350  146.7130 C   0  0  0  0  0  3  0  0  0  0  0  0
  187.2620  177.0400  141.5790 C   0  0  0  0  0  3  0  0  0  0  0  0
  189.4780  177.3400  145.3620 C   0  0  0  0  0  0  0  0  0  0  0  0
  186.8490  177.9260  146.1100 C   0  0  0  0  0  0  0  0  0  0  0  0
  193.1500  176.4080  145.4950 C   0  0  0  0  0  0  0  0  0  0  0  0
  190.8590  177.0170  144.9470 C   0  0  0  0  0  0  0  0  0  0  0  0
  191.8470  176.7120  145.8970 C   0  0  0  0  0  3  0  0  0  0  0  0
  194.1860  176.0880  146.5100 C   0  0  0  0  0  1  0  0  0  0  0  0
  191.2010  177.0120  143.5850 C   0  0  0  0  0  3  0  0  0  0  0  0
  193.4800  176.4060  144.1370 C   0  0  0  0  0  3  0  0  0  0  0  0
  192.5050  176.7070  143.1820 C   0  0  0  0  0  3  0  0  0  0  0  0
  1 13  1  0  0  0  0
  1  2  1  1  0  0  0
  2 18  1  0  0  0  0
  3  6  1  0  0  0  0
  4 16  1  6  0  0  0
  4  1  1  0  0  0  0
  5  8  2  0  0  0  0
  5 12  1  0  0  0  0
  7  4  1  0  0  0  0
  7 14  1  0  0  0  0
  8  7  1  0  0  0  0
  9 10  1  0  0  0  0
 11  2  2  0  0  0  0
 11 17  1  0  0  0  0
 12 16  2  0  0  0  0
 13  3  1  1  0  0  0
 14 13  1  0  0  0  0
 15  9  1  0  0  0  0
 17 15  2  0  0  0  0
 18  6  1  0  0  0  0
 18  9  2  0  0  0  0
 19 21  1  0  0  0  0
 19 22  1  0  0  0  0
 20 17  1  0  0  0  0
 20 21  2  0  0  0  0
 23 20  1  0  0  0  0
 24 19  2  0  0  0  0
 25 23  2  0  0  0  0
 25 24  1  0  0  0  0
M  END
>  <MODEL>
9

>  <REMARK>
 VINA RESULT:      -7.4      1.332      2.119
  Name = 
  1 active torsions:
  status: ('A' for Active; 'I' for Inactive)
    1  A    between atoms: C_6  and  C_23
                            x       y       z     vdW  Elec       q    Type
                         _______ _______ _______ _____ _____    ______ ____

>  <TORSDO>
F 1

$$$$
