=
 OpenBabel11052420243D

 34 39  0  0  0  0  0  0  0  0999 V2000
  187.1720  176.9050  143.5730 C   0  0  0  0  0  0  0  0  0  0  0  0
  186.2830  177.5380  139.8780 C   0  0  0  0  0  3  0  0  0  0  0  0
  185.7780  178.7060  141.9290 C   0  0  0  0  0  3  0  0  0  0  0  0
  187.7440  176.4860  145.9280 C   0  0  0  0  0  0  0  0  0  0  0  0
  187.8120  176.1130  144.5560 C   0  0  0  0  0  3  0  0  0  0  0  0
  186.4170  178.3910  145.3260 C   0  0  0  0  0  0  0  0  0  0  0  0
  185.6810  179.5220  145.4150 N   0  0  0  0  0  0  0  0  0  0  0  0
  187.0300  177.6440  146.3290 C   0  0  0  0  0  3  0  0  0  0  0  0
  185.8490  178.8610  143.2710 N   0  0  0  0  0  0  0  0  0  0  0  0
  186.5030  178.0150  144.0370 C   0  0  0  0  0  0  0  0  0  0  0  0
  185.3410  179.7910  144.1150 C   0  0  0  0  0  3  0  0  0  0  0  0
  186.7450  176.6590  138.9970 C   0  0  0  0  0  3  0  0  0  0  0  0
  187.5580  175.4580  139.2080 C   0  0  0  0  0  0  0  0  0  0  0  0
  187.9920  175.0270  140.3910 C   0  0  0  0  0  3  0  0  0  0  0  0
  186.4300  177.5970  141.3370 C   0  0  0  0  0  0  0  0  0  0  0  0
  187.8000  175.5830  141.7340 C   0  0  0  0  0  3  0  0  0  0  0  0
  187.1470  176.6670  142.1710 C   0  0  0  0  0  0  0  0  0  0  0  0
  187.9150  174.6740  138.0090 C   0  0  0  0  0  0  0  0  0  0  0  0
  187.8400  175.2550  136.7480 O   0  0  0  0  0  0  0  0  0  0  0  0
  188.2910  173.4750  138.1090 O   0  0  0  0  0  1  0  0  0  0  0  0
  188.4000  175.6290  146.9590 C   0  0  0  0  0  2  0  0  0  0  0  0
  191.3060  173.7250  145.4420 C   0  0  0  0  0  3  0  0  0  0  0  0
  190.8600  176.0840  146.8930 C   0  0  0  0  0  3  0  0  0  0  0  0
  194.7670  175.0070  145.7660 C   0  0  0  0  0  0  0  0  0  0  0  0
  193.6830  174.1880  145.4170 C   0  0  0  0  0  3  0  0  0  0  0  0
  192.3840  174.5430  145.7880 C   0  0  0  0  0  0  0  0  0  0  0  0
  193.2390  176.5460  146.8690 C   0  0  0  0  0  3  0  0  0  0  0  0
  192.1600  175.7300  146.5200 C   0  0  0  0  0  0  0  0  0  0  0  0
  194.5370  176.1850  146.4930 C   0  0  0  0  0  3  0  0  0  0  0  0
  189.7830  175.2640  146.5380 C   0  0  0  0  0  0  0  0  0  0  0  0
  190.0070  174.0840  145.8180 C   0  0  0  0  0  3  0  0  0  0  0  0
  196.1330  174.6290  145.3720 C   0  0  0  0  0  0  0  0  0  0  0  0
  196.6450  175.0900  144.3170 O   0  0  0  0  0  0  0  0  0  0  0  0
  196.8730  173.7550  146.1610 O   0  0  0  0  0  1  0  0  0  0  0  0
  1 10  2  0  0  0  0
  1  5  1  0  0  0  0
  2 15  1  0  0  0  0
  3  9  1  0  0  0  0
  4  8  1  0  0  0  0
  4 21  1  0  0  0  0
  5  4  2  0  0  0  0
  6  7  1  0  0  0  0
  6  8  2  0  0  0  0
  9 10  1  0  0  0  0
  9 11  1  0  0  0  0
 10  6  1  0  0  0  0
 11  7  2  0  0  0  0
 12 13  1  0  0  0  0
 12  2  2  0  0  0  0
 13 14  2  0  0  0  0
 14 16  1  0  0  0  0
 15  3  2  0  0  0  0
 15 17  1  0  0  0  0
 16 17  2  0  0  0  0
 17  1  1  0  0  0  0
 18 20  1  0  0  0  0
 18 13  1  0  0  0  0
 19 18  2  0  0  0  0
 22 26  2  0  0  0  0
 22 31  1  0  0  0  0
 24 29  1  0  0  0  0
 25 24  2  0  0  0  0
 25 26  1  0  0  0  0
 26 28  1  0  0  0  0
 28 27  1  0  0  0  0
 28 23  2  0  0  0  0
 29 27  2  0  0  0  0
 30 23  1  0  0  0  0
 30 21  1  0  0  0  0
 31 30  2  0  0  0  0
 32 24  1  0  0  0  0
 32 34  1  0  0  0  0
 33 32  2  0  0  0  0
M  END
>  <MODEL>
1

>  <REMARK>
 VINA RESULT:      -9.3      0.000      0.000
  Name = 
  4 active torsions:
  status: ('A' for Active; 'I' for Inactive)
    1  A    between atoms: C_3  and  C_25
    2  A    between atoms: C_7  and  C_11
    3  A    between atoms: C_8  and  C_18
    4  A    between atoms: C_18  and  C_30
                            x       y       z     vdW  Elec       q    Type
                         _______ _______ _______ _____ _____    ______ ____

>  <TORSDO>
F 4

$$$$
=
 OpenBabel11052420243D

 34 39  0  0  0  0  0  0  0  0999 V2000
  186.7140  176.8600  144.5310 C   0  0  0  0  0  0  0  0  0  0  0  0
  185.1490  178.1650  141.2610 C   0  0  0  0  0  3  0  0  0  0  0  0
  184.7130  178.5950  143.5950 C   0  0  0  0  0  3  0  0  0  0  0  0
  187.7200  176.0160  146.6100 C   0  0  0  0  0  0  0  0  0  0  0  0
  187.6600  176.0380  145.1880 C   0  0  0  0  0  3  0  0  0  0  0  0
  185.9190  177.5980  146.6930 C   0  0  0  0  0  0  0  0  0  0  0  0
  184.9690  178.4370  147.1640 N   0  0  0  0  0  0  0  0  0  0  0  0
  186.8310  176.8050  147.3850 C   0  0  0  0  0  3  0  0  0  0  0  0
  184.9510  178.4140  144.9140 N   0  0  0  0  0  0  0  0  0  0  0  0
  185.8900  177.6000  145.3480 C   0  0  0  0  0  0  0  0  0  0  0  0
  184.3820  178.9310  146.0290 C   0  0  0  0  0  3  0  0  0  0  0  0
  185.6580  177.6920  140.1300 C   0  0  0  0  0  3  0  0  0  0  0  0
  186.7450  176.7310  139.9180 C   0  0  0  0  0  0  0  0  0  0  0  0
  187.4420  176.1400  140.8880 C   0  0  0  0  0  3  0  0  0  0  0  0
  185.5020  177.8840  142.6580 C   0  0  0  0  0  0  0  0  0  0  0  0
  187.3360  176.2640  142.3450 C   0  0  0  0  0  3  0  0  0  0  0  0
  186.5300  176.9910  143.1270 C   0  0  0  0  0  0  0  0  0  0  0  0
  187.0830  176.4020  138.5190 C   0  0  0  0  0  0  0  0  0  0  0  0
  187.5430  175.1310  138.1920 O   0  0  0  0  0  1  0  0  0  0  0  0
  186.9620  177.2630  137.6060 O   0  0  0  0  0  0  0  0  0  0  0  0
  188.7030  175.1250  147.2940 C   0  0  0  0  0  2  0  0  0  0  0  0
  191.4030  174.2320  144.7870 C   0  0  0  0  0  3  0  0  0  0  0  0
  191.0540  175.9280  146.9940 C   0  0  0  0  0  3  0  0  0  0  0  0
  194.7390  175.8340  144.9670 C   0  0  0  0  0  0  0  0  0  0  0  0
  193.6800  175.0180  144.5410 C   0  0  0  0  0  3  0  0  0  0  0  0
  192.4550  175.0470  145.2110 C   0  0  0  0  0  0  0  0  0  0  0  0
  193.3340  176.7120  146.7480 C   0  0  0  0  0  3  0  0  0  0  0  0
  192.2800  175.9000  146.3230 C   0  0  0  0  0  0  0  0  0  0  0  0
  194.5580  176.6800  146.0730 C   0  0  0  0  0  3  0  0  0  0  0  0
  190.0020  175.1140  146.5610 C   0  0  0  0  0  0  0  0  0  0  0  0
  190.1780  174.2640  145.4630 C   0  0  0  0  0  3  0  0  0  0  0  0
  196.0270  175.8000  144.2570 C   0  0  0  0  0  0  0  0  0  0  0  0
  196.7630  174.7790  144.3170 O   0  0  0  0  0  1  0  0  0  0  0  0
  196.4460  176.8970  143.5120 O   0  0  0  0  0  0  0  0  0  0  0  0
  1  5  2  0  0  0  0
  1 10  1  0  0  0  0
  2 15  1  0  0  0  0
  3  9  1  0  0  0  0
  4 21  1  0  0  0  0
  4  8  2  0  0  0  0
  5  4  1  0  0  0  0
  6  7  1  0  0  0  0
  6  8  1  0  0  0  0
  9 10  1  0  0  0  0
  9 11  1  0  0  0  0
 10  6  2  0  0  0  0
 11  7  2  0  0  0  0
 12  2  2  0  0  0  0
 13 12  1  0  0  0  0
 13 14  2  0  0  0  0
 14 16  1  0  0  0  0
 15 17  1  0  0  0  0
 15  3  2  0  0  0  0
 16 17  2  0  0  0  0
 17  1  1  0  0  0  0
 18 13  1  0  0  0  0
 19 18  1  0  0  0  0
 20 18  2  0  0  0  0
 22 26  2  0  0  0  0
 22 31  1  0  0  0  0
 24 29  1  0  0  0  0
 25 24  2  0  0  0  0
 25 26  1  0  0  0  0
 26 28  1  0  0  0  0
 28 27  1  0  0  0  0
 28 23  2  0  0  0  0
 29 27  2  0  0  0  0
 30 23  1  0  0  0  0
 30 21  1  0  0  0  0
 31 30  2  0  0  0  0
 32 33  1  0  0  0  0
 32 24  1  0  0  0  0
 34 32  2  0  0  0  0
M  END
>  <MODEL>
2

>  <REMARK>
 VINA RESULT:      -9.1      1.165      1.639
  Name = 
  4 active torsions:
  status: ('A' for Active; 'I' for Inactive)
    1  A    between atoms: C_3  and  C_25
    2  A    between atoms: C_7  and  C_11
    3  A    between atoms: C_8  and  C_18
    4  A    between atoms: C_18  and  C_30
                            x       y       z     vdW  Elec       q    Type
                         _______ _______ _______ _____ _____    ______ ____

>  <TORSDO>
F 4

$$$$
=
 OpenBabel11052420243D

 34 39  0  0  0  0  0  0  0  0999 V2000
  187.1890  176.9110  144.1970 C   0  0  0  0  0  0  0  0  0  0  0  0
  185.9390  178.1080  140.7550 C   0  0  0  0  0  3  0  0  0  0  0  0
  185.6200  178.9140  143.0080 C   0  0  0  0  0  3  0  0  0  0  0  0
  187.9920  176.1330  146.3880 C   0  0  0  0  0  0  0  0  0  0  0  0
  187.9310  175.9890  144.9740 C   0  0  0  0  0  3  0  0  0  0  0  0
  186.5880  178.0730  146.2320 C   0  0  0  0  0  0  0  0  0  0  0  0
  185.8500  179.1530  146.5740 N   0  0  0  0  0  0  0  0  0  0  0  0
  187.3040  177.1900  147.0390 C   0  0  0  0  0  3  0  0  0  0  0  0
  185.8180  178.8520  144.3440 N   0  0  0  0  0  0  0  0  0  0  0  0
  186.5540  177.9120  144.8970 C   0  0  0  0  0  0  0  0  0  0  0  0
  185.3830  179.6180  145.3730 C   0  0  0  0  0  3  0  0  0  0  0  0
  186.3250  177.3960  139.7030 C   0  0  0  0  0  3  0  0  0  0  0  0
  187.1700  176.2000  139.6380 C   0  0  0  0  0  0  0  0  0  0  0  0
  187.7220  175.5960  140.6890 C   0  0  0  0  0  3  0  0  0  0  0  0
  186.2260  177.9340  142.1840 C   0  0  0  0  0  0  0  0  0  0  0  0
  187.6530  175.9230  142.1170 C   0  0  0  0  0  3  0  0  0  0  0  0
  187.0320  176.9020  142.7840 C   0  0  0  0  0  0  0  0  0  0  0  0
  187.4200  175.6310  138.2990 C   0  0  0  0  0  0  0  0  0  0  0  0
  186.9530  176.2850  137.1640 O   0  0  0  0  0  0  0  0  0  0  0  0
  188.0560  174.5510  138.1650 O   0  0  0  0  0  1  0  0  0  0  0  0
  188.7540  175.1400  147.1990 C   0  0  0  0  0  2  0  0  0  0  0  0
  192.3210  176.4230  147.1730 C   0  0  0  0  0  3  0  0  0  0  0  0
  190.8390  174.2970  146.0990 C   0  0  0  0  0  3  0  0  0  0  0  0
  194.9450  174.6420  145.2570 C   0  0  0  0  0  0  0  0  0  0  0  0
  194.3130  175.5890  146.0760 C   0  0  0  0  0  3  0  0  0  0  0  0
  192.9500  175.4780  146.3590 C   0  0  0  0  0  0  0  0  0  0  0  0
  192.8320  173.4650  145.0010 C   0  0  0  0  0  3  0  0  0  0  0  0
  192.2040  174.4080  145.8170 C   0  0  0  0  0  0  0  0  0  0  0  0
  194.1970  173.5820  144.7220 C   0  0  0  0  0  3  0  0  0  0  0  0
  190.2160  175.2440  146.9210 C   0  0  0  0  0  0  0  0  0  0  0  0
  190.9550  176.3070  147.4510 C   0  0  0  0  0  3  0  0  0  0  0  0
  196.3820  174.7640  144.9630 C   0  0  0  0  0  0  0  0  0  0  0  0
  196.7840  175.5350  144.0510 O   0  0  0  0  0  0  0  0  0  0  0  0
  197.3110  174.0280  145.6900 O   0  0  0  0  0  1  0  0  0  0  0  0
  1 10  2  0  0  0  0
  1  5  1  0  0  0  0
  2 15  1  0  0  0  0
  3  9  1  0  0  0  0
  4  8  1  0  0  0  0
  4 21  1  0  0  0  0
  5  4  2  0  0  0  0
  6  7  1  0  0  0  0
  6  8  2  0  0  0  0
  9 10  1  0  0  0  0
  9 11  1  0  0  0  0
 10  6  1  0  0  0  0
 11  7  2  0  0  0  0
 12  2  2  0  0  0  0
 13 12  1  0  0  0  0
 13 14  2  0  0  0  0
 14 16  1  0  0  0  0
 15 17  1  0  0  0  0
 15  3  2  0  0  0  0
 16 17  2  0  0  0  0
 17  1  1  0  0  0  0
 18 13  1  0  0  0  0
 19 18  2  0  0  0  0
 20 18  1  0  0  0  0
 22 31  1  0  0  0  0
 23 30  1  0  0  0  0
 24 25  2  0  0  0  0
 25 26  1  0  0  0  0
 26 22  2  0  0  0  0
 27 28  1  0  0  0  0
 28 23  2  0  0  0  0
 28 26  1  0  0  0  0
 29 27  2  0  0  0  0
 29 24  1  0  0  0  0
 30 21  1  0  0  0  0
 30 31  2  0  0  0  0
 32 24  1  0  0  0  0
 32 34  1  0  0  0  0
 33 32  2  0  0  0  0
M  END
>  <MODEL>
3

>  <REMARK>
 VINA RESULT:      -9.1      0.843      1.480
  Name = 
  4 active torsions:
  status: ('A' for Active; 'I' for Inactive)
    1  A    between atoms: C_3  and  C_25
    2  A    between atoms: C_7  and  C_11
    3  A    between atoms: C_8  and  C_18
    4  A    between atoms: C_18  and  C_30
                            x       y       z     vdW  Elec       q    Type
                         _______ _______ _______ _____ _____    ______ ____

>  <TORSDO>
F 4

$$$$
=
 OpenBabel11052420243D

 34 39  0  0  0  0  0  0  0  0999 V2000
  193.4600  175.1360  142.7370 C   0  0  0  0  0  0  0  0  0  0  0  0
  192.9070  174.0860  139.0720 C   0  0  0  0  0  3  0  0  0  0  0  0
  194.6910  175.2430  140.2150 C   0  0  0  0  0  3  0  0  0  0  0  0
  193.7980  175.8030  145.0810 C   0  0  0  0  0  0  0  0  0  0  0  0
  193.0020  175.1850  144.0760 C   0  0  0  0  0  3  0  0  0  0  0  0
  195.4590  176.3120  143.4260 C   0  0  0  0  0  0  0  0  0  0  0  0
  196.5870  176.7740  142.8400 N   0  0  0  0  0  0  0  0  0  0  0  0
  195.0500  176.3850  144.7560 C   0  0  0  0  0  3  0  0  0  0  0  0
  195.2660  175.7690  141.3200 N   0  0  0  0  0  0  0  0  0  0  0  0
  194.6860  175.7160  142.5000 C   0  0  0  0  0  0  0  0  0  0  0  0
  196.4360  176.4190  141.5250 C   0  0  0  0  0  3  0  0  0  0  0  0
  191.7750  173.4490  138.8020 C   0  0  0  0  0  3  0  0  0  0  0  0
  190.6740  173.0710  139.6930 C   0  0  0  0  0  0  0  0  0  0  0  0
  190.6290  173.3220  141.0010 C   0  0  0  0  0  3  0  0  0  0  0  0
  193.4260  174.6170  140.3380 C   0  0  0  0  0  0  0  0  0  0  0  0
  191.5950  173.9990  141.8720 C   0  0  0  0  0  3  0  0  0  0  0  0
  192.7860  174.5580  141.6270 C   0  0  0  0  0  0  0  0  0  0  0  0
  189.5330  172.3600  139.0820 C   0  0  0  0  0  0  0  0  0  0  0  0
  188.2310  172.7480  139.3750 O   0  0  0  0  0  1  0  0  0  0  0  0
  189.7220  171.3960  138.2920 O   0  0  0  0  0  0  0  0  0  0  0  0
  193.2930  175.8740  146.4830 C   0  0  0  0  0  2  0  0  0  0  0  0
  189.6610  175.2950  147.4030 C   0  0  0  0  0  3  0  0  0  0  0  0
  191.1570  176.8340  145.5970 C   0  0  0  0  0  3  0  0  0  0  0  0
  186.9580  177.0820  145.6050 C   0  0  0  0  0  0  0  0  0  0  0  0
  187.6150  176.2300  146.5060 C   0  0  0  0  0  3  0  0  0  0  0  0
  189.0090  176.1450  146.5070 C   0  0  0  0  0  0  0  0  0  0  0  0
  189.1100  177.7670  144.6990 C   0  0  0  0  0  3  0  0  0  0  0  0
  189.7620  176.9200  145.5960 C   0  0  0  0  0  0  0  0  0  0  0  0
  187.7130  177.8480  144.7040 C   0  0  0  0  0  3  0  0  0  0  0  0
  191.8050  175.9850  146.5010 C   0  0  0  0  0  0  0  0  0  0  0  0
  191.0580  175.2130  147.3980 C   0  0  0  0  0  3  0  0  0  0  0  0
  185.4900  177.1670  145.6090 C   0  0  0  0  0  0  0  0  0  0  0  0
  184.8230  176.6670  146.5540 O   0  0  0  0  0  1  0  0  0  0  0  0
  184.8220  177.8010  144.5670 O   0  0  0  0  0  0  0  0  0  0  0  0
  1  5  1  0  0  0  0
  2 15  1  0  0  0  0
  3 15  2  0  0  0  0
  3  9  1  0  0  0  0
  4 21  1  0  0  0  0
  5  4  2  0  0  0  0
  6  8  2  0  0  0  0
  7  6  1  0  0  0  0
  8  4  1  0  0  0  0
  9 11  1  0  0  0  0
  9 10  1  0  0  0  0
 10  1  2  0  0  0  0
 10  6  1  0  0  0  0
 11  7  2  0  0  0  0
 12  2  2  0  0  0  0
 12 13  1  0  0  0  0
 13 14  2  0  0  0  0
 14 16  1  0  0  0  0
 15 17  1  0  0  0  0
 17 16  2  0  0  0  0
 17  1  1  0  0  0  0
 18 19  1  0  0  0  0
 18 13  1  0  0  0  0
 20 18  2  0  0  0  0
 21 30  1  0  0  0  0
 23 30  1  0  0  0  0
 24 32  1  0  0  0  0
 24 25  2  0  0  0  0
 25 26  1  0  0  0  0
 26 22  2  0  0  0  0
 27 29  2  0  0  0  0
 27 28  1  0  0  0  0
 28 23  2  0  0  0  0
 28 26  1  0  0  0  0
 29 24  1  0  0  0  0
 30 31  2  0  0  0  0
 31 22  1  0  0  0  0
 32 33  1  0  0  0  0
 34 32  2  0  0  0  0
M  END
>  <MODEL>
4

>  <REMARK>
 VINA RESULT:      -8.5      4.324      7.182
  Name = 
  4 active torsions:
  status: ('A' for Active; 'I' for Inactive)
    1  A    between atoms: C_3  and  C_25
    2  A    between atoms: C_7  and  C_11
    3  A    between atoms: C_8  and  C_18
    4  A    between atoms: C_18  and  C_30
                            x       y       z     vdW  Elec       q    Type
                         _______ _______ _______ _____ _____    ______ ____

>  <TORSDO>
F 4

$$$$
=
 OpenBabel11052420243D

 34 39  0  0  0  0  0  0  0  0999 V2000
  193.7400  174.1170  145.7710 C   0  0  0  0  0  0  0  0  0  0  0  0
  197.1000  172.5370  144.7410 C   0  0  0  0  0  3  0  0  0  0  0  0
  196.3000  174.8120  144.8470 C   0  0  0  0  0  3  0  0  0  0  0  0
  191.5880  175.1120  146.4280 C   0  0  0  0  0  0  0  0  0  0  0  0
  192.4100  173.9660  146.2300 C   0  0  0  0  0  3  0  0  0  0  0  0
  193.4000  176.5120  145.7080 C   0  0  0  0  0  0  0  0  0  0  0  0
  194.1220  177.6060  145.3780 N   0  0  0  0  0  0  0  0  0  0  0  0
  192.0840  176.4130  146.1580 C   0  0  0  0  0  3  0  0  0  0  0  0
  195.3500  175.7400  145.1030 N   0  0  0  0  0  0  0  0  0  0  0  0
  194.1520  175.4100  145.5370 C   0  0  0  0  0  0  0  0  0  0  0  0
  195.3360  177.0910  145.0050 C   0  0  0  0  0  3  0  0  0  0  0  0
  197.1790  171.2140  144.8090 C   0  0  0  0  0  3  0  0  0  0  0  0
  196.1700  170.2330  145.2220 C   0  0  0  0  0  0  0  0  0  0  0  0
  194.9350  170.5300  145.6210 C   0  0  0  0  0  3  0  0  0  0  0  0
  195.9890  173.4450  145.0520 C   0  0  0  0  0  0  0  0  0  0  0  0
  194.2650  171.8270  145.7560 C   0  0  0  0  0  3  0  0  0  0  0  0
  194.6800  173.0780  145.5250 C   0  0  0  0  0  0  0  0  0  0  0  0
  196.5680  168.8120  145.1870 C   0  0  0  0  0  0  0  0  0  0  0  0
  196.7480  168.1660  143.9690 O   0  0  0  0  0  0  0  0  0  0  0  0
  196.7480  168.1660  146.2550 O   0  0  0  0  0  1  0  0  0  0  0  0
  190.1790  174.9390  146.8860 C   0  0  0  0  0  2  0  0  0  0  0  0
  188.5760  175.5010  143.4970 C   0  0  0  0  0  3  0  0  0  0  0  0
  188.1170  176.1720  146.1820 C   0  0  0  0  0  3  0  0  0  0  0  0
  185.4720  177.5010  143.1940 C   0  0  0  0  0  0  0  0  0  0  0  0
  186.5860  176.7210  142.8510 C   0  0  0  0  0  3  0  0  0  0  0  0
  187.4670  176.2760  143.8400 C   0  0  0  0  0  0  0  0  0  0  0  0
  186.1280  177.3930  145.5340 C   0  0  0  0  0  3  0  0  0  0  0  0
  187.2350  176.6150  145.1920 C   0  0  0  0  0  0  0  0  0  0  0  0
  185.2500  177.8340  144.5390 C   0  0  0  0  0  3  0  0  0  0  0  0
  189.2240  175.3900  145.8320 C   0  0  0  0  0  0  0  0  0  0  0  0
  189.4550  175.0600  144.4920 C   0  0  0  0  0  3  0  0  0  0  0  0
  184.5480  177.9660  142.1470 C   0  0  0  0  0  0  0  0  0  0  0  0
  183.3840  178.3430  142.4440 O   0  0  0  0  0  1  0  0  0  0  0  0
  184.9530  177.9930  140.8170 O   0  0  0  0  0  0  0  0  0  0  0  0
  1  5  1  0  0  0  0
  2 12  2  0  0  0  0
  2 15  1  0  0  0  0
  3 15  2  0  0  0  0
  3  9  1  0  0  0  0
  4 21  1  0  0  0  0
  5  4  2  0  0  0  0
  6  8  2  0  0  0  0
  7  6  1  0  0  0  0
  8  4  1  0  0  0  0
  9 10  1  0  0  0  0
 10  6  1  0  0  0  0
 10  1  2  0  0  0  0
 11  9  1  0  0  0  0
 11  7  2  0  0  0  0
 12 13  1  0  0  0  0
 13 14  2  0  0  0  0
 14 16  1  0  0  0  0
 15 17  1  0  0  0  0
 17 16  2  0  0  0  0
 17  1  1  0  0  0  0
 18 13  1  0  0  0  0
 18 20  1  0  0  0  0
 19 18  2  0  0  0  0
 22 26  2  0  0  0  0
 22 31  1  0  0  0  0
 24 29  1  0  0  0  0
 25 24  2  0  0  0  0
 25 26  1  0  0  0  0
 26 28  1  0  0  0  0
 28 27  1  0  0  0  0
 28 23  2  0  0  0  0
 29 27  2  0  0  0  0
 30 23  1  0  0  0  0
 30 21  1  0  0  0  0
 31 30  2  0  0  0  0
 32 33  1  0  0  0  0
 32 24  1  0  0  0  0
 34 32  2  0  0  0  0
M  END
>  <MODEL>
5

>  <REMARK>
 VINA RESULT:      -8.5      3.679      9.322
  Name = 
  4 active torsions:
  status: ('A' for Active; 'I' for Inactive)
    1  A    between atoms: C_3  and  C_25
    2  A    between atoms: C_7  and  C_11
    3  A    between atoms: C_8  and  C_18
    4  A    between atoms: C_18  and  C_30
                            x       y       z     vdW  Elec       q    Type
                         _______ _______ _______ _____ _____    ______ ____

>  <TORSDO>
F 4

$$$$
=
 OpenBabel11052420243D

 34 39  0  0  0  0  0  0  0  0999 V2000
  191.5590  174.9820  144.5310 C   0  0  0  0  0  0  0  0  0  0  0  0
  192.6640  172.9200  141.4700 C   0  0  0  0  0  3  0  0  0  0  0  0
  193.8570  173.9240  143.3120 C   0  0  0  0  0  3  0  0  0  0  0  0
  190.8400  176.3000  146.4790 C   0  0  0  0  0  0  0  0  0  0  0  0
  190.5280  175.5920  145.2850 C   0  0  0  0  0  3  0  0  0  0  0  0
  193.1620  175.7960  146.1500 C   0  0  0  0  0  0  0  0  0  0  0  0
  194.5010  175.7420  146.3300 N   0  0  0  0  0  0  0  0  0  0  0  0
  192.1820  176.4130  146.9240 C   0  0  0  0  0  3  0  0  0  0  0  0
  193.9140  174.6360  144.4610 N   0  0  0  0  0  0  0  0  0  0  0  0
  192.8340  175.1300  145.0280 C   0  0  0  0  0  0  0  0  0  0  0  0
  194.9420  175.0110  145.2580 C   0  0  0  0  0  3  0  0  0  0  0  0
  191.7040  172.5260  140.6420 C   0  0  0  0  0  3  0  0  0  0  0  0
  190.2570  172.7540  140.7060 C   0  0  0  0  0  0  0  0  0  0  0  0
  189.6320  173.4350  141.6650 C   0  0  0  0  0  3  0  0  0  0  0  0
  192.5950  173.7060  142.7080 C   0  0  0  0  0  0  0  0  0  0  0  0
  190.1650  174.1100  142.8520 C   0  0  0  0  0  3  0  0  0  0  0  0
  191.4100  174.2450  143.3240 C   0  0  0  0  0  0  0  0  0  0  0  0
  189.4410  172.1780  139.6180 C   0  0  0  0  0  0  0  0  0  0  0  0
  188.1910  172.7120  139.3250 O   0  0  0  0  0  1  0  0  0  0  0  0
  189.8630  171.2010  138.9430 O   0  0  0  0  0  0  0  0  0  0  0  0
  189.7480  176.9630  147.2510 C   0  0  0  0  0  2  0  0  0  0  0  0
  186.1420  176.9490  146.0810 C   0  0  0  0  0  3  0  0  0  0  0  0
  188.6750  177.6460  145.0950 C   0  0  0  0  0  3  0  0  0  0  0  0
  185.2690  178.1000  142.6680 C   0  0  0  0  0  0  0  0  0  0  0  0
  185.1420  177.6010  143.9730 C   0  0  0  0  0  3  0  0  0  0  0  0
  186.2700  177.4490  144.7830 C   0  0  0  0  0  0  0  0  0  0  0  0
  187.6730  178.2940  142.9860 C   0  0  0  0  0  3  0  0  0  0  0  0
  187.5450  177.7980  144.2850 C   0  0  0  0  0  0  0  0  0  0  0  0
  186.5400  178.4450  142.1810 C   0  0  0  0  0  3  0  0  0  0  0  0
  188.5400  177.1500  146.3970 C   0  0  0  0  0  0  0  0  0  0  0  0
  187.2760  176.7980  146.8860 C   0  0  0  0  0  3  0  0  0  0  0  0
  184.0770  178.2570  141.8210 C   0  0  0  0  0  0  0  0  0  0  0  0
  182.9270  178.2910  142.3340 O   0  0  0  0  0  1  0  0  0  0  0  0
  184.2090  178.3700  140.4410 O   0  0  0  0  0  0  0  0  0  0  0  0
  1 10  2  0  0  0  0
  1  5  1  0  0  0  0
  2 15  1  0  0  0  0
  3  9  1  0  0  0  0
  4  8  1  0  0  0  0
  4 21  1  0  0  0  0
  5  4  2  0  0  0  0
  6  7  1  0  0  0  0
  6  8  2  0  0  0  0
  9 10  1  0  0  0  0
  9 11  1  0  0  0  0
 10  6  1  0  0  0  0
 11  7  2  0  0  0  0
 12 13  1  0  0  0  0
 12  2  2  0  0  0  0
 13 14  2  0  0  0  0
 14 16  1  0  0  0  0
 15  3  2  0  0  0  0
 15 17  1  0  0  0  0
 16 17  2  0  0  0  0
 17  1  1  0  0  0  0
 18 13  1  0  0  0  0
 19 18  1  0  0  0  0
 20 18  2  0  0  0  0
 22 31  1  0  0  0  0
 23 30  1  0  0  0  0
 24 25  2  0  0  0  0
 25 26  1  0  0  0  0
 26 22  2  0  0  0  0
 27 28  1  0  0  0  0
 28 26  1  0  0  0  0
 28 23  2  0  0  0  0
 29 24  1  0  0  0  0
 29 27  2  0  0  0  0
 30 31  2  0  0  0  0
 30 21  1  0  0  0  0
 32 33  1  0  0  0  0
 32 24  1  0  0  0  0
 34 32  2  0  0  0  0
M  END
>  <MODEL>
6

>  <REMARK>
 VINA RESULT:      -8.4      3.790      7.440
  Name = 
  4 active torsions:
  status: ('A' for Active; 'I' for Inactive)
    1  A    between atoms: C_3  and  C_25
    2  A    between atoms: C_7  and  C_11
    3  A    between atoms: C_8  and  C_18
    4  A    between atoms: C_18  and  C_30
                            x       y       z     vdW  Elec       q    Type
                         _______ _______ _______ _____ _____    ______ ____

>  <TORSDO>
F 4

$$$$
=
 OpenBabel11052420243D

 34 39  0  0  0  0  0  0  0  0999 V2000
  193.4620  173.3010  143.8560 C   0  0  0  0  0  0  0  0  0  0  0  0
  196.8140  172.3480  145.4980 C   0  0  0  0  0  3  0  0  0  0  0  0
  196.0790  174.2550  144.2140 C   0  0  0  0  0  3  0  0  0  0  0  0
  191.3160  173.8950  142.8090 C   0  0  0  0  0  0  0  0  0  0  0  0
  192.1120  172.9900  143.5670 C   0  0  0  0  0  3  0  0  0  0  0  0
  193.1980  175.3740  142.6370 C   0  0  0  0  0  0  0  0  0  0  0  0
  193.9690  176.4370  142.3130 N   0  0  0  0  0  0  0  0  0  0  0  0
  191.8650  175.1110  142.3260 C   0  0  0  0  0  3  0  0  0  0  0  0
  195.1470  174.9510  143.5240 N   0  0  0  0  0  0  0  0  0  0  0  0
  193.9210  174.5000  143.3590 C   0  0  0  0  0  0  0  0  0  0  0  0
  195.1800  176.1430  142.8820 C   0  0  0  0  0  3  0  0  0  0  0  0
  196.8510  171.1870  146.1400 C   0  0  0  0  0  3  0  0  0  0  0  0
  195.7980  170.1840  146.3290 C   0  0  0  0  0  0  0  0  0  0  0  0
  194.5560  170.2830  145.8580 C   0  0  0  0  0  3  0  0  0  0  0  0
  195.7190  173.0040  144.7730 C   0  0  0  0  0  0  0  0  0  0  0  0
  193.9200  171.3430  145.0700 C   0  0  0  0  0  3  0  0  0  0  0  0
  194.3800  172.5060  144.5950 C   0  0  0  0  0  0  0  0  0  0  0  0
  196.1560  168.9780  147.1010 C   0  0  0  0  0  0  0  0  0  0  0  0
  197.4740  168.5400  147.1420 O   0  0  0  0  0  0  0  0  0  0  0  0
  195.2760  168.3300  147.7310 O   0  0  0  0  0  1  0  0  0  0  0  0
  189.9030  173.5440  142.4870 C   0  0  0  0  0  2  0  0  0  0  0  0
  187.1170  176.0920  142.8280 C   0  0  0  0  0  3  0  0  0  0  0  0
  189.0900  174.9000  144.4280 C   0  0  0  0  0  3  0  0  0  0  0  0
  186.4880  177.7660  146.0730 C   0  0  0  0  0  0  0  0  0  0  0  0
  186.3720  177.4030  144.7240 C   0  0  0  0  0  3  0  0  0  0  0  0
  187.2330  176.4510  144.1730 C   0  0  0  0  0  0  0  0  0  0  0  0
  188.3450  176.2140  146.3220 C   0  0  0  0  0  3  0  0  0  0  0  0
  188.2270  175.8520  144.9790 C   0  0  0  0  0  0  0  0  0  0  0  0
  187.4780  177.1670  146.8670 C   0  0  0  0  0  3  0  0  0  0  0  0
  188.9650  174.5400  143.0810 C   0  0  0  0  0  0  0  0  0  0  0  0
  187.9840  175.1390  142.2820 C   0  0  0  0  0  3  0  0  0  0  0  0
  185.5780  178.7690  146.6470 C   0  0  0  0  0  0  0  0  0  0  0  0
  185.9430  179.4800  147.6210 O   0  0  0  0  0  1  0  0  0  0  0  0
  184.3030  178.9420  146.1200 O   0  0  0  0  0  0  0  0  0  0  0  0
  1 17  1  0  0  0  0
  2 12  2  0  0  0  0
  3 15  2  0  0  0  0
  4  5  2  0  0  0  0
  5  1  1  0  0  0  0
  6 10  1  0  0  0  0
  7  6  1  0  0  0  0
  7 11  2  0  0  0  0
  8  6  2  0  0  0  0
  8  4  1  0  0  0  0
  9  3  1  0  0  0  0
 10  9  1  0  0  0  0
 10  1  2  0  0  0  0
 11  9  1  0  0  0  0
 12 13  1  0  0  0  0
 13 18  1  0  0  0  0
 14 13  2  0  0  0  0
 15  2  1  0  0  0  0
 16 14  1  0  0  0  0
 17 15  1  0  0  0  0
 17 16  2  0  0  0  0
 18 19  2  0  0  0  0
 18 20  1  0  0  0  0
 21  4  1  0  0  0  0
 21 30  1  0  0  0  0
 22 26  1  0  0  0  0
 23 28  1  0  0  0  0
 24 32  1  0  0  0  0
 24 29  1  0  0  0  0
 25 24  2  0  0  0  0
 26 25  1  0  0  0  0
 26 28  2  0  0  0  0
 27 29  2  0  0  0  0
 28 27  1  0  0  0  0
 30 23  2  0  0  0  0
 31 22  2  0  0  0  0
 31 30  1  0  0  0  0
 32 33  1  0  0  0  0
 34 32  2  0  0  0  0
M  END
>  <MODEL>
7

>  <REMARK>
 VINA RESULT:      -8.4      4.409      9.387
  Name = 
  4 active torsions:
  status: ('A' for Active; 'I' for Inactive)
    1  A    between atoms: C_3  and  C_25
    2  A    between atoms: C_7  and  C_11
    3  A    between atoms: C_8  and  C_18
    4  A    between atoms: C_18  and  C_30
                            x       y       z     vdW  Elec       q    Type
                         _______ _______ _______ _____ _____    ______ ____

>  <TORSDO>
F 4

$$$$
=
 OpenBabel11052420243D

 34 39  0  0  0  0  0  0  0  0999 V2000
  189.0220  177.2340  144.2350 C   0  0  0  0  0  0  0  0  0  0  0  0
  185.3170  178.0980  144.8420 C   0  0  0  0  0  3  0  0  0  0  0  0
  187.2010  177.7450  146.3100 C   0  0  0  0  0  3  0  0  0  0  0  0
  191.3850  176.6790  143.8320 C   0  0  0  0  0  0  0  0  0  0  0  0
  190.0780  176.9480  143.3360 C   0  0  0  0  0  3  0  0  0  0  0  0
  190.5750  176.9710  146.0720 C   0  0  0  0  0  0  0  0  0  0  0  0
  190.5320  177.0420  147.4210 N   0  0  0  0  0  0  0  0  0  0  0  0
  191.6450  176.6830  145.2270 C   0  0  0  0  0  3  0  0  0  0  0  0
  188.5020  177.4640  146.5470 N   0  0  0  0  0  0  0  0  0  0  0  0
  189.3530  177.2250  145.5710 C   0  0  0  0  0  0  0  0  0  0  0  0
  189.2240  177.3520  147.6870 C   0  0  0  0  0  3  0  0  0  0  0  0
  184.5510  178.2160  143.7650 C   0  0  0  0  0  3  0  0  0  0  0  0
  184.8950  178.0670  142.3480 C   0  0  0  0  0  0  0  0  0  0  0  0
  186.1070  177.7710  141.8820 C   0  0  0  0  0  3  0  0  0  0  0  0
  186.7450  177.7820  144.9690 C   0  0  0  0  0  0  0  0  0  0  0  0
  187.3640  177.5240  142.5950 C   0  0  0  0  0  3  0  0  0  0  0  0
  187.6710  177.5210  143.8980 C   0  0  0  0  0  0  0  0  0  0  0  0
  183.8040  178.2620  141.3720 C   0  0  0  0  0  0  0  0  0  0  0  0
  182.4790  178.1260  141.7690 O   0  0  0  0  0  1  0  0  0  0  0  0
  184.0560  178.5530  140.1710 O   0  0  0  0  0  0  0  0  0  0  0  0
  192.4830  176.3510  142.8770 C   0  0  0  0  0  2  0  0  0  0  0  0
  195.6780  174.9080  144.3200 C   0  0  0  0  0  3  0  0  0  0  0  0
  193.0530  174.0830  143.7710 C   0  0  0  0  0  3  0  0  0  0  0  0
  195.8090  171.3790  145.4420 C   0  0  0  0  0  0  0  0  0  0  0  0
  196.1990  172.6960  145.1580 C   0  0  0  0  0  3  0  0  0  0  0  0
  195.2870  173.5980  144.6040 C   0  0  0  0  0  0  0  0  0  0  0  0
  193.5760  171.8700  144.6080 C   0  0  0  0  0  3  0  0  0  0  0  0
  193.9660  173.1810  144.3270 C   0  0  0  0  0  0  0  0  0  0  0  0
  194.4940  170.9730  145.1640 C   0  0  0  0  0  3  0  0  0  0  0  0
  193.4500  175.3970  143.4940 C   0  0  0  0  0  0  0  0  0  0  0  0
  194.7610  175.8060  143.7630 C   0  0  0  0  0  3  0  0  0  0  0  0
  196.7730  170.4340  146.0250 C   0  0  0  0  0  0  0  0  0  0  0  0
  197.8630  170.1910  145.4410 O   0  0  0  0  0  0  0  0  0  0  0  0
  196.4910  169.7990  147.2290 O   0  0  0  0  0  1  0  0  0  0  0  0
  1 10  1  0  0  0  0
  2 15  1  0  0  0  0
  3  9  1  0  0  0  0
  4  8  2  0  0  0  0
  5  4  1  0  0  0  0
  5  1  2  0  0  0  0
  6  7  1  0  0  0  0
  7 11  2  0  0  0  0
  8  6  1  0  0  0  0
  9 11  1  0  0  0  0
 10  6  2  0  0  0  0
 10  9  1  0  0  0  0
 12  2  2  0  0  0  0
 13 12  1  0  0  0  0
 14 13  2  0  0  0  0
 14 16  1  0  0  0  0
 15  3  2  0  0  0  0
 16 17  2  0  0  0  0
 17  1  1  0  0  0  0
 17 15  1  0  0  0  0
 18 19  1  0  0  0  0
 18 13  1  0  0  0  0
 20 18  2  0  0  0  0
 21 30  1  0  0  0  0
 21  4  1  0  0  0  0
 22 26  1  0  0  0  0
 23 28  1  0  0  0  0
 24 32  1  0  0  0  0
 25 24  2  0  0  0  0
 26 25  1  0  0  0  0
 27 29  2  0  0  0  0
 28 26  2  0  0  0  0
 28 27  1  0  0  0  0
 29 24  1  0  0  0  0
 30 31  1  0  0  0  0
 30 23  2  0  0  0  0
 31 22  2  0  0  0  0
 32 34  1  0  0  0  0
 33 32  2  0  0  0  0
M  END
>  <MODEL>
8

>  <REMARK>
 VINA RESULT:      -8.2      2.981      4.703
  Name = 
  4 active torsions:
  status: ('A' for Active; 'I' for Inactive)
    1  A    between atoms: C_3  and  C_25
    2  A    between atoms: C_7  and  C_11
    3  A    between atoms: C_8  and  C_18
    4  A    between atoms: C_18  and  C_30
                            x       y       z     vdW  Elec       q    Type
                         _______ _______ _______ _____ _____    ______ ____

>  <TORSDO>
F 4

$$$$
=
 OpenBabel11052420243D

 34 39  0  0  0  0  0  0  0  0999 V2000
  193.1020  174.0960  143.8700 C   0  0  0  0  0  0  0  0  0  0  0  0
  193.4710  172.1560  140.5620 C   0  0  0  0  0  3  0  0  0  0  0  0
  195.0560  173.0200  142.1640 C   0  0  0  0  0  3  0  0  0  0  0  0
  192.8510  175.3380  145.9780 C   0  0  0  0  0  0  0  0  0  0  0  0
  192.2730  174.7040  144.8430 C   0  0  0  0  0  3  0  0  0  0  0  0
  195.0340  174.7680  145.1620 C   0  0  0  0  0  0  0  0  0  0  0  0
  196.3780  174.6560  145.0630 N   0  0  0  0  0  0  0  0  0  0  0  0
  194.2600  175.3800  146.1450 C   0  0  0  0  0  3  0  0  0  0  0  0
  195.3760  173.6690  143.3060 N   0  0  0  0  0  0  0  0  0  0  0  0
  194.4560  174.1720  144.1030 C   0  0  0  0  0  0  0  0  0  0  0  0
  196.5600  173.9650  143.8940 C   0  0  0  0  0  3  0  0  0  0  0  0
  192.3470  171.8400  139.9310 C   0  0  0  0  0  3  0  0  0  0  0  0
  190.9540  172.1160  140.2980 C   0  0  0  0  0  0  0  0  0  0  0  0
  190.5680  172.7700  141.3920 C   0  0  0  0  0  3  0  0  0  0  0  0
  193.6890  172.8790  141.8210 C   0  0  0  0  0  0  0  0  0  0  0  0
  191.3600  173.3640  142.4740 C   0  0  0  0  0  3  0  0  0  0  0  0
  192.6790  173.4280  142.6880 C   0  0  0  0  0  0  0  0  0  0  0  0
  189.9110  171.6280  139.3750 C   0  0  0  0  0  0  0  0  0  0  0  0
  188.8210  172.4330  139.0630 O   0  0  0  0  0  1  0  0  0  0  0  0
  189.9910  170.4800  138.8590 O   0  0  0  0  0  0  0  0  0  0  0  0
  191.9690  176.0000  146.9830 C   0  0  0  0  0  2  0  0  0  0  0  0
  189.6560  177.8310  144.6030 C   0  0  0  0  0  3  0  0  0  0  0  0
  189.4770  176.2130  146.8880 C   0  0  0  0  0  3  0  0  0  0  0  0
  185.9850  177.7310  145.0990 C   0  0  0  0  0  0  0  0  0  0  0  0
  187.2420  178.0310  144.5550 C   0  0  0  0  0  3  0  0  0  0  0  0
  188.4040  177.5290  145.1450 C   0  0  0  0  0  0  0  0  0  0  0  0
  187.0630  176.4160  146.8400 C   0  0  0  0  0  3  0  0  0  0  0  0
  188.3140  176.7150  146.2960 C   0  0  0  0  0  0  0  0  0  0  0  0
  185.9030  176.9220  146.2440 C   0  0  0  0  0  3  0  0  0  0  0  0
  190.7280  176.5140  146.3360 C   0  0  0  0  0  0  0  0  0  0  0  0
  190.8160  177.3260  145.2000 C   0  0  0  0  0  3  0  0  0  0  0  0
  184.7650  178.2630  144.4730 C   0  0  0  0  0  0  0  0  0  0  0  0
  184.0060  179.0410  145.1110 O   0  0  0  0  0  1  0  0  0  0  0  0
  184.4360  177.9110  143.1690 O   0  0  0  0  0  0  0  0  0  0  0  0
  1 10  2  0  0  0  0
  1  5  1  0  0  0  0
  2 15  1  0  0  0  0
  3  9  1  0  0  0  0
  4  8  1  0  0  0  0
  4 21  1  0  0  0  0
  5  4  2  0  0  0  0
  6  8  2  0  0  0  0
  7  6  1  0  0  0  0
  9 11  1  0  0  0  0
  9 10  1  0  0  0  0
 10  6  1  0  0  0  0
 11  7  2  0  0  0  0
 12 13  1  0  0  0  0
 12  2  2  0  0  0  0
 13 14  2  0  0  0  0
 14 16  1  0  0  0  0
 15  3  2  0  0  0  0
 15 17  1  0  0  0  0
 16 17  2  0  0  0  0
 17  1  1  0  0  0  0
 18 13  1  0  0  0  0
 19 18  1  0  0  0  0
 20 18  2  0  0  0  0
 22 26  2  0  0  0  0
 22 31  1  0  0  0  0
 24 29  1  0  0  0  0
 25 24  2  0  0  0  0
 25 26  1  0  0  0  0
 26 28  1  0  0  0  0
 28 27  1  0  0  0  0
 28 23  2  0  0  0  0
 29 27  2  0  0  0  0
 30 23  1  0  0  0  0
 30 21  1  0  0  0  0
 31 30  2  0  0  0  0
 32 24  1  0  0  0  0
 32 33  1  0  0  0  0
 34 32  2  0  0  0  0
M  END
>  <MODEL>
9

>  <REMARK>
 VINA RESULT:      -8.1      4.370      7.755
  Name = 
  4 active torsions:
  status: ('A' for Active; 'I' for Inactive)
    1  A    between atoms: C_3  and  C_25
    2  A    between atoms: C_7  and  C_11
    3  A    between atoms: C_8  and  C_18
    4  A    between atoms: C_18  and  C_30
                            x       y       z     vdW  Elec       q    Type
                         _______ _______ _______ _____ _____    ______ ____

>  <TORSDO>
F 4

$$$$
