=
 OpenBabel11052418073D

 28 31  0  0  1  0  0  0  0  0999 V2000
  186.8240  177.9580  142.8450 C   0  0  0  0  0  0  0  0  0  0  0  0
  186.6660  178.7030  144.1560 C   0  0  2  0  0  3  0  0  0  0  0  0
  187.9740  177.0510  145.2850 C   0  0  1  0  0  3  0  0  0  0  0  0
  187.3520  175.9090  139.2090 O   0  0  0  0  0  1  0  0  0  0  0  0
  186.7060  177.7790  145.2940 N   0  0  0  0  0  2  0  0  0  0  0  0
  189.4550  174.5480  147.7570 C   0  0  0  0  0  1  0  0  0  0  0  0
  188.8660  175.0520  143.9850 C   0  0  0  0  0  0  0  0  0  0  0  0
  189.4540  174.4600  145.2520 C   0  0  2  0  0  3  0  0  0  0  0  0
  188.0390  176.1430  146.5040 C   0  0  0  0  0  2  0  0  0  0  0  0
  187.7310  176.0560  141.6050 C   0  0  0  0  0  0  0  0  0  0  0  0
  188.1150  176.2480  144.0120 C   0  0  0  0  0  0  0  0  0  0  0  0
  189.3490  175.3720  146.4880 C   0  0  1  0  0  3  0  0  0  0  0  0
  186.5040  177.7930  140.4410 C   0  0  0  0  0  3  0  0  0  0  0  0
  188.4400  174.8500  141.5980 C   0  0  0  0  0  3  0  0  0  0  0  0
  187.1960  176.5790  140.4170 C   0  0  0  0  0  0  0  0  0  0  0  0
  188.9940  174.3510  142.7780 C   0  0  0  0  0  3  0  0  0  0  0  0
  186.3250  178.4810  141.6420 C   0  0  0  0  0  3  0  0  0  0  0  0
  187.5590  176.7560  142.8210 C   0  0  0  0  0  0  0  0  0  0  0  0
  185.5130  180.7820  144.0930 O   0  0  0  0  0  0  0  0  0  0  0  0
  185.4150  179.5330  144.2210 C   0  0  0  0  0  0  0  0  0  0  0  0
  184.0850  178.9270  144.4260 C   0  0  0  0  0  0  0  0  0  0  0  0
  183.6600  178.7220  145.5940 O   0  0  0  0  0  0  0  0  0  0  0  0
  183.2680  178.5720  143.3150 N   0  0  0  0  0  1  0  0  0  0  0  0
  190.8970  173.9790  145.0510 C   0  0  0  0  0  2  0  0  0  0  0  0
  191.9120  175.0480  145.4250 C   0  0  0  0  0  2  0  0  0  0  0  0
  192.2870  175.8410  144.1920 C   0  0  0  0  0  2  0  0  0  0  0  0
  191.8320  177.2750  144.3590 C   0  0  0  0  0  2  0  0  0  0  0  0
  191.2170  177.7630  143.0640 C   0  0  0  0  0  1  0  0  0  0  0  0
  1  2  1  0  0  0  0
  2 20  1  6  0  0  0
  2  5  1  0  0  0  0
  3  5  1  0  0  0  0
  3  9  1  1  0  0  0
  4 15  1  0  0  0  0
  7 11  1  0  0  0  0
  7  8  1  0  0  0  0
  8 24  1  6  0  0  0
  8 12  1  0  0  0  0
 10 18  1  0  0  0  0
 11  3  1  0  0  0  0
 12  9  1  0  0  0  0
 12  6  1  1  0  0  0
 13 17  1  0  0  0  0
 14 10  2  0  0  0  0
 14 16  1  0  0  0  0
 15 13  2  0  0  0  0
 15 10  1  0  0  0  0
 16  7  2  0  0  0  0
 17  1  2  0  0  0  0
 18  1  1  0  0  0  0
 18 11  2  0  0  0  0
 19 20  2  0  0  0  0
 20 21  1  0  0  0  0
 21 22  2  0  0  0  0
 23 21  1  0  0  0  0
 24 25  1  0  0  0  0
 26 27  1  0  0  0  0
 26 25  1  0  0  0  0
 28 27  1  0  0  0  0
M  END
>  <MODEL>
1

>  <REMARK>
 VINA RESULT:      -6.7      0.000      0.000
  Name = 
  6 active torsions:
  status: ('A' for Active; 'I' for Inactive)
    1  A    between atoms: C_2  and  C_11
    2  A    between atoms: C_4  and  C_13
    3  A    between atoms: C_4  and  C_24
    4  A    between atoms: C_6  and  C_11
    5  A    between atoms: C_12  and  C_15
    6  A    between atoms: C_12  and  C_24
                            x       y       z     vdW  Elec       q    Type
                         _______ _______ _______ _____ _____    ______ ____

>  <TORSDO>
F 6

$$$$
=
 OpenBabel11052418073D

 28 31  0  0  1  0  0  0  0  0999 V2000
  191.9290  176.4860  144.5750 C   0  0  0  0  0  0  0  0  0  0  0  0
  192.1520  176.4240  143.0760 C   0  0  2  0  0  3  0  0  0  0  0  0
  189.8610  176.9830  142.6830 C   0  0  1  0  0  3  0  0  0  0  0  0
  191.2950  176.7510  148.7250 O   0  0  0  0  0  1  0  0  0  0  0  0
  190.9250  176.0280  142.3780 N   0  0  0  0  0  2  0  0  0  0  0  0
  186.2860  177.2710  141.3780 C   0  0  0  0  0  1  0  0  0  0  0  0
  188.2960  177.3290  144.6620 C   0  0  0  0  0  0  0  0  0  0  0  0
  187.1200  177.5390  143.7250 C   0  0  2  0  0  3  0  0  0  0  0  0
  188.6100  176.6060  141.9050 C   0  0  0  0  0  2  0  0  0  0  0  0
  190.4210  176.8700  146.4610 C   0  0  0  0  0  0  0  0  0  0  0  0
  189.5800  177.0070  144.1690 C   0  0  0  0  0  0  0  0  0  0  0  0
  187.4970  177.5890  142.2340 C   0  0  1  0  0  3  0  0  0  0  0  0
  192.7700  176.4180  146.8540 C   0  0  0  0  0  3  0  0  0  0  0  0
  189.1350  177.1460  146.9380 C   0  0  0  0  0  3  0  0  0  0  0  0
  191.4900  176.6780  147.3510 C   0  0  0  0  0  0  0  0  0  0  0  0
  188.0840  177.3650  146.0470 C   0  0  0  0  0  3  0  0  0  0  0  0
  192.9910  176.3290  145.4790 C   0  0  0  0  0  3  0  0  0  0  0  0
  190.6430  176.7910  145.0670 C   0  0  0  0  0  0  0  0  0  0  0  0
  193.1080  174.2660  142.7860 O   0  0  0  0  0  0  0  0  0  0  0  0
  193.2770  175.5100  142.6800 C   0  0  0  0  0  0  0  0  0  0  0  0
  194.5620  176.0260  142.1730 C   0  0  0  0  0  0  0  0  0  0  0  0
  194.7280  176.1970  140.9350 O   0  0  0  0  0  0  0  0  0  0  0  0
  195.6260  176.3380  143.0670 N   0  0  0  0  0  1  0  0  0  0  0  0
  186.2810  178.7620  144.1160 C   0  0  0  0  0  2  0  0  0  0  0  0
  184.7940  178.4450  144.1530 C   0  0  0  0  0  2  0  0  0  0  0  0
  184.2020  178.9560  145.4490 C   0  0  0  0  0  2  0  0  0  0  0  0
  184.3790  177.9100  146.5290 C   0  0  0  0  0  2  0  0  0  0  0  0
  185.1500  178.5070  147.6870 C   0  0  0  0  0  1  0  0  0  0  0  0
  1 18  2  0  0  0  0
  1 17  1  0  0  0  0
  2 20  1  1  0  0  0
  2  1  1  0  0  0  0
  3  9  1  6  0  0  0
  3 11  1  0  0  0  0
  5  3  1  0  0  0  0
  5  2  1  0  0  0  0
  7 16  1  0  0  0  0
  8 24  1  1  0  0  0
  8  7  1  0  0  0  0
  9 12  1  0  0  0  0
 10 14  1  0  0  0  0
 10 15  2  0  0  0  0
 11  7  2  0  0  0  0
 11 18  1  0  0  0  0
 12  6  1  6  0  0  0
 12  8  1  0  0  0  0
 13 15  1  0  0  0  0
 15  4  1  0  0  0  0
 16 14  2  0  0  0  0
 17 13  2  0  0  0  0
 18 10  1  0  0  0  0
 20 19  2  0  0  0  0
 21 20  1  0  0  0  0
 21 23  1  0  0  0  0
 22 21  2  0  0  0  0
 24 25  1  0  0  0  0
 25 26  1  0  0  0  0
 26 27  1  0  0  0  0
 27 28  1  0  0  0  0
M  END
>  <MODEL>
2

>  <REMARK>
 VINA RESULT:      -6.7      3.586      7.509
  Name = 
  6 active torsions:
  status: ('A' for Active; 'I' for Inactive)
    1  A    between atoms: C_2  and  C_11
    2  A    between atoms: C_4  and  C_13
    3  A    between atoms: C_4  and  C_24
    4  A    between atoms: C_6  and  C_11
    5  A    between atoms: C_12  and  C_15
    6  A    between atoms: C_12  and  C_24
                            x       y       z     vdW  Elec       q    Type
                         _______ _______ _______ _____ _____    ______ ____

>  <TORSDO>
F 6

$$$$
=
 OpenBabel11052418073D

 28 31  0  0  1  0  0  0  0  0999 V2000
  185.2610  177.8290  143.5250 C   0  0  0  0  0  0  0  0  0  0  0  0
  185.1220  177.2650  142.1240 C   0  0  2  0  0  3  0  0  0  0  0  0
  187.0870  175.9380  142.4320 C   0  0  1  0  0  3  0  0  0  0  0  0
  185.6290  179.3060  147.4460 O   0  0  0  0  0  1  0  0  0  0  0  0
  186.4320  176.9170  141.5650 N   0  0  0  0  0  2  0  0  0  0  0  0
  190.3790  174.0450  142.0520 C   0  0  0  0  0  1  0  0  0  0  0  0
  188.3700  176.0850  144.6270 C   0  0  0  0  0  0  0  0  0  0  0  0
  189.4280  175.1340  144.0990 C   0  0  2  0  0  3  0  0  0  0  0  0
  188.4150  175.5310  141.8140 C   0  0  0  0  0  2  0  0  0  0  0  0
  186.4800  177.9170  145.6430 C   0  0  0  0  0  0  0  0  0  0  0  0
  187.2940  176.5110  143.8160 C   0  0  0  0  0  0  0  0  0  0  0  0
  189.1050  174.5250  142.7220 C   0  0  1  0  0  3  0  0  0  0  0  0
  184.4230  179.1710  145.3700 C   0  0  0  0  0  3  0  0  0  0  0  0
  187.5730  177.5220  146.4210 C   0  0  0  0  0  3  0  0  0  0  0  0
  185.5160  178.8000  146.1570 C   0  0  0  0  0  0  0  0  0  0  0  0
  188.5110  176.6220  145.9140 C   0  0  0  0  0  3  0  0  0  0  0  0
  184.2910  178.6860  144.0680 C   0  0  0  0  0  3  0  0  0  0  0  0
  186.3440  177.4160  144.3280 C   0  0  0  0  0  0  0  0  0  0  0  0
  185.0440  179.1230  140.6420 O   0  0  0  0  0  0  0  0  0  0  0  0
  184.3980  178.1860  141.1830 C   0  0  0  0  0  0  0  0  0  0  0  0
  182.9650  178.0220  140.8750 C   0  0  0  0  0  0  0  0  0  0  0  0
  182.6110  177.4720  139.7980 O   0  0  0  0  0  0  0  0  0  0  0  0
  181.9680  178.4760  141.7850 N   0  0  0  0  0  1  0  0  0  0  0  0
  189.7770  174.0370  145.1120 C   0  0  0  0  0  2  0  0  0  0  0  0
  191.2180  174.1350  145.5870 C   0  0  0  0  0  2  0  0  0  0  0  0
  191.8080  175.4550  145.1390 C   0  0  0  0  0  2  0  0  0  0  0  0
  192.4400  176.1520  146.3250 C   0  0  0  0  0  2  0  0  0  0  0  0
  191.6730  175.8040  147.5820 C   0  0  0  0  0  1  0  0  0  0  0  0
  1 17  2  0  0  0  0
  1 18  1  0  0  0  0
  2 20  1  6  0  0  0
  2  1  1  0  0  0  0
  3  9  1  6  0  0  0
  3 11  1  0  0  0  0
  5  2  1  0  0  0  0
  5  3  1  0  0  0  0
  7 16  1  0  0  0  0
  8  7  1  0  0  0  0
  8 24  1  1  0  0  0
  9 12  1  0  0  0  0
 10 15  1  0  0  0  0
 10 14  1  0  0  0  0
 11 18  1  0  0  0  0
 11  7  2  0  0  0  0
 12  6  1  6  0  0  0
 12  8  1  0  0  0  0
 13 15  2  0  0  0  0
 15  4  1  0  0  0  0
 16 14  2  0  0  0  0
 17 13  1  0  0  0  0
 18 10  2  0  0  0  0
 19 20  2  0  0  0  0
 21 20  1  0  0  0  0
 21 23  1  0  0  0  0
 22 21  2  0  0  0  0
 24 25  1  0  0  0  0
 26 25  1  0  0  0  0
 26 27  1  0  0  0  0
 27 28  1  0  0  0  0
M  END
>  <MODEL>
3

>  <REMARK>
 VINA RESULT:      -6.7      2.033      4.067
  Name = 
  6 active torsions:
  status: ('A' for Active; 'I' for Inactive)
    1  A    between atoms: C_2  and  C_11
    2  A    between atoms: C_4  and  C_13
    3  A    between atoms: C_4  and  C_24
    4  A    between atoms: C_6  and  C_11
    5  A    between atoms: C_12  and  C_15
    6  A    between atoms: C_12  and  C_24
                            x       y       z     vdW  Elec       q    Type
                         _______ _______ _______ _____ _____    ______ ____

>  <TORSDO>
F 6

$$$$
=
 OpenBabel11052418073D

 28 31  0  0  1  0  0  0  0  0999 V2000
  190.5100  174.7660  144.3630 C   0  0  0  0  0  0  0  0  0  0  0  0
  191.1330  174.9770  145.7290 C   0  0  2  0  0  3  0  0  0  0  0  0
  189.2310  176.2430  146.4330 C   0  0  1  0  0  3  0  0  0  0  0  0
  188.7140  174.1280  140.6130 O   0  0  0  0  0  1  0  0  0  0  0  0
  190.6890  176.2430  146.3200 N   0  0  0  0  0  2  0  0  0  0  0  0
  186.8250  178.7730  147.9750 C   0  0  0  0  0  1  0  0  0  0  0  0
  187.3210  176.6520  144.8000 C   0  0  0  0  0  0  0  0  0  0  0  0
  186.6000  177.5120  145.8210 C   0  0  2  0  0  3  0  0  0  0  0  0
  188.7790  177.5290  147.1060 C   0  0  0  0  0  2  0  0  0  0  0  0
  188.6430  175.1290  142.8260 C   0  0  0  0  0  0  0  0  0  0  0  0
  188.5930  176.1010  145.0690 C   0  0  0  0  0  0  0  0  0  0  0  0
  187.2630  177.5380  147.2100 C   0  0  1  0  0  3  0  0  0  0  0  0
  190.5200  173.7490  142.1560 C   0  0  0  0  0  3  0  0  0  0  0  0
  187.4030  175.7160  142.5550 C   0  0  0  0  0  3  0  0  0  0  0  0
  189.2880  174.3390  141.8610 C   0  0  0  0  0  0  0  0  0  0  0  0
  186.7540  176.4760  143.5300 C   0  0  0  0  0  3  0  0  0  0  0  0
  191.1230  173.9540  143.3980 C   0  0  0  0  0  3  0  0  0  0  0  0
  189.2470  175.3300  144.0880 C   0  0  0  0  0  0  0  0  0  0  0  0
  193.2030  173.8230  145.9250 O   0  0  0  0  0  0  0  0  0  0  0  0
  192.6350  174.9260  145.7110 C   0  0  0  0  0  0  0  0  0  0  0  0
  193.4550  176.1250  145.4480 C   0  0  0  0  0  0  0  0  0  0  0  0
  193.5210  176.5990  144.2830 O   0  0  0  0  0  0  0  0  0  0  0  0
  194.1750  176.7590  146.5010 N   0  0  0  0  0  1  0  0  0  0  0  0
  185.1130  177.1530  145.9330 C   0  0  0  0  0  2  0  0  0  0  0  0
  184.2220  178.3830  145.8600 C   0  0  0  0  0  2  0  0  0  0  0  0
  184.5230  179.1490  144.5890 C   0  0  0  0  0  2  0  0  0  0  0  0
  183.5250  178.7600  143.5190 C   0  0  0  0  0  2  0  0  0  0  0  0
  184.2650  178.3850  142.2530 C   0  0  0  0  0  1  0  0  0  0  0  0
  1  2  1  0  0  0  0
  2 20  1  6  0  0  0
  2  5  1  0  0  0  0
  3  9  1  6  0  0  0
  4 15  1  0  0  0  0
  5  3  1  0  0  0  0
  7 11  1  0  0  0  0
  7  8  1  0  0  0  0
  8 24  1  1  0  0  0
  8 12  1  0  0  0  0
  9 12  1  0  0  0  0
 10 18  1  0  0  0  0
 11  3  1  0  0  0  0
 12  6  1  6  0  0  0
 13 17  1  0  0  0  0
 14 10  2  0  0  0  0
 14 16  1  0  0  0  0
 15 13  2  0  0  0  0
 15 10  1  0  0  0  0
 16  7  2  0  0  0  0
 17  1  2  0  0  0  0
 18  1  1  0  0  0  0
 18 11  2  0  0  0  0
 20 19  2  0  0  0  0
 21 20  1  0  0  0  0
 21 23  1  0  0  0  0
 22 21  2  0  0  0  0
 25 24  1  0  0  0  0
 26 25  1  0  0  0  0
 27 26  1  0  0  0  0
 28 27  1  0  0  0  0
M  END
>  <MODEL>
4

>  <REMARK>
 VINA RESULT:      -6.7      3.257      6.258
  Name = 
  6 active torsions:
  status: ('A' for Active; 'I' for Inactive)
    1  A    between atoms: C_2  and  C_11
    2  A    between atoms: C_4  and  C_13
    3  A    between atoms: C_4  and  C_24
    4  A    between atoms: C_6  and  C_11
    5  A    between atoms: C_12  and  C_15
    6  A    between atoms: C_12  and  C_24
                            x       y       z     vdW  Elec       q    Type
                         _______ _______ _______ _____ _____    ______ ____

>  <TORSDO>
F 6

$$$$
=
 OpenBabel11052418073D

 28 31  0  0  1  0  0  0  0  0999 V2000
  186.5290  177.1650  144.2030 C   0  0  0  0  0  0  0  0  0  0  0  0
  186.7770  177.2670  142.7100 C   0  0  2  0  0  3  0  0  0  0  0  0
  189.0080  176.4570  142.9960 C   0  0  1  0  0  3  0  0  0  0  0  0
  185.8490  176.7910  148.3370 O   0  0  0  0  0  1  0  0  0  0  0  0
  188.1920  177.5290  142.4280 N   0  0  0  0  0  2  0  0  0  0  0  0
  192.7590  175.7810  142.8080 C   0  0  0  0  0  1  0  0  0  0  0  0
  189.8580  175.9180  145.3350 C   0  0  0  0  0  0  0  0  0  0  0  0
  191.2330  175.5860  144.7850 C   0  0  2  0  0  3  0  0  0  0  0  0
  190.4680  176.6980  142.6450 C   0  0  0  0  0  2  0  0  0  0  0  0
  187.3490  176.5960  146.4350 C   0  0  0  0  0  0  0  0  0  0  0  0
  188.8230  176.3870  144.4960 C   0  0  0  0  0  0  0  0  0  0  0  0
  191.3200  175.5930  143.2480 C   0  0  1  0  0  3  0  0  0  0  0  0
  185.0520  177.3060  146.1270 C   0  0  0  0  0  3  0  0  0  0  0  0
  188.3940  176.1720  147.2620 C   0  0  0  0  0  3  0  0  0  0  0  0
  186.0870  176.8990  146.9720 C   0  0  0  0  0  0  0  0  0  0  0  0
  189.6370  175.8450  146.7170 C   0  0  0  0  0  3  0  0  0  0  0  0
  185.2670  177.4320  144.7540 C   0  0  0  0  0  3  0  0  0  0  0  0
  187.5670  176.7130  145.0430 C   0  0  0  0  0  0  0  0  0  0  0  0
  185.7610  179.4140  142.6100 O   0  0  0  0  0  0  0  0  0  0  0  0
  185.9260  178.3060  142.0360 C   0  0  0  0  0  0  0  0  0  0  0  0
  185.2860  178.0650  140.7280 C   0  0  0  0  0  0  0  0  0  0  0  0
  185.9490  177.5510  139.7880 O   0  0  0  0  0  0  0  0  0  0  0  0
  183.9200  178.4040  140.5120 N   0  0  0  0  0  1  0  0  0  0  0  0
  191.7820  174.2730  145.3560 C   0  0  0  0  0  2  0  0  0  0  0  0
  193.0510  174.4890  146.1660 C   0  0  0  0  0  2  0  0  0  0  0  0
  193.1830  175.9560  146.5140 C   0  0  0  0  0  2  0  0  0  0  0  0
  194.5660  176.4410  146.1320 C   0  0  0  0  0  2  0  0  0  0  0  0
  195.3980  175.2690  145.6580 C   0  0  0  0  0  1  0  0  0  0  0  0
  1 17  2  0  0  0  0
  1 18  1  0  0  0  0
  2 20  1  1  0  0  0
  2  1  1  0  0  0  0
  3  9  1  1  0  0  0
  3 11  1  0  0  0  0
  5  2  1  0  0  0  0
  5  3  1  0  0  0  0
  7 16  1  0  0  0  0
  8  7  1  0  0  0  0
  8 24  1  6  0  0  0
  9 12  1  0  0  0  0
 10 15  1  0  0  0  0
 10 14  1  0  0  0  0
 11 18  1  0  0  0  0
 11  7  2  0  0  0  0
 12  6  1  1  0  0  0
 12  8  1  0  0  0  0
 13 15  2  0  0  0  0
 15  4  1  0  0  0  0
 16 14  2  0  0  0  0
 17 13  1  0  0  0  0
 18 10  2  0  0  0  0
 20 19  2  0  0  0  0
 21 20  1  0  0  0  0
 22 21  2  0  0  0  0
 23 21  1  0  0  0  0
 24 25  1  0  0  0  0
 25 26  1  0  0  0  0
 27 26  1  0  0  0  0
 28 27  1  0  0  0  0
M  END
>  <MODEL>
5

>  <REMARK>
 VINA RESULT:      -6.6      1.938      4.181
  Name = 
  6 active torsions:
  status: ('A' for Active; 'I' for Inactive)
    1  A    between atoms: C_2  and  C_11
    2  A    between atoms: C_4  and  C_13
    3  A    between atoms: C_4  and  C_24
    4  A    between atoms: C_6  and  C_11
    5  A    between atoms: C_12  and  C_15
    6  A    between atoms: C_12  and  C_24
                            x       y       z     vdW  Elec       q    Type
                         _______ _______ _______ _____ _____    ______ ____

>  <TORSDO>
F 6

$$$$
=
 OpenBabel11052418073D

 28 31  0  0  1  0  0  0  0  0999 V2000
  190.5920  175.1890  143.6160 C   0  0  0  0  0  0  0  0  0  0  0  0
  190.4740  174.9060  142.1310 C   0  0  2  0  0  3  0  0  0  0  0  0
  188.5530  176.3220  141.9860 C   0  0  1  0  0  3  0  0  0  0  0  0
  190.9430  176.0630  147.7160 O   0  0  0  0  0  1  0  0  0  0  0  0
  189.0780  174.9900  141.6900 N   0  0  0  0  0  2  0  0  0  0  0  0
  185.1920  177.9390  141.1780 C   0  0  0  0  0  1  0  0  0  0  0  0
  187.6690  177.4580  144.0860 C   0  0  0  0  0  0  0  0  0  0  0  0
  186.5090  178.0490  143.3070 C   0  0  2  0  0  3  0  0  0  0  0  0
  187.1270  176.4260  141.4670 C   0  0  0  0  0  2  0  0  0  0  0  0
  189.7570  176.3280  145.6120 C   0  0  0  0  0  0  0  0  0  0  0  0
  188.6020  176.5930  143.4730 C   0  0  0  0  0  0  0  0  0  0  0  0
  186.5740  177.8050  141.7880 C   0  0  1  0  0  3  0  0  0  0  0  0
  191.7710  174.9850  145.7310 C   0  0  0  0  0  3  0  0  0  0  0  0
  188.8020  177.1510  146.2180 C   0  0  0  0  0  3  0  0  0  0  0  0
  190.8190  175.7930  146.3580 C   0  0  0  0  0  0  0  0  0  0  0  0
  187.7650  177.7020  145.4630 C   0  0  0  0  0  3  0  0  0  0  0  0
  191.6650  174.6900  144.3710 C   0  0  0  0  0  3  0  0  0  0  0  0
  189.6520  176.0390  144.2310 C   0  0  0  0  0  0  0  0  0  0  0  0
  192.2650  173.5250  141.3970 O   0  0  0  0  0  0  0  0  0  0  0  0
  191.0520  173.5770  141.7310 C   0  0  0  0  0  0  0  0  0  0  0  0
  190.2430  172.3430  141.7230 C   0  0  0  0  0  0  0  0  0  0  0  0
  189.7880  171.8960  140.6370 O   0  0  0  0  0  0  0  0  0  0  0  0
  189.9700  171.6440  142.9330 N   0  0  0  0  0  1  0  0  0  0  0  0
  186.3070  179.5390  143.6110 C   0  0  0  0  0  2  0  0  0  0  0  0
  184.9630  179.8110  144.2680 C   0  0  0  0  0  2  0  0  0  0  0  0
  184.3090  178.4970  144.6410 C   0  0  0  0  0  2  0  0  0  0  0  0
  184.1110  178.4430  146.1420 C   0  0  0  0  0  2  0  0  0  0  0  0
  184.7200  177.1680  146.6850 C   0  0  0  0  0  1  0  0  0  0  0  0
  1 18  2  0  0  0  0
  1 17  1  0  0  0  0
  2 20  1  1  0  0  0
  2  1  1  0  0  0  0
  3  9  1  1  0  0  0
  3 11  1  0  0  0  0
  5  3  1  0  0  0  0
  5  2  1  0  0  0  0
  7 16  1  0  0  0  0
  8 24  1  6  0  0  0
  8  7  1  0  0  0  0
  9 12  1  0  0  0  0
 10 14  1  0  0  0  0
 10 15  2  0  0  0  0
 11  7  2  0  0  0  0
 11 18  1  0  0  0  0
 12  6  1  1  0  0  0
 12  8  1  0  0  0  0
 13 15  1  0  0  0  0
 15  4  1  0  0  0  0
 16 14  2  0  0  0  0
 17 13  2  0  0  0  0
 18 10  1  0  0  0  0
 19 20  2  0  0  0  0
 21 20  1  0  0  0  0
 21 23  1  0  0  0  0
 22 21  2  0  0  0  0
 24 25  1  0  0  0  0
 25 26  1  0  0  0  0
 26 27  1  0  0  0  0
 27 28  1  0  0  0  0
M  END
>  <MODEL>
6

>  <REMARK>
 VINA RESULT:      -6.5      3.127      6.996
  Name = 
  6 active torsions:
  status: ('A' for Active; 'I' for Inactive)
    1  A    between atoms: C_2  and  C_11
    2  A    between atoms: C_4  and  C_13
    3  A    between atoms: C_4  and  C_24
    4  A    between atoms: C_6  and  C_11
    5  A    between atoms: C_12  and  C_15
    6  A    between atoms: C_12  and  C_24
                            x       y       z     vdW  Elec       q    Type
                         _______ _______ _______ _____ _____    ______ ____

>  <TORSDO>
F 6

$$$$
=
 OpenBabel11052418073D

 28 31  0  0  1  0  0  0  0  0999 V2000
  186.7460  177.1060  144.1170 C   0  0  0  0  0  0  0  0  0  0  0  0
  187.0260  177.2460  142.6330 C   0  0  2  0  0  3  0  0  0  0  0  0
  189.2320  176.3760  142.9400 C   0  0  1  0  0  3  0  0  0  0  0  0
  185.9710  176.6270  148.2230 O   0  0  0  0  0  1  0  0  0  0  0  0
  188.4530  177.4830  142.3880 N   0  0  0  0  0  2  0  0  0  0  0  0
  192.9700  175.6180  142.8080 C   0  0  0  0  0  1  0  0  0  0  0  0
  190.0210  175.7490  145.2790 C   0  0  0  0  0  0  0  0  0  0  0  0
  191.3980  175.4010  144.7470 C   0  0  2  0  0  3  0  0  0  0  0  0
  190.7040  176.5930  142.6260 C   0  0  0  0  0  2  0  0  0  0  0  0
  187.5050  176.4520  146.3470 C   0  0  0  0  0  0  0  0  0  0  0  0
  189.0150  176.2660  144.4330 C   0  0  0  0  0  0  0  0  0  0  0  0
  191.5180  175.4510  143.2130 C   0  0  1  0  0  3  0  0  0  0  0  0
  185.2320  177.2250  146.0140 C   0  0  0  0  0  3  0  0  0  0  0  0
  188.5230  175.9800  147.1830 C   0  0  0  0  0  3  0  0  0  0  0  0
  186.2400  176.7690  146.8680 C   0  0  0  0  0  0  0  0  0  0  0  0
  189.7690  175.6410  146.6540 C   0  0  0  0  0  3  0  0  0  0  0  0
  185.4780  177.3860  144.6500 C   0  0  0  0  0  3  0  0  0  0  0  0
  187.7550  176.6050  144.9640 C   0  0  0  0  0  0  0  0  0  0  0  0
  186.1200  179.4420  142.5450 O   0  0  0  0  0  0  0  0  0  0  0  0
  186.2130  178.3240  141.9730 C   0  0  0  0  0  0  0  0  0  0  0  0
  185.5310  178.1090  140.6830 C   0  0  0  0  0  0  0  0  0  0  0  0
  186.1520  177.5810  139.7220 O   0  0  0  0  0  0  0  0  0  0  0  0
  184.1700  178.4910  140.5070 N   0  0  0  0  0  1  0  0  0  0  0  0
  191.9060  174.0590  145.2890 C   0  0  0  0  0  2  0  0  0  0  0  0
  191.5290  172.8980  144.3830 C   0  0  0  0  0  2  0  0  0  0  0  0
  190.1050  172.4720  144.6750 C   0  0  0  0  0  2  0  0  0  0  0  0
  189.5120  171.8240  143.4420 C   0  0  0  0  0  2  0  0  0  0  0  0
  188.8140  172.8760  142.6060 C   0  0  0  0  0  1  0  0  0  0  0  0
  1 17  2  0  0  0  0
  1 18  1  0  0  0  0
  2 20  1  1  0  0  0
  2  1  1  0  0  0  0
  3  9  1  1  0  0  0
  3 11  1  0  0  0  0
  5  2  1  0  0  0  0
  5  3  1  0  0  0  0
  7 16  1  0  0  0  0
  8  7  1  0  0  0  0
  8 24  1  6  0  0  0
  9 12  1  0  0  0  0
 10 15  1  0  0  0  0
 10 14  1  0  0  0  0
 11 18  1  0  0  0  0
 11  7  2  0  0  0  0
 12  6  1  1  0  0  0
 12  8  1  0  0  0  0
 13 15  2  0  0  0  0
 15  4  1  0  0  0  0
 16 14  2  0  0  0  0
 17 13  1  0  0  0  0
 18 10  2  0  0  0  0
 20 19  2  0  0  0  0
 21 20  1  0  0  0  0
 22 21  2  0  0  0  0
 23 21  1  0  0  0  0
 25 26  1  0  0  0  0
 25 24  1  0  0  0  0
 27 26  1  0  0  0  0
 28 27  1  0  0  0  0
M  END
>  <MODEL>
7

>  <REMARK>
 VINA RESULT:      -6.4      1.826      4.338
  Name = 
  6 active torsions:
  status: ('A' for Active; 'I' for Inactive)
    1  A    between atoms: C_2  and  C_11
    2  A    between atoms: C_4  and  C_13
    3  A    between atoms: C_4  and  C_24
    4  A    between atoms: C_6  and  C_11
    5  A    between atoms: C_12  and  C_15
    6  A    between atoms: C_12  and  C_24
                            x       y       z     vdW  Elec       q    Type
                         _______ _______ _______ _____ _____    ______ ____

>  <TORSDO>
F 6

$$$$
=
 OpenBabel11052418073D

 28 31  0  0  1  0  0  0  0  0999 V2000
  188.3130  176.2420  142.8010 C   0  0  0  0  0  0  0  0  0  0  0  0
  188.1310  177.6680  143.2820 C   0  0  2  0  0  3  0  0  0  0  0  0
  189.5530  177.2470  145.1580 C   0  0  1  0  0  3  0  0  0  0  0  0
  188.9070  172.3030  141.4490 O   0  0  0  0  0  1  0  0  0  0  0  0
  188.2440  177.7490  144.7420 N   0  0  0  0  0  2  0  0  0  0  0  0
  191.2190  177.1010  148.5880 C   0  0  0  0  0  1  0  0  0  0  0  0
  190.5430  174.9240  145.4850 C   0  0  0  0  0  0  0  0  0  0  0  0
  191.1850  175.3560  146.7910 C   0  0  2  0  0  3  0  0  0  0  0  0
  189.6910  177.3940  146.6650 C   0  0  0  0  0  2  0  0  0  0  0  0
  189.3140  174.0320  143.1070 C   0  0  0  0  0  0  0  0  0  0  0  0
  189.7230  175.8020  144.7440 C   0  0  0  0  0  0  0  0  0  0  0  0
  191.0450  176.8570  147.1010 C   0  0  1  0  0  3  0  0  0  0  0  0
  187.9670  174.4960  141.1460 C   0  0  0  0  0  3  0  0  0  0  0  0
  190.0930  173.1580  143.8730 C   0  0  0  0  0  3  0  0  0  0  0  0
  188.7300  173.6040  141.9040 C   0  0  0  0  0  0  0  0  0  0  0  0
  190.6940  173.5990  145.0530 C   0  0  0  0  0  3  0  0  0  0  0  0
  187.7650  175.8060  141.5850 C   0  0  0  0  0  3  0  0  0  0  0  0
  189.1190  175.3610  143.5500 C   0  0  0  0  0  0  0  0  0  0  0  0
  186.7070  178.6190  141.6330 O   0  0  0  0  0  0  0  0  0  0  0  0
  186.8340  178.2840  142.8400 C   0  0  0  0  0  0  0  0  0  0  0  0
  185.7130  178.5010  143.7750 C   0  0  0  0  0  0  0  0  0  0  0  0
  184.9640  177.5400  144.0930 O   0  0  0  0  0  0  0  0  0  0  0  0
  185.4650  179.7900  144.3270 N   0  0  0  0  0  1  0  0  0  0  0  0
  192.6500  174.9140  146.8890 C   0  0  0  0  0  2  0  0  0  0  0  0
  193.5950  175.9230  146.2540 C   0  0  0  0  0  2  0  0  0  0  0  0
  193.9600  175.4630  144.8590 C   0  0  0  0  0  2  0  0  0  0  0  0
  193.3630  176.4160  143.8440 C   0  0  0  0  0  2  0  0  0  0  0  0
  192.8330  175.6290  142.6640 C   0  0  0  0  0  1  0  0  0  0  0  0
  1  2  1  0  0  0  0
  1 18  1  0  0  0  0
  2 20  1  1  0  0  0
  2  5  1  0  0  0  0
  3  9  1  1  0  0  0
  4 15  1  0  0  0  0
  5  3  1  0  0  0  0
  7  8  1  0  0  0  0
  8 24  1  6  0  0  0
  8 12  1  0  0  0  0
  9 12  1  0  0  0  0
 10 18  2  0  0  0  0
 10 14  1  0  0  0  0
 11  3  1  0  0  0  0
 11  7  2  0  0  0  0
 12  6  1  1  0  0  0
 13 17  1  0  0  0  0
 13 15  2  0  0  0  0
 14 16  2  0  0  0  0
 15 10  1  0  0  0  0
 16  7  1  0  0  0  0
 17  1  2  0  0  0  0
 18 11  1  0  0  0  0
 19 20  2  0  0  0  0
 20 21  1  0  0  0  0
 21 22  2  0  0  0  0
 21 23  1  0  0  0  0
 25 24  1  0  0  0  0
 26 25  1  0  0  0  0
 27 26  1  0  0  0  0
 28 27  1  0  0  0  0
M  END
>  <MODEL>
8

>  <REMARK>
 VINA RESULT:      -6.4      1.879      2.659
  Name = 
  6 active torsions:
  status: ('A' for Active; 'I' for Inactive)
    1  A    between atoms: C_2  and  C_11
    2  A    between atoms: C_4  and  C_13
    3  A    between atoms: C_4  and  C_24
    4  A    between atoms: C_6  and  C_11
    5  A    between atoms: C_12  and  C_15
    6  A    between atoms: C_12  and  C_24
                            x       y       z     vdW  Elec       q    Type
                         _______ _______ _______ _____ _____    ______ ____

>  <TORSDO>
F 6

$$$$
=
 OpenBabel11052418073D

 28 31  0  0  1  0  0  0  0  0999 V2000
  188.2850  176.8180  145.0880 C   0  0  0  0  0  0  0  0  0  0  0  0
  186.9120  176.7960  144.4430 C   0  0  2  0  0  3  0  0  0  0  0  0
  187.7680  175.5380  142.5990 C   0  0  1  0  0  3  0  0  0  0  0  0
  192.0850  176.7850  146.8910 O   0  0  0  0  0  1  0  0  0  0  0  0
  187.0200  176.7340  142.9820 N   0  0  0  0  0  2  0  0  0  0  0  0
  188.5710  174.0610  139.1730 C   0  0  0  0  0  1  0  0  0  0  0  0
  190.2410  174.9340  142.5300 C   0  0  0  0  0  0  0  0  0  0  0  0
  190.0700  174.2890  141.1680 C   0  0  2  0  0  3  0  0  0  0  0  0
  187.8200  175.4430  141.0820 C   0  0  0  0  0  2  0  0  0  0  0  0
  190.6460  176.1860  145.0270 C   0  0  0  0  0  0  0  0  0  0  0  0
  189.1640  175.5770  143.1800 C   0  0  0  0  0  0  0  0  0  0  0  0
  188.6110  174.2080  140.6820 C   0  0  1  0  0  3  0  0  0  0  0  0
  189.7500  177.3600  146.9500 C   0  0  0  0  0  3  0  0  0  0  0  0
  191.7140  175.5840  144.3540 C   0  0  0  0  0  3  0  0  0  0  0  0
  190.8340  176.7770  146.2860 C   0  0  0  0  0  0  0  0  0  0  0  0
  191.5140  174.9730  143.1160 C   0  0  0  0  0  3  0  0  0  0  0  0
  188.4850  177.3750  146.3600 C   0  0  0  0  0  3  0  0  0  0  0  0
  189.3630  176.1900  144.4320 C   0  0  0  0  0  0  0  0  0  0  0  0
  186.2910  179.0890  144.3260 O   0  0  0  0  0  0  0  0  0  0  0  0
  186.0520  177.9630  144.8380 C   0  0  0  0  0  0  0  0  0  0  0  0
  184.9410  177.8250  145.8000 C   0  0  0  0  0  0  0  0  0  0  0  0
  184.8490  176.7900  146.5120 O   0  0  0  0  0  0  0  0  0  0  0  0
  183.9660  178.8540  145.9370 N   0  0  0  0  0  1  0  0  0  0  0  0
  190.7470  172.9160  141.0890 C   0  0  0  0  0  2  0  0  0  0  0  0
  190.0940  171.9030  142.0170 C   0  0  0  0  0  2  0  0  0  0  0  0
  191.1610  171.2080  142.8360 C   0  0  0  0  0  2  0  0  0  0  0  0
  191.1240  171.7310  144.2560 C   0  0  0  0  0  2  0  0  0  0  0  0
  189.6990  172.0850  144.6260 C   0  0  0  0  0  1  0  0  0  0  0  0
  1 17  1  0  0  0  0
  2 20  1  6  0  0  0
  2  1  1  0  0  0  0
  3  9  1  6  0  0  0
  3  5  1  0  0  0  0
  3 11  1  0  0  0  0
  5  2  1  0  0  0  0
  7 16  1  0  0  0  0
  7 11  2  0  0  0  0
  8 24  1  1  0  0  0
  8  7  1  0  0  0  0
 10 15  2  0  0  0  0
 11 18  1  0  0  0  0
 12  6  1  6  0  0  0
 12  9  1  0  0  0  0
 12  8  1  0  0  0  0
 14 10  1  0  0  0  0
 15  4  1  0  0  0  0
 15 13  1  0  0  0  0
 16 14  2  0  0  0  0
 17 13  2  0  0  0  0
 18 10  1  0  0  0  0
 18  1  2  0  0  0  0
 19 20  2  0  0  0  0
 20 21  1  0  0  0  0
 21 23  1  0  0  0  0
 21 22  2  0  0  0  0
 24 25  1  0  0  0  0
 25 26  1  0  0  0  0
 26 27  1  0  0  0  0
 27 28  1  0  0  0  0
M  END
>  <MODEL>
9

>  <REMARK>
 VINA RESULT:      -6.3      2.470      4.682
  Name = 
  6 active torsions:
  status: ('A' for Active; 'I' for Inactive)
    1  A    between atoms: C_2  and  C_11
    2  A    between atoms: C_4  and  C_13
    3  A    between atoms: C_4  and  C_24
    4  A    between atoms: C_6  and  C_11
    5  A    between atoms: C_12  and  C_15
    6  A    between atoms: C_12  and  C_24
                            x       y       z     vdW  Elec       q    Type
                         _______ _______ _______ _____ _____    ______ ____

>  <TORSDO>
F 6

$$$$
