=
 OpenBabel11052418453D

 34 40  0  0  1  0  0  0  0  0999 V2000
  190.6600  173.4170  140.7940 C   0  0  0  0  0  0  0  0  0  0  0  0
  189.0160  174.9870  141.6760 C   0  0  0  0  0  0  0  0  0  0  0  0
  191.0270  174.4480  142.9640 C   0  0  0  0  0  0  0  0  0  0  0  0
  191.4730  175.4360  145.1270 C   0  0  0  0  0  0  0  0  0  0  0  0
  188.6790  173.9430  139.5100 C   0  0  0  0  0  3  0  0  0  0  0  0
  188.2480  174.8090  140.5210 C   0  0  0  0  0  3  0  0  0  0  0  0
  189.4370  176.0430  143.9340 C   0  0  0  0  0  0  0  0  0  0  0  0
  190.2320  174.2890  141.8170 C   0  0  1  0  0  3  0  0  0  0  0  0
  189.1060  176.8940  145.0060 C   0  0  0  0  0  0  0  0  0  0  0  0
  191.0990  176.2920  146.1620 C   0  0  0  0  0  3  0  0  0  0  0  0
  189.8840  173.2480  139.6450 C   0  0  0  0  0  3  0  0  0  0  0  0
  192.2390  173.7290  143.0670 C   0  0  0  0  0  0  0  0  0  0  0  0
  191.8650  172.7270  140.9390 C   0  0  0  0  0  3  0  0  0  0  0  0
  188.5150  175.9210  142.7420 C   0  0  0  0  0  3  0  0  0  0  0  0
  192.6330  174.7350  145.2050 N   0  0  0  0  0  0  0  0  0  0  0  0
  193.0400  173.8910  144.2190 C   0  0  0  0  0  0  0  0  0  0  0  0
  189.9400  176.9950  146.0780 N   0  0  0  0  0  0  0  0  0  0  0  0
  190.6380  175.3100  144.0020 C   0  0  0  0  0  0  0  0  0  0  0  0
  192.6180  172.8950  142.0570 N   0  0  0  0  0  0  0  0  0  0  0  0
  196.8200  173.3770  144.7170 C   0  0  1  0  0  3  0  0  0  0  0  0
  196.7420  172.4300  145.9130 C   0  0  0  0  0  2  0  0  0  0  0  0
  194.3410  173.1650  144.4060 C   0  0  1  0  0  3  0  0  0  0  0  0
  195.5940  171.4420  145.7250 C   0  0  0  0  0  2  0  0  0  0  0  0
  195.5090  174.1400  144.5610 C   0  0  0  0  0  2  0  0  0  0  0  0
  194.2720  172.1880  145.5820 C   0  0  0  0  0  2  0  0  0  0  0  0
  197.8640  174.2800  144.9050 O   0  0  0  0  0  1  0  0  0  0  0  0
  187.8550  177.7150  144.9840 C   0  0  0  0  0  2  0  0  0  0  0  0
  185.2420  177.5400  143.6190 N   0  0  0  0  0  1  0  0  0  0  0  0
  186.6650  176.9280  145.5370 C   0  0  2  0  0  3  0  0  0  0  0  0
  185.3300  177.5230  145.0700 C   0  0  1  0  0  3  0  0  0  0  0  0
  185.6880  179.1440  147.0240 C   0  0  0  0  0  2  0  0  0  0  0  0
  185.8010  177.8330  147.7940 C   0  0  0  0  0  2  0  0  0  0  0  0
  186.7330  176.8480  147.0750 C   0  0  0  0  0  2  0  0  0  0  0  0
  185.0700  178.9280  145.6360 C   0  0  0  0  0  2  0  0  0  0  0  0
  1 13  2  0  0  0  0
  2  8  1  0  0  0  0
  2 14  1  0  0  0  0
  3 12  1  0  0  0  0
  3 18  2  0  0  0  0
  4 15  1  0  0  0  0
  4 10  2  0  0  0  0
  5 11  2  0  0  0  0
  5  6  1  0  0  0  0
  6  2  2  0  0  0  0
  7 18  1  0  0  0  0
  7  9  1  0  0  0  0
  8  1  1  1  0  0  0
  8  3  1  0  0  0  0
  9 17  2  0  0  0  0
 11  1  1  0  0  0  0
 12 16  1  0  0  0  0
 13 19  1  0  0  0  0
 14  7  2  0  0  0  0
 16 15  2  0  0  0  0
 17 10  1  0  0  0  0
 18  4  1  0  0  0  0
 19 12  2  0  0  0  0
 20 26  1  1  0  0  0
 20 21  1  0  0  0  0
 22 16  1  1  0  0  0
 22 24  1  0  0  0  0
 22 25  1  0  0  0  0
 23 21  1  0  0  0  0
 24 20  1  0  0  0  0
 25 23  1  0  0  0  0
 27  9  1  0  0  0  0
 29 27  1  1  0  0  0
 29 33  1  0  0  0  0
 30 28  1  6  0  0  0
 30 29  1  0  0  0  0
 30 34  1  0  0  0  0
 31 32  1  0  0  0  0
 33 32  1  0  0  0  0
 34 31  1  0  0  0  0
M  END
>  <MODEL>
1

>  <REMARK>
 VINA RESULT:      -8.9      0.000      0.000
  Name = 
  3 active torsions:
  status: ('A' for Active; 'I' for Inactive)
    1  A    between atoms: C_3  and  C_13
    2  A    between atoms: C_3  and  C_17
    3  A    between atoms: C_12  and  C_28
                            x       y       z     vdW  Elec       q    Type
                         _______ _______ _______ _____ _____    ______ ____

>  <TORSDO>
F 3

$$$$
=
 OpenBabel11052418453D

 34 40  0  0  1  0  0  0  0  0999 V2000
  192.1130  174.5710  145.6630 C   0  0  0  0  0  0  0  0  0  0  0  0
  190.4220  176.3270  145.7370 C   0  0  0  0  0  0  0  0  0  0  0  0
  190.4470  174.7100  143.8990 C   0  0  0  0  0  0  0  0  0  0  0  0
  188.8210  174.7740  142.1080 C   0  0  0  0  0  0  0  0  0  0  0  0
  192.0960  176.1600  147.4870 C   0  0  0  0  0  3  0  0  0  0  0  0
  190.9820  176.7950  146.9300 C   0  0  0  0  0  3  0  0  0  0  0  0
  188.7030  176.4340  143.8860 C   0  0  0  0  0  0  0  0  0  0  0  0
  190.9870  175.2060  145.0960 C   0  0  0  0  0  0  0  0  0  0  0  0
  187.5780  176.9890  143.2450 C   0  0  0  0  0  0  0  0  0  0  0  0
  187.7050  175.3590  141.5130 C   0  0  0  0  0  3  0  0  0  0  0  0
  192.6620  175.0490  146.8550 C   0  0  0  0  0  3  0  0  0  0  0  0
  191.0440  173.5860  143.2870 C   0  0  0  0  0  0  0  0  0  0  0  0
  192.6690  173.4630  145.0240 C   0  0  0  0  0  3  0  0  0  0  0  0
  189.2280  177.0420  145.1680 C   0  0  0  0  0  3  0  0  0  0  0  0
  189.4120  173.6920  141.5380 N   0  0  0  0  0  2  0  0  0  0  0  0
  190.5000  173.0850  142.0840 C   0  0  0  0  0  0  0  0  0  0  0  0
  187.1150  176.4390  142.0880 N   0  0  0  0  0  0  0  0  0  0  0  0
  189.3250  175.3120  143.3050 C   0  0  0  0  0  0  0  0  0  0  0  0
  192.1310  173.0000  143.8650 N   0  0  0  0  0  0  0  0  0  0  0  0
  191.1320  169.3940  141.2060 C   0  0  1  0  0  3  0  0  0  0  0  0
  190.8900  169.4970  139.7010 C   0  0  0  0  0  2  0  0  0  0  0  0
  191.0740  171.8950  141.3720 C   0  0  1  0  0  3  0  0  0  0  0  0
  191.4920  170.7910  139.1610 C   0  0  0  0  0  2  0  0  0  0  0  0
  190.5080  170.5850  141.9240 C   0  0  0  0  0  2  0  0  0  0  0  0
  190.8680  171.9950  139.8590 C   0  0  0  0  0  2  0  0  0  0  0  0
  190.5700  168.2130  141.6880 O   0  0  0  0  0  1  0  0  0  0  0  0
  186.8610  178.1680  143.8220 C   0  0  0  0  0  2  0  0  0  0  0  0
  184.6260  180.0610  144.2050 N   0  0  0  0  0  1  0  0  0  0  0  0
  185.5010  177.7640  144.3950 C   0  0  2  0  0  3  0  0  0  0  0  0
  184.8180  178.9390  145.1090 C   0  0  1  0  0  3  0  0  0  0  0  0
  186.3100  178.2490  147.0760 C   0  0  0  0  0  2  0  0  0  0  0  0
  185.6310  176.9070  146.8270 C   0  0  0  0  0  2  0  0  0  0  0  0
  185.6460  176.5500  145.3340 C   0  0  0  0  0  2  0  0  0  0  0  0
  185.5710  179.3930  146.3690 C   0  0  0  0  0  2  0  0  0  0  0  0
  1 11  1  0  0  0  0
  2  6  2  0  0  0  0
  3  8  1  0  0  0  0
  4 18  1  0  0  0  0
  6  5  1  0  0  0  0
  7 14  2  0  0  0  0
  8  1  2  0  0  0  0
  8  2  1  0  0  0  0
  9 27  1  0  0  0  0
  9  7  1  0  0  0  0
 10 17  1  0  0  0  0
 10  4  2  0  0  0  0
 11  5  2  0  0  0  0
 12 19  1  0  0  0  0
 12  3  1  0  0  0  0
 13  1  1  0  0  0  0
 14  2  1  0  0  0  0
 15 16  1  0  0  0  0
 15  4  1  0  0  0  0
 16 12  2  0  0  0  0
 17  9  2  0  0  0  0
 18  7  1  0  0  0  0
 18  3  2  0  0  0  0
 19 13  2  0  0  0  0
 20 26  1  1  0  0  0
 20 24  1  0  0  0  0
 21 20  1  0  0  0  0
 22 24  1  0  0  0  0
 22 16  1  1  0  0  0
 23 21  1  0  0  0  0
 23 25  1  0  0  0  0
 25 22  1  0  0  0  0
 29 27  1  1  0  0  0
 29 30  1  0  0  0  0
 29 33  1  0  0  0  0
 30 28  1  6  0  0  0
 30 34  1  0  0  0  0
 32 31  1  0  0  0  0
 33 32  1  0  0  0  0
 34 31  1  0  0  0  0
M  END
>  <MODEL>
2

>  <REMARK>
 VINA RESULT:      -8.8      2.634      4.981
  Name = 
  3 active torsions:
  status: ('A' for Active; 'I' for Inactive)
    1  A    between atoms: C_3  and  C_13
    2  A    between atoms: C_3  and  C_17
    3  A    between atoms: C_12  and  C_28
                            x       y       z     vdW  Elec       q    Type
                         _______ _______ _______ _____ _____    ______ ____

>  <TORSDO>
F 3

$$$$
=
 OpenBabel11052418453D

 34 40  0  0  1  0  0  0  0  0999 V2000
  193.1210  174.6280  144.4460 C   0  0  0  0  0  0  0  0  0  0  0  0
  191.3500  176.0840  145.2760 C   0  0  0  0  0  0  0  0  0  0  0  0
  191.0640  174.8660  143.1710 C   0  0  0  0  0  0  0  0  0  0  0  0
  189.0470  175.0410  141.8470 C   0  0  0  0  0  0  0  0  0  0  0  0
  193.4130  175.8220  146.5280 C   0  0  0  0  0  3  0  0  0  0  0  0
  192.1420  176.3900  146.3870 C   0  0  0  0  0  3  0  0  0  0  0  0
  189.2240  176.3000  143.9250 C   0  0  0  0  0  0  0  0  0  0  0  0
  191.8370  175.1960  144.2960 C   0  0  0  0  0  0  0  0  0  0  0  0
  187.9300  176.8040  143.6870 C   0  0  0  0  0  0  0  0  0  0  0  0
  187.7710  175.5680  141.6580 C   0  0  0  0  0  3  0  0  0  0  0  0
  193.9020  174.9420  145.5590 C   0  0  0  0  0  3  0  0  0  0  0  0
  191.5910  173.9730  142.2120 C   0  0  0  0  0  0  0  0  0  0  0  0
  193.6000  173.7500  143.4720 C   0  0  0  0  0  3  0  0  0  0  0  0
  189.9920  176.7200  145.1580 C   0  0  0  0  0  3  0  0  0  0  0  0
  189.5740  174.1810  140.9370 N   0  0  0  0  0  2  0  0  0  0  0  0
  190.8130  173.6390  141.0810 C   0  0  0  0  0  0  0  0  0  0  0  0
  187.2460  176.4250  142.5720 N   0  0  0  0  0  0  0  0  0  0  0  0
  189.7820  175.4080  142.9890 C   0  0  0  0  0  0  0  0  0  0  0  0
  192.8360  173.4460  142.3900 N   0  0  0  0  0  0  0  0  0  0  0  0
  190.7470  170.7260  138.5710 C   0  0  1  0  0  3  0  0  0  0  0  0
  191.2300  171.4990  137.3460 C   0  0  0  0  0  2  0  0  0  0  0  0
  191.2990  172.6990  140.0170 C   0  0  1  0  0  3  0  0  0  0  0  0
  192.3320  172.4780  137.7440 C   0  0  0  0  0  2  0  0  0  0  0  0
  190.2180  171.6880  139.6290 C   0  0  0  0  0  2  0  0  0  0  0  0
  191.8150  173.4580  138.7920 C   0  0  0  0  0  2  0  0  0  0  0  0
  189.7360  169.8440  138.1950 O   0  0  0  0  0  1  0  0  0  0  0  0
  187.2740  177.7400  144.6530 C   0  0  0  0  0  2  0  0  0  0  0  0
  184.4380  178.1280  143.9280 N   0  0  0  0  0  1  0  0  0  0  0  0
  186.1160  177.0600  145.3850 C   0  0  2  0  0  3  0  0  0  0  0  0
  184.8310  177.8970  145.3080 C   0  0  1  0  0  3  0  0  0  0  0  0
  185.8710  179.1620  147.2810 C   0  0  0  0  0  2  0  0  0  0  0  0
  185.9230  177.7540  147.8630 C   0  0  0  0  0  2  0  0  0  0  0  0
  186.4980  176.7570  146.8470 C   0  0  0  0  0  2  0  0  0  0  0  0
  184.9420  179.2320  146.0620 C   0  0  0  0  0  2  0  0  0  0  0  0
  1 11  1  0  0  0  0
  2  6  2  0  0  0  0
  3  8  1  0  0  0  0
  4 18  1  0  0  0  0
  6  5  1  0  0  0  0
  7 14  2  0  0  0  0
  8  1  2  0  0  0  0
  8  2  1  0  0  0  0
  9  7  1  0  0  0  0
  9 27  1  0  0  0  0
 10  4  2  0  0  0  0
 10 17  1  0  0  0  0
 11  5  2  0  0  0  0
 12 19  1  0  0  0  0
 12  3  1  0  0  0  0
 13  1  1  0  0  0  0
 14  2  1  0  0  0  0
 15 16  1  0  0  0  0
 15  4  1  0  0  0  0
 16 12  2  0  0  0  0
 17  9  2  0  0  0  0
 18  3  2  0  0  0  0
 18  7  1  0  0  0  0
 19 13  2  0  0  0  0
 20 26  1  6  0  0  0
 20 24  1  0  0  0  0
 21 23  1  0  0  0  0
 21 20  1  0  0  0  0
 22 16  1  1  0  0  0
 23 25  1  0  0  0  0
 24 22  1  0  0  0  0
 25 22  1  0  0  0  0
 29 27  1  1  0  0  0
 29 33  1  0  0  0  0
 30 28  1  6  0  0  0
 30 29  1  0  0  0  0
 30 34  1  0  0  0  0
 31 32  1  0  0  0  0
 33 32  1  0  0  0  0
 34 31  1  0  0  0  0
M  END
>  <MODEL>
3

>  <REMARK>
 VINA RESULT:      -8.8      2.650      5.159
  Name = 
  3 active torsions:
  status: ('A' for Active; 'I' for Inactive)
    1  A    between atoms: C_3  and  C_13
    2  A    between atoms: C_3  and  C_17
    3  A    between atoms: C_12  and  C_28
                            x       y       z     vdW  Elec       q    Type
                         _______ _______ _______ _____ _____    ______ ____

>  <TORSDO>
F 3

$$$$
=
 OpenBabel11052418453D

 34 40  0  0  1  0  0  0  0  0999 V2000
  188.5220  174.9210  141.7720 C   0  0  0  0  0  0  0  0  0  0  0  0
  190.7650  174.1150  142.2850 C   0  0  0  0  0  0  0  0  0  0  0  0
  189.5560  175.5140  143.8900 C   0  0  0  0  0  0  0  0  0  0  0  0
  190.5090  176.1420  146.0240 C   0  0  0  0  0  0  0  0  0  0  0  0
  189.7040  173.5370  140.1800 C   0  0  0  0  0  3  0  0  0  0  0  0
  190.7970  173.4630  141.0490 C   0  0  0  0  0  3  0  0  0  0  0  0
  191.8040  174.7480  144.5020 C   0  0  0  0  0  0  0  0  0  0  0  0
  189.6200  174.8500  142.6550 C   0  0  1  0  0  3  0  0  0  0  0  0
  192.8400  174.7320  145.4560 C   0  0  0  0  0  0  0  0  0  0  0  0
  191.5630  176.0950  146.9340 C   0  0  0  0  0  3  0  0  0  0  0  0
  188.5670  174.2650  140.5400 C   0  0  0  0  0  3  0  0  0  0  0  0
  188.3910  176.2400  144.2220 C   0  0  0  0  0  0  0  0  0  0  0  0
  187.3910  175.6510  142.1410 C   0  0  0  0  0  3  0  0  0  0  0  0
  191.9630  174.0160  143.1890 C   0  0  0  0  0  3  0  0  0  0  0  0
  189.3790  176.8350  146.3210 N   0  0  0  0  0  0  0  0  0  0  0  0
  188.3240  176.9060  145.4650 C   0  0  0  0  0  0  0  0  0  0  0  0
  192.6900  175.3980  146.6350 N   0  0  0  0  0  0  0  0  0  0  0  0
  190.6270  175.4630  144.7970 C   0  0  0  0  0  0  0  0  0  0  0  0
  187.3500  176.2870  143.3420 N   0  0  0  0  0  0  0  0  0  0  0  0
  185.4130  179.4100  145.2340 C   0  0  1  0  0  3  0  0  0  0  0  0
  184.3070  178.4860  145.7370 C   0  0  0  0  0  2  0  0  0  0  0  0
  187.1230  177.6990  145.8930 C   0  0  1  0  0  3  0  0  0  0  0  0
  184.8240  177.6260  146.8870 C   0  0  0  0  0  2  0  0  0  0  0  0
  186.6110  178.5940  144.7620 C   0  0  0  0  0  2  0  0  0  0  0  0
  186.0140  176.7910  146.4280 C   0  0  0  0  0  2  0  0  0  0  0  0
  184.9310  180.1820  144.1780 O   0  0  0  0  0  1  0  0  0  0  0  0
  194.1060  173.9740  145.2100 C   0  0  0  0  0  2  0  0  0  0  0  0
  194.7910  176.4150  143.6950 N   0  0  0  0  0  1  0  0  0  0  0  0
  195.3340  174.8350  145.5090 C   0  0  2  0  0  3  0  0  0  0  0  0
  195.8300  175.5650  144.2520 C   0  0  1  0  0  3  0  0  0  0  0  0
  197.0040  173.3380  143.7620 C   0  0  0  0  0  2  0  0  0  0  0  0
  197.5670  173.5880  145.1570 C   0  0  0  0  0  2  0  0  0  0  0  0
  196.4560  173.9850  146.1380 C   0  0  0  0  0  2  0  0  0  0  0  0
  196.3680  174.6070  143.1780 C   0  0  0  0  0  2  0  0  0  0  0  0
  1 13  2  0  0  0  0
  2  8  1  0  0  0  0
  2 14  1  0  0  0  0
  3 12  1  0  0  0  0
  3 18  2  0  0  0  0
  4 15  1  0  0  0  0
  4 10  2  0  0  0  0
  5 11  2  0  0  0  0
  5  6  1  0  0  0  0
  6  2  2  0  0  0  0
  7 18  1  0  0  0  0
  7  9  1  0  0  0  0
  8  1  1  6  0  0  0
  8  3  1  0  0  0  0
  9 17  2  0  0  0  0
 11  1  1  0  0  0  0
 12 16  1  0  0  0  0
 13 19  1  0  0  0  0
 14  7  2  0  0  0  0
 16 15  2  0  0  0  0
 17 10  1  0  0  0  0
 18  4  1  0  0  0  0
 19 12  2  0  0  0  0
 20 26  1  6  0  0  0
 20 21  1  0  0  0  0
 21 23  1  0  0  0  0
 22 16  1  6  0  0  0
 22 25  1  0  0  0  0
 24 20  1  0  0  0  0
 24 22  1  0  0  0  0
 25 23  1  0  0  0  0
 27  9  1  0  0  0  0
 29 27  1  6  0  0  0
 29 33  1  0  0  0  0
 30 28  1  6  0  0  0
 30 29  1  0  0  0  0
 31 32  1  0  0  0  0
 32 33  1  0  0  0  0
 34 31  1  0  0  0  0
 34 30  1  0  0  0  0
M  END
>  <MODEL>
4

>  <REMARK>
 VINA RESULT:      -8.6      2.824      7.938
  Name = 
  3 active torsions:
  status: ('A' for Active; 'I' for Inactive)
    1  A    between atoms: C_3  and  C_13
    2  A    between atoms: C_3  and  C_17
    3  A    between atoms: C_12  and  C_28
                            x       y       z     vdW  Elec       q    Type
                         _______ _______ _______ _____ _____    ______ ____

>  <TORSDO>
F 3

$$$$
=
 OpenBabel11052418453D

 34 40  0  0  1  0  0  0  0  0999 V2000
  191.9920  175.8480  146.0900 C   0  0  0  0  0  0  0  0  0  0  0  0
  192.4740  174.4210  144.1730 C   0  0  0  0  0  0  0  0  0  0  0  0
  190.2980  175.5230  144.3770 C   0  0  0  0  0  0  0  0  0  0  0  0
  188.5610  175.2600  142.7130 C   0  0  0  0  0  0  0  0  0  0  0  0
  194.1460  174.7670  145.8970 C   0  0  0  0  0  3  0  0  0  0  0  0
  193.7510  174.1800  144.6910 C   0  0  0  0  0  3  0  0  0  0  0  0
  190.6890  174.1120  142.4090 C   0  0  0  0  0  0  0  0  0  0  0  0
  191.5850  175.2610  144.8730 C   0  0  0  0  0  0  0  0  0  0  0  0
  190.1900  173.5840  141.2030 C   0  0  0  0  0  0  0  0  0  0  0  0
  188.1150  174.7110  141.5120 C   0  0  0  0  0  2  0  0  0  0  0  0
  193.2690  175.6000  146.5960 C   0  0  0  0  0  3  0  0  0  0  0  0
  189.4370  176.3700  145.1090 C   0  0  0  0  0  0  0  0  0  0  0  0
  191.1080  176.6790  146.7790 C   0  0  0  0  0  3  0  0  0  0  0  0
  192.0840  173.7650  142.8760 C   0  0  0  0  0  3  0  0  0  0  0  0
  187.7510  176.0770  143.4350 N   0  0  0  0  0  0  0  0  0  0  0  0
  188.1440  176.6370  144.6110 C   0  0  0  0  0  0  0  0  0  0  0  0
  188.9300  173.8980  140.7910 N   0  0  0  0  0  0  0  0  0  0  0  0
  189.8580  174.9610  143.1680 C   0  0  0  0  0  0  0  0  0  0  0  0
  189.8660  176.9180  146.2820 N   0  0  0  0  0  0  0  0  0  0  0  0
  185.4940  179.3800  145.1150 C   0  0  1  0  0  3  0  0  0  0  0  0
  184.4860  178.5480  145.9060 C   0  0  0  0  0  2  0  0  0  0  0  0
  187.1690  177.5250  145.3270 C   0  0  1  0  0  3  0  0  0  0  0  0
  185.2150  177.6400  146.8920 C   0  0  0  0  0  2  0  0  0  0  0  0
  186.4530  178.4680  144.3570 C   0  0  0  0  0  2  0  0  0  0  0  0
  186.1690  176.7100  146.1500 C   0  0  0  0  0  2  0  0  0  0  0  0
  184.8180  180.1970  144.2120 O   0  0  0  0  0  1  0  0  0  0  0  0
  191.0300  172.6940  140.3420 C   0  0  0  0  0  2  0  0  0  0  0  0
  190.8520  170.2460  141.9850 N   0  0  0  0  0  1  0  0  0  0  0  0
  190.2570  171.4450  139.9150 C   0  0  2  0  0  3  0  0  0  0  0  0
  190.8530  170.1730  140.5340 C   0  0  1  0  0  3  0  0  0  0  0  0
  192.4970  170.3250  138.5720 C   0  0  0  0  0  2  0  0  0  0  0  0
  191.1950  170.3430  137.7780 C   0  0  0  0  0  2  0  0  0  0  0  0
  190.1960  171.3420  138.3780 C   0  0  0  0  0  2  0  0  0  0  0  0
  192.2660  169.8630  140.0170 C   0  0  0  0  0  2  0  0  0  0  0  0
  1 11  2  0  0  0  0
  1 13  1  0  0  0  0
  2  6  1  0  0  0  0
  2  8  1  0  0  0  0
  3  8  2  0  0  0  0
  3 12  1  0  0  0  0
  4 18  1  0  0  0  0
  4 15  2  0  0  0  0
  5 11  1  0  0  0  0
  6  5  2  0  0  0  0
  7 14  1  0  0  0  0
  7 18  2  0  0  0  0
  8  1  1  0  0  0  0
  9  7  1  0  0  0  0
 10  4  1  0  0  0  0
 12 19  1  0  0  0  0
 14  2  2  0  0  0  0
 15 16  1  0  0  0  0
 16 12  2  0  0  0  0
 17  9  2  0  0  0  0
 17 10  1  0  0  0  0
 18  3  1  0  0  0  0
 19 13  2  0  0  0  0
 20 26  1  6  0  0  0
 20 21  1  0  0  0  0
 21 23  1  0  0  0  0
 22 16  1  6  0  0  0
 22 25  1  0  0  0  0
 24 20  1  0  0  0  0
 24 22  1  0  0  0  0
 25 23  1  0  0  0  0
 27  9  1  0  0  0  0
 29 27  1  6  0  0  0
 29 30  1  0  0  0  0
 30 28  1  1  0  0  0
 31 34  1  0  0  0  0
 32 33  1  0  0  0  0
 32 31  1  0  0  0  0
 33 29  1  0  0  0  0
 34 30  1  0  0  0  0
M  END
>  <MODEL>
5

>  <REMARK>
 VINA RESULT:      -8.5      3.054      8.605
  Name = 
  3 active torsions:
  status: ('A' for Active; 'I' for Inactive)
    1  A    between atoms: C_3  and  C_13
    2  A    between atoms: C_3  and  C_17
    3  A    between atoms: C_12  and  C_28
                            x       y       z     vdW  Elec       q    Type
                         _______ _______ _______ _____ _____    ______ ____

>  <TORSDO>
F 3

$$$$
=
 OpenBabel11052418453D

 34 40  0  0  1  0  0  0  0  0999 V2000
  189.1960  174.2650  141.1330 C   0  0  0  0  0  0  0  0  0  0  0  0
  191.5720  174.0090  141.6130 C   0  0  0  0  0  0  0  0  0  0  0  0
  190.1240  175.2350  143.1600 C   0  0  0  0  0  0  0  0  0  0  0  0
  190.9660  176.2240  145.2020 C   0  0  0  0  0  0  0  0  0  0  0  0
  190.6150  173.0490  139.6000 C   0  0  0  0  0  3  0  0  0  0  0  0
  191.7180  173.2830  140.4270 C   0  0  0  0  0  3  0  0  0  0  0  0
  192.4990  175.0270  143.7340 C   0  0  0  0  0  0  0  0  0  0  0  0
  190.3040  174.5050  141.9740 C   0  0  2  0  0  3  0  0  0  0  0  0
  193.5360  175.3120  144.6440 C   0  0  0  0  0  0  0  0  0  0  0  0
  192.0260  176.4790  146.0690 C   0  0  0  0  0  3  0  0  0  0  0  0
  189.3550  173.5390  139.9520 C   0  0  0  0  0  3  0  0  0  0  0  0
  188.8360  175.7160  143.4840 C   0  0  0  0  0  0  0  0  0  0  0  0
  187.9420  174.7590  141.4940 C   0  0  0  0  0  3  0  0  0  0  0  0
  192.7850  174.2440  142.4720 C   0  0  0  0  0  3  0  0  0  0  0  0
  189.7190  176.6760  145.4930 N   0  0  0  0  0  0  0  0  0  0  0  0
  188.6540  176.4480  144.6780 C   0  0  0  0  0  0  0  0  0  0  0  0
  193.2710  176.0220  145.7760 N   0  0  0  0  0  0  0  0  0  0  0  0
  191.2010  175.4910  144.0240 C   0  0  0  0  0  0  0  0  0  0  0  0
  187.7900  175.4650  142.6460 N   0  0  0  0  0  0  0  0  0  0  0  0
  185.8660  177.7050  147.0110 C   0  0  1  0  0  3  0  0  0  0  0  0
  185.5660  179.0140  146.2860 C   0  0  0  0  0  2  0  0  0  0  0  0
  187.3190  176.9930  145.0950 C   0  0  1  0  0  3  0  0  0  0  0  0
  185.6130  178.8010  144.7750 C   0  0  0  0  0  2  0  0  0  0  0  0
  187.2420  177.1820  146.6120 C   0  0  0  0  0  2  0  0  0  0  0  0
  186.9880  178.2910  144.3560 C   0  0  0  0  0  2  0  0  0  0  0  0
  185.8300  177.9160  148.3880 O   0  0  0  0  0  1  0  0  0  0  0  0
  194.9310  174.8300  144.4030 C   0  0  0  0  0  2  0  0  0  0  0  0
  197.7430  174.1630  145.0130 N   0  0  0  0  0  1  0  0  0  0  0  0
  195.3450  173.7870  145.4430 C   0  0  2  0  0  3  0  0  0  0  0  0
  196.7010  173.1550  145.0980 C   0  0  1  0  0  3  0  0  0  0  0  0
  195.2980  171.6600  143.5590 C   0  0  0  0  0  2  0  0  0  0  0  0
  194.5560  171.3980  144.8650 C   0  0  0  0  0  2  0  0  0  0  0  0
  194.2520  172.7110  145.6000 C   0  0  0  0  0  2  0  0  0  0  0  0
  196.6610  172.3190  143.8100 C   0  0  0  0  0  2  0  0  0  0  0  0
  1 13  2  0  0  0  0
  2  8  1  0  0  0  0
  2 14  1  0  0  0  0
  3 12  1  0  0  0  0
  3 18  2  0  0  0  0
  4 15  1  0  0  0  0
  4 10  2  0  0  0  0
  5 11  2  0  0  0  0
  5  6  1  0  0  0  0
  6  2  2  0  0  0  0
  7 18  1  0  0  0  0
  7  9  1  0  0  0  0
  8  1  1  1  0  0  0
  8  3  1  0  0  0  0
  9 17  2  0  0  0  0
 11  1  1  0  0  0  0
 12 16  1  0  0  0  0
 13 19  1  0  0  0  0
 14  7  2  0  0  0  0
 16 15  2  0  0  0  0
 17 10  1  0  0  0  0
 18  4  1  0  0  0  0
 19 12  2  0  0  0  0
 20 26  1  1  0  0  0
 21 20  1  0  0  0  0
 22 16  1  1  0  0  0
 22 24  1  0  0  0  0
 23 21  1  0  0  0  0
 24 20  1  0  0  0  0
 25 23  1  0  0  0  0
 25 22  1  0  0  0  0
 27  9  1  0  0  0  0
 29 27  1  6  0  0  0
 29 33  1  0  0  0  0
 30 28  1  6  0  0  0
 30 29  1  0  0  0  0
 31 34  1  0  0  0  0
 31 32  1  0  0  0  0
 32 33  1  0  0  0  0
 34 30  1  0  0  0  0
M  END
>  <MODEL>
6

>  <REMARK>
 VINA RESULT:      -8.4      2.660      7.831
  Name = 
  3 active torsions:
  status: ('A' for Active; 'I' for Inactive)
    1  A    between atoms: C_3  and  C_13
    2  A    between atoms: C_3  and  C_17
    3  A    between atoms: C_12  and  C_28
                            x       y       z     vdW  Elec       q    Type
                         _______ _______ _______ _____ _____    ______ ____

>  <TORSDO>
F 3

$$$$
=
 OpenBabel11052418453D

 34 40  0  0  1  0  0  0  0  0999 V2000
  192.8960  175.0770  144.5490 C   0  0  0  0  0  0  0  0  0  0  0  0
  190.9140  176.0020  145.6270 C   0  0  0  0  0  0  0  0  0  0  0  0
  190.7570  175.0030  143.3970 C   0  0  0  0  0  0  0  0  0  0  0  0
  188.6660  174.8830  142.1850 C   0  0  0  0  0  0  0  0  0  0  0  0
  193.0630  176.0570  146.7540 C   0  0  0  0  0  3  0  0  0  0  0  0
  191.6940  176.3440  146.7360 C   0  0  0  0  0  3  0  0  0  0  0  0
  188.7060  175.9010  144.3980 C   0  0  0  0  0  0  0  0  0  0  0  0
  191.5140  175.3620  144.5240 C   0  0  0  0  0  0  0  0  0  0  0  0
  187.3220  176.1320  144.2780 C   0  0  0  0  0  0  0  0  0  0  0  0
  187.2970  175.1340  142.1150 C   0  0  0  0  0  3  0  0  0  0  0  0
  193.6640  175.4240  145.6630 C   0  0  0  0  0  3  0  0  0  0  0  0
  191.3970  174.3650  142.3120 C   0  0  0  0  0  0  0  0  0  0  0  0
  193.4860  174.4440  143.4540 C   0  0  0  0  0  3  0  0  0  0  0  0
  189.4470  176.3340  145.6440 C   0  0  0  0  0  3  0  0  0  0  0  0
  189.3030  174.2700  141.1540 N   0  0  0  0  0  2  0  0  0  0  0  0
  190.6360  174.0020  141.1790 C   0  0  0  0  0  0  0  0  0  0  0  0
  186.6630  175.7440  143.1500 N   0  0  0  0  0  0  0  0  0  0  0  0
  189.3790  175.2670  143.3350 C   0  0  0  0  0  0  0  0  0  0  0  0
  192.7350  174.1070  142.3730 N   0  0  0  0  0  0  0  0  0  0  0  0
  192.0760  171.1630  139.0190 C   0  0  1  0  0  3  0  0  0  0  0  0
  191.2240  171.4000  137.7750 C   0  0  0  0  0  2  0  0  0  0  0  0
  191.2390  173.3200  139.9860 C   0  0  1  0  0  3  0  0  0  0  0  0
  191.0710  172.8970  137.5210 C   0  0  0  0  0  2  0  0  0  0  0  0
  191.4330  171.8230  140.2340 C   0  0  0  0  0  2  0  0  0  0  0  0
  190.4150  173.5720  138.7210 C   0  0  0  0  0  2  0  0  0  0  0  0
  192.2000  169.7930  139.2450 O   0  0  0  0  0  1  0  0  0  0  0  0
  186.5470  176.7830  145.3800 C   0  0  0  0  0  2  0  0  0  0  0  0
  185.8850  178.5430  147.6570 N   0  0  0  0  0  1  0  0  0  0  0  0
  186.7020  178.3040  145.3430 C   0  0  2  0  0  3  0  0  0  0  0  0
  185.7080  178.9950  146.2870 C   0  0  1  0  0  3  0  0  0  0  0  0
  184.0770  178.7050  144.3300 C   0  0  0  0  0  2  0  0  0  0  0  0
  185.1880  179.4440  143.5910 C   0  0  0  0  0  2  0  0  0  0  0  0
  186.5600  178.8320  143.9020 C   0  0  0  0  0  2  0  0  0  0  0  0
  184.2450  178.8150  145.8510 C   0  0  0  0  0  2  0  0  0  0  0  0
  1 11  1  0  0  0  0
  2 14  1  0  0  0  0
  2  6  2  0  0  0  0
  3  8  1  0  0  0  0
  4 18  1  0  0  0  0
  6  5  1  0  0  0  0
  7 14  2  0  0  0  0
  8  1  2  0  0  0  0
  8  2  1  0  0  0  0
  9  7  1  0  0  0  0
  9 27  1  0  0  0  0
 10  4  2  0  0  0  0
 10 17  1  0  0  0  0
 11  5  2  0  0  0  0
 12 19  1  0  0  0  0
 12  3  1  0  0  0  0
 13  1  1  0  0  0  0
 15 16  1  0  0  0  0
 15  4  1  0  0  0  0
 16 12  2  0  0  0  0
 17  9  2  0  0  0  0
 18  3  2  0  0  0  0
 18  7  1  0  0  0  0
 19 13  2  0  0  0  0
 20 26  1  1  0  0  0
 20 24  1  0  0  0  0
 21 20  1  0  0  0  0
 22 24  1  0  0  0  0
 22 16  1  1  0  0  0
 23 21  1  0  0  0  0
 23 25  1  0  0  0  0
 25 22  1  0  0  0  0
 29 27  1  6  0  0  0
 29 30  1  0  0  0  0
 30 28  1  1  0  0  0
 31 34  1  0  0  0  0
 32 33  1  0  0  0  0
 32 31  1  0  0  0  0
 33 29  1  0  0  0  0
 34 30  1  0  0  0  0
M  END
>  <MODEL>
7

>  <REMARK>
 VINA RESULT:      -8.2      2.549      5.198
  Name = 
  3 active torsions:
  status: ('A' for Active; 'I' for Inactive)
    1  A    between atoms: C_3  and  C_13
    2  A    between atoms: C_3  and  C_17
    3  A    between atoms: C_12  and  C_28
                            x       y       z     vdW  Elec       q    Type
                         _______ _______ _______ _____ _____    ______ ____

>  <TORSDO>
F 3

$$$$
=
 OpenBabel11052418453D

 34 40  0  0  1  0  0  0  0  0999 V2000
  190.9860  176.3440  146.0010 C   0  0  0  0  0  0  0  0  0  0  0  0
  191.9340  174.5170  144.6940 C   0  0  0  0  0  0  0  0  0  0  0  0
  189.6980  175.3730  144.1820 C   0  0  0  0  0  0  0  0  0  0  0  0
  188.3540  174.4680  142.3850 C   0  0  0  0  0  0  0  0  0  0  0  0
  193.1970  175.5100  146.5140 C   0  0  0  0  0  3  0  0  0  0  0  0
  193.0910  174.5760  145.4780 C   0  0  0  0  0  3  0  0  0  0  0  0
  190.5650  173.5370  142.8070 C   0  0  0  0  0  0  0  0  0  0  0  0
  190.8710  175.4060  144.9530 C   0  0  0  0  0  0  0  0  0  0  0  0
  190.3560  172.6470  141.7360 C   0  0  0  0  0  0  0  0  0  0  0  0
  188.1960  173.5660  141.3340 C   0  0  0  0  0  2  0  0  0  0  0  0
  192.1460  176.3930  146.7750 C   0  0  0  0  0  3  0  0  0  0  0  0
  188.6560  176.2800  144.4750 C   0  0  0  0  0  0  0  0  0  0  0  0
  189.9310  177.2220  146.2530 C   0  0  0  0  0  3  0  0  0  0  0  0
  191.8560  173.4940  143.5940 C   0  0  0  0  0  3  0  0  0  0  0  0
  187.3660  175.3500  142.6850 N   0  0  0  0  0  0  0  0  0  0  0  0
  187.4770  176.2500  143.6990 C   0  0  0  0  0  0  0  0  0  0  0  0
  189.1880  172.6890  141.0350 N   0  0  0  0  0  0  0  0  0  0  0  0
  189.5480  174.4560  143.1290 C   0  0  0  0  0  0  0  0  0  0  0  0
  188.8030  177.1720  145.4960 N   0  0  0  0  0  0  0  0  0  0  0  0
  184.5910  177.9640  145.5780 C   0  0  1  0  0  3  0  0  0  0  0  0
  184.9950  179.4100  145.2990 C   0  0  0  0  0  2  0  0  0  0  0  0
  186.3240  177.1790  143.9450 C   0  0  1  0  0  3  0  0  0  0  0  0
  185.5010  179.5450  143.8660 C   0  0  0  0  0  2  0  0  0  0  0  0
  185.7800  177.0330  145.3670 C   0  0  0  0  0  2  0  0  0  0  0  0
  186.7010  178.6310  143.6400 C   0  0  0  0  0  2  0  0  0  0  0  0
  184.1400  177.8520  146.8920 O   0  0  0  0  0  1  0  0  0  0  0  0
  191.4060  171.6610  141.3320 C   0  0  0  0  0  2  0  0  0  0  0  0
  192.9360  169.7350  139.6970 N   0  0  0  0  0  1  0  0  0  0  0  0
  191.9750  171.9910  139.9510 C   0  0  2  0  0  3  0  0  0  0  0  0
  193.2270  171.1580  139.6440 C   0  0  1  0  0  3  0  0  0  0  0  0
  194.4240  172.9600  141.0190 C   0  0  0  0  0  2  0  0  0  0  0  0
  193.7470  173.8680  139.9980 C   0  0  0  0  0  2  0  0  0  0  0  0
  192.2660  173.5000  139.8290 C   0  0  0  0  0  2  0  0  0  0  0  0
  194.4110  171.4950  140.5630 C   0  0  0  0  0  2  0  0  0  0  0  0
  1 13  1  0  0  0  0
  1 11  2  0  0  0  0
  2  8  1  0  0  0  0
  2  6  1  0  0  0  0
  3 12  1  0  0  0  0
  3  8  2  0  0  0  0
  4 15  2  0  0  0  0
  4 18  1  0  0  0  0
  5 11  1  0  0  0  0
  6  5  2  0  0  0  0
  7 18  2  0  0  0  0
  7 14  1  0  0  0  0
  8  1  1  0  0  0  0
  9  7  1  0  0  0  0
 10  4  1  0  0  0  0
 12 19  1  0  0  0  0
 14  2  2  0  0  0  0
 15 16  1  0  0  0  0
 16 12  2  0  0  0  0
 17 10  1  0  0  0  0
 17  9  2  0  0  0  0
 18  3  1  0  0  0  0
 19 13  2  0  0  0  0
 20 26  1  1  0  0  0
 21 20  1  0  0  0  0
 22 16  1  1  0  0  0
 22 24  1  0  0  0  0
 23 21  1  0  0  0  0
 24 20  1  0  0  0  0
 25 23  1  0  0  0  0
 25 22  1  0  0  0  0
 27  9  1  0  0  0  0
 29 27  1  1  0  0  0
 30 28  1  1  0  0  0
 30 29  1  0  0  0  0
 30 34  1  0  0  0  0
 32 31  1  0  0  0  0
 33 29  1  0  0  0  0
 33 32  1  0  0  0  0
 34 31  1  0  0  0  0
M  END
>  <MODEL>
8

>  <REMARK>
 VINA RESULT:      -7.8      3.267      8.735
  Name = 
  3 active torsions:
  status: ('A' for Active; 'I' for Inactive)
    1  A    between atoms: C_3  and  C_13
    2  A    between atoms: C_3  and  C_17
    3  A    between atoms: C_12  and  C_28
                            x       y       z     vdW  Elec       q    Type
                         _______ _______ _______ _____ _____    ______ ____

>  <TORSDO>
F 3

$$$$
=
 OpenBabel11052418453D

 34 40  0  0  1  0  0  0  0  0999 V2000
  191.3130  173.5230  141.1070 C   0  0  0  0  0  0  0  0  0  0  0  0
  189.1700  174.5340  141.6790 C   0  0  0  0  0  0  0  0  0  0  0  0
  191.1560  174.9960  143.0340 C   0  0  0  0  0  0  0  0  0  0  0  0
  191.0870  176.4560  144.9620 C   0  0  0  0  0  0  0  0  0  0  0  0
  189.3600  173.0620  139.7590 C   0  0  0  0  0  3  0  0  0  0  0  0
  188.5880  173.8850  140.5850 C   0  0  0  0  0  3  0  0  0  0  0  0
  189.0480  176.0650  143.6870 C   0  0  0  0  0  0  0  0  0  0  0  0
  190.5420  174.3560  141.9450 C   0  0  1  0  0  3  0  0  0  0  0  0
  188.3700  176.9220  144.5760 C   0  0  0  0  0  0  0  0  0  0  0  0
  190.3710  177.2960  145.8140 C   0  0  0  0  0  3  0  0  0  0  0  0
  190.7210  172.8810  140.0180 C   0  0  0  0  0  3  0  0  0  0  0  0
  192.5340  174.7910  143.2670 C   0  0  0  0  0  0  0  0  0  0  0  0
  192.6720  173.3490  141.3750 C   0  0  0  0  0  3  0  0  0  0  0  0
  188.3050  175.4050  142.5480 C   0  0  0  0  0  3  0  0  0  0  0  0
  192.4130  176.2430  145.1660 N   0  0  0  0  0  0  0  0  0  0  0  0
  193.1520  175.4360  144.3600 C   0  0  0  0  0  0  0  0  0  0  0  0
  189.0460  177.5090  145.6040 N   0  0  0  0  0  0  0  0  0  0  0  0
  190.4230  175.8360  143.8880 C   0  0  0  0  0  0  0  0  0  0  0  0
  193.2450  173.9770  142.4350 N   0  0  0  0  0  0  0  0  0  0  0  0
  196.4130  173.7010  145.4360 C   0  0  1  0  0  3  0  0  0  0  0  0
  197.2740  174.1300  144.2510 C   0  0  0  0  0  2  0  0  0  0  0  0
  194.6100  175.2700  144.6760 C   0  0  1  0  0  3  0  0  0  0  0  0
  196.9650  175.5750  143.8730 C   0  0  0  0  0  2  0  0  0  0  0  0
  194.9330  173.8330  145.0900 C   0  0  0  0  0  2  0  0  0  0  0  0
  195.4910  175.7230  143.5090 C   0  0  0  0  0  2  0  0  0  0  0  0
  196.6970  172.3770  145.7650 O   0  0  0  0  0  1  0  0  0  0  0  0
  186.9150  177.2220  144.4040 C   0  0  0  0  0  2  0  0  0  0  0  0
  185.6310  179.4210  145.9010 N   0  0  0  0  0  1  0  0  0  0  0  0
  186.7020  178.6230  143.8290 C   0  0  2  0  0  3  0  0  0  0  0  0
  185.4840  179.3130  144.4600 C   0  0  1  0  0  3  0  0  0  0  0  0
  184.1690  177.9560  142.7260 C   0  0  0  0  0  2  0  0  0  0  0  0
  185.1350  178.6580  141.7780 C   0  0  0  0  0  2  0  0  0  0  0  0
  186.5770  178.5680  142.2930 C   0  0  0  0  0  2  0  0  0  0  0  0
  184.1570  178.6210  144.1090 C   0  0  0  0  0  2  0  0  0  0  0  0
  1 13  2  0  0  0  0
  2  8  1  0  0  0  0
  2 14  1  0  0  0  0
  3 12  1  0  0  0  0
  3 18  2  0  0  0  0
  4 15  1  0  0  0  0
  4 10  2  0  0  0  0
  5 11  2  0  0  0  0
  5  6  1  0  0  0  0
  6  2  2  0  0  0  0
  7 18  1  0  0  0  0
  7  9  1  0  0  0  0
  8  1  1  1  0  0  0
  8  3  1  0  0  0  0
  9 17  2  0  0  0  0
 11  1  1  0  0  0  0
 12 16  1  0  0  0  0
 13 19  1  0  0  0  0
 14  7  2  0  0  0  0
 16 15  2  0  0  0  0
 17 10  1  0  0  0  0
 18  4  1  0  0  0  0
 19 12  2  0  0  0  0
 20 26  1  6  0  0  0
 21 20  1  0  0  0  0
 22 16  1  6  0  0  0
 22 24  1  0  0  0  0
 23 21  1  0  0  0  0
 24 20  1  0  0  0  0
 25 23  1  0  0  0  0
 25 22  1  0  0  0  0
 27  9  1  0  0  0  0
 29 27  1  1  0  0  0
 29 30  1  0  0  0  0
 30 28  1  1  0  0  0
 31 34  1  0  0  0  0
 32 33  1  0  0  0  0
 32 31  1  0  0  0  0
 33 29  1  0  0  0  0
 34 30  1  0  0  0  0
M  END
>  <MODEL>
9

>  <REMARK>
 VINA RESULT:      -7.8      1.574      2.339
  Name = 
  3 active torsions:
  status: ('A' for Active; 'I' for Inactive)
    1  A    between atoms: C_3  and  C_13
    2  A    between atoms: C_3  and  C_17
    3  A    between atoms: C_12  and  C_28
                            x       y       z     vdW  Elec       q    Type
                         _______ _______ _______ _____ _____    ______ ____

>  <TORSDO>
F 3

$$$$
