=
 OpenBabel11052419453D

 55 62  0  0  1  0  0  0  0  0999 V2000
  188.6990  172.3210  142.5720 C   0  0  0  0  0  3  0  0  0  0  0  0
  189.4930  173.2090  140.0390 C   0  0  0  0  0  0  0  0  0  0  0  0
  190.4510  172.9460  141.0250 C   0  0  0  0  0  3  0  0  0  0  0  0
  187.7430  172.5870  141.5930 C   0  0  0  0  0  3  0  0  0  0  0  0
  190.0580  172.4900  142.2940 C   0  0  0  0  0  0  0  0  0  0  0  0
  188.1400  173.0290  140.3270 C   0  0  0  0  0  3  0  0  0  0  0  0
  191.0480  172.2810  143.3970 C   0  0  0  0  0  2  0  0  0  0  0  0
  190.6740  173.0250  144.6680 C   0  0  0  0  0  2  0  0  0  0  0  0
  192.4380  176.3660  147.0880 C   0  0  0  0  0  2  0  0  0  0  0  0
  191.8680  177.7670  148.9660 O   0  0  0  0  0  0  0  0  0  0  0  0
  190.1750  175.3730  147.0500 C   0  0  2  0  0  3  0  0  0  0  0  0
  190.2850  176.3100  148.1050 O   0  0  0  0  0  0  0  0  0  0  0  0
  191.5400  176.8800  148.1360 C   0  0  0  0  0  0  0  0  0  0  0  0
  191.6110  175.2340  146.4610 C   0  0  1  0  0  3  0  0  0  0  0  0
  189.1650  175.0100  144.7760 C   0  0  2  0  0  3  0  0  0  0  0  0
  189.1900  175.9090  146.0110 C   0  0  0  0  0  2  0  0  0  0  0  0
  191.6250  175.3240  144.9820 N   0  0  0  0  0  0  0  0  0  0  0  0
  190.5580  174.5160  144.3590 C   0  0  1  0  0  3  0  0  0  0  0  0
  187.0810  175.8800  143.7050 C   0  0  0  0  0  3  0  0  0  0  0  0
  187.0940  176.8720  141.4860 C   0  0  0  0  0  0  0  0  0  0  0  0
  189.1630  176.0670  142.4790 C   0  0  0  0  0  3  0  0  0  0  0  0
  188.4810  176.6650  141.4140 C   0  0  0  0  0  3  0  0  0  0  0  0
  186.3990  176.4770  142.6390 C   0  0  0  0  0  3  0  0  0  0  0  0
  188.4660  175.6740  143.6320 C   0  0  0  0  0  0  0  0  0  0  0  0
  186.3720  177.5000  140.3670 C   0  0  0  0  0  0  0  0  0  0  0  0
  186.6030  177.1460  139.1780 O   0  0  0  0  0  0  0  0  0  0  0  0
  185.4200  178.4890  140.6110 O   0  0  0  0  0  1  0  0  0  0  0  0
  192.9290  175.0320  144.3490 C   0  0  1  0  0  3  0  0  0  0  0  0
  193.4510  176.2350  143.5820 C   0  0  0  0  0  1  0  0  0  0  0  0
  194.8820  175.1290  145.6850 O   0  0  0  0  0  0  0  0  0  0  0  0
  193.9460  172.9790  145.6380 C   0  0  0  0  0  1  0  0  0  0  0  0
  193.9760  174.4260  145.2600 C   0  0  0  0  0  0  0  0  0  0  0  0
  189.9060  173.6360  138.6660 C   0  0  0  0  0  2  0  0  0  0  0  0
  189.6060  172.5720  137.6160 C   0  0  0  0  0  2  0  0  0  0  0  0
  190.4130  171.3230  137.9230 C   0  0  0  0  0  2  0  0  0  0  0  0
  191.6880  171.2810  137.0840 C   0  0  0  0  0  2  0  0  0  0  0  0
  192.6950  170.2900  137.6590 C   0  0  0  0  0  2  0  0  0  0  0  0
  193.6020  171.4700  140.0920 O   0  0  0  0  0  0  0  0  0  0  0  0
  194.3380  171.5830  139.0750 C   0  0  0  0  0  0  0  0  0  0  0  0
  193.9780  170.9470  137.8510 N   0  0  0  0  0  2  0  0  0  0  0  0
  194.0830  174.7070  138.3590 S   0  0  0  0  0  0  0  0  0  0  0  0
  195.8240  175.1930  140.4100 C   0  0  2  0  0  3  0  0  0  0  0  0
  195.5990  173.7290  138.2780 C   0  0  1  0  0  0  0  0  0  0  0  0
  196.7040  171.6490  138.8550 O   0  0  0  0  0  0  0  0  0  0  0  0
  197.1920  175.7760  140.7720 C   0  0  0  0  0  2  0  0  0  0  0  0
  193.1750  174.6360  139.5560 O   0  0  0  0  0  0  0  0  0  0  0  0
  197.5680  173.2580  140.3960 C   0  0  0  0  0  2  0  0  0  0  0  0
  193.7000  175.6980  137.2930 O   0  0  0  0  0  0  0  0  0  0  0  0
  196.8560  174.3620  141.1630 C   0  0  2  0  0  0  0  0  0  0  0  0
  195.5640  172.4400  139.1320 C   0  0  2  0  0  0  0  0  0  0  0  0
  196.0930  173.6040  136.8470 C   0  0  0  0  0  1  0  0  0  0  0  0
  196.5880  172.1160  140.1730 C   0  0  1  0  0  3  0  0  0  0  0  0
  195.7910  175.0640  138.8800 C   0  0  1  0  0  3  0  0  0  0  0  0
  197.3330  175.1160  143.3870 O   0  0  0  0  0  1  0  0  0  0  0  0
  196.5890  174.1830  142.6510 C   0  0  0  0  0  2  0  0  0  0  0  0
  2  6  2  0  0  0  0
  2  3  1  0  0  0  0
  3  5  2  0  0  0  0
  4  1  2  0  0  0  0
  5  1  1  0  0  0  0
  5  7  1  0  0  0  0
  6  4  1  0  0  0  0
  7  8  1  0  0  0  0
  9 13  1  0  0  0  0
 11 16  1  6  0  0  0
 11 12  1  0  0  0  0
 12 13  1  0  0  0  0
 13 10  2  0  0  0  0
 14 11  1  0  0  0  0
 14  9  1  1  0  0  0
 15 24  1  6  0  0  0
 15 16  1  0  0  0  0
 17 14  1  0  0  0  0
 18  8  1  1  0  0  0
 18 15  1  0  0  0  0
 18 17  1  0  0  0  0
 20 23  1  0  0  0  0
 21 24  2  0  0  0  0
 22 20  2  0  0  0  0
 22 21  1  0  0  0  0
 23 19  2  0  0  0  0
 24 19  1  0  0  0  0
 25 27  1  0  0  0  0
 25 20  1  0  0  0  0
 26 25  2  0  0  0  0
 28 29  1  1  0  0  0
 28 17  1  0  0  0  0
 28 32  1  0  0  0  0
 32 31  1  0  0  0  0
 32 30  2  0  0  0  0
 33  2  1  0  0  0  0
 34 35  1  0  0  0  0
 34 33  1  0  0  0  0
 36 37  1  0  0  0  0
 36 35  1  0  0  0  0
 37 40  1  0  0  0  0
 39 38  2  0  0  0  0
 40 39  1  0  0  0  0
 41 46  2  0  0  0  0
 42 45  1  6  0  0  0
 42 49  1  0  0  0  0
 43 51  1  6  0  0  0
 43 41  1  0  0  0  0
 43 53  1  0  0  0  0
 43 50  1  0  0  0  0
 44 50  1  0  0  0  0
 44 52  1  0  0  0  0
 45 49  1  0  0  0  0
 47 49  1  0  0  0  0
 48 41  2  0  0  0  0
 49 55  1  1  0  0  0
 50 39  1  1  0  0  0
 50 52  1  0  0  0  0
 52 47  1  6  0  0  0
 53 41  1  1  0  0  0
 53 42  1  0  0  0  0
 55 54  1  0  0  0  0
M  END
>  <MODEL>
1

>  <REMARK>
 VINA RESULT:      -6.3      0.000      0.000
  Name = 
  15 active torsions:
  status: ('A' for Active; 'I' for Inactive)
    1  A    between atoms: C_2  and  C_28
    2  A    between atoms: C_2  and  C_44
    3  A    between atoms: C_8  and  N_22
    4  A    between atoms: C_8  and  C_35
    5  A    between atoms: C_10  and  C_32
    6  A    between atoms: C_19  and  C_40
    7  A    between atoms: C_19  and  N_45
    8  A    between atoms: C_20  and  C_42
    9  A    between atoms: C_25  and  C_38
   10  A    between atoms: C_27  and  C_54
   11  A    between atoms: C_28  and  C_49
   12  A    between atoms: C_33  and  C_52
   13  A    between atoms: C_35  and  C_43
   14  A    between atoms: C_43  and  C_51
   15  A    between atoms: C_51  and  C_54
                            x       y       z     vdW  Elec       q    Type
                         _______ _______ _______ _____ _____    ______ ____

>  <TORSDO>
F 15

$$$$
=
 OpenBabel11052419453D

 55 62  0  0  1  0  0  0  0  0999 V2000
  193.7820  170.7940  143.8260 C   0  0  0  0  0  3  0  0  0  0  0  0
  195.3110  172.9000  144.8590 C   0  0  0  0  0  0  0  0  0  0  0  0
  195.6600  172.3080  143.6410 C   0  0  0  0  0  3  0  0  0  0  0  0
  193.4340  171.3790  145.0440 C   0  0  0  0  0  3  0  0  0  0  0  0
  194.8900  171.2590  143.1130 C   0  0  0  0  0  0  0  0  0  0  0  0
  194.1970  172.4310  145.5580 C   0  0  0  0  0  3  0  0  0  0  0  0
  195.2840  170.5470  141.8570 C   0  0  0  0  0  2  0  0  0  0  0  0
  196.0180  171.4470  140.8770 C   0  0  0  0  0  2  0  0  0  0  0  0
  197.0450  173.7130  137.1440 C   0  0  0  0  0  2  0  0  0  0  0  0
  197.4280  175.9820  136.4250 O   0  0  0  0  0  0  0  0  0  0  0  0
  196.3430  174.4670  139.3900 C   0  0  2  0  0  3  0  0  0  0  0  0
  196.7050  175.5750  138.5880 O   0  0  0  0  0  0  0  0  0  0  0  0
  197.0930  175.1730  137.3280 C   0  0  0  0  0  0  0  0  0  0  0  0
  196.7190  173.2050  138.5550 C   0  0  1  0  0  3  0  0  0  0  0  0
  194.3770  173.2640  140.3950 C   0  0  2  0  0  3  0  0  0  0  0  0
  194.8430  174.5280  139.6740 C   0  0  0  0  0  2  0  0  0  0  0  0
  195.6250  172.2070  138.5200 N   0  0  0  0  0  0  0  0  0  0  0  0
  195.0240  171.9820  139.8500 C   0  0  1  0  0  3  0  0  0  0  0  0
  192.1950  173.2340  141.6140 C   0  0  0  0  0  3  0  0  0  0  0  0
  190.0820  172.9040  140.4570 C   0  0  0  0  0  0  0  0  0  0  0  0
  192.1680  172.9470  139.2070 C   0  0  0  0  0  3  0  0  0  0  0  0
  190.7750  172.8250  139.2380 C   0  0  0  0  0  3  0  0  0  0  0  0
  190.8010  173.1100  141.6440 C   0  0  0  0  0  3  0  0  0  0  0  0
  192.8840  173.1550  140.3960 C   0  0  0  0  0  0  0  0  0  0  0  0
  188.6160  172.7750  140.4950 C   0  0  0  0  0  0  0  0  0  0  0  0
  187.9590  172.6250  139.4280 O   0  0  0  0  0  0  0  0  0  0  0  0
  187.9380  172.8120  141.7130 O   0  0  0  0  0  1  0  0  0  0  0  0
  195.9750  170.9160  137.8890 C   0  0  1  0  0  3  0  0  0  0  0  0
  195.1640  169.7760  138.4810 C   0  0  0  0  0  1  0  0  0  0  0  0
  195.0300  171.4050  135.7740 O   0  0  0  0  0  0  0  0  0  0  0  0
  197.0790  170.2800  135.5900 C   0  0  0  0  0  1  0  0  0  0  0  0
  195.9710  170.9060  136.3750 C   0  0  0  0  0  0  0  0  0  0  0  0
  196.0880  174.0590  145.3980 C   0  0  0  0  0  2  0  0  0  0  0  0
  196.0030  175.2820  144.4940 C   0  0  0  0  0  2  0  0  0  0  0  0
  194.5990  175.8570  144.5580 C   0  0  0  0  0  2  0  0  0  0  0  0
  193.9380  175.8290  143.1810 C   0  0  0  0  0  2  0  0  0  0  0  0
  192.9350  176.9680  143.0270 C   0  0  0  0  0  2  0  0  0  0  0  0
  190.7200  178.4330  144.0680 O   0  0  0  0  0  0  0  0  0  0  0  0
  190.5370  177.2200  143.7760 C   0  0  0  0  0  0  0  0  0  0  0  0
  191.5830  176.4570  143.1770 N   0  0  0  0  0  2  0  0  0  0  0  0
  190.0530  176.2020  146.7860 S   0  0  0  0  0  0  0  0  0  0  0  0
  187.4810  177.0960  146.5450 C   0  0  2  0  0  3  0  0  0  0  0  0
  189.2010  175.5880  145.3180 C   0  0  1  0  0  0  0  0  0  0  0  0
  188.7220  175.9170  142.9630 O   0  0  0  0  0  0  0  0  0  0  0  0
  186.0090  176.6800  146.5690 C   0  0  0  0  0  2  0  0  0  0  0  0
  190.2170  177.6770  147.0300 O   0  0  0  0  0  0  0  0  0  0  0  0
  186.7320  176.5920  144.1010 C   0  0  0  0  0  2  0  0  0  0  0  0
  190.5560  175.2900  147.8720 O   0  0  0  0  0  0  0  0  0  0  0  0
  186.5570  177.4090  145.3720 C   0  0  2  0  0  0  0  0  0  0  0  0
  189.2380  176.5590  144.1140 C   0  0  2  0  0  0  0  0  0  0  0  0
  189.5510  174.1330  145.0510 C   0  0  0  0  0  1  0  0  0  0  0  0
  188.0100  177.0410  143.4100 C   0  0  1  0  0  3  0  0  0  0  0  0
  188.3050  175.8020  146.4720 C   0  0  1  0  0  3  0  0  0  0  0  0
  184.8260  178.9970  145.8420 O   0  0  0  0  0  1  0  0  0  0  0  0
  186.0980  178.8560  145.2720 C   0  0  0  0  0  2  0  0  0  0  0  0
  1  4  1  0  0  0  0
  2 33  1  0  0  0  0
  2  6  1  0  0  0  0
  3  2  2  0  0  0  0
  4  6  2  0  0  0  0
  5  3  1  0  0  0  0
  5  1  2  0  0  0  0
  7  5  1  0  0  0  0
  8  7  1  0  0  0  0
  9 13  1  0  0  0  0
 10 13  2  0  0  0  0
 11 16  1  6  0  0  0
 12 11  1  0  0  0  0
 13 12  1  0  0  0  0
 14  9  1  6  0  0  0
 14 11  1  0  0  0  0
 15 24  1  6  0  0  0
 16 15  1  0  0  0  0
 17 14  1  0  0  0  0
 17 18  1  0  0  0  0
 18 15  1  0  0  0  0
 18  8  1  1  0  0  0
 19 23  1  0  0  0  0
 20 25  1  0  0  0  0
 20 23  2  0  0  0  0
 21 22  2  0  0  0  0
 21 24  1  0  0  0  0
 22 20  1  0  0  0  0
 24 19  2  0  0  0  0
 25 27  1  0  0  0  0
 26 25  2  0  0  0  0
 28 29  1  1  0  0  0
 28 17  1  0  0  0  0
 30 32  2  0  0  0  0
 31 32  1  0  0  0  0
 32 28  1  0  0  0  0
 34 35  1  0  0  0  0
 34 33  1  0  0  0  0
 36 35  1  0  0  0  0
 37 40  1  0  0  0  0
 37 36  1  0  0  0  0
 39 38  2  0  0  0  0
 40 39  1  0  0  0  0
 41 46  2  0  0  0  0
 41 48  2  0  0  0  0
 42 45  1  1  0  0  0
 43 51  1  6  0  0  0
 43 53  1  0  0  0  0
 43 41  1  0  0  0  0
 44 52  1  0  0  0  0
 44 50  1  0  0  0  0
 47 49  1  0  0  0  0
 49 55  1  6  0  0  0
 49 42  1  0  0  0  0
 49 45  1  0  0  0  0
 50 39  1  6  0  0  0
 50 43  1  0  0  0  0
 52 47  1  1  0  0  0
 52 50  1  0  0  0  0
 53 42  1  0  0  0  0
 53 41  1  1  0  0  0
 55 54  1  0  0  0  0
M  END
>  <MODEL>
2

>  <REMARK>
 VINA RESULT:      -6.0      2.754      8.997
  Name = 
  15 active torsions:
  status: ('A' for Active; 'I' for Inactive)
    1  A    between atoms: C_2  and  C_28
    2  A    between atoms: C_2  and  C_44
    3  A    between atoms: C_8  and  N_22
    4  A    between atoms: C_8  and  C_35
    5  A    between atoms: C_10  and  C_32
    6  A    between atoms: C_19  and  C_40
    7  A    between atoms: C_19  and  N_45
    8  A    between atoms: C_20  and  C_42
    9  A    between atoms: C_25  and  C_38
   10  A    between atoms: C_27  and  C_54
   11  A    between atoms: C_28  and  C_49
   12  A    between atoms: C_33  and  C_52
   13  A    between atoms: C_35  and  C_43
   14  A    between atoms: C_43  and  C_51
   15  A    between atoms: C_51  and  C_54
                            x       y       z     vdW  Elec       q    Type
                         _______ _______ _______ _____ _____    ______ ____

>  <TORSDO>
F 15

$$$$
=
 OpenBabel11052419453D

 55 62  0  0  1  0  0  0  0  0999 V2000
  192.7220  173.6580  145.3120 C   0  0  0  0  0  3  0  0  0  0  0  0
  192.8010  171.1420  144.0880 C   0  0  0  0  0  0  0  0  0  0  0  0
  191.5730  171.7410  144.3880 C   0  0  0  0  0  3  0  0  0  0  0  0
  193.9480  173.0610  145.0190 C   0  0  0  0  0  3  0  0  0  0  0  0
  191.5270  173.0080  144.9920 C   0  0  0  0  0  0  0  0  0  0  0  0
  193.9870  171.8060  144.4060 C   0  0  0  0  0  3  0  0  0  0  0  0
  190.2350  173.6390  145.4040 C   0  0  0  0  0  2  0  0  0  0  0  0
  189.3610  174.0160  144.2190 C   0  0  0  0  0  2  0  0  0  0  0  0
  187.4640  177.2420  141.7450 C   0  0  0  0  0  2  0  0  0  0  0  0
  186.5710  177.5640  139.5290 O   0  0  0  0  0  0  0  0  0  0  0  0
  188.2850  174.9840  141.1630 C   0  0  2  0  0  3  0  0  0  0  0  0
  187.6220  175.5690  140.0580 O   0  0  0  0  0  0  0  0  0  0  0  0
  187.1640  176.8320  140.3620 C   0  0  0  0  0  0  0  0  0  0  0  0
  188.0550  175.9620  142.3540 C   0  0  1  0  0  3  0  0  0  0  0  0
  190.5540  174.3690  142.0560 C   0  0  2  0  0  3  0  0  0  0  0  0
  189.7700  174.8410  140.8320 C   0  0  0  0  0  2  0  0  0  0  0  0
  189.3060  176.2560  143.0930 N   0  0  0  0  0  0  0  0  0  0  0  0
  190.1000  175.0400  143.3610 C   0  0  1  0  0  3  0  0  0  0  0  0
  192.6360  175.7450  142.1960 C   0  0  0  0  0  3  0  0  0  0  0  0
  194.7880  174.8990  141.4470 C   0  0  0  0  0  0  0  0  0  0  0  0
  192.8050  173.4980  141.3040 C   0  0  0  0  0  3  0  0  0  0  0  0
  194.1770  173.6820  141.1040 C   0  0  0  0  0  3  0  0  0  0  0  0
  194.0090  175.9290  141.9940 C   0  0  0  0  0  3  0  0  0  0  0  0
  192.0280  174.5290  141.8540 C   0  0  0  0  0  0  0  0  0  0  0  0
  196.2320  175.0970  141.2370 C   0  0  0  0  0  0  0  0  0  0  0  0
  197.0600  174.7660  142.1300 O   0  0  0  0  0  1  0  0  0  0  0  0
  196.7000  175.6490  140.0450 O   0  0  0  0  0  0  0  0  0  0  0  0
  189.1310  177.0400  144.3340 C   0  0  1  0  0  3  0  0  0  0  0  0
  188.0010  176.4820  145.1830 C   0  0  0  0  0  1  0  0  0  0  0  0
  191.3660  177.7780  144.5850 O   0  0  0  0  0  0  0  0  0  0  0  0
  190.4860  176.9210  146.5830 C   0  0  0  0  0  1  0  0  0  0  0  0
  190.3920  177.2860  145.1350 C   0  0  0  0  0  0  0  0  0  0  0  0
  192.8580  169.8210  143.3880 C   0  0  0  0  0  2  0  0  0  0  0  0
  193.8130  169.8370  142.2010 C   0  0  0  0  0  2  0  0  0  0  0  0
  193.0120  169.7680  140.9120 C   0  0  0  0  0  2  0  0  0  0  0  0
  192.7860  168.3170  140.4920 C   0  0  0  0  0  2  0  0  0  0  0  0
  192.8380  168.1660  138.9750 C   0  0  0  0  0  2  0  0  0  0  0  0
  190.9130  168.7570  136.9560 O   0  0  0  0  0  0  0  0  0  0  0  0
  191.7170  169.6700  137.2850 C   0  0  0  0  0  0  0  0  0  0  0  0
  192.6490  169.4620  138.3440 N   0  0  0  0  0  2  0  0  0  0  0  0
  189.7990  172.0680  138.2390 S   0  0  0  0  0  0  0  0  0  0  0  0
  191.8610  173.7750  137.6790 C   0  0  2  0  0  3  0  0  0  0  0  0
  190.4860  171.8660  136.5810 C   0  0  1  0  0  0  0  0  0  0  0  0
  192.0840  170.7030  135.1750 O   0  0  0  0  0  0  0  0  0  0  0  0
  192.2950  174.9670  136.8240 C   0  0  0  0  0  2  0  0  0  0  0  0
  190.6630  171.9180  139.4620 O   0  0  0  0  0  0  0  0  0  0  0  0
  193.0370  172.8630  135.5410 C   0  0  0  0  0  2  0  0  0  0  0  0
  188.3720  172.4810  138.4810 O   0  0  0  0  0  0  0  0  0  0  0  0
  193.1100  173.7020  136.8080 C   0  0  2  0  0  0  0  0  0  0  0  0
  191.7370  170.9580  136.5240 C   0  0  2  0  0  0  0  0  0  0  0  0
  189.3890  171.6050  135.5630 C   0  0  0  0  0  1  0  0  0  0  0  0
  193.0420  171.3940  135.9340 C   0  0  1  0  0  3  0  0  0  0  0  0
  190.5460  173.2550  137.0780 C   0  0  1  0  0  3  0  0  0  0  0  0
  195.4870  173.9590  136.6420 O   0  0  0  0  0  1  0  0  0  0  0  0
  194.4320  173.8140  137.5540 C   0  0  0  0  0  2  0  0  0  0  0  0
  2  3  2  0  0  0  0
  2  6  1  0  0  0  0
  3  5  1  0  0  0  0
  4  1  1  0  0  0  0
  5  1  2  0  0  0  0
  5  7  1  0  0  0  0
  6  4  2  0  0  0  0
  8  7  1  0  0  0  0
 10 13  2  0  0  0  0
 11 16  1  6  0  0  0
 11 14  1  0  0  0  0
 12 13  1  0  0  0  0
 12 11  1  0  0  0  0
 13  9  1  0  0  0  0
 14  9  1  6  0  0  0
 14 17  1  0  0  0  0
 15 24  1  6  0  0  0
 15 18  1  0  0  0  0
 16 15  1  0  0  0  0
 17 18  1  0  0  0  0
 17 28  1  0  0  0  0
 18  8  1  6  0  0  0
 20 23  2  0  0  0  0
 21 24  1  0  0  0  0
 22 21  2  0  0  0  0
 22 20  1  0  0  0  0
 23 19  1  0  0  0  0
 24 19  2  0  0  0  0
 25 20  1  0  0  0  0
 25 26  1  0  0  0  0
 27 25  2  0  0  0  0
 28 32  1  0  0  0  0
 28 29  1  1  0  0  0
 30 32  2  0  0  0  0
 32 31  1  0  0  0  0
 33  2  1  0  0  0  0
 34 33  1  0  0  0  0
 35 34  1  0  0  0  0
 36 35  1  0  0  0  0
 37 36  1  0  0  0  0
 38 39  2  0  0  0  0
 39 40  1  0  0  0  0
 40 37  1  0  0  0  0
 41 48  2  0  0  0  0
 41 46  2  0  0  0  0
 42 45  1  6  0  0  0
 43 51  1  6  0  0  0
 43 53  1  0  0  0  0
 43 41  1  0  0  0  0
 44 52  1  0  0  0  0
 44 50  1  0  0  0  0
 47 49  1  0  0  0  0
 49 45  1  0  0  0  0
 49 55  1  1  0  0  0
 49 42  1  0  0  0  0
 50 43  1  0  0  0  0
 50 39  1  1  0  0  0
 52 47  1  6  0  0  0
 52 50  1  0  0  0  0
 53 42  1  0  0  0  0
 53 41  1  1  0  0  0
 54 55  1  0  0  0  0
M  END
>  <MODEL>
3

>  <REMARK>
 VINA RESULT:      -5.9      2.442      6.096
  Name = 
  15 active torsions:
  status: ('A' for Active; 'I' for Inactive)
    1  A    between atoms: C_2  and  C_28
    2  A    between atoms: C_2  and  C_44
    3  A    between atoms: C_8  and  N_22
    4  A    between atoms: C_8  and  C_35
    5  A    between atoms: C_10  and  C_32
    6  A    between atoms: C_19  and  C_40
    7  A    between atoms: C_19  and  N_45
    8  A    between atoms: C_20  and  C_42
    9  A    between atoms: C_25  and  C_38
   10  A    between atoms: C_27  and  C_54
   11  A    between atoms: C_28  and  C_49
   12  A    between atoms: C_33  and  C_52
   13  A    between atoms: C_35  and  C_43
   14  A    between atoms: C_43  and  C_51
   15  A    between atoms: C_51  and  C_54
                            x       y       z     vdW  Elec       q    Type
                         _______ _______ _______ _____ _____    ______ ____

>  <TORSDO>
F 15

$$$$
=
 OpenBabel11052419453D

 55 62  0  0  1  0  0  0  0  0999 V2000
  191.2250  168.8830  140.0320 C   0  0  0  0  0  3  0  0  0  0  0  0
  193.2540  169.1620  141.9410 C   0  0  0  0  0  0  0  0  0  0  0  0
  193.5280  169.3730  140.5850 C   0  0  0  0  0  3  0  0  0  0  0  0
  190.9490  168.6670  141.3820 C   0  0  0  0  0  3  0  0  0  0  0  0
  192.5120  169.2450  139.6240 C   0  0  0  0  0  0  0  0  0  0  0  0
  191.9630  168.8080  142.3350 C   0  0  0  0  0  3  0  0  0  0  0  0
  192.7890  169.3790  138.1600 C   0  0  0  0  0  2  0  0  0  0  0  0
  193.6180  170.6100  137.8300 C   0  0  0  0  0  2  0  0  0  0  0  0
  194.3010  174.3170  135.3980 C   0  0  0  0  0  2  0  0  0  0  0  0
  195.4100  176.4500  135.5820 O   0  0  0  0  0  0  0  0  0  0  0  0
  194.7710  173.7880  137.7660 C   0  0  2  0  0  3  0  0  0  0  0  0
  195.3140  175.0490  137.4250 O   0  0  0  0  0  0  0  0  0  0  0  0
  195.0550  175.3640  136.1090 C   0  0  0  0  0  0  0  0  0  0  0  0
  194.2510  173.1800  136.4290 C   0  0  1  0  0  3  0  0  0  0  0  0
  192.9100  172.6740  139.0400 C   0  0  2  0  0  3  0  0  0  0  0  0
  193.6360  173.9910  138.7700 C   0  0  0  0  0  2  0  0  0  0  0  0
  192.8780  172.6370  136.5520 N   0  0  0  0  0  0  0  0  0  0  0  0
  192.7000  171.8290  137.7750 C   0  0  1  0  0  3  0  0  0  0  0  0
  191.4370  172.3540  141.0340 C   0  0  0  0  0  3  0  0  0  0  0  0
  189.1820  173.2560  141.1230 C   0  0  0  0  0  0  0  0  0  0  0  0
  190.5710  173.6260  139.1610 C   0  0  0  0  0  3  0  0  0  0  0  0
  189.3630  173.8040  139.8430 C   0  0  0  0  0  3  0  0  0  0  0  0
  190.2270  172.5310  141.7140 C   0  0  0  0  0  3  0  0  0  0  0  0
  191.6160  172.9020  139.7560 C   0  0  0  0  0  0  0  0  0  0  0  0
  187.9110  173.4400  141.8440 C   0  0  0  0  0  0  0  0  0  0  0  0
  187.5540  174.5880  142.2290 O   0  0  0  0  0  1  0  0  0  0  0  0
  187.0860  172.3470  142.1030 O   0  0  0  0  0  0  0  0  0  0  0  0
  192.3890  171.8950  135.3690 C   0  0  1  0  0  3  0  0  0  0  0  0
  193.4260  170.8990  134.8780 C   0  0  0  0  0  1  0  0  0  0  0  0
  190.8760  170.0750  135.3540 O   0  0  0  0  0  0  0  0  0  0  0  0
  189.8060  172.1120  135.8030 C   0  0  0  0  0  1  0  0  0  0  0  0
  191.0130  171.2800  135.5070 C   0  0  0  0  0  0  0  0  0  0  0  0
  194.3150  169.3570  142.9760 C   0  0  0  0  0  2  0  0  0  0  0  0
  193.7870  169.1530  144.3910 C   0  0  0  0  0  2  0  0  0  0  0  0
  194.1320  170.3670  145.2350 C   0  0  0  0  0  2  0  0  0  0  0  0
  195.4430  170.1500  145.9880 C   0  0  0  0  0  2  0  0  0  0  0  0
  196.3320  171.3870  145.9190 C   0  0  0  0  0  2  0  0  0  0  0  0
  197.3470  174.0200  145.5050 O   0  0  0  0  0  0  0  0  0  0  0  0
  196.1350  173.8090  145.2310 C   0  0  0  0  0  0  0  0  0  0  0  0
  195.5900  172.4950  145.3410 N   0  0  0  0  0  2  0  0  0  0  0  0
  195.6700  174.4360  142.1130 S   0  0  0  0  0  0  0  0  0  0  0  0
  193.0550  174.9420  142.7310 C   0  0  2  0  0  3  0  0  0  0  0  0
  195.4530  175.6110  143.4660 C   0  0  1  0  0  0  0  0  0  0  0  0
  195.2810  175.9350  145.8640 O   0  0  0  0  0  0  0  0  0  0  0  0
  191.9550  176.0050  142.7210 C   0  0  0  0  0  2  0  0  0  0  0  0
  195.0990  173.0470  142.1910 O   0  0  0  0  0  0  0  0  0  0  0  0
  193.0420  176.1290  145.0490 C   0  0  0  0  0  2  0  0  0  0  0  0
  196.3420  174.8050  140.8180 O   0  0  0  0  0  0  0  0  0  0  0  0
  192.3030  175.3050  144.0070 C   0  0  2  0  0  0  0  0  0  0  0  0
  195.2450  174.9500  144.8490 C   0  0  2  0  0  0  0  0  0  0  0  0
  196.4680  176.7390  143.3790 C   0  0  0  0  0  1  0  0  0  0  0  0
  194.0700  175.2380  145.7300 C   0  0  1  0  0  3  0  0  0  0  0  0
  194.3780  175.6720  142.4560 C   0  0  1  0  0  3  0  0  0  0  0  0
  190.0010  174.9080  144.5390 O   0  0  0  0  0  1  0  0  0  0  0  0
  191.2580  174.2950  144.4580 C   0  0  0  0  0  2  0  0  0  0  0  0
  1  4  1  0  0  0  0
  2  6  1  0  0  0  0
  2 33  1  0  0  0  0
  3  2  2  0  0  0  0
  4  6  2  0  0  0  0
  5  1  2  0  0  0  0
  5  3  1  0  0  0  0
  7  5  1  0  0  0  0
  8  7  1  0  0  0  0
  9 13  1  0  0  0  0
 10 13  2  0  0  0  0
 11 16  1  1  0  0  0
 12 11  1  0  0  0  0
 13 12  1  0  0  0  0
 14  9  1  6  0  0  0
 14 17  1  0  0  0  0
 14 11  1  0  0  0  0
 15 24  1  6  0  0  0
 16 15  1  0  0  0  0
 17 18  1  0  0  0  0
 18  8  1  6  0  0  0
 18 15  1  0  0  0  0
 19 23  1  0  0  0  0
 20 23  2  0  0  0  0
 20 25  1  0  0  0  0
 21 24  1  0  0  0  0
 21 22  2  0  0  0  0
 22 20  1  0  0  0  0
 24 19  2  0  0  0  0
 25 27  2  0  0  0  0
 25 26  1  0  0  0  0
 28 29  1  1  0  0  0
 28 32  1  0  0  0  0
 28 17  1  0  0  0  0
 30 32  2  0  0  0  0
 32 31  1  0  0  0  0
 33 34  1  0  0  0  0
 34 35  1  0  0  0  0
 35 36  1  0  0  0  0
 37 36  1  0  0  0  0
 39 40  1  0  0  0  0
 39 38  2  0  0  0  0
 40 37  1  0  0  0  0
 41 46  2  0  0  0  0
 41 43  1  0  0  0  0
 42 45  1  6  0  0  0
 42 49  1  0  0  0  0
 43 51  1  6  0  0  0
 43 50  1  0  0  0  0
 45 49  1  0  0  0  0
 48 41  2  0  0  0  0
 49 55  1  1  0  0  0
 49 47  1  0  0  0  0
 50 39  1  1  0  0  0
 50 52  1  0  0  0  0
 50 44  1  0  0  0  0
 52 47  1  6  0  0  0
 52 44  1  0  0  0  0
 53 41  1  6  0  0  0
 53 42  1  0  0  0  0
 53 43  1  0  0  0  0
 55 54  1  0  0  0  0
M  END
>  <MODEL>
4

>  <REMARK>
 VINA RESULT:      -5.7      2.691      7.677
  Name = 
  15 active torsions:
  status: ('A' for Active; 'I' for Inactive)
    1  A    between atoms: C_2  and  C_28
    2  A    between atoms: C_2  and  C_44
    3  A    between atoms: C_8  and  N_22
    4  A    between atoms: C_8  and  C_35
    5  A    between atoms: C_10  and  C_32
    6  A    between atoms: C_19  and  C_40
    7  A    between atoms: C_19  and  N_45
    8  A    between atoms: C_20  and  C_42
    9  A    between atoms: C_25  and  C_38
   10  A    between atoms: C_27  and  C_54
   11  A    between atoms: C_28  and  C_49
   12  A    between atoms: C_33  and  C_52
   13  A    between atoms: C_35  and  C_43
   14  A    between atoms: C_43  and  C_51
   15  A    between atoms: C_51  and  C_54
                            x       y       z     vdW  Elec       q    Type
                         _______ _______ _______ _____ _____    ______ ____

>  <TORSDO>
F 15

$$$$
=
 OpenBabel11052419453D

 55 62  0  0  1  0  0  0  0  0999 V2000
  188.5990  173.2710  140.3400 C   0  0  0  0  0  3  0  0  0  0  0  0
  190.6560  171.6940  139.2820 C   0  0  0  0  0  0  0  0  0  0  0  0
  190.3380  171.6160  140.6420 C   0  0  0  0  0  3  0  0  0  0  0  0
  188.9170  173.3540  138.9850 C   0  0  0  0  0  3  0  0  0  0  0  0
  189.2990  172.3960  141.1760 C   0  0  0  0  0  0  0  0  0  0  0  0
  189.9430  172.5650  138.4560 C   0  0  0  0  0  3  0  0  0  0  0  0
  188.9900  172.4020  142.6400 C   0  0  0  0  0  2  0  0  0  0  0  0
  188.8570  173.8060  143.2060 C   0  0  0  0  0  2  0  0  0  0  0  0
  190.1490  177.8410  144.6780 C   0  0  0  0  0  2  0  0  0  0  0  0
  191.5620  179.6730  143.9990 O   0  0  0  0  0  0  0  0  0  0  0  0
  190.9240  176.4490  142.7900 C   0  0  2  0  0  3  0  0  0  0  0  0
  191.5410  177.7220  142.7510 O   0  0  0  0  0  0  0  0  0  0  0  0
  191.1260  178.5100  143.8020 C   0  0  0  0  0  0  0  0  0  0  0  0
  189.8630  176.5330  143.9290 C   0  0  1  0  0  3  0  0  0  0  0  0
  191.3410  174.0230  143.3040 C   0  0  2  0  0  3  0  0  0  0  0  0
  191.9860  175.3910  143.0870 C   0  0  0  0  0  2  0  0  0  0  0  0
  189.9280  175.3710  144.8460 N   0  0  0  0  0  0  0  0  0  0  0  0
  190.0440  174.0890  144.1230 C   0  0  1  0  0  3  0  0  0  0  0  0
  192.2390  171.7010  143.5340 C   0  0  0  0  0  3  0  0  0  0  0  0
  194.0700  171.1770  145.0450 C   0  0  0  0  0  0  0  0  0  0  0  0
  193.2600  173.4630  144.8500 C   0  0  0  0  0  3  0  0  0  0  0  0
  194.1370  172.5300  145.4140 C   0  0  0  0  0  3  0  0  0  0  0  0
  193.1160  170.7690  144.1010 C   0  0  0  0  0  3  0  0  0  0  0  0
  192.3080  173.0520  143.9050 C   0  0  0  0  0  0  0  0  0  0  0  0
  194.9910  170.1920  145.6370 C   0  0  0  0  0  0  0  0  0  0  0  0
  194.5580  169.3040  146.4220 O   0  0  0  0  0  1  0  0  0  0  0  0
  196.3500  170.2270  145.3300 O   0  0  0  0  0  0  0  0  0  0  0  0
  188.8420  175.3030  145.8470 C   0  0  1  0  0  3  0  0  0  0  0  0
  189.3980  175.2430  147.2600 C   0  0  0  0  0  1  0  0  0  0  0  0
  187.0340  176.3200  144.7050 O   0  0  0  0  0  0  0  0  0  0  0  0
  187.5310  177.4050  146.7230 C   0  0  0  0  0  1  0  0  0  0  0  0
  187.7490  176.3390  145.6970 C   0  0  0  0  0  0  0  0  0  0  0  0
  191.7180  170.8210  138.6930 C   0  0  0  0  0  2  0  0  0  0  0  0
  192.4380  169.9930  139.7500 C   0  0  0  0  0  2  0  0  0  0  0  0
  193.6190  169.2820  139.1130 C   0  0  0  0  0  2  0  0  0  0  0  0
  194.1370  170.0640  137.9080 C   0  0  0  0  0  2  0  0  0  0  0  0
  195.6610  170.0820  137.8750 C   0  0  0  0  0  2  0  0  0  0  0  0
  196.4690  171.2900  140.3290 O   0  0  0  0  0  0  0  0  0  0  0  0
  196.4580  172.0110  139.2960 C   0  0  0  0  0  0  0  0  0  0  0  0
  196.1410  171.4460  138.0250 N   0  0  0  0  0  2  0  0  0  0  0  0
  193.9560  174.0160  139.5310 S   0  0  0  0  0  0  0  0  0  0  0  0
  195.4200  175.4330  141.3540 C   0  0  2  0  0  3  0  0  0  0  0  0
  195.6090  174.4590  138.9550 C   0  0  1  0  0  0  0  0  0  0  0  0
  197.9330  173.7960  138.7540 O   0  0  0  0  0  0  0  0  0  0  0  0
  196.0530  176.7920  141.6590 C   0  0  0  0  0  2  0  0  0  0  0  0
  193.7610  173.2010  140.7810 O   0  0  0  0  0  0  0  0  0  0  0  0
  197.8930  175.3840  140.5390 C   0  0  0  0  0  2  0  0  0  0  0  0
  192.7030  174.5050  138.8560 O   0  0  0  0  0  0  0  0  0  0  0  0
  196.9040  175.5510  141.6820 C   0  0  2  0  0  0  0  0  0  0  0  0
  196.7180  173.4810  139.4080 C   0  0  2  0  0  0  0  0  0  0  0  0
  195.5870  174.8580  137.4890 C   0  0  0  0  0  1  0  0  0  0  0  0
  197.9410  173.9140  140.1530 C   0  0  1  0  0  3  0  0  0  0  0  0
  195.0170  175.4540  139.8720 C   0  0  1  0  0  3  0  0  0  0  0  0
  196.6070  173.9360  143.4270 O   0  0  0  0  0  1  0  0  0  0  0  0
  197.3000  175.1050  143.0830 C   0  0  0  0  0  2  0  0  0  0  0  0
  1  5  1  0  0  0  0
  2  3  1  0  0  0  0
  3  5  2  0  0  0  0
  4  1  2  0  0  0  0
  5  7  1  0  0  0  0
  6  4  1  0  0  0  0
  6  2  2  0  0  0  0
  7  8  1  0  0  0  0
 11 16  1  1  0  0  0
 11 14  1  0  0  0  0
 12 11  1  0  0  0  0
 12 13  1  0  0  0  0
 13 10  2  0  0  0  0
 13  9  1  0  0  0  0
 14  9  1  1  0  0  0
 14 17  1  0  0  0  0
 15 24  1  1  0  0  0
 15 18  1  0  0  0  0
 16 15  1  0  0  0  0
 17 28  1  0  0  0  0
 18  8  1  6  0  0  0
 18 17  1  0  0  0  0
 19 24  2  0  0  0  0
 19 23  1  0  0  0  0
 20 22  1  0  0  0  0
 20 25  1  0  0  0  0
 21 22  2  0  0  0  0
 23 20  2  0  0  0  0
 24 21  1  0  0  0  0
 25 26  1  0  0  0  0
 27 25  2  0  0  0  0
 28 29  1  1  0  0  0
 30 32  2  0  0  0  0
 32 28  1  0  0  0  0
 32 31  1  0  0  0  0
 33  2  1  0  0  0  0
 33 34  1  0  0  0  0
 35 34  1  0  0  0  0
 36 35  1  0  0  0  0
 37 36  1  0  0  0  0
 37 40  1  0  0  0  0
 39 38  2  0  0  0  0
 40 39  1  0  0  0  0
 41 46  2  0  0  0  0
 42 45  1  1  0  0  0
 42 49  1  0  0  0  0
 43 51  1  6  0  0  0
 43 50  1  0  0  0  0
 43 41  1  0  0  0  0
 43 53  1  0  0  0  0
 44 50  1  0  0  0  0
 44 52  1  0  0  0  0
 45 49  1  0  0  0  0
 47 49  1  0  0  0  0
 48 41  2  0  0  0  0
 49 55  1  1  0  0  0
 50 39  1  1  0  0  0
 50 52  1  0  0  0  0
 52 47  1  6  0  0  0
 53 41  1  1  0  0  0
 53 42  1  0  0  0  0
 55 54  1  0  0  0  0
M  END
>  <MODEL>
5

>  <REMARK>
 VINA RESULT:      -5.6      2.230      5.071
  Name = 
  15 active torsions:
  status: ('A' for Active; 'I' for Inactive)
    1  A    between atoms: C_2  and  C_28
    2  A    between atoms: C_2  and  C_44
    3  A    between atoms: C_8  and  N_22
    4  A    between atoms: C_8  and  C_35
    5  A    between atoms: C_10  and  C_32
    6  A    between atoms: C_19  and  C_40
    7  A    between atoms: C_19  and  N_45
    8  A    between atoms: C_20  and  C_42
    9  A    between atoms: C_25  and  C_38
   10  A    between atoms: C_27  and  C_54
   11  A    between atoms: C_28  and  C_49
   12  A    between atoms: C_33  and  C_52
   13  A    between atoms: C_35  and  C_43
   14  A    between atoms: C_43  and  C_51
   15  A    between atoms: C_51  and  C_54
                            x       y       z     vdW  Elec       q    Type
                         _______ _______ _______ _____ _____    ______ ____

>  <TORSDO>
F 15

$$$$
=
 OpenBabel11052419453D

 55 62  0  0  1  0  0  0  0  0999 V2000
  188.7330  174.1620  140.0950 C   0  0  0  0  0  3  0  0  0  0  0  0
  189.3220  172.5290  137.8980 C   0  0  0  0  0  0  0  0  0  0  0  0
  189.9580  172.3140  139.1250 C   0  0  0  0  0  3  0  0  0  0  0  0
  188.1010  174.3820  138.8710 C   0  0  0  0  0  3  0  0  0  0  0  0
  189.6580  173.1230  140.2330 C   0  0  0  0  0  0  0  0  0  0  0  0
  188.3940  173.5650  137.7750 C   0  0  0  0  0  3  0  0  0  0  0  0
  190.3820  172.9760  141.5350 C   0  0  0  0  0  2  0  0  0  0  0  0
  189.5290  173.3750  142.7280 C   0  0  0  0  0  2  0  0  0  0  0  0
  187.5690  176.7550  144.9330 C   0  0  0  0  0  2  0  0  0  0  0  0
  186.7770  178.9950  144.5230 O   0  0  0  0  0  0  0  0  0  0  0  0
  188.5600  176.6140  142.6730 C   0  0  2  0  0  3  0  0  0  0  0  0
  187.9210  177.8640  142.8560 O   0  0  0  0  0  0  0  0  0  0  0  0
  187.3690  177.9630  144.1140 C   0  0  0  0  0  0  0  0  0  0  0  0
  188.2050  175.7750  143.9380 C   0  0  1  0  0  3  0  0  0  0  0  0
  190.8120  175.5060  142.5210 C   0  0  2  0  0  3  0  0  0  0  0  0
  190.0670  176.8390  142.5520 C   0  0  0  0  0  2  0  0  0  0  0  0
  189.3940  175.1160  144.5280 N   0  0  0  0  0  0  0  0  0  0  0  0
  190.2470  174.4740  143.5090 C   0  0  1  0  0  3  0  0  0  0  0  0
  193.1620  175.4020  141.6760 C   0  0  0  0  0  3  0  0  0  0  0  0
  195.0590  175.9920  143.0770 C   0  0  0  0  0  0  0  0  0  0  0  0
  192.7950  176.1380  143.9560 C   0  0  0  0  0  3  0  0  0  0  0  0
  194.1750  176.2860  144.1290 C   0  0  0  0  0  3  0  0  0  0  0  0
  194.5430  175.5500  141.8500 C   0  0  0  0  0  3  0  0  0  0  0  0
  192.2820  175.6980  142.7260 C   0  0  0  0  0  0  0  0  0  0  0  0
  196.5120  176.1450  143.2550 C   0  0  0  0  0  0  0  0  0  0  0  0
  197.0320  177.2940  143.3130 O   0  0  0  0  0  0  0  0  0  0  0  0
  197.3290  175.0210  143.3670 O   0  0  0  0  0  1  0  0  0  0  0  0
  189.1030  174.1700  145.6270 C   0  0  1  0  0  3  0  0  0  0  0  0
  189.7150  172.8050  145.3540 C   0  0  0  0  0  1  0  0  0  0  0  0
  188.5730  174.5410  147.9040 O   0  0  0  0  0  0  0  0  0  0  0  0
  190.7010  175.3510  147.3470 C   0  0  0  0  0  1  0  0  0  0  0  0
  189.4090  174.6730  147.0220 C   0  0  0  0  0  0  0  0  0  0  0  0
  189.5880  171.6330  136.7300 C   0  0  0  0  0  2  0  0  0  0  0  0
  190.1060  170.2650  137.1570 C   0  0  0  0  0  2  0  0  0  0  0  0
  191.1880  169.8150  136.1920 C   0  0  0  0  0  2  0  0  0  0  0  0
  192.4700  169.4600  136.9420 C   0  0  0  0  0  2  0  0  0  0  0  0
  192.2440  168.2990  137.9050 C   0  0  0  0  0  2  0  0  0  0  0  0
  191.6720  169.6330  140.3610 O   0  0  0  0  0  0  0  0  0  0  0  0
  192.8290  169.1590  140.2060 C   0  0  0  0  0  0  0  0  0  0  0  0
  193.1520  168.4120  139.0350 N   0  0  0  0  0  2  0  0  0  0  0  0
  194.7800  171.6790  139.7780 S   0  0  0  0  0  0  0  0  0  0  0  0
  194.5940  172.1240  142.4690 C   0  0  2  0  0  3  0  0  0  0  0  0
  195.1440  170.2250  140.7860 C   0  0  1  0  0  0  0  0  0  0  0  0
  194.2800  168.2180  141.8370 O   0  0  0  0  0  0  0  0  0  0  0  0
  195.3850  172.2140  143.7760 C   0  0  0  0  0  2  0  0  0  0  0  0
  193.4560  172.3850  139.8810 O   0  0  0  0  0  0  0  0  0  0  0  0
  194.5420  169.7880  143.6200 C   0  0  0  0  0  2  0  0  0  0  0  0
  195.7970  172.3060  138.8630 O   0  0  0  0  0  0  0  0  0  0  0  0
  194.2160  171.2720  143.6760 C   0  0  2  0  0  0  0  0  0  0  0  0
  193.8900  169.4330  141.2260 C   0  0  2  0  0  0  0  0  0  0  0  0
  196.3010  169.4320  140.2030 C   0  0  0  0  0  1  0  0  0  0  0  0
  193.5770  169.1170  142.6540 C   0  0  1  0  0  3  0  0  0  0  0  0
  195.5320  171.4990  141.4260 C   0  0  1  0  0  3  0  0  0  0  0  0
  193.3270  172.7880  145.3060 O   0  0  0  0  0  1  0  0  0  0  0  0
  192.9860  171.7370  144.4430 C   0  0  0  0  0  2  0  0  0  0  0  0
  1  5  1  0  0  0  0
  2  3  1  0  0  0  0
  3  5  2  0  0  0  0
  4  1  2  0  0  0  0
  5  7  1  0  0  0  0
  6  2  2  0  0  0  0
  6  4  1  0  0  0  0
  7  8  1  0  0  0  0
 11 16  1  1  0  0  0
 11 12  1  0  0  0  0
 11 14  1  0  0  0  0
 12 13  1  0  0  0  0
 13 10  2  0  0  0  0
 13  9  1  0  0  0  0
 14 17  1  0  0  0  0
 14  9  1  1  0  0  0
 15 16  1  0  0  0  0
 15 24  1  1  0  0  0
 15 18  1  0  0  0  0
 17 28  1  0  0  0  0
 18  8  1  6  0  0  0
 18 17  1  0  0  0  0
 19 23  2  0  0  0  0
 19 24  1  0  0  0  0
 20 25  1  0  0  0  0
 20 22  2  0  0  0  0
 21 22  1  0  0  0  0
 23 20  1  0  0  0  0
 24 21  2  0  0  0  0
 25 26  2  0  0  0  0
 25 27  1  0  0  0  0
 28 29  1  6  0  0  0
 28 32  1  0  0  0  0
 32 31  1  0  0  0  0
 32 30  2  0  0  0  0
 33 34  1  0  0  0  0
 33  2  1  0  0  0  0
 35 36  1  0  0  0  0
 35 34  1  0  0  0  0
 36 37  1  0  0  0  0
 37 40  1  0  0  0  0
 39 38  2  0  0  0  0
 40 39  1  0  0  0  0
 41 46  2  0  0  0  0
 41 43  1  0  0  0  0
 42 49  1  0  0  0  0
 42 45  1  1  0  0  0
 43 51  1  6  0  0  0
 43 50  1  0  0  0  0
 43 53  1  0  0  0  0
 44 52  1  0  0  0  0
 47 49  1  0  0  0  0
 48 41  2  0  0  0  0
 49 45  1  0  0  0  0
 49 55  1  1  0  0  0
 50 39  1  6  0  0  0
 50 44  1  0  0  0  0
 50 52  1  0  0  0  0
 52 47  1  1  0  0  0
 53 41  1  6  0  0  0
 53 42  1  0  0  0  0
 55 54  1  0  0  0  0
M  END
>  <MODEL>
6

>  <REMARK>
 VINA RESULT:      -5.5      2.267      5.065
  Name = 
  15 active torsions:
  status: ('A' for Active; 'I' for Inactive)
    1  A    between atoms: C_2  and  C_28
    2  A    between atoms: C_2  and  C_44
    3  A    between atoms: C_8  and  N_22
    4  A    between atoms: C_8  and  C_35
    5  A    between atoms: C_10  and  C_32
    6  A    between atoms: C_19  and  C_40
    7  A    between atoms: C_19  and  N_45
    8  A    between atoms: C_20  and  C_42
    9  A    between atoms: C_25  and  C_38
   10  A    between atoms: C_27  and  C_54
   11  A    between atoms: C_28  and  C_49
   12  A    between atoms: C_33  and  C_52
   13  A    between atoms: C_35  and  C_43
   14  A    between atoms: C_43  and  C_51
   15  A    between atoms: C_51  and  C_54
                            x       y       z     vdW  Elec       q    Type
                         _______ _______ _______ _____ _____    ______ ____

>  <TORSDO>
F 15

$$$$
=
 OpenBabel11052419453D

 55 62  0  0  1  0  0  0  0  0999 V2000
  189.8350  175.5260  142.2330 C   0  0  0  0  0  3  0  0  0  0  0  0
  188.9860  173.7770  140.2190 C   0  0  0  0  0  0  0  0  0  0  0  0
  190.2760  173.6670  140.7490 C   0  0  0  0  0  3  0  0  0  0  0  0
  188.5500  175.6420  141.7030 C   0  0  0  0  0  3  0  0  0  0  0  0
  190.7030  174.5350  141.7680 C   0  0  0  0  0  0  0  0  0  0  0  0
  188.1260  174.7670  140.6980 C   0  0  0  0  0  3  0  0  0  0  0  0
  192.1030  174.5010  142.2970 C   0  0  0  0  0  2  0  0  0  0  0  0
  192.3080  175.4400  143.4740 C   0  0  0  0  0  2  0  0  0  0  0  0
  190.9360  176.6040  147.5830 C   0  0  0  0  0  2  0  0  0  0  0  0
  191.7330  177.8260  149.5030 O   0  0  0  0  0  0  0  0  0  0  0  0
  193.1280  176.8000  146.4590 C   0  0  2  0  0  3  0  0  0  0  0  0
  193.1550  177.4560  147.7120 O   0  0  0  0  0  0  0  0  0  0  0  0
  191.9430  177.3510  148.3570 C   0  0  0  0  0  0  0  0  0  0  0  0
  191.6440  176.3770  146.2400 C   0  0  1  0  0  3  0  0  0  0  0  0
  193.9320  174.7530  145.2390 C   0  0  2  0  0  3  0  0  0  0  0  0
  194.0560  175.5870  146.5130 C   0  0  0  0  0  2  0  0  0  0  0  0
  191.5180  174.9660  145.8060 N   0  0  0  0  0  0  0  0  0  0  0  0
  192.4840  174.6150  144.7460 C   0  0  1  0  0  3  0  0  0  0  0  0
  193.7760  172.2600  145.3470 C   0  0  0  0  0  3  0  0  0  0  0  0
  195.7280  170.8680  145.7480 C   0  0  0  0  0  0  0  0  0  0  0  0
  195.9530  173.2870  145.6320 C   0  0  0  0  0  3  0  0  0  0  0  0
  196.5260  172.0220  145.8020 C   0  0  0  0  0  3  0  0  0  0  0  0
  194.3500  170.9950  145.5190 C   0  0  0  0  0  3  0  0  0  0  0  0
  194.5750  173.4110  145.4000 C   0  0  0  0  0  0  0  0  0  0  0  0
  196.3260  169.5350  145.9280 C   0  0  0  0  0  0  0  0  0  0  0  0
  197.1780  169.3330  146.8380 O   0  0  0  0  0  1  0  0  0  0  0  0
  195.9530  168.4790  145.0980 O   0  0  0  0  0  0  0  0  0  0  0  0
  190.1530  174.5500  145.4180 C   0  0  1  0  0  3  0  0  0  0  0  0
  190.0970  173.0630  145.1100 C   0  0  0  0  0  1  0  0  0  0  0  0
  188.9410  174.4670  147.4500 O   0  0  0  0  0  0  0  0  0  0  0  0
  188.0550  176.0400  145.9540 C   0  0  0  0  0  1  0  0  0  0  0  0
  189.0450  174.9910  146.3510 C   0  0  0  0  0  0  0  0  0  0  0  0
  188.5020  172.8180  139.1790 C   0  0  0  0  0  2  0  0  0  0  0  0
  189.5760  171.8170  138.7710 C   0  0  0  0  0  2  0  0  0  0  0  0
  189.8750  171.9770  137.2910 C   0  0  0  0  0  2  0  0  0  0  0  0
  190.3450  173.3970  136.9830 C   0  0  0  0  0  2  0  0  0  0  0  0
  191.7610  173.4000  136.4180 C   0  0  0  0  0  2  0  0  0  0  0  0
  194.5700  173.0630  136.0490 O   0  0  0  0  0  0  0  0  0  0  0  0
  194.0840  172.7550  137.1700 C   0  0  0  0  0  0  0  0  0  0  0  0
  192.7010  172.9760  137.4430 N   0  0  0  0  0  2  0  0  0  0  0  0
  195.7640  174.6010  139.1970 S   0  0  0  0  0  0  0  0  0  0  0  0
  195.1360  172.8040  141.1600 C   0  0  2  0  0  3  0  0  0  0  0  0
  196.1470  172.8890  138.7700 C   0  0  1  0  0  0  0  0  0  0  0  0
  195.3830  170.8410  137.7180 O   0  0  0  0  0  0  0  0  0  0  0  0
  195.7130  171.8180  142.1770 C   0  0  0  0  0  2  0  0  0  0  0  0
  194.3650  175.0180  139.5580 O   0  0  0  0  0  0  0  0  0  0  0  0
  195.1940  170.4400  140.0670 C   0  0  0  0  0  2  0  0  0  0  0  0
  196.8220  175.6660  139.3020 O   0  0  0  0  0  0  0  0  0  0  0  0
  194.6900  171.3460  141.1790 C   0  0  2  0  0  0  0  0  0  0  0  0
  194.9450  172.0970  138.2020 C   0  0  2  0  0  0  0  0  0  0  0  0
  197.4620  172.7950  138.0150 C   0  0  0  0  0  1  0  0  0  0  0  0
  194.4670  170.8030  138.7810 C   0  0  1  0  0  3  0  0  0  0  0  0
  196.2830  173.1810  140.2110 C   0  0  1  0  0  3  0  0  0  0  0  0
  193.2690  169.8130  142.3510 O   0  0  0  0  0  1  0  0  0  0  0  0
  193.3150  171.0930  141.7810 C   0  0  0  0  0  2  0  0  0  0  0  0
  2  6  2  0  0  0  0
  2  3  1  0  0  0  0
  3  5  2  0  0  0  0
  4  1  2  0  0  0  0
  5  1  1  0  0  0  0
  5  7  1  0  0  0  0
  6  4  1  0  0  0  0
  7  8  1  0  0  0  0
  9 13  1  0  0  0  0
 11 16  1  1  0  0  0
 11 12  1  0  0  0  0
 12 13  1  0  0  0  0
 13 10  2  0  0  0  0
 14 11  1  0  0  0  0
 14  9  1  1  0  0  0
 15 24  1  1  0  0  0
 15 16  1  0  0  0  0
 17 14  1  0  0  0  0
 18  8  1  6  0  0  0
 18 15  1  0  0  0  0
 18 17  1  0  0  0  0
 19 24  2  0  0  0  0
 19 23  1  0  0  0  0
 20 22  1  0  0  0  0
 20 25  1  0  0  0  0
 21 22  2  0  0  0  0
 23 20  2  0  0  0  0
 24 21  1  0  0  0  0
 25 26  1  0  0  0  0
 27 25  2  0  0  0  0
 28 29  1  1  0  0  0
 28 17  1  0  0  0  0
 28 32  1  0  0  0  0
 31 32  1  0  0  0  0
 32 30  2  0  0  0  0
 33  2  1  0  0  0  0
 34 33  1  0  0  0  0
 35 34  1  0  0  0  0
 36 35  1  0  0  0  0
 37 36  1  0  0  0  0
 37 40  1  0  0  0  0
 38 39  2  0  0  0  0
 39 40  1  0  0  0  0
 41 48  2  0  0  0  0
 41 46  2  0  0  0  0
 42 49  1  0  0  0  0
 42 45  1  1  0  0  0
 43 51  1  6  0  0  0
 43 41  1  0  0  0  0
 43 53  1  0  0  0  0
 44 50  1  0  0  0  0
 44 52  1  0  0  0  0
 47 49  1  0  0  0  0
 49 55  1  1  0  0  0
 49 45  1  0  0  0  0
 50 39  1  6  0  0  0
 50 43  1  0  0  0  0
 50 52  1  0  0  0  0
 52 47  1  1  0  0  0
 53 41  1  6  0  0  0
 53 42  1  0  0  0  0
 55 54  1  0  0  0  0
M  END
>  <MODEL>
7

>  <REMARK>
 VINA RESULT:      -5.4      2.416      5.473
  Name = 
  15 active torsions:
  status: ('A' for Active; 'I' for Inactive)
    1  A    between atoms: C_2  and  C_28
    2  A    between atoms: C_2  and  C_44
    3  A    between atoms: C_8  and  N_22
    4  A    between atoms: C_8  and  C_35
    5  A    between atoms: C_10  and  C_32
    6  A    between atoms: C_19  and  C_40
    7  A    between atoms: C_19  and  N_45
    8  A    between atoms: C_20  and  C_42
    9  A    between atoms: C_25  and  C_38
   10  A    between atoms: C_27  and  C_54
   11  A    between atoms: C_28  and  C_49
   12  A    between atoms: C_33  and  C_52
   13  A    between atoms: C_35  and  C_43
   14  A    between atoms: C_43  and  C_51
   15  A    between atoms: C_51  and  C_54
                            x       y       z     vdW  Elec       q    Type
                         _______ _______ _______ _____ _____    ______ ____

>  <TORSDO>
F 15

$$$$
=
 OpenBabel11052419453D

 55 62  0  0  1  0  0  0  0  0999 V2000
  188.5870  172.8530  141.0480 C   0  0  0  0  0  3  0  0  0  0  0  0
  190.5710  172.2080  139.1810 C   0  0  0  0  0  0  0  0  0  0  0  0
  190.8510  172.1580  140.5510 C   0  0  0  0  0  3  0  0  0  0  0  0
  188.3080  172.9090  139.6830 C   0  0  0  0  0  3  0  0  0  0  0  0
  189.8560  172.4700  141.4920 C   0  0  0  0  0  0  0  0  0  0  0  0
  189.2980  172.5850  138.7510 C   0  0  0  0  0  3  0  0  0  0  0  0
  190.1440  172.5110  142.9600 C   0  0  0  0  0  2  0  0  0  0  0  0
  189.1990  173.4270  143.7190 C   0  0  0  0  0  2  0  0  0  0  0  0
  187.2830  177.4630  144.1260 C   0  0  0  0  0  2  0  0  0  0  0  0
  186.6600  179.3430  142.7510 O   0  0  0  0  0  0  0  0  0  0  0  0
  188.4330  176.3670  142.2330 C   0  0  2  0  0  3  0  0  0  0  0  0
  187.8580  177.5920  141.8190 O   0  0  0  0  0  0  0  0  0  0  0  0
  187.2190  178.2210  142.8650 C   0  0  0  0  0  0  0  0  0  0  0  0
  187.9330  176.1420  143.6920 C   0  0  1  0  0  3  0  0  0  0  0  0
  190.6190  175.2450  142.7680 C   0  0  2  0  0  3  0  0  0  0  0  0
  189.9550  176.4860  142.1720 C   0  0  0  0  0  2  0  0  0  0  0  0
  189.0320  175.7650  144.6120 N   0  0  0  0  0  0  0  0  0  0  0  0
  189.9200  174.7350  144.0360 C   0  0  1  0  0  3  0  0  0  0  0  0
  192.5570  175.4760  144.3300 C   0  0  0  0  0  3  0  0  0  0  0  0
  194.8040  175.9440  143.5290 C   0  0  0  0  0  0  0  0  0  0  0  0
  192.9670  175.7080  141.9520 C   0  0  0  0  0  3  0  0  0  0  0  0
  194.3220  175.9400  142.2090 C   0  0  0  0  0  3  0  0  0  0  0  0
  193.9130  175.7100  144.5860 C   0  0  0  0  0  3  0  0  0  0  0  0
  192.0780  175.4720  143.0120 C   0  0  0  0  0  0  0  0  0  0  0  0
  196.2290  176.1890  143.8050 C   0  0  0  0  0  0  0  0  0  0  0  0
  196.7020  177.3580  143.7360 O   0  0  0  0  0  0  0  0  0  0  0  0
  197.0700  175.1330  144.1510 O   0  0  0  0  0  1  0  0  0  0  0  0
  188.6020  175.3720  145.9720 C   0  0  1  0  0  3  0  0  0  0  0  0
  189.6100  174.4350  146.6180 C   0  0  0  0  0  1  0  0  0  0  0  0
  187.0940  176.5030  147.4040 O   0  0  0  0  0  0  0  0  0  0  0  0
  189.1160  177.6630  147.1530 C   0  0  0  0  0  1  0  0  0  0  0  0
  188.2010  176.5110  146.8850 C   0  0  0  0  0  0  0  0  0  0  0  0
  191.6060  171.8170  138.1740 C   0  0  0  0  0  2  0  0  0  0  0  0
  191.5620  170.3290  137.8490 C   0  0  0  0  0  2  0  0  0  0  0  0
  192.5250  169.5880  138.7600 C   0  0  0  0  0  2  0  0  0  0  0  0
  193.5780  168.8410  137.9440 C   0  0  0  0  0  2  0  0  0  0  0  0
  194.6030  168.1660  138.8500 C   0  0  0  0  0  2  0  0  0  0  0  0
  197.0130  169.1930  139.9780 O   0  0  0  0  0  0  0  0  0  0  0  0
  195.9530  169.3120  140.6500 C   0  0  0  0  0  0  0  0  0  0  0  0
  194.7030  168.8910  140.1060 N   0  0  0  0  0  2  0  0  0  0  0  0
  195.6810  172.4800  141.1260 S   0  0  0  0  0  0  0  0  0  0  0  0
  194.1520  171.8960  143.3150 C   0  0  2  0  0  3  0  0  0  0  0  0
  196.4510  171.3070  142.2620 C   0  0  1  0  0  0  0  0  0  0  0  0
  196.8040  168.9790  142.8450 O   0  0  0  0  0  0  0  0  0  0  0  0
  194.0440  172.0410  144.8340 C   0  0  0  0  0  2  0  0  0  0  0  0
  194.3450  172.1910  140.4980 O   0  0  0  0  0  0  0  0  0  0  0  0
  195.1870  169.7740  144.4160 C   0  0  0  0  0  2  0  0  0  0  0  0
  196.2810  173.8260  140.8200 O   0  0  0  0  0  0  0  0  0  0  0  0
  193.9780  170.6730  144.2090 C   0  0  2  0  0  0  0  0  0  0  0  0
  196.0110  169.8400  142.0490 C   0  0  2  0  0  0  0  0  0  0  0  0
  197.9410  171.5750  142.3980 C   0  0  0  0  0  1  0  0  0  0  0  0
  195.4310  168.9900  143.1350 C   0  0  1  0  0  3  0  0  0  0  0  0
  195.5850  172.2970  142.9340 C   0  0  1  0  0  3  0  0  0  0  0  0
  192.1770  169.7850  142.9020 O   0  0  0  0  0  1  0  0  0  0  0  0
  192.5850  170.0620  144.2150 C   0  0  0  0  0  2  0  0  0  0  0  0
  1  5  1  0  0  0  0
  2  3  1  0  0  0  0
  3  5  2  0  0  0  0
  4  1  2  0  0  0  0
  5  7  1  0  0  0  0
  6  2  2  0  0  0  0
  6  4  1  0  0  0  0
  7  8  1  0  0  0  0
 10 13  2  0  0  0  0
 11 16  1  1  0  0  0
 11 14  1  0  0  0  0
 12 11  1  0  0  0  0
 12 13  1  0  0  0  0
 13  9  1  0  0  0  0
 14  9  1  1  0  0  0
 14 17  1  0  0  0  0
 15 24  1  1  0  0  0
 15 18  1  0  0  0  0
 16 15  1  0  0  0  0
 17 28  1  0  0  0  0
 18  8  1  6  0  0  0
 18 17  1  0  0  0  0
 19 23  1  0  0  0  0
 20 25  1  0  0  0  0
 20 23  2  0  0  0  0
 21 22  2  0  0  0  0
 21 24  1  0  0  0  0
 22 20  1  0  0  0  0
 24 19  2  0  0  0  0
 25 27  1  0  0  0  0
 26 25  2  0  0  0  0
 28 29  1  1  0  0  0
 28 32  1  0  0  0  0
 32 31  1  0  0  0  0
 32 30  2  0  0  0  0
 33  2  1  0  0  0  0
 34 33  1  0  0  0  0
 34 35  1  0  0  0  0
 36 35  1  0  0  0  0
 36 37  1  0  0  0  0
 37 40  1  0  0  0  0
 38 39  2  0  0  0  0
 40 39  1  0  0  0  0
 41 43  1  0  0  0  0
 42 49  1  0  0  0  0
 42 45  1  1  0  0  0
 43 51  1  1  0  0  0
 43 53  1  0  0  0  0
 44 52  1  0  0  0  0
 46 41  2  0  0  0  0
 48 41  2  0  0  0  0
 49 55  1  6  0  0  0
 49 47  1  0  0  0  0
 49 45  1  0  0  0  0
 50 39  1  6  0  0  0
 50 43  1  0  0  0  0
 50 44  1  0  0  0  0
 50 52  1  0  0  0  0
 52 47  1  1  0  0  0
 53 41  1  6  0  0  0
 53 42  1  0  0  0  0
 54 55  1  0  0  0  0
M  END
>  <MODEL>
8

>  <REMARK>
 VINA RESULT:      -5.4      2.401      5.395
  Name = 
  15 active torsions:
  status: ('A' for Active; 'I' for Inactive)
    1  A    between atoms: C_2  and  C_28
    2  A    between atoms: C_2  and  C_44
    3  A    between atoms: C_8  and  N_22
    4  A    between atoms: C_8  and  C_35
    5  A    between atoms: C_10  and  C_32
    6  A    between atoms: C_19  and  C_40
    7  A    between atoms: C_19  and  N_45
    8  A    between atoms: C_20  and  C_42
    9  A    between atoms: C_25  and  C_38
   10  A    between atoms: C_27  and  C_54
   11  A    between atoms: C_28  and  C_49
   12  A    between atoms: C_33  and  C_52
   13  A    between atoms: C_35  and  C_43
   14  A    between atoms: C_43  and  C_51
   15  A    between atoms: C_51  and  C_54
                            x       y       z     vdW  Elec       q    Type
                         _______ _______ _______ _____ _____    ______ ____

>  <TORSDO>
F 15

$$$$
=
 OpenBabel11052419453D

 55 62  0  0  1  0  0  0  0  0999 V2000
  195.9140  174.4300  145.5830 C   0  0  0  0  0  3  0  0  0  0  0  0
  196.9430  172.2840  144.1080 C   0  0  0  0  0  0  0  0  0  0  0  0
  195.6180  172.2600  144.5550 C   0  0  0  0  0  3  0  0  0  0  0  0
  197.2370  174.4550  145.1420 C   0  0  0  0  0  3  0  0  0  0  0  0
  195.0930  173.3380  145.2860 C   0  0  0  0  0  0  0  0  0  0  0  0
  197.7500  173.3840  144.4040 C   0  0  0  0  0  3  0  0  0  0  0  0
  193.7080  173.3070  145.8530 C   0  0  0  0  0  2  0  0  0  0  0  0
  193.0590  174.6800  145.8900 C   0  0  0  0  0  2  0  0  0  0  0  0
  189.2380  177.0090  146.2120 C   0  0  0  0  0  2  0  0  0  0  0  0
  186.9980  176.7450  147.0630 O   0  0  0  0  0  0  0  0  0  0  0  0
  189.7690  174.6400  146.6720 C   0  0  2  0  0  3  0  0  0  0  0  0
  188.4460  174.9370  147.0770 O   0  0  0  0  0  0  0  0  0  0  0  0
  188.1300  176.2530  146.8210 C   0  0  0  0  0  0  0  0  0  0  0  0
  190.3990  176.0060  146.2640 C   0  0  1  0  0  3  0  0  0  0  0  0
  191.1190  173.4480  144.9170 C   0  0  2  0  0  3  0  0  0  0  0  0
  189.7220  173.6670  145.4940 C   0  0  0  0  0  2  0  0  0  0  0  0
  191.0980  175.9360  144.9590 N   0  0  0  0  0  0  0  0  0  0  0  0
  191.9510  174.7370  144.8410 C   0  0  1  0  0  3  0  0  0  0  0  0
  191.5330  171.4540  143.4680 C   0  0  0  0  0  3  0  0  0  0  0  0
  191.0160  171.4620  141.0920 C   0  0  0  0  0  0  0  0  0  0  0  0
  190.5650  173.4290  142.4500 C   0  0  0  0  0  3  0  0  0  0  0  0
  190.5410  172.7780  141.2120 C   0  0  0  0  0  3  0  0  0  0  0  0
  191.5110  170.8040  142.2290 C   0  0  0  0  0  3  0  0  0  0  0  0
  191.0590  172.7680  143.5850 C   0  0  0  0  0  0  0  0  0  0  0  0
  190.9940  170.7730  139.7910 C   0  0  0  0  0  0  0  0  0  0  0  0
  191.5010  171.3170  138.7710 O   0  0  0  0  0  0  0  0  0  0  0  0
  190.4170  169.5090  139.6740 O   0  0  0  0  0  1  0  0  0  0  0  0
  191.8610  177.1490  144.5930 C   0  0  1  0  0  3  0  0  0  0  0  0
  193.2060  176.7900  143.9850 C   0  0  0  0  0  1  0  0  0  0  0  0
  191.3550  179.3600  143.9140 O   0  0  0  0  0  0  0  0  0  0  0  0
  190.0460  177.7680  142.7950 C   0  0  0  0  0  1  0  0  0  0  0  0
  191.1060  178.1720  143.7690 C   0  0  0  0  0  0  0  0  0  0  0  0
  197.4910  171.1690  143.2760 C   0  0  0  0  0  2  0  0  0  0  0  0
  196.4800  170.0470  143.0750 C   0  0  0  0  0  2  0  0  0  0  0  0
  196.9010  169.1990  141.8870 C   0  0  0  0  0  2  0  0  0  0  0  0
  195.7460  169.0350  140.9020 C   0  0  0  0  0  2  0  0  0  0  0  0
  194.7260  170.1590  141.0530 C   0  0  0  0  0  2  0  0  0  0  0  0
  194.1630  172.9000  141.6050 O   0  0  0  0  0  0  0  0  0  0  0  0
  194.7240  172.6260  140.5100 C   0  0  0  0  0  0  0  0  0  0  0  0
  195.1040  171.2830  140.2120 N   0  0  0  0  0  2  0  0  0  0  0  0
  197.2060  174.6370  140.8730 S   0  0  0  0  0  0  0  0  0  0  0  0
  197.5710  174.4790  138.1690 C   0  0  2  0  0  3  0  0  0  0  0  0
  195.7130  174.9700  139.9140 C   0  0  1  0  0  0  0  0  0  0  0  0
  193.6960  174.0620  138.9190 O   0  0  0  0  0  0  0  0  0  0  0  0
  197.6000  175.2800  136.8660 C   0  0  0  0  0  2  0  0  0  0  0  0
  197.9410  173.3310  140.7390 O   0  0  0  0  0  0  0  0  0  0  0  0
  195.2020  174.3750  137.0910 C   0  0  0  0  0  2  0  0  0  0  0  0
  197.8360  175.6630  141.7750 O   0  0  0  0  0  0  0  0  0  0  0  0
  196.6920  174.0860  136.9860 C   0  0  2  0  0  0  0  0  0  0  0  0
  194.9390  173.6990  139.4900 C   0  0  2  0  0  0  0  0  0  0  0  0
  194.9100  176.1030  140.5290 C   0  0  0  0  0  1  0  0  0  0  0  0
  194.5870  173.3870  138.0700 C   0  0  1  0  0  3  0  0  0  0  0  0
  196.9560  175.3940  139.2370 C   0  0  1  0  0  3  0  0  0  0  0  0
  196.8560  171.6970  136.8950 O   0  0  0  0  0  1  0  0  0  0  0  0
  197.1640  172.8740  136.1970 C   0  0  0  0  0  2  0  0  0  0  0  0
  2  6  2  0  0  0  0
  2  3  1  0  0  0  0
  3  5  2  0  0  0  0
  4  1  2  0  0  0  0
  5  1  1  0  0  0  0
  5  7  1  0  0  0  0
  6  4  1  0  0  0  0
  7  8  1  0  0  0  0
  9 13  1  0  0  0  0
 11 16  1  6  0  0  0
 11 12  1  0  0  0  0
 13 10  2  0  0  0  0
 13 12  1  0  0  0  0
 14  9  1  6  0  0  0
 14 11  1  0  0  0  0
 15 24  1  6  0  0  0
 15 16  1  0  0  0  0
 17 14  1  0  0  0  0
 18 15  1  0  0  0  0
 18 17  1  0  0  0  0
 18  8  1  1  0  0  0
 19 24  1  0  0  0  0
 20 22  2  0  0  0  0
 20 23  1  0  0  0  0
 21 24  2  0  0  0  0
 22 21  1  0  0  0  0
 23 19  2  0  0  0  0
 25 20  1  0  0  0  0
 26 25  2  0  0  0  0
 27 25  1  0  0  0  0
 28 29  1  6  0  0  0
 28 17  1  0  0  0  0
 31 32  1  0  0  0  0
 32 30  2  0  0  0  0
 32 28  1  0  0  0  0
 33  2  1  0  0  0  0
 34 33  1  0  0  0  0
 35 34  1  0  0  0  0
 36 37  1  0  0  0  0
 36 35  1  0  0  0  0
 39 38  2  0  0  0  0
 40 39  1  0  0  0  0
 40 37  1  0  0  0  0
 41 48  2  0  0  0  0
 42 45  1  6  0  0  0
 42 53  1  0  0  0  0
 43 51  1  1  0  0  0
 43 41  1  0  0  0  0
 44 50  1  0  0  0  0
 45 49  1  0  0  0  0
 46 41  2  0  0  0  0
 49 55  1  6  0  0  0
 49 47  1  0  0  0  0
 49 42  1  0  0  0  0
 50 43  1  0  0  0  0
 50 39  1  1  0  0  0
 52 47  1  6  0  0  0
 52 44  1  0  0  0  0
 52 50  1  0  0  0  0
 53 43  1  0  0  0  0
 53 41  1  1  0  0  0
 55 54  1  0  0  0  0
M  END
>  <MODEL>
9

>  <REMARK>
 VINA RESULT:      -5.4      2.618      5.471
  Name = 
  15 active torsions:
  status: ('A' for Active; 'I' for Inactive)
    1  A    between atoms: C_2  and  C_28
    2  A    between atoms: C_2  and  C_44
    3  A    between atoms: C_8  and  N_22
    4  A    between atoms: C_8  and  C_35
    5  A    between atoms: C_10  and  C_32
    6  A    between atoms: C_19  and  C_40
    7  A    between atoms: C_19  and  N_45
    8  A    between atoms: C_20  and  C_42
    9  A    between atoms: C_25  and  C_38
   10  A    between atoms: C_27  and  C_54
   11  A    between atoms: C_28  and  C_49
   12  A    between atoms: C_33  and  C_52
   13  A    between atoms: C_35  and  C_43
   14  A    between atoms: C_43  and  C_51
   15  A    between atoms: C_51  and  C_54
                            x       y       z     vdW  Elec       q    Type
                         _______ _______ _______ _____ _____    ______ ____

>  <TORSDO>
F 15

$$$$
