=
 OpenBabel11052418193D

 27 31  0  0  1  0  0  0  0  0999 V2000
  189.7110  174.6800  144.6640 C   0  0  0  0  0  2  0  0  0  0  0  0
  188.8290  176.2590  142.9830 C   0  0  0  0  0  0  0  0  0  0  0  0
  188.5780  177.3890  145.1790 N   0  0  0  0  0  2  0  0  0  0  0  0
  185.5310  178.2920  141.5650 N   0  0  0  0  0  0  0  0  0  0  0  0
  183.5470  178.4750  142.8710 N   0  0  0  0  0  1  0  0  0  0  0  0
  188.3480  176.0860  141.6280 N   0  0  0  0  0  0  0  0  0  0  0  0
  185.8750  178.0600  143.8100 C   0  0  1  0  0  3  0  0  0  0  0  0
  190.9040  176.9960  148.0570 C   0  0  0  0  0  0  0  0  0  0  0  0
  185.4880  177.7140  145.2080 C   0  0  0  0  0  1  0  0  0  0  0  0
  191.2780  177.7110  149.1440 F   0  0  0  0  0  0  0  0  0  0  0  0
  187.0590  177.8610  143.2490 C   0  0  2  0  0  3  0  0  0  0  0  0
  189.9050  175.4280  143.4320 N   0  0  0  0  0  0  0  0  0  0  0  0
  184.9540  178.3290  142.7210 C   0  0  0  0  0  0  0  0  0  0  0  0
  186.9580  178.0830  141.7790 C   0  0  1  0  0  3  0  0  0  0  0  0
  190.1220  175.5190  145.8130 C   0  0  0  0  0  0  0  0  0  0  0  0
  188.1860  177.1100  143.8210 C   0  0  0  0  0  0  0  0  0  0  0  0
  189.9600  177.5170  147.1680 C   0  0  0  0  0  3  0  0  0  0  0  0
  187.4680  176.8670  141.0660 C   0  0  0  0  0  3  0  0  0  0  0  0
  191.4590  175.7370  147.8250 C   0  0  0  0  0  3  0  0  0  0  0  0
  191.0660  174.9990  146.7060 C   0  0  0  0  0  3  0  0  0  0  0  0
  189.5690  176.7950  146.0340 C   0  0  0  0  0  0  0  0  0  0  0  0
  193.4590  174.9470  141.2080 N   0  0  0  0  0  0  0  0  0  0  0  0
  191.1170  175.2720  142.6630 C   0  0  0  0  0  0  0  0  0  0  0  0
  192.1850  176.1690  142.8150 C   0  0  0  0  0  3  0  0  0  0  0  0
  193.3540  175.9910  142.0720 C   0  0  0  0  0  3  0  0  0  0  0  0
  192.4450  174.0560  141.0430 C   0  0  0  0  0  3  0  0  0  0  0  0
  191.2600  174.2010  141.7670 C   0  0  0  0  0  3  0  0  0  0  0  0
  1 15  1  0  0  0  0
  2 12  1  0  0  0  0
  2 16  2  0  0  0  0
  3 21  1  0  0  0  0
  4 14  1  0  0  0  0
  4 13  2  0  0  0  0
  6  2  1  0  0  0  0
  7  9  1  6  0  0  0
  8 10  1  0  0  0  0
 11  7  1  0  0  0  0
 11 16  1  6  0  0  0
 12  1  1  0  0  0  0
 13  5  1  0  0  0  0
 13  7  1  0  0  0  0
 14 18  1  6  0  0  0
 14 11  1  0  0  0  0
 15 21  2  0  0  0  0
 15 20  1  0  0  0  0
 16  3  1  0  0  0  0
 17  8  2  0  0  0  0
 18  6  2  0  0  0  0
 19  8  1  0  0  0  0
 20 19  2  0  0  0  0
 21 17  1  0  0  0  0
 22 25  1  0  0  0  0
 23 24  1  0  0  0  0
 23 12  1  0  0  0  0
 25 24  2  0  0  0  0
 26 22  2  0  0  0  0
 26 27  1  0  0  0  0
 27 23  2  0  0  0  0
M  END
>  <MODEL>
1

>  <REMARK>
 VINA RESULT:      -8.1      0.000      0.000
  Name = 
  1 active torsions:
  status: ('A' for Active; 'I' for Inactive)
    1  A    between atoms: C_9  and  N_15
                            x       y       z     vdW  Elec       q    Type
                         _______ _______ _______ _____ _____    ______ ____

>  <TORSDO>
F 1

$$$$
=
 OpenBabel11052418193D

 27 31  0  0  1  0  0  0  0  0999 V2000
  189.4450  177.8940  144.6270 C   0  0  0  0  0  2  0  0  0  0  0  0
  188.4300  176.3250  143.0140 C   0  0  0  0  0  0  0  0  0  0  0  0
  190.1500  175.0240  144.2430 N   0  0  0  0  0  2  0  0  0  0  0  0
  189.0090  173.9470  139.6930 N   0  0  0  0  0  0  0  0  0  0  0  0
  191.2020  173.3950  138.9460 N   0  0  0  0  0  1  0  0  0  0  0  0
  187.6760  176.5210  141.7930 N   0  0  0  0  0  0  0  0  0  0  0  0
  190.6010  174.0710  141.3240 C   0  0  1  0  0  3  0  0  0  0  0  0
  191.0720  175.5440  147.8100 C   0  0  0  0  0  0  0  0  0  0  0  0
  191.9820  174.2620  141.8530 C   0  0  0  0  0  1  0  0  0  0  0  0
  191.6020  174.8170  148.8220 F   0  0  0  0  0  0  0  0  0  0  0  0
  189.4770  174.4740  141.8980 C   0  0  2  0  0  3  0  0  0  0  0  0
  188.2540  177.2680  144.0780 N   0  0  0  0  0  0  0  0  0  0  0  0
  190.2590  173.7490  139.9510 C   0  0  0  0  0  0  0  0  0  0  0  0
  188.3490  174.3410  140.9330 C   0  0  1  0  0  3  0  0  0  0  0  0
  189.9840  177.0450  145.7150 C   0  0  0  0  0  0  0  0  0  0  0  0
  189.3550  175.3360  143.0820 C   0  0  0  0  0  0  0  0  0  0  0  0
  190.8660  174.9570  146.5590 C   0  0  0  0  0  3  0  0  0  0  0  0
  187.6530  175.6630  140.8110 C   0  0  0  0  0  3  0  0  0  0  0  0
  190.7340  176.8820  148.0150 C   0  0  0  0  0  3  0  0  0  0  0  0
  190.1940  177.6310  146.9680 C   0  0  0  0  0  3  0  0  0  0  0  0
  190.3110  175.6910  145.5050 C   0  0  0  0  0  0  0  0  0  0  0  0
  184.4360  178.3990  145.4770 N   0  0  0  0  0  0  0  0  0  0  0  0
  186.9430  177.6460  144.5490 C   0  0  0  0  0  0  0  0  0  0  0  0
  186.2740  176.8750  145.5120 C   0  0  0  0  0  3  0  0  0  0  0  0
  185.0140  177.2680  145.9640 C   0  0  0  0  0  3  0  0  0  0  0  0
  185.0600  179.1720  144.5490 C   0  0  0  0  0  3  0  0  0  0  0  0
  186.3220  178.8110  144.0710 C   0  0  0  0  0  3  0  0  0  0  0  0
  1 15  1  0  0  0  0
  2 16  2  0  0  0  0
  2 12  1  0  0  0  0
  3 21  1  0  0  0  0
  4 13  2  0  0  0  0
  4 14  1  0  0  0  0
  5 13  1  0  0  0  0
  6  2  1  0  0  0  0
  7  9  1  6  0  0  0
  7 11  1  0  0  0  0
  8 19  1  0  0  0  0
  8 10  1  0  0  0  0
 11 16  1  6  0  0  0
 12 23  1  0  0  0  0
 12  1  1  0  0  0  0
 13  7  1  0  0  0  0
 14 18  1  6  0  0  0
 14 11  1  0  0  0  0
 15 20  1  0  0  0  0
 16  3  1  0  0  0  0
 17  8  2  0  0  0  0
 18  6  2  0  0  0  0
 20 19  2  0  0  0  0
 21 15  2  0  0  0  0
 21 17  1  0  0  0  0
 22 25  1  0  0  0  0
 23 24  1  0  0  0  0
 24 25  2  0  0  0  0
 26 22  2  0  0  0  0
 27 23  2  0  0  0  0
 27 26  1  0  0  0  0
M  END
>  <MODEL>
2

>  <REMARK>
 VINA RESULT:      -7.8      1.640      5.490
  Name = 
  1 active torsions:
  status: ('A' for Active; 'I' for Inactive)
    1  A    between atoms: C_9  and  N_15
                            x       y       z     vdW  Elec       q    Type
                         _______ _______ _______ _____ _____    ______ ____

>  <TORSDO>
F 1

$$$$
=
 OpenBabel11052418193D

 27 31  0  0  1  0  0  0  0  0999 V2000
  189.7420  173.9610  144.7340 C   0  0  0  0  0  2  0  0  0  0  0  0
  188.3730  175.6100  143.5090 C   0  0  0  0  0  0  0  0  0  0  0  0
  189.5440  176.8830  145.2900 N   0  0  0  0  0  2  0  0  0  0  0  0
  185.2300  178.2790  143.6740 N   0  0  0  0  0  0  0  0  0  0  0  0
  184.3320  178.9900  145.7630 N   0  0  0  0  0  1  0  0  0  0  0  0
  187.2150  175.4820  142.6490 N   0  0  0  0  0  0  0  0  0  0  0  0
  186.6890  178.0930  145.4210 C   0  0  1  0  0  3  0  0  0  0  0  0
  192.9510  176.1120  146.5730 C   0  0  0  0  0  0  0  0  0  0  0  0
  187.0670  177.9220  146.8530 C   0  0  0  0  0  1  0  0  0  0  0  0
  193.9670  176.7770  147.1700 F   0  0  0  0  0  0  0  0  0  0  0  0
  187.3280  177.5930  144.3730 C   0  0  2  0  0  3  0  0  0  0  0  0
  189.3630  174.5760  143.4720 N   0  0  0  0  0  0  0  0  0  0  0  0
  185.3860  178.5110  144.9350 C   0  0  0  0  0  0  0  0  0  0  0  0
  186.4870  177.7540  143.1520 C   0  0  1  0  0  3  0  0  0  0  0  0
  190.8440  174.7410  145.3440 C   0  0  0  0  0  0  0  0  0  0  0  0
  188.4390  176.6310  144.3990 C   0  0  0  0  0  0  0  0  0  0  0  0
  191.7800  176.7910  146.2240 C   0  0  0  0  0  3  0  0  0  0  0  0
  186.3160  176.4160  142.4980 C   0  0  0  0  0  3  0  0  0  0  0  0
  193.0700  174.7480  146.3060 C   0  0  0  0  0  3  0  0  0  0  0  0
  192.0170  174.0640  145.6950 C   0  0  0  0  0  3  0  0  0  0  0  0
  190.7220  176.1210  145.5980 C   0  0  0  0  0  0  0  0  0  0  0  0
  191.0010  173.1550  139.8520 N   0  0  0  0  0  0  0  0  0  0  0  0
  189.9190  174.1000  142.2280 C   0  0  0  0  0  0  0  0  0  0  0  0
  191.1760  174.5420  141.7870 C   0  0  0  0  0  3  0  0  0  0  0  0
  191.7020  174.0570  140.5890 C   0  0  0  0  0  3  0  0  0  0  0  0
  189.7830  172.7020  140.2540 C   0  0  0  0  0  3  0  0  0  0  0  0
  189.2230  173.1640  141.4470 C   0  0  0  0  0  3  0  0  0  0  0  0
  1 15  1  0  0  0  0
  2 16  2  0  0  0  0
  3 21  1  0  0  0  0
  4 13  2  0  0  0  0
  6  2  1  0  0  0  0
  7  9  1  1  0  0  0
  8 10  1  0  0  0  0
 11 16  1  1  0  0  0
 11  7  1  0  0  0  0
 12  2  1  0  0  0  0
 12  1  1  0  0  0  0
 13  7  1  0  0  0  0
 13  5  1  0  0  0  0
 14 18  1  1  0  0  0
 14  4  1  0  0  0  0
 14 11  1  0  0  0  0
 15 21  2  0  0  0  0
 15 20  1  0  0  0  0
 16  3  1  0  0  0  0
 17  8  2  0  0  0  0
 18  6  2  0  0  0  0
 19  8  1  0  0  0  0
 20 19  2  0  0  0  0
 21 17  1  0  0  0  0
 22 26  2  0  0  0  0
 22 25  1  0  0  0  0
 23 12  1  0  0  0  0
 24 23  1  0  0  0  0
 25 24  2  0  0  0  0
 26 27  1  0  0  0  0
 27 23  2  0  0  0  0
M  END
>  <MODEL>
3

>  <REMARK>
 VINA RESULT:      -7.5      1.796      2.107
  Name = 
  1 active torsions:
  status: ('A' for Active; 'I' for Inactive)
    1  A    between atoms: C_9  and  N_15
                            x       y       z     vdW  Elec       q    Type
                         _______ _______ _______ _____ _____    ______ ____

>  <TORSDO>
F 1

$$$$
=
 OpenBabel11052418193D

 27 31  0  0  1  0  0  0  0  0999 V2000
  189.3180  176.7110  142.7090 C   0  0  0  0  0  2  0  0  0  0  0  0
  188.4770  174.9450  141.2040 C   0  0  0  0  0  0  0  0  0  0  0  0
  189.3850  173.7710  143.1940 N   0  0  0  0  0  2  0  0  0  0  0  0
  189.4180  171.6840  138.8570 N   0  0  0  0  0  0  0  0  0  0  0  0
  191.5310  170.6020  139.0510 N   0  0  0  0  0  1  0  0  0  0  0  0
  188.1910  174.9160  139.7840 N   0  0  0  0  0  0  0  0  0  0  0  0
  190.4350  171.9930  140.8770 C   0  0  1  0  0  3  0  0  0  0  0  0
  189.3050  175.0950  146.6700 C   0  0  0  0  0  0  0  0  0  0  0  0
  191.6010  172.0960  141.8020 C   0  0  0  0  0  1  0  0  0  0  0  0
  189.3180  174.5980  147.9290 F   0  0  0  0  0  0  0  0  0  0  0  0
  189.3250  172.7140  140.9280 C   0  0  2  0  0  3  0  0  0  0  0  0
  188.2280  176.1580  141.9210 N   0  0  0  0  0  0  0  0  0  0  0  0
  190.4480  171.3660  139.5680 C   0  0  0  0  0  0  0  0  0  0  0  0
  188.5370  172.5050  139.6800 C   0  0  1  0  0  3  0  0  0  0  0  0
  189.2870  176.1180  144.0660 C   0  0  0  0  0  0  0  0  0  0  0  0
  189.0710  173.8770  141.7910 C   0  0  0  0  0  0  0  0  0  0  0  0
  189.3430  174.2280  145.5750 C   0  0  0  0  0  3  0  0  0  0  0  0
  188.2520  173.8370  139.0540 C   0  0  0  0  0  3  0  0  0  0  0  0
  189.2570  176.4750  146.4650 C   0  0  0  0  0  3  0  0  0  0  0  0
  189.2510  176.9840  145.1650 C   0  0  0  0  0  3  0  0  0  0  0  0
  189.3220  174.7250  144.2670 C   0  0  0  0  0  0  0  0  0  0  0  0
  184.5670  178.2360  141.6270 N   0  0  0  0  0  0  0  0  0  0  0  0
  186.9700  176.8580  141.8180 C   0  0  0  0  0  0  0  0  0  0  0  0
  186.0510  176.8450  142.8770 C   0  0  0  0  0  3  0  0  0  0  0  0
  184.8470  177.5420  142.7620 C   0  0  0  0  0  3  0  0  0  0  0  0
  185.4390  178.2750  140.5850 C   0  0  0  0  0  3  0  0  0  0  0  0
  186.6530  177.5900  140.6620 C   0  0  0  0  0  3  0  0  0  0  0  0
  1 15  1  0  0  0  0
  2 16  2  0  0  0  0
  2 12  1  0  0  0  0
  3 21  1  0  0  0  0
  4 13  2  0  0  0  0
  4 14  1  0  0  0  0
  5 13  1  0  0  0  0
  6  2  1  0  0  0  0
  7 11  1  0  0  0  0
  7  9  1  6  0  0  0
  8 10  1  0  0  0  0
 11 16  1  6  0  0  0
 12  1  1  0  0  0  0
 13  7  1  0  0  0  0
 14 18  1  6  0  0  0
 14 11  1  0  0  0  0
 15 21  2  0  0  0  0
 15 20  1  0  0  0  0
 16  3  1  0  0  0  0
 17  8  2  0  0  0  0
 18  6  2  0  0  0  0
 19  8  1  0  0  0  0
 20 19  2  0  0  0  0
 21 17  1  0  0  0  0
 22 25  1  0  0  0  0
 23 12  1  0  0  0  0
 23 24  1  0  0  0  0
 25 24  2  0  0  0  0
 26 27  1  0  0  0  0
 26 22  2  0  0  0  0
 27 23  2  0  0  0  0
M  END
>  <MODEL>
4

>  <REMARK>
 VINA RESULT:      -7.5      2.461      6.017
  Name = 
  1 active torsions:
  status: ('A' for Active; 'I' for Inactive)
    1  A    between atoms: C_9  and  N_15
                            x       y       z     vdW  Elec       q    Type
                         _______ _______ _______ _____ _____    ______ ____

>  <TORSDO>
F 1

$$$$
=
 OpenBabel11052418193D

 27 31  0  0  1  0  0  0  0  0999 V2000
  186.6590  178.9250  143.4550 C   0  0  0  0  0  2  0  0  0  0  0  0
  186.9840  176.8360  142.1810 C   0  0  0  0  0  0  0  0  0  0  0  0
  187.6070  176.3100  144.5250 N   0  0  0  0  0  2  0  0  0  0  0  0
  189.6670  174.0040  140.8360 N   0  0  0  0  0  0  0  0  0  0  0  0
  191.8640  173.8660  141.7460 N   0  0  0  0  0  1  0  0  0  0  0  0
  187.1650  176.5630  140.7700 N   0  0  0  0  0  0  0  0  0  0  0  0
  189.8570  174.8790  142.9360 C   0  0  1  0  0  3  0  0  0  0  0  0
  186.0320  177.8180  147.5400 C   0  0  0  0  0  0  0  0  0  0  0  0
  190.5780  175.5200  144.0730 C   0  0  0  0  0  1  0  0  0  0  0  0
  185.8410  177.4880  148.8390 F   0  0  0  0  0  0  0  0  0  0  0  0
  188.6030  175.1050  142.5730 C   0  0  2  0  0  3  0  0  0  0  0  0
  186.1220  177.9160  142.5570 N   0  0  0  0  0  0  0  0  0  0  0  0
  190.4800  174.1870  141.8230 C   0  0  0  0  0  0  0  0  0  0  0  0
  188.3500  174.4850  141.2410 C   0  0  1  0  0  3  0  0  0  0  0  0
  186.4340  178.4990  144.8560 C   0  0  0  0  0  0  0  0  0  0  0  0
  187.7110  176.1500  143.0970 C   0  0  0  0  0  0  0  0  0  0  0  0
  186.6970  176.9370  146.6840 C   0  0  0  0  0  3  0  0  0  0  0  0
  187.8160  175.5310  140.3090 C   0  0  0  0  0  3  0  0  0  0  0  0
  185.5650  179.0410  147.0550 C   0  0  0  0  0  3  0  0  0  0  0  0
  185.7700  179.3810  145.7160 C   0  0  0  0  0  3  0  0  0  0  0  0
  186.8950  177.2580  145.3360 C   0  0  0  0  0  0  0  0  0  0  0  0
  182.2230  178.2740  140.9830 N   0  0  0  0  0  0  0  0  0  0  0  0
  184.7910  178.0500  142.0160 C   0  0  0  0  0  0  0  0  0  0  0  0
  184.5580  177.9160  140.6390 C   0  0  0  0  0  3  0  0  0  0  0  0
  183.2600  178.0340  140.1380 C   0  0  0  0  0  3  0  0  0  0  0  0
  182.4140  178.4030  142.3230 C   0  0  0  0  0  3  0  0  0  0  0  0
  183.6970  178.2920  142.8620 C   0  0  0  0  0  3  0  0  0  0  0  0
  1 15  1  0  0  0  0
  2 12  1  0  0  0  0
  2 16  2  0  0  0  0
  3 21  1  0  0  0  0
  4 14  1  0  0  0  0
  4 13  2  0  0  0  0
  5 13  1  0  0  0  0
  6  2  1  0  0  0  0
  7  9  1  6  0  0  0
  8 10  1  0  0  0  0
 11  7  1  0  0  0  0
 11 16  1  6  0  0  0
 12  1  1  0  0  0  0
 13  7  1  0  0  0  0
 14 18  1  6  0  0  0
 14 11  1  0  0  0  0
 15 21  2  0  0  0  0
 15 20  1  0  0  0  0
 16  3  1  0  0  0  0
 17  8  2  0  0  0  0
 18  6  2  0  0  0  0
 19  8  1  0  0  0  0
 20 19  2  0  0  0  0
 21 17  1  0  0  0  0
 22 26  1  0  0  0  0
 23 12  1  0  0  0  0
 23 27  1  0  0  0  0
 24 23  2  0  0  0  0
 25 24  1  0  0  0  0
 25 22  2  0  0  0  0
 26 27  2  0  0  0  0
M  END
>  <MODEL>
5

>  <REMARK>
 VINA RESULT:      -7.4      2.359      6.304
  Name = 
  1 active torsions:
  status: ('A' for Active; 'I' for Inactive)
    1  A    between atoms: C_9  and  N_15
                            x       y       z     vdW  Elec       q    Type
                         _______ _______ _______ _____ _____    ______ ____

>  <TORSDO>
F 1

$$$$
=
 OpenBabel11052418193D

 27 31  0  0  1  0  0  0  0  0999 V2000
  190.6940  176.7270  143.0670 C   0  0  0  0  0  2  0  0  0  0  0  0
  188.3160  176.8500  143.7210 C   0  0  0  0  0  0  0  0  0  0  0  0
  188.3880  175.4650  141.6630 N   0  0  0  0  0  2  0  0  0  0  0  0
  184.5300  178.1440  142.7140 N   0  0  0  0  0  0  0  0  0  0  0  0
  184.0210  178.8380  140.4930 N   0  0  0  0  0  1  0  0  0  0  0  0
  187.5730  177.7670  144.5610 N   0  0  0  0  0  0  0  0  0  0  0  0
  185.9170  177.2650  141.1280 C   0  0  1  0  0  3  0  0  0  0  0  0
  191.1700  173.1770  140.7280 C   0  0  0  0  0  0  0  0  0  0  0  0
  186.6300  177.2430  139.8190 C   0  0  0  0  0  1  0  0  0  0  0  0
  191.3380  172.0640  139.9770 F   0  0  0  0  0  0  0  0  0  0  0  0
  186.3880  176.8320  142.2880 C   0  0  2  0  0  3  0  0  0  0  0  0
  189.6680  176.5450  144.0820 N   0  0  0  0  0  0  0  0  0  0  0  0
  184.7550  178.0760  141.4440 C   0  0  0  0  0  0  0  0  0  0  0  0
  185.4910  177.2790  143.3900 C   0  0  1  0  0  3  0  0  0  0  0  0
  190.8180  175.4830  142.2730 C   0  0  0  0  0  0  0  0  0  0  0  0
  187.7640  176.3960  142.5690 C   0  0  0  0  0  0  0  0  0  0  0  0
  189.9060  173.7630  140.8380 C   0  0  0  0  0  3  0  0  0  0  0  0
  186.3020  178.0200  144.4110 C   0  0  0  0  0  3  0  0  0  0  0  0
  192.2590  173.7440  141.3910 C   0  0  0  0  0  3  0  0  0  0  0  0
  192.0840  174.8960  142.1590 C   0  0  0  0  0  3  0  0  0  0  0  0
  189.7120  174.9090  141.6170 C   0  0  0  0  0  0  0  0  0  0  0  0
  190.7350  175.3370  147.9820 N   0  0  0  0  0  0  0  0  0  0  0  0
  190.0250  176.1400  145.4210 C   0  0  0  0  0  0  0  0  0  0  0  0
  189.2300  175.2280  146.1320 C   0  0  0  0  0  3  0  0  0  0  0  0
  189.6020  174.8380  147.4200 C   0  0  0  0  0  3  0  0  0  0  0  0
  191.5300  176.2170  147.3180 C   0  0  0  0  0  3  0  0  0  0  0  0
  191.1910  176.6320  146.0280 C   0  0  0  0  0  3  0  0  0  0  0  0
  1 12  1  0  0  0  0
  2 12  1  0  0  0  0
  2  6  1  0  0  0  0
  3 16  1  0  0  0  0
  4 14  1  0  0  0  0
  5 13  1  0  0  0  0
  7  9  1  1  0  0  0
  7 13  1  0  0  0  0
  7 11  1  0  0  0  0
  8 17  2  0  0  0  0
  8 19  1  0  0  0  0
 10  8  1  0  0  0  0
 11 16  1  1  0  0  0
 11 14  1  0  0  0  0
 12 23  1  0  0  0  0
 13  4  2  0  0  0  0
 14 18  1  1  0  0  0
 15  1  1  0  0  0  0
 16  2  2  0  0  0  0
 17 21  1  0  0  0  0
 18  6  2  0  0  0  0
 19 20  2  0  0  0  0
 20 15  1  0  0  0  0
 21  3  1  0  0  0  0
 21 15  2  0  0  0  0
 23 27  2  0  0  0  0
 23 24  1  0  0  0  0
 24 25  2  0  0  0  0
 25 22  1  0  0  0  0
 26 22  2  0  0  0  0
 27 26  1  0  0  0  0
M  END
>  <MODEL>
6

>  <REMARK>
 VINA RESULT:      -7.4      2.570      4.907
  Name = 
  1 active torsions:
  status: ('A' for Active; 'I' for Inactive)
    1  A    between atoms: C_9  and  N_15
                            x       y       z     vdW  Elec       q    Type
                         _______ _______ _______ _____ _____    ______ ____

>  <TORSDO>
F 1

$$$$
=
 OpenBabel11052418193D

 27 31  0  0  1  0  0  0  0  0999 V2000
  190.0390  173.4760  144.4010 C   0  0  0  0  0  2  0  0  0  0  0  0
  188.7350  175.2840  143.3400 C   0  0  0  0  0  0  0  0  0  0  0  0
  190.1260  176.3770  145.0810 N   0  0  0  0  0  2  0  0  0  0  0  0
  185.8480  178.1900  143.8270 N   0  0  0  0  0  0  0  0  0  0  0  0
  185.1550  178.8800  146.0000 N   0  0  0  0  0  1  0  0  0  0  0  0
  187.5150  175.2890  142.5590 N   0  0  0  0  0  0  0  0  0  0  0  0
  187.3990  177.8090  145.4580 C   0  0  1  0  0  3  0  0  0  0  0  0
  193.5340  175.2750  146.0900 C   0  0  0  0  0  0  0  0  0  0  0  0
  187.8570  177.5450  146.8530 C   0  0  0  0  0  1  0  0  0  0  0  0
  194.6410  175.8280  146.6390 F   0  0  0  0  0  0  0  0  0  0  0  0
  187.9220  177.3060  144.3500 C   0  0  2  0  0  3  0  0  0  0  0  0
  189.6290  174.1750  143.1940 N   0  0  0  0  0  0  0  0  0  0  0  0
  186.1070  178.3540  145.0820 C   0  0  0  0  0  0  0  0  0  0  0  0
  187.0180  177.5880  143.1990 C   0  0  1  0  0  3  0  0  0  0  0  0
  191.2420  174.1360  144.9610 C   0  0  0  0  0  0  0  0  0  0  0  0
  188.9470  176.2560  144.2610 C   0  0  0  0  0  0  0  0  0  0  0  0
  192.4040  176.0610  145.8510 C   0  0  0  0  0  3  0  0  0  0  0  0
  186.6910  176.2980  142.5070 C   0  0  0  0  0  3  0  0  0  0  0  0
  193.5190  173.9180  145.7630 C   0  0  0  0  0  3  0  0  0  0  0  0
  192.3740  173.3500  145.2030 C   0  0  0  0  0  3  0  0  0  0  0  0
  191.2540  175.5090  145.2750 C   0  0  0  0  0  0  0  0  0  0  0  0
  190.8710  172.8460  139.3850 N   0  0  0  0  0  0  0  0  0  0  0  0
  190.0590  173.7110  141.8960 C   0  0  0  0  0  0  0  0  0  0  0  0
  189.3180  172.7460  141.1960 C   0  0  0  0  0  3  0  0  0  0  0  0
  189.7430  172.3220  139.9360 C   0  0  0  0  0  3  0  0  0  0  0  0
  191.6070  173.7870  140.0340 C   0  0  0  0  0  3  0  0  0  0  0  0
  191.2150  174.2360  141.2970 C   0  0  0  0  0  3  0  0  0  0  0  0
  1 15  1  0  0  0  0
  2 16  2  0  0  0  0
  3 21  1  0  0  0  0
  4 13  2  0  0  0  0
  6  2  1  0  0  0  0
  7  9  1  1  0  0  0
  8 10  1  0  0  0  0
 11 16  1  1  0  0  0
 11  7  1  0  0  0  0
 12  2  1  0  0  0  0
 12  1  1  0  0  0  0
 13  7  1  0  0  0  0
 13  5  1  0  0  0  0
 14 18  1  1  0  0  0
 14  4  1  0  0  0  0
 14 11  1  0  0  0  0
 15 20  2  0  0  0  0
 15 21  1  0  0  0  0
 16  3  1  0  0  0  0
 17  8  1  0  0  0  0
 18  6  2  0  0  0  0
 19  8  2  0  0  0  0
 20 19  1  0  0  0  0
 21 17  2  0  0  0  0
 22 25  2  0  0  0  0
 22 26  1  0  0  0  0
 23 12  1  0  0  0  0
 24 23  2  0  0  0  0
 25 24  1  0  0  0  0
 26 27  2  0  0  0  0
 27 23  1  0  0  0  0
M  END
>  <MODEL>
7

>  <REMARK>
 VINA RESULT:      -7.4      2.155      2.746
  Name = 
  1 active torsions:
  status: ('A' for Active; 'I' for Inactive)
    1  A    between atoms: C_9  and  N_15
                            x       y       z     vdW  Elec       q    Type
                         _______ _______ _______ _____ _____    ______ ____

>  <TORSDO>
F 1

$$$$
=
 OpenBabel11052418193D

 27 31  0  0  1  0  0  0  0  0999 V2000
  191.1600  176.3940  142.8460 C   0  0  0  0  0  2  0  0  0  0  0  0
  189.9670  176.5060  145.0040 C   0  0  0  0  0  0  0  0  0  0  0  0
  188.6520  174.9590  143.5760 N   0  0  0  0  0  2  0  0  0  0  0  0
  186.5160  177.6100  146.9780 N   0  0  0  0  0  0  0  0  0  0  0  0
  184.5200  178.1060  145.7760 N   0  0  0  0  0  1  0  0  0  0  0  0
  189.9800  177.4680  146.0860 N   0  0  0  0  0  0  0  0  0  0  0  0
  186.4140  176.6420  144.9130 C   0  0  1  0  0  3  0  0  0  0  0  0
  190.0930  172.6780  141.0130 C   0  0  0  0  0  0  0  0  0  0  0  0
  185.9740  176.5320  143.4930 C   0  0  0  0  0  1  0  0  0  0  0  0
  189.7590  171.5110  140.4130 F   0  0  0  0  0  0  0  0  0  0  0  0
  187.6040  176.3180  145.3960 C   0  0  2  0  0  3  0  0  0  0  0  0
  191.1870  176.2670  144.2940 N   0  0  0  0  0  0  0  0  0  0  0  0
  185.7700  177.4450  145.9370 C   0  0  0  0  0  0  0  0  0  0  0  0
  187.7350  176.8300  146.7900 C   0  0  1  0  0  3  0  0  0  0  0  0
  190.7750  175.0930  142.2510 C   0  0  0  0  0  0  0  0  0  0  0  0
  188.7950  175.9440  144.6180 C   0  0  0  0  0  0  0  0  0  0  0  0
  189.2480  173.2360  141.9760 C   0  0  0  0  0  3  0  0  0  0  0  0
  188.9700  177.6730  146.8860 C   0  0  0  0  0  3  0  0  0  0  0  0
  191.2800  173.3260  140.6690 C   0  0  0  0  0  3  0  0  0  0  0  0
  191.6180  174.5320  141.2850 C   0  0  0  0  0  3  0  0  0  0  0  0
  189.5820  174.4370  142.6130 C   0  0  0  0  0  0  0  0  0  0  0  0
  194.8200  175.4320  146.2730 N   0  0  0  0  0  0  0  0  0  0  0  0
  192.4240  175.9830  144.9820 C   0  0  0  0  0  0  0  0  0  0  0  0
  192.6750  174.7090  145.5130 C   0  0  0  0  0  3  0  0  0  0  0  0
  193.8850  174.4520  146.1610 C   0  0  0  0  0  3  0  0  0  0  0  0
  194.6100  176.6760  145.7640 C   0  0  0  0  0  3  0  0  0  0  0  0
  193.4130  176.9720  145.1100 C   0  0  0  0  0  3  0  0  0  0  0  0
  1 12  1  0  0  0  0
  2  6  1  0  0  0  0
  3 16  1  0  0  0  0
  5 13  1  0  0  0  0
  6 18  2  0  0  0  0
  7  9  1  6  0  0  0
  7 11  1  0  0  0  0
  7 13  1  0  0  0  0
  8 17  1  0  0  0  0
 10  8  1  0  0  0  0
 11 16  1  6  0  0  0
 11 14  1  0  0  0  0
 12 23  1  0  0  0  0
 12  2  1  0  0  0  0
 13  4  2  0  0  0  0
 14 18  1  6  0  0  0
 14  4  1  0  0  0  0
 15 21  1  0  0  0  0
 15  1  1  0  0  0  0
 16  2  2  0  0  0  0
 17 21  2  0  0  0  0
 19  8  2  0  0  0  0
 19 20  1  0  0  0  0
 20 15  2  0  0  0  0
 21  3  1  0  0  0  0
 23 27  2  0  0  0  0
 23 24  1  0  0  0  0
 24 25  2  0  0  0  0
 25 22  1  0  0  0  0
 26 22  2  0  0  0  0
 27 26  1  0  0  0  0
M  END
>  <MODEL>
8

>  <REMARK>
 VINA RESULT:      -7.3      2.998      4.924
  Name = 
  1 active torsions:
  status: ('A' for Active; 'I' for Inactive)
    1  A    between atoms: C_9  and  N_15
                            x       y       z     vdW  Elec       q    Type
                         _______ _______ _______ _____ _____    ______ ____

>  <TORSDO>
F 1

$$$$
=
 OpenBabel11052418193D

 27 31  0  0  1  0  0  0  0  0999 V2000
  191.6900  177.1380  143.8270 C   0  0  0  0  0  2  0  0  0  0  0  0
  190.3280  175.4020  142.7200 C   0  0  0  0  0  0  0  0  0  0  0  0
  192.6190  174.4630  142.8980 N   0  0  0  0  0  2  0  0  0  0  0  0
  189.6900  173.1870  139.2980 N   0  0  0  0  0  0  0  0  0  0  0  0
  191.3380  173.0790  137.5820 N   0  0  0  0  0  1  0  0  0  0  0  0
  189.0700  175.4460  142.0040 N   0  0  0  0  0  0  0  0  0  0  0  0
  191.8110  173.6210  140.0220 C   0  0  1  0  0  3  0  0  0  0  0  0
  194.9960  175.1510  145.6770 C   0  0  0  0  0  0  0  0  0  0  0  0
  193.2220  174.0790  139.8740 C   0  0  0  0  0  1  0  0  0  0  0  0
  196.0540  174.5410  146.2610 F   0  0  0  0  0  0  0  0  0  0  0  0
  191.0350  173.7930  141.0820 C   0  0  2  0  0  3  0  0  0  0  0  0
  190.5090  176.2900  143.8290 N   0  0  0  0  0  0  0  0  0  0  0  0
  190.9290  173.2390  138.9350 C   0  0  0  0  0  0  0  0  0  0  0  0
  189.6290  173.4420  140.7330 C   0  0  1  0  0  3  0  0  0  0  0  0
  192.8130  176.4110  144.4630 C   0  0  0  0  0  0  0  0  0  0  0  0
  191.3340  174.6140  142.2650 C   0  0  0  0  0  0  0  0  0  0  0  0
  194.3340  174.5360  144.6110 C   0  0  0  0  0  3  0  0  0  0  0  0
  188.7390  174.6020  141.0670 C   0  0  0  0  0  3  0  0  0  0  0  0
  194.5660  176.3960  146.1380 C   0  0  0  0  0  3  0  0  0  0  0  0
  193.4790  177.0250  145.5290 C   0  0  0  0  0  3  0  0  0  0  0  0
  193.2330  175.1480  144.0020 C   0  0  0  0  0  0  0  0  0  0  0  0
  187.6180  176.5950  146.8880 N   0  0  0  0  0  0  0  0  0  0  0  0
  189.5270  176.4020  144.8810 C   0  0  0  0  0  0  0  0  0  0  0  0
  188.6040  177.4590  144.8920 C   0  0  0  0  0  3  0  0  0  0  0  0
  187.6530  177.5410  145.9110 C   0  0  0  0  0  3  0  0  0  0  0  0
  188.4940  175.5560  146.9020 C   0  0  0  0  0  3  0  0  0  0  0  0
  189.4600  175.4400  145.9010 C   0  0  0  0  0  3  0  0  0  0  0  0
  1 12  1  0  0  0  0
  1 15  1  0  0  0  0
  2 12  1  0  0  0  0
  3 21  1  0  0  0  0
  4 14  1  0  0  0  0
  5 13  1  0  0  0  0
  6  2  1  0  0  0  0
  7  9  1  6  0  0  0
  7 11  1  0  0  0  0
  8 19  1  0  0  0  0
  8 10  1  0  0  0  0
 11 16  1  6  0  0  0
 12 23  1  0  0  0  0
 13  4  2  0  0  0  0
 13  7  1  0  0  0  0
 14 18  1  6  0  0  0
 14 11  1  0  0  0  0
 15 20  1  0  0  0  0
 16  2  2  0  0  0  0
 16  3  1  0  0  0  0
 17  8  2  0  0  0  0
 18  6  2  0  0  0  0
 20 19  2  0  0  0  0
 21 15  2  0  0  0  0
 21 17  1  0  0  0  0
 22 26  1  0  0  0  0
 23 24  2  0  0  0  0
 23 27  1  0  0  0  0
 24 25  1  0  0  0  0
 25 22  2  0  0  0  0
 27 26  2  0  0  0  0
M  END
>  <MODEL>
9

>  <REMARK>
 VINA RESULT:      -7.0      2.783      5.861
  Name = 
  1 active torsions:
  status: ('A' for Active; 'I' for Inactive)
    1  A    between atoms: C_9  and  N_15
                            x       y       z     vdW  Elec       q    Type
                         _______ _______ _______ _____ _____    ______ ____

>  <TORSDO>
F 1

$$$$
