=
 OpenBabel11052417533D

 31 35  0  0  1  0  0  0  0  0999 V2000
  186.0960  177.4800  141.1640 C   0  0  0  0  0  0  0  0  0  0  0  0
  188.0650  177.4270  144.3680 C   0  0  2  0  0  3  0  0  0  0  0  0
  186.9790  177.7270  145.3690 C   0  0  0  0  0  0  0  0  0  0  0  0
  192.2580  174.9200  142.2110 O   0  0  0  0  0  0  0  0  0  0  0  0
  192.3410  174.8520  143.4670 C   0  0  0  0  0  0  0  0  0  0  0  0
  185.4400  179.4550  146.3280 C   0  0  0  0  0  2  0  0  0  0  0  0
  187.6250  177.1530  142.9530 C   0  0  0  0  0  0  0  0  0  0  0  0
  186.9670  176.8480  140.2730 C   0  0  0  0  0  3  0  0  0  0  0  0
  186.3310  178.8930  145.2620 C   0  0  0  0  0  3  0  0  0  0  0  0
  190.0590  175.9300  143.8470 C   0  0  0  0  0  0  0  0  0  0  0  0
  184.7930  178.0060  140.6790 C   0  0  0  0  0  1  0  0  0  0  0  0
  187.8180  176.0410  146.8780 N   0  0  0  0  0  0  0  0  0  0  0  0
  184.1780  178.6310  146.5450 C   0  0  0  0  0  2  0  0  0  0  0  0
  189.7800  175.9980  142.5740 N   0  0  0  0  0  0  0  0  0  0  0  0
  189.0550  176.3860  144.8280 C   0  0  0  0  0  0  0  0  0  0  0  0
  191.2890  175.3470  144.3020 N   0  0  0  0  0  2  0  0  0  0  0  0
  186.4450  177.6320  142.4700 N   0  0  0  0  0  0  0  0  0  0  0  0
  184.4410  177.1640  146.8880 C   0  0  0  0  0  2  0  0  0  0  0  0
  188.5320  176.5170  142.0810 C   0  0  0  0  0  0  0  0  0  0  0  0
  188.1910  176.3660  140.7360 C   0  0  0  0  0  3  0  0  0  0  0  0
  188.9350  175.7830  146.0150 C   0  0  0  0  0  3  0  0  0  0  0  0
  186.8690  176.8790  146.5860 C   0  0  0  0  0  0  0  0  0  0  0  0
  185.7460  176.9390  147.4170 O   0  0  0  0  0  0  0  0  0  0  0  0
  196.1550  175.7040  143.8290 C   0  0  1  0  0  3  0  0  0  0  0  0
  194.1290  175.1970  145.1780 C   0  0  0  0  0  2  0  0  0  0  0  0
  194.3590  172.8770  142.2920 N   0  0  0  0  0  2  0  0  0  0  0  0
  196.9510  176.7910  143.1380 C   0  0  0  0  0  1  0  0  0  0  0  0
  194.9620  176.3130  144.5520 C   0  0  0  0  0  2  0  0  0  0  0  0
  194.5890  173.8690  143.0880 C   0  0  0  0  0  0  0  0  0  0  0  0
  193.5570  174.2580  144.1110 C   0  0  2  0  0  3  0  0  0  0  0  0
  195.7170  174.7160  142.8480 N   0  0  0  0  0  2  0  0  0  0  0  0
  1 17  1  0  0  0  0
  2  7  1  6  0  0  0
  2 15  1  0  0  0  0
  2  3  1  0  0  0  0
  3 22  1  0  0  0  0
  4  5  2  0  0  0  0
  5 16  1  0  0  0  0
  6 13  1  0  0  0  0
  8 20  1  0  0  0  0
  8  1  2  0  0  0  0
  9  3  2  0  0  0  0
  9  6  1  0  0  0  0
 10 16  1  0  0  0  0
 10 15  1  0  0  0  0
 11  1  1  0  0  0  0
 13 18  1  0  0  0  0
 14 10  2  0  0  0  0
 15 21  2  0  0  0  0
 17  7  2  0  0  0  0
 18 23  1  0  0  0  0
 19 14  1  0  0  0  0
 19  7  1  0  0  0  0
 20 19  2  0  0  0  0
 21 12  1  0  0  0  0
 22 12  2  0  0  0  0
 22 23  1  0  0  0  0
 24 27  1  6  0  0  0
 24 28  1  0  0  0  0
 26 29  2  0  0  0  0
 28 25  1  0  0  0  0
 29 30  1  0  0  0  0
 30  5  1  6  0  0  0
 30 25  1  0  0  0  0
 31 29  1  0  0  0  0
 31 24  1  0  0  0  0
M  END
>  <MODEL>
1

>  <REMARK>
 VINA RESULT:      -8.5      0.000      0.000
  Name = 
  1 active torsions:
  status: ('A' for Active; 'I' for Inactive)
    1  A    between atoms: C_9  and  C_22
                            x       y       z     vdW  Elec       q    Type
                         _______ _______ _______ _____ _____    ______ ____

>  <TORSDO>
F 1

$$$$
=
 OpenBabel11052417533D

 31 35  0  0  1  0  0  0  0  0999 V2000
  190.3670  176.6560  146.2910 C   0  0  0  0  0  0  0  0  0  0  0  0
  187.7820  175.9570  143.6500 C   0  0  2  0  0  3  0  0  0  0  0  0
  186.7210  176.9610  144.0240 C   0  0  0  0  0  0  0  0  0  0  0  0
  191.1460  173.2410  140.5150 O   0  0  0  0  0  0  0  0  0  0  0  0
  190.1220  173.5520  139.8470 C   0  0  0  0  0  0  0  0  0  0  0  0
  184.9170  177.5880  145.6440 C   0  0  0  0  0  2  0  0  0  0  0  0
  189.1020  176.0690  144.3670 C   0  0  0  0  0  0  0  0  0  0  0  0
  191.5010  176.0280  145.7670 C   0  0  0  0  0  3  0  0  0  0  0  0
  186.1620  176.8600  145.2360 C   0  0  0  0  0  3  0  0  0  0  0  0
  189.1150  174.9600  141.7230 C   0  0  0  0  0  0  0  0  0  0  0  0
  190.4340  177.3130  147.6220 C   0  0  0  0  0  1  0  0  0  0  0  0
  186.3800  177.5550  141.7100 N   0  0  0  0  0  0  0  0  0  0  0  0
  185.1070  179.0980  145.7190 C   0  0  0  0  0  2  0  0  0  0  0  0
  190.1430  174.8040  142.5120 N   0  0  0  0  0  0  0  0  0  0  0  0
  187.9930  175.8110  142.1640 C   0  0  0  0  0  0  0  0  0  0  0  0
  189.1010  174.3830  140.4090 N   0  0  0  0  0  2  0  0  0  0  0  0
  189.1990  176.6510  145.5940 N   0  0  0  0  0  0  0  0  0  0  0  0
  185.6080  179.7300  144.4200 C   0  0  0  0  0  2  0  0  0  0  0  0
  190.2230  175.4180  143.8110 C   0  0  0  0  0  0  0  0  0  0  0  0
  191.4240  175.4050  144.5200 C   0  0  0  0  0  3  0  0  0  0  0  0
  187.3020  176.5420  141.2840 C   0  0  0  0  0  3  0  0  0  0  0  0
  186.1350  177.8170  142.9590 C   0  0  0  0  0  0  0  0  0  0  0  0
  185.3450  178.9280  143.2710 O   0  0  0  0  0  0  0  0  0  0  0  0
  191.2290  170.4420  137.7240 C   0  0  1  0  0  3  0  0  0  0  0  0
  189.2080  171.7050  138.4350 C   0  0  0  0  0  2  0  0  0  0  0  0
  191.8880  174.0530  137.4010 N   0  0  0  0  0  2  0  0  0  0  0  0
  192.2040  169.3450  138.0930 C   0  0  0  0  0  1  0  0  0  0  0  0
  190.1380  170.5450  138.7820 C   0  0  0  0  0  2  0  0  0  0  0  0
  191.2710  172.9650  137.7250 C   0  0  0  0  0  0  0  0  0  0  0  0
  189.9530  173.0440  138.4480 C   0  0  2  0  0  3  0  0  0  0  0  0
  191.9410  171.7090  137.5900 N   0  0  0  0  0  2  0  0  0  0  0  0
  1 11  1  0  0  0  0
  2 15  1  6  0  0  0
  2  3  1  0  0  0  0
  2  7  1  0  0  0  0
  3  9  2  0  0  0  0
  5 16  1  0  0  0  0
  5  4  2  0  0  0  0
  6 13  1  0  0  0  0
  7 17  1  0  0  0  0
  8  1  1  0  0  0  0
  9  6  1  0  0  0  0
 10 15  1  0  0  0  0
 10 14  2  0  0  0  0
 12 22  2  0  0  0  0
 14 19  1  0  0  0  0
 16 10  1  0  0  0  0
 17  1  2  0  0  0  0
 18 13  1  0  0  0  0
 19  7  2  0  0  0  0
 19 20  1  0  0  0  0
 20  8  2  0  0  0  0
 21 12  1  0  0  0  0
 21 15  2  0  0  0  0
 22 23  1  0  0  0  0
 22  3  1  0  0  0  0
 23 18  1  0  0  0  0
 24 27  1  1  0  0  0
 24 28  1  0  0  0  0
 25 30  1  0  0  0  0
 25 28  1  0  0  0  0
 26 29  2  0  0  0  0
 29 30  1  0  0  0  0
 30  5  1  1  0  0  0
 31 24  1  0  0  0  0
 31 29  1  0  0  0  0
M  END
>  <MODEL>
2

>  <REMARK>
 VINA RESULT:      -8.4      3.470      5.546
  Name = 
  1 active torsions:
  status: ('A' for Active; 'I' for Inactive)
    1  A    between atoms: C_9  and  C_22
                            x       y       z     vdW  Elec       q    Type
                         _______ _______ _______ _____ _____    ______ ____

>  <TORSDO>
F 1

$$$$
=
 OpenBabel11052417533D

 31 35  0  0  1  0  0  0  0  0999 V2000
  190.2200  176.3850  145.8610 C   0  0  0  0  0  0  0  0  0  0  0  0
  187.3870  175.9850  143.4190 C   0  0  2  0  0  3  0  0  0  0  0  0
  186.4340  177.0400  143.9210 C   0  0  0  0  0  0  0  0  0  0  0  0
  190.2870  173.2000  139.9050 O   0  0  0  0  0  0  0  0  0  0  0  0
  189.2380  173.6090  139.3380 C   0  0  0  0  0  0  0  0  0  0  0  0
  184.8150  177.7100  145.7110 C   0  0  0  0  0  2  0  0  0  0  0  0
  188.7660  175.9750  144.0270 C   0  0  0  0  0  0  0  0  0  0  0  0
  191.2600  175.7080  145.2180 C   0  0  0  0  0  3  0  0  0  0  0  0
  185.9680  176.9200  145.1700 C   0  0  0  0  0  3  0  0  0  0  0  0
  188.4870  174.9920  141.3480 C   0  0  0  0  0  0  0  0  0  0  0  0
  190.4400  176.9750  147.2070 C   0  0  0  0  0  1  0  0  0  0  0  0
  185.9500  177.7630  141.6700 N   0  0  0  0  0  0  0  0  0  0  0  0
  185.1170  179.1980  145.8320 C   0  0  0  0  0  2  0  0  0  0  0  0
  189.5620  174.7310  142.0410 N   0  0  0  0  0  0  0  0  0  0  0  0
  187.4670  175.8950  141.9150 C   0  0  0  0  0  0  0  0  0  0  0  0
  188.3260  174.4800  140.0170 N   0  0  0  0  0  2  0  0  0  0  0  0
  189.0020  176.4920  145.2650 N   0  0  0  0  0  0  0  0  0  0  0  0
  185.5540  179.8550  144.5220 C   0  0  0  0  0  2  0  0  0  0  0  0
  189.7890  175.2780  143.3520 C   0  0  0  0  0  0  0  0  0  0  0  0
  191.0400  175.1510  143.9580 C   0  0  0  0  0  3  0  0  0  0  0  0
  186.7610  176.7110  141.1270 C   0  0  0  0  0  3  0  0  0  0  0  0
  185.8260  177.9820  142.9450 C   0  0  0  0  0  0  0  0  0  0  0  0
  185.1430  179.1270  143.3670 O   0  0  0  0  0  0  0  0  0  0  0  0
  190.8720  173.8480  135.7770 C   0  0  1  0  0  3  0  0  0  0  0  0
  189.9760  172.2010  137.4100 C   0  0  0  0  0  2  0  0  0  0  0  0
  187.7080  175.1280  137.1680 N   0  0  0  0  0  2  0  0  0  0  0  0
  192.0890  174.6390  135.3470 C   0  0  0  0  0  1  0  0  0  0  0  0
  191.2300  172.9320  136.9400 C   0  0  0  0  0  2  0  0  0  0  0  0
  188.7390  174.3620  137.0250 C   0  0  0  0  0  0  0  0  0  0  0  0
  188.9210  173.1800  137.9380 C   0  0  2  0  0  3  0  0  0  0  0  0
  189.7980  174.7640  136.1520 N   0  0  0  0  0  2  0  0  0  0  0  0
  1 11  1  0  0  0  0
  2 15  1  6  0  0  0
  2  3  1  0  0  0  0
  2  7  1  0  0  0  0
  3  9  2  0  0  0  0
  5  4  2  0  0  0  0
  5 16  1  0  0  0  0
  6 13  1  0  0  0  0
  7 17  2  0  0  0  0
  8  1  2  0  0  0  0
  9  6  1  0  0  0  0
 10 15  1  0  0  0  0
 10 14  2  0  0  0  0
 12 22  2  0  0  0  0
 14 19  1  0  0  0  0
 16 10  1  0  0  0  0
 17  1  1  0  0  0  0
 18 13  1  0  0  0  0
 19 20  2  0  0  0  0
 19  7  1  0  0  0  0
 20  8  1  0  0  0  0
 21 12  1  0  0  0  0
 21 15  2  0  0  0  0
 22 23  1  0  0  0  0
 22  3  1  0  0  0  0
 23 18  1  0  0  0  0
 24 27  1  1  0  0  0
 24 31  1  0  0  0  0
 24 28  1  0  0  0  0
 25 30  1  0  0  0  0
 28 25  1  0  0  0  0
 29 26  2  0  0  0  0
 29 30  1  0  0  0  0
 30  5  1  1  0  0  0
 31 29  1  0  0  0  0
M  END
>  <MODEL>
3

>  <REMARK>
 VINA RESULT:      -8.3      3.409      5.869
  Name = 
  1 active torsions:
  status: ('A' for Active; 'I' for Inactive)
    1  A    between atoms: C_9  and  C_22
                            x       y       z     vdW  Elec       q    Type
                         _______ _______ _______ _____ _____    ______ ____

>  <TORSDO>
F 1

$$$$
=
 OpenBabel11052417533D

 31 35  0  0  1  0  0  0  0  0999 V2000
  191.0490  172.6860  140.5710 C   0  0  0  0  0  0  0  0  0  0  0  0
  190.5220  175.1300  143.3820 C   0  0  2  0  0  3  0  0  0  0  0  0
  191.9010  175.1580  143.9900 C   0  0  0  0  0  0  0  0  0  0  0  0
  185.9450  177.0320  141.3950 O   0  0  0  0  0  0  0  0  0  0  0  0
  186.3720  177.8270  142.2760 C   0  0  0  0  0  0  0  0  0  0  0  0
  193.6070  173.9350  145.3560 C   0  0  0  0  0  2  0  0  0  0  0  0
  190.3760  174.4030  142.0700 C   0  0  0  0  0  0  0  0  0  0  0  0
  189.9280  172.9130  139.7690 C   0  0  0  0  0  3  0  0  0  0  0  0
  192.3950  174.0140  144.4790 C   0  0  0  0  0  3  0  0  0  0  0  0
  188.5610  176.5570  142.6050 C   0  0  0  0  0  0  0  0  0  0  0  0
  192.0250  171.6290  140.1990 C   0  0  0  0  0  1  0  0  0  0  0  0
  191.8140  177.5590  144.2280 N   0  0  0  0  0  0  0  0  0  0  0  0
  194.8910  174.3270  144.6350 C   0  0  0  0  0  2  0  0  0  0  0  0
  188.3070  175.6960  141.6570 N   0  0  0  0  0  0  0  0  0  0  0  0
  189.8490  176.4780  143.3210 C   0  0  0  0  0  0  0  0  0  0  0  0
  187.6440  177.6210  142.8990 N   0  0  0  0  0  2  0  0  0  0  0  0
  191.2420  173.4180  141.7010 N   0  0  0  0  0  0  0  0  0  0  0  0
  194.8570  175.7250  144.0160 C   0  0  0  0  0  2  0  0  0  0  0  0
  189.2290  174.6550  141.2890 C   0  0  0  0  0  0  0  0  0  0  0  0
  189.0140  173.9030  140.1340 C   0  0  0  0  0  3  0  0  0  0  0  0
  190.4600  177.5850  143.7540 C   0  0  0  0  0  3  0  0  0  0  0  0
  192.5260  176.4730  144.2910 C   0  0  0  0  0  0  0  0  0  0  0  0
  193.8830  176.5780  144.6130 O   0  0  0  0  0  0  0  0  0  0  0  0
  184.4930  179.0680  145.4900 C   0  0  1  0  0  3  0  0  0  0  0  0
  186.2140  179.7700  143.8390 C   0  0  0  0  0  2  0  0  0  0  0  0
  183.3410  178.1930  142.1020 N   0  0  0  0  0  2  0  0  0  0  0  0
  184.2400  178.3230  146.7840 C   0  0  0  0  0  1  0  0  0  0  0  0
  185.9850  179.0830  145.1830 C   0  0  0  0  0  2  0  0  0  0  0  0
  184.1360  178.5930  143.0380 C   0  0  0  0  0  0  0  0  0  0  0  0
  185.5430  179.0030  142.6950 C   0  0  2  0  0  3  0  0  0  0  0  0
  183.7470  178.4380  144.4060 N   0  0  0  0  0  2  0  0  0  0  0  0
  1 17  1  0  0  0  0
  2  7  1  6  0  0  0
  2  3  1  0  0  0  0
  3 22  1  0  0  0  0
  3  9  2  0  0  0  0
  4  5  2  0  0  0  0
  5 16  1  0  0  0  0
  8 20  1  0  0  0  0
  8  1  2  0  0  0  0
  9  6  1  0  0  0  0
 10 16  1  0  0  0  0
 10 15  1  0  0  0  0
 11  1  1  0  0  0  0
 12 22  2  0  0  0  0
 13  6  1  0  0  0  0
 14 10  2  0  0  0  0
 15  2  1  0  0  0  0
 15 21  2  0  0  0  0
 17  7  2  0  0  0  0
 18 23  1  0  0  0  0
 18 13  1  0  0  0  0
 19 14  1  0  0  0  0
 19  7  1  0  0  0  0
 20 19  2  0  0  0  0
 21 12  1  0  0  0  0
 22 23  1  0  0  0  0
 24 27  1  1  0  0  0
 25 28  1  0  0  0  0
 26 29  2  0  0  0  0
 28 24  1  0  0  0  0
 29 31  1  0  0  0  0
 30  5  1  1  0  0  0
 30 29  1  0  0  0  0
 30 25  1  0  0  0  0
 31 24  1  0  0  0  0
M  END
>  <MODEL>
4

>  <REMARK>
 VINA RESULT:      -8.2      2.461      8.021
  Name = 
  1 active torsions:
  status: ('A' for Active; 'I' for Inactive)
    1  A    between atoms: C_9  and  C_22
                            x       y       z     vdW  Elec       q    Type
                         _______ _______ _______ _____ _____    ______ ____

>  <TORSDO>
F 1

$$$$
=
 OpenBabel11052417533D

 31 35  0  0  1  0  0  0  0  0999 V2000
  194.8790  175.4950  144.8570 C   0  0  0  0  0  0  0  0  0  0  0  0
  191.4730  175.2360  143.2810 C   0  0  2  0  0  3  0  0  0  0  0  0
  191.7440  174.2270  142.1940 C   0  0  0  0  0  0  0  0  0  0  0  0
  188.9590  177.5260  147.3980 O   0  0  0  0  0  0  0  0  0  0  0  0
  188.1090  176.9450  146.6700 C   0  0  0  0  0  0  0  0  0  0  0  0
  192.8190  173.7840  139.9760 C   0  0  0  0  0  2  0  0  0  0  0  0
  192.5710  175.4560  144.2880 C   0  0  0  0  0  0  0  0  0  0  0  0
  194.5920  176.1140  146.0760 C   0  0  0  0  0  3  0  0  0  0  0  0
  192.6470  174.5400  141.2580 C   0  0  0  0  0  3  0  0  0  0  0  0
  189.8730  175.9060  145.1450 C   0  0  0  0  0  0  0  0  0  0  0  0
  196.2860  175.1800  144.4980 C   0  0  0  0  0  1  0  0  0  0  0  0
  189.6800  173.0690  142.6680 N   0  0  0  0  0  0  0  0  0  0  0  0
  193.3420  172.3680  140.1850 C   0  0  0  0  0  2  0  0  0  0  0  0
  190.8750  176.3660  145.8430 N   0  0  0  0  0  0  0  0  0  0  0  0
  190.1450  175.0530  143.9720 C   0  0  0  0  0  0  0  0  0  0  0  0
  188.5180  176.1520  145.5500 N   0  0  0  0  0  2  0  0  0  0  0  0
  193.8740  175.1940  143.9900 N   0  0  0  0  0  0  0  0  0  0  0  0
  192.4790  171.5140  141.1140 C   0  0  0  0  0  2  0  0  0  0  0  0
  192.2460  176.0880  145.5060 C   0  0  0  0  0  0  0  0  0  0  0  0
  193.2680  176.4130  146.3990 C   0  0  0  0  0  3  0  0  0  0  0  0
  189.3160  174.0570  143.6430 C   0  0  0  0  0  3  0  0  0  0  0  0
  190.8120  173.0800  142.0300 C   0  0  0  0  0  0  0  0  0  0  0  0
  191.1380  171.9860  141.2220 O   0  0  0  0  0  0  0  0  0  0  0  0
  184.9970  178.7710  145.1260 C   0  0  1  0  0  3  0  0  0  0  0  0
  185.8000  176.5210  145.8140 C   0  0  0  0  0  2  0  0  0  0  0  0
  186.6910  179.0410  148.3870 N   0  0  0  0  0  2  0  0  0  0  0  0
  184.9580  179.7910  144.0080 C   0  0  0  0  0  1  0  0  0  0  0  0
  185.7020  177.5070  144.6530 C   0  0  0  0  0  2  0  0  0  0  0  0
  186.2810  178.5100  147.2820 C   0  0  0  0  0  0  0  0  0  0  0  0
  186.6460  177.0860  146.9600 C   0  0  2  0  0  3  0  0  0  0  0  0
  185.6760  179.3390  146.2860 N   0  0  0  0  0  2  0  0  0  0  0  0
  1  8  1  0  0  0  0
  2  3  1  1  0  0  0
  2 15  1  0  0  0  0
  2  7  1  0  0  0  0
  5  4  2  0  0  0  0
  6 13  1  0  0  0  0
  6  9  1  0  0  0  0
  7 19  2  0  0  0  0
  8 20  2  0  0  0  0
  9  3  2  0  0  0  0
 10 16  1  0  0  0  0
 10 14  2  0  0  0  0
 11  1  1  0  0  0  0
 12 21  1  0  0  0  0
 13 18  1  0  0  0  0
 15 10  1  0  0  0  0
 16  5  1  0  0  0  0
 17  7  1  0  0  0  0
 17  1  2  0  0  0  0
 18 23  1  0  0  0  0
 19 14  1  0  0  0  0
 19 20  1  0  0  0  0
 21 15  2  0  0  0  0
 22  3  1  0  0  0  0
 22 12  2  0  0  0  0
 23 22  1  0  0  0  0
 24 27  1  6  0  0  0
 24 31  1  0  0  0  0
 25 30  1  0  0  0  0
 28 24  1  0  0  0  0
 28 25  1  0  0  0  0
 29 26  2  0  0  0  0
 30  5  1  6  0  0  0
 30 29  1  0  0  0  0
 31 29  1  0  0  0  0
M  END
>  <MODEL>
5

>  <REMARK>
 VINA RESULT:      -8.2      2.417      8.519
  Name = 
  1 active torsions:
  status: ('A' for Active; 'I' for Inactive)
    1  A    between atoms: C_9  and  C_22
                            x       y       z     vdW  Elec       q    Type
                         _______ _______ _______ _____ _____    ______ ____

>  <TORSDO>
F 1

$$$$
=
 OpenBabel11052417533D

 31 35  0  0  1  0  0  0  0  0999 V2000
  192.3220  169.5920  142.4760 C   0  0  0  0  0  0  0  0  0  0  0  0
  193.1480  172.3090  144.9420 C   0  0  2  0  0  3  0  0  0  0  0  0
  194.6180  172.0530  145.1590 C   0  0  0  0  0  0  0  0  0  0  0  0
  188.6960  175.0930  143.9640 O   0  0  0  0  0  0  0  0  0  0  0  0
  189.5150  175.8300  144.5790 C   0  0  0  0  0  0  0  0  0  0  0  0
  196.3490  170.5690  146.1940 C   0  0  0  0  0  2  0  0  0  0  0  0
  192.4830  171.5360  143.8330 C   0  0  0  0  0  0  0  0  0  0  0  0
  191.0910  170.0180  141.9700 C   0  0  0  0  0  3  0  0  0  0  0  0
  194.9800  170.8670  145.6620 C   0  0  0  0  0  3  0  0  0  0  0  0
  191.3900  174.1000  144.5050 C   0  0  0  0  0  0  0  0  0  0  0  0
  192.9060  168.3040  142.0180 C   0  0  0  0  0  1  0  0  0  0  0  0
  195.1070  174.4140  145.0610 N   0  0  0  0  0  0  0  0  0  0  0  0
  197.4240  170.5800  145.1140 C   0  0  0  0  0  2  0  0  0  0  0  0
  190.7010  173.2520  143.7920 N   0  0  0  0  0  0  0  0  0  0  0  0
  192.7830  173.7710  144.8650 C   0  0  0  0  0  0  0  0  0  0  0  0
  190.8400  175.3740  144.8720 N   0  0  0  0  0  2  0  0  0  0  0  0
  192.9800  170.3440  143.3980 N   0  0  0  0  0  0  0  0  0  0  0  0
  197.5070  171.8900  144.3300 C   0  0  0  0  0  2  0  0  0  0  0  0
  191.2390  171.9930  143.3510 C   0  0  0  0  0  0  0  0  0  0  0  0
  190.5480  171.2240  142.4130 C   0  0  0  0  0  3  0  0  0  0  0  0
  193.7100  174.7290  144.9580 C   0  0  0  0  0  3  0  0  0  0  0  0
  195.5640  173.1980  145.0920 C   0  0  0  0  0  0  0  0  0  0  0  0
  196.9460  172.9980  145.0310 O   0  0  0  0  0  0  0  0  0  0  0  0
  186.3580  177.5660  146.1360 C   0  0  1  0  0  3  0  0  0  0  0  0
  188.7890  177.2200  146.5240 C   0  0  0  0  0  2  0  0  0  0  0  0
  188.1670  178.0480  142.9620 N   0  0  0  0  0  2  0  0  0  0  0  0
  184.9710  176.9960  146.3420 C   0  0  0  0  0  1  0  0  0  0  0  0
  187.3930  176.6730  146.8070 C   0  0  0  0  0  2  0  0  0  0  0  0
  187.9670  177.7340  144.1990 C   0  0  0  0  0  0  0  0  0  0  0  0
  189.1070  177.2010  145.0250 C   0  0  2  0  0  3  0  0  0  0  0  0
  186.6310  177.6910  144.7080 N   0  0  0  0  0  2  0  0  0  0  0  0
  1 17  1  0  0  0  0
  2  7  1  6  0  0  0
  2  3  1  0  0  0  0
  3  9  2  0  0  0  0
  4  5  2  0  0  0  0
  5 16  1  0  0  0  0
  8 20  1  0  0  0  0
  8  1  2  0  0  0  0
  9  6  1  0  0  0  0
 10 15  1  0  0  0  0
 10 16  1  0  0  0  0
 11  1  1  0  0  0  0
 12 22  2  0  0  0  0
 13  6  1  0  0  0  0
 14 10  2  0  0  0  0
 15  2  1  0  0  0  0
 15 21  2  0  0  0  0
 17  7  2  0  0  0  0
 18 23  1  0  0  0  0
 18 13  1  0  0  0  0
 19 14  1  0  0  0  0
 19  7  1  0  0  0  0
 20 19  2  0  0  0  0
 21 12  1  0  0  0  0
 22  3  1  0  0  0  0
 23 22  1  0  0  0  0
 24 27  1  6  0  0  0
 24 28  1  0  0  0  0
 25 28  1  0  0  0  0
 26 29  2  0  0  0  0
 29 31  1  0  0  0  0
 29 30  1  0  0  0  0
 30  5  1  6  0  0  0
 30 25  1  0  0  0  0
 31 24  1  0  0  0  0
M  END
>  <MODEL>
6

>  <REMARK>
 VINA RESULT:      -8.0      3.128      8.918
  Name = 
  1 active torsions:
  status: ('A' for Active; 'I' for Inactive)
    1  A    between atoms: C_9  and  C_22
                            x       y       z     vdW  Elec       q    Type
                         _______ _______ _______ _____ _____    ______ ____

>  <TORSDO>
F 1

$$$$
=
 OpenBabel11052417533D

 31 35  0  0  1  0  0  0  0  0999 V2000
  186.1200  178.5440  143.6590 C   0  0  0  0  0  0  0  0  0  0  0  0
  188.9760  176.1850  143.0020 C   0  0  2  0  0  3  0  0  0  0  0  0
  189.4500  175.9210  144.4080 C   0  0  0  0  0  0  0  0  0  0  0  0
  187.4430  175.0930  138.0040 O   0  0  0  0  0  0  0  0  0  0  0  0
  188.2820  174.2270  138.3750 C   0  0  0  0  0  0  0  0  0  0  0  0
  190.6410  176.8260  146.4160 C   0  0  0  0  0  2  0  0  0  0  0  0
  187.6820  176.9430  142.8550 C   0  0  0  0  0  0  0  0  0  0  0  0
  185.4300  178.5150  142.4440 C   0  0  0  0  0  3  0  0  0  0  0  0
  189.8850  176.9610  145.1290 C   0  0  0  0  0  3  0  0  0  0  0  0
  188.3950  175.1130  140.7660 C   0  0  0  0  0  0  0  0  0  0  0  0
  185.6520  179.4290  144.7560 C   0  0  0  0  0  1  0  0  0  0  0  0
  189.7020  173.5650  143.9470 N   0  0  0  0  0  0  0  0  0  0  0  0
  189.8020  176.2360  147.5420 C   0  0  0  0  0  2  0  0  0  0  0  0
  187.4740  176.0160  140.5700 N   0  0  0  0  0  0  0  0  0  0  0  0
  188.9850  174.9680  142.1110 C   0  0  0  0  0  0  0  0  0  0  0  0
  188.7800  174.2120  139.7170 N   0  0  0  0  0  2  0  0  0  0  0  0
  187.2290  177.7750  143.8330 N   0  0  0  0  0  0  0  0  0  0  0  0
  189.1940  174.8710  147.2180 C   0  0  0  0  0  2  0  0  0  0  0  0
  187.0160  176.8950  141.6130 C   0  0  0  0  0  0  0  0  0  0  0  0
  185.8840  177.6870  141.4170 C   0  0  0  0  0  3  0  0  0  0  0  0
  189.3600  173.7690  142.5680 C   0  0  0  0  0  3  0  0  0  0  0  0
  189.6930  174.5170  144.8320 C   0  0  0  0  0  0  0  0  0  0  0  0
  189.8850  174.1840  146.1770 O   0  0  0  0  0  0  0  0  0  0  0  0
  191.6720  172.4530  137.5050 C   0  0  1  0  0  3  0  0  0  0  0  0
  189.3180  171.9660  138.1400 C   0  0  0  0  0  2  0  0  0  0  0  0
  189.4250  174.6380  135.5680 N   0  0  0  0  0  2  0  0  0  0  0  0
  193.0620  172.7640  138.0190 C   0  0  0  0  0  1  0  0  0  0  0  0
  190.7290  172.2020  138.6730 C   0  0  0  0  0  2  0  0  0  0  0  0
  189.7980  173.7810  136.4600 C   0  0  0  0  0  0  0  0  0  0  0  0
  188.7820  173.2000  137.4060 C   0  0  2  0  0  3  0  0  0  0  0  0
  191.1940  173.5580  136.6810 N   0  0  0  0  0  2  0  0  0  0  0  0
  1 17  1  0  0  0  0
  1 11  1  0  0  0  0
  2 15  1  1  0  0  0
  2  3  1  0  0  0  0
  3 22  1  0  0  0  0
  3  9  2  0  0  0  0
  4  5  2  0  0  0  0
  5 16  1  0  0  0  0
  6 13  1  0  0  0  0
  7  2  1  0  0  0  0
  7 17  2  0  0  0  0
  8  1  2  0  0  0  0
  9  6  1  0  0  0  0
 10 15  1  0  0  0  0
 12 22  2  0  0  0  0
 14 10  2  0  0  0  0
 14 19  1  0  0  0  0
 15 21  2  0  0  0  0
 16 10  1  0  0  0  0
 18 13  1  0  0  0  0
 19  7  1  0  0  0  0
 20 19  2  0  0  0  0
 20  8  1  0  0  0  0
 21 12  1  0  0  0  0
 22 23  1  0  0  0  0
 23 18  1  0  0  0  0
 24 27  1  1  0  0  0
 24 28  1  0  0  0  0
 25 28  1  0  0  0  0
 26 29  2  0  0  0  0
 29 31  1  0  0  0  0
 29 30  1  0  0  0  0
 30 25  1  0  0  0  0
 30  5  1  1  0  0  0
 31 24  1  0  0  0  0
M  END
>  <MODEL>
7

>  <REMARK>
 VINA RESULT:      -8.0      3.595      5.538
  Name = 
  1 active torsions:
  status: ('A' for Active; 'I' for Inactive)
    1  A    between atoms: C_9  and  C_22
                            x       y       z     vdW  Elec       q    Type
                         _______ _______ _______ _____ _____    ______ ____

>  <TORSDO>
F 1

$$$$
=
 OpenBabel11052417533D

 31 35  0  0  1  0  0  0  0  0999 V2000
  191.2220  176.9600  147.6470 C   0  0  0  0  0  0  0  0  0  0  0  0
  188.9310  175.5160  145.0360 C   0  0  2  0  0  3  0  0  0  0  0  0
  187.7310  176.4160  145.1890 C   0  0  0  0  0  0  0  0  0  0  0  0
  192.8140  172.8150  142.5560 O   0  0  0  0  0  0  0  0  0  0  0  0
  191.8080  172.8780  141.7980 C   0  0  0  0  0  0  0  0  0  0  0  0
  185.7560  177.0430  146.5950 C   0  0  0  0  0  2  0  0  0  0  0  0
  190.1750  175.9140  145.7870 C   0  0  0  0  0  0  0  0  0  0  0  0
  192.4580  176.4150  147.2880 C   0  0  0  0  0  3  0  0  0  0  0  0
  187.1060  176.4330  146.3720 C   0  0  0  0  0  3  0  0  0  0  0  0
  190.5070  174.4160  143.3660 C   0  0  0  0  0  0  0  0  0  0  0  0
  191.1150  177.8220  148.8530 C   0  0  0  0  0  1  0  0  0  0  0  0
  187.4780  176.5880  142.7950 N   0  0  0  0  0  0  0  0  0  0  0  0
  185.7520  178.5580  146.4300 C   0  0  0  0  0  2  0  0  0  0  0  0
  191.4900  174.5240  144.2180 N   0  0  0  0  0  0  0  0  0  0  0  0
  189.2610  175.1680  143.6060 C   0  0  0  0  0  0  0  0  0  0  0  0
  190.6550  173.6430  142.1660 N   0  0  0  0  0  2  0  0  0  0  0  0
  190.1140  176.6900  146.9050 N   0  0  0  0  0  0  0  0  0  0  0  0
  186.2580  179.0390  145.0690 C   0  0  0  0  0  2  0  0  0  0  0  0
  191.4030  175.3400  145.4000 C   0  0  0  0  0  0  0  0  0  0  0  0
  192.5450  175.5990  146.1590 C   0  0  0  0  0  3  0  0  0  0  0  0
  188.5470  175.6530  142.5860 C   0  0  0  0  0  3  0  0  0  0  0  0
  187.1180  177.0080  143.9710 C   0  0  0  0  0  0  0  0  0  0  0  0
  186.1760  178.0380  144.0570 O   0  0  0  0  0  0  0  0  0  0  0  0
  189.6240  172.7430  138.5390 C   0  0  1  0  0  3  0  0  0  0  0  0
  191.9590  173.1010  139.3140 C   0  0  0  0  0  2  0  0  0  0  0  0
  190.4410  170.2310  141.1080 N   0  0  0  0  0  2  0  0  0  0  0  0
  188.2880  173.4010  138.2690 C   0  0  0  0  0  1  0  0  0  0  0  0
  190.6410  173.7910  138.9720 C   0  0  0  0  0  2  0  0  0  0  0  0
  190.5750  171.2740  140.3580 C   0  0  0  0  0  0  0  0  0  0  0  0
  191.7990  172.1380  140.4950 C   0  0  2  0  0  3  0  0  0  0  0  0
  189.4690  171.7170  139.5660 N   0  0  0  0  0  2  0  0  0  0  0  0
  1 11  1  0  0  0  0
  2 15  1  6  0  0  0
  2  3  1  0  0  0  0
  2  7  1  0  0  0  0
  3  9  2  0  0  0  0
  5 16  1  0  0  0  0
  5  4  2  0  0  0  0
  7 17  1  0  0  0  0
  8  1  1  0  0  0  0
  9  6  1  0  0  0  0
 10 15  1  0  0  0  0
 10 14  2  0  0  0  0
 12 22  2  0  0  0  0
 13  6  1  0  0  0  0
 14 19  1  0  0  0  0
 16 10  1  0  0  0  0
 17  1  2  0  0  0  0
 18 13  1  0  0  0  0
 19  7  2  0  0  0  0
 19 20  1  0  0  0  0
 20  8  2  0  0  0  0
 21 12  1  0  0  0  0
 21 15  2  0  0  0  0
 22 23  1  0  0  0  0
 22  3  1  0  0  0  0
 23 18  1  0  0  0  0
 24 27  1  1  0  0  0
 24 28  1  0  0  0  0
 24 31  1  0  0  0  0
 25 30  1  0  0  0  0
 28 25  1  0  0  0  0
 29 30  1  0  0  0  0
 29 26  2  0  0  0  0
 30  5  1  1  0  0  0
 31 29  1  0  0  0  0
M  END
>  <MODEL>
8

>  <REMARK>
 VINA RESULT:      -7.9      2.897      5.427
  Name = 
  1 active torsions:
  status: ('A' for Active; 'I' for Inactive)
    1  A    between atoms: C_9  and  C_22
                            x       y       z     vdW  Elec       q    Type
                         _______ _______ _______ _____ _____    ______ ____

>  <TORSDO>
F 1

$$$$
=
 OpenBabel11052417533D

 31 35  0  0  1  0  0  0  0  0999 V2000
  190.1890  172.1660  139.0980 C   0  0  0  0  0  0  0  0  0  0  0  0
  189.7100  173.8670  142.4180 C   0  0  2  0  0  3  0  0  0  0  0  0
  190.9600  173.4300  143.1400 C   0  0  0  0  0  0  0  0  0  0  0  0
  185.9360  177.1890  140.6170 O   0  0  0  0  0  0  0  0  0  0  0  0
  186.3660  177.6170  141.7230 C   0  0  0  0  0  0  0  0  0  0  0  0
  192.1730  171.5500  144.2630 C   0  0  0  0  0  2  0  0  0  0  0  0
  189.6320  173.5500  140.9470 C   0  0  0  0  0  0  0  0  0  0  0  0
  189.2670  172.8350  138.2880 C   0  0  0  0  0  3  0  0  0  0  0  0
  191.1470  172.1190  143.3320 C   0  0  0  0  0  3  0  0  0  0  0  0
  188.1980  175.8470  141.8890 C   0  0  0  0  0  0  0  0  0  0  0  0
  190.9920  171.0470  138.5380 C   0  0  0  0  0  1  0  0  0  0  0  0
  191.2940  175.6470  144.0330 N   0  0  0  0  0  0  0  0  0  0  0  0
  193.6030  171.8140  143.8080 C   0  0  0  0  0  2  0  0  0  0  0  0
  187.9340  175.3350  140.7190 N   0  0  0  0  0  0  0  0  0  0  0  0
  189.3220  175.3020  142.6750 C   0  0  0  0  0  0  0  0  0  0  0  0
  187.4650  176.9790  142.3820 N   0  0  0  0  0  2  0  0  0  0  0  0
  190.3410  172.5230  140.4010 N   0  0  0  0  0  0  0  0  0  0  0  0
  193.9300  173.2940  143.6070 C   0  0  0  0  0  2  0  0  0  0  0  0
  188.6870  174.2430  140.1620 C   0  0  0  0  0  0  0  0  0  0  0  0
  188.5130  173.8780  138.8270 C   0  0  0  0  0  3  0  0  0  0  0  0
  190.0580  176.0960  143.4580 C   0  0  0  0  0  3  0  0  0  0  0  0
  191.7690  174.4500  143.8570 C   0  0  0  0  0  0  0  0  0  0  0  0
  193.0550  174.1630  144.3240 O   0  0  0  0  0  0  0  0  0  0  0  0
  184.9890  178.6030  145.2630 C   0  0  1  0  0  3  0  0  0  0  0  0
  186.5910  179.3450  143.5130 C   0  0  0  0  0  2  0  0  0  0  0  0
  183.3920  178.2900  141.9560 N   0  0  0  0  0  2  0  0  0  0  0  0
  184.7940  177.7230  146.4800 C   0  0  0  0  0  1  0  0  0  0  0  0
  186.4310  178.5150  144.7830 C   0  0  0  0  0  2  0  0  0  0  0  0
  184.3220  178.4880  142.8320 C   0  0  0  0  0  0  0  0  0  0  0  0
  185.7210  178.8020  142.3740 C   0  0  2  0  0  3  0  0  0  0  0  0
  184.0660  178.1940  144.2080 N   0  0  0  0  0  2  0  0  0  0  0  0
  1 17  1  0  0  0  0
  2  7  1  6  0  0  0
  2 15  1  0  0  0  0
  2  3  1  0  0  0  0
  3  9  2  0  0  0  0
  3 22  1  0  0  0  0
  4  5  2  0  0  0  0
  5 16  1  0  0  0  0
  8 20  1  0  0  0  0
  8  1  2  0  0  0  0
  9  6  1  0  0  0  0
 10 16  1  0  0  0  0
 10 15  1  0  0  0  0
 11  1  1  0  0  0  0
 13  6  1  0  0  0  0
 14 10  2  0  0  0  0
 15 21  2  0  0  0  0
 17  7  2  0  0  0  0
 18 13  1  0  0  0  0
 18 23  1  0  0  0  0
 19 14  1  0  0  0  0
 19  7  1  0  0  0  0
 20 19  2  0  0  0  0
 21 12  1  0  0  0  0
 22 12  2  0  0  0  0
 22 23  1  0  0  0  0
 24 27  1  1  0  0  0
 25 28  1  0  0  0  0
 26 29  2  0  0  0  0
 28 24  1  0  0  0  0
 29 31  1  0  0  0  0
 30  5  1  1  0  0  0
 30 29  1  0  0  0  0
 30 25  1  0  0  0  0
 31 24  1  0  0  0  0
M  END
>  <MODEL>
9

>  <REMARK>
 VINA RESULT:      -7.5      2.901      8.004
  Name = 
  1 active torsions:
  status: ('A' for Active; 'I' for Inactive)
    1  A    between atoms: C_9  and  C_22
                            x       y       z     vdW  Elec       q    Type
                         _______ _______ _______ _____ _____    ______ ____

>  <TORSDO>
F 1

$$$$
