=
 OpenBabel11052417373D

 25 28  0  0  1  0  0  0  0  0999 V2000
  185.8580  177.8900  143.5980 C   0  0  0  0  0  0  0  0  0  0  0  0
  186.6880  177.7120  144.7230 C   0  0  0  0  0  0  0  0  0  0  0  0
  183.9930  178.6670  144.9170 C   0  0  0  0  0  3  0  0  0  0  0  0
  186.0680  177.7020  142.2470 C   0  0  0  0  0  0  0  0  0  0  0  0
  189.1270  177.0750  145.2550 C   0  0  0  0  0  0  0  0  0  0  0  0
  185.8640  177.5410  139.4890 C   0  0  0  0  0  3  0  0  0  0  0  0
  184.7780  178.4980  146.0620 C   0  0  0  0  0  3  0  0  0  0  0  0
  184.8910  178.0520  141.6200 C   0  0  0  0  0  0  0  0  0  0  0  0
  184.7570  177.9820  140.2350 C   0  0  0  0  0  2  0  0  0  0  0  0
  186.8310  177.9460  147.3360 C   0  0  1  0  0  3  0  0  0  0  0  0
  185.9410  177.6700  148.3790 O   0  0  0  0  0  1  0  0  0  0  0  0
  188.0600  177.2020  144.4550 C   0  0  0  0  0  3  0  0  0  0  0  0
  187.0670  177.1840  140.1330 C   0  0  0  0  0  3  0  0  0  0  0  0
  184.5580  178.3490  143.6940 C   0  0  0  0  0  0  0  0  0  0  0  0
  183.9450  178.4560  142.4930 N   0  0  0  0  0  0  0  0  0  0  0  0
  187.9590  176.9480  147.4000 C   0  0  0  0  0  2  0  0  0  0  0  0
  187.1810  177.2640  141.5310 C   0  0  0  0  0  3  0  0  0  0  0  0
  189.1300  177.5390  146.6650 C   0  0  0  0  0  2  0  0  0  0  0  0
  186.1060  178.0060  146.0050 C   0  0  0  0  0  0  0  0  0  0  0  0
  192.0450  174.8220  144.1630 N   0  0  0  0  0  0  0  0  0  0  0  0
  192.5500  173.4610  144.2460 C   0  0  0  0  0  1  0  0  0  0  0  0
  192.7890  175.7890  143.3740 C   0  0  0  0  0  1  0  0  0  0  0  0
  190.3630  176.5520  144.7470 N   0  0  0  0  0  2  0  0  0  0  0  0
  190.2130  174.3460  145.5240 O   0  0  0  0  0  0  0  0  0  0  0  0
  190.8390  175.1990  144.8380 C   0  0  0  0  0  0  0  0  0  0  0  0
  1 14  1  0  0  0  0
  1  2  2  0  0  0  0
  2 19  1  0  0  0  0
  3  7  1  0  0  0  0
  4  1  1  0  0  0  0
  5 18  1  0  0  0  0
  6 13  2  0  0  0  0
  6  9  1  0  0  0  0
  8  4  1  0  0  0  0
  8 15  2  0  0  0  0
  9  8  1  0  0  0  0
 10 16  1  0  0  0  0
 10 11  1  1  0  0  0
 12  2  1  0  0  0  0
 12  5  2  0  0  0  0
 13 17  1  0  0  0  0
 14  3  2  0  0  0  0
 15 14  1  0  0  0  0
 17  4  2  0  0  0  0
 18 16  1  0  0  0  0
 19  7  2  0  0  0  0
 19 10  1  0  0  0  0
 20 21  1  0  0  0  0
 20 25  1  0  0  0  0
 22 20  1  0  0  0  0
 23 25  1  0  0  0  0
 23  5  1  0  0  0  0
 25 24  2  0  0  0  0
M  END
>  <MODEL>
1

>  <REMARK>
 VINA RESULT:      -8.0      0.000      0.000
  Name = 
  1 active torsions:
  status: ('A' for Active; 'I' for Inactive)
    1  A    between atoms: C_6  and  N_15
                            x       y       z     vdW  Elec       q    Type
                         _______ _______ _______ _____ _____    ______ ____

>  <TORSDO>
F 1

$$$$
=
 OpenBabel11052417373D

 25 28  0  0  1  0  0  0  0  0999 V2000
  186.8460  176.8090  144.0160 C   0  0  0  0  0  0  0  0  0  0  0  0
  187.9750  176.1180  144.4990 C   0  0  0  0  0  0  0  0  0  0  0  0
  185.9250  177.1380  146.2210 C   0  0  0  0  0  3  0  0  0  0  0  0
  186.4500  177.1700  142.7450 C   0  0  0  0  0  0  0  0  0  0  0  0
  190.1700  175.1120  143.5970 C   0  0  0  0  0  0  0  0  0  0  0  0
  185.1400  178.1660  140.5150 C   0  0  0  0  0  3  0  0  0  0  0  0
  187.0240  176.4510  146.7440 C   0  0  0  0  0  3  0  0  0  0  0  0
  185.2560  177.8450  142.8880 C   0  0  0  0  0  0  0  0  0  0  0  0
  184.5730  178.3580  141.7870 C   0  0  0  0  0  2  0  0  0  0  0  0
  189.1930  175.2530  146.6610 C   0  0  1  0  0  3  0  0  0  0  0  0
  188.7480  174.6540  147.8440 O   0  0  0  0  0  1  0  0  0  0  0  0
  188.9460  175.6450  143.4750 C   0  0  0  0  0  3  0  0  0  0  0  0
  186.3620  177.4750  140.3700 C   0  0  0  0  0  3  0  0  0  0  0  0
  185.8580  177.2990  144.8480 C   0  0  0  0  0  0  0  0  0  0  0  0
  184.8720  177.9380  144.1780 N   0  0  0  0  0  0  0  0  0  0  0  0
  189.9520  174.2230  145.8650 C   0  0  0  0  0  2  0  0  0  0  0  0
  187.0350  176.9680  141.4950 C   0  0  0  0  0  3  0  0  0  0  0  0
  190.8490  174.9590  144.9080 C   0  0  0  0  0  2  0  0  0  0  0  0
  188.0440  175.9120  145.9210 C   0  0  0  0  0  0  0  0  0  0  0  0
  192.8690  174.6640  140.8960 N   0  0  0  0  0  0  0  0  0  0  0  0
  194.1610  175.1650  140.4570 C   0  0  0  0  0  1  0  0  0  0  0  0
  192.2710  173.5600  140.1650 C   0  0  0  0  0  1  0  0  0  0  0  0
  190.9220  174.7370  142.4340 N   0  0  0  0  0  2  0  0  0  0  0  0
  192.7350  176.2070  142.6390 O   0  0  0  0  0  0  0  0  0  0  0  0
  192.2030  175.2430  142.0240 C   0  0  0  0  0  0  0  0  0  0  0  0
  1  2  2  0  0  0  0
  1 14  1  0  0  0  0
  2 19  1  0  0  0  0
  3  7  1  0  0  0  0
  4  8  1  0  0  0  0
  4  1  1  0  0  0  0
  5 18  1  0  0  0  0
  6  9  1  0  0  0  0
  8 15  2  0  0  0  0
  9  8  1  0  0  0  0
 10 11  1  1  0  0  0
 12  5  2  0  0  0  0
 12  2  1  0  0  0  0
 13  6  2  0  0  0  0
 13 17  1  0  0  0  0
 14  3  2  0  0  0  0
 15 14  1  0  0  0  0
 16 10  1  0  0  0  0
 17  4  2  0  0  0  0
 18 16  1  0  0  0  0
 19 10  1  0  0  0  0
 19  7  2  0  0  0  0
 20 25  1  0  0  0  0
 21 20  1  0  0  0  0
 22 20  1  0  0  0  0
 23  5  1  0  0  0  0
 25 23  1  0  0  0  0
 25 24  2  0  0  0  0
M  END
>  <MODEL>
2

>  <REMARK>
 VINA RESULT:      -7.7      1.996      2.832
  Name = 
  1 active torsions:
  status: ('A' for Active; 'I' for Inactive)
    1  A    between atoms: C_6  and  N_15
                            x       y       z     vdW  Elec       q    Type
                         _______ _______ _______ _____ _____    ______ ____

>  <TORSDO>
F 1

$$$$
=
 OpenBabel11052417373D

 25 28  0  0  1  0  0  0  0  0999 V2000
  186.9580  176.7770  143.9190 C   0  0  0  0  0  0  0  0  0  0  0  0
  188.0480  175.9980  144.3520 C   0  0  0  0  0  0  0  0  0  0  0  0
  186.2180  177.2500  146.1660 C   0  0  0  0  0  3  0  0  0  0  0  0
  186.5120  177.1380  142.6640 C   0  0  0  0  0  0  0  0  0  0  0  0
  190.0780  174.7680  143.3460 C   0  0  0  0  0  0  0  0  0  0  0  0
  185.1530  178.1900  140.4900 C   0  0  0  0  0  3  0  0  0  0  0  0
  187.2830  176.4780  146.6410 C   0  0  0  0  0  3  0  0  0  0  0  0
  185.3970  177.9250  142.8600 C   0  0  0  0  0  0  0  0  0  0  0  0
  184.6920  178.4690  141.7890 C   0  0  0  0  0  2  0  0  0  0  0  0
  189.3230  175.0830  146.4590 C   0  0  1  0  0  3  0  0  0  0  0  0
  188.9060  174.5600  147.6870 O   0  0  0  0  0  1  0  0  0  0  0  0
  188.9030  175.4080  143.2840 C   0  0  0  0  0  3  0  0  0  0  0  0
  186.2950  177.3860  140.2910 C   0  0  0  0  0  3  0  0  0  0  0  0
  186.0750  177.3790  144.7950 C   0  0  0  0  0  0  0  0  0  0  0  0
  185.1090  178.0890  144.1690 N   0  0  0  0  0  0  0  0  0  0  0  0
  189.9310  173.9650  145.6520 C   0  0  0  0  0  2  0  0  0  0  0  0
  186.9920  176.8490  141.3870 C   0  0  0  0  0  3  0  0  0  0  0  0
  190.8250  174.5880  144.6150 C   0  0  0  0  0  2  0  0  0  0  0  0
  188.1930  175.8250  145.7730 C   0  0  0  0  0  0  0  0  0  0  0  0
  191.0920  172.8090  140.1970 N   0  0  0  0  0  0  0  0  0  0  0  0
  190.8430  171.5730  139.4730 C   0  0  0  0  0  1  0  0  0  0  0  0
  192.0070  173.7770  139.6180 C   0  0  0  0  0  1  0  0  0  0  0  0
  190.7140  174.2930  142.1510 N   0  0  0  0  0  2  0  0  0  0  0  0
  189.6620  172.2100  141.9390 O   0  0  0  0  0  0  0  0  0  0  0  0
  190.4460  173.0680  141.4500 C   0  0  0  0  0  0  0  0  0  0  0  0
  1  2  2  0  0  0  0
  1 14  1  0  0  0  0
  2 19  1  0  0  0  0
  3  7  1  0  0  0  0
  4  8  1  0  0  0  0
  4  1  1  0  0  0  0
  5 18  1  0  0  0  0
  6  9  1  0  0  0  0
  8 15  2  0  0  0  0
  9  8  1  0  0  0  0
 10 11  1  1  0  0  0
 12  5  2  0  0  0  0
 12  2  1  0  0  0  0
 13  6  2  0  0  0  0
 13 17  1  0  0  0  0
 14  3  2  0  0  0  0
 15 14  1  0  0  0  0
 16 10  1  0  0  0  0
 17  4  2  0  0  0  0
 18 16  1  0  0  0  0
 19 10  1  0  0  0  0
 19  7  2  0  0  0  0
 20 25  1  0  0  0  0
 21 20  1  0  0  0  0
 22 20  1  0  0  0  0
 23  5  1  0  0  0  0
 25 24  2  0  0  0  0
 25 23  1  0  0  0  0
M  END
>  <MODEL>
3

>  <REMARK>
 VINA RESULT:      -7.7      2.394      3.150
  Name = 
  1 active torsions:
  status: ('A' for Active; 'I' for Inactive)
    1  A    between atoms: C_6  and  N_15
                            x       y       z     vdW  Elec       q    Type
                         _______ _______ _______ _____ _____    ______ ____

>  <TORSDO>
F 1

$$$$
=
 OpenBabel11052417373D

 25 28  0  0  1  0  0  0  0  0999 V2000
  186.9380  177.2270  144.7960 C   0  0  0  0  0  0  0  0  0  0  0  0
  188.0730  176.4290  144.5530 C   0  0  0  0  0  0  0  0  0  0  0  0
  187.5530  177.6600  147.0880 C   0  0  0  0  0  3  0  0  0  0  0  0
  185.8860  177.6180  143.9920 C   0  0  1  0  0  3  0  0  0  0  0  0
  189.2020  175.2030  142.5880 C   0  0  0  0  0  0  0  0  0  0  0  0
  183.5810  178.7260  142.9260 C   0  0  0  0  0  3  0  0  0  0  0  0
  188.6900  176.8690  146.8950 C   0  0  0  0  0  3  0  0  0  0  0  0
  185.0740  178.4100  144.7750 C   0  0  0  0  0  0  0  0  0  0  0  0
  183.9090  178.9810  144.2690 C   0  0  0  0  0  3  0  0  0  0  0  0
  190.2750  175.4600  145.6120 C   0  0  1  0  0  3  0  0  0  0  0  0
  190.5850  174.9160  146.8620 O   0  0  0  0  0  1  0  0  0  0  0  0
  188.1950  175.8540  143.1850 C   0  0  0  0  0  3  0  0  0  0  0  0
  184.4140  177.9160  142.1260 C   0  0  0  0  0  3  0  0  0  0  0  0
  186.6880  177.8180  146.0190 C   0  0  0  0  0  0  0  0  0  0  0  0
  185.5500  178.5490  146.0300 N   0  0  0  0  0  0  0  0  0  0  0  0
  190.3220  174.3540  144.5890 C   0  0  0  0  0  2  0  0  0  0  0  0
  185.5860  177.3510  142.6570 C   0  0  0  0  0  3  0  0  0  0  0  0
  190.5180  174.9900  143.2410 C   0  0  0  0  0  2  0  0  0  0  0  0
  188.9660  176.2260  145.6630 C   0  0  0  0  0  0  0  0  0  0  0  0
  188.8690  173.1040  139.3830 N   0  0  0  0  0  0  0  0  0  0  0  0
  188.9410  171.7430  138.8790 C   0  0  0  0  0  1  0  0  0  0  0  0
  188.5070  174.1660  138.4590 C   0  0  0  0  0  1  0  0  0  0  0  0
  189.0740  174.7470  141.2330 N   0  0  0  0  0  2  0  0  0  0  0  0
  189.4650  172.4570  141.5430 O   0  0  0  0  0  0  0  0  0  0  0  0
  189.1440  173.3920  140.7600 C   0  0  0  0  0  0  0  0  0  0  0  0
  1 14  1  0  0  0  0
  2  1  2  0  0  0  0
  2 19  1  0  0  0  0
  4 17  1  6  0  0  0
  4  8  1  0  0  0  0
  4  1  1  0  0  0  0
  5 12  2  0  0  0  0
  5 18  1  0  0  0  0
  6  9  2  0  0  0  0
  7  3  1  0  0  0  0
  8 15  2  0  0  0  0
  9  8  1  0  0  0  0
 10 19  1  0  0  0  0
 10 11  1  1  0  0  0
 12  2  1  0  0  0  0
 13 17  2  0  0  0  0
 13  6  1  0  0  0  0
 14 15  1  0  0  0  0
 14  3  2  0  0  0  0
 16 10  1  0  0  0  0
 18 16  1  0  0  0  0
 19  7  2  0  0  0  0
 20 25  1  0  0  0  0
 21 20  1  0  0  0  0
 22 20  1  0  0  0  0
 23  5  1  0  0  0  0
 25 23  1  0  0  0  0
 25 24  2  0  0  0  0
M  END
>  <MODEL>
4

>  <REMARK>
 VINA RESULT:      -7.5      2.701      4.187
  Name = 
  1 active torsions:
  status: ('A' for Active; 'I' for Inactive)
    1  A    between atoms: C_6  and  N_15
                            x       y       z     vdW  Elec       q    Type
                         _______ _______ _______ _____ _____    ______ ____

>  <TORSDO>
F 1

$$$$
=
 OpenBabel11052417373D

 25 28  0  0  1  0  0  0  0  0999 V2000
  189.6880  176.4430  145.5060 C   0  0  0  0  0  0  0  0  0  0  0  0
  188.7300  176.2230  144.4970 C   0  0  0  0  0  0  0  0  0  0  0  0
  188.1120  177.5410  146.9640 C   0  0  0  0  0  3  0  0  0  0  0  0
  191.0260  176.1200  145.6060 C   0  0  0  0  0  0  0  0  0  0  0  0
  188.5480  175.0360  142.2170 C   0  0  0  0  0  0  0  0  0  0  0  0
  193.6560  175.7580  146.4020 C   0  0  0  0  0  3  0  0  0  0  0  0
  187.1300  177.3520  145.9870 C   0  0  0  0  0  3  0  0  0  0  0  0
  191.4460  176.5810  146.8350 C   0  0  0  0  0  0  0  0  0  0  0  0
  192.7610  176.4150  147.2650 C   0  0  0  0  0  3  0  0  0  0  0  0
  186.2090  176.5470  143.8310 C   0  0  1  0  0  3  0  0  0  0  0  0
  185.2970  177.5950  143.9900 O   0  0  0  0  0  1  0  0  0  0  0  0
  189.2120  175.5310  143.2700 C   0  0  0  0  0  3  0  0  0  0  0  0
  193.2240  175.2860  145.1440 C   0  0  0  0  0  3  0  0  0  0  0  0
  189.3890  177.0800  146.6950 C   0  0  1  0  0  3  0  0  0  0  0  0
  190.4510  177.1770  147.5260 N   0  0  0  0  0  0  0  0  0  0  0  0
  186.5430  176.4280  142.3660 C   0  0  0  0  0  2  0  0  0  0  0  0
  191.8920  175.4630  144.7320 C   0  0  0  0  0  3  0  0  0  0  0  0
  187.0660  175.0380  142.1310 C   0  0  0  0  0  2  0  0  0  0  0  0
  187.4060  176.7260  144.7460 C   0  0  0  0  0  0  0  0  0  0  0  0
  190.1610  172.5110  139.8070 N   0  0  0  0  0  0  0  0  0  0  0  0
  190.4770  171.1010  139.6500 C   0  0  0  0  0  1  0  0  0  0  0  0
  190.4710  173.4160  138.7130 C   0  0  0  0  0  1  0  0  0  0  0  0
  189.2540  174.3960  141.1440 N   0  0  0  0  0  2  0  0  0  0  0  0
  189.2980  172.1960  141.9500 O   0  0  0  0  0  0  0  0  0  0  0  0
  189.5510  172.9970  141.0090 C   0  0  0  0  0  0  0  0  0  0  0  0
  1  4  2  0  0  0  0
  1 14  1  0  0  0  0
  2 19  2  0  0  0  0
  2  1  1  0  0  0  0
  4  8  1  0  0  0  0
  5 12  2  0  0  0  0
  6  9  2  0  0  0  0
  7  3  2  0  0  0  0
  8  9  1  0  0  0  0
  8 15  2  0  0  0  0
 10 11  1  6  0  0  0
 10 19  1  0  0  0  0
 12  2  1  0  0  0  0
 13  6  1  0  0  0  0
 14  3  1  1  0  0  0
 14 15  1  0  0  0  0
 16 10  1  0  0  0  0
 17 13  2  0  0  0  0
 17  4  1  0  0  0  0
 18  5  1  0  0  0  0
 18 16  1  0  0  0  0
 19  7  1  0  0  0  0
 20 25  1  0  0  0  0
 21 20  1  0  0  0  0
 22 20  1  0  0  0  0
 23  5  1  0  0  0  0
 25 23  1  0  0  0  0
 25 24  2  0  0  0  0
M  END
>  <MODEL>
5

>  <REMARK>
 VINA RESULT:      -7.1      3.032      5.889
  Name = 
  1 active torsions:
  status: ('A' for Active; 'I' for Inactive)
    1  A    between atoms: C_6  and  N_15
                            x       y       z     vdW  Elec       q    Type
                         _______ _______ _______ _____ _____    ______ ____

>  <TORSDO>
F 1

$$$$
=
 OpenBabel11052417373D

 25 28  0  0  1  0  0  0  0  0999 V2000
  190.3760  176.2330  145.1810 C   0  0  0  0  0  0  0  0  0  0  0  0
  189.1260  176.3660  144.5440 C   0  0  0  0  0  0  0  0  0  0  0  0
  189.6110  177.2790  147.2160 C   0  0  0  0  0  3  0  0  0  0  0  0
  191.5740  175.6820  144.7750 C   0  0  1  0  0  3  0  0  0  0  0  0
  187.9880  175.6740  142.3380 C   0  0  0  0  0  0  0  0  0  0  0  0
  194.1770  174.7530  144.5680 C   0  0  0  0  0  3  0  0  0  0  0  0
  188.3560  177.4400  146.6200 C   0  0  0  0  0  3  0  0  0  0  0  0
  192.4460  175.8300  145.8320 C   0  0  0  0  0  0  0  0  0  0  0  0
  193.7610  175.3740  145.7600 C   0  0  0  0  0  3  0  0  0  0  0  0
  186.6560  177.2150  144.8300 C   0  0  1  0  0  3  0  0  0  0  0  0
  186.0890  178.3490  145.4200 O   0  0  0  0  0  1  0  0  0  0  0  0
  189.0380  175.8470  143.1510 C   0  0  0  0  0  3  0  0  0  0  0  0
  193.2820  174.6030  143.4880 C   0  0  0  0  0  3  0  0  0  0  0  0
  190.6080  176.6750  146.4690 C   0  0  0  0  0  0  0  0  0  0  0  0
  191.8710  176.4390  146.8900 N   0  0  0  0  0  0  0  0  0  0  0  0
  186.4810  177.3210  143.3370 C   0  0  0  0  0  2  0  0  0  0  0  0
  191.9590  175.0690  143.5840 C   0  0  0  0  0  3  0  0  0  0  0  0
  186.5910  175.9330  142.7680 C   0  0  0  0  0  2  0  0  0  0  0  0
  188.0880  177.0220  145.2920 C   0  0  0  0  0  0  0  0  0  0  0  0
  188.5560  173.4040  139.2870 N   0  0  0  0  0  0  0  0  0  0  0  0
  188.9410  172.0550  138.9040 C   0  0  0  0  0  1  0  0  0  0  0  0
  188.1800  174.3390  138.2410 C   0  0  0  0  0  1  0  0  0  0  0  0
  188.1670  175.1400  141.0180 N   0  0  0  0  0  2  0  0  0  0  0  0
  188.8830  172.9750  141.5550 O   0  0  0  0  0  0  0  0  0  0  0  0
  188.5440  173.8000  140.6640 C   0  0  0  0  0  0  0  0  0  0  0  0
  1 14  1  0  0  0  0
  2  1  2  0  0  0  0
  2 19  1  0  0  0  0
  4 17  1  1  0  0  0
  4  1  1  0  0  0  0
  4  8  1  0  0  0  0
  5 18  1  0  0  0  0
  5 12  2  0  0  0  0
  6  9  2  0  0  0  0
  7  3  1  0  0  0  0
  8 15  2  0  0  0  0
  9  8  1  0  0  0  0
 10 19  1  0  0  0  0
 10 11  1  1  0  0  0
 12  2  1  0  0  0  0
 13 17  2  0  0  0  0
 13  6  1  0  0  0  0
 14 15  1  0  0  0  0
 14  3  2  0  0  0  0
 16 10  1  0  0  0  0
 18 16  1  0  0  0  0
 19  7  2  0  0  0  0
 20 25  1  0  0  0  0
 21 20  1  0  0  0  0
 22 20  1  0  0  0  0
 23  5  1  0  0  0  0
 25 23  1  0  0  0  0
 25 24  2  0  0  0  0
M  END
>  <MODEL>
6

>  <REMARK>
 VINA RESULT:      -7.0      2.768      6.088
  Name = 
  1 active torsions:
  status: ('A' for Active; 'I' for Inactive)
    1  A    between atoms: C_6  and  N_15
                            x       y       z     vdW  Elec       q    Type
                         _______ _______ _______ _____ _____    ______ ____

>  <TORSDO>
F 1

$$$$
=
 OpenBabel11052417373D

 25 28  0  0  1  0  0  0  0  0999 V2000
  187.4060  176.7750  144.6770 C   0  0  0  0  0  0  0  0  0  0  0  0
  188.4200  175.9060  144.2290 C   0  0  0  0  0  0  0  0  0  0  0  0
  188.4000  177.0450  146.8580 C   0  0  0  0  0  3  0  0  0  0  0  0
  186.2790  177.2840  144.0640 C   0  0  1  0  0  3  0  0  0  0  0  0
  189.1270  174.6970  142.0650 C   0  0  0  0  0  0  0  0  0  0  0  0
  183.9370  178.6160  143.4160 C   0  0  0  0  0  3  0  0  0  0  0  0
  189.4240  176.1800  146.4580 C   0  0  0  0  0  3  0  0  0  0  0  0
  185.6660  178.0960  144.9940 C   0  0  0  0  0  0  0  0  0  0  0  0
  184.4880  178.7780  144.7000 C   0  0  0  0  0  3  0  0  0  0  0  0
  190.6700  174.7210  144.8900 C   0  0  1  0  0  3  0  0  0  0  0  0
  191.1230  174.0920  146.0540 O   0  0  0  0  0  1  0  0  0  0  0  0
  188.2820  175.3930  142.8380 C   0  0  0  0  0  3  0  0  0  0  0  0
  184.5670  177.7860  142.4650 C   0  0  0  0  0  3  0  0  0  0  0  0
  187.3970  177.3210  145.9450 C   0  0  0  0  0  0  0  0  0  0  0  0
  186.3390  178.1350  146.1630 N   0  0  0  0  0  0  0  0  0  0  0  0
  190.4680  173.6670  143.8320 C   0  0  0  0  0  2  0  0  0  0  0  0
  185.7560  177.1070  142.7840 C   0  0  0  0  0  3  0  0  0  0  0  0
  190.5060  174.3530  142.4940 C   0  0  0  0  0  2  0  0  0  0  0  0
  189.4540  175.5800  145.1750 C   0  0  0  0  0  0  0  0  0  0  0  0
  187.8670  174.6250  138.4330 N   0  0  0  0  0  0  0  0  0  0  0  0
  187.1490  175.4100  137.4420 C   0  0  0  0  0  1  0  0  0  0  0  0
  188.4020  173.3340  138.0380 C   0  0  0  0  0  1  0  0  0  0  0  0
  188.7550  174.3210  140.7320 N   0  0  0  0  0  2  0  0  0  0  0  0
  187.5680  176.2370  140.0920 O   0  0  0  0  0  0  0  0  0  0  0  0
  188.0480  175.1170  139.7670 C   0  0  0  0  0  0  0  0  0  0  0  0
  1 14  1  0  0  0  0
  2  1  2  0  0  0  0
  2 19  1  0  0  0  0
  4 17  1  6  0  0  0
  4  1  1  0  0  0  0
  4  8  1  0  0  0  0
  5 18  1  0  0  0  0
  5 12  2  0  0  0  0
  6  9  2  0  0  0  0
  7  3  1  0  0  0  0
  8 15  2  0  0  0  0
  9  8  1  0  0  0  0
 10 19  1  0  0  0  0
 10 11  1  1  0  0  0
 12  2  1  0  0  0  0
 13 17  2  0  0  0  0
 13  6  1  0  0  0  0
 14 15  1  0  0  0  0
 14  3  2  0  0  0  0
 16 10  1  0  0  0  0
 18 16  1  0  0  0  0
 19  7  2  0  0  0  0
 20 25  1  0  0  0  0
 21 20  1  0  0  0  0
 22 20  1  0  0  0  0
 23  5  1  0  0  0  0
 25 24  2  0  0  0  0
 25 23  1  0  0  0  0
M  END
>  <MODEL>
7

>  <REMARK>
 VINA RESULT:      -7.0      2.878      5.002
  Name = 
  1 active torsions:
  status: ('A' for Active; 'I' for Inactive)
    1  A    between atoms: C_6  and  N_15
                            x       y       z     vdW  Elec       q    Type
                         _______ _______ _______ _____ _____    ______ ____

>  <TORSDO>
F 1

$$$$
=
 OpenBabel11052417373D

 25 28  0  0  1  0  0  0  0  0999 V2000
  188.4590  176.7760  145.3140 C   0  0  0  0  0  0  0  0  0  0  0  0
  189.5000  176.0540  144.6960 C   0  0  0  0  0  0  0  0  0  0  0  0
  189.7010  177.1030  147.3550 C   0  0  0  0  0  3  0  0  0  0  0  0
  187.2060  177.1580  144.8790 C   0  0  1  0  0  3  0  0  0  0  0  0
  190.0460  175.0090  142.4050 C   0  0  0  0  0  0  0  0  0  0  0  0
  184.6550  178.2060  144.6060 C   0  0  0  0  0  3  0  0  0  0  0  0
  190.7580  176.3850  146.7850 C   0  0  0  0  0  3  0  0  0  0  0  0
  186.6320  177.8590  145.9180 C   0  0  0  0  0  0  0  0  0  0  0  0
  185.3520  178.3970  145.8130 C   0  0  0  0  0  3  0  0  0  0  0  0
  191.9450  175.1410  145.0010 C   0  0  1  0  0  3  0  0  0  0  0  0
  192.6240  174.5390  146.0650 O   0  0  0  0  0  1  0  0  0  0  0  0
  189.2370  175.5700  143.3140 C   0  0  0  0  0  3  0  0  0  0  0  0
  185.2450  177.4900  143.5440 C   0  0  0  0  0  3  0  0  0  0  0  0
  188.5570  177.2790  146.5960 C   0  0  0  0  0  0  0  0  0  0  0  0
  187.4490  177.9470  146.9890 N   0  0  0  0  0  0  0  0  0  0  0  0
  191.7280  174.1020  143.9310 C   0  0  0  0  0  2  0  0  0  0  0  0
  186.5390  176.9560  143.6710 C   0  0  0  0  0  3  0  0  0  0  0  0
  191.5010  174.8270  142.6330 C   0  0  0  0  0  2  0  0  0  0  0  0
  190.6840  175.8320  145.4830 C   0  0  0  0  0  0  0  0  0  0  0  0
  188.9150  173.0950  139.2680 N   0  0  0  0  0  0  0  0  0  0  0  0
  188.9410  171.7840  138.6400 C   0  0  0  0  0  1  0  0  0  0  0  0
  188.1970  174.1670  138.6010 C   0  0  0  0  0  1  0  0  0  0  0  0
  189.5430  174.6290  141.1160 N   0  0  0  0  0  2  0  0  0  0  0  0
  190.2020  172.3800  141.0770 O   0  0  0  0  0  0  0  0  0  0  0  0
  189.5770  173.3230  140.5180 C   0  0  0  0  0  0  0  0  0  0  0  0
  1 14  1  0  0  0  0
  2  1  2  0  0  0  0
  2 19  1  0  0  0  0
  4 17  1  6  0  0  0
  4  1  1  0  0  0  0
  4  8  1  0  0  0  0
  5 18  1  0  0  0  0
  5 12  2  0  0  0  0
  6  9  2  0  0  0  0
  7  3  1  0  0  0  0
  8 15  2  0  0  0  0
  9  8  1  0  0  0  0
 10 19  1  0  0  0  0
 10 11  1  1  0  0  0
 12  2  1  0  0  0  0
 13 17  2  0  0  0  0
 13  6  1  0  0  0  0
 14 15  1  0  0  0  0
 14  3  2  0  0  0  0
 16 10  1  0  0  0  0
 18 16  1  0  0  0  0
 19  7  2  0  0  0  0
 20 25  1  0  0  0  0
 21 20  1  0  0  0  0
 22 20  1  0  0  0  0
 23  5  1  0  0  0  0
 25 24  2  0  0  0  0
 25 23  1  0  0  0  0
M  END
>  <MODEL>
8

>  <REMARK>
 VINA RESULT:      -6.9      2.800      5.194
  Name = 
  1 active torsions:
  status: ('A' for Active; 'I' for Inactive)
    1  A    between atoms: C_6  and  N_15
                            x       y       z     vdW  Elec       q    Type
                         _______ _______ _______ _____ _____    ______ ____

>  <TORSDO>
F 1

$$$$
=
 OpenBabel11052417373D

 25 28  0  0  1  0  0  0  0  0999 V2000
  190.8500  176.1260  145.2340 C   0  0  0  0  0  0  0  0  0  0  0  0
  189.7420  175.9690  144.3780 C   0  0  0  0  0  0  0  0  0  0  0  0
  189.5670  177.2800  146.9200 C   0  0  0  0  0  3  0  0  0  0  0  0
  192.1690  175.7340  145.1300 C   0  0  0  0  0  0  0  0  0  0  0  0
  189.1600  174.8250  142.1430 C   0  0  0  0  0  0  0  0  0  0  0  0
  194.8660  175.2300  145.5210 C   0  0  0  0  0  3  0  0  0  0  0  0
  188.4420  177.1540  146.0990 C   0  0  0  0  0  3  0  0  0  0  0  0
  192.7900  176.1560  146.2860 C   0  0  0  0  0  0  0  0  0  0  0  0
  194.1440  175.9180  146.5130 C   0  0  0  0  0  3  0  0  0  0  0  0
  187.1700  176.4280  144.1000 C   0  0  1  0  0  3  0  0  0  0  0  0
  186.3460  177.5180  144.4000 O   0  0  0  0  0  1  0  0  0  0  0  0
  189.9990  175.2710  143.0880 C   0  0  0  0  0  3  0  0  0  0  0  0
  194.2270  174.7980  144.3390 C   0  0  0  0  0  3  0  0  0  0  0  0
  190.7640  176.7600  146.4590 C   0  0  1  0  0  3  0  0  0  0  0  0
  191.9420  176.7910  147.1220 N   0  0  0  0  0  0  0  0  0  0  0  0
  187.2750  176.3130  142.6010 C   0  0  0  0  0  2  0  0  0  0  0  0
  192.8600  175.0470  144.1330 C   0  0  0  0  0  3  0  0  0  0  0  0
  187.6850  174.9030  142.2810 C   0  0  0  0  0  2  0  0  0  0  0  0
  188.4970  176.5330  144.8260 C   0  0  0  0  0  0  0  0  0  0  0  0
  190.2460  172.2590  139.4940 N   0  0  0  0  0  0  0  0  0  0  0  0
  190.4420  170.8350  139.2740 C   0  0  0  0  0  1  0  0  0  0  0  0
  190.4610  173.1670  138.3800 C   0  0  0  0  0  1  0  0  0  0  0  0
  189.6650  174.1660  140.9730 N   0  0  0  0  0  2  0  0  0  0  0  0
  189.6720  171.9500  141.7330 O   0  0  0  0  0  0  0  0  0  0  0  0
  189.8450  172.7540  140.7770 C   0  0  0  0  0  0  0  0  0  0  0  0
  1 14  1  0  0  0  0
  2 19  2  0  0  0  0
  2  1  1  0  0  0  0
  4  1  2  0  0  0  0
  4  8  1  0  0  0  0
  5 18  1  0  0  0  0
  5 12  2  0  0  0  0
  6  9  2  0  0  0  0
  7  3  2  0  0  0  0
  8  9  1  0  0  0  0
  8 15  2  0  0  0  0
 10 11  1  6  0  0  0
 10 19  1  0  0  0  0
 12  2  1  0  0  0  0
 13  6  1  0  0  0  0
 14  3  1  1  0  0  0
 14 15  1  0  0  0  0
 16 10  1  0  0  0  0
 17 13  2  0  0  0  0
 17  4  1  0  0  0  0
 18 16  1  0  0  0  0
 19  7  1  0  0  0  0
 20 25  1  0  0  0  0
 21 20  1  0  0  0  0
 22 20  1  0  0  0  0
 23  5  1  0  0  0  0
 25 23  1  0  0  0  0
 25 24  2  0  0  0  0
M  END
>  <MODEL>
9

>  <REMARK>
 VINA RESULT:      -6.7      3.140      6.407
  Name = 
  1 active torsions:
  status: ('A' for Active; 'I' for Inactive)
    1  A    between atoms: C_6  and  N_15
                            x       y       z     vdW  Elec       q    Type
                         _______ _______ _______ _____ _____    ______ ____

>  <TORSDO>
F 1

$$$$
