=
 OpenBabel11052420543D

 43 49  0  0  1  0  0  0  0  0999 V2000
  190.8860  175.1350  147.4830 C   0  0  0  0  0  3  0  0  0  0  0  0
  191.8500  174.8370  146.3740 C   0  0  1  0  0  3  0  0  0  0  0  0
  189.6040  175.3960  147.2010 C   0  0  0  0  0  3  0  0  0  0  0  0
  191.1640  173.8810  145.3920 C   0  0  0  0  0  2  0  0  0  0  0  0
  189.8280  174.4300  144.8270 C   0  0  1  0  0  3  0  0  0  0  0  0
  189.1340  175.4480  145.7720 C   0  0  0  0  0  2  0  0  0  0  0  0
  192.2460  176.0710  145.7070 N   0  0  0  0  0  2  0  0  0  0  0  0
  194.3280  176.7020  144.8610 O   0  0  0  0  0  0  0  0  0  0  0  0
  194.5570  175.4680  145.4970 C   0  0  1  0  0  3  0  0  0  0  0  0
  193.3020  175.7440  144.7650 C   0  0  1  0  0  3  0  0  0  0  0  0
  195.4690  174.6110  144.6340 C   0  0  2  0  0  3  0  0  0  0  0  0
  195.5150  173.2100  145.1610 C   0  0  0  0  0  0  0  0  0  0  0  0
  194.4230  171.1110  145.7010 C   0  0  0  0  0  3  0  0  0  0  0  0
  196.8140  171.3450  146.0060 C   0  0  0  0  0  3  0  0  0  0  0  0
  195.6530  170.5700  146.0880 C   0  0  0  0  0  3  0  0  0  0  0  0
  196.7440  172.6610  145.5400 C   0  0  0  0  0  3  0  0  0  0  0  0
  194.3530  172.4270  145.2350 C   0  0  0  0  0  3  0  0  0  0  0  0
  196.7580  175.1660  144.6020 O   0  0  0  0  0  0  0  0  0  0  0  0
  196.9610  175.6570  143.3030 C   0  0  1  0  0  0  0  0  0  0  0  0
  196.0780  175.0770  142.2840 N   0  0  0  0  0  2  0  0  0  0  0  0
  197.2300  177.0150  143.1170 O   0  0  0  0  0  1  0  0  0  0  0  0
  197.5180  174.7360  142.3310 C   0  0  0  0  0  2  0  0  0  0  0  0
  190.0220  175.0150  143.4870 N   0  0  0  0  0  0  0  0  0  0  0  0
  186.8990  177.5950  141.4780 S   0  0  1  0  0  0  0  0  0  0  0  0
  189.3990  177.0700  142.3130 N   0  0  0  0  0  0  0  0  0  0  0  0
  186.4940  176.1850  142.5130 C   0  0  0  0  0  2  0  0  0  0  0  0
  185.8750  178.6430  141.8920 O   0  0  0  0  0  0  0  0  0  0  0  0
  188.9290  175.9650  143.1780 C   0  0  1  0  0  3  0  0  0  0  0  0
  188.4100  178.1500  142.2830 C   0  0  0  0  0  2  0  0  0  0  0  0
  187.6930  175.2580  142.5790 C   0  0  0  0  0  2  0  0  0  0  0  0
  190.5020  178.4520  144.0920 C   0  0  0  0  0  1  0  0  0  0  0  0
  190.6630  177.6430  142.8040 C   0  0  0  0  0  2  0  0  0  0  0  0
  190.0650  173.9530  142.4750 C   0  0  0  0  0  2  0  0  0  0  0  0
  191.3610  172.9860  140.5870 C   0  0  0  0  0  2  0  0  0  0  0  0
  191.3760  174.0240  141.7050 C   0  0  2  0  0  3  0  0  0  0  0  0
  192.5150  170.4710  142.6590 C   0  0  0  0  0  3  0  0  0  0  0  0
  193.7750  170.3850  141.8190 C   0  0  1  0  0  3  0  0  0  0  0  0
  193.6740  172.8560  141.5610 C   0  0  0  0  0  3  0  0  0  0  0  0
  191.7500  171.5740  142.6410 C   0  0  0  0  0  3  0  0  0  0  0  0
  192.2010  172.7510  141.8200 C   0  0  2  0  0  0  0  0  0  0  0  0
  194.4150  171.7370  141.5920 C   0  0  0  0  0  3  0  0  0  0  0  0
  196.1680  170.0460  142.4440 C   0  0  0  0  0  1  0  0  0  0  0  0
  194.7820  169.4290  142.4340 C   0  0  0  0  0  2  0  0  0  0  0  0
  2  7  1  6  0  0  0
  2  1  1  0  0  0  0
  3  1  2  0  0  0  0
  4  2  1  0  0  0  0
  5 23  1  6  0  0  0
  5  4  1  0  0  0  0
  5  6  1  0  0  0  0
  6  3  1  0  0  0  0
  8  9  1  0  0  0  0
  9 11  1  6  0  0  0
 10  8  1  0  0  0  0
 10  9  1  0  0  0  0
 10  7  1  1  0  0  0
 11 18  1  1  0  0  0
 11 12  1  0  0  0  0
 12 17  2  0  0  0  0
 12 16  1  0  0  0  0
 13 15  2  0  0  0  0
 14 15  1  0  0  0  0
 16 14  2  0  0  0  0
 17 13  1  0  0  0  0
 19 21  1  6  0  0  0
 19 18  1  0  0  0  0
 20 22  1  0  0  0  0
 20 19  1  0  0  0  0
 22 19  1  0  0  0  0
 24 27  2  1  0  0  0
 24 29  1  0  0  0  0
 24 26  1  0  0  0  0
 25 32  1  0  0  0  0
 25 28  1  0  0  0  0
 26 30  1  0  0  0  0
 28 23  1  6  0  0  0
 29 25  1  0  0  0  0
 30 28  1  0  0  0  0
 32 31  1  0  0  0  0
 33 23  1  0  0  0  0
 34 35  1  0  0  0  0
 35 40  1  0  0  0  0
 35 33  1  1  0  0  0
 37 43  1  1  0  0  0
 37 36  1  0  0  0  0
 38 41  2  0  0  0  0
 38 40  1  0  0  0  0
 39 36  2  0  0  0  0
 40 34  1  6  0  0  0
 40 39  1  0  0  0  0
 41 37  1  0  0  0  0
 43 42  1  0  0  0  0
M  END
>  <MODEL>
1

>  <REMARK>
 VINA RESULT:      -6.5      0.000      0.000
  Name = 
  12 active torsions:
  status: ('A' for Active; 'I' for Inactive)
    1  A    between atoms: C_4  and  C_14
    2  A    between atoms: C_6  and  N_17
    3  A    between atoms: C_8  and  C_34
    4  A    between atoms: C_10  and  O_41
    5  A    between atoms: C_11  and  C_14
    6  A    between atoms: C_12  and  N_17
    7  A    between atoms: C_14  and  O_41
    8  A    between atoms: N_16  and  C_43
    9  A    between atoms: C_19  and  C_37
   10  A    between atoms: C_21  and  N_30
   11  A    between atoms: C_27  and  N_30
   12  A    between atoms: N_30  and  C_34
                            x       y       z     vdW  Elec       q    Type
                         _______ _______ _______ _____ _____    ______ ____

>  <TORSDO>
F 12

$$$$
=
 OpenBabel11052420543D

 43 49  0  0  1  0  0  0  0  0999 V2000
  191.1450  176.7980  146.4320 C   0  0  0  0  0  3  0  0  0  0  0  0
  191.4620  176.8170  144.9670 C   0  0  1  0  0  3  0  0  0  0  0  0
  191.8100  175.9720  147.2480 C   0  0  0  0  0  3  0  0  0  0  0  0
  192.9860  176.7900  144.8080 C   0  0  0  0  0  2  0  0  0  0  0  0
  193.6570  175.5750  145.5010 C   0  0  1  0  0  3  0  0  0  0  0  0
  192.8350  175.0180  146.6960 C   0  0  0  0  0  2  0  0  0  0  0  0
  190.8500  175.6700  144.3060 N   0  0  0  0  0  2  0  0  0  0  0  0
  188.9450  175.0940  143.0880 O   0  0  0  0  0  0  0  0  0  0  0  0
  188.4700  175.9070  144.1330 C   0  0  1  0  0  3  0  0  0  0  0  0
  189.7680  176.1670  143.4740 C   0  0  1  0  0  3  0  0  0  0  0  0
  187.4270  176.8730  143.5940 C   0  0  2  0  0  3  0  0  0  0  0  0
  186.6010  177.4230  144.7160 C   0  0  0  0  0  0  0  0  0  0  0  0
  185.4950  177.1620  146.8610 C   0  0  0  0  0  3  0  0  0  0  0  0
  185.4780  179.3100  145.7430 C   0  0  0  0  0  3  0  0  0  0  0  0
  185.1130  178.5070  146.8270 C   0  0  0  0  0  3  0  0  0  0  0  0
  186.2230  178.7690  144.6920 C   0  0  0  0  0  3  0  0  0  0  0  0
  186.2410  176.6210  145.8090 C   0  0  0  0  0  3  0  0  0  0  0  0
  186.6100  176.2210  142.6570 O   0  0  0  0  0  0  0  0  0  0  0  0
  186.4280  177.1090  141.5850 C   0  0  1  0  0  0  0  0  0  0  0  0
  187.1170  176.7260  140.3470 N   0  0  0  0  0  2  0  0  0  0  0  0
  185.1750  177.6920  141.3820 O   0  0  0  0  0  1  0  0  0  0  0  0
  187.5850  177.8730  141.1590 C   0  0  0  0  0  2  0  0  0  0  0  0
  193.9460  174.5050  144.5270 N   0  0  0  0  0  0  0  0  0  0  0  0
  196.3580  170.8150  145.5320 S   0  0  1  0  0  0  0  0  0  0  0  0
  194.1520  172.0700  144.6500 N   0  0  0  0  0  0  0  0  0  0  0  0
  196.8110  172.4650  146.0750 C   0  0  0  0  0  2  0  0  0  0  0  0
  196.6310  169.9540  146.7570 O   0  0  0  0  0  0  0  0  0  0  0  0
  194.6110  173.3650  145.1990 C   0  0  1  0  0  3  0  0  0  0  0  0
  194.5660  170.9700  145.5240 C   0  0  0  0  0  2  0  0  0  0  0  0
  196.1500  173.4850  145.1660 C   0  0  0  0  0  2  0  0  0  0  0  0
  192.1960  171.2140  143.3320 C   0  0  0  0  0  1  0  0  0  0  0  0
  192.6850  172.0170  144.5390 C   0  0  0  0  0  2  0  0  0  0  0  0
  194.8000  175.0210  143.4510 C   0  0  0  0  0  2  0  0  0  0  0  0
  194.8670  173.4360  141.5370 C   0  0  0  0  0  2  0  0  0  0  0  0
  194.1900  174.6820  142.0980 C   0  0  2  0  0  3  0  0  0  0  0  0
  197.4410  175.2530  140.1150 C   0  0  0  0  0  3  0  0  0  0  0  0
  196.9710  174.8060  138.7440 C   0  0  1  0  0  3  0  0  0  0  0  0
  194.6350  174.9870  139.5730 C   0  0  0  0  0  3  0  0  0  0  0  0
  196.6120  175.2200  141.1700 C   0  0  0  0  0  3  0  0  0  0  0  0
  195.1860  174.7920  140.9540 C   0  0  2  0  0  0  0  0  0  0  0  0
  195.4880  175.0210  138.5380 C   0  0  0  0  0  3  0  0  0  0  0  0
  196.8630  175.7830  136.4490 C   0  0  0  0  0  1  0  0  0  0  0  0
  197.7560  175.4960  137.6410 C   0  0  0  0  0  2  0  0  0  0  0  0
  1  3  2  0  0  0  0
  2  7  1  6  0  0  0
  2  1  1  0  0  0  0
  4  2  1  0  0  0  0
  4  5  1  0  0  0  0
  5 23  1  6  0  0  0
  5  6  1  0  0  0  0
  6  3  1  0  0  0  0
  8 10  1  0  0  0  0
  8  9  1  0  0  0  0
  9 11  1  6  0  0  0
 10  9  1  0  0  0  0
 10  7  1  1  0  0  0
 11 18  1  6  0  0  0
 11 12  1  0  0  0  0
 12 17  1  0  0  0  0
 14 15  2  0  0  0  0
 15 13  1  0  0  0  0
 16 12  2  0  0  0  0
 16 14  1  0  0  0  0
 17 13  2  0  0  0  0
 19 21  1  6  0  0  0
 19 18  1  0  0  0  0
 20 22  1  0  0  0  0
 20 19  1  0  0  0  0
 22 19  1  0  0  0  0
 24 26  1  0  0  0  0
 24 27  2  1  0  0  0
 25 28  1  0  0  0  0
 25 29  1  0  0  0  0
 28 23  1  6  0  0  0
 29 24  1  0  0  0  0
 30 28  1  0  0  0  0
 30 26  1  0  0  0  0
 31 32  1  0  0  0  0
 32 25  1  0  0  0  0
 33 23  1  0  0  0  0
 34 35  1  0  0  0  0
 35 33  1  1  0  0  0
 36 39  2  0  0  0  0
 37 43  1  6  0  0  0
 37 36  1  0  0  0  0
 40 38  1  6  0  0  0
 40 39  1  0  0  0  0
 40 34  1  0  0  0  0
 40 35  1  0  0  0  0
 41 37  1  0  0  0  0
 41 38  2  0  0  0  0
 42 43  1  0  0  0  0
M  END
>  <MODEL>
2

>  <REMARK>
 VINA RESULT:      -6.2      3.378      8.147
  Name = 
  12 active torsions:
  status: ('A' for Active; 'I' for Inactive)
    1  A    between atoms: C_4  and  C_14
    2  A    between atoms: C_6  and  N_17
    3  A    between atoms: C_8  and  C_34
    4  A    between atoms: C_10  and  O_41
    5  A    between atoms: C_11  and  C_14
    6  A    between atoms: C_12  and  N_17
    7  A    between atoms: C_14  and  O_41
    8  A    between atoms: N_16  and  C_43
    9  A    between atoms: C_19  and  C_37
   10  A    between atoms: C_21  and  N_30
   11  A    between atoms: C_27  and  N_30
   12  A    between atoms: N_30  and  C_34
                            x       y       z     vdW  Elec       q    Type
                         _______ _______ _______ _____ _____    ______ ____

>  <TORSDO>
F 12

$$$$
=
 OpenBabel11052420543D

 43 49  0  0  1  0  0  0  0  0999 V2000
  190.0370  171.1540  142.2930 C   0  0  0  0  0  3  0  0  0  0  0  0
  189.3400  172.4810  142.3130 C   0  0  1  0  0  3  0  0  0  0  0  0
  191.2210  171.0130  142.8980 C   0  0  0  0  0  3  0  0  0  0  0  0
  189.4480  173.0540  143.7300 C   0  0  0  0  0  2  0  0  0  0  0  0
  190.9100  173.1930  144.2290 C   0  0  1  0  0  3  0  0  0  0  0  0
  191.8880  172.1940  143.5520 C   0  0  0  0  0  2  0  0  0  0  0  0
  189.9460  173.3820  141.3400 N   0  0  0  0  0  2  0  0  0  0  0  0
  188.8400  172.6490  139.4190 O   0  0  0  0  0  0  0  0  0  0  0  0
  189.8040  173.5610  138.9520 C   0  0  1  0  0  3  0  0  0  0  0  0
  190.0770  172.6550  140.0890 C   0  0  1  0  0  3  0  0  0  0  0  0
  190.4610  173.0110  137.6970 C   0  0  2  0  0  3  0  0  0  0  0  0
  191.1470  174.1100  136.9460 C   0  0  0  0  0  0  0  0  0  0  0  0
  191.1600  175.8040  135.2090 C   0  0  0  0  0  3  0  0  0  0  0  0
  193.0660  175.5690  136.6840 C   0  0  0  0  0  3  0  0  0  0  0  0
  192.4370  176.2080  135.6120 C   0  0  0  0  0  3  0  0  0  0  0  0
  192.4200  174.5250  137.3510 C   0  0  0  0  0  3  0  0  0  0  0  0
  190.5140  174.7590  135.8760 C   0  0  0  0  0  3  0  0  0  0  0  0
  189.4980  172.3890  136.8860 O   0  0  0  0  0  0  0  0  0  0  0  0
  190.0670  171.1930  136.4190 C   0  0  1  0  0  0  0  0  0  0  0  0
  189.7040  170.0000  137.1910 N   0  0  0  0  0  2  0  0  0  0  0  0
  190.1660  170.9730  135.0430 O   0  0  0  0  0  1  0  0  0  0  0  0
  191.0690  170.5680  137.2600 C   0  0  0  0  0  2  0  0  0  0  0  0
  191.3930  174.5780  144.0720 N   0  0  0  0  0  0  0  0  0  0  0  0
  195.7310  175.7790  144.4960 S   0  0  1  0  0  0  0  0  0  0  0  0
  193.4260  175.5620  143.1320 N   0  0  0  0  0  0  0  0  0  0  0  0
  194.8960  174.6830  145.6460 C   0  0  0  0  0  2  0  0  0  0  0  0
  197.0960  175.1300  144.3180 O   0  0  0  0  0  0  0  0  0  0  0  0
  192.8720  174.6150  144.1240 C   0  0  1  0  0  3  0  0  0  0  0  0
  194.8670  175.3540  142.9760 C   0  0  0  0  0  2  0  0  0  0  0  0
  193.3990  174.9070  145.5470 C   0  0  0  0  0  2  0  0  0  0  0  0
  193.5200  174.3400  140.9430 C   0  0  0  0  0  1  0  0  0  0  0  0
  192.8080  175.3830  141.8070 C   0  0  0  0  0  2  0  0  0  0  0  0
  190.8310  175.4300  145.1270 C   0  0  0  0  0  2  0  0  0  0  0  0
  190.0120  177.7360  145.5570 C   0  0  0  0  0  2  0  0  0  0  0  0
  190.1460  176.6380  144.5070 C   0  0  2  0  0  3  0  0  0  0  0  0
  187.0410  176.4600  146.7770 C   0  0  0  0  0  3  0  0  0  0  0  0
  186.3360  177.7250  146.3260 C   0  0  1  0  0  3  0  0  0  0  0  0
  187.8190  177.7430  144.3310 C   0  0  0  0  0  3  0  0  0  0  0  0
  188.2180  176.1010  146.2430 C   0  0  0  0  0  3  0  0  0  0  0  0
  188.7970  176.9450  145.1390 C   0  0  2  0  0  0  0  0  0  0  0  0
  186.6470  178.0830  144.8890 C   0  0  0  0  0  3  0  0  0  0  0  0
  184.1220  178.7730  145.8420 C   0  0  0  0  0  1  0  0  0  0  0  0
  184.8330  177.6190  146.5220 C   0  0  0  0  0  2  0  0  0  0  0  0
  1  2  1  0  0  0  0
  1  3  2  0  0  0  0
  2  7  1  6  0  0  0
  2  4  1  0  0  0  0
  3  6  1  0  0  0  0
  4  5  1  0  0  0  0
  5 23  1  6  0  0  0
  6  5  1  0  0  0  0
  8 10  1  0  0  0  0
  9 11  1  6  0  0  0
  9  8  1  0  0  0  0
  9 10  1  0  0  0  0
 10  7  1  1  0  0  0
 11 18  1  6  0  0  0
 12 16  1  0  0  0  0
 12 11  1  0  0  0  0
 13 15  2  0  0  0  0
 13 17  1  0  0  0  0
 14 16  2  0  0  0  0
 15 14  1  0  0  0  0
 17 12  2  0  0  0  0
 19 21  1  6  0  0  0
 19 18  1  0  0  0  0
 19 20  1  0  0  0  0
 19 22  1  0  0  0  0
 20 22  1  0  0  0  0
 23 33  1  0  0  0  0
 24 27  2  6  0  0  0
 24 26  1  0  0  0  0
 25 28  1  0  0  0  0
 28 23  1  1  0  0  0
 28 30  1  0  0  0  0
 29 25  1  0  0  0  0
 29 24  1  0  0  0  0
 30 26  1  0  0  0  0
 31 32  1  0  0  0  0
 32 25  1  0  0  0  0
 35 33  1  1  0  0  0
 35 40  1  0  0  0  0
 35 34  1  0  0  0  0
 37 43  1  6  0  0  0
 37 36  1  0  0  0  0
 38 41  2  0  0  0  0
 39 36  2  0  0  0  0
 40 38  1  6  0  0  0
 40 34  1  0  0  0  0
 40 39  1  0  0  0  0
 41 37  1  0  0  0  0
 42 43  1  0  0  0  0
M  END
>  <MODEL>
3

>  <REMARK>
 VINA RESULT:      -6.0      4.180      8.575
  Name = 
  12 active torsions:
  status: ('A' for Active; 'I' for Inactive)
    1  A    between atoms: C_4  and  C_14
    2  A    between atoms: C_6  and  N_17
    3  A    between atoms: C_8  and  C_34
    4  A    between atoms: C_10  and  O_41
    5  A    between atoms: C_11  and  C_14
    6  A    between atoms: C_12  and  N_17
    7  A    between atoms: C_14  and  O_41
    8  A    between atoms: N_16  and  C_43
    9  A    between atoms: C_19  and  C_37
   10  A    between atoms: C_21  and  N_30
   11  A    between atoms: C_27  and  N_30
   12  A    between atoms: N_30  and  C_34
                            x       y       z     vdW  Elec       q    Type
                         _______ _______ _______ _____ _____    ______ ____

>  <TORSDO>
F 12

$$$$
=
 OpenBabel11052420543D

 43 49  0  0  1  0  0  0  0  0999 V2000
  189.7180  171.4130  142.3890 C   0  0  0  0  0  3  0  0  0  0  0  0
  189.1100  172.7710  142.5720 C   0  0  1  0  0  3  0  0  0  0  0  0
  190.9930  171.2010  142.7330 C   0  0  0  0  0  3  0  0  0  0  0  0
  189.5380  173.3040  143.9440 C   0  0  0  0  0  2  0  0  0  0  0  0
  191.0760  173.3610  144.1300 C   0  0  1  0  0  3  0  0  0  0  0  0
  191.8410  172.3330  143.2510 C   0  0  0  0  0  2  0  0  0  0  0  0
  189.5480  173.6650  141.5070 N   0  0  0  0  0  2  0  0  0  0  0  0
  189.1010  174.0030  139.2410 O   0  0  0  0  0  0  0  0  0  0  0  0
  190.3220  173.3040  139.2660 C   0  0  1  0  0  3  0  0  0  0  0  0
  189.2450  173.0230  140.2400 C   0  0  1  0  0  3  0  0  0  0  0  0
  190.3200  172.2340  138.1860 C   0  0  2  0  0  3  0  0  0  0  0  0
  190.9540  170.9780  138.6980 C   0  0  0  0  0  0  0  0  0  0  0  0
  192.8180  169.8080  139.7200 C   0  0  0  0  0  3  0  0  0  0  0  0
  190.7760  168.6130  139.2030 C   0  0  0  0  0  3  0  0  0  0  0  0
  192.0780  168.6210  139.7110 C   0  0  0  0  0  3  0  0  0  0  0  0
  190.2150  169.7900  138.7010 C   0  0  0  0  0  3  0  0  0  0  0  0
  192.2570  170.9850  139.2180 C   0  0  0  0  0  3  0  0  0  0  0  0
  191.0010  172.7000  137.0500 O   0  0  0  0  0  0  0  0  0  0  0  0
  190.0520  172.8150  136.0220 C   0  0  1  0  0  0  0  0  0  0  0  0
  189.3010  171.5860  135.7400 N   0  0  0  0  0  2  0  0  0  0  0  0
  189.2930  173.9830  135.9170 O   0  0  0  0  0  1  0  0  0  0  0  0
  190.3210  172.0920  134.7940 C   0  0  0  0  0  2  0  0  0  0  0  0
  191.5870  174.7240  143.8960 N   0  0  0  0  0  0  0  0  0  0  0  0
  195.9590  175.8570  144.1130 S   0  0  1  0  0  0  0  0  0  0  0  0
  193.6270  175.5390  142.8170 N   0  0  0  0  0  0  0  0  0  0  0  0
  195.1190  174.9260  145.3970 C   0  0  0  0  0  2  0  0  0  0  0  0
  197.3060  175.1580  143.9940 O   0  0  0  0  0  0  0  0  0  0  0  0
  193.0680  174.7300  143.9220 C   0  0  1  0  0  3  0  0  0  0  0  0
  195.0600  175.2770  142.6660 C   0  0  0  0  0  2  0  0  0  0  0  0
  193.6250  175.1740  145.2930 C   0  0  0  0  0  2  0  0  0  0  0  0
  193.7650  174.2050  140.6970 C   0  0  0  0  0  1  0  0  0  0  0  0
  192.9830  175.2210  141.5320 C   0  0  0  0  0  2  0  0  0  0  0  0
  191.0630  175.6410  144.9160 C   0  0  0  0  0  2  0  0  0  0  0  0
  190.0630  177.8920  145.2470 C   0  0  0  0  0  2  0  0  0  0  0  0
  190.2670  176.7550  144.2510 C   0  0  2  0  0  3  0  0  0  0  0  0
  187.2320  176.4410  146.6000 C   0  0  0  0  0  3  0  0  0  0  0  0
  186.4160  177.6180  146.1020 C   0  0  1  0  0  3  0  0  0  0  0  0
  187.8530  177.6530  144.0740 C   0  0  0  0  0  3  0  0  0  0  0  0
  188.4250  176.1530  146.0570 C   0  0  0  0  0  3  0  0  0  0  0  0
  188.9100  176.9820  144.8990 C   0  0  2  0  0  0  0  0  0  0  0  0
  186.6680  177.9240  144.6420 C   0  0  0  0  0  3  0  0  0  0  0  0
  184.1380  178.6280  145.9380 C   0  0  0  0  0  1  0  0  0  0  0  0
  184.9320  177.3990  146.3390 C   0  0  0  0  0  2  0  0  0  0  0  0
  1  2  1  0  0  0  0
  1  3  2  0  0  0  0
  2  7  1  6  0  0  0
  2  4  1  0  0  0  0
  3  6  1  0  0  0  0
  4  5  1  0  0  0  0
  5 23  1  6  0  0  0
  6  5  1  0  0  0  0
  8  9  1  0  0  0  0
  8 10  1  0  0  0  0
  9 11  1  6  0  0  0
  9 10  1  0  0  0  0
 10  7  1  1  0  0  0
 11 18  1  6  0  0  0
 11 12  1  0  0  0  0
 12 16  2  0  0  0  0
 12 17  1  0  0  0  0
 14 15  2  0  0  0  0
 15 13  1  0  0  0  0
 16 14  1  0  0  0  0
 17 13  2  0  0  0  0
 19 21  1  6  0  0  0
 19 18  1  0  0  0  0
 20 19  1  0  0  0  0
 22 20  1  0  0  0  0
 22 19  1  0  0  0  0
 23 33  1  0  0  0  0
 24 27  2  6  0  0  0
 24 26  1  0  0  0  0
 25 28  1  0  0  0  0
 28 23  1  1  0  0  0
 28 30  1  0  0  0  0
 29 25  1  0  0  0  0
 29 24  1  0  0  0  0
 30 26  1  0  0  0  0
 31 32  1  0  0  0  0
 32 25  1  0  0  0  0
 35 40  1  0  0  0  0
 35 33  1  1  0  0  0
 35 34  1  0  0  0  0
 37 43  1  6  0  0  0
 37 36  1  0  0  0  0
 38 41  2  0  0  0  0
 39 36  2  0  0  0  0
 40 38  1  6  0  0  0
 40 34  1  0  0  0  0
 40 39  1  0  0  0  0
 41 37  1  0  0  0  0
 42 43  1  0  0  0  0
M  END
>  <MODEL>
4

>  <REMARK>
 VINA RESULT:      -6.0      3.794      8.078
  Name = 
  12 active torsions:
  status: ('A' for Active; 'I' for Inactive)
    1  A    between atoms: C_4  and  C_14
    2  A    between atoms: C_6  and  N_17
    3  A    between atoms: C_8  and  C_34
    4  A    between atoms: C_10  and  O_41
    5  A    between atoms: C_11  and  C_14
    6  A    between atoms: C_12  and  N_17
    7  A    between atoms: C_14  and  O_41
    8  A    between atoms: N_16  and  C_43
    9  A    between atoms: C_19  and  C_37
   10  A    between atoms: C_21  and  N_30
   11  A    between atoms: C_27  and  N_30
   12  A    between atoms: N_30  and  C_34
                            x       y       z     vdW  Elec       q    Type
                         _______ _______ _______ _____ _____    ______ ____

>  <TORSDO>
F 12

$$$$
=
 OpenBabel11052420543D

 43 49  0  0  1  0  0  0  0  0999 V2000
  191.5720  176.2330  148.3890 C   0  0  0  0  0  3  0  0  0  0  0  0
  191.2150  175.1930  147.3710 C   0  0  1  0  0  3  0  0  0  0  0  0
  190.9450  177.4150  148.3840 C   0  0  0  0  0  3  0  0  0  0  0  0
  189.6880  175.1490  147.2500 C   0  0  0  0  0  2  0  0  0  0  0  0
  189.0590  176.5180  146.8820 C   0  0  1  0  0  3  0  0  0  0  0  0
  189.9230  177.7310  147.3250 C   0  0  0  0  0  2  0  0  0  0  0  0
  191.8290  175.5150  146.0880 N   0  0  0  0  0  2  0  0  0  0  0  0
  193.2070  173.6310  146.0610 O   0  0  0  0  0  0  0  0  0  0  0  0
  193.5120  174.3150  144.8700 C   0  0  1  0  0  3  0  0  0  0  0  0
  193.2000  175.0360  146.1240 C   0  0  1  0  0  3  0  0  0  0  0  0
  195.0160  174.3100  144.6500 C   0  0  2  0  0  3  0  0  0  0  0  0
  195.3680  175.1500  143.4610 C   0  0  0  0  0  0  0  0  0  0  0  0
  194.8910  175.9710  141.2270 C   0  0  0  0  0  3  0  0  0  0  0  0
  196.8260  176.7920  142.4310 C   0  0  0  0  0  3  0  0  0  0  0  0
  196.0250  176.7880  141.2850 C   0  0  0  0  0  3  0  0  0  0  0  0
  196.4950  175.9770  143.5170 C   0  0  0  0  0  3  0  0  0  0  0  0
  194.5610  175.1550  142.3140 C   0  0  0  0  0  3  0  0  0  0  0  0
  195.4690  172.9940  144.4720 O   0  0  0  0  0  0  0  0  0  0  0  0
  196.4450  172.7610  145.4540 C   0  0  1  0  0  0  0  0  0  0  0  0
  197.5680  171.9250  145.0150 N   0  0  0  0  0  2  0  0  0  0  0  0
  196.8090  173.7960  146.3180 O   0  0  0  0  0  1  0  0  0  0  0  0
  196.5560  171.4080  145.9640 C   0  0  0  0  0  2  0  0  0  0  0  0
  188.7620  176.5930  145.4390 N   0  0  0  0  0  0  0  0  0  0  0  0
  184.7510  178.1950  144.1020 S   0  0  1  0  0  0  0  0  0  0  0  0
  187.3760  177.7240  143.7700 N   0  0  0  0  0  0  0  0  0  0  0  0
  185.1050  177.7180  145.7960 C   0  0  0  0  0  2  0  0  0  0  0  0
  183.9480  179.4790  144.2580 O   0  0  0  0  0  0  0  0  0  0  0  0
  187.5500  177.4110  145.2050 C   0  0  1  0  0  3  0  0  0  0  0  0
  186.3760  178.7800  143.5960 C   0  0  0  0  0  2  0  0  0  0  0  0
  186.2830  176.7610  145.8050 C   0  0  0  0  0  2  0  0  0  0  0  0
  188.5690  178.2900  141.6360 C   0  0  0  0  0  1  0  0  0  0  0  0
  188.6290  178.2000  143.1620 C   0  0  0  0  0  2  0  0  0  0  0  0
  188.5710  175.2440  144.8930 C   0  0  0  0  0  2  0  0  0  0  0  0
  188.6110  173.9730  142.7580 C   0  0  0  0  0  2  0  0  0  0  0  0
  189.2230  175.1430  143.5210 C   0  0  2  0  0  3  0  0  0  0  0  0
  190.7940  171.6860  144.1530 C   0  0  0  0  0  3  0  0  0  0  0  0
  191.3690  171.4230  142.7740 C   0  0  1  0  0  3  0  0  0  0  0  0
  191.0750  173.8420  142.2800 C   0  0  0  0  0  3  0  0  0  0  0  0
  190.1220  172.8170  144.4140 C   0  0  0  0  0  3  0  0  0  0  0  0
  190.0030  173.8530  143.3290 C   0  0  2  0  0  0  0  0  0  0  0  0
  191.7340  172.6970  142.0450 C   0  0  0  0  0  3  0  0  0  0  0  0
  193.7460  171.0920  142.0890 C   0  0  0  0  0  1  0  0  0  0  0  0
  192.5720  170.5000  142.8450 C   0  0  0  0  0  2  0  0  0  0  0  0
  2  7  1  6  0  0  0
  2  1  1  0  0  0  0
  3  1  2  0  0  0  0
  4  2  1  0  0  0  0
  5 23  1  6  0  0  0
  5  4  1  0  0  0  0
  5  6  1  0  0  0  0
  6  3  1  0  0  0  0
  8 10  1  0  0  0  0
  9 11  1  1  0  0  0
  9  8  1  0  0  0  0
  9 10  1  0  0  0  0
 10  7  1  6  0  0  0
 11 18  1  6  0  0  0
 12 16  1  0  0  0  0
 12 11  1  0  0  0  0
 13 15  2  0  0  0  0
 13 17  1  0  0  0  0
 14 16  2  0  0  0  0
 15 14  1  0  0  0  0
 17 12  2  0  0  0  0
 18 19  1  0  0  0  0
 19 22  1  0  0  0  0
 19 21  1  1  0  0  0
 20 19  1  0  0  0  0
 20 22  1  0  0  0  0
 24 27  2  1  0  0  0
 24 26  1  0  0  0  0
 25 28  1  0  0  0  0
 26 30  1  0  0  0  0
 28 23  1  6  0  0  0
 28 30  1  0  0  0  0
 29 25  1  0  0  0  0
 29 24  1  0  0  0  0
 31 32  1  0  0  0  0
 32 25  1  0  0  0  0
 33 23  1  0  0  0  0
 34 40  1  0  0  0  0
 34 35  1  0  0  0  0
 35 33  1  1  0  0  0
 36 39  2  0  0  0  0
 37 43  1  1  0  0  0
 37 36  1  0  0  0  0
 40 38  1  6  0  0  0
 40 35  1  0  0  0  0
 40 39  1  0  0  0  0
 41 38  2  0  0  0  0
 41 37  1  0  0  0  0
 42 43  1  0  0  0  0
M  END
>  <MODEL>
5

>  <REMARK>
 VINA RESULT:      -5.9      2.032      3.452
  Name = 
  12 active torsions:
  status: ('A' for Active; 'I' for Inactive)
    1  A    between atoms: C_4  and  C_14
    2  A    between atoms: C_6  and  N_17
    3  A    between atoms: C_8  and  C_34
    4  A    between atoms: C_10  and  O_41
    5  A    between atoms: C_11  and  C_14
    6  A    between atoms: C_12  and  N_17
    7  A    between atoms: C_14  and  O_41
    8  A    between atoms: N_16  and  C_43
    9  A    between atoms: C_19  and  C_37
   10  A    between atoms: C_21  and  N_30
   11  A    between atoms: C_27  and  N_30
   12  A    between atoms: N_30  and  C_34
                            x       y       z     vdW  Elec       q    Type
                         _______ _______ _______ _____ _____    ______ ____

>  <TORSDO>
F 12

$$$$
=
 OpenBabel11052420543D

 43 49  0  0  1  0  0  0  0  0999 V2000
  190.8980  176.7780  146.6910 C   0  0  0  0  0  3  0  0  0  0  0  0
  191.3740  176.9470  145.2800 C   0  0  1  0  0  3  0  0  0  0  0  0
  191.4260  175.8220  147.4640 C   0  0  0  0  0  3  0  0  0  0  0  0
  192.9030  176.8410  145.2770 C   0  0  0  0  0  2  0  0  0  0  0  0
  193.4300  175.5130  145.8800 C   0  0  1  0  0  3  0  0  0  0  0  0
  192.4550  174.8740  146.9070 C   0  0  0  0  0  2  0  0  0  0  0  0
  190.7800  175.9270  144.4240 N   0  0  0  0  0  2  0  0  0  0  0  0
  188.9570  175.5420  143.0190 O   0  0  0  0  0  0  0  0  0  0  0  0
  188.3900  175.9670  144.2350 C   0  0  1  0  0  3  0  0  0  0  0  0
  189.6580  176.5330  143.7290 C   0  0  1  0  0  3  0  0  0  0  0  0
  187.2540  176.9380  143.9560 C   0  0  2  0  0  3  0  0  0  0  0  0
  186.6390  177.3980  145.2410 C   0  0  0  0  0  0  0  0  0  0  0  0
  186.3130  177.1760  147.6360 C   0  0  0  0  0  3  0  0  0  0  0  0
  185.2980  179.0220  146.4430 C   0  0  0  0  0  3  0  0  0  0  0  0
  185.5240  178.3310  147.6370 C   0  0  0  0  0  3  0  0  0  0  0  0
  185.8570  178.5580  145.2490 C   0  0  0  0  0  3  0  0  0  0  0  0
  186.8720  176.7110  146.4420 C   0  0  0  0  0  3  0  0  0  0  0  0
  186.2900  176.3260  143.1410 O   0  0  0  0  0  0  0  0  0  0  0  0
  185.9360  177.2590  142.1540 C   0  0  1  0  0  0  0  0  0  0  0  0
  186.6200  177.0810  140.8680 N   0  0  0  0  0  2  0  0  0  0  0  0
  184.6040  177.6640  142.0380 O   0  0  0  0  0  1  0  0  0  0  0  0
  186.9510  178.2170  141.7590 C   0  0  0  0  0  2  0  0  0  0  0  0
  193.7690  174.5470  144.8180 N   0  0  0  0  0  0  0  0  0  0  0  0
  196.4680  170.9790  145.4710 S   0  0  1  0  0  0  0  0  0  0  0  0
  194.1540  172.1320  144.7370 N   0  0  0  0  0  0  0  0  0  0  0  0
  196.8130  172.6100  146.1380 C   0  0  0  0  0  2  0  0  0  0  0  0
  196.8340  170.0450  146.6160 O   0  0  0  0  0  0  0  0  0  0  0  0
  194.5320  173.4090  145.3810 C   0  0  1  0  0  3  0  0  0  0  0  0
  194.6690  171.0000  145.5100 C   0  0  0  0  0  2  0  0  0  0  0  0
  196.0570  173.6470  145.3280 C   0  0  0  0  0  2  0  0  0  0  0  0
  192.2560  170.8320  143.7370 C   0  0  0  0  0  1  0  0  0  0  0  0
  192.6930  171.9790  144.6510 C   0  0  0  0  0  2  0  0  0  0  0  0
  194.5540  175.2070  143.7680 C   0  0  0  0  0  2  0  0  0  0  0  0
  194.8310  174.8700  141.3220 C   0  0  0  0  0  2  0  0  0  0  0  0
  194.9260  174.2010  142.6890 C   0  0  2  0  0  3  0  0  0  0  0  0
  191.4540  174.1990  141.0250 C   0  0  0  0  0  3  0  0  0  0  0  0
  191.7550  173.3120  139.8320 C   0  0  1  0  0  3  0  0  0  0  0  0
  193.8290  172.5890  140.9970 C   0  0  0  0  0  3  0  0  0  0  0  0
  192.4090  174.4980  141.9190 C   0  0  0  0  0  3  0  0  0  0  0  0
  193.7720  173.8840  141.7500 C   0  0  2  0  0  0  0  0  0  0  0  0
  192.8570  172.3140  140.1140 C   0  0  0  0  0  3  0  0  0  0  0  0
  190.4810  171.1660  139.8760 C   0  0  0  0  0  1  0  0  0  0  0  0
  190.5080  172.5890  139.3540 C   0  0  0  0  0  2  0  0  0  0  0  0
  1  3  2  0  0  0  0
  2  7  1  6  0  0  0
  2  1  1  0  0  0  0
  4  2  1  0  0  0  0
  4  5  1  0  0  0  0
  5 23  1  6  0  0  0
  5  6  1  0  0  0  0
  6  3  1  0  0  0  0
  8 10  1  0  0  0  0
  8  9  1  0  0  0  0
  9 11  1  6  0  0  0
 10  9  1  0  0  0  0
 10  7  1  1  0  0  0
 11 18  1  6  0  0  0
 11 12  1  0  0  0  0
 12 16  2  0  0  0  0
 12 17  1  0  0  0  0
 13 15  1  0  0  0  0
 14 15  2  0  0  0  0
 16 14  1  0  0  0  0
 17 13  2  0  0  0  0
 19 21  1  6  0  0  0
 19 18  1  0  0  0  0
 20 22  1  0  0  0  0
 20 19  1  0  0  0  0
 22 19  1  0  0  0  0
 24 29  1  0  0  0  0
 24 26  1  0  0  0  0
 24 27  2  1  0  0  0
 25 28  1  0  0  0  0
 25 29  1  0  0  0  0
 28 23  1  6  0  0  0
 30 28  1  0  0  0  0
 30 26  1  0  0  0  0
 31 32  1  0  0  0  0
 32 25  1  0  0  0  0
 33 23  1  0  0  0  0
 34 40  1  0  0  0  0
 34 35  1  0  0  0  0
 35 33  1  1  0  0  0
 36 39  2  0  0  0  0
 37 43  1  1  0  0  0
 37 41  1  0  0  0  0
 37 36  1  0  0  0  0
 40 38  1  6  0  0  0
 40 39  1  0  0  0  0
 40 35  1  0  0  0  0
 41 38  2  0  0  0  0
 43 42  1  0  0  0  0
M  END
>  <MODEL>
6

>  <REMARK>
 VINA RESULT:      -5.7      3.064      7.929
  Name = 
  12 active torsions:
  status: ('A' for Active; 'I' for Inactive)
    1  A    between atoms: C_4  and  C_14
    2  A    between atoms: C_6  and  N_17
    3  A    between atoms: C_8  and  C_34
    4  A    between atoms: C_10  and  O_41
    5  A    between atoms: C_11  and  C_14
    6  A    between atoms: C_12  and  N_17
    7  A    between atoms: C_14  and  O_41
    8  A    between atoms: N_16  and  C_43
    9  A    between atoms: C_19  and  C_37
   10  A    between atoms: C_21  and  N_30
   11  A    between atoms: C_27  and  N_30
   12  A    between atoms: N_30  and  C_34
                            x       y       z     vdW  Elec       q    Type
                         _______ _______ _______ _____ _____    ______ ____

>  <TORSDO>
F 12

$$$$
=
 OpenBabel11052420543D

 43 49  0  0  1  0  0  0  0  0999 V2000
  191.2260  176.7580  148.0340 C   0  0  0  0  0  3  0  0  0  0  0  0
  191.7110  175.6140  147.1960 C   0  0  1  0  0  3  0  0  0  0  0  0
  190.2160  177.5210  147.6030 C   0  0  0  0  0  3  0  0  0  0  0  0
  190.4860  174.8710  146.6510 C   0  0  0  0  0  2  0  0  0  0  0  0
  189.5240  175.7790  145.8410 C   0  0  1  0  0  3  0  0  0  0  0  0
  189.5970  177.2750  146.2530 C   0  0  0  0  0  2  0  0  0  0  0  0
  192.5460  176.1080  146.1070 N   0  0  0  0  0  2  0  0  0  0  0  0
  193.4420  173.9600  145.9230 O   0  0  0  0  0  0  0  0  0  0  0  0
  193.9120  174.6440  144.7870 C   0  0  1  0  0  3  0  0  0  0  0  0
  193.7650  175.3180  146.0950 C   0  0  1  0  0  3  0  0  0  0  0  0
  195.3750  174.3020  144.5550 C   0  0  2  0  0  3  0  0  0  0  0  0
  195.8440  174.8830  143.2580 C   0  0  0  0  0  0  0  0  0  0  0  0
  196.4430  176.7910  141.8820 C   0  0  0  0  0  3  0  0  0  0  0  0
  196.6710  174.5450  141.0030 C   0  0  0  0  0  3  0  0  0  0  0  0
  196.7900  175.9280  140.8370 C   0  0  0  0  0  3  0  0  0  0  0  0
  196.2020  174.0250  142.2130 C   0  0  0  0  0  3  0  0  0  0  0  0
  195.9730  176.2700  143.0910 C   0  0  0  0  0  3  0  0  0  0  0  0
  195.5470  172.9090  144.5600 O   0  0  0  0  0  0  0  0  0  0  0  0
  196.5620  172.6250  145.4870 C   0  0  1  0  0  0  0  0  0  0  0  0
  197.5750  171.6730  145.0160 N   0  0  0  0  0  2  0  0  0  0  0  0
  197.0740  173.6550  146.2810 O   0  0  0  0  0  1  0  0  0  0  0  0
  196.5860  171.2880  146.0490 C   0  0  0  0  0  2  0  0  0  0  0  0
  189.7500  175.6280  144.3910 N   0  0  0  0  0  0  0  0  0  0  0  0
  187.0960  177.4320  141.2060 S   0  0  1  0  0  0  0  0  0  0  0  0
  189.4090  177.2090  142.5550 N   0  0  0  0  0  0  0  0  0  0  0  0
  186.4720  176.4140  142.5470 C   0  0  0  0  0  2  0  0  0  0  0  0
  186.0680  178.5500  141.1040 O   0  0  0  0  0  0  0  0  0  0  0  0
  188.7610  176.4280  143.6310 C   0  0  1  0  0  3  0  0  0  0  0  0
  188.4870  178.2190  142.0320 C   0  0  0  0  0  2  0  0  0  0  0  0
  187.6030  175.5610  143.0900 C   0  0  0  0  0  2  0  0  0  0  0  0
  191.9090  177.1620  142.7630 C   0  0  0  0  0  1  0  0  0  0  0  0
  190.6060  177.9150  143.0410 C   0  0  0  0  0  2  0  0  0  0  0  0
  189.6520  174.2150  144.0100 C   0  0  0  0  0  2  0  0  0  0  0  0
  190.1280  172.5960  142.1850 C   0  0  0  0  0  2  0  0  0  0  0  0
  190.5030  173.9510  142.7760 C   0  0  2  0  0  3  0  0  0  0  0  0
  192.3020  170.8870  144.2590 C   0  0  0  0  0  3  0  0  0  0  0  0
  193.0930  170.4550  143.0390 C   0  0  1  0  0  3  0  0  0  0  0  0
  192.6350  172.6890  142.0510 C   0  0  0  0  0  3  0  0  0  0  0  0
  191.4900  171.9540  144.2090 C   0  0  0  0  0  3  0  0  0  0  0  0
  191.4280  172.7550  142.9360 C   0  0  2  0  0  0  0  0  0  0  0  0
  193.4320  171.6130  142.1260 C   0  0  0  0  0  3  0  0  0  0  0  0
  195.1080  169.2370  142.2080 C   0  0  0  0  0  1  0  0  0  0  0  0
  194.3600  169.7170  143.4370 C   0  0  0  0  0  2  0  0  0  0  0  0
  2  7  1  6  0  0  0
  2  1  1  0  0  0  0
  3  1  2  0  0  0  0
  4  2  1  0  0  0  0
  5 23  1  6  0  0  0
  5  6  1  0  0  0  0
  5  4  1  0  0  0  0
  6  3  1  0  0  0  0
  8 10  1  0  0  0  0
  9 11  1  1  0  0  0
  9  8  1  0  0  0  0
  9 10  1  0  0  0  0
 10  7  1  6  0  0  0
 11 18  1  6  0  0  0
 12 11  1  0  0  0  0
 13 17  2  0  0  0  0
 14 16  1  0  0  0  0
 15 14  2  0  0  0  0
 15 13  1  0  0  0  0
 16 12  2  0  0  0  0
 17 12  1  0  0  0  0
 18 19  1  0  0  0  0
 19 22  1  0  0  0  0
 19 21  1  1  0  0  0
 20 19  1  0  0  0  0
 20 22  1  0  0  0  0
 24 27  2  1  0  0  0
 24 29  1  0  0  0  0
 24 26  1  0  0  0  0
 25 32  1  0  0  0  0
 25 28  1  0  0  0  0
 26 30  1  0  0  0  0
 28 23  1  6  0  0  0
 29 25  1  0  0  0  0
 30 28  1  0  0  0  0
 31 32  1  0  0  0  0
 33 23  1  0  0  0  0
 34 35  1  0  0  0  0
 34 40  1  0  0  0  0
 35 40  1  0  0  0  0
 35 33  1  1  0  0  0
 37 43  1  1  0  0  0
 37 36  1  0  0  0  0
 38 41  2  0  0  0  0
 39 36  2  0  0  0  0
 40 38  1  6  0  0  0
 40 39  1  0  0  0  0
 41 37  1  0  0  0  0
 42 43  1  0  0  0  0
M  END
>  <MODEL>
7

>  <REMARK>
 VINA RESULT:      -5.7      1.552      2.814
  Name = 
  12 active torsions:
  status: ('A' for Active; 'I' for Inactive)
    1  A    between atoms: C_4  and  C_14
    2  A    between atoms: C_6  and  N_17
    3  A    between atoms: C_8  and  C_34
    4  A    between atoms: C_10  and  O_41
    5  A    between atoms: C_11  and  C_14
    6  A    between atoms: C_12  and  N_17
    7  A    between atoms: C_14  and  O_41
    8  A    between atoms: N_16  and  C_43
    9  A    between atoms: C_19  and  C_37
   10  A    between atoms: C_21  and  N_30
   11  A    between atoms: C_27  and  N_30
   12  A    between atoms: N_30  and  C_34
                            x       y       z     vdW  Elec       q    Type
                         _______ _______ _______ _____ _____    ______ ____

>  <TORSDO>
F 12

$$$$
=
 OpenBabel11052420543D

 43 49  0  0  1  0  0  0  0  0999 V2000
  192.9970  176.8910  145.0150 C   0  0  0  0  0  3  0  0  0  0  0  0
  191.9760  176.8050  143.9220 C   0  0  1  0  0  3  0  0  0  0  0  0
  193.7910  175.8460  145.2720 C   0  0  0  0  0  3  0  0  0  0  0  0
  192.6330  176.1410  142.7070 C   0  0  0  0  0  2  0  0  0  0  0  0
  193.2290  174.7420  143.0160 C   0  0  1  0  0  3  0  0  0  0  0  0
  193.6270  174.5590  144.5070 C   0  0  0  0  0  2  0  0  0  0  0  0
  190.8210  176.0370  144.3720 N   0  0  0  0  0  2  0  0  0  0  0  0
  188.8650  175.5010  143.2180 O   0  0  0  0  0  0  0  0  0  0  0  0
  188.4250  176.1270  144.3980 C   0  0  1  0  0  3  0  0  0  0  0  0
  189.6490  176.5660  143.6950 C   0  0  1  0  0  3  0  0  0  0  0  0
  187.2860  177.0810  144.0750 C   0  0  2  0  0  3  0  0  0  0  0  0
  186.5750  177.4840  145.3300 C   0  0  0  0  0  0  0  0  0  0  0  0
  186.6060  178.2580  147.6300 C   0  0  0  0  0  3  0  0  0  0  0  0
  184.4940  177.9330  146.4910 C   0  0  0  0  0  3  0  0  0  0  0  0
  185.2080  178.2950  147.6370 C   0  0  0  0  0  3  0  0  0  0  0  0
  185.1770  177.5320  145.3400 C   0  0  0  0  0  3  0  0  0  0  0  0
  187.2890  177.8560  146.4790 C   0  0  0  0  0  3  0  0  0  0  0  0
  186.3930  176.4750  143.1780 O   0  0  0  0  0  0  0  0  0  0  0  0
  186.4310  177.2270  141.9930 C   0  0  1  0  0  0  0  0  0  0  0  0
  186.6510  178.6640  142.1850 N   0  0  0  0  0  2  0  0  0  0  0  0
  187.0650  176.6990  140.8650 O   0  0  0  0  0  1  0  0  0  0  0  0
  185.3320  178.1440  141.7600 C   0  0  0  0  0  2  0  0  0  0  0  0
  192.3090  173.6710  142.5910 N   0  0  0  0  0  0  0  0  0  0  0  0
  193.3590  169.2800  142.8420 S   0  0  1  0  0  0  0  0  0  0  0  0
  191.7800  171.3990  143.3320 N   0  0  0  0  0  0  0  0  0  0  0  0
  194.5340  170.5470  142.3570 C   0  0  0  0  0  2  0  0  0  0  0  0
  194.1740  168.3730  143.7530 O   0  0  0  0  0  0  0  0  0  0  0  0
  192.8560  172.3450  142.9630 C   0  0  1  0  0  3  0  0  0  0  0  0
  192.3430  170.2200  143.9930 C   0  0  0  0  0  2  0  0  0  0  0  0
  193.7750  171.7650  141.8650 C   0  0  0  0  0  2  0  0  0  0  0  0
  189.3670  171.9150  143.7840 C   0  0  0  0  0  1  0  0  0  0  0  0
  190.8170  172.0090  144.2630 C   0  0  0  0  0  2  0  0  0  0  0  0
  192.0950  173.7370  141.1400 C   0  0  0  0  0  2  0  0  0  0  0  0
  190.4610  172.2200  140.0420 C   0  0  0  0  0  2  0  0  0  0  0  0
  190.6220  173.5200  140.8230 C   0  0  2  0  0  3  0  0  0  0  0  0
  191.0660  173.7580  137.0060 C   0  0  0  0  0  3  0  0  0  0  0  0
  189.6520  173.4160  136.5740 C   0  0  1  0  0  3  0  0  0  0  0  0
  188.9210  173.8520  138.9100 C   0  0  0  0  0  3  0  0  0  0  0  0
  191.3990  173.7910  138.3050 C   0  0  0  0  0  3  0  0  0  0  0  0
  190.3260  173.5450  139.3320 C   0  0  2  0  0  0  0  0  0  0  0  0
  188.6180  173.8170  137.6030 C   0  0  0  0  0  3  0  0  0  0  0  0
  189.9820  175.4000  135.0950 C   0  0  0  0  0  1  0  0  0  0  0  0
  189.3200  174.0420  135.2310 C   0  0  0  0  0  2  0  0  0  0  0  0
  1  3  2  0  0  0  0
  2  7  1  1  0  0  0
  2  1  1  0  0  0  0
  4  5  1  0  0  0  0
  4  2  1  0  0  0  0
  5 23  1  1  0  0  0
  5  6  1  0  0  0  0
  6  3  1  0  0  0  0
  8 10  1  0  0  0  0
  8  9  1  0  0  0  0
  9 11  1  6  0  0  0
 10  7  1  1  0  0  0
 10  9  1  0  0  0  0
 11 18  1  6  0  0  0
 11 12  1  0  0  0  0
 12 16  2  0  0  0  0
 12 17  1  0  0  0  0
 13 15  1  0  0  0  0
 14 15  2  0  0  0  0
 16 14  1  0  0  0  0
 17 13  2  0  0  0  0
 19 21  1  6  0  0  0
 19 20  1  0  0  0  0
 19 18  1  0  0  0  0
 22 19  1  0  0  0  0
 22 20  1  0  0  0  0
 24 27  2  1  0  0  0
 24 29  1  0  0  0  0
 25 29  1  0  0  0  0
 25 32  1  0  0  0  0
 26 24  1  0  0  0  0
 28 23  1  6  0  0  0
 28 25  1  0  0  0  0
 30 26  1  0  0  0  0
 30 28  1  0  0  0  0
 31 32  1  0  0  0  0
 33 23  1  0  0  0  0
 34 35  1  0  0  0  0
 35 33  1  6  0  0  0
 36 39  2  0  0  0  0
 37 43  1  6  0  0  0
 37 36  1  0  0  0  0
 37 41  1  0  0  0  0
 38 40  1  0  0  0  0
 40 39  1  6  0  0  0
 40 34  1  0  0  0  0
 40 35  1  0  0  0  0
 41 38  2  0  0  0  0
 42 43  1  0  0  0  0
M  END
>  <MODEL>
8

>  <REMARK>
 VINA RESULT:      -5.7      3.488      8.070
  Name = 
  12 active torsions:
  status: ('A' for Active; 'I' for Inactive)
    1  A    between atoms: C_4  and  C_14
    2  A    between atoms: C_6  and  N_17
    3  A    between atoms: C_8  and  C_34
    4  A    between atoms: C_10  and  O_41
    5  A    between atoms: C_11  and  C_14
    6  A    between atoms: C_12  and  N_17
    7  A    between atoms: C_14  and  O_41
    8  A    between atoms: N_16  and  C_43
    9  A    between atoms: C_19  and  C_37
   10  A    between atoms: C_21  and  N_30
   11  A    between atoms: C_27  and  N_30
   12  A    between atoms: N_30  and  C_34
                            x       y       z     vdW  Elec       q    Type
                         _______ _______ _______ _____ _____    ______ ____

>  <TORSDO>
F 12

$$$$
=
 OpenBabel11052420543D

 43 49  0  0  1  0  0  0  0  0999 V2000
  192.1400  176.2720  147.6000 C   0  0  0  0  0  3  0  0  0  0  0  0
  192.0040  175.5070  146.3190 C   0  0  1  0  0  3  0  0  0  0  0  0
  191.1570  177.0860  147.9990 C   0  0  0  0  0  3  0  0  0  0  0  0
  190.5830  174.9350  146.2540 C   0  0  0  0  0  2  0  0  0  0  0  0
  189.4770  176.0160  146.3700 C   0  0  1  0  0  3  0  0  0  0  0  0
  189.9360  177.2840  147.1410 C   0  0  0  0  0  2  0  0  0  0  0  0
  192.2640  176.3810  145.1810 N   0  0  0  0  0  2  0  0  0  0  0  0
  193.1290  176.3820  143.0130 O   0  0  0  0  0  0  0  0  0  0  0  0
  194.2120  176.0110  143.8320 C   0  0  1  0  0  3  0  0  0  0  0  0
  192.8310  175.5670  144.1200 C   0  0  1  0  0  3  0  0  0  0  0  0
  194.9820  174.8760  143.1750 C   0  0  2  0  0  3  0  0  0  0  0  0
  195.5940  173.9930  144.2190 C   0  0  0  0  0  0  0  0  0  0  0  0
  195.9100  171.8100  145.2300 C   0  0  0  0  0  3  0  0  0  0  0  0
  197.1110  173.7280  146.0910 C   0  0  0  0  0  3  0  0  0  0  0  0
  196.8130  172.3630  146.1430 C   0  0  0  0  0  3  0  0  0  0  0  0
  196.5050  174.5400  145.1290 C   0  0  0  0  0  3  0  0  0  0  0  0
  195.3040  172.6220  144.2670 C   0  0  0  0  0  3  0  0  0  0  0  0
  195.9730  175.3970  142.3300 O   0  0  0  0  0  0  0  0  0  0  0  0
  195.7960  174.7970  141.0730 C   0  0  1  0  0  0  0  0  0  0  0  0
  195.2670  175.6900  140.0360 N   0  0  0  0  0  2  0  0  0  0  0  0
  196.7470  173.8850  140.6080 O   0  0  0  0  0  1  0  0  0  0  0  0
  194.4320  174.6140  140.6170 C   0  0  0  0  0  2  0  0  0  0  0  0
  188.9520  176.3790  145.0400 N   0  0  0  0  0  0  0  0  0  0  0  0
  184.7920  178.1240  144.7440 S   0  0  1  0  0  0  0  0  0  0  0  0
  187.3120  177.7760  143.8800 N   0  0  0  0  0  0  0  0  0  0  0  0
  185.4280  177.3440  146.2300 C   0  0  0  0  0  2  0  0  0  0  0  0
  184.0450  179.3400  145.2760 O   0  0  0  0  0  0  0  0  0  0  0  0
  187.7280  177.2020  145.1780 C   0  0  1  0  0  3  0  0  0  0  0  0
  186.3110  178.8260  144.0840 C   0  0  0  0  0  2  0  0  0  0  0  0
  186.5770  176.4260  145.8540 C   0  0  0  0  0  2  0  0  0  0  0  0
  188.3260  178.2900  141.6430 C   0  0  0  0  0  1  0  0  0  0  0  0
  188.4480  178.3820  143.1660 C   0  0  0  0  0  2  0  0  0  0  0  0
  188.6580  175.1670  144.2670 C   0  0  0  0  0  2  0  0  0  0  0  0
  188.4900  174.5230  141.8720 C   0  0  0  0  0  2  0  0  0  0  0  0
  189.3480  175.2370  142.9120 C   0  0  2  0  0  3  0  0  0  0  0  0
  189.8550  171.4330  142.6010 C   0  0  0  0  0  3  0  0  0  0  0  0
  190.4270  171.3770  141.1980 C   0  0  1  0  0  3  0  0  0  0  0  0
  190.8480  173.8210  141.3590 C   0  0  0  0  0  3  0  0  0  0  0  0
  189.5060  172.6030  143.1550 C   0  0  0  0  0  3  0  0  0  0  0  0
  189.7520  173.8700  142.3810 C   0  0  2  0  0  0  0  0  0  0  0  0
  191.1800  172.6350  140.8260 C   0  0  0  0  0  3  0  0  0  0  0  0
  192.2450  169.9940  142.2070 C   0  0  0  0  0  1  0  0  0  0  0  0
  191.3210  170.1620  141.0150 C   0  0  0  0  0  2  0  0  0  0  0  0
  1  3  2  0  0  0  0
  2  7  1  6  0  0  0
  2  1  1  0  0  0  0
  4  2  1  0  0  0  0
  4  5  1  0  0  0  0
  5 23  1  6  0  0  0
  5  6  1  0  0  0  0
  6  3  1  0  0  0  0
  8  9  1  0  0  0  0
  8 10  1  0  0  0  0
  9 11  1  6  0  0  0
  9 10  1  0  0  0  0
 10  7  1  1  0  0  0
 11 18  1  6  0  0  0
 11 12  1  0  0  0  0
 12 17  2  0  0  0  0
 12 16  1  0  0  0  0
 13 15  2  0  0  0  0
 14 15  1  0  0  0  0
 16 14  2  0  0  0  0
 17 13  1  0  0  0  0
 19 21  1  6  0  0  0
 19 18  1  0  0  0  0
 20 22  1  0  0  0  0
 20 19  1  0  0  0  0
 22 19  1  0  0  0  0
 24 27  2  1  0  0  0
 24 26  1  0  0  0  0
 25 29  1  0  0  0  0
 25 28  1  0  0  0  0
 28 23  1  6  0  0  0
 28 30  1  0  0  0  0
 29 24  1  0  0  0  0
 30 26  1  0  0  0  0
 31 32  1  0  0  0  0
 32 25  1  0  0  0  0
 33 23  1  0  0  0  0
 34 40  1  0  0  0  0
 34 35  1  0  0  0  0
 35 33  1  1  0  0  0
 36 39  2  0  0  0  0
 37 43  1  1  0  0  0
 37 36  1  0  0  0  0
 40 38  1  6  0  0  0
 40 35  1  0  0  0  0
 40 39  1  0  0  0  0
 41 37  1  0  0  0  0
 41 38  2  0  0  0  0
 43 42  1  0  0  0  0
M  END
>  <MODEL>
9

>  <REMARK>
 VINA RESULT:      -5.5      1.980      2.719
  Name = 
  12 active torsions:
  status: ('A' for Active; 'I' for Inactive)
    1  A    between atoms: C_4  and  C_14
    2  A    between atoms: C_6  and  N_17
    3  A    between atoms: C_8  and  C_34
    4  A    between atoms: C_10  and  O_41
    5  A    between atoms: C_11  and  C_14
    6  A    between atoms: C_12  and  N_17
    7  A    between atoms: C_14  and  O_41
    8  A    between atoms: N_16  and  C_43
    9  A    between atoms: C_19  and  C_37
   10  A    between atoms: C_21  and  N_30
   11  A    between atoms: C_27  and  N_30
   12  A    between atoms: N_30  and  C_34
                            x       y       z     vdW  Elec       q    Type
                         _______ _______ _______ _____ _____    ______ ____

>  <TORSDO>
F 12

$$$$
