=
 OpenBabel11052418153D

 28 32  0  0  1  0  0  0  0  0999 V2000
  190.4060  175.0180  144.4450 C   0  0  2  0  0  3  0  0  0  0  0  0
  186.5170  177.1450  141.7910 C   0  0  0  0  0  3  0  0  0  0  0  0
  187.0770  176.5050  147.9830 C   0  0  0  0  0  1  0  0  0  0  0  0
  184.9460  177.8610  143.5000 C   0  0  0  0  0  0  0  0  0  0  0  0
  187.0160  176.7460  144.1660 C   0  0  0  0  0  0  0  0  0  0  0  0
  184.4590  178.2520  141.1600 C   0  0  0  0  0  0  0  0  0  0  0  0
  186.1720  177.2460  143.1490 C   0  0  0  0  0  0  0  0  0  0  0  0
  185.4110  177.4810  145.8410 C   0  0  0  0  0  3  0  0  0  0  0  0
  184.1000  178.3600  142.5050 C   0  0  0  0  0  3  0  0  0  0  0  0
  188.7030  175.7660  146.2060 C   0  0  0  0  0  0  0  0  0  0  0  0
  188.2320  176.1280  143.8520 C   0  0  0  0  0  3  0  0  0  0  0  0
  184.5760  177.9740  144.8390 C   0  0  0  0  0  3  0  0  0  0  0  0
  191.0470  175.1580  146.8630 C   0  0  0  0  0  2  0  0  0  0  0  0
  187.4770  176.3740  146.5420 C   0  0  0  0  0  0  0  0  0  0  0  0
  189.5900  175.2150  147.2950 C   0  0  0  0  0  2  0  0  0  0  0  0
  183.6150  178.7480  140.1760 O   0  0  0  0  0  1  0  0  0  0  0  0
  185.6650  177.6460  140.8030 C   0  0  0  0  0  3  0  0  0  0  0  0
  186.6310  176.8660  145.5230 C   0  0  0  0  0  0  0  0  0  0  0  0
  191.1480  174.3310  145.5940 C   0  0  0  0  0  2  0  0  0  0  0  0
  189.0660  175.6110  144.8470 C   0  0  0  0  0  0  0  0  0  0  0  0
  190.2950  174.0860  143.2750 C   0  0  0  0  0  0  0  0  0  0  0  0
  190.9290  174.3750  142.0570 C   0  0  0  0  0  3  0  0  0  0  0  0
  190.0810  172.3080  141.1190 C   0  0  0  0  0  0  0  0  0  0  0  0
  189.5560  172.9050  143.4080 C   0  0  0  0  0  3  0  0  0  0  0  0
  191.4540  173.7860  139.7800 O   0  0  0  0  0  1  0  0  0  0  0  0
  190.8220  173.4890  140.9820 C   0  0  0  0  0  0  0  0  0  0  0  0
  189.9690  171.4200  140.0570 O   0  0  0  0  0  1  0  0  0  0  0  0
  189.4500  172.0180  142.3330 C   0  0  0  0  0  3  0  0  0  0  0  0
  1 21  1  6  0  0  0
  1 20  1  0  0  0  0
  1 19  1  0  0  0  0
  2  7  1  0  0  0  0
  4 12  1  0  0  0  0
  5 18  1  0  0  0  0
  6  9  2  0  0  0  0
  7  4  2  0  0  0  0
  7  5  1  0  0  0  0
  9  4  1  0  0  0  0
 10 14  1  0  0  0  0
 10 15  1  0  0  0  0
 11  5  2  0  0  0  0
 11 20  1  0  0  0  0
 12  8  2  0  0  0  0
 13 15  1  0  0  0  0
 14  3  1  0  0  0  0
 16  6  1  0  0  0  0
 17  6  1  0  0  0  0
 17  2  2  0  0  0  0
 18  8  1  0  0  0  0
 18 14  2  0  0  0  0
 19 13  1  0  0  0  0
 20 10  2  0  0  0  0
 21 24  1  0  0  0  0
 22 21  2  0  0  0  0
 23 28  1  0  0  0  0
 25 26  1  0  0  0  0
 26 23  2  0  0  0  0
 26 22  1  0  0  0  0
 27 23  1  0  0  0  0
 28 24  2  0  0  0  0
M  END
>  <MODEL>
1

>  <REMARK>
 VINA RESULT:      -8.7      0.000      0.000
  Name = 
  1 active torsions:
  status: ('A' for Active; 'I' for Inactive)
    1  A    between atoms: C_1  and  C_2
                            x       y       z     vdW  Elec       q    Type
                         _______ _______ _______ _____ _____    ______ ____

>  <TORSDO>
F 1

$$$$
=
 OpenBabel11052418153D

 28 32  0  0  1  0  0  0  0  0999 V2000
  190.2550  176.4560  144.7880 C   0  0  2  0  0  3  0  0  0  0  0  0
  186.0490  177.5130  141.9800 C   0  0  0  0  0  3  0  0  0  0  0  0
  186.8970  178.3000  148.1230 C   0  0  0  0  0  1  0  0  0  0  0  0
  184.4630  178.4060  143.5900 C   0  0  0  0  0  0  0  0  0  0  0  0
  186.6740  177.6970  144.3520 C   0  0  0  0  0  0  0  0  0  0  0  0
  183.8510  178.2230  141.2530 C   0  0  0  0  0  0  0  0  0  0  0  0
  185.7420  177.8680  143.3050 C   0  0  0  0  0  0  0  0  0  0  0  0
  185.0510  178.5980  145.9260 C   0  0  0  0  0  3  0  0  0  0  0  0
  183.5300  178.5800  142.5650 C   0  0  0  0  0  3  0  0  0  0  0  0
  188.5370  177.3760  146.4490 C   0  0  0  0  0  0  0  0  0  0  0  0
  187.9440  177.1640  144.1040 C   0  0  0  0  0  3  0  0  0  0  0  0
  184.1290  178.7660  144.8950 C   0  0  0  0  0  3  0  0  0  0  0  0
  190.9590  177.1890  147.0780 C   0  0  0  0  0  2  0  0  0  0  0  0
  187.2590  177.9040  146.7210 C   0  0  0  0  0  0  0  0  0  0  0  0
  189.5220  177.1770  147.5750 C   0  0  0  0  0  2  0  0  0  0  0  0
  182.9210  178.3970  140.2390 O   0  0  0  0  0  1  0  0  0  0  0  0
  185.1090  177.6910  140.9620 C   0  0  0  0  0  3  0  0  0  0  0  0
  186.3260  178.0670  145.6740 C   0  0  0  0  0  0  0  0  0  0  0  0
  191.1140  176.1210  146.0100 C   0  0  0  0  0  2  0  0  0  0  0  0
  188.8690  176.9710  145.1340 C   0  0  0  0  0  0  0  0  0  0  0  0
  190.2170  175.2850  143.8500 C   0  0  0  0  0  0  0  0  0  0  0  0
  189.7020  174.0460  144.2600 C   0  0  0  0  0  3  0  0  0  0  0  0
  190.1450  173.1280  142.0620 C   0  0  0  0  0  0  0  0  0  0  0  0
  190.6940  175.4390  142.5440 C   0  0  0  0  0  3  0  0  0  0  0  0
  189.1550  171.7480  143.7870 O   0  0  0  0  0  1  0  0  0  0  0  0
  189.6670  172.9700  143.3700 C   0  0  0  0  0  0  0  0  0  0  0  0
  190.1130  172.0660  141.1690 O   0  0  0  0  0  1  0  0  0  0  0  0
  190.6570  174.3640  141.6520 C   0  0  0  0  0  3  0  0  0  0  0  0
  1 21  1  6  0  0  0
  1 20  1  0  0  0  0
  1 19  1  0  0  0  0
  2  7  1  0  0  0  0
  4 12  1  0  0  0  0
  5 18  1  0  0  0  0
  6  9  2  0  0  0  0
  7  4  2  0  0  0  0
  7  5  1  0  0  0  0
  9  4  1  0  0  0  0
 10 14  1  0  0  0  0
 10 15  1  0  0  0  0
 11  5  2  0  0  0  0
 11 20  1  0  0  0  0
 12  8  2  0  0  0  0
 13 15  1  0  0  0  0
 14  3  1  0  0  0  0
 16  6  1  0  0  0  0
 17  6  1  0  0  0  0
 17  2  2  0  0  0  0
 18  8  1  0  0  0  0
 18 14  2  0  0  0  0
 19 13  1  0  0  0  0
 20 10  2  0  0  0  0
 21 22  1  0  0  0  0
 23 26  1  0  0  0  0
 24 21  2  0  0  0  0
 26 25  1  0  0  0  0
 26 22  2  0  0  0  0
 27 23  1  0  0  0  0
 28 23  2  0  0  0  0
 28 24  1  0  0  0  0
M  END
>  <MODEL>
2

>  <REMARK>
 VINA RESULT:      -8.6      1.361      1.827
  Name = 
  1 active torsions:
  status: ('A' for Active; 'I' for Inactive)
    1  A    between atoms: C_1  and  C_2
                            x       y       z     vdW  Elec       q    Type
                         _______ _______ _______ _____ _____    ______ ____

>  <TORSDO>
F 1

$$$$
=
 OpenBabel11052418153D

 28 32  0  0  1  0  0  0  0  0999 V2000
  185.4510  177.2610  144.3670 C   0  0  2  0  0  3  0  0  0  0  0  0
  190.0300  174.8680  144.3740 C   0  0  0  0  0  3  0  0  0  0  0  0
  187.8390  179.0370  148.4830 C   0  0  0  0  0  1  0  0  0  0  0  0
  191.1480  175.7200  146.3560 C   0  0  0  0  0  0  0  0  0  0  0  0
  188.9060  176.5210  145.8060 C   0  0  0  0  0  0  0  0  0  0  0  0
  192.2520  174.0910  144.9420 C   0  0  0  0  0  0  0  0  0  0  0  0
  190.0160  175.7020  145.5040 C   0  0  0  0  0  0  0  0  0  0  0  0
  190.0660  177.3450  147.7800 C   0  0  0  0  0  3  0  0  0  0  0  0
  192.2540  174.9160  146.0700 C   0  0  0  0  0  3  0  0  0  0  0  0
  186.6840  178.1490  146.4270 C   0  0  0  0  0  0  0  0  0  0  0  0
  187.7740  176.5300  144.9820 C   0  0  0  0  0  3  0  0  0  0  0  0
  191.1640  176.5380  147.4830 C   0  0  0  0  0  3  0  0  0  0  0  0
  184.2140  178.5000  146.1590 C   0  0  0  0  0  2  0  0  0  0  0  0
  187.8190  178.1630  147.2630 C   0  0  0  0  0  0  0  0  0  0  0  0
  185.5090  179.0420  146.7440 C   0  0  0  0  0  2  0  0  0  0  0  0
  193.3530  173.2950  144.6620 O   0  0  0  0  0  1  0  0  0  0  0  0
  191.1410  174.0670  144.0960 C   0  0  0  0  0  3  0  0  0  0  0  0
  188.9310  177.3490  146.9550 C   0  0  0  0  0  0  0  0  0  0  0  0
  184.3920  178.3250  144.6610 C   0  0  0  0  0  2  0  0  0  0  0  0
  186.6770  177.3510  145.2590 C   0  0  0  0  0  0  0  0  0  0  0  0
  185.7990  177.2720  142.9070 C   0  0  0  0  0  0  0  0  0  0  0  0
  186.7630  176.3960  142.3860 C   0  0  0  0  0  3  0  0  0  0  0  0
  186.4040  177.3100  140.1710 C   0  0  0  0  0  0  0  0  0  0  0  0
  185.1400  178.1640  142.0530 C   0  0  0  0  0  3  0  0  0  0  0  0
  188.0240  175.5440  140.5170 O   0  0  0  0  0  1  0  0  0  0  0  0
  187.0660  176.4160  141.0220 C   0  0  0  0  0  0  0  0  0  0  0  0
  186.6970  177.3370  138.8130 O   0  0  0  0  0  1  0  0  0  0  0  0
  185.4420  178.1830  140.6890 C   0  0  0  0  0  3  0  0  0  0  0  0
  1 21  1  6  0  0  0
  1 19  1  0  0  0  0
  1 20  1  0  0  0  0
  2  7  1  0  0  0  0
  4 12  1  0  0  0  0
  5 18  1  0  0  0  0
  6  9  2  0  0  0  0
  7  5  1  0  0  0  0
  7  4  2  0  0  0  0
  9  4  1  0  0  0  0
 10 15  1  0  0  0  0
 10 14  1  0  0  0  0
 11 20  1  0  0  0  0
 11  5  2  0  0  0  0
 12  8  2  0  0  0  0
 13 15  1  0  0  0  0
 14  3  1  0  0  0  0
 16  6  1  0  0  0  0
 17  2  2  0  0  0  0
 17  6  1  0  0  0  0
 18 14  2  0  0  0  0
 18  8  1  0  0  0  0
 19 13  1  0  0  0  0
 20 10  2  0  0  0  0
 22 21  1  0  0  0  0
 23 28  2  0  0  0  0
 23 26  1  0  0  0  0
 24 21  2  0  0  0  0
 25 26  1  0  0  0  0
 26 22  2  0  0  0  0
 27 23  1  0  0  0  0
 28 24  1  0  0  0  0
M  END
>  <MODEL>
3

>  <REMARK>
 VINA RESULT:      -8.5      2.057      6.175
  Name = 
  1 active torsions:
  status: ('A' for Active; 'I' for Inactive)
    1  A    between atoms: C_1  and  C_2
                            x       y       z     vdW  Elec       q    Type
                         _______ _______ _______ _____ _____    ______ ____

>  <TORSDO>
F 1

$$$$
=
 OpenBabel11052418153D

 28 32  0  0  1  0  0  0  0  0999 V2000
  189.1850  173.7520  142.0270 C   0  0  2  0  0  3  0  0  0  0  0  0
  187.3190  176.9540  145.6260 C   0  0  0  0  0  3  0  0  0  0  0  0
  186.5130  177.2060  139.4330 C   0  0  0  0  0  1  0  0  0  0  0  0
  186.0340  178.5870  144.3670 C   0  0  0  0  0  0  0  0  0  0  0  0
  187.1910  176.7950  143.1750 C   0  0  0  0  0  0  0  0  0  0  0  0
  186.1620  178.7410  146.7810 C   0  0  0  0  0  0  0  0  0  0  0  0
  186.8550  177.4340  144.3890 C   0  0  0  0  0  0  0  0  0  0  0  0
  185.8920  178.4540  141.9580 C   0  0  0  0  0  3  0  0  0  0  0  0
  185.6940  179.2310  145.5600 C   0  0  0  0  0  3  0  0  0  0  0  0
  187.8430  175.5150  140.7450 C   0  0  0  0  0  0  0  0  0  0  0  0
  188.0040  175.6560  143.1640 C   0  0  0  0  0  3  0  0  0  0  0  0
  185.5600  179.0870  143.1550 C   0  0  0  0  0  3  0  0  0  0  0  0
  188.5440  173.3770  139.6340 C   0  0  0  0  0  2  0  0  0  0  0  0
  187.0320  176.6680  140.7350 C   0  0  0  0  0  0  0  0  0  0  0  0
  188.2150  174.8500  139.4430 C   0  0  0  0  0  2  0  0  0  0  0  0
  185.8220  179.3840  147.9630 O   0  0  0  0  0  1  0  0  0  0  0  0
  186.9740  177.6040  146.8140 C   0  0  0  0  0  3  0  0  0  0  0  0
  186.7030  177.3100  141.9490 C   0  0  0  0  0  0  0  0  0  0  0  0
  189.6580  173.2560  140.6590 C   0  0  0  0  0  2  0  0  0  0  0  0
  188.3600  175.0260  141.9670 C   0  0  0  0  0  0  0  0  0  0  0  0
  190.3520  173.8650  142.9640 C   0  0  0  0  0  0  0  0  0  0  0  0
  191.4100  174.7480  142.6990 C   0  0  0  0  0  3  0  0  0  0  0  0
  192.5040  174.0610  144.7500 C   0  0  0  0  0  0  0  0  0  0  0  0
  190.3760  173.0840  144.1240 C   0  0  0  0  0  3  0  0  0  0  0  0
  193.5250  175.7240  143.3160 O   0  0  0  0  0  1  0  0  0  0  0  0
  192.4830  174.8460  143.5890 C   0  0  0  0  0  0  0  0  0  0  0  0
  193.5650  174.1520  145.6400 O   0  0  0  0  0  1  0  0  0  0  0  0
  191.4490  173.1820  145.0150 C   0  0  0  0  0  3  0  0  0  0  0  0
  1 21  1  1  0  0  0
  2 17  1  0  0  0  0
  3 14  1  0  0  0  0
  4  7  1  0  0  0  0
  4  9  2  0  0  0  0
  5  7  1  0  0  0  0
  6 17  2  0  0  0  0
  6 16  1  0  0  0  0
  7  2  2  0  0  0  0
  8 12  2  0  0  0  0
  9  6  1  0  0  0  0
 10 20  1  0  0  0  0
 11  5  1  0  0  0  0
 12  4  1  0  0  0  0
 13 19  1  0  0  0  0
 14 10  2  0  0  0  0
 14 18  1  0  0  0  0
 15 13  1  0  0  0  0
 15 10  1  0  0  0  0
 18  8  1  0  0  0  0
 18  5  2  0  0  0  0
 19  1  1  0  0  0  0
 20  1  1  0  0  0  0
 20 11  2  0  0  0  0
 21 24  1  0  0  0  0
 22 21  2  0  0  0  0
 22 26  1  0  0  0  0
 23 28  1  0  0  0  0
 23 27  1  0  0  0  0
 24 28  2  0  0  0  0
 25 26  1  0  0  0  0
 26 23  2  0  0  0  0
M  END
>  <MODEL>
4

>  <REMARK>
 VINA RESULT:      -8.1      2.607      4.770
  Name = 
  1 active torsions:
  status: ('A' for Active; 'I' for Inactive)
    1  A    between atoms: C_1  and  C_2
                            x       y       z     vdW  Elec       q    Type
                         _______ _______ _______ _____ _____    ______ ____

>  <TORSDO>
F 1

$$$$
=
 OpenBabel11052418153D

 28 32  0  0  1  0  0  0  0  0999 V2000
  191.8460  175.5420  143.5260 C   0  0  2  0  0  3  0  0  0  0  0  0
  187.4230  177.1670  141.4070 C   0  0  0  0  0  3  0  0  0  0  0  0
  189.2520  177.6210  147.3660 C   0  0  0  0  0  1  0  0  0  0  0  0
  186.2060  178.1690  143.2550 C   0  0  0  0  0  0  0  0  0  0  0  0
  188.4080  177.1900  143.6600 C   0  0  0  0  0  0  0  0  0  0  0  0
  185.2390  178.1440  141.0340 C   0  0  0  0  0  0  0  0  0  0  0  0
  187.3570  177.5030  142.7700 C   0  0  0  0  0  0  0  0  0  0  0  0
  187.1500  178.2060  145.4790 C   0  0  0  0  0  3  0  0  0  0  0  0
  185.1580  178.4850  142.3870 C   0  0  0  0  0  3  0  0  0  0  0  0
  190.5100  176.5840  145.4450 C   0  0  0  0  0  0  0  0  0  0  0  0
  189.5570  176.5280  143.2130 C   0  0  0  0  0  3  0  0  0  0  0  0
  186.1120  178.5140  144.6020 C   0  0  0  0  0  3  0  0  0  0  0  0
  192.9590  176.1040  145.6990 C   0  0  0  0  0  2  0  0  0  0  0  0
  189.3550  177.2410  145.9180 C   0  0  0  0  0  0  0  0  0  0  0  0
  191.6190  176.2340  146.4060 C   0  0  0  0  0  2  0  0  0  0  0  0
  184.1960  178.4590  140.1760 O   0  0  0  0  0  1  0  0  0  0  0  0
  186.3700  177.4860  140.5450 C   0  0  0  0  0  3  0  0  0  0  0  0
  188.3030  177.5460  145.0270 C   0  0  0  0  0  0  0  0  0  0  0  0
  192.8300  175.0670  144.5970 C   0  0  0  0  0  2  0  0  0  0  0  0
  190.5950  176.1940  144.0880 C   0  0  0  0  0  0  0  0  0  0  0  0
  191.5350  174.4190  142.5810 C   0  0  0  0  0  0  0  0  0  0  0  0
  190.7990  173.3000  143.0030 C   0  0  0  0  0  3  0  0  0  0  0  0
  190.9560  172.3510  140.7780 C   0  0  0  0  0  0  0  0  0  0  0  0
  191.9760  174.4970  141.2550 C   0  0  0  0  0  3  0  0  0  0  0  0
  189.7830  171.1660  142.5340 O   0  0  0  0  0  1  0  0  0  0  0  0
  190.5120  172.2690  142.1050 C   0  0  0  0  0  0  0  0  0  0  0  0
  190.6750  171.3320  139.8780 O   0  0  0  0  0  1  0  0  0  0  0  0
  191.6880  173.4660  140.3570 C   0  0  0  0  0  3  0  0  0  0  0  0
  1 21  1  1  0  0  0
  1 20  1  0  0  0  0
  1 19  1  0  0  0  0
  2  7  1  0  0  0  0
  4 12  1  0  0  0  0
  5 18  1  0  0  0  0
  6  9  2  0  0  0  0
  7  4  2  0  0  0  0
  7  5  1  0  0  0  0
  9  4  1  0  0  0  0
 10 14  1  0  0  0  0
 10 15  1  0  0  0  0
 11  5  2  0  0  0  0
 11 20  1  0  0  0  0
 12  8  2  0  0  0  0
 13 15  1  0  0  0  0
 14  3  1  0  0  0  0
 16  6  1  0  0  0  0
 17  6  1  0  0  0  0
 17  2  2  0  0  0  0
 18  8  1  0  0  0  0
 18 14  2  0  0  0  0
 19 13  1  0  0  0  0
 20 10  2  0  0  0  0
 21 22  1  0  0  0  0
 23 26  1  0  0  0  0
 24 21  2  0  0  0  0
 26 25  1  0  0  0  0
 26 22  2  0  0  0  0
 27 23  1  0  0  0  0
 28 23  2  0  0  0  0
 28 24  1  0  0  0  0
M  END
>  <MODEL>
5

>  <REMARK>
 VINA RESULT:      -8.0      1.484      1.979
  Name = 
  1 active torsions:
  status: ('A' for Active; 'I' for Inactive)
    1  A    between atoms: C_1  and  C_2
                            x       y       z     vdW  Elec       q    Type
                         _______ _______ _______ _____ _____    ______ ____

>  <TORSDO>
F 1

$$$$
=
 OpenBabel11052418153D

 28 32  0  0  1  0  0  0  0  0999 V2000
  191.5340  174.0200  143.9310 C   0  0  2  0  0  3  0  0  0  0  0  0
  187.8660  176.9670  146.0650 C   0  0  0  0  0  3  0  0  0  0  0  0
  188.1910  174.8420  140.1960 C   0  0  0  0  0  1  0  0  0  0  0  0
  186.2730  177.3350  144.2680 C   0  0  0  0  0  0  0  0  0  0  0  0
  188.2730  175.9980  143.8410 C   0  0  0  0  0  0  0  0  0  0  0  0
  185.8760  178.2870  146.4600 C   0  0  0  0  0  0  0  0  0  0  0  0
  187.4820  176.7600  144.7290 C   0  0  0  0  0  0  0  0  0  0  0  0
  186.6480  176.3950  142.0740 C   0  0  0  0  0  3  0  0  0  0  0  0
  185.4800  178.0920  145.1340 C   0  0  0  0  0  3  0  0  0  0  0  0
  189.8390  174.4630  142.0630 C   0  0  0  0  0  0  0  0  0  0  0  0
  189.4760  175.4210  144.2650 C   0  0  0  0  0  3  0  0  0  0  0  0
  185.8670  177.1490  142.9480 C   0  0  0  0  0  3  0  0  0  0  0  0
  191.5640  172.6560  141.8290 C   0  0  0  0  0  2  0  0  0  0  0  0
  188.6370  175.0460  141.6150 C   0  0  0  0  0  0  0  0  0  0  0  0
  190.6900  173.6670  141.1040 C   0  0  0  0  0  2  0  0  0  0  0  0
  185.0850  179.0410  147.3160 O   0  0  0  0  0  1  0  0  0  0  0  0
  187.0670  177.7250  146.9240 C   0  0  0  0  0  3  0  0  0  0  0  0
  187.8510  175.8140  142.5020 C   0  0  0  0  0  0  0  0  0  0  0  0
  192.4160  173.3900  142.8500 C   0  0  0  0  0  2  0  0  0  0  0  0
  190.2780  174.6810  143.3910 C   0  0  0  0  0  0  0  0  0  0  0  0
  192.3500  174.9450  144.7840 C   0  0  0  0  0  0  0  0  0  0  0  0
  193.4850  175.5920  144.2710 C   0  0  0  0  0  3  0  0  0  0  0  0
  193.8360  176.6820  146.4070 C   0  0  0  0  0  0  0  0  0  0  0  0
  191.9650  175.1720  146.1100 C   0  0  0  0  0  3  0  0  0  0  0  0
  195.3480  177.0920  144.5600 O   0  0  0  0  0  1  0  0  0  0  0  0
  194.2260  176.4570  145.0800 C   0  0  0  0  0  0  0  0  0  0  0  0
  194.5660  177.5410  147.2180 O   0  0  0  0  0  1  0  0  0  0  0  0
  192.7050  176.0380  146.9190 C   0  0  0  0  0  3  0  0  0  0  0  0
  1 21  1  6  0  0  0
  2 17  1  0  0  0  0
  3 14  1  0  0  0  0
  4  7  1  0  0  0  0
  4  9  2  0  0  0  0
  5 11  1  0  0  0  0
  5  7  1  0  0  0  0
  6 17  2  0  0  0  0
  6 16  1  0  0  0  0
  7  2  2  0  0  0  0
  8 18  1  0  0  0  0
  8 12  2  0  0  0  0
  9  6  1  0  0  0  0
 10 20  1  0  0  0  0
 12  4  1  0  0  0  0
 13 19  1  0  0  0  0
 14 10  2  0  0  0  0
 14 18  1  0  0  0  0
 15 13  1  0  0  0  0
 15 10  1  0  0  0  0
 18  5  2  0  0  0  0
 19  1  1  0  0  0  0
 20  1  1  0  0  0  0
 20 11  2  0  0  0  0
 21 24  1  0  0  0  0
 22 21  2  0  0  0  0
 22 26  1  0  0  0  0
 23 28  1  0  0  0  0
 23 27  1  0  0  0  0
 24 28  2  0  0  0  0
 25 26  1  0  0  0  0
 26 23  2  0  0  0  0
M  END
>  <MODEL>
6

>  <REMARK>
 VINA RESULT:      -7.9      3.027      5.156
  Name = 
  1 active torsions:
  status: ('A' for Active; 'I' for Inactive)
    1  A    between atoms: C_1  and  C_2
                            x       y       z     vdW  Elec       q    Type
                         _______ _______ _______ _____ _____    ______ ____

>  <TORSDO>
F 1

$$$$
=
 OpenBabel11052418153D

 28 32  0  0  1  0  0  0  0  0999 V2000
  192.3730  175.2830  143.6510 C   0  0  2  0  0  3  0  0  0  0  0  0
  187.4760  176.7510  142.9060 C   0  0  0  0  0  3  0  0  0  0  0  0
  190.8590  177.0870  148.1510 C   0  0  0  0  0  1  0  0  0  0  0  0
  186.7770  177.6230  145.0640 C   0  0  0  0  0  0  0  0  0  0  0  0
  189.0420  176.7450  144.8020 C   0  0  0  0  0  0  0  0  0  0  0  0
  185.2370  177.6260  143.1940 C   0  0  0  0  0  0  0  0  0  0  0  0
  187.7750  177.0350  144.2500 C   0  0  0  0  0  0  0  0  0  0  0  0
  188.2960  177.6290  146.9430 C   0  0  0  0  0  3  0  0  0  0  0  0
  185.5180  177.9140  144.5320 C   0  0  0  0  0  3  0  0  0  0  0  0
  191.5780  176.1850  145.9110 C   0  0  0  0  0  0  0  0  0  0  0  0
  190.0490  176.1600  144.0250 C   0  0  0  0  0  3  0  0  0  0  0  0
  187.0450  177.9140  146.4000 C   0  0  0  0  0  3  0  0  0  0  0  0
  194.0190  175.8240  145.4600 C   0  0  0  0  0  2  0  0  0  0  0  0
  190.5730  176.7640  146.7130 C   0  0  0  0  0  0  0  0  0  0  0  0
  192.9230  175.8600  146.5130 C   0  0  0  0  0  2  0  0  0  0  0  0
  183.9850  177.9170  142.6710 O   0  0  0  0  0  1  0  0  0  0  0  0
  186.2140  177.0450  142.3830 C   0  0  0  0  0  3  0  0  0  0  0  0
  189.3050  177.0460  146.1610 C   0  0  0  0  0  0  0  0  0  0  0  0
  193.6330  174.8220  144.3870 C   0  0  0  0  0  2  0  0  0  0  0  0
  191.3000  175.8500  144.5650 C   0  0  0  0  0  0  0  0  0  0  0  0
  191.8580  174.1800  142.7740 C   0  0  0  0  0  0  0  0  0  0  0  0
  191.7800  174.3380  141.3820 C   0  0  0  0  0  3  0  0  0  0  0  0
  190.9100  172.0860  141.1690 C   0  0  0  0  0  0  0  0  0  0  0  0
  191.4610  172.9710  143.3570 C   0  0  0  0  0  3  0  0  0  0  0  0
  191.2340  173.4630  139.2040 O   0  0  0  0  0  1  0  0  0  0  0  0
  191.3070  173.2950  140.5820 C   0  0  0  0  0  0  0  0  0  0  0  0
  190.4390  171.0440  140.3820 O   0  0  0  0  0  1  0  0  0  0  0  0
  190.9890  171.9270  142.5560 C   0  0  0  0  0  3  0  0  0  0  0  0
  1 21  1  1  0  0  0
  1 19  1  0  0  0  0
  1 20  1  0  0  0  0
  2  7  1  0  0  0  0
  4 12  1  0  0  0  0
  5 18  1  0  0  0  0
  6  9  2  0  0  0  0
  7  5  1  0  0  0  0
  7  4  2  0  0  0  0
  9  4  1  0  0  0  0
 10 15  1  0  0  0  0
 10 14  1  0  0  0  0
 11 20  1  0  0  0  0
 11  5  2  0  0  0  0
 12  8  2  0  0  0  0
 13 15  1  0  0  0  0
 14  3  1  0  0  0  0
 16  6  1  0  0  0  0
 17  2  2  0  0  0  0
 17  6  1  0  0  0  0
 18 14  2  0  0  0  0
 18  8  1  0  0  0  0
 19 13  1  0  0  0  0
 20 10  2  0  0  0  0
 21 24  1  0  0  0  0
 22 21  2  0  0  0  0
 23 28  1  0  0  0  0
 25 26  1  0  0  0  0
 26 23  2  0  0  0  0
 26 22  1  0  0  0  0
 27 23  1  0  0  0  0
 28 24  2  0  0  0  0
M  END
>  <MODEL>
7

>  <REMARK>
 VINA RESULT:      -7.9      1.583      2.339
  Name = 
  1 active torsions:
  status: ('A' for Active; 'I' for Inactive)
    1  A    between atoms: C_1  and  C_2
                            x       y       z     vdW  Elec       q    Type
                         _______ _______ _______ _____ _____    ______ ____

>  <TORSDO>
F 1

$$$$
=
 OpenBabel11052418153D

 28 32  0  0  1  0  0  0  0  0999 V2000
  186.3220  177.7090  145.8290 C   0  0  2  0  0  3  0  0  0  0  0  0
  189.6900  174.2700  143.9520 C   0  0  0  0  0  3  0  0  0  0  0  0
  190.4400  178.1890  148.7630 C   0  0  0  0  0  1  0  0  0  0  0  0
  191.6440  174.5060  145.3770 C   0  0  0  0  0  0  0  0  0  0  0  0
  189.6910  175.9180  145.7770 C   0  0  0  0  0  0  0  0  0  0  0  0
  191.6400  172.8850  143.5770 C   0  0  0  0  0  0  0  0  0  0  0  0
  190.3280  174.9020  145.0330 C   0  0  0  0  0  0  0  0  0  0  0  0
  191.6710  176.1170  147.1780 C   0  0  0  0  0  3  0  0  0  0  0  0
  192.2890  173.5030  144.6490 C   0  0  0  0  0  3  0  0  0  0  0  0
  188.4170  177.9390  147.2830 C   0  0  0  0  0  0  0  0  0  0  0  0
  188.3930  176.3350  145.4600 C   0  0  0  0  0  3  0  0  0  0  0  0
  192.3030  175.1150  146.4430 C   0  0  0  0  0  3  0  0  0  0  0  0
  186.2330  178.9360  148.0120 C   0  0  0  0  0  2  0  0  0  0  0  0
  189.7290  177.5410  147.6110 C   0  0  0  0  0  0  0  0  0  0  0  0
  187.7490  179.0400  148.0690 C   0  0  0  0  0  2  0  0  0  0  0  0
  192.2850  171.8890  142.8570 O   0  0  0  0  0  1  0  0  0  0  0  0
  190.3430  173.2680  143.2290 C   0  0  0  0  0  3  0  0  0  0  0  0
  190.3680  176.5300  146.8600 C   0  0  0  0  0  0  0  0  0  0  0  0
  185.7980  178.9490  146.5570 C   0  0  0  0  0  2  0  0  0  0  0  0
  187.7570  177.3540  146.1760 C   0  0  0  0  0  0  0  0  0  0  0  0
  186.1060  177.8530  144.3510 C   0  0  0  0  0  0  0  0  0  0  0  0
  184.8160  177.8140  143.8000 C   0  0  0  0  0  3  0  0  0  0  0  0
  185.7440  178.1450  141.5860 C   0  0  0  0  0  0  0  0  0  0  0  0
  187.2110  178.0390  143.5120 C   0  0  0  0  0  3  0  0  0  0  0  0
  183.3530  177.9180  141.8890 O   0  0  0  0  0  1  0  0  0  0  0  0
  184.6350  177.9580  142.4230 C   0  0  0  0  0  0  0  0  0  0  0  0
  185.5750  178.2910  140.2160 O   0  0  0  0  0  1  0  0  0  0  0  0
  187.0310  178.1850  142.1340 C   0  0  0  0  0  3  0  0  0  0  0  0
  1 21  1  6  0  0  0
  1 20  1  0  0  0  0
  1 19  1  0  0  0  0
  2  7  1  0  0  0  0
  4 12  1  0  0  0  0
  5 18  1  0  0  0  0
  6  9  2  0  0  0  0
  7  4  2  0  0  0  0
  7  5  1  0  0  0  0
  9  4  1  0  0  0  0
 10 14  1  0  0  0  0
 10 15  1  0  0  0  0
 11  5  2  0  0  0  0
 11 20  1  0  0  0  0
 12  8  2  0  0  0  0
 13 15  1  0  0  0  0
 14  3  1  0  0  0  0
 16  6  1  0  0  0  0
 17  6  1  0  0  0  0
 17  2  2  0  0  0  0
 18  8  1  0  0  0  0
 18 14  2  0  0  0  0
 19 13  1  0  0  0  0
 20 10  2  0  0  0  0
 22 21  1  0  0  0  0
 23 28  2  0  0  0  0
 23 26  1  0  0  0  0
 24 21  2  0  0  0  0
 25 26  1  0  0  0  0
 26 22  2  0  0  0  0
 27 23  1  0  0  0  0
 28 24  1  0  0  0  0
M  END
>  <MODEL>
8

>  <REMARK>
 VINA RESULT:      -7.9      1.725      6.563
  Name = 
  1 active torsions:
  status: ('A' for Active; 'I' for Inactive)
    1  A    between atoms: C_1  and  C_2
                            x       y       z     vdW  Elec       q    Type
                         _______ _______ _______ _____ _____    ______ ____

>  <TORSDO>
F 1

$$$$
=
 OpenBabel11052418153D

 28 32  0  0  1  0  0  0  0  0999 V2000
  193.6870  176.0680  143.5840 C   0  0  2  0  0  3  0  0  0  0  0  0
  188.9070  177.5740  142.3270 C   0  0  0  0  0  3  0  0  0  0  0  0
  191.1910  176.2910  148.0020 C   0  0  0  0  0  1  0  0  0  0  0  0
  187.7360  177.6880  144.4540 C   0  0  0  0  0  0  0  0  0  0  0  0
  190.0800  176.9980  144.4110 C   0  0  0  0  0  0  0  0  0  0  0  0
  186.5840  178.2540  142.3990 C   0  0  0  0  0  0  0  0  0  0  0  0
  188.9200  177.4180  143.7240 C   0  0  0  0  0  0  0  0  0  0  0  0
  188.8650  177.1280  146.5150 C   0  0  0  0  0  3  0  0  0  0  0  0
  186.5800  178.1030  143.7880 C   0  0  0  0  0  3  0  0  0  0  0  0
  192.4000  176.1760  145.7950 C   0  0  0  0  0  0  0  0  0  0  0  0
  191.2640  176.7190  143.7180 C   0  0  0  0  0  3  0  0  0  0  0  0
  187.7190  177.5410  145.8390 C   0  0  0  0  0  3  0  0  0  0  0  0
  194.9050  176.0400  145.7730 C   0  0  0  0  0  2  0  0  0  0  0  0
  191.2130  176.4410  146.5090 C   0  0  0  0  0  0  0  0  0  0  0  0
  193.6300  175.7080  146.5320 C   0  0  0  0  0  2  0  0  0  0  0  0
  185.4330  178.6660  141.7430 O   0  0  0  0  0  1  0  0  0  0  0  0
  187.7460  177.9890  141.6700 C   0  0  0  0  0  3  0  0  0  0  0  0
  190.0520  176.8530  145.8190 C   0  0  0  0  0  0  0  0  0  0  0  0
  194.8210  175.4270  144.3870 C   0  0  0  0  0  2  0  0  0  0  0  0
  192.4140  176.2840  144.3840 C   0  0  0  0  0  0  0  0  0  0  0  0
  193.4490  175.2930  142.3220 C   0  0  0  0  0  0  0  0  0  0  0  0
  192.5070  174.2530  142.2770 C   0  0  0  0  0  3  0  0  0  0  0  0
  193.0200  173.8820  139.9380 C   0  0  0  0  0  0  0  0  0  0  0  0
  194.1720  175.6220  141.1690 C   0  0  0  0  0  3  0  0  0  0  0  0
  191.3590  172.5210  141.0570 O   0  0  0  0  0  1  0  0  0  0  0  0
  192.2940  173.5490  141.0890 C   0  0  0  0  0  0  0  0  0  0  0  0
  192.8140  173.1890  138.7520 O   0  0  0  0  0  1  0  0  0  0  0  0
  193.9580  174.9190  139.9810 C   0  0  0  0  0  3  0  0  0  0  0  0
  1 21  1  6  0  0  0
  1 20  1  0  0  0  0
  1 19  1  0  0  0  0
  2  7  1  0  0  0  0
  4 12  1  0  0  0  0
  5 18  1  0  0  0  0
  6  9  2  0  0  0  0
  7  5  1  0  0  0  0
  7  4  2  0  0  0  0
  9  4  1  0  0  0  0
 10 14  1  0  0  0  0
 10 15  1  0  0  0  0
 11 20  1  0  0  0  0
 11  5  2  0  0  0  0
 12  8  2  0  0  0  0
 13 15  1  0  0  0  0
 14  3  1  0  0  0  0
 16  6  1  0  0  0  0
 17  2  2  0  0  0  0
 17  6  1  0  0  0  0
 18 14  2  0  0  0  0
 18  8  1  0  0  0  0
 19 13  1  0  0  0  0
 20 10  2  0  0  0  0
 22 21  1  0  0  0  0
 23 28  2  0  0  0  0
 23 26  1  0  0  0  0
 24 21  2  0  0  0  0
 25 26  1  0  0  0  0
 26 22  2  0  0  0  0
 27 23  1  0  0  0  0
 28 24  1  0  0  0  0
M  END
>  <MODEL>
9

>  <REMARK>
 VINA RESULT:      -7.8      2.319      3.461
  Name = 
  1 active torsions:
  status: ('A' for Active; 'I' for Inactive)
    1  A    between atoms: C_1  and  C_2
                            x       y       z     vdW  Elec       q    Type
                         _______ _______ _______ _____ _____    ______ ____

>  <TORSDO>
F 1

$$$$
