=
 OpenBabel11052420343D

 34 39  0  0  1  0  0  0  0  0999 V2000
  193.0090  174.9680  145.0570 N   0  0  0  0  0  0  0  0  0  0  0  0
  191.6270  174.3760  141.7920 C   0  0  0  0  0  3  0  0  0  0  0  0
  193.1150  175.9310  142.9200 N   0  0  0  0  0  0  0  0  0  0  0  0
  195.8090  174.8340  144.9980 C   0  0  0  0  0  1  0  0  0  0  0  0
  195.1770  175.9170  144.1350 C   0  0  2  0  0  0  0  0  0  0  0  0
  195.7550  177.1460  144.4590 O   0  0  0  0  0  1  0  0  0  0  0  0
  194.1630  175.9880  141.9200 C   0  0  0  0  0  2  0  0  0  0  0  0
  193.6490  176.0390  144.2750 C   0  0  2  0  0  3  0  0  0  0  0  0
  195.4390  175.6230  142.6600 C   0  0  0  0  0  2  0  0  0  0  0  0
  190.8510  173.0990  141.7800 C   0  0  0  0  0  2  0  0  0  0  0  0
  189.6520  173.1060  142.6810 C   0  0  0  0  0  0  0  0  0  0  0  0
  189.7460  173.3050  144.0010 C   0  0  0  0  0  3  0  0  0  0  0  0
  192.1370  174.8950  142.9100 C   0  0  0  0  0  0  0  0  0  0  0  0
  190.9470  173.7140  144.7520 C   0  0  0  0  0  3  0  0  0  0  0  0
  192.0000  174.3690  144.2490 C   0  0  0  0  0  0  0  0  0  0  0  0
  188.3150  172.7580  142.1010 C   0  0  1  0  0  3  0  0  0  0  0  0
  187.6650  173.9410  141.4870 C   0  0  0  0  0  2  0  0  0  0  0  0
  188.3240  172.9750  140.7080 O   0  0  0  0  0  0  0  0  0  0  0  0
  192.9850  174.9620  146.5170 C   0  0  0  0  0  2  0  0  0  0  0  0
  192.4530  176.2910  147.0340 C   0  0  0  0  0  2  0  0  0  0  0  0
  191.0510  176.1230  147.6020 C   0  0  0  0  0  2  0  0  0  0  0  0
  187.6700  176.4120  145.9070 C   0  0  0  0  0  3  0  0  0  0  0  0
  190.3810  177.2770  145.5400 C   0  0  0  0  0  3  0  0  0  0  0  0
  187.6910  177.5580  142.3230 N   0  0  0  0  0  0  0  0  0  0  0  0
  187.2480  177.0150  143.5800 C   0  0  0  0  0  3  0  0  0  0  0  0
  188.0540  177.0550  144.6420 C   0  0  0  0  0  0  0  0  0  0  0  0
  189.9080  177.9310  143.1760 C   0  0  0  0  0  3  0  0  0  0  0  0
  189.3630  177.8090  144.5710 C   0  0  2  0  0  3  0  0  0  0  0  0
  189.0820  177.8580  142.1280 C   0  0  0  0  0  3  0  0  0  0  0  0
  190.0160  176.5760  146.6230 C   0  0  0  0  0  0  0  0  0  0  0  0
  188.6000  176.2000  146.8440 C   0  0  0  0  0  3  0  0  0  0  0  0
  186.8580  177.5290  141.2550 O   0  0  0  0  0  0  0  0  0  0  0  0
  184.6910  178.2240  140.5460 C   0  0  0  0  0  1  0  0  0  0  0  0
  185.7240  178.2470  141.6540 C   0  0  0  0  0  2  0  0  0  0  0  0
  1 19  1  0  0  0  0
  2 13  2  0  0  0  0
  5  8  1  0  0  0  0
  5  6  1  0  0  0  0
  5  4  1  1  0  0  0
  7  9  1  0  0  0  0
  7  3  1  0  0  0  0
  8  3  1  6  0  0  0
  8  1  1  0  0  0  0
  9  5  1  0  0  0  0
 10  2  1  0  0  0  0
 10 11  1  0  0  0  0
 11 12  2  0  0  0  0
 12 14  1  0  0  0  0
 13  3  1  0  0  0  0
 13 15  1  0  0  0  0
 15 14  2  0  0  0  0
 15  1  1  0  0  0  0
 16 11  1  1  0  0  0
 17 16  1  0  0  0  0
 18 17  1  0  0  0  0
 18 16  1  0  0  0  0
 19 20  1  0  0  0  0
 20 21  1  0  0  0  0
 22 31  2  0  0  0  0
 23 30  2  0  0  0  0
 24 25  1  0  0  0  0
 25 26  2  0  0  0  0
 26 22  1  0  0  0  0
 28 27  1  6  0  0  0
 28 26  1  0  0  0  0
 28 23  1  0  0  0  0
 29 24  1  0  0  0  0
 29 27  2  0  0  0  0
 30 31  1  0  0  0  0
 30 21  1  0  0  0  0
 32 34  1  0  0  0  0
 32 24  1  0  0  0  0
 33 34  1  0  0  0  0
M  END
>  <MODEL>
1

>  <REMARK>
 VINA RESULT:      -7.4      0.000      0.000
  Name = 
  7 active torsions:
  status: ('A' for Active; 'I' for Inactive)
    1  A    between atoms: N_1  and  C_9
    2  A    between atoms: C_3  and  C_25
    3  A    between atoms: N_7  and  O_11
    4  A    between atoms: C_8  and  C_9
    5  A    between atoms: C_8  and  C_18
    6  A    between atoms: O_11  and  C_21
    7  A    between atoms: C_18  and  C_30
                            x       y       z     vdW  Elec       q    Type
                         _______ _______ _______ _____ _____    ______ ____

>  <TORSDO>
F 7

$$$$
=
 OpenBabel11052420343D

 34 39  0  0  1  0  0  0  0  0999 V2000
  192.9850  175.0440  145.0610 N   0  0  0  0  0  0  0  0  0  0  0  0
  191.7030  174.2260  141.8030 C   0  0  0  0  0  3  0  0  0  0  0  0
  193.1780  175.8410  142.8630 N   0  0  0  0  0  0  0  0  0  0  0  0
  195.7830  174.8670  145.1090 C   0  0  0  0  0  1  0  0  0  0  0  0
  195.1980  175.8900  144.1460 C   0  0  2  0  0  0  0  0  0  0  0  0
  195.7850  177.1320  144.3970 O   0  0  0  0  0  1  0  0  0  0  0  0
  194.2600  175.8080  141.8980 C   0  0  0  0  0  2  0  0  0  0  0  0
  193.6680  176.0440  144.2230 C   0  0  2  0  0  3  0  0  0  0  0  0
  195.5050  175.4820  142.7080 C   0  0  0  0  0  2  0  0  0  0  0  0
  190.9070  172.9630  141.8600 C   0  0  0  0  0  2  0  0  0  0  0  0
  189.6800  173.0540  142.7160 C   0  0  0  0  0  0  0  0  0  0  0  0
  189.7320  173.3510  144.0200 C   0  0  0  0  0  3  0  0  0  0  0  0
  192.1850  174.8200  142.8970 C   0  0  0  0  0  0  0  0  0  0  0  0
  190.9140  173.7990  144.7790 C   0  0  0  0  0  3  0  0  0  0  0  0
  191.9940  174.4000  144.2660 C   0  0  0  0  0  0  0  0  0  0  0  0
  188.3570  172.6820  142.1180 C   0  0  1  0  0  3  0  0  0  0  0  0
  187.5560  173.8830  141.7820 C   0  0  0  0  0  2  0  0  0  0  0  0
  188.2700  173.1760  140.7990 O   0  0  0  0  0  0  0  0  0  0  0  0
  192.9120  175.1480  146.5160 C   0  0  0  0  0  2  0  0  0  0  0  0
  192.5220  176.5640  146.9160 C   0  0  0  0  0  2  0  0  0  0  0  0
  191.1620  176.5710  147.6010 C   0  0  0  0  0  2  0  0  0  0  0  0
  189.3710  177.7890  144.4870 C   0  0  0  0  0  3  0  0  0  0  0  0
  188.8180  176.3430  146.9030 C   0  0  0  0  0  3  0  0  0  0  0  0
  185.6120  177.8370  144.6320 N   0  0  0  0  0  0  0  0  0  0  0  0
  186.9640  178.0720  144.2010 C   0  0  0  0  0  3  0  0  0  0  0  0
  187.9770  177.4820  144.8380 C   0  0  0  0  0  0  0  0  0  0  0  0
  186.3570  176.6060  146.5590 C   0  0  0  0  0  3  0  0  0  0  0  0
  187.7000  176.4460  145.9040 C   0  0  2  0  0  3  0  0  0  0  0  0
  185.3680  177.2280  145.9110 C   0  0  0  0  0  3  0  0  0  0  0  0
  190.0600  176.7540  146.6070 C   0  0  0  0  0  0  0  0  0  0  0  0
  190.3510  177.4310  145.3230 C   0  0  0  0  0  3  0  0  0  0  0  0
  184.5890  178.4270  143.9680 O   0  0  0  0  0  0  0  0  0  0  0  0
  183.5460  178.1740  141.8400 C   0  0  0  0  0  1  0  0  0  0  0  0
  184.8490  178.1950  142.6130 C   0  0  0  0  0  2  0  0  0  0  0  0
  1 19  1  0  0  0  0
  2 10  1  0  0  0  0
  2 13  2  0  0  0  0
  3 13  1  0  0  0  0
  5  8  1  0  0  0  0
  5  6  1  0  0  0  0
  5  4  1  1  0  0  0
  7  9  1  0  0  0  0
  7  3  1  0  0  0  0
  8  3  1  6  0  0  0
  8  1  1  0  0  0  0
  9  5  1  0  0  0  0
 10 11  1  0  0  0  0
 11 12  2  0  0  0  0
 12 14  1  0  0  0  0
 13 15  1  0  0  0  0
 15 14  2  0  0  0  0
 15  1  1  0  0  0  0
 16 11  1  1  0  0  0
 17 16  1  0  0  0  0
 18 17  1  0  0  0  0
 18 16  1  0  0  0  0
 19 20  1  0  0  0  0
 20 21  1  0  0  0  0
 22 26  1  0  0  0  0
 22 31  2  0  0  0  0
 24 29  1  0  0  0  0
 25 24  1  0  0  0  0
 25 26  2  0  0  0  0
 26 28  1  0  0  0  0
 28 27  1  1  0  0  0
 28 23  1  0  0  0  0
 29 27  2  0  0  0  0
 30 23  2  0  0  0  0
 30 21  1  0  0  0  0
 31 30  1  0  0  0  0
 32 24  1  0  0  0  0
 33 34  1  0  0  0  0
 34 32  1  0  0  0  0
M  END
>  <MODEL>
2

>  <REMARK>
 VINA RESULT:      -7.4      1.065      1.797
  Name = 
  7 active torsions:
  status: ('A' for Active; 'I' for Inactive)
    1  A    between atoms: N_1  and  C_9
    2  A    between atoms: C_3  and  C_25
    3  A    between atoms: N_7  and  O_11
    4  A    between atoms: C_8  and  C_9
    5  A    between atoms: C_8  and  C_18
    6  A    between atoms: O_11  and  C_21
    7  A    between atoms: C_18  and  C_30
                            x       y       z     vdW  Elec       q    Type
                         _______ _______ _______ _____ _____    ______ ____

>  <TORSDO>
F 7

$$$$
=
 OpenBabel11052420343D

 34 39  0  0  1  0  0  0  0  0999 V2000
  191.7690  175.9420  145.0670 N   0  0  0  0  0  0  0  0  0  0  0  0
  192.1610  174.4810  141.8050 C   0  0  0  0  0  3  0  0  0  0  0  0
  193.0730  176.2900  143.1480 N   0  0  0  0  0  0  0  0  0  0  0  0
  194.1640  175.8090  146.5170 C   0  0  0  0  0  1  0  0  0  0  0  0
  194.2120  176.6150  145.2270 C   0  0  2  0  0  0  0  0  0  0  0  0
  194.7110  177.8880  145.5090 O   0  0  0  0  0  1  0  0  0  0  0  0
  194.4780  176.0780  142.8650 C   0  0  0  0  0  2  0  0  0  0  0  0
  192.8570  176.7630  144.5120 C   0  0  2  0  0  3  0  0  0  0  0  0
  195.1410  175.9330  144.2250 C   0  0  0  0  0  2  0  0  0  0  0  0
  191.3290  173.2450  141.6860 C   0  0  0  0  0  2  0  0  0  0  0  0
  189.8540  173.4910  141.7950 C   0  0  0  0  0  0  0  0  0  0  0  0
  189.2930  174.0400  142.8780 C   0  0  0  0  0  3  0  0  0  0  0  0
  192.1020  175.2850  142.8680 C   0  0  0  0  0  0  0  0  0  0  0  0
  189.9930  174.6430  144.0280 C   0  0  0  0  0  3  0  0  0  0  0  0
  191.2350  175.1420  144.0160 C   0  0  0  0  0  0  0  0  0  0  0  0
  188.9600  172.9930  140.6990 C   0  0  1  0  0  3  0  0  0  0  0  0
  189.0780  173.8280  139.4800 C   0  0  0  0  0  2  0  0  0  0  0  0
  189.7350  172.5910  139.5920 O   0  0  0  0  0  0  0  0  0  0  0  0
  191.0090  176.3310  146.2510 C   0  0  0  0  0  2  0  0  0  0  0  0
  190.0170  177.4300  145.8950 C   0  0  0  0  0  2  0  0  0  0  0  0
  188.5940  176.9880  146.2070 C   0  0  0  0  0  2  0  0  0  0  0  0
  185.3790  178.6110  145.0150 C   0  0  0  0  0  3  0  0  0  0  0  0
  187.8570  177.6300  143.9530 C   0  0  0  0  0  3  0  0  0  0  0  0
  184.6650  178.3950  141.3280 N   0  0  0  0  0  0  0  0  0  0  0  0
  184.4950  178.6090  142.7400 C   0  0  0  0  0  3  0  0  0  0  0  0
  185.5440  178.5040  143.5590 C   0  0  0  0  0  0  0  0  0  0  0  0
  186.9420  177.6840  141.6280 C   0  0  0  0  0  3  0  0  0  0  0  0
  186.9330  178.3210  142.9900 C   0  0  2  0  0  3  0  0  0  0  0  0
  185.8680  177.7790  140.8400 C   0  0  0  0  0  3  0  0  0  0  0  0
  187.6160  177.6260  145.2720 C   0  0  0  0  0  0  0  0  0  0  0  0
  186.3680  178.2050  145.8190 C   0  0  0  0  0  3  0  0  0  0  0  0
  183.5980  178.5220  140.5030 O   0  0  0  0  0  0  0  0  0  0  0  0
  181.2210  178.6250  140.6590 C   0  0  0  0  0  1  0  0  0  0  0  0
  182.5020  178.0690  141.2480 C   0  0  0  0  0  2  0  0  0  0  0  0
  1 19  1  0  0  0  0
  2 13  2  0  0  0  0
  5  6  1  0  0  0  0
  5  4  1  1  0  0  0
  7  3  1  0  0  0  0
  7  9  1  0  0  0  0
  8  3  1  6  0  0  0
  8  1  1  0  0  0  0
  8  5  1  0  0  0  0
  9  5  1  0  0  0  0
 10 11  1  0  0  0  0
 10  2  1  0  0  0  0
 11 12  2  0  0  0  0
 12 14  1  0  0  0  0
 13  3  1  0  0  0  0
 13 15  1  0  0  0  0
 15 14  2  0  0  0  0
 15  1  1  0  0  0  0
 16 11  1  1  0  0  0
 17 18  1  0  0  0  0
 17 16  1  0  0  0  0
 18 16  1  0  0  0  0
 20 21  1  0  0  0  0
 20 19  1  0  0  0  0
 22 31  2  0  0  0  0
 23 30  2  0  0  0  0
 24 25  1  0  0  0  0
 25 26  2  0  0  0  0
 26 22  1  0  0  0  0
 28 27  1  6  0  0  0
 28 26  1  0  0  0  0
 28 23  1  0  0  0  0
 29 24  1  0  0  0  0
 29 27  2  0  0  0  0
 30 31  1  0  0  0  0
 30 21  1  0  0  0  0
 32 34  1  0  0  0  0
 32 24  1  0  0  0  0
 33 34  1  0  0  0  0
M  END
>  <MODEL>
3

>  <REMARK>
 VINA RESULT:      -7.1      1.699      2.412
  Name = 
  7 active torsions:
  status: ('A' for Active; 'I' for Inactive)
    1  A    between atoms: N_1  and  C_9
    2  A    between atoms: C_3  and  C_25
    3  A    between atoms: N_7  and  O_11
    4  A    between atoms: C_8  and  C_9
    5  A    between atoms: C_8  and  C_18
    6  A    between atoms: O_11  and  C_21
    7  A    between atoms: C_18  and  C_30
                            x       y       z     vdW  Elec       q    Type
                         _______ _______ _______ _____ _____    ______ ____

>  <TORSDO>
F 7

$$$$
=
 OpenBabel11052420343D

 34 39  0  0  1  0  0  0  0  0999 V2000
  194.7200  174.9690  143.9330 N   0  0  0  0  0  0  0  0  0  0  0  0
  193.0630  174.4350  140.7870 C   0  0  0  0  0  3  0  0  0  0  0  0
  194.7140  175.9140  141.7850 N   0  0  0  0  0  0  0  0  0  0  0  0
  197.4960  174.6830  143.6620 C   0  0  0  0  0  1  0  0  0  0  0  0
  196.8590  175.7950  142.8400 C   0  0  2  0  0  0  0  0  0  0  0  0
  197.5250  176.9920  143.1080 O   0  0  0  0  0  1  0  0  0  0  0  0
  195.6830  175.9080  140.7080 C   0  0  0  0  0  2  0  0  0  0  0  0
  195.3550  175.9990  143.0950 C   0  0  2  0  0  3  0  0  0  0  0  0
  196.9920  175.4790  141.3520 C   0  0  0  0  0  2  0  0  0  0  0  0
  192.2210  173.2020  140.8460 C   0  0  0  0  0  2  0  0  0  0  0  0
  191.0970  173.2780  141.8360 C   0  0  0  0  0  0  0  0  0  0  0  0
  191.3020  173.4790  143.1440 C   0  0  0  0  0  3  0  0  0  0  0  0
  193.6840  174.9310  141.8590 C   0  0  0  0  0  0  0  0  0  0  0  0
  192.5770  173.8260  143.7970 C   0  0  0  0  0  3  0  0  0  0  0  0
  193.6220  174.4210  143.2100 C   0  0  0  0  0  0  0  0  0  0  0  0
  189.7030  173.0000  141.3630 C   0  0  1  0  0  3  0  0  0  0  0  0
  189.0690  174.2150  140.7950 C   0  0  0  0  0  2  0  0  0  0  0  0
  189.6160  173.2150  139.9720 O   0  0  0  0  0  0  0  0  0  0  0  0
  194.8070  174.9710  145.3910 C   0  0  0  0  0  2  0  0  0  0  0  0
  194.5740  176.3780  145.9230 C   0  0  0  0  0  2  0  0  0  0  0  0
  193.4090  176.3930  146.9020 C   0  0  0  0  0  2  0  0  0  0  0  0
  190.8180  177.4980  144.3620 C   0  0  0  0  0  3  0  0  0  0  0  0
  191.0280  175.8270  146.6840 C   0  0  0  0  0  3  0  0  0  0  0  0
  187.2180  176.9150  145.2840 N   0  0  0  0  0  0  0  0  0  0  0  0
  188.3920  177.3980  144.6080 C   0  0  0  0  0  3  0  0  0  0  0  0
  189.5960  176.9430  144.9600 C   0  0  0  0  0  0  0  0  0  0  0  0
  188.5410  175.7020  146.8840 C   0  0  0  0  0  3  0  0  0  0  0  0
  189.7160  175.8080  145.9530 C   0  0  2  0  0  3  0  0  0  0  0  0
  187.3530  176.1920  146.5190 C   0  0  0  0  0  3  0  0  0  0  0  0
  192.1010  176.4550  146.1800 C   0  0  0  0  0  0  0  0  0  0  0  0
  192.0000  177.2530  144.9370 C   0  0  0  0  0  3  0  0  0  0  0  0
  185.9980  177.3700  144.9080 O   0  0  0  0  0  0  0  0  0  0  0  0
  184.4020  178.8630  145.8580 C   0  0  0  0  0  1  0  0  0  0  0  0
  185.3460  177.7030  146.1010 C   0  0  0  0  0  2  0  0  0  0  0  0
  1 19  1  0  0  0  0
  2 10  1  0  0  0  0
  2 13  2  0  0  0  0
  3 13  1  0  0  0  0
  5  8  1  0  0  0  0
  5  6  1  0  0  0  0
  5  4  1  1  0  0  0
  7  9  1  0  0  0  0
  7  3  1  0  0  0  0
  8  3  1  6  0  0  0
  8  1  1  0  0  0  0
  9  5  1  0  0  0  0
 10 11  1  0  0  0  0
 11 12  2  0  0  0  0
 12 14  1  0  0  0  0
 13 15  1  0  0  0  0
 15 14  2  0  0  0  0
 15  1  1  0  0  0  0
 16 11  1  1  0  0  0
 17 16  1  0  0  0  0
 18 17  1  0  0  0  0
 18 16  1  0  0  0  0
 19 20  1  0  0  0  0
 20 21  1  0  0  0  0
 22 31  2  0  0  0  0
 22 26  1  0  0  0  0
 24 29  1  0  0  0  0
 25 26  2  0  0  0  0
 25 24  1  0  0  0  0
 26 28  1  0  0  0  0
 28 23  1  1  0  0  0
 28 27  1  0  0  0  0
 29 27  2  0  0  0  0
 30 23  2  0  0  0  0
 30 21  1  0  0  0  0
 31 30  1  0  0  0  0
 32 24  1  0  0  0  0
 32 34  1  0  0  0  0
 33 34  1  0  0  0  0
M  END
>  <MODEL>
4

>  <REMARK>
 VINA RESULT:      -6.6      1.949      2.701
  Name = 
  7 active torsions:
  status: ('A' for Active; 'I' for Inactive)
    1  A    between atoms: N_1  and  C_9
    2  A    between atoms: C_3  and  C_25
    3  A    between atoms: N_7  and  O_11
    4  A    between atoms: C_8  and  C_9
    5  A    between atoms: C_8  and  C_18
    6  A    between atoms: O_11  and  C_21
    7  A    between atoms: C_18  and  C_30
                            x       y       z     vdW  Elec       q    Type
                         _______ _______ _______ _____ _____    ______ ____

>  <TORSDO>
F 7

$$$$
=
 OpenBabel11052420343D

 34 39  0  0  1  0  0  0  0  0999 V2000
  193.1610  172.9760  144.7710 N   0  0  0  0  0  0  0  0  0  0  0  0
  191.3660  171.9070  141.8440 C   0  0  0  0  0  3  0  0  0  0  0  0
  193.6530  172.1830  142.6180 N   0  0  0  0  0  0  0  0  0  0  0  0
  194.7750  170.9100  145.7640 C   0  0  0  0  0  1  0  0  0  0  0  0
  195.0950  171.3830  144.3520 C   0  0  2  0  0  0  0  0  0  0  0  0
  196.4490  171.7140  144.2840 O   0  0  0  0  0  1  0  0  0  0  0  0
  194.1950  170.9290  142.1340 C   0  0  0  0  0  2  0  0  0  0  0  0
  194.2670  172.5910  143.8780 C   0  0  2  0  0  3  0  0  0  0  0  0
  194.8100  170.2640  143.3550 C   0  0  0  0  0  2  0  0  0  0  0  0
  189.8980  171.8630  142.1230 C   0  0  0  0  0  2  0  0  0  0  0  0
  189.2980  173.1990  142.4440 C   0  0  0  0  0  0  0  0  0  0  0  0
  189.7060  173.9400  143.4810 C   0  0  0  0  0  3  0  0  0  0  0  0
  192.2480  172.3920  142.7210 C   0  0  0  0  0  0  0  0  0  0  0  0
  190.8740  173.6880  144.3450 C   0  0  0  0  0  3  0  0  0  0  0  0
  191.9560  172.9740  144.0110 C   0  0  0  0  0  0  0  0  0  0  0  0
  188.1180  173.6670  141.6480 C   0  0  1  0  0  3  0  0  0  0  0  0
  188.5390  174.4720  140.4760 C   0  0  0  0  0  2  0  0  0  0  0  0
  188.1690  173.1220  140.3480 O   0  0  0  0  0  0  0  0  0  0  0  0
  193.3580  173.7820  145.9720 C   0  0  0  0  0  2  0  0  0  0  0  0
  193.9360  175.1390  145.5990 C   0  0  0  0  0  2  0  0  0  0  0  0
  193.4300  176.2170  146.5480 C   0  0  0  0  0  2  0  0  0  0  0  0
  189.6640  176.6050  146.7830 C   0  0  0  0  0  3  0  0  0  0  0  0
  191.8160  177.2040  144.9820 C   0  0  0  0  0  3  0  0  0  0  0  0
  187.8590  177.3710  143.5720 N   0  0  0  0  0  0  0  0  0  0  0  0
  188.1160  176.9990  144.9380 C   0  0  0  0  0  3  0  0  0  0  0  0
  189.3540  177.0810  145.4270 C   0  0  0  0  0  0  0  0  0  0  0  0
  190.2050  177.6480  143.1240 C   0  0  0  0  0  3  0  0  0  0  0  0
  190.4530  177.7150  144.6040 C   0  0  2  0  0  3  0  0  0  0  0  0
  188.9580  177.5360  142.6600 C   0  0  0  0  0  3  0  0  0  0  0  0
  192.0470  176.6500  146.1810 C   0  0  0  0  0  0  0  0  0  0  0  0
  190.9400  176.4150  147.1360 C   0  0  0  0  0  3  0  0  0  0  0  0
  186.5960  177.3010  143.0900 O   0  0  0  0  0  0  0  0  0  0  0  0
  185.6550  179.4160  143.6580 C   0  0  0  0  0  1  0  0  0  0  0  0
  186.3230  178.5780  142.5860 C   0  0  0  0  0  2  0  0  0  0  0  0
  1 19  1  0  0  0  0
  2 10  1  0  0  0  0
  2 13  2  0  0  0  0
  3 13  1  0  0  0  0
  5  4  1  1  0  0  0
  6  5  1  0  0  0  0
  7  3  1  0  0  0  0
  7  9  1  0  0  0  0
  8  3  1  6  0  0  0
  8  5  1  0  0  0  0
  8  1  1  0  0  0  0
  9  5  1  0  0  0  0
 10 11  1  0  0  0  0
 11 12  2  0  0  0  0
 12 14  1  0  0  0  0
 13 15  1  0  0  0  0
 15 14  2  0  0  0  0
 15  1  1  0  0  0  0
 16 11  1  1  0  0  0
 17 16  1  0  0  0  0
 18 17  1  0  0  0  0
 18 16  1  0  0  0  0
 20 19  1  0  0  0  0
 20 21  1  0  0  0  0
 22 31  2  0  0  0  0
 23 30  2  0  0  0  0
 24 25  1  0  0  0  0
 25 26  2  0  0  0  0
 26 22  1  0  0  0  0
 28 27  1  6  0  0  0
 28 23  1  0  0  0  0
 28 26  1  0  0  0  0
 29 27  2  0  0  0  0
 29 24  1  0  0  0  0
 30 21  1  0  0  0  0
 30 31  1  0  0  0  0
 32 24  1  0  0  0  0
 34 32  1  0  0  0  0
 34 33  1  0  0  0  0
M  END
>  <MODEL>
5

>  <REMARK>
 VINA RESULT:      -6.4      2.190      2.610
  Name = 
  7 active torsions:
  status: ('A' for Active; 'I' for Inactive)
    1  A    between atoms: N_1  and  C_9
    2  A    between atoms: C_3  and  C_25
    3  A    between atoms: N_7  and  O_11
    4  A    between atoms: C_8  and  C_9
    5  A    between atoms: C_8  and  C_18
    6  A    between atoms: O_11  and  C_21
    7  A    between atoms: C_18  and  C_30
                            x       y       z     vdW  Elec       q    Type
                         _______ _______ _______ _____ _____    ______ ____

>  <TORSDO>
F 7

$$$$
=
 OpenBabel11052420343D

 34 39  0  0  1  0  0  0  0  0999 V2000
  189.6780  175.4240  144.2790 N   0  0  0  0  0  0  0  0  0  0  0  0
  186.6810  176.0320  142.3880 C   0  0  0  0  0  3  0  0  0  0  0  0
  188.8260  174.9120  142.1540 N   0  0  0  0  0  0  0  0  0  0  0  0
  190.0950  172.6750  144.6370 C   0  0  0  0  0  1  0  0  0  0  0  0
  190.0860  173.1640  143.1950 C   0  0  2  0  0  0  0  0  0  0  0  0
  191.2590  172.7390  142.5680 O   0  0  0  0  0  1  0  0  0  0  0  0
  188.3570  173.6770  141.5560 C   0  0  0  0  0  2  0  0  0  0  0  0
  189.9680  174.6910  143.0360 C   0  0  2  0  0  3  0  0  0  0  0  0
  188.8890  172.5730  142.4560 C   0  0  0  0  0  2  0  0  0  0  0  0
  185.6600  176.7150  143.2380 C   0  0  0  0  0  2  0  0  0  0  0  0
  186.0710  178.0790  143.7070 C   0  0  0  0  0  0  0  0  0  0  0  0
  187.1640  178.2850  144.4520 C   0  0  0  0  0  3  0  0  0  0  0  0
  187.9280  175.8050  142.8070 C   0  0  0  0  0  0  0  0  0  0  0  0
  188.2100  177.2990  144.7800 C   0  0  0  0  0  3  0  0  0  0  0  0
  188.5010  176.2000  144.0740 C   0  0  0  0  0  0  0  0  0  0  0  0
  185.1610  179.2380  143.4340 C   0  0  1  0  0  3  0  0  0  0  0  0
  184.1330  179.3830  144.4920 C   0  0  0  0  0  2  0  0  0  0  0  0
  185.2800  180.1950  144.4630 O   0  0  0  0  0  0  0  0  0  0  0  0
  190.7090  175.7640  145.2570 C   0  0  0  0  0  2  0  0  0  0  0  0
  190.2860  175.2940  146.6420 C   0  0  0  0  0  2  0  0  0  0  0  0
  191.4480  175.4030  147.6210 C   0  0  0  0  0  2  0  0  0  0  0  0
  194.5670  176.9370  146.1030 C   0  0  0  0  0  3  0  0  0  0  0  0
  193.2170  174.4090  146.2370 C   0  0  0  0  0  3  0  0  0  0  0  0
  196.2370  174.9680  143.3670 N   0  0  0  0  0  0  0  0  0  0  0  0
  195.8830  176.0460  144.2510 C   0  0  0  0  0  3  0  0  0  0  0  0
  195.0280  175.8310  145.2530 C   0  0  0  0  0  0  0  0  0  0  0  0
  194.6130  173.5060  144.3720 C   0  0  0  0  0  3  0  0  0  0  0  0
  194.5580  174.4270  145.5580 C   0  0  2  0  0  3  0  0  0  0  0  0
  195.4570  173.7610  143.3680 C   0  0  0  0  0  3  0  0  0  0  0  0
  192.7550  175.4800  146.8980 C   0  0  0  0  0  0  0  0  0  0  0  0
  193.4980  176.7600  146.8870 C   0  0  0  0  0  3  0  0  0  0  0  0
  197.1190  175.1910  142.3640 O   0  0  0  0  0  0  0  0  0  0  0  0
  195.9740  176.0150  140.4420 C   0  0  0  0  0  1  0  0  0  0  0  0
  196.6750  176.3630  141.7390 C   0  0  0  0  0  2  0  0  0  0  0  0
  1 19  1  0  0  0  0
  2 13  2  0  0  0  0
  2 10  1  0  0  0  0
  3 13  1  0  0  0  0
  5  4  1  1  0  0  0
  6  5  1  0  0  0  0
  7  3  1  0  0  0  0
  7  9  1  0  0  0  0
  8  3  1  6  0  0  0
  8  5  1  0  0  0  0
  8  1  1  0  0  0  0
  9  5  1  0  0  0  0
 10 11  1  0  0  0  0
 11 12  2  0  0  0  0
 12 14  1  0  0  0  0
 13 15  1  0  0  0  0
 15  1  1  0  0  0  0
 15 14  2  0  0  0  0
 16 11  1  1  0  0  0
 16 18  1  0  0  0  0
 16 17  1  0  0  0  0
 18 17  1  0  0  0  0
 19 20  1  0  0  0  0
 20 21  1  0  0  0  0
 22 31  2  0  0  0  0
 23 30  2  0  0  0  0
 24 29  1  0  0  0  0
 24 25  1  0  0  0  0
 25 26  2  0  0  0  0
 26 28  1  0  0  0  0
 26 22  1  0  0  0  0
 28 27  1  6  0  0  0
 28 23  1  0  0  0  0
 29 27  2  0  0  0  0
 30 21  1  0  0  0  0
 31 30  1  0  0  0  0
 32 24  1  0  0  0  0
 33 34  1  0  0  0  0
 34 32  1  0  0  0  0
M  END
>  <MODEL>
6

>  <REMARK>
 VINA RESULT:      -6.2      2.094      6.549
  Name = 
  7 active torsions:
  status: ('A' for Active; 'I' for Inactive)
    1  A    between atoms: N_1  and  C_9
    2  A    between atoms: C_3  and  C_25
    3  A    between atoms: N_7  and  O_11
    4  A    between atoms: C_8  and  C_9
    5  A    between atoms: C_8  and  C_18
    6  A    between atoms: O_11  and  C_21
    7  A    between atoms: C_18  and  C_30
                            x       y       z     vdW  Elec       q    Type
                         _______ _______ _______ _____ _____    ______ ____

>  <TORSDO>
F 7

$$$$
=
 OpenBabel11052420343D

 34 39  0  0  1  0  0  0  0  0999 V2000
  191.2500  175.1290  144.2630 N   0  0  0  0  0  0  0  0  0  0  0  0
  194.5050  175.2420  145.7840 C   0  0  0  0  0  3  0  0  0  0  0  0
  192.3960  176.4490  145.8270 N   0  0  0  0  0  0  0  0  0  0  0  0
  189.2510  174.7920  146.2000 C   0  0  0  0  0  1  0  0  0  0  0  0
  190.0870  176.0580  146.3210 C   0  0  2  0  0  0  0  0  0  0  0  0
  189.2320  177.1600  146.3700 O   0  0  0  0  0  1  0  0  0  0  0  0
  192.2680  176.6040  147.2620 C   0  0  0  0  0  2  0  0  0  0  0  0
  191.0990  176.2700  145.1800 C   0  0  2  0  0  3  0  0  0  0  0  0
  190.9090  176.0140  147.6060 C   0  0  0  0  0  2  0  0  0  0  0  0
  195.3110  174.0520  145.3760 C   0  0  0  0  0  2  0  0  0  0  0  0
  195.6030  173.9890  143.9070 C   0  0  0  0  0  0  0  0  0  0  0  0
  194.6380  173.9390  142.9820 C   0  0  0  0  0  3  0  0  0  0  0  0
  193.3070  175.5100  145.2620 C   0  0  0  0  0  0  0  0  0  0  0  0
  193.1900  174.1120  143.2040 C   0  0  0  0  0  3  0  0  0  0  0  0
  192.6270  174.7640  144.2280 C   0  0  0  0  0  0  0  0  0  0  0  0
  197.0290  173.8550  143.4630 C   0  0  1  0  0  3  0  0  0  0  0  0
  197.5740  175.1500  142.9890 C   0  0  0  0  0  2  0  0  0  0  0  0
  197.8610  174.6560  144.2730 O   0  0  0  0  0  0  0  0  0  0  0  0
  190.3150  174.8620  143.1730 C   0  0  0  0  0  2  0  0  0  0  0  0
  189.6630  176.1590  142.7170 C   0  0  0  0  0  2  0  0  0  0  0  0
  188.5290  175.8750  141.7420 C   0  0  0  0  0  2  0  0  0  0  0  0
  185.8430  177.6520  143.7450 C   0  0  0  0  0  3  0  0  0  0  0  0
  186.5940  177.2020  141.0130 C   0  0  0  0  0  3  0  0  0  0  0  0
  182.7430  178.6550  141.8640 N   0  0  0  0  0  0  0  0  0  0  0  0
  183.6550  178.3740  142.9410 C   0  0  0  0  0  3  0  0  0  0  0  0
  184.9210  178.0490  142.6720 C   0  0  0  0  0  0  0  0  0  0  0  0
  184.3620  177.9920  140.2150 C   0  0  0  0  0  3  0  0  0  0  0  0
  185.4390  178.1320  141.2540 C   0  0  2  0  0  3  0  0  0  0  0  0
  183.0980  178.2960  140.5190 C   0  0  0  0  0  3  0  0  0  0  0  0
  187.3450  176.7430  142.0250 C   0  0  0  0  0  0  0  0  0  0  0  0
  186.9930  177.0460  143.4310 C   0  0  0  0  0  3  0  0  0  0  0  0
  181.4650  179.0010  142.1480 O   0  0  0  0  0  0  0  0  0  0  0  0
  179.5420  179.5250  140.8400 C   0  0  0  0  0  1  0  0  0  0  0  0
  180.7180  178.5900  141.0370 C   0  0  0  0  0  2  0  0  0  0  0  0
  3  7  1  0  0  0  0
  5  4  1  6  0  0  0
  5  6  1  0  0  0  0
  5  9  1  0  0  0  0
  7  9  1  0  0  0  0
  8  1  1  6  0  0  0
  8  3  1  0  0  0  0
  8  5  1  0  0  0  0
 10  2  1  0  0  0  0
 11 10  1  0  0  0  0
 12 14  1  0  0  0  0
 12 11  2  0  0  0  0
 13  2  2  0  0  0  0
 13  3  1  0  0  0  0
 14 15  2  0  0  0  0
 15  1  1  0  0  0  0
 15 13  1  0  0  0  0
 16 11  1  1  0  0  0
 16 18  1  0  0  0  0
 17 16  1  0  0  0  0
 17 18  1  0  0  0  0
 19  1  1  0  0  0  0
 20 19  1  0  0  0  0
 21 30  1  0  0  0  0
 21 20  1  0  0  0  0
 23 28  1  0  0  0  0
 23 30  2  0  0  0  0
 24 32  1  0  0  0  0
 24 25  1  0  0  0  0
 26 25  2  0  0  0  0
 26 22  1  0  0  0  0
 27 29  2  0  0  0  0
 28 27  1  6  0  0  0
 28 26  1  0  0  0  0
 29 24  1  0  0  0  0
 30 31  1  0  0  0  0
 31 22  2  0  0  0  0
 33 34  1  0  0  0  0
 34 32  1  0  0  0  0
M  END
>  <MODEL>
7

>  <REMARK>
 VINA RESULT:      -6.0      2.477      5.592
  Name = 
  7 active torsions:
  status: ('A' for Active; 'I' for Inactive)
    1  A    between atoms: N_1  and  C_9
    2  A    between atoms: C_3  and  C_25
    3  A    between atoms: N_7  and  O_11
    4  A    between atoms: C_8  and  C_9
    5  A    between atoms: C_8  and  C_18
    6  A    between atoms: O_11  and  C_21
    7  A    between atoms: C_18  and  C_30
                            x       y       z     vdW  Elec       q    Type
                         _______ _______ _______ _____ _____    ______ ____

>  <TORSDO>
F 7

$$$$
=
 OpenBabel11052420343D

 34 39  0  0  1  0  0  0  0  0999 V2000
  190.4710  175.3410  144.3570 N   0  0  0  0  0  0  0  0  0  0  0  0
  193.9130  174.3570  144.0210 C   0  0  0  0  0  3  0  0  0  0  0  0
  192.5440  175.9040  145.3010 N   0  0  0  0  0  0  0  0  0  0  0  0
  189.5500  174.8830  146.9650 C   0  0  0  0  0  1  0  0  0  0  0  0
  190.7050  175.8660  146.8310 C   0  0  2  0  0  0  0  0  0  0  0  0
  190.3560  177.0590  147.4680 O   0  0  0  0  0  1  0  0  0  0  0  0
  193.1230  175.6690  146.6090 C   0  0  0  0  0  2  0  0  0  0  0  0
  191.1130  176.1820  145.3810 C   0  0  2  0  0  3  0  0  0  0  0  0
  191.9510  175.2950  147.5020 C   0  0  0  0  0  2  0  0  0  0  0  0
  194.0320  173.1930  143.0910 C   0  0  0  0  0  2  0  0  0  0  0  0
  193.6050  173.4900  141.6850 C   0  0  0  0  0  0  0  0  0  0  0  0
  192.3680  173.9010  141.3800 C   0  0  0  0  0  3  0  0  0  0  0  0
  192.7610  174.9990  144.2220 C   0  0  0  0  0  0  0  0  0  0  0  0
  191.3070  174.2940  142.3260 C   0  0  0  0  0  3  0  0  0  0  0  0
  191.4960  174.7300  143.5770 C   0  0  0  0  0  0  0  0  0  0  0  0
  194.5600  173.2020  140.5670 C   0  0  1  0  0  3  0  0  0  0  0  0
  195.1920  174.4430  140.0590 C   0  0  0  0  0  2  0  0  0  0  0  0
  195.8660  173.5810  140.9410 O   0  0  0  0  0  0  0  0  0  0  0  0
  189.1200  175.5890  143.8640 C   0  0  0  0  0  2  0  0  0  0  0  0
  188.9480  177.0650  143.5340 C   0  0  0  0  0  2  0  0  0  0  0  0
  188.0480  177.7410  144.5580 C   0  0  0  0  0  2  0  0  0  0  0  0
  184.3520  178.5640  144.3330 C   0  0  0  0  0  3  0  0  0  0  0  0
  186.6200  178.2070  142.6130 C   0  0  0  0  0  3  0  0  0  0  0  0
  182.7640  178.2130  140.9400 N   0  0  0  0  0  0  0  0  0  0  0  0
  182.9270  178.3700  142.3610 C   0  0  0  0  0  3  0  0  0  0  0  0
  184.1490  178.5110  142.8780 C   0  0  0  0  0  0  0  0  0  0  0  0
  185.1400  178.0610  140.6050 C   0  0  0  0  0  3  0  0  0  0  0  0
  185.3440  178.6660  141.9660 C   0  0  2  0  0  3  0  0  0  0  0  0
  183.9050  177.9040  140.1230 C   0  0  0  0  0  3  0  0  0  0  0  0
  186.7410  178.1360  143.9470 C   0  0  0  0  0  0  0  0  0  0  0  0
  185.5820  178.3980  144.8310 C   0  0  0  0  0  3  0  0  0  0  0  0
  181.5190  178.0890  140.4230 O   0  0  0  0  0  0  0  0  0  0  0  0
  179.4750  178.2600  141.6380 C   0  0  0  0  0  1  0  0  0  0  0  0
  180.7240  178.9730  141.1620 C   0  0  0  0  0  2  0  0  0  0  0  0
  2 13  2  0  0  0  0
  3  8  1  0  0  0  0
  3  7  1  0  0  0  0
  5  4  1  1  0  0  0
  5  6  1  0  0  0  0
  5  9  1  0  0  0  0
  7  9  1  0  0  0  0
  8  1  1  6  0  0  0
  8  5  1  0  0  0  0
 10  2  1  0  0  0  0
 11 10  1  0  0  0  0
 12 11  2  0  0  0  0
 12 14  1  0  0  0  0
 13  3  1  0  0  0  0
 14 15  2  0  0  0  0
 15 13  1  0  0  0  0
 15  1  1  0  0  0  0
 16 18  1  0  0  0  0
 16 11  1  1  0  0  0
 17 16  1  0  0  0  0
 17 18  1  0  0  0  0
 19  1  1  0  0  0  0
 20 19  1  0  0  0  0
 20 21  1  0  0  0  0
 22 31  2  0  0  0  0
 23 30  2  0  0  0  0
 24 25  1  0  0  0  0
 25 26  2  0  0  0  0
 26 22  1  0  0  0  0
 28 27  1  6  0  0  0
 28 23  1  0  0  0  0
 28 26  1  0  0  0  0
 29 27  2  0  0  0  0
 29 24  1  0  0  0  0
 30 21  1  0  0  0  0
 30 31  1  0  0  0  0
 32 24  1  0  0  0  0
 32 34  1  0  0  0  0
 34 33  1  0  0  0  0
M  END
>  <MODEL>
8

>  <REMARK>
 VINA RESULT:      -6.0      2.716      4.830
  Name = 
  7 active torsions:
  status: ('A' for Active; 'I' for Inactive)
    1  A    between atoms: N_1  and  C_9
    2  A    between atoms: C_3  and  C_25
    3  A    between atoms: N_7  and  O_11
    4  A    between atoms: C_8  and  C_9
    5  A    between atoms: C_8  and  C_18
    6  A    between atoms: O_11  and  C_21
    7  A    between atoms: C_18  and  C_30
                            x       y       z     vdW  Elec       q    Type
                         _______ _______ _______ _____ _____    ______ ____

>  <TORSDO>
F 7

$$$$
=
 OpenBabel11052420343D

 34 39  0  0  1  0  0  0  0  0999 V2000
  189.6680  176.2140  144.0210 N   0  0  0  0  0  0  0  0  0  0  0  0
  189.6810  172.6830  144.7030 C   0  0  0  0  0  3  0  0  0  0  0  0
  190.0000  174.7960  145.8610 N   0  0  0  0  0  0  0  0  0  0  0  0
  187.7060  177.5180  145.5400 C   0  0  0  0  0  1  0  0  0  0  0  0
  188.7980  176.8110  146.3310 C   0  0  2  0  0  0  0  0  0  0  0  0
  189.3650  177.7190  147.2280 O   0  0  0  0  0  1  0  0  0  0  0  0
  189.2050  174.5160  147.0400 C   0  0  0  0  0  2  0  0  0  0  0  0
  189.9200  176.2010  145.4720 C   0  0  2  0  0  3  0  0  0  0  0  0
  188.1970  175.6500  147.1190 C   0  0  0  0  0  2  0  0  0  0  0  0
  189.2550  171.9190  143.4930 C   0  0  0  0  0  2  0  0  0  0  0  0
  190.1830  172.0620  142.3230 C   0  0  0  0  0  0  0  0  0  0  0  0
  190.4560  173.2460  141.7620 C   0  0  0  0  0  3  0  0  0  0  0  0
  189.8840  174.0020  144.6840 C   0  0  0  0  0  0  0  0  0  0  0  0
  190.0680  174.5760  142.2670 C   0  0  0  0  0  3  0  0  0  0  0  0
  189.7810  174.8780  143.5390 C   0  0  0  0  0  0  0  0  0  0  0  0
  190.7300  170.8220  141.6840 C   0  0  1  0  0  3  0  0  0  0  0  0
  190.4250  170.7780  140.2340 C   0  0  0  0  0  2  0  0  0  0  0  0
  191.6890  171.1670  140.7090 O   0  0  0  0  0  0  0  0  0  0  0  0
  189.8880  177.3940  143.1900 C   0  0  0  0  0  2  0  0  0  0  0  0
  191.1980  178.0650  143.5780 C   0  0  0  0  0  2  0  0  0  0  0  0
  192.3660  177.4270  142.8390 C   0  0  0  0  0  2  0  0  0  0  0  0
  194.3490  176.0690  145.7730 C   0  0  0  0  0  3  0  0  0  0  0  0
  193.3030  175.1930  143.2490 C   0  0  0  0  0  3  0  0  0  0  0  0
  196.1920  172.8400  145.1940 N   0  0  0  0  0  0  0  0  0  0  0  0
  195.7570  174.0750  145.7890 C   0  0  0  0  0  3  0  0  0  0  0  0
  194.7430  174.7530  145.2500 C   0  0  0  0  0  0  0  0  0  0  0  0
  194.7210  173.1370  143.3150 C   0  0  0  0  0  3  0  0  0  0  0  0
  193.9470  174.1480  144.1150 C   0  0  2  0  0  3  0  0  0  0  0  0
  195.7520  172.4940  143.8700 C   0  0  0  0  0  3  0  0  0  0  0  0
  193.0720  176.4330  143.7050 C   0  0  0  0  0  0  0  0  0  0  0  0
  193.5490  176.8530  145.0420 C   0  0  0  0  0  3  0  0  0  0  0  0
  197.2120  172.1510  145.7590 O   0  0  0  0  0  0  0  0  0  0  0  0
  196.4330  170.0240  146.5010 C   0  0  0  0  0  1  0  0  0  0  0  0
  197.0250  170.8230  145.3580 C   0  0  0  0  0  2  0  0  0  0  0  0
  3  7  1  0  0  0  0
  5  4  1  6  0  0  0
  5  9  1  0  0  0  0
  5  6  1  0  0  0  0
  7  9  1  0  0  0  0
  8  1  1  6  0  0  0
  8  3  1  0  0  0  0
  8  5  1  0  0  0  0
 10  2  1  0  0  0  0
 11 10  1  0  0  0  0
 12 14  1  0  0  0  0
 12 11  2  0  0  0  0
 13  2  2  0  0  0  0
 13  3  1  0  0  0  0
 14 15  2  0  0  0  0
 15  1  1  0  0  0  0
 15 13  1  0  0  0  0
 16 11  1  1  0  0  0
 17 18  1  0  0  0  0
 17 16  1  0  0  0  0
 18 16  1  0  0  0  0
 19 20  1  0  0  0  0
 19  1  1  0  0  0  0
 21 20  1  0  0  0  0
 21 30  1  0  0  0  0
 23 30  2  0  0  0  0
 24 32  1  0  0  0  0
 24 25  1  0  0  0  0
 26 22  1  0  0  0  0
 26 25  2  0  0  0  0
 27 29  2  0  0  0  0
 27 28  1  0  0  0  0
 28 23  1  6  0  0  0
 28 26  1  0  0  0  0
 29 24  1  0  0  0  0
 30 31  1  0  0  0  0
 31 22  2  0  0  0  0
 34 32  1  0  0  0  0
 34 33  1  0  0  0  0
M  END
>  <MODEL>
9

>  <REMARK>
 VINA RESULT:      -6.0      2.630      6.871
  Name = 
  7 active torsions:
  status: ('A' for Active; 'I' for Inactive)
    1  A    between atoms: N_1  and  C_9
    2  A    between atoms: C_3  and  C_25
    3  A    between atoms: N_7  and  O_11
    4  A    between atoms: C_8  and  C_9
    5  A    between atoms: C_8  and  C_18
    6  A    between atoms: O_11  and  C_21
    7  A    between atoms: C_18  and  C_30
                            x       y       z     vdW  Elec       q    Type
                         _______ _______ _______ _____ _____    ______ ____

>  <TORSDO>
F 7

$$$$
