=
 OpenBabel11052417483D

 31 36  0  0  1  0  0  0  0  0999 V2000
  191.1330  171.0840  142.7840 C   0  0  0  0  0  0  0  0  0  0  0  0
  192.6210  173.7990  144.9580 C   0  0  0  0  0  0  0  0  0  0  0  0
  193.9390  173.4930  145.1680 C   0  0  0  0  0  0  0  0  0  0  0  0
  195.6380  171.6210  144.7710 C   0  0  0  0  0  3  0  0  0  0  0  0
  191.6630  172.9140  144.2330 C   0  0  0  0  0  0  0  0  0  0  0  0
  189.8650  171.3550  142.7810 N   0  0  0  0  0  0  0  0  0  0  0  0
  194.4230  172.1530  144.7660 C   0  0  0  0  0  3  0  0  0  0  0  0
  190.6880  175.3770  145.2510 C   0  0  0  0  0  0  0  0  0  0  0  0
  191.7100  169.6070  142.0450 Cl  0  0  0  0  0  0  0  0  0  0  0  0
  194.1780  175.7260  146.3790 C   0  0  0  0  0  3  0  0  0  0  0  0
  196.9010  172.2210  145.1850 C   0  0  0  0  0  3  0  0  0  0  0  0
  189.8600  174.4980  144.7680 N   0  0  0  0  0  0  0  0  0  0  0  0
  192.0700  175.0340  145.4740 N   0  0  0  0  0  0  0  0  0  0  0  0
  190.2420  176.7170  145.5240 N   0  0  0  0  0  2  0  0  0  0  0  0
  192.0590  171.9540  143.4460 N   0  0  0  0  0  0  0  0  0  0  0  0
  197.0960  173.4070  145.7410 C   0  0  0  0  0  3  0  0  0  0  0  0
  190.1890  173.1010  144.5010 C   0  0  1  0  0  3  0  0  0  0  0  0
  189.3520  172.6150  143.3170 C   0  0  0  0  0  2  0  0  0  0  0  0
  192.8910  175.9680  146.1850 C   0  0  0  0  0  3  0  0  0  0  0  0
  194.7950  174.4970  145.8750 C   0  0  0  0  0  0  0  0  0  0  0  0
  196.1090  174.4290  146.0870 C   0  0  0  0  0  3  0  0  0  0  0  0
  184.0750  178.2870  146.1070 N   0  0  0  0  0  2  0  0  0  0  0  0
  186.7960  177.8390  146.3810 C   0  0  0  0  0  0  0  0  0  0  0  0
  187.1390  178.2100  144.0110 C   0  0  0  0  0  3  0  0  0  0  0  0
  188.4350  177.6990  144.1260 C   0  0  0  0  0  3  0  0  0  0  0  0
  184.6890  178.5610  147.4080 C   0  0  0  0  0  2  0  0  0  0  0  0
  188.9190  177.2520  145.3670 C   0  0  0  0  0  0  0  0  0  0  0  0
  185.9580  177.9100  147.4960 O   0  0  0  0  0  0  0  0  0  0  0  0
  186.3150  178.2680  145.1370 C   0  0  0  0  0  0  0  0  0  0  0  0
  188.0910  177.3260  146.4930 C   0  0  0  0  0  3  0  0  0  0  0  0
  184.9320  178.8440  145.0560 C   0  0  0  0  0  2  0  0  0  0  0  0
  1 15  1  0  0  0  0
  2  3  2  0  0  0  0
  2 13  1  0  0  0  0
  3 20  1  0  0  0  0
  4 11  1  0  0  0  0
  5 17  1  0  0  0  0
  5  2  1  0  0  0  0
  6  1  2  0  0  0  0
  6 18  1  0  0  0  0
  7  4  2  0  0  0  0
  7  3  1  0  0  0  0
  8 13  1  0  0  0  0
  8 14  1  0  0  0  0
  9  1  1  0  0  0  0
 11 16  2  0  0  0  0
 12  8  2  0  0  0  0
 13 19  1  0  0  0  0
 15  5  2  0  0  0  0
 16 21  1  0  0  0  0
 17 18  1  6  0  0  0
 17 12  1  0  0  0  0
 19 10  2  0  0  0  0
 20 21  2  0  0  0  0
 20 10  1  0  0  0  0
 22 26  1  0  0  0  0
 23 30  1  0  0  0  0
 23 28  1  0  0  0  0
 24 25  2  0  0  0  0
 24 29  1  0  0  0  0
 25 27  1  0  0  0  0
 26 28  1  0  0  0  0
 27 14  1  0  0  0  0
 27 30  2  0  0  0  0
 29 23  2  0  0  0  0
 31 29  1  0  0  0  0
 31 22  1  0  0  0  0
M  END
>  <MODEL>
1

>  <REMARK>
 VINA RESULT:      -9.2      0.000      0.000
  Name = 
  1 active torsions:
  status: ('A' for Active; 'I' for Inactive)
    1  A    between atoms: C_9  and  N_23
                            x       y       z     vdW  Elec       q    Type
                         _______ _______ _______ _____ _____    ______ ____

>  <TORSDO>
F 1

$$$$
=
 OpenBabel11052417483D

 31 36  0  0  1  0  0  0  0  0999 V2000
  191.1770  171.0860  142.6850 C   0  0  0  0  0  0  0  0  0  0  0  0
  192.5460  173.7560  144.9880 C   0  0  0  0  0  0  0  0  0  0  0  0
  193.8900  173.5370  145.1320 C   0  0  0  0  0  0  0  0  0  0  0  0
  195.7050  171.8300  144.5490 C   0  0  0  0  0  3  0  0  0  0  0  0
  191.6270  172.8510  144.2380 C   0  0  0  0  0  0  0  0  0  0  0  0
  189.8930  171.2600  142.7440 N   0  0  0  0  0  0  0  0  0  0  0  0
  194.4550  172.2680  144.6230 C   0  0  0  0  0  3  0  0  0  0  0  0
  190.5160  175.1610  145.4550 C   0  0  0  0  0  0  0  0  0  0  0  0
  191.8310  169.7090  141.8260 Cl  0  0  0  0  0  0  0  0  0  0  0  0
  194.0120  175.6970  146.4850 C   0  0  0  0  0  3  0  0  0  0  0  0
  196.9360  172.4950  144.9610 C   0  0  0  0  0  3  0  0  0  0  0  0
  189.7360  174.2550  144.9420 N   0  0  0  0  0  0  0  0  0  0  0  0
  191.9270  174.9100  145.6070 N   0  0  0  0  0  0  0  0  0  0  0  0
  189.9830  176.4430  145.8340 N   0  0  0  0  0  2  0  0  0  0  0  0
  192.0610  171.9780  143.3730 N   0  0  0  0  0  0  0  0  0  0  0  0
  197.0650  173.6540  145.5890 C   0  0  0  0  0  3  0  0  0  0  0  0
  190.1560  172.9080  144.5680 C   0  0  1  0  0  3  0  0  0  0  0  0
  189.3110  172.4390  143.3820 C   0  0  0  0  0  2  0  0  0  0  0  0
  192.7050  175.8540  146.3520 C   0  0  0  0  0  3  0  0  0  0  0  0
  194.6970  174.5550  145.8770 C   0  0  0  0  0  0  0  0  0  0  0  0
  196.0200  174.5730  146.0390 C   0  0  0  0  0  3  0  0  0  0  0  0
  184.4870  179.4060  144.4810 N   0  0  0  0  0  2  0  0  0  0  0  0
  186.8790  178.0080  144.5000 C   0  0  0  0  0  0  0  0  0  0  0  0
  186.3840  177.1090  146.6960 C   0  0  0  0  0  3  0  0  0  0  0  0
  187.7030  176.6590  146.8010 C   0  0  0  0  0  3  0  0  0  0  0  0
  185.0710  179.0240  143.1930 C   0  0  0  0  0  2  0  0  0  0  0  0
  188.6200  176.8840  145.7600 C   0  0  0  0  0  0  0  0  0  0  0  0
  186.4500  178.6920  143.3610 O   0  0  0  0  0  0  0  0  0  0  0  0
  185.9760  177.7940  145.5500 C   0  0  0  0  0  0  0  0  0  0  0  0
  188.1980  177.5610  144.6100 C   0  0  0  0  0  3  0  0  0  0  0  0
  184.5570  178.2570  145.3880 C   0  0  0  0  0  2  0  0  0  0  0  0
  1  6  2  0  0  0  0
  1 15  1  0  0  0  0
  2  3  2  0  0  0  0
  2 13  1  0  0  0  0
  3 20  1  0  0  0  0
  4  7  2  0  0  0  0
  4 11  1  0  0  0  0
  5 17  1  0  0  0  0
  5  2  1  0  0  0  0
  6 18  1  0  0  0  0
  7  3  1  0  0  0  0
  8 13  1  0  0  0  0
  8 14  1  0  0  0  0
  9  1  1  0  0  0  0
 11 16  2  0  0  0  0
 12  8  2  0  0  0  0
 13 19  1  0  0  0  0
 15  5  2  0  0  0  0
 16 21  1  0  0  0  0
 17 18  1  6  0  0  0
 17 12  1  0  0  0  0
 19 10  2  0  0  0  0
 20 21  2  0  0  0  0
 20 10  1  0  0  0  0
 22 31  1  0  0  0  0
 23 30  2  0  0  0  0
 23 29  1  0  0  0  0
 24 25  1  0  0  0  0
 26 28  1  0  0  0  0
 26 22  1  0  0  0  0
 27 14  1  0  0  0  0
 27 25  2  0  0  0  0
 28 23  1  0  0  0  0
 29 24  2  0  0  0  0
 30 27  1  0  0  0  0
 31 29  1  0  0  0  0
M  END
>  <MODEL>
2

>  <REMARK>
 VINA RESULT:      -9.1      1.001      1.479
  Name = 
  1 active torsions:
  status: ('A' for Active; 'I' for Inactive)
    1  A    between atoms: C_9  and  N_23
                            x       y       z     vdW  Elec       q    Type
                         _______ _______ _______ _____ _____    ______ ____

>  <TORSDO>
F 1

$$$$
=
 OpenBabel11052417483D

 31 36  0  0  1  0  0  0  0  0999 V2000
  191.1310  173.4410  140.1680 C   0  0  0  0  0  0  0  0  0  0  0  0
  192.6360  175.2790  143.1110 C   0  0  0  0  0  0  0  0  0  0  0  0
  193.9970  175.2680  142.9610 C   0  0  0  0  0  0  0  0  0  0  0  0
  195.8320  174.2490  141.4980 C   0  0  0  0  0  3  0  0  0  0  0  0
  191.6890  174.5640  142.2070 C   0  0  0  0  0  0  0  0  0  0  0  0
  189.8740  173.3480  140.4750 N   0  0  0  0  0  0  0  0  0  0  0  0
  194.5820  174.3970  141.9180 C   0  0  0  0  0  3  0  0  0  0  0  0
  190.6010  176.0260  144.3810 C   0  0  0  0  0  0  0  0  0  0  0  0
  191.7440  172.6160  138.7520 Cl  0  0  0  0  0  0  0  0  0  0  0  0
  194.1530  176.7660  145.0220 C   0  0  0  0  0  3  0  0  0  0  0  0
  197.0400  174.9250  141.9550 C   0  0  0  0  0  3  0  0  0  0  0  0
  189.8370  175.2480  143.6720 N   0  0  0  0  0  0  0  0  0  0  0  0
  192.0320  175.9950  144.2160 N   0  0  0  0  0  0  0  0  0  0  0  0
  190.0190  176.9620  145.3070 N   0  0  0  0  0  2  0  0  0  0  0  0
  192.0320  174.1620  141.0160 N   0  0  0  0  0  0  0  0  0  0  0  0
  197.1660  175.7760  142.9630 C   0  0  0  0  0  3  0  0  0  0  0  0
  190.3180  174.2300  142.7420 C   0  0  1  0  0  3  0  0  0  0  0  0
  189.3070  174.0860  141.6030 C   0  0  0  0  0  2  0  0  0  0  0  0
  192.8360  176.7230  145.1510 C   0  0  0  0  0  3  0  0  0  0  0  0
  194.8210  176.0690  143.9210 C   0  0  0  0  0  0  0  0  0  0  0  0
  196.1400  176.2630  143.8840 C   0  0  0  0  0  3  0  0  0  0  0  0
  183.9900  179.0320  145.7620 N   0  0  0  0  0  2  0  0  0  0  0  0
  186.4930  178.1200  144.9970 C   0  0  0  0  0  0  0  0  0  0  0  0
  186.6740  176.7940  147.0170 C   0  0  0  0  0  3  0  0  0  0  0  0
  188.0310  176.5870  146.7510 C   0  0  0  0  0  3  0  0  0  0  0  0
  184.2970  178.9840  144.3310 C   0  0  0  0  0  2  0  0  0  0  0  0
  188.6290  177.1480  145.6100 C   0  0  0  0  0  0  0  0  0  0  0  0
  185.7090  178.8910  144.1360 O   0  0  0  0  0  0  0  0  0  0  0  0
  185.9080  177.5710  146.1460 C   0  0  0  0  0  0  0  0  0  0  0  0
  187.8500  177.9150  144.7360 C   0  0  0  0  0  3  0  0  0  0  0  0
  184.4420  177.7820  146.3820 C   0  0  0  0  0  2  0  0  0  0  0  0
  1  6  2  0  0  0  0
  1 15  1  0  0  0  0
  2 13  1  0  0  0  0
  3  2  2  0  0  0  0
  3 20  1  0  0  0  0
  4  7  2  0  0  0  0
  4 11  1  0  0  0  0
  5 17  1  0  0  0  0
  5  2  1  0  0  0  0
  6 18  1  0  0  0  0
  7  3  1  0  0  0  0
  8 14  1  0  0  0  0
  9  1  1  0  0  0  0
 10 19  2  0  0  0  0
 11 16  2  0  0  0  0
 12  8  2  0  0  0  0
 13  8  1  0  0  0  0
 13 19  1  0  0  0  0
 14 27  1  0  0  0  0
 15  5  2  0  0  0  0
 16 21  1  0  0  0  0
 17 18  1  6  0  0  0
 17 12  1  0  0  0  0
 20 10  1  0  0  0  0
 21 20  2  0  0  0  0
 22 31  1  0  0  0  0
 23 29  1  0  0  0  0
 25 24  1  0  0  0  0
 26 22  1  0  0  0  0
 27 25  2  0  0  0  0
 28 26  1  0  0  0  0
 28 23  1  0  0  0  0
 29 31  1  0  0  0  0
 29 24  2  0  0  0  0
 30 23  2  0  0  0  0
 30 27  1  0  0  0  0
M  END
>  <MODEL>
3

>  <REMARK>
 VINA RESULT:      -8.7      2.439      2.675
  Name = 
  1 active torsions:
  status: ('A' for Active; 'I' for Inactive)
    1  A    between atoms: C_9  and  N_23
                            x       y       z     vdW  Elec       q    Type
                         _______ _______ _______ _____ _____    ______ ____

>  <TORSDO>
F 1

$$$$
=
 OpenBabel11052417483D

 31 36  0  0  1  0  0  0  0  0999 V2000
  185.2200  177.8370  140.9390 C   0  0  0  0  0  0  0  0  0  0  0  0
  187.2730  177.4860  144.0970 C   0  0  0  0  0  0  0  0  0  0  0  0
  186.4740  177.8250  145.1560 C   0  0  0  0  0  0  0  0  0  0  0  0
  184.1700  178.8080  145.6810 C   0  0  0  0  0  3  0  0  0  0  0  0
  186.8580  177.5970  142.6680 C   0  0  0  0  0  0  0  0  0  0  0  0
  186.0880  177.6700  139.9900 N   0  0  0  0  0  0  0  0  0  0  0  0
  185.1660  178.4580  144.8770 C   0  0  0  0  0  3  0  0  0  0  0  0
  189.4690  176.6360  143.2240 C   0  0  0  0  0  0  0  0  0  0  0  0
  183.5850  178.3210  140.5490 Cl  0  0  0  0  0  0  0  0  0  0  0  0
  188.3810  177.1400  146.7070 C   0  0  0  0  0  3  0  0  0  0  0  0
  184.0660  178.6660  147.1280 C   0  0  0  0  0  3  0  0  0  0  0  0
  189.1240  176.9150  142.0010 N   0  0  0  0  0  0  0  0  0  0  0  0
  188.6200  177.0080  144.3270 N   0  0  0  0  0  0  0  0  0  0  0  0
  190.6830  175.9080  143.4830 N   0  0  0  0  0  2  0  0  0  0  0  0
  185.6090  177.6910  142.3100 N   0  0  0  0  0  0  0  0  0  0  0  0
  184.9910  178.2370  147.9740 C   0  0  0  0  0  3  0  0  0  0  0  0
  187.9440  177.6880  141.6240 C   0  0  1  0  0  3  0  0  0  0  0  0
  187.4410  177.1900  140.2680 C   0  0  0  0  0  2  0  0  0  0  0  0
  189.1330  176.8550  145.6550 C   0  0  0  0  0  3  0  0  0  0  0  0
  187.0080  177.6190  146.5400 C   0  0  0  0  0  0  0  0  0  0  0  0
  186.3560  177.7940  147.6900 C   0  0  0  0  0  3  0  0  0  0  0  0
  195.5690  175.2850  139.4120 N   0  0  0  0  0  2  0  0  0  0  0  0
  193.8660  175.6760  141.5620 C   0  0  0  0  0  0  0  0  0  0  0  0
  192.3630  173.9630  140.7370 C   0  0  0  0  0  3  0  0  0  0  0  0
  191.3950  174.3800  141.6560 C   0  0  0  0  0  3  0  0  0  0  0  0
  196.1410  175.8020  140.6580 C   0  0  0  0  0  2  0  0  0  0  0  0
  191.6530  175.4490  142.5300 C   0  0  0  0  0  0  0  0  0  0  0  0
  195.1040  176.3170  141.4950 O   0  0  0  0  0  0  0  0  0  0  0  0
  193.5930  174.6200  140.6830 C   0  0  0  0  0  0  0  0  0  0  0  0
  192.8950  176.0930  142.4770 C   0  0  0  0  0  3  0  0  0  0  0  0
  194.6680  174.1750  139.7340 C   0  0  0  0  0  2  0  0  0  0  0  0
  1 15  1  0  0  0  0
  2 13  1  0  0  0  0
  2  3  2  0  0  0  0
  3 20  1  0  0  0  0
  4 11  1  0  0  0  0
  5  2  1  0  0  0  0
  6 18  1  0  0  0  0
  6  1  2  0  0  0  0
  7  3  1  0  0  0  0
  7  4  2  0  0  0  0
  8 14  1  0  0  0  0
  8 13  1  0  0  0  0
  9  1  1  0  0  0  0
 11 16  2  0  0  0  0
 12  8  2  0  0  0  0
 13 19  1  0  0  0  0
 15  5  2  0  0  0  0
 17 18  1  6  0  0  0
 17 12  1  0  0  0  0
 17  5  1  0  0  0  0
 19 10  2  0  0  0  0
 20 10  1  0  0  0  0
 20 21  2  0  0  0  0
 21 16  1  0  0  0  0
 22 31  1  0  0  0  0
 22 26  1  0  0  0  0
 23 30  1  0  0  0  0
 24 25  2  0  0  0  0
 25 27  1  0  0  0  0
 26 28  1  0  0  0  0
 27 14  1  0  0  0  0
 28 23  1  0  0  0  0
 29 24  1  0  0  0  0
 29 23  2  0  0  0  0
 30 27  2  0  0  0  0
 31 29  1  0  0  0  0
M  END
>  <MODEL>
4

>  <REMARK>
 VINA RESULT:      -8.7      4.425      8.999
  Name = 
  1 active torsions:
  status: ('A' for Active; 'I' for Inactive)
    1  A    between atoms: C_9  and  N_23
                            x       y       z     vdW  Elec       q    Type
                         _______ _______ _______ _____ _____    ______ ____

>  <TORSDO>
F 1

$$$$
=
 OpenBabel11052417483D

 31 36  0  0  1  0  0  0  0  0999 V2000
  185.1130  177.8760  140.8050 C   0  0  0  0  0  0  0  0  0  0  0  0
  187.1220  176.8570  143.8440 C   0  0  0  0  0  0  0  0  0  0  0  0
  186.4770  177.3370  144.9520 C   0  0  0  0  0  0  0  0  0  0  0  0
  184.5250  178.8480  145.6260 C   0  0  0  0  0  3  0  0  0  0  0  0
  186.6970  177.1420  142.4420 C   0  0  0  0  0  0  0  0  0  0  0  0
  185.8730  177.5410  139.8090 N   0  0  0  0  0  0  0  0  0  0  0  0
  185.3660  178.2950  144.7610 C   0  0  0  0  0  3  0  0  0  0  0  0
  188.9920  175.5200  142.8330 C   0  0  0  0  0  0  0  0  0  0  0  0
  183.6440  178.7810  140.5130 Cl  0  0  0  0  0  0  0  0  0  0  0  0
  188.2000  176.1110  146.3820 C   0  0  0  0  0  3  0  0  0  0  0  0
  184.4410  178.6660  147.0700 C   0  0  0  0  0  3  0  0  0  0  0  0
  188.6850  175.9380  141.6400 N   0  0  0  0  0  0  0  0  0  0  0  0
  188.3090  176.0410  143.9890 N   0  0  0  0  0  0  0  0  0  0  0  0
  189.9880  174.4940  143.0050 N   0  0  0  0  0  2  0  0  0  0  0  0
  185.5020  177.5690  142.1490 N   0  0  0  0  0  0  0  0  0  0  0  0
  185.2560  177.9740  147.8520 C   0  0  0  0  0  3  0  0  0  0  0  0
  187.7300  177.0040  141.3510 C   0  0  1  0  0  3  0  0  0  0  0  0
  187.0660  176.7180  140.0020 C   0  0  0  0  0  2  0  0  0  0  0  0
  188.8140  175.6970  145.2840 C   0  0  0  0  0  3  0  0  0  0  0  0
  186.9910  176.9330  146.3000 C   0  0  0  0  0  0  0  0  0  0  0  0
  186.4490  177.2120  147.4860 C   0  0  0  0  0  3  0  0  0  0  0  0
  192.6280  170.4020  138.8680 N   0  0  0  0  0  2  0  0  0  0  0  0
  190.9920  172.0440  140.3870 C   0  0  0  0  0  0  0  0  0  0  0  0
  192.7650  173.6820  140.6030 C   0  0  0  0  0  3  0  0  0  0  0  0
  192.0280  174.3380  141.5930 C   0  0  0  0  0  3  0  0  0  0  0  0
  191.1800  170.3030  138.6700 C   0  0  0  0  0  2  0  0  0  0  0  0
  190.7710  173.8510  141.9900 C   0  0  0  0  0  0  0  0  0  0  0  0
  190.4940  170.8900  139.7770 O   0  0  0  0  0  0  0  0  0  0  0  0
  192.2510  172.5270  140.0090 C   0  0  0  0  0  0  0  0  0  0  0  0
  190.2590  172.7000  141.3790 C   0  0  0  0  0  3  0  0  0  0  0  0
  192.9990  171.8190  138.9180 C   0  0  0  0  0  2  0  0  0  0  0  0
  1 15  1  0  0  0  0
  2 13  1  0  0  0  0
  2  3  2  0  0  0  0
  3 20  1  0  0  0  0
  4 11  1  0  0  0  0
  5  2  1  0  0  0  0
  6 18  1  0  0  0  0
  6  1  2  0  0  0  0
  7  3  1  0  0  0  0
  7  4  2  0  0  0  0
  8 14  1  0  0  0  0
  8 13  1  0  0  0  0
  9  1  1  0  0  0  0
 11 16  2  0  0  0  0
 12  8  2  0  0  0  0
 13 19  1  0  0  0  0
 15  5  2  0  0  0  0
 17 18  1  6  0  0  0
 17 12  1  0  0  0  0
 17  5  1  0  0  0  0
 19 10  2  0  0  0  0
 20 10  1  0  0  0  0
 20 21  2  0  0  0  0
 21 16  1  0  0  0  0
 22 31  1  0  0  0  0
 23 30  1  0  0  0  0
 24 25  2  0  0  0  0
 25 27  1  0  0  0  0
 26 22  1  0  0  0  0
 26 28  1  0  0  0  0
 27 14  1  0  0  0  0
 28 23  1  0  0  0  0
 29 23  2  0  0  0  0
 29 24  1  0  0  0  0
 30 27  2  0  0  0  0
 31 29  1  0  0  0  0
M  END
>  <MODEL>
5

>  <REMARK>
 VINA RESULT:      -8.6      4.586      9.061
  Name = 
  1 active torsions:
  status: ('A' for Active; 'I' for Inactive)
    1  A    between atoms: C_9  and  N_23
                            x       y       z     vdW  Elec       q    Type
                         _______ _______ _______ _____ _____    ______ ____

>  <TORSDO>
F 1

$$$$
=
 OpenBabel11052417483D

 31 36  0  0  1  0  0  0  0  0999 V2000
  191.1360  176.1370  147.0870 C   0  0  0  0  0  0  0  0  0  0  0  0
  188.1270  176.2520  144.7980 C   0  0  0  0  0  0  0  0  0  0  0  0
  187.1870  177.0580  145.3820 C   0  0  0  0  0  0  0  0  0  0  0  0
  186.7110  178.3090  147.5630 C   0  0  0  0  0  3  0  0  0  0  0  0
  189.4170  175.8700  145.4430 C   0  0  0  0  0  0  0  0  0  0  0  0
  191.8930  175.2300  146.5520 N   0  0  0  0  0  0  0  0  0  0  0  0
  187.3950  177.4810  146.7840 C   0  0  0  0  0  3  0  0  0  0  0  0
  188.8730  174.8500  142.8520 C   0  0  0  0  0  0  0  0  0  0  0  0
  191.5660  176.8270  148.6360 Cl  0  0  0  0  0  0  0  0  0  0  0  0
  185.7690  176.7870  143.2770 C   0  0  0  0  0  3  0  0  0  0  0  0
  185.5100  179.0760  147.2550 C   0  0  0  0  0  3  0  0  0  0  0  0
  189.8970  174.4100  143.5240 N   0  0  0  0  0  0  0  0  0  0  0  0
  187.8890  175.6900  143.4850 N   0  0  0  0  0  0  0  0  0  0  0  0
  188.7400  174.5390  141.4530 N   0  0  0  0  0  2  0  0  0  0  0  0
  189.9170  176.5330  146.4470 N   0  0  0  0  0  0  0  0  0  0  0  0
  184.7810  179.0410  146.1490 C   0  0  0  0  0  3  0  0  0  0  0  0
  190.1080  174.6210  144.9530 C   0  0  1  0  0  3  0  0  0  0  0  0
  191.6130  174.6870  145.2240 C   0  0  0  0  0  2  0  0  0  0  0  0
  186.6880  175.9850  142.7630 C   0  0  0  0  0  3  0  0  0  0  0  0
  185.9560  177.3920  144.5980 C   0  0  0  0  0  0  0  0  0  0  0  0
  184.9800  178.2300  144.9480 C   0  0  0  0  0  3  0  0  0  0  0  0
  191.4790  169.8910  138.0290 N   0  0  0  0  0  2  0  0  0  0  0  0
  189.8620  171.8530  139.1300 C   0  0  0  0  0  0  0  0  0  0  0  0
  191.8040  173.1560  139.7670 C   0  0  0  0  0  3  0  0  0  0  0  0
  190.9890  173.9690  140.5590 C   0  0  0  0  0  3  0  0  0  0  0  0
  190.1230  170.0440  137.4960 C   0  0  0  0  0  2  0  0  0  0  0  0
  189.6070  173.7290  140.6460 C   0  0  0  0  0  0  0  0  0  0  0  0
  189.3180  170.7850  138.4140 O   0  0  0  0  0  0  0  0  0  0  0  0
  191.2410  172.0900  139.0620 C   0  0  0  0  0  0  0  0  0  0  0  0
  189.0500  172.6660  139.9260 C   0  0  0  0  0  3  0  0  0  0  0  0
  192.0800  171.2200  138.1730 C   0  0  0  0  0  2  0  0  0  0  0  0
  1  9  1  0  0  0  0
  2  3  2  0  0  0  0
  2  5  1  0  0  0  0
  3  7  1  0  0  0  0
  5 15  2  0  0  0  0
  6  1  2  0  0  0  0
  7  4  2  0  0  0  0
  8 13  1  0  0  0  0
  8 12  2  0  0  0  0
 10 20  1  0  0  0  0
 11  4  1  0  0  0  0
 12 17  1  0  0  0  0
 13  2  1  0  0  0  0
 14  8  1  0  0  0  0
 15  1  1  0  0  0  0
 16 11  2  0  0  0  0
 17 18  1  6  0  0  0
 17  5  1  0  0  0  0
 18  6  1  0  0  0  0
 19 10  2  0  0  0  0
 19 13  1  0  0  0  0
 20 21  2  0  0  0  0
 20  3  1  0  0  0  0
 21 16  1  0  0  0  0
 22 31  1  0  0  0  0
 23 30  1  0  0  0  0
 24 25  2  0  0  0  0
 25 27  1  0  0  0  0
 26 22  1  0  0  0  0
 26 28  1  0  0  0  0
 27 14  1  0  0  0  0
 28 23  1  0  0  0  0
 29 23  2  0  0  0  0
 29 24  1  0  0  0  0
 30 27  2  0  0  0  0
 31 29  1  0  0  0  0
M  END
>  <MODEL>
6

>  <REMARK>
 VINA RESULT:      -8.6      3.974      8.810
  Name = 
  1 active torsions:
  status: ('A' for Active; 'I' for Inactive)
    1  A    between atoms: C_9  and  N_23
                            x       y       z     vdW  Elec       q    Type
                         _______ _______ _______ _____ _____    ______ ____

>  <TORSDO>
F 1

$$$$
=
 OpenBabel11052417483D

 31 36  0  0  1  0  0  0  0  0999 V2000
  188.9720  174.1660  140.1140 C   0  0  0  0  0  0  0  0  0  0  0  0
  189.1160  175.8960  143.4740 C   0  0  0  0  0  0  0  0  0  0  0  0
  187.9380  176.5710  143.6490 C   0  0  0  0  0  0  0  0  0  0  0  0
  185.8050  177.2180  142.3910 C   0  0  0  0  0  3  0  0  0  0  0  0
  189.4870  175.1730  142.2230 C   0  0  0  0  0  0  0  0  0  0  0  0
  190.1740  173.7040  139.9550 N   0  0  0  0  0  0  0  0  0  0  0  0
  187.0240  176.7030  142.4930 C   0  0  0  0  0  3  0  0  0  0  0  0
  191.3460  175.1600  144.3670 C   0  0  0  0  0  0  0  0  0  0  0  0
  187.8170  174.0530  138.8050 Cl  0  0  0  0  0  0  0  0  0  0  0  0
  188.7240  177.1660  146.0030 C   0  0  0  0  0  3  0  0  0  0  0  0
  184.9760  177.8250  143.4250 C   0  0  0  0  0  3  0  0  0  0  0  0
  191.6920  174.6960  143.2020 N   0  0  0  0  0  0  0  0  0  0  0  0
  190.1060  175.8760  144.5310 N   0  0  0  0  0  0  0  0  0  0  0  0
  192.1790  174.9210  145.5160 N   0  0  0  0  0  2  0  0  0  0  0  0
  188.6040  174.8250  141.3310 N   0  0  0  0  0  0  0  0  0  0  0  0
  185.3010  178.0810  144.6830 C   0  0  0  0  0  3  0  0  0  0  0  0
  190.9520  174.9200  141.9630 C   0  0  1  0  0  3  0  0  0  0  0  0
  191.1440  173.7080  141.0490 C   0  0  0  0  0  2  0  0  0  0  0  0
  189.8650  176.5310  145.7810 C   0  0  0  0  0  3  0  0  0  0  0  0
  187.6810  177.2150  144.9760 C   0  0  0  0  0  0  0  0  0  0  0  0
  186.5660  177.8280  145.3720 C   0  0  0  0  0  3  0  0  0  0  0  0
  196.9070  170.6680  146.1370 N   0  0  0  0  0  2  0  0  0  0  0  0
  194.6480  172.1330  145.4840 C   0  0  0  0  0  0  0  0  0  0  0  0
  195.8640  174.2110  145.7630 C   0  0  0  0  0  3  0  0  0  0  0  0
  194.6560  174.9150  145.7180 C   0  0  0  0  0  3  0  0  0  0  0  0
  195.9020  170.0370  145.2780 C   0  0  0  0  0  2  0  0  0  0  0  0
  193.4370  174.2340  145.5610 C   0  0  0  0  0  0  0  0  0  0  0  0
  194.6640  170.7410  145.3760 O   0  0  0  0  0  0  0  0  0  0  0  0
  195.8570  172.8190  145.6580 C   0  0  0  0  0  0  0  0  0  0  0  0
  193.4430  172.8390  145.4440 C   0  0  0  0  0  3  0  0  0  0  0  0
  197.1370  172.0360  145.6640 C   0  0  0  0  0  2  0  0  0  0  0  0
  1 15  1  0  0  0  0
  2  3  2  0  0  0  0
  2 13  1  0  0  0  0
  3 20  1  0  0  0  0
  4  7  2  0  0  0  0
  4 11  1  0  0  0  0
  5  2  1  0  0  0  0
  6  1  2  0  0  0  0
  6 18  1  0  0  0  0
  7  3  1  0  0  0  0
  8 13  1  0  0  0  0
  8 14  1  0  0  0  0
  9  1  1  0  0  0  0
 11 16  2  0  0  0  0
 12  8  2  0  0  0  0
 13 19  1  0  0  0  0
 14 27  1  0  0  0  0
 15  5  2  0  0  0  0
 16 21  1  0  0  0  0
 17 18  1  6  0  0  0
 17  5  1  0  0  0  0
 17 12  1  0  0  0  0
 19 10  2  0  0  0  0
 20 21  2  0  0  0  0
 20 10  1  0  0  0  0
 23 29  1  0  0  0  0
 25 24  1  0  0  0  0
 26 28  1  0  0  0  0
 26 22  1  0  0  0  0
 27 25  2  0  0  0  0
 28 23  1  0  0  0  0
 29 31  1  0  0  0  0
 29 24  2  0  0  0  0
 30 23  2  0  0  0  0
 30 27  1  0  0  0  0
 31 22  1  0  0  0  0
M  END
>  <MODEL>
7

>  <REMARK>
 VINA RESULT:      -8.4      3.196      8.375
  Name = 
  1 active torsions:
  status: ('A' for Active; 'I' for Inactive)
    1  A    between atoms: C_9  and  N_23
                            x       y       z     vdW  Elec       q    Type
                         _______ _______ _______ _____ _____    ______ ____

>  <TORSDO>
F 1

$$$$
=
 OpenBabel11052417483D

 31 36  0  0  1  0  0  0  0  0999 V2000
  186.7690  176.7190  140.7770 C   0  0  0  0  0  0  0  0  0  0  0  0
  187.5470  176.4590  144.4700 C   0  0  0  0  0  0  0  0  0  0  0  0
  186.6190  177.2050  145.1470 C   0  0  0  0  0  0  0  0  0  0  0  0
  184.7090  178.8590  144.7400 C   0  0  0  0  0  3  0  0  0  0  0  0
  187.6410  176.3930  142.9820 C   0  0  0  0  0  0  0  0  0  0  0  0
  187.7810  176.1380  140.2090 N   0  0  0  0  0  0  0  0  0  0  0  0
  185.7330  178.0990  144.3710 C   0  0  0  0  0  3  0  0  0  0  0  0
  189.5090  174.8900  144.5010 C   0  0  0  0  0  0  0  0  0  0  0  0
  185.5750  177.5400  139.7970 Cl  0  0  0  0  0  0  0  0  0  0  0  0
  187.6440  176.3500  147.3220 C   0  0  0  0  0  3  0  0  0  0  0  0
  184.1340  179.0400  146.0680 C   0  0  0  0  0  3  0  0  0  0  0  0
  189.6570  175.0040  143.2130 N   0  0  0  0  0  0  0  0  0  0  0  0
  188.5330  175.6900  145.1980 N   0  0  0  0  0  0  0  0  0  0  0  0
  190.2860  173.9280  145.2350 N   0  0  0  0  0  2  0  0  0  0  0  0
  186.6580  176.7480  142.2050 N   0  0  0  0  0  0  0  0  0  0  0  0
  184.5720  178.5530  147.2190 C   0  0  0  0  0  3  0  0  0  0  0  0
  188.9600  175.9770  142.3770 C   0  0  1  0  0  3  0  0  0  0  0  0
  188.7570  175.3750  140.9850 C   0  0  0  0  0  2  0  0  0  0  0  0
  188.5440  175.6700  146.6300 C   0  0  0  0  0  3  0  0  0  0  0  0
  186.6150  177.1410  146.6430 C   0  0  0  0  0  0  0  0  0  0  0  0
  185.7400  177.7100  147.4720 C   0  0  0  0  0  3  0  0  0  0  0  0
  195.6750  171.2420  143.0930 N   0  0  0  0  0  2  0  0  0  0  0  0
  193.6530  172.5180  144.4940 C   0  0  0  0  0  0  0  0  0  0  0  0
  191.9910  171.0490  143.5170 C   0  0  0  0  0  3  0  0  0  0  0  0
  190.9800  171.8850  144.0000 C   0  0  0  0  0  3  0  0  0  0  0  0
  196.0210  171.8970  144.3570 C   0  0  0  0  0  2  0  0  0  0  0  0
  191.2960  173.0440  144.7280 C   0  0  0  0  0  0  0  0  0  0  0  0
  194.9960  172.8220  144.7250 O   0  0  0  0  0  0  0  0  0  0  0  0
  193.3280  171.3730  143.7540 C   0  0  0  0  0  0  0  0  0  0  0  0
  192.6400  173.3530  144.9720 C   0  0  0  0  0  3  0  0  0  0  0  0
  194.4370  170.4790  143.2830 C   0  0  0  0  0  2  0  0  0  0  0  0
  1 15  1  0  0  0  0
  2  3  2  0  0  0  0
  2 13  1  0  0  0  0
  3 20  1  0  0  0  0
  4 11  1  0  0  0  0
  5  2  1  0  0  0  0
  6  1  2  0  0  0  0
  6 18  1  0  0  0  0
  7  4  2  0  0  0  0
  7  3  1  0  0  0  0
  8 13  1  0  0  0  0
  8 14  1  0  0  0  0
  9  1  1  0  0  0  0
 11 16  2  0  0  0  0
 12  8  2  0  0  0  0
 13 19  1  0  0  0  0
 15  5  2  0  0  0  0
 16 21  1  0  0  0  0
 17 18  1  6  0  0  0
 17  5  1  0  0  0  0
 17 12  1  0  0  0  0
 19 10  2  0  0  0  0
 20 10  1  0  0  0  0
 20 21  2  0  0  0  0
 22 31  1  0  0  0  0
 22 26  1  0  0  0  0
 23 28  1  0  0  0  0
 23 30  1  0  0  0  0
 24 29  1  0  0  0  0
 24 25  2  0  0  0  0
 25 27  1  0  0  0  0
 26 28  1  0  0  0  0
 27 30  2  0  0  0  0
 27 14  1  0  0  0  0
 29 23  2  0  0  0  0
 31 29  1  0  0  0  0
M  END
>  <MODEL>
8

>  <REMARK>
 VINA RESULT:      -8.1      3.387      8.758
  Name = 
  1 active torsions:
  status: ('A' for Active; 'I' for Inactive)
    1  A    between atoms: C_9  and  N_23
                            x       y       z     vdW  Elec       q    Type
                         _______ _______ _______ _____ _____    ______ ____

>  <TORSDO>
F 1

$$$$
=
 OpenBabel11052417483D

 31 36  0  0  1  0  0  0  0  0999 V2000
  191.5730  171.7910  143.7960 C   0  0  0  0  0  0  0  0  0  0  0  0
  189.8570  172.9420  140.6270 C   0  0  0  0  0  0  0  0  0  0  0  0
  190.2050  172.0770  139.6240 C   0  0  0  0  0  0  0  0  0  0  0  0
  191.7690  170.1100  139.1410 C   0  0  0  0  0  3  0  0  0  0  0  0
  190.4160  172.8870  142.0090 C   0  0  0  0  0  0  0  0  0  0  0  0
  191.3360  172.7490  144.6380 N   0  0  0  0  0  0  0  0  0  0  0  0
  191.2890  171.1030  139.8790 C   0  0  0  0  0  3  0  0  0  0  0  0
  188.5280  174.9210  141.4190 C   0  0  0  0  0  0  0  0  0  0  0  0
  192.6570  170.4910  144.2390 Cl  0  0  0  0  0  0  0  0  0  0  0  0
  188.5880  173.3300  138.0970 C   0  0  0  0  0  3  0  0  0  0  0  0
  191.3550  169.6700  137.8140 C   0  0  0  0  0  3  0  0  0  0  0  0
  189.1710  174.9370  142.5500 N   0  0  0  0  0  0  0  0  0  0  0  0
  188.9130  174.0100  140.3720 N   0  0  0  0  0  0  0  0  0  0  0  0
  187.3940  175.7840  141.2210 N   0  0  0  0  0  2  0  0  0  0  0  0
  191.0050  171.8240  142.4810 N   0  0  0  0  0  0  0  0  0  0  0  0
  190.4620  170.2290  137.0120 C   0  0  0  0  0  3  0  0  0  0  0  0
  190.3610  174.1430  142.8430 C   0  0  1  0  0  3  0  0  0  0  0  0
  190.3760  173.8100  144.3360 C   0  0  0  0  0  2  0  0  0  0  0  0
  188.3060  174.1650  139.0840 C   0  0  0  0  0  3  0  0  0  0  0  0
  189.5300  172.2260  138.2960 C   0  0  0  0  0  0  0  0  0  0  0  0
  189.6570  171.4300  137.2340 C   0  0  0  0  0  3  0  0  0  0  0  0
  184.2080  178.8800  145.8140 N   0  0  0  0  0  2  0  0  0  0  0  0
  185.7820  177.2120  144.2600 C   0  0  0  0  0  0  0  0  0  0  0  0
  186.3160  179.0410  142.7630 C   0  0  0  0  0  3  0  0  0  0  0  0
  186.8540  178.1280  141.8510 C   0  0  0  0  0  3  0  0  0  0  0  0
  184.8160  177.7120  146.4570 C   0  0  0  0  0  2  0  0  0  0  0  0
  186.8560  176.7510  142.1340 C   0  0  0  0  0  0  0  0  0  0  0  0
  185.2340  176.7720  145.4670 O   0  0  0  0  0  0  0  0  0  0  0  0
  185.7690  178.5810  143.9620 C   0  0  0  0  0  0  0  0  0  0  0  0
  186.3170  176.3010  143.3450 C   0  0  0  0  0  3  0  0  0  0  0  0
  185.2180  179.5360  144.9790 C   0  0  0  0  0  2  0  0  0  0  0  0
  1  9  1  0  0  0  0
  1  6  2  0  0  0  0
  2  5  1  0  0  0  0
  3  7  1  0  0  0  0
  3  2  2  0  0  0  0
  4  7  2  0  0  0  0
  5 15  2  0  0  0  0
  5 17  1  0  0  0  0
  8 12  2  0  0  0  0
 10 20  1  0  0  0  0
 10 19  2  0  0  0  0
 11  4  1  0  0  0  0
 12 17  1  0  0  0  0
 13  2  1  0  0  0  0
 13  8  1  0  0  0  0
 14  8  1  0  0  0  0
 14 27  1  0  0  0  0
 15  1  1  0  0  0  0
 16 21  1  0  0  0  0
 16 11  2  0  0  0  0
 17 18  1  1  0  0  0
 18  6  1  0  0  0  0
 19 13  1  0  0  0  0
 20  3  1  0  0  0  0
 21 20  2  0  0  0  0
 22 26  1  0  0  0  0
 23 28  1  0  0  0  0
 24 29  2  0  0  0  0
 25 27  2  0  0  0  0
 25 24  1  0  0  0  0
 27 30  1  0  0  0  0
 28 26  1  0  0  0  0
 29 23  1  0  0  0  0
 29 31  1  0  0  0  0
 30 23  2  0  0  0  0
 31 22  1  0  0  0  0
M  END
>  <MODEL>
9

>  <REMARK>
 VINA RESULT:      -8.0      3.161      5.555
  Name = 
  1 active torsions:
  status: ('A' for Active; 'I' for Inactive)
    1  A    between atoms: C_9  and  N_23
                            x       y       z     vdW  Elec       q    Type
                         _______ _______ _______ _____ _____    ______ ____

>  <TORSDO>
F 1

$$$$
