=
 OpenBabel11052417563D

 31 34  0  0  1  0  0  0  0  0999 V2000
  189.2070  172.7340  141.5510 C   0  0  1  0  0  3  0  0  0  0  0  0
  189.1580  175.4060  144.3440 C   0  0  2  0  0  3  0  0  0  0  0  0
  190.4750  175.4500  145.0900 C   0  0  0  0  0  0  0  0  0  0  0  0
  192.8020  174.8100  145.3590 C   0  0  0  0  0  3  0  0  0  0  0  0
  189.2510  174.8200  142.9320 C   0  0  1  0  0  3  0  0  0  0  0  0
  188.6630  173.6010  140.4380 C   0  0  0  0  0  3  0  0  0  0  0  0
  191.6180  174.7880  144.6180 C   0  0  0  0  0  3  0  0  0  0  0  0
  188.3640  177.6180  143.1790 C   0  0  2  0  0  3  0  0  0  0  0  0
  190.5660  172.5570  141.3660 F   0  0  0  0  0  0  0  0  0  0  0  0
  189.2820  176.7970  146.8220 C   0  0  0  0  0  2  0  0  0  0  0  0
  192.8490  175.4810  146.5830 C   0  0  0  0  0  3  0  0  0  0  0  0
  188.6120  176.9180  141.9070 N   0  0  0  0  0  2  0  0  0  0  0  0
  188.3390  176.7290  144.4440 C   0  0  2  0  0  3  0  0  0  0  0  0
  188.9570  173.3240  142.9430 C   0  0  0  0  0  2  0  0  0  0  0  0
  191.8180  176.9600  148.6200 Cl  0  0  0  0  0  0  0  0  0  0  0  0
  188.2670  175.5050  141.9950 C   0  0  1  0  0  3  0  0  0  0  0  0
  188.2810  174.8760  140.6290 C   0  0  0  0  0  3  0  0  0  0  0  0
  188.6540  177.5910  145.6820 C   0  0  0  0  0  2  0  0  0  0  0  0
  190.5230  176.1190  146.3270 C   0  0  0  0  0  0  0  0  0  0  0  0
  191.7140  176.1340  147.0740 C   0  0  0  0  0  0  0  0  0  0  0  0
  187.0770  178.4280  143.0880 C   0  0  0  0  0  2  0  0  0  0  0  0
  185.0450  177.4610  142.5000 C   0  0  0  0  0  1  0  0  0  0  0  0
  185.9540  177.6650  143.6220 N   0  0  0  0  0  0  0  0  0  0  0  0
  183.9590  178.7760  144.2180 O   0  0  0  0  0  1  0  0  0  0  0  0
  185.2690  178.4970  144.6200 C   0  0  1  0  0  3  0  0  0  0  0  0
  185.0990  176.4990  146.0090 C   0  0  0  0  0  2  0  0  0  0  0  0
  185.2340  177.8250  145.9690 C   0  0  0  0  0  0  0  0  0  0  0  0
  185.4100  178.5920  147.2550 C   0  0  0  0  0  0  0  0  0  0  0  0
  186.2850  177.9150  148.0830 F   0  0  0  0  0  0  0  0  0  0  0  0
  185.9170  179.8580  147.0140 F   0  0  0  0  0  0  0  0  0  0  0  0
  184.1900  178.7180  147.8940 F   0  0  0  0  0  0  0  0  0  0  0  0
  1  9  1  6  0  0  0
  1 14  1  0  0  0  0
  2 13  1  0  0  0  0
  2  3  1  6  0  0  0
  3 19  1  0  0  0  0
  4 11  2  0  0  0  0
  5 14  1  1  0  0  0
  5  2  1  0  0  0  0
  6 17  2  0  0  0  0
  6  1  1  0  0  0  0
  7  3  2  0  0  0  0
  7  4  1  0  0  0  0
  8 21  1  6  0  0  0
  8 13  1  0  0  0  0
 11 20  1  0  0  0  0
 12 16  1  0  0  0  0
 12  8  1  0  0  0  0
 13 18  1  1  0  0  0
 16 17  1  6  0  0  0
 16  5  1  0  0  0  0
 18 10  1  0  0  0  0
 19 10  1  0  0  0  0
 19 20  2  0  0  0  0
 20 15  1  0  0  0  0
 21 23  1  0  0  0  0
 22 23  1  0  0  0  0
 23 25  1  0  0  0  0
 25 24  1  6  0  0  0
 25 27  1  0  0  0  0
 27 26  2  0  0  0  0
 27 28  1  0  0  0  0
 28 31  1  0  0  0  0
 28 29  1  0  0  0  0
 30 28  1  0  0  0  0
M  END
>  <MODEL>
1

>  <REMARK>
 VINA RESULT:      -8.0      0.000      0.000
  Name = 
  5 active torsions:
  status: ('A' for Active; 'I' for Inactive)
    1  A    between atoms: C_1  and  C_19
    2  A    between atoms: N_9  and  C_22
    3  A    between atoms: N_9  and  C_23
    4  A    between atoms: C_15  and  C_23
    5  A    between atoms: C_19  and  C_22
                            x       y       z     vdW  Elec       q    Type
                         _______ _______ _______ _____ _____    ______ ____

>  <TORSDO>
F 5

$$$$
=
 OpenBabel11052417563D

 31 34  0  0  1  0  0  0  0  0999 V2000
  184.8350  177.5890  146.8820 C   0  0  1  0  0  3  0  0  0  0  0  0
  186.9740  176.5270  143.8420 C   0  0  2  0  0  3  0  0  0  0  0  0
  186.4490  177.1340  142.5580 C   0  0  0  0  0  0  0  0  0  0  0  0
  184.9900  178.6560  141.3530 C   0  0  0  0  0  3  0  0  0  0  0  0
  186.5760  177.2880  145.1100 C   0  0  1  0  0  3  0  0  0  0  0  0
  185.9730  178.0040  147.7880 C   0  0  0  0  0  3  0  0  0  0  0  0
  185.4880  178.1550  142.5590 C   0  0  0  0  0  3  0  0  0  0  0  0
  189.4520  177.0770  144.5050 C   0  0  2  0  0  3  0  0  0  0  0  0
  184.2090  178.7200  146.3930 F   0  0  0  0  0  0  0  0  0  0  0  0
  187.9040  175.4950  141.3600 C   0  0  0  0  0  2  0  0  0  0  0  0
  185.4410  178.1320  140.1390 C   0  0  0  0  0  3  0  0  0  0  0  0
  188.8750  177.8530  145.6170 N   0  0  0  0  0  2  0  0  0  0  0  0
  188.4790  176.1240  143.7740 C   0  0  2  0  0  3  0  0  0  0  0  0
  185.2960  176.7170  145.7090 C   0  0  0  0  0  2  0  0  0  0  0  0
  186.9210  176.4730  138.5730 Cl  0  0  0  0  0  0  0  0  0  0  0  0
  187.6810  177.2160  146.1550 C   0  0  1  0  0  3  0  0  0  0  0  0
  187.2650  177.8800  147.4390 C   0  0  0  0  0  3  0  0  0  0  0  0
  189.0070  175.8430  142.3530 C   0  0  0  0  0  2  0  0  0  0  0  0
  186.8960  176.6030  141.3340 C   0  0  0  0  0  0  0  0  0  0  0  0
  186.3890  177.1050  140.1220 C   0  0  0  0  0  0  0  0  0  0  0  0
  190.6730  176.3040  144.9860 C   0  0  0  0  0  2  0  0  0  0  0  0
  191.5420  177.9270  143.5640 C   0  0  0  0  0  1  0  0  0  0  0  0
  191.8980  177.0220  144.6510 N   0  0  0  0  0  0  0  0  0  0  0  0
  193.1080  176.2590  142.7740 O   0  0  0  0  0  1  0  0  0  0  0  0
  192.8720  176.0510  144.1370 C   0  0  1  0  0  3  0  0  0  0  0  0
  195.2560  176.5610  144.2120 C   0  0  0  0  0  2  0  0  0  0  0  0
  194.1820  176.1370  144.8780 C   0  0  0  0  0  0  0  0  0  0  0  0
  194.2970  175.8230  146.3490 C   0  0  0  0  0  0  0  0  0  0  0  0
  194.3180  177.0000  147.0740 F   0  0  0  0  0  0  0  0  0  0  0  0
  193.2280  175.0550  146.7790 F   0  0  0  0  0  0  0  0  0  0  0  0
  195.4680  175.1250  146.5860 F   0  0  0  0  0  0  0  0  0  0  0  0
  1  9  1  6  0  0  0
  1  6  1  0  0  0  0
  2  3  1  6  0  0  0
  2  5  1  0  0  0  0
  3  7  1  0  0  0  0
  4  7  2  0  0  0  0
  5 14  1  1  0  0  0
  5 16  1  0  0  0  0
  8 21  1  1  0  0  0
  8 12  1  0  0  0  0
 10 18  1  0  0  0  0
 11  4  1  0  0  0  0
 12 16  1  0  0  0  0
 13 18  1  6  0  0  0
 13  2  1  0  0  0  0
 13  8  1  0  0  0  0
 14  1  1  0  0  0  0
 15 20  1  0  0  0  0
 16 17  1  1  0  0  0
 17  6  2  0  0  0  0
 19 10  1  0  0  0  0
 19  3  2  0  0  0  0
 20 11  2  0  0  0  0
 20 19  1  0  0  0  0
 22 23  1  0  0  0  0
 23 21  1  0  0  0  0
 25 24  1  6  0  0  0
 25 23  1  0  0  0  0
 25 27  1  0  0  0  0
 26 27  2  0  0  0  0
 27 28  1  0  0  0  0
 28 31  1  0  0  0  0
 28 30  1  0  0  0  0
 28 29  1  0  0  0  0
M  END
>  <MODEL>
2

>  <REMARK>
 VINA RESULT:      -7.7      3.960      7.601
  Name = 
  5 active torsions:
  status: ('A' for Active; 'I' for Inactive)
    1  A    between atoms: C_1  and  C_19
    2  A    between atoms: N_9  and  C_22
    3  A    between atoms: N_9  and  C_23
    4  A    between atoms: C_15  and  C_23
    5  A    between atoms: C_19  and  C_22
                            x       y       z     vdW  Elec       q    Type
                         _______ _______ _______ _____ _____    ______ ____

>  <TORSDO>
F 5

$$$$
=
 OpenBabel11052417563D

 31 34  0  0  1  0  0  0  0  0999 V2000
  190.9160  175.7100  147.8410 C   0  0  1  0  0  3  0  0  0  0  0  0
  192.7010  175.6240  144.4130 C   0  0  2  0  0  3  0  0  0  0  0  0
  194.1460  175.1970  144.5530 C   0  0  0  0  0  0  0  0  0  0  0  0
  195.9990  174.3150  145.8530 C   0  0  0  0  0  3  0  0  0  0  0  0
  191.7940  175.1710  145.5610 C   0  0  1  0  0  3  0  0  0  0  0  0
  189.6820  174.9330  147.4400 C   0  0  0  0  0  3  0  0  0  0  0  0
  194.6470  174.6510  145.7450 C   0  0  0  0  0  3  0  0  0  0  0  0
  191.1650  174.1690  142.8620 C   0  0  2  0  0  3  0  0  0  0  0  0
  191.7390  174.8970  148.5970 F   0  0  0  0  0  0  0  0  0  0  0  0
  194.4680  176.0320  142.2220 C   0  0  0  0  0  2  0  0  0  0  0  0
  196.8620  174.5340  144.7770 C   0  0  0  0  0  3  0  0  0  0  0  0
  190.4730  173.7640  144.0990 N   0  0  0  0  0  2  0  0  0  0  0  0
  192.1130  175.3830  142.9890 C   0  0  2  0  0  3  0  0  0  0  0  0
  191.6990  176.2460  146.6380 C   0  0  0  0  0  2  0  0  0  0  0  0
  197.5050  175.3530  142.2650 Cl  0  0  0  0  0  0  0  0  0  0  0  0
  190.3920  174.8610  145.0540 C   0  0  1  0  0  3  0  0  0  0  0  0
  189.4660  174.5050  146.1850 C   0  0  0  0  0  3  0  0  0  0  0  0
  193.1600  175.3350  141.8590 C   0  0  0  0  0  2  0  0  0  0  0  0
  195.0210  175.4230  143.4740 C   0  0  0  0  0  0  0  0  0  0  0  0
  196.3820  175.0910  143.5880 C   0  0  0  0  0  0  0  0  0  0  0  0
  190.1500  174.4160  141.7530 C   0  0  0  0  0  2  0  0  0  0  0  0
  187.8760  173.9230  141.7400 C   0  0  0  0  0  1  0  0  0  0  0  0
  188.8670  174.8250  142.3150 N   0  0  0  0  0  0  0  0  0  0  0  0
  187.2400  176.2950  141.4450 O   0  0  0  0  0  1  0  0  0  0  0  0
  188.5760  176.1860  141.8450 C   0  0  1  0  0  3  0  0  0  0  0  0
  189.9130  178.0050  142.7660 C   0  0  0  0  0  2  0  0  0  0  0  0
  188.8520  177.2120  142.9130 C   0  0  0  0  0  0  0  0  0  0  0  0
  187.9380  177.4090  144.0960 C   0  0  0  0  0  0  0  0  0  0  0  0
  187.0250  178.4080  143.8160 F   0  0  0  0  0  0  0  0  0  0  0  0
  187.2460  176.2450  144.3900 F   0  0  0  0  0  0  0  0  0  0  0  0
  188.6810  177.7730  145.2040 F   0  0  0  0  0  0  0  0  0  0  0  0
  1  9  1  6  0  0  0
  2  3  1  6  0  0  0
  2  5  1  0  0  0  0
  3  7  1  0  0  0  0
  5 14  1  1  0  0  0
  6  1  1  0  0  0  0
  7  4  2  0  0  0  0
  8 21  1  6  0  0  0
  8 13  1  0  0  0  0
  8 12  1  0  0  0  0
 10 19  1  0  0  0  0
 11  4  1  0  0  0  0
 12 16  1  0  0  0  0
 13 18  1  6  0  0  0
 13  2  1  0  0  0  0
 14  1  1  0  0  0  0
 15 20  1  0  0  0  0
 16  5  1  0  0  0  0
 16 17  1  1  0  0  0
 17  6  2  0  0  0  0
 18 10  1  0  0  0  0
 19 20  1  0  0  0  0
 19  3  2  0  0  0  0
 20 11  2  0  0  0  0
 21 23  1  0  0  0  0
 22 23  1  0  0  0  0
 25 24  1  1  0  0  0
 25 23  1  0  0  0  0
 25 27  1  0  0  0  0
 26 27  2  0  0  0  0
 27 28  1  0  0  0  0
 28 30  1  0  0  0  0
 28 31  1  0  0  0  0
 29 28  1  0  0  0  0
M  END
>  <MODEL>
3

>  <REMARK>
 VINA RESULT:      -7.6      3.198      5.282
  Name = 
  5 active torsions:
  status: ('A' for Active; 'I' for Inactive)
    1  A    between atoms: C_1  and  C_19
    2  A    between atoms: N_9  and  C_22
    3  A    between atoms: N_9  and  C_23
    4  A    between atoms: C_15  and  C_23
    5  A    between atoms: C_19  and  C_22
                            x       y       z     vdW  Elec       q    Type
                         _______ _______ _______ _____ _____    ______ ____

>  <TORSDO>
F 5

$$$$
=
 OpenBabel11052417563D

 31 34  0  0  1  0  0  0  0  0999 V2000
  186.7350  177.5090  139.7620 C   0  0  1  0  0  3  0  0  0  0  0  0
  187.8980  177.1350  143.4300 C   0  0  2  0  0  3  0  0  0  0  0  0
  186.8130  177.5550  144.3990 C   0  0  0  0  0  0  0  0  0  0  0  0
  184.5280  178.2100  144.8980 C   0  0  0  0  0  3  0  0  0  0  0  0
  187.3850  176.7230  142.0470 C   0  0  1  0  0  3  0  0  0  0  0  0
  187.1660  176.1420  139.2790 C   0  0  0  0  0  3  0  0  0  0  0  0
  185.4910  177.7760  143.9830 C   0  0  0  0  0  3  0  0  0  0  0  0
  188.8020  174.6810  143.6290 C   0  0  2  0  0  3  0  0  0  0  0  0
  185.3610  177.5260  139.9120 F   0  0  0  0  0  0  0  0  0  0  0  0
  188.5890  177.5740  146.1540 C   0  0  0  0  0  2  0  0  0  0  0  0
  184.8810  178.4390  146.2290 C   0  0  0  0  0  3  0  0  0  0  0  0
  188.1510  174.4440  142.3280 N   0  0  0  0  0  2  0  0  0  0  0  0
  188.9470  176.1620  144.0490 C   0  0  2  0  0  3  0  0  0  0  0  0
  187.3950  177.9080  141.0870 C   0  0  0  0  0  2  0  0  0  0  0  0
  186.5940  178.5420  148.3390 Cl  0  0  0  0  0  0  0  0  0  0  0  0
  188.2430  175.6110  141.4610 C   0  0  1  0  0  3  0  0  0  0  0  0
  187.8080  175.2610  140.0640 C   0  0  0  0  0  3  0  0  0  0  0  0
  189.0810  176.2490  145.5820 C   0  0  0  0  0  2  0  0  0  0  0  0
  187.1660  177.7930  145.7400 C   0  0  0  0  0  0  0  0  0  0  0  0
  186.1960  178.2360  146.6560 C   0  0  0  0  0  0  0  0  0  0  0  0
  190.1630  173.9960  143.6650 C   0  0  0  0  0  2  0  0  0  0  0  0
  191.6780  174.5530  141.9900 C   0  0  0  0  0  1  0  0  0  0  0  0
  191.2210  174.9390  143.3200 N   0  0  0  0  0  0  0  0  0  0  0  0
  193.5060  174.4110  143.5780 O   0  0  0  0  0  1  0  0  0  0  0  0
  192.3310  174.7460  144.2610 C   0  0  1  0  0  3  0  0  0  0  0  0
  192.5330  177.1670  144.4750 C   0  0  0  0  0  2  0  0  0  0  0  0
  192.5800  175.9820  145.0850 C   0  0  0  0  0  0  0  0  0  0  0  0
  192.8130  175.9240  146.5740 C   0  0  0  0  0  0  0  0  0  0  0  0
  192.6050  174.6350  147.0270 F   0  0  0  0  0  0  0  0  0  0  0  0
  194.1070  176.3030  146.8910 F   0  0  0  0  0  0  0  0  0  0  0  0
  191.9330  176.7760  147.2170 F   0  0  0  0  0  0  0  0  0  0  0  0
  1  9  1  1  0  0  0
  1 14  1  0  0  0  0
  2 13  1  0  0  0  0
  2  3  1  1  0  0  0
  3 19  1  0  0  0  0
  4 11  2  0  0  0  0
  5 14  1  6  0  0  0
  5  2  1  0  0  0  0
  6  1  1  0  0  0  0
  6 17  2  0  0  0  0
  7  3  2  0  0  0  0
  7  4  1  0  0  0  0
  8 21  1  6  0  0  0
  8 13  1  0  0  0  0
 11 20  1  0  0  0  0
 12  8  1  0  0  0  0
 13 18  1  1  0  0  0
 16 17  1  6  0  0  0
 16  5  1  0  0  0  0
 16 12  1  0  0  0  0
 18 10  1  0  0  0  0
 19 10  1  0  0  0  0
 19 20  2  0  0  0  0
 20 15  1  0  0  0  0
 22 23  1  0  0  0  0
 23 21  1  0  0  0  0
 23 25  1  0  0  0  0
 25 24  1  6  0  0  0
 25 27  1  0  0  0  0
 26 27  2  0  0  0  0
 27 28  1  0  0  0  0
 28 30  1  0  0  0  0
 28 29  1  0  0  0  0
 28 31  1  0  0  0  0
M  END
>  <MODEL>
4

>  <REMARK>
 VINA RESULT:      -7.5      3.580      6.013
  Name = 
  5 active torsions:
  status: ('A' for Active; 'I' for Inactive)
    1  A    between atoms: C_1  and  C_19
    2  A    between atoms: N_9  and  C_22
    3  A    between atoms: N_9  and  C_23
    4  A    between atoms: C_15  and  C_23
    5  A    between atoms: C_19  and  C_22
                            x       y       z     vdW  Elec       q    Type
                         _______ _______ _______ _____ _____    ______ ____

>  <TORSDO>
F 5

$$$$
=
 OpenBabel11052417563D

 31 34  0  0  1  0  0  0  0  0999 V2000
  186.1940  176.9950  142.6610 C   0  0  1  0  0  3  0  0  0  0  0  0
  188.8670  174.2740  142.0280 C   0  0  2  0  0  3  0  0  0  0  0  0
  188.8800  173.8390  140.5790 C   0  0  0  0  0  0  0  0  0  0  0  0
  188.1850  174.0900  138.2650 C   0  0  0  0  0  3  0  0  0  0  0  0
  188.2790  175.6690  142.2640 C   0  0  1  0  0  3  0  0  0  0  0  0
  187.0750  177.9640  143.4190 C   0  0  0  0  0  3  0  0  0  0  0  0
  188.1910  174.5500  139.5840 C   0  0  0  0  0  3  0  0  0  0  0  0
  191.0970  175.2460  143.0100 C   0  0  2  0  0  3  0  0  0  0  0  0
  185.9860  177.4750  141.3820 F   0  0  0  0  0  0  0  0  0  0  0  0
  190.2540  171.8930  141.3260 C   0  0  0  0  0  2  0  0  0  0  0  0
  188.8550  172.9100  137.9330 C   0  0  0  0  0  3  0  0  0  0  0  0
  190.3910  176.5380  143.0660 N   0  0  0  0  0  2  0  0  0  0  0  0
  190.2090  174.0020  142.7750 C   0  0  2  0  0  3  0  0  0  0  0  0
  186.7900  175.5850  142.5830 C   0  0  0  0  0  2  0  0  0  0  0  0
  190.3580  170.7030  138.4510 Cl  0  0  0  0  0  0  0  0  0  0  0  0
  188.9870  176.3680  143.4160 C   0  0  1  0  0  3  0  0  0  0  0  0
  188.3580  177.7000  143.7200 C   0  0  0  0  0  3  0  0  0  0  0  0
  191.0630  172.8690  142.1730 C   0  0  0  0  0  2  0  0  0  0  0  0
  189.5480  172.6480  140.2420 C   0  0  0  0  0  0  0  0  0  0  0  0
  189.5340  172.1830  138.9150 C   0  0  0  0  0  0  0  0  0  0  0  0
  191.9380  175.0540  144.2660 C   0  0  0  0  0  2  0  0  0  0  0  0
  193.2230  176.7920  145.1260 C   0  0  0  0  0  1  0  0  0  0  0  0
  191.8730  176.2420  145.1110 N   0  0  0  0  0  0  0  0  0  0  0  0
  192.3780  176.4310  147.4080 O   0  0  0  0  0  1  0  0  0  0  0  0
  191.5370  175.8150  146.4750 C   0  0  1  0  0  3  0  0  0  0  0  0
  189.7980  177.4020  147.1150 C   0  0  0  0  0  2  0  0  0  0  0  0
  190.1060  176.1380  146.8200 C   0  0  0  0  0  0  0  0  0  0  0  0
  189.0130  175.1000  146.7770 C   0  0  0  0  0  0  0  0  0  0  0  0
  188.9030  174.4900  148.0130 F   0  0  0  0  0  0  0  0  0  0  0  0
  187.7940  175.6730  146.4550 F   0  0  0  0  0  0  0  0  0  0  0  0
  189.3170  174.1420  145.8270 F   0  0  0  0  0  0  0  0  0  0  0  0
  1  9  1  6  0  0  0
  1  6  1  0  0  0  0
  2  3  1  6  0  0  0
  2  5  1  0  0  0  0
  2 13  1  0  0  0  0
  4  7  1  0  0  0  0
  5 14  1  1  0  0  0
  5 16  1  0  0  0  0
  6 17  2  0  0  0  0
  7  3  2  0  0  0  0
  8 12  1  0  0  0  0
  8 21  1  1  0  0  0
 10 18  1  0  0  0  0
 11  4  2  0  0  0  0
 11 20  1  0  0  0  0
 12 16  1  0  0  0  0
 13 18  1  6  0  0  0
 13  8  1  0  0  0  0
 14  1  1  0  0  0  0
 15 20  1  0  0  0  0
 16 17  1  6  0  0  0
 19  3  1  0  0  0  0
 19 10  1  0  0  0  0
 20 19  2  0  0  0  0
 21 23  1  0  0  0  0
 23 22  1  0  0  0  0
 23 25  1  0  0  0  0
 25 27  1  0  0  0  0
 25 24  1  1  0  0  0
 27 26  2  0  0  0  0
 28 27  1  0  0  0  0
 28 29  1  0  0  0  0
 30 28  1  0  0  0  0
 31 28  1  0  0  0  0
M  END
>  <MODEL>
5

>  <REMARK>
 VINA RESULT:      -7.4      3.619      6.323
  Name = 
  5 active torsions:
  status: ('A' for Active; 'I' for Inactive)
    1  A    between atoms: C_1  and  C_19
    2  A    between atoms: N_9  and  C_22
    3  A    between atoms: N_9  and  C_23
    4  A    between atoms: C_15  and  C_23
    5  A    between atoms: C_19  and  C_22
                            x       y       z     vdW  Elec       q    Type
                         _______ _______ _______ _____ _____    ______ ____

>  <TORSDO>
F 5

$$$$
=
 OpenBabel11052417563D

 31 34  0  0  1  0  0  0  0  0999 V2000
  184.9300  177.4670  146.9540 C   0  0  1  0  0  3  0  0  0  0  0  0
  186.9900  176.6240  143.7930 C   0  0  2  0  0  3  0  0  0  0  0  0
  186.3650  177.2220  142.5510 C   0  0  0  0  0  0  0  0  0  0  0  0
  184.7510  178.6670  141.4530 C   0  0  0  0  0  3  0  0  0  0  0  0
  186.6020  177.3270  145.0970 C   0  0  1  0  0  3  0  0  0  0  0  0
  186.0790  177.9380  147.8180 C   0  0  0  0  0  3  0  0  0  0  0  0
  185.3370  178.1740  142.6210 C   0  0  0  0  0  3  0  0  0  0  0  0
  189.4530  177.3280  144.3560 C   0  0  2  0  0  3  0  0  0  0  0  0
  184.2060  178.5630  146.5240 F   0  0  0  0  0  0  0  0  0  0  0  0
  187.8700  175.7160  141.2450 C   0  0  0  0  0  2  0  0  0  0  0  0
  185.1780  178.2030  140.2070 C   0  0  0  0  0  3  0  0  0  0  0  0
  188.8780  178.0370  145.5130 N   0  0  0  0  0  2  0  0  0  0  0  0
  188.5140  176.3270  143.6460 C   0  0  2  0  0  3  0  0  0  0  0  0
  185.3930  176.6550  145.7390 C   0  0  0  0  0  2  0  0  0  0  0  0
  186.6920  176.6860  138.5320 Cl  0  0  0  0  0  0  0  0  0  0  0  0
  187.7570  177.3070  146.0880 C   0  0  1  0  0  3  0  0  0  0  0  0
  187.3580  177.9110  147.4070 C   0  0  0  0  0  3  0  0  0  0  0  0
  188.9920  176.1160  142.1960 C   0  0  0  0  0  2  0  0  0  0  0  0
  186.7880  176.7510  141.2940 C   0  0  0  0  0  0  0  0  0  0  0  0
  186.1920  177.2440  140.1200 C   0  0  0  0  0  0  0  0  0  0  0  0
  190.7460  176.6310  144.7610 C   0  0  0  0  0  2  0  0  0  0  0  0
  190.9290  175.3480  146.6940 C   0  0  0  0  0  1  0  0  0  0  0  0
  190.4630  175.3090  145.3120 N   0  0  0  0  0  0  0  0  0  0  0  0
  192.3150  173.8490  145.3860 O   0  0  0  0  0  1  0  0  0  0  0  0
  191.2740  174.3260  144.5830 C   0  0  1  0  0  3  0  0  0  0  0  0
  189.6910  172.5220  145.0140 C   0  0  0  0  0  2  0  0  0  0  0  0
  190.4410  173.1600  144.1160 C   0  0  0  0  0  0  0  0  0  0  0  0
  190.3830  172.7400  142.6690 C   0  0  0  0  0  0  0  0  0  0  0  0
  191.0490  173.6670  141.8890 F   0  0  0  0  0  0  0  0  0  0  0  0
  190.9730  171.5000  142.4860 F   0  0  0  0  0  0  0  0  0  0  0  0
  189.0640  172.6680  142.2570 F   0  0  0  0  0  0  0  0  0  0  0  0
  1  9  1  6  0  0  0
  1  6  1  0  0  0  0
  2  3  1  6  0  0  0
  2  5  1  0  0  0  0
  3  7  1  0  0  0  0
  4  7  2  0  0  0  0
  5 14  1  1  0  0  0
  5 16  1  0  0  0  0
  8 21  1  1  0  0  0
  8 12  1  0  0  0  0
 10 19  1  0  0  0  0
 10 18  1  0  0  0  0
 11  4  1  0  0  0  0
 12 16  1  0  0  0  0
 13 18  1  6  0  0  0
 13  2  1  0  0  0  0
 13  8  1  0  0  0  0
 14  1  1  0  0  0  0
 15 20  1  0  0  0  0
 16 17  1  1  0  0  0
 17  6  2  0  0  0  0
 19  3  2  0  0  0  0
 20 11  2  0  0  0  0
 20 19  1  0  0  0  0
 21 23  1  0  0  0  0
 23 22  1  0  0  0  0
 25 23  1  0  0  0  0
 25 24  1  1  0  0  0
 27 25  1  0  0  0  0
 27 26  2  0  0  0  0
 28 27  1  0  0  0  0
 29 28  1  0  0  0  0
 30 28  1  0  0  0  0
 31 28  1  0  0  0  0
M  END
>  <MODEL>
6

>  <REMARK>
 VINA RESULT:      -7.4      3.194      7.393
  Name = 
  5 active torsions:
  status: ('A' for Active; 'I' for Inactive)
    1  A    between atoms: C_1  and  C_19
    2  A    between atoms: N_9  and  C_22
    3  A    between atoms: N_9  and  C_23
    4  A    between atoms: C_15  and  C_23
    5  A    between atoms: C_19  and  C_22
                            x       y       z     vdW  Elec       q    Type
                         _______ _______ _______ _____ _____    ______ ____

>  <TORSDO>
F 5

$$$$
=
 OpenBabel11052417563D

 31 34  0  0  1  0  0  0  0  0999 V2000
  184.7960  179.3940  144.6750 C   0  0  1  0  0  3  0  0  0  0  0  0
  188.2400  177.8550  143.8260 C   0  0  2  0  0  3  0  0  0  0  0  0
  188.9850  177.4440  145.0780 C   0  0  0  0  0  0  0  0  0  0  0  0
  189.0910  177.0570  147.4730 C   0  0  0  0  0  3  0  0  0  0  0  0
  186.7200  177.9450  143.9960 C   0  0  1  0  0  3  0  0  0  0  0  0
  183.9730  178.5870  143.6960 C   0  0  0  0  0  3  0  0  0  0  0  0
  188.3580  177.3920  146.3320 C   0  0  0  0  0  3  0  0  0  0  0  0
  187.7500  175.9860  142.0520 C   0  0  2  0  0  3  0  0  0  0  0  0
  184.5880  178.9070  145.9520 F   0  0  0  0  0  0  0  0  0  0  0  0
  191.0150  177.2620  143.6350 C   0  0  0  0  0  2  0  0  0  0  0  0
  190.4570  176.7830  147.3720 C   0  0  0  0  0  3  0  0  0  0  0  0
  186.3340  176.1440  142.4260 N   0  0  0  0  0  2  0  0  0  0  0  0
  188.7050  177.0980  142.5450 C   0  0  2  0  0  3  0  0  0  0  0  0
  186.2960  179.3640  144.3600 C   0  0  0  0  0  2  0  0  0  0  0  0
  192.8180  176.4970  146.0540 Cl  0  0  0  0  0  0  0  0  0  0  0  0
  186.0060  177.5330  142.7160 C   0  0  1  0  0  3  0  0  0  0  0  0
  184.5170  177.7060  142.8390 C   0  0  0  0  0  3  0  0  0  0  0  0
  190.1430  176.5480  142.6070 C   0  0  0  0  0  2  0  0  0  0  0  0
  190.3630  177.1750  144.9810 C   0  0  0  0  0  0  0  0  0  0  0  0
  191.0990  176.8440  146.1320 C   0  0  0  0  0  0  0  0  0  0  0  0
  187.8780  175.8220  140.5420 C   0  0  0  0  0  2  0  0  0  0  0  0
  188.2430  174.2050  138.9110 C   0  0  0  0  0  1  0  0  0  0  0  0
  188.6950  174.6570  140.2210 N   0  0  0  0  0  0  0  0  0  0  0  0
  187.7960  172.5040  140.5740 O   0  0  0  0  0  1  0  0  0  0  0  0
  188.3940  173.6040  141.1990 C   0  0  1  0  0  3  0  0  0  0  0  0
  190.7770  173.0860  141.2280 C   0  0  0  0  0  2  0  0  0  0  0  0
  189.6370  173.1420  141.9160 C   0  0  0  0  0  0  0  0  0  0  0  0
  189.6410  172.8100  143.3870 C   0  0  0  0  0  0  0  0  0  0  0  0
  189.1970  173.9010  144.1100 F   0  0  0  0  0  0  0  0  0  0  0  0
  188.8140  171.7320  143.6560 F   0  0  0  0  0  0  0  0  0  0  0  0
  190.9260  172.4940  143.7900 F   0  0  0  0  0  0  0  0  0  0  0  0
  1  9  1  1  0  0  0
  2  5  1  0  0  0  0
  2  3  1  1  0  0  0
  3  7  1  0  0  0  0
  5 14  1  6  0  0  0
  6  1  1  0  0  0  0
  7  4  2  0  0  0  0
  8 21  1  6  0  0  0
  8 12  1  0  0  0  0
  8 13  1  0  0  0  0
 10 19  1  0  0  0  0
 11  4  1  0  0  0  0
 12 16  1  0  0  0  0
 13 18  1  1  0  0  0
 13  2  1  0  0  0  0
 14  1  1  0  0  0  0
 15 20  1  0  0  0  0
 16 17  1  1  0  0  0
 16  5  1  0  0  0  0
 17  6  2  0  0  0  0
 18 10  1  0  0  0  0
 19  3  2  0  0  0  0
 19 20  1  0  0  0  0
 20 11  2  0  0  0  0
 22 23  1  0  0  0  0
 23 21  1  0  0  0  0
 23 25  1  0  0  0  0
 25 24  1  6  0  0  0
 25 27  1  0  0  0  0
 26 27  2  0  0  0  0
 27 28  1  0  0  0  0
 28 30  1  0  0  0  0
 28 31  1  0  0  0  0
 28 29  1  0  0  0  0
M  END
>  <MODEL>
7

>  <REMARK>
 VINA RESULT:      -7.4      2.349      5.825
  Name = 
  5 active torsions:
  status: ('A' for Active; 'I' for Inactive)
    1  A    between atoms: C_1  and  C_19
    2  A    between atoms: N_9  and  C_22
    3  A    between atoms: N_9  and  C_23
    4  A    between atoms: C_15  and  C_23
    5  A    between atoms: C_19  and  C_22
                            x       y       z     vdW  Elec       q    Type
                         _______ _______ _______ _____ _____    ______ ____

>  <TORSDO>
F 5

$$$$
=
 OpenBabel11052417563D

 31 34  0  0  1  0  0  0  0  0999 V2000
  192.2730  175.9430  146.8590 C   0  0  1  0  0  3  0  0  0  0  0  0
  190.3440  175.3190  143.5670 C   0  0  2  0  0  3  0  0  0  0  0  0
  190.3520  173.8530  143.1910 C   0  0  0  0  0  0  0  0  0  0  0  0
  190.8150  171.5210  143.6880 C   0  0  0  0  0  3  0  0  0  0  0  0
  190.5730  175.5910  145.0570 C   0  0  1  0  0  3  0  0  0  0  0  0
  191.2240  176.7900  147.5440 C   0  0  0  0  0  3  0  0  0  0  0  0
  190.7740  172.8590  144.0870 C   0  0  0  0  0  3  0  0  0  0  0  0
  188.0060  176.4600  143.9010 C   0  0  2  0  0  3  0  0  0  0  0  0
  192.2720  174.6790  147.4190 F   0  0  0  0  0  0  0  0  0  0  0  0
  189.5670  174.5760  140.9340 C   0  0  0  0  0  2  0  0  0  0  0  0
  190.4470  171.1680  142.3880 C   0  0  0  0  0  3  0  0  0  0  0  0
  188.3630  176.5420  145.3280 N   0  0  0  0  0  2  0  0  0  0  0  0
  189.1650  176.1200  142.9360 C   0  0  2  0  0  3  0  0  0  0  0  0
  192.0510  175.8280  145.3470 C   0  0  0  0  0  2  0  0  0  0  0  0
  189.5900  171.6570  139.8540 Cl  0  0  0  0  0  0  0  0  0  0  0  0
  189.7830  176.8100  145.5130 C   0  0  1  0  0  3  0  0  0  0  0  0
  190.0710  177.1440  146.9510 C   0  0  0  0  0  3  0  0  0  0  0  0
  188.5910  175.5100  141.6420 C   0  0  0  0  0  2  0  0  0  0  0  0
  189.9890  173.4940  141.8800 C   0  0  0  0  0  0  0  0  0  0  0  0
  190.0380  172.1480  141.4790 C   0  0  0  0  0  0  0  0  0  0  0  0
  187.3220  177.7480  143.4590 C   0  0  0  0  0  2  0  0  0  0  0  0
  185.0670  177.9830  142.9360 C   0  0  0  0  0  1  0  0  0  0  0  0
  185.9940  177.8530  144.0550 N   0  0  0  0  0  0  0  0  0  0  0  0
  185.3190  180.1130  144.1140 O   0  0  0  0  0  1  0  0  0  0  0  0
  185.9420  179.0920  144.8400 C   0  0  1  0  0  3  0  0  0  0  0  0
  183.8890  178.6650  146.0860 C   0  0  0  0  0  2  0  0  0  0  0  0
  185.2010  178.8940  146.1380 C   0  0  0  0  0  0  0  0  0  0  0  0
  185.9040  178.8810  147.4720 C   0  0  0  0  0  0  0  0  0  0  0  0
  185.1500  178.1700  148.3870 F   0  0  0  0  0  0  0  0  0  0  0  0
  187.1520  178.2900  147.3710 F   0  0  0  0  0  0  0  0  0  0  0  0
  186.0630  180.1770  147.9270 F   0  0  0  0  0  0  0  0  0  0  0  0
  1  9  1  1  0  0  0
  1  6  1  0  0  0  0
  2  3  1  1  0  0  0
  2  5  1  0  0  0  0
  3  7  1  0  0  0  0
  4  7  2  0  0  0  0
  5 14  1  6  0  0  0
  5 16  1  0  0  0  0
  8 21  1  6  0  0  0
  8 12  1  0  0  0  0
 10 18  1  0  0  0  0
 10 19  1  0  0  0  0
 11  4  1  0  0  0  0
 12 16  1  0  0  0  0
 13 18  1  6  0  0  0
 13  2  1  0  0  0  0
 13  8  1  0  0  0  0
 14  1  1  0  0  0  0
 15 20  1  0  0  0  0
 16 17  1  1  0  0  0
 17  6  2  0  0  0  0
 19  3  2  0  0  0  0
 20 19  1  0  0  0  0
 20 11  2  0  0  0  0
 21 23  1  0  0  0  0
 22 23  1  0  0  0  0
 23 25  1  0  0  0  0
 25 24  1  6  0  0  0
 25 27  1  0  0  0  0
 26 27  2  0  0  0  0
 27 28  1  0  0  0  0
 28 31  1  0  0  0  0
 28 29  1  0  0  0  0
 30 28  1  0  0  0  0
M  END
>  <MODEL>
8

>  <REMARK>
 VINA RESULT:      -7.3      2.605      4.450
  Name = 
  5 active torsions:
  status: ('A' for Active; 'I' for Inactive)
    1  A    between atoms: C_1  and  C_19
    2  A    between atoms: N_9  and  C_22
    3  A    between atoms: N_9  and  C_23
    4  A    between atoms: C_15  and  C_23
    5  A    between atoms: C_19  and  C_22
                            x       y       z     vdW  Elec       q    Type
                         _______ _______ _______ _____ _____    ______ ____

>  <TORSDO>
F 5

$$$$
=
 OpenBabel11052417563D

 31 34  0  0  1  0  0  0  0  0999 V2000
  184.7060  178.3500  146.5720 C   0  0  1  0  0  3  0  0  0  0  0  0
  187.1480  176.2390  144.4430 C   0  0  2  0  0  3  0  0  0  0  0  0
  187.0510  176.5950  142.9760 C   0  0  0  0  0  0  0  0  0  0  0  0
  186.2490  178.0020  141.1650 C   0  0  0  0  0  3  0  0  0  0  0  0
  186.6700  177.3410  145.3940 C   0  0  1  0  0  3  0  0  0  0  0  0
  185.6910  178.7760  147.6380 C   0  0  0  0  0  3  0  0  0  0  0  0
  186.3590  177.7320  142.5320 C   0  0  0  0  0  3  0  0  0  0  0  0
  189.4900  176.5110  145.5930 C   0  0  2  0  0  3  0  0  0  0  0  0
  184.4610  179.4170  145.7280 F   0  0  0  0  0  0  0  0  0  0  0  0
  188.3270  174.4950  142.5310 C   0  0  0  0  0  2  0  0  0  0  0  0
  186.8180  177.1310  140.2330 C   0  0  0  0  0  3  0  0  0  0  0  0
  188.8780  177.6190  146.3470 N   0  0  0  0  0  2  0  0  0  0  0  0
  188.5060  175.5850  144.8400 C   0  0  2  0  0  3  0  0  0  0  0  0
  185.1990  177.1550  145.7490 C   0  0  0  0  0  2  0  0  0  0  0  0
  188.1910  174.9180  139.4500 Cl  0  0  0  0  0  0  0  0  0  0  0  0
  187.4870  177.3400  146.6790 C   0  0  1  0  0  3  0  0  0  0  0  0
  186.9680  178.3560  147.6600 C   0  0  0  0  0  3  0  0  0  0  0  0
  189.2470  174.8840  143.6840 C   0  0  0  0  0  2  0  0  0  0  0  0
  187.6160  175.7170  142.0330 C   0  0  0  0  0  0  0  0  0  0  0  0
  187.4980  175.9860  140.6590 C   0  0  0  0  0  0  0  0  0  0  0  0
  190.3830  175.6840  146.5110 C   0  0  0  0  0  2  0  0  0  0  0  0
  192.3890  174.5410  146.7910 C   0  0  0  0  0  1  0  0  0  0  0  0
  191.6270  175.3350  145.8340 N   0  0  0  0  0  0  0  0  0  0  0  0
  193.1770  176.9080  146.6670 O   0  0  0  0  0  1  0  0  0  0  0  0
  192.3700  176.5750  145.5740 C   0  0  1  0  0  3  0  0  0  0  0  0
  194.5560  176.3770  144.5100 C   0  0  0  0  0  2  0  0  0  0  0  0
  193.2350  176.4550  144.3460 C   0  0  0  0  0  0  0  0  0  0  0  0
  192.6530  176.3540  142.9580 C   0  0  0  0  0  0  0  0  0  0  0  0
  191.5150  177.1340  142.8730 F   0  0  0  0  0  0  0  0  0  0  0  0
  193.5610  176.7870  142.0060 F   0  0  0  0  0  0  0  0  0  0  0  0
  192.3210  175.0390  142.6860 F   0  0  0  0  0  0  0  0  0  0  0  0
  1  9  1  6  0  0  0
  1  6  1  0  0  0  0
  2  3  1  6  0  0  0
  2 13  1  0  0  0  0
  2  5  1  0  0  0  0
  4  7  2  0  0  0  0
  5 14  1  1  0  0  0
  5 16  1  0  0  0  0
  6 17  2  0  0  0  0
  7  3  1  0  0  0  0
  8 12  1  0  0  0  0
  8 21  1  1  0  0  0
 10 18  1  0  0  0  0
 11 20  2  0  0  0  0
 11  4  1  0  0  0  0
 12 16  1  0  0  0  0
 13 18  1  6  0  0  0
 13  8  1  0  0  0  0
 14  1  1  0  0  0  0
 15 20  1  0  0  0  0
 16 17  1  1  0  0  0
 19 10  1  0  0  0  0
 19  3  2  0  0  0  0
 20 19  1  0  0  0  0
 23 21  1  0  0  0  0
 23 22  1  0  0  0  0
 25 23  1  0  0  0  0
 25 24  1  1  0  0  0
 27 26  2  0  0  0  0
 27 25  1  0  0  0  0
 28 27  1  0  0  0  0
 29 28  1  0  0  0  0
 30 28  1  0  0  0  0
 31 28  1  0  0  0  0
M  END
>  <MODEL>
9

>  <REMARK>
 VINA RESULT:      -7.3      3.398      7.348
  Name = 
  5 active torsions:
  status: ('A' for Active; 'I' for Inactive)
    1  A    between atoms: C_1  and  C_19
    2  A    between atoms: N_9  and  C_22
    3  A    between atoms: N_9  and  C_23
    4  A    between atoms: C_15  and  C_23
    5  A    between atoms: C_19  and  C_22
                            x       y       z     vdW  Elec       q    Type
                         _______ _______ _______ _____ _____    ______ ____

>  <TORSDO>
F 5

$$$$
