=
 OpenBabel11052417093D

 30 32  0  0  1  0  0  0  0  0999 V2000
  189.7890  175.9310  143.8450 C   0  0  1  0  0  3  0  0  0  0  0  0
  191.0250  175.7670  142.9410 C   0  0  2  0  0  3  0  0  0  0  0  0
  193.2220  176.2730  143.8350 O   0  0  0  0  0  0  0  0  0  0  0  0
  191.9980  174.2790  144.7610 C   0  0  2  0  0  3  0  0  0  0  0  0
  191.0730  174.5770  141.9870 C   0  0  2  0  0  3  0  0  0  0  0  0
  191.1740  173.0290  144.3510 C   0  0  0  0  0  2  0  0  0  0  0  0
  195.3810  176.7240  144.4360 O   0  0  0  0  0  1  0  0  0  0  0  0
  194.4230  175.7180  144.3150 C   0  0  1  0  0  3  0  0  0  0  0  0
  193.9500  172.8510  144.8230 O   0  0  0  0  0  1  0  0  0  0  0  0
  194.2020  175.0650  145.6760 C   0  0  0  0  0  2  0  0  0  0  0  0
  192.2990  175.2340  143.5740 C   0  0  1  0  0  0  0  0  0  0  0  0
  190.2210  173.1300  142.7550 S   0  0  0  0  0  0  0  0  0  0  0  0
  193.2750  173.8680  145.5070 C   0  0  1  0  0  3  0  0  0  0  0  0
  192.5540  174.4280  142.3090 C   0  0  0  0  0  2  0  0  0  0  0  0
  189.9950  176.9760  144.7500 O   0  0  0  0  0  0  0  0  0  0  0  0
  188.9340  176.8890  145.6560 C   0  0  0  0  0  2  0  0  0  0  0  0
  189.4500  176.4860  147.0270 C   0  0  1  0  0  3  0  0  0  0  0  0
  189.1060  174.7280  147.3280 S   0  0  0  0  0  1  0  0  0  0  0  0
  190.8260  176.7080  147.0880 O   0  0  0  0  0  0  0  0  0  0  0  0
  191.2840  175.8380  148.0780 C   0  0  0  0  0  1  0  0  0  0  0  0
  188.5260  176.1850  143.0210 C   0  0  0  0  0  2  0  0  0  0  0  0
  188.6650  177.6770  141.9810 S   0  0  0  0  0  0  0  0  0  0  0  0
  187.2920  177.1690  140.9040 C   0  0  0  0  0  2  0  0  0  0  0  0
  186.0740  178.0450  141.1470 C   0  0  0  0  0  2  0  0  0  0  0  0
  186.2400  178.8860  142.4040 C   0  0  0  0  0  2  0  0  0  0  0  0
  185.0290  178.9840  143.0930 O   0  0  0  0  0  0  0  0  0  0  0  0
  185.3090  179.7930  144.1970 C   0  0  0  0  0  2  0  0  0  0  0  0
  185.8170  178.9380  145.3480 C   0  0  0  0  0  2  0  0  0  0  0  0
  185.2690  176.8060  146.5260 C   0  0  0  0  0  1  0  0  0  0  0  0
  184.7040  178.0830  145.9340 C   0  0  0  0  0  2  0  0  0  0  0  0
  1 21  1  6  0  0  0
  1 15  1  0  0  0  0
  2 11  1  0  0  0  0
  2  1  1  1  0  0  0
  3  8  1  0  0  0  0
  4  6  1  6  0  0  0
  4 13  1  0  0  0  0
  5 14  1  1  0  0  0
  5 12  1  0  0  0  0
  5  2  1  0  0  0  0
  8  7  1  1  0  0  0
  8 10  1  0  0  0  0
 11 14  1  6  0  0  0
 11  3  1  0  0  0  0
 11  4  1  0  0  0  0
 12  6  1  0  0  0  0
 13  9  1  6  0  0  0
 13 10  1  0  0  0  0
 15 16  1  0  0  0  0
 16 17  1  0  0  0  0
 17 19  1  0  0  0  0
 17 18  1  6  0  0  0
 19 20  1  0  0  0  0
 22 21  1  0  0  0  0
 23 24  1  0  0  0  0
 23 22  1  0  0  0  0
 24 25  1  0  0  0  0
 25 26  1  0  0  0  0
 26 27  1  0  0  0  0
 27 28  1  0  0  0  0
 28 30  1  0  0  0  0
 30 29  1  0  0  0  0
M  END
>  <MODEL>
1

>  <REMARK>
 VINA RESULT:      -5.4      0.000      0.000
  Name = 
  14 active torsions:
  status: ('A' for Active; 'I' for Inactive)
    1  A    between atoms: C_1  and  C_4
    2  A    between atoms: C_4  and  O_10
    3  A    between atoms: C_4  and  C_23
    4  A    between atoms: C_7  and  O_15
    5  A    between atoms: C_7  and  C_25
    6  A    between atoms: C_8  and  O_12
    7  A    between atoms: C_8  and  C_13
    8  A    between atoms: C_9  and  O_12
    9  A    between atoms: C_9  and  C_21
   10  A    between atoms: O_10  and  C_25
   11  A    between atoms: C_13  and  C_30
   12  A    between atoms: C_17  and  C_21
   13  A    between atoms: C_23  and  S_27
   14  A    between atoms: S_27  and  C_30
                            x       y       z     vdW  Elec       q    Type
                         _______ _______ _______ _____ _____    ______ ____

>  <TORSDO>
F 14

$$$$
=
 OpenBabel11052417093D

 30 32  0  0  1  0  0  0  0  0999 V2000
  189.1110  175.8410  142.8270 C   0  0  1  0  0  3  0  0  0  0  0  0
  189.1440  174.9090  144.0530 C   0  0  2  0  0  3  0  0  0  0  0  0
  190.6650  173.0220  144.0660 O   0  0  0  0  0  0  0  0  0  0  0  0
  191.6500  175.3360  144.1490 C   0  0  2  0  0  3  0  0  0  0  0  0
  189.0160  175.5320  145.4400 C   0  0  2  0  0  3  0  0  0  0  0  0
  191.5130  176.7190  144.8420 C   0  0  0  0  0  2  0  0  0  0  0  0
  191.9800  171.1650  144.2930 O   0  0  0  0  0  1  0  0  0  0  0  0
  191.8750  172.5240  144.5860 C   0  0  1  0  0  3  0  0  0  0  0  0
  193.3310  174.7840  145.7990 O   0  0  0  0  0  1  0  0  0  0  0  0
  193.0620  173.2650  143.9790 C   0  0  0  0  0  2  0  0  0  0  0  0
  190.4910  174.3590  144.4880 C   0  0  1  0  0  0  0  0  0  0  0  0
  189.8190  177.1950  145.4510 S   0  0  0  0  0  0  0  0  0  0  0  0
  193.0260  174.7180  144.4360 C   0  0  1  0  0  3  0  0  0  0  0  0
  190.0630  174.5430  145.9370 C   0  0  0  0  0  2  0  0  0  0  0  0
  189.4990  175.1390  141.6820 O   0  0  0  0  0  0  0  0  0  0  0  0
  188.4100  174.3210  141.3680 C   0  0  0  0  0  2  0  0  0  0  0  0
  188.8920  173.0480  140.6930 C   0  0  1  0  0  3  0  0  0  0  0  0
  188.3620  173.0280  138.9550 S   0  0  0  0  0  1  0  0  0  0  0  0
  190.2840  172.9880  140.7560 O   0  0  0  0  0  0  0  0  0  0  0  0
  190.5760  171.6350  140.9300 C   0  0  0  0  0  1  0  0  0  0  0  0
  187.7230  176.4530  142.6290 C   0  0  0  0  0  2  0  0  0  0  0  0
  187.8010  178.1320  141.9230 S   0  0  0  0  0  0  0  0  0  0  0  0
  185.9980  178.3510  142.0010 C   0  0  0  0  0  2  0  0  0  0  0  0
  185.6030  179.0500  143.2910 C   0  0  0  0  0  2  0  0  0  0  0  0
  184.7960  178.1290  144.1940 C   0  0  0  0  0  2  0  0  0  0  0  0
  183.9750  178.8720  145.0450 O   0  0  0  0  0  0  0  0  0  0  0  0
  184.2940  178.4270  146.3300 C   0  0  0  0  0  2  0  0  0  0  0  0
  185.0430  177.1060  146.2490 C   0  0  0  0  0  2  0  0  0  0  0  0
  186.5320  178.4080  147.7710 C   0  0  0  0  0  1  0  0  0  0  0  0
  186.1290  177.0210  147.3100 C   0  0  0  0  0  2  0  0  0  0  0  0
  1 21  1  6  0  0  0
  2  1  1  6  0  0  0
  2 11  1  0  0  0  0
  2  5  1  0  0  0  0
  3 11  1  0  0  0  0
  3  8  1  0  0  0  0
  4 13  1  0  0  0  0
  4 11  1  0  0  0  0
  4  6  1  1  0  0  0
  5 12  1  0  0  0  0
  5 14  1  1  0  0  0
  6 12  1  0  0  0  0
  8  7  1  6  0  0  0
 10 13  1  0  0  0  0
 10  8  1  0  0  0  0
 11 14  1  1  0  0  0
 13  9  1  1  0  0  0
 15  1  1  0  0  0  0
 16 15  1  0  0  0  0
 17 18  1  6  0  0  0
 17 19  1  0  0  0  0
 17 16  1  0  0  0  0
 19 20  1  0  0  0  0
 22 23  1  0  0  0  0
 22 21  1  0  0  0  0
 23 24  1  0  0  0  0
 24 25  1  0  0  0  0
 25 26  1  0  0  0  0
 26 27  1  0  0  0  0
 28 27  1  0  0  0  0
 28 30  1  0  0  0  0
 30 29  1  0  0  0  0
M  END
>  <MODEL>
2

>  <REMARK>
 VINA RESULT:      -5.4      2.303      4.131
  Name = 
  14 active torsions:
  status: ('A' for Active; 'I' for Inactive)
    1  A    between atoms: C_1  and  C_4
    2  A    between atoms: C_4  and  O_10
    3  A    between atoms: C_4  and  C_23
    4  A    between atoms: C_7  and  O_15
    5  A    between atoms: C_7  and  C_25
    6  A    between atoms: C_8  and  O_12
    7  A    between atoms: C_8  and  C_13
    8  A    between atoms: C_9  and  O_12
    9  A    between atoms: C_9  and  C_21
   10  A    between atoms: O_10  and  C_25
   11  A    between atoms: C_13  and  C_30
   12  A    between atoms: C_17  and  C_21
   13  A    between atoms: C_23  and  S_27
   14  A    between atoms: S_27  and  C_30
                            x       y       z     vdW  Elec       q    Type
                         _______ _______ _______ _____ _____    ______ ____

>  <TORSDO>
F 14

$$$$
=
 OpenBabel11052417093D

 30 32  0  0  1  0  0  0  0  0999 V2000
  189.2310  175.5080  143.0010 C   0  0  1  0  0  3  0  0  0  0  0  0
  189.4810  174.7550  144.3210 C   0  0  2  0  0  3  0  0  0  0  0  0
  191.5700  173.5620  144.6250 O   0  0  0  0  0  0  0  0  0  0  0  0
  191.6480  176.0740  144.5130 C   0  0  2  0  0  3  0  0  0  0  0  0
  189.0110  175.3970  145.6230 C   0  0  2  0  0  3  0  0  0  0  0  0
  190.9610  177.3620  145.0440 C   0  0  0  0  0  2  0  0  0  0  0  0
  193.4350  172.3390  145.1280 O   0  0  0  0  0  1  0  0  0  0  0  0
  192.8240  173.5840  145.2650 C   0  0  1  0  0  3  0  0  0  0  0  0
  193.2540  176.3100  146.3070 O   0  0  0  0  0  1  0  0  0  0  0  0
  193.7180  174.6570  144.6510 C   0  0  0  0  0  2  0  0  0  0  0  0
  190.8900  174.7720  144.8900 C   0  0  1  0  0  0  0  0  0  0  0  0
  189.1610  177.2330  145.4990 S   0  0  0  0  0  0  0  0  0  0  0  0
  193.1210  176.0280  144.9440 C   0  0  1  0  0  3  0  0  0  0  0  0
  190.2920  174.9020  146.2830 C   0  0  0  0  0  2  0  0  0  0  0  0
  189.8510  174.8380  141.9430 O   0  0  0  0  0  0  0  0  0  0  0  0
  189.2230  173.5910  141.8810 C   0  0  0  0  0  2  0  0  0  0  0  0
  190.1230  172.5880  141.1790 C   0  0  1  0  0  3  0  0  0  0  0  0
  190.3390  171.1130  142.2180 S   0  0  0  0  0  1  0  0  0  0  0  0
  189.5460  172.2200  139.9630 O   0  0  0  0  0  0  0  0  0  0  0  0
  190.5520  172.4200  139.0170 C   0  0  0  0  0  1  0  0  0  0  0  0
  187.7350  175.6660  142.7250 C   0  0  0  0  0  2  0  0  0  0  0  0
  187.4090  176.6030  141.1950 S   0  0  0  0  0  0  0  0  0  0  0  0
  187.6040  178.2090  142.0240 C   0  0  0  0  0  2  0  0  0  0  0  0
  186.5020  178.4140  143.0500 C   0  0  0  0  0  2  0  0  0  0  0  0
  185.1250  178.3170  142.4090 C   0  0  0  0  0  2  0  0  0  0  0  0
  184.1310  178.6760  143.3230 O   0  0  0  0  0  0  0  0  0  0  0  0
  184.8200  178.9890  144.4970 C   0  0  0  0  0  2  0  0  0  0  0  0
  183.8950  178.8400  145.6950 C   0  0  0  0  0  2  0  0  0  0  0  0
  185.3430  176.8660  146.1860 C   0  0  0  0  0  1  0  0  0  0  0  0
  184.5400  178.0020  146.7890 C   0  0  0  0  0  2  0  0  0  0  0  0
  1 21  1  6  0  0  0
  2  1  1  6  0  0  0
  2 11  1  0  0  0  0
  2  5  1  0  0  0  0
  3 11  1  0  0  0  0
  3  8  1  0  0  0  0
  4 11  1  0  0  0  0
  4 13  1  0  0  0  0
  4  6  1  1  0  0  0
  5 14  1  1  0  0  0
  6 12  1  0  0  0  0
  8  7  1  6  0  0  0
 10 13  1  0  0  0  0
 10  8  1  0  0  0  0
 11 14  1  1  0  0  0
 12  5  1  0  0  0  0
 13  9  1  1  0  0  0
 15  1  1  0  0  0  0
 16 15  1  0  0  0  0
 17 16  1  0  0  0  0
 17 18  1  1  0  0  0
 19 17  1  0  0  0  0
 20 19  1  0  0  0  0
 22 23  1  0  0  0  0
 22 21  1  0  0  0  0
 23 24  1  0  0  0  0
 25 24  1  0  0  0  0
 25 26  1  0  0  0  0
 26 27  1  0  0  0  0
 27 28  1  0  0  0  0
 28 30  1  0  0  0  0
 29 30  1  0  0  0  0
M  END
>  <MODEL>
3

>  <REMARK>
 VINA RESULT:      -5.3      2.164      3.980
  Name = 
  14 active torsions:
  status: ('A' for Active; 'I' for Inactive)
    1  A    between atoms: C_1  and  C_4
    2  A    between atoms: C_4  and  O_10
    3  A    between atoms: C_4  and  C_23
    4  A    between atoms: C_7  and  O_15
    5  A    between atoms: C_7  and  C_25
    6  A    between atoms: C_8  and  O_12
    7  A    between atoms: C_8  and  C_13
    8  A    between atoms: C_9  and  O_12
    9  A    between atoms: C_9  and  C_21
   10  A    between atoms: O_10  and  C_25
   11  A    between atoms: C_13  and  C_30
   12  A    between atoms: C_17  and  C_21
   13  A    between atoms: C_23  and  S_27
   14  A    between atoms: S_27  and  C_30
                            x       y       z     vdW  Elec       q    Type
                         _______ _______ _______ _____ _____    ______ ____

>  <TORSDO>
F 14

$$$$
=
 OpenBabel11052417093D

 30 32  0  0  1  0  0  0  0  0999 V2000
  190.7680  174.8400  143.6930 C   0  0  1  0  0  3  0  0  0  0  0  0
  191.9080  175.7050  143.1250 C   0  0  2  0  0  3  0  0  0  0  0  0
  193.4400  176.7990  144.6540 O   0  0  0  0  0  0  0  0  0  0  0  0
  193.5010  174.2880  144.5120 C   0  0  2  0  0  3  0  0  0  0  0  0
  192.6250  175.2240  141.8670 C   0  0  2  0  0  3  0  0  0  0  0  0
  193.5140  173.1010  143.5110 C   0  0  0  0  0  2  0  0  0  0  0  0
  194.9770  177.9560  145.8890 O   0  0  0  0  0  1  0  0  0  0  0  0
  194.7370  176.7680  145.2000 C   0  0  1  0  0  3  0  0  0  0  0  0
  195.9160  174.1380  144.5690 O   0  0  0  0  0  1  0  0  0  0  0  0
  194.8840  175.5890  146.1570 C   0  0  0  0  0  2  0  0  0  0  0  0
  193.2510  175.6620  143.8350 C   0  0  1  0  0  0  0  0  0  0  0  0
  192.6980  173.3790  141.8610 S   0  0  0  0  0  0  0  0  0  0  0  0
  194.7770  174.2910  145.3660 C   0  0  1  0  0  3  0  0  0  0  0  0
  193.9350  175.7060  142.4770 C   0  0  0  0  0  2  0  0  0  0  0  0
  190.8120  174.8490  145.0910 O   0  0  0  0  0  0  0  0  0  0  0  0
  189.5300  174.4710  145.4990 C   0  0  0  0  0  2  0  0  0  0  0  0
  189.1680  175.1720  146.7970 C   0  0  1  0  0  3  0  0  0  0  0  0
  190.4630  176.3680  147.2390 S   0  0  0  0  0  1  0  0  0  0  0  0
  187.9530  175.8400  146.6400 O   0  0  0  0  0  0  0  0  0  0  0  0
  188.2800  177.1950  146.7060 C   0  0  0  0  0  1  0  0  0  0  0  0
  189.4030  175.3250  143.2030 C   0  0  0  0  0  2  0  0  0  0  0  0
  189.4090  177.0980  142.7790 S   0  0  0  0  0  0  0  0  0  0  0  0
  187.6010  177.2340  142.9160 C   0  0  0  0  0  2  0  0  0  0  0  0
  187.0070  177.7460  141.6140 C   0  0  0  0  0  2  0  0  0  0  0  0
  185.5790  178.2310  141.8110 C   0  0  0  0  0  2  0  0  0  0  0  0
  184.9960  177.6080  142.9170 O   0  0  0  0  0  0  0  0  0  0  0  0
  184.1710  178.5820  143.4850 C   0  0  0  0  0  2  0  0  0  0  0  0
  185.0190  179.6320  144.1860 C   0  0  0  0  0  2  0  0  0  0  0  0
  184.2390  178.4780  146.2590 C   0  0  0  0  0  1  0  0  0  0  0  0
  185.4020  179.1840  145.5890 C   0  0  0  0  0  2  0  0  0  0  0  0
  1 21  1  1  0  0  0
  1 15  1  0  0  0  0
  2  1  1  1  0  0  0
  2 11  1  0  0  0  0
  3  8  1  0  0  0  0
  4  6  1  6  0  0  0
  4 13  1  0  0  0  0
  5 14  1  1  0  0  0
  5  2  1  0  0  0  0
  8  7  1  1  0  0  0
  8 10  1  0  0  0  0
 11 14  1  6  0  0  0
 11  4  1  0  0  0  0
 11  3  1  0  0  0  0
 12  5  1  0  0  0  0
 12  6  1  0  0  0  0
 13  9  1  6  0  0  0
 13 10  1  0  0  0  0
 15 16  1  0  0  0  0
 16 17  1  0  0  0  0
 17 18  1  6  0  0  0
 19 20  1  0  0  0  0
 19 17  1  0  0  0  0
 22 23  1  0  0  0  0
 22 21  1  0  0  0  0
 24 25  1  0  0  0  0
 24 23  1  0  0  0  0
 25 26  1  0  0  0  0
 26 27  1  0  0  0  0
 27 28  1  0  0  0  0
 28 30  1  0  0  0  0
 30 29  1  0  0  0  0
M  END
>  <MODEL>
4

>  <REMARK>
 VINA RESULT:      -5.3      1.568      1.869
  Name = 
  14 active torsions:
  status: ('A' for Active; 'I' for Inactive)
    1  A    between atoms: C_1  and  C_4
    2  A    between atoms: C_4  and  O_10
    3  A    between atoms: C_4  and  C_23
    4  A    between atoms: C_7  and  O_15
    5  A    between atoms: C_7  and  C_25
    6  A    between atoms: C_8  and  O_12
    7  A    between atoms: C_8  and  C_13
    8  A    between atoms: C_9  and  O_12
    9  A    between atoms: C_9  and  C_21
   10  A    between atoms: O_10  and  C_25
   11  A    between atoms: C_13  and  C_30
   12  A    between atoms: C_17  and  C_21
   13  A    between atoms: C_23  and  S_27
   14  A    between atoms: S_27  and  C_30
                            x       y       z     vdW  Elec       q    Type
                         _______ _______ _______ _____ _____    ______ ____

>  <TORSDO>
F 14

$$$$
=
 OpenBabel11052417093D

 30 32  0  0  1  0  0  0  0  0999 V2000
  192.0460  175.8040  144.9390 C   0  0  1  0  0  3  0  0  0  0  0  0
  193.0210  175.2190  145.9770 C   0  0  2  0  0  3  0  0  0  0  0  0
  193.7720  172.9260  145.7380 O   0  0  0  0  0  0  0  0  0  0  0  0
  194.5310  174.6060  144.0250 C   0  0  2  0  0  3  0  0  0  0  0  0
  194.1320  176.1160  146.5140 C   0  0  2  0  0  3  0  0  0  0  0  0
  195.1090  176.0370  143.8620 C   0  0  0  0  0  2  0  0  0  0  0  0
  194.5860  170.7900  145.7460 O   0  0  0  0  0  1  0  0  0  0  0  0
  194.8500  172.1030  145.3610 C   0  0  1  0  0  3  0  0  0  0  0  0
  196.8040  173.7820  143.9230 O   0  0  0  0  0  1  0  0  0  0  0  0
  195.0600  172.1550  143.8510 C   0  0  0  0  0  2  0  0  0  0  0  0
  194.1030  174.2760  145.4800 C   0  0  1  0  0  0  0  0  0  0  0  0
  194.6910  177.2740  145.1890 S   0  0  0  0  0  0  0  0  0  0  0  0
  195.5030  173.5600  143.4600 C   0  0  1  0  0  3  0  0  0  0  0  0
  195.0700  174.9170  146.4650 C   0  0  0  0  0  2  0  0  0  0  0  0
  191.3960  174.7700  144.2570 O   0  0  0  0  0  0  0  0  0  0  0  0
  191.0920  175.2960  142.9980 C   0  0  0  0  0  2  0  0  0  0  0  0
  189.7290  174.8060  142.5440 C   0  0  1  0  0  3  0  0  0  0  0  0
  189.4690  173.0940  143.0960 S   0  0  0  0  0  1  0  0  0  0  0  0
  188.7370  175.6240  143.0850 O   0  0  0  0  0  0  0  0  0  0  0  0
  188.9480  176.8740  142.5010 C   0  0  0  0  0  1  0  0  0  0  0  0
  191.0220  176.7320  145.5950 C   0  0  0  0  0  2  0  0  0  0  0  0
  189.7820  175.8160  146.5680 S   0  0  0  0  0  0  0  0  0  0  0  0
  188.6190  177.2130  146.5780 C   0  0  0  0  0  2  0  0  0  0  0  0
  187.2360  176.7570  146.1450 C   0  0  0  0  0  2  0  0  0  0  0  0
  186.1610  177.2840  147.0830 C   0  0  0  0  0  2  0  0  0  0  0  0
  185.8530  178.6130  146.7810 O   0  0  0  0  0  0  0  0  0  0  0  0
  184.4860  178.6090  146.4980 C   0  0  0  0  0  2  0  0  0  0  0  0
  184.2670  178.7300  144.9980 C   0  0  0  0  0  2  0  0  0  0  0  0
  185.9210  179.0420  143.1540 C   0  0  0  0  0  1  0  0  0  0  0  0
  185.2750  179.6800  144.3690 C   0  0  0  0  0  2  0  0  0  0  0  0
  1 21  1  1  0  0  0
  2  1  1  6  0  0  0
  2  5  1  0  0  0  0
  4  6  1  1  0  0  0
  4 11  1  0  0  0  0
  5 14  1  6  0  0  0
  6 12  1  0  0  0  0
  8  3  1  0  0  0  0
  8  7  1  6  0  0  0
 10  8  1  0  0  0  0
 11  3  1  0  0  0  0
 11  2  1  0  0  0  0
 11 14  1  1  0  0  0
 12  5  1  0  0  0  0
 13 10  1  0  0  0  0
 13  9  1  1  0  0  0
 13  4  1  0  0  0  0
 15  1  1  0  0  0  0
 16 15  1  0  0  0  0
 17 16  1  0  0  0  0
 17 19  1  0  0  0  0
 17 18  1  1  0  0  0
 20 19  1  0  0  0  0
 21 22  1  0  0  0  0
 22 23  1  0  0  0  0
 24 23  1  0  0  0  0
 24 25  1  0  0  0  0
 26 25  1  0  0  0  0
 27 26  1  0  0  0  0
 28 27  1  0  0  0  0
 29 30  1  0  0  0  0
 30 28  1  0  0  0  0
M  END
>  <MODEL>
5

>  <REMARK>
 VINA RESULT:      -5.2      2.118      4.294
  Name = 
  14 active torsions:
  status: ('A' for Active; 'I' for Inactive)
    1  A    between atoms: C_1  and  C_4
    2  A    between atoms: C_4  and  O_10
    3  A    between atoms: C_4  and  C_23
    4  A    between atoms: C_7  and  O_15
    5  A    between atoms: C_7  and  C_25
    6  A    between atoms: C_8  and  O_12
    7  A    between atoms: C_8  and  C_13
    8  A    between atoms: C_9  and  O_12
    9  A    between atoms: C_9  and  C_21
   10  A    between atoms: O_10  and  C_25
   11  A    between atoms: C_13  and  C_30
   12  A    between atoms: C_17  and  C_21
   13  A    between atoms: C_23  and  S_27
   14  A    between atoms: S_27  and  C_30
                            x       y       z     vdW  Elec       q    Type
                         _______ _______ _______ _____ _____    ______ ____

>  <TORSDO>
F 14

$$$$
=
 OpenBabel11052417093D

 30 32  0  0  1  0  0  0  0  0999 V2000
  191.6430  175.7630  144.2760 C   0  0  1  0  0  3  0  0  0  0  0  0
  192.5700  174.5980  144.6710 C   0  0  2  0  0  3  0  0  0  0  0  0
  194.0650  173.6570  143.0100 O   0  0  0  0  0  0  0  0  0  0  0  0
  194.5000  176.0070  143.7990 C   0  0  2  0  0  3  0  0  0  0  0  0
  193.2170  174.6230  146.0530 C   0  0  2  0  0  3  0  0  0  0  0  0
  194.5910  176.8920  145.0710 C   0  0  0  0  0  2  0  0  0  0  0  0
  195.5260  172.5850  141.6160 O   0  0  0  0  0  1  0  0  0  0  0  0
  195.4010  173.5920  142.5720 C   0  0  1  0  0  3  0  0  0  0  0  0
  196.9010  175.7370  143.9330 O   0  0  0  0  0  1  0  0  0  0  0  0
  195.8290  174.9230  141.9630 C   0  0  0  0  0  2  0  0  0  0  0  0
  193.9700  174.5750  144.0810 C   0  0  1  0  0  0  0  0  0  0  0  0
  193.5740  176.3680  146.5400 S   0  0  0  0  0  0  0  0  0  0  0  0
  195.8420  175.9870  143.0540 C   0  0  1  0  0  3  0  0  0  0  0  0
  194.4930  174.0810  145.4210 C   0  0  0  0  0  2  0  0  0  0  0  0
  191.2700  175.6420  142.9340 O   0  0  0  0  0  0  0  0  0  0  0  0
  190.4730  174.4950  142.8780 C   0  0  0  0  0  2  0  0  0  0  0  0
  189.4940  174.5970  141.7210 C   0  0  1  0  0  3  0  0  0  0  0  0
  189.3130  172.9770  140.9160 S   0  0  0  0  0  1  0  0  0  0  0  0
  188.2530  175.0190  142.1990 O   0  0  0  0  0  0  0  0  0  0  0  0
  188.0180  176.2340  141.5560 C   0  0  0  0  0  1  0  0  0  0  0  0
  190.4030  175.8160  145.1680 C   0  0  0  0  0  2  0  0  0  0  0  0
  189.5380  177.4180  145.0580 S   0  0  0  0  0  0  0  0  0  0  0  0
  187.9080  176.6650  145.3410 C   0  0  0  0  0  2  0  0  0  0  0  0
  187.7150  176.3560  146.8160 C   0  0  0  0  0  2  0  0  0  0  0  0
  186.3450  176.8070  147.3010 C   0  0  0  0  0  2  0  0  0  0  0  0
  186.3500  178.1740  147.5850 O   0  0  0  0  0  0  0  0  0  0  0  0
  185.0280  178.5840  147.3980 C   0  0  0  0  0  2  0  0  0  0  0  0
  184.4950  178.0270  146.0870 C   0  0  0  0  0  2  0  0  0  0  0  0
  185.5800  179.4910  144.3800 C   0  0  0  0  0  1  0  0  0  0  0  0
  184.2750  179.1330  145.0660 C   0  0  0  0  0  2  0  0  0  0  0  0
  1 21  1  1  0  0  0
  2  1  1  6  0  0  0
  2  5  1  0  0  0  0
  3 11  1  0  0  0  0
  4 11  1  0  0  0  0
  4  6  1  1  0  0  0
  5 14  1  6  0  0  0
  5 12  1  0  0  0  0
  6 12  1  0  0  0  0
  8  7  1  6  0  0  0
  8  3  1  0  0  0  0
 10  8  1  0  0  0  0
 10 13  1  0  0  0  0
 11  2  1  0  0  0  0
 11 14  1  1  0  0  0
 13  4  1  0  0  0  0
 13  9  1  1  0  0  0
 15  1  1  0  0  0  0
 16 15  1  0  0  0  0
 17 18  1  1  0  0  0
 17 19  1  0  0  0  0
 17 16  1  0  0  0  0
 20 19  1  0  0  0  0
 22 21  1  0  0  0  0
 22 23  1  0  0  0  0
 23 24  1  0  0  0  0
 24 25  1  0  0  0  0
 25 26  1  0  0  0  0
 27 26  1  0  0  0  0
 28 27  1  0  0  0  0
 29 30  1  0  0  0  0
 30 28  1  0  0  0  0
M  END
>  <MODEL>
6

>  <REMARK>
 VINA RESULT:      -5.2      2.201      4.308
  Name = 
  14 active torsions:
  status: ('A' for Active; 'I' for Inactive)
    1  A    between atoms: C_1  and  C_4
    2  A    between atoms: C_4  and  O_10
    3  A    between atoms: C_4  and  C_23
    4  A    between atoms: C_7  and  O_15
    5  A    between atoms: C_7  and  C_25
    6  A    between atoms: C_8  and  O_12
    7  A    between atoms: C_8  and  C_13
    8  A    between atoms: C_9  and  O_12
    9  A    between atoms: C_9  and  C_21
   10  A    between atoms: O_10  and  C_25
   11  A    between atoms: C_13  and  C_30
   12  A    between atoms: C_17  and  C_21
   13  A    between atoms: C_23  and  S_27
   14  A    between atoms: S_27  and  C_30
                            x       y       z     vdW  Elec       q    Type
                         _______ _______ _______ _____ _____    ______ ____

>  <TORSDO>
F 14

$$$$
=
 OpenBabel11052417093D

 30 32  0  0  1  0  0  0  0  0999 V2000
  189.2930  177.0450  143.5540 C   0  0  1  0  0  3  0  0  0  0  0  0
  187.9860  176.2550  143.7540 C   0  0  2  0  0  3  0  0  0  0  0  0
  186.4360  176.9480  145.4850 O   0  0  0  0  0  0  0  0  0  0  0  0
  186.7610  178.4710  143.5080 C   0  0  2  0  0  3  0  0  0  0  0  0
  187.2500  175.7460  142.5180 C   0  0  2  0  0  3  0  0  0  0  0  0
  186.8510  178.4900  141.9580 C   0  0  0  0  0  2  0  0  0  0  0  0
  184.8460  177.3840  147.0680 O   0  0  0  0  0  1  0  0  0  0  0  0
  185.2120  177.5940  145.7400 C   0  0  1  0  0  3  0  0  0  0  0  0
  184.4140  179.0150  143.2810 O   0  0  0  0  0  1  0  0  0  0  0  0
  185.3340  179.0920  145.4800 C   0  0  0  0  0  2  0  0  0  0  0  0
  186.7330  177.0380  144.1050 C   0  0  1  0  0  0  0  0  0  0  0  0
  187.4690  176.9420  141.1280 S   0  0  0  0  0  0  0  0  0  0  0  0
  185.5780  179.3200  143.9940 C   0  0  1  0  0  3  0  0  0  0  0  0
  185.9370  176.1110  143.1990 C   0  0  0  0  0  2  0  0  0  0  0  0
  189.6800  177.6410  144.7570 O   0  0  0  0  0  0  0  0  0  0  0  0
  190.2450  176.6090  145.5120 C   0  0  0  0  0  2  0  0  0  0  0  0
  189.6260  176.5790  146.8990 C   0  0  1  0  0  3  0  0  0  0  0  0
  188.9660  174.9220  147.2480 S   0  0  0  0  0  1  0  0  0  0  0  0
  190.5970  176.9020  147.8470 O   0  0  0  0  0  0  0  0  0  0  0  0
  191.7980  176.4560  147.2940 C   0  0  0  0  0  1  0  0  0  0  0  0
  190.4110  176.1470  143.0230 C   0  0  0  0  0  2  0  0  0  0  0  0
  191.9700  177.0590  142.7700 S   0  0  0  0  0  0  0  0  0  0  0  0
  192.9200  175.5390  142.4670 C   0  0  0  0  0  2  0  0  0  0  0  0
  192.6290  174.5070  143.5440 C   0  0  0  0  0  2  0  0  0  0  0  0
  193.8070  174.3520  144.4950 C   0  0  0  0  0  2  0  0  0  0  0  0
  194.1360  175.5800  145.0740 O   0  0  0  0  0  0  0  0  0  0  0  0
  195.3230  175.3410  145.7700 C   0  0  0  0  0  2  0  0  0  0  0  0
  196.2500  174.4760  144.9310 C   0  0  0  0  0  2  0  0  0  0  0  0
  196.8180  172.1970  145.7780 C   0  0  0  0  0  1  0  0  0  0  0  0
  197.1930  173.6670  145.8080 C   0  0  0  0  0  2  0  0  0  0  0  0
  1 21  1  1  0  0  0
  1 15  1  0  0  0  0
  2  1  1  6  0  0  0
  2 11  1  0  0  0  0
  3  8  1  0  0  0  0
  4  6  1  6  0  0  0
  4 13  1  0  0  0  0
  4 11  1  0  0  0  0
  5 14  1  1  0  0  0
  5  2  1  0  0  0  0
  8  7  1  1  0  0  0
 10  8  1  0  0  0  0
 11 14  1  6  0  0  0
 11  3  1  0  0  0  0
 12  6  1  0  0  0  0
 12  5  1  0  0  0  0
 13  9  1  6  0  0  0
 13 10  1  0  0  0  0
 15 16  1  0  0  0  0
 16 17  1  0  0  0  0
 17 18  1  1  0  0  0
 17 19  1  0  0  0  0
 20 19  1  0  0  0  0
 22 21  1  0  0  0  0
 23 22  1  0  0  0  0
 23 24  1  0  0  0  0
 24 25  1  0  0  0  0
 25 26  1  0  0  0  0
 26 27  1  0  0  0  0
 28 27  1  0  0  0  0
 28 30  1  0  0  0  0
 29 30  1  0  0  0  0
M  END
>  <MODEL>
7

>  <REMARK>
 VINA RESULT:      -5.1      1.906      7.509
  Name = 
  14 active torsions:
  status: ('A' for Active; 'I' for Inactive)
    1  A    between atoms: C_1  and  C_4
    2  A    between atoms: C_4  and  O_10
    3  A    between atoms: C_4  and  C_23
    4  A    between atoms: C_7  and  O_15
    5  A    between atoms: C_7  and  C_25
    6  A    between atoms: C_8  and  O_12
    7  A    between atoms: C_8  and  C_13
    8  A    between atoms: C_9  and  O_12
    9  A    between atoms: C_9  and  C_21
   10  A    between atoms: O_10  and  C_25
   11  A    between atoms: C_13  and  C_30
   12  A    between atoms: C_17  and  C_21
   13  A    between atoms: C_23  and  S_27
   14  A    between atoms: S_27  and  C_30
                            x       y       z     vdW  Elec       q    Type
                         _______ _______ _______ _____ _____    ______ ____

>  <TORSDO>
F 14

$$$$
=
 OpenBabel11052417093D

 30 32  0  0  1  0  0  0  0  0999 V2000
  188.7050  176.6280  142.5850 C   0  0  1  0  0  3  0  0  0  0  0  0
  188.7620  177.1200  144.0430 C   0  0  2  0  0  3  0  0  0  0  0  0
  188.6750  175.4990  145.8440 O   0  0  0  0  0  0  0  0  0  0  0  0
  190.7140  175.5220  144.3700 C   0  0  2  0  0  3  0  0  0  0  0  0
  189.6950  178.2790  144.3810 C   0  0  2  0  0  3  0  0  0  0  0  0
  191.7570  176.4640  143.7080 C   0  0  0  0  0  2  0  0  0  0  0  0
  188.5710  174.1720  147.7030 O   0  0  0  0  0  1  0  0  0  0  0  0
  189.4310  174.8280  146.8240 C   0  0  1  0  0  3  0  0  0  0  0  0
  192.2840  175.2230  146.1870 O   0  0  0  0  0  1  0  0  0  0  0  0
  190.3630  173.8090  146.1740 C   0  0  0  0  0  2  0  0  0  0  0  0
  189.5390  176.2810  145.0430 C   0  0  1  0  0  0  0  0  0  0  0  0
  191.2000  178.1970  143.3150 S   0  0  0  0  0  0  0  0  0  0  0  0
  191.4010  174.5490  145.3390 C   0  0  1  0  0  3  0  0  0  0  0  0
  190.0460  177.5660  145.6810 C   0  0  0  0  0  2  0  0  0  0  0  0
  187.8730  175.5090  142.4900 O   0  0  0  0  0  0  0  0  0  0  0  0
  188.7330  174.4330  142.2520 C   0  0  0  0  0  2  0  0  0  0  0  0
  188.1550  173.5320  141.1740 C   0  0  1  0  0  3  0  0  0  0  0  0
  188.5660  174.1880  139.5300 S   0  0  0  0  0  1  0  0  0  0  0  0
  188.6850  172.2490  141.3080 O   0  0  0  0  0  0  0  0  0  0  0  0
  189.3920  172.2790  142.5110 C   0  0  0  0  0  1  0  0  0  0  0  0
  188.2200  177.7310  141.6430 C   0  0  0  0  0  2  0  0  0  0  0  0
  186.5950  177.3500  140.9100 S   0  0  0  0  0  0  0  0  0  0  0  0
  185.7480  178.6250  141.8910 C   0  0  0  0  0  2  0  0  0  0  0  0
  184.8370  177.9820  142.9230 C   0  0  0  0  0  2  0  0  0  0  0  0
  184.4370  178.9770  144.0040 C   0  0  0  0  0  2  0  0  0  0  0  0
  184.2650  178.3290  145.2290 O   0  0  0  0  0  0  0  0  0  0  0  0
  185.2030  177.2940  145.2220 C   0  0  0  0  0  2  0  0  0  0  0  0
  185.8440  177.1690  146.5950 C   0  0  0  0  0  2  0  0  0  0  0  0
  186.7050  179.0240  148.0270 C   0  0  0  0  0  1  0  0  0  0  0  0
  185.4640  178.3380  147.4900 C   0  0  0  0  0  2  0  0  0  0  0  0
  1 21  1  6  0  0  0
  2  1  1  6  0  0  0
  2  5  1  0  0  0  0
  2 11  1  0  0  0  0
  3  8  1  0  0  0  0
  4  6  1  1  0  0  0
  4 11  1  0  0  0  0
  4 13  1  0  0  0  0
  5 14  1  1  0  0  0
  8  7  1  1  0  0  0
 10  8  1  0  0  0  0
 11 14  1  1  0  0  0
 11  3  1  0  0  0  0
 12  6  1  0  0  0  0
 12  5  1  0  0  0  0
 13 10  1  0  0  0  0
 13  9  1  1  0  0  0
 15  1  1  0  0  0  0
 16 15  1  0  0  0  0
 17 18  1  6  0  0  0
 17 19  1  0  0  0  0
 17 16  1  0  0  0  0
 19 20  1  0  0  0  0
 22 21  1  0  0  0  0
 22 23  1  0  0  0  0
 23 24  1  0  0  0  0
 24 25  1  0  0  0  0
 25 26  1  0  0  0  0
 27 26  1  0  0  0  0
 27 28  1  0  0  0  0
 28 30  1  0  0  0  0
 30 29  1  0  0  0  0
M  END
>  <MODEL>
8

>  <REMARK>
 VINA RESULT:      -5.0      2.344      4.328
  Name = 
  14 active torsions:
  status: ('A' for Active; 'I' for Inactive)
    1  A    between atoms: C_1  and  C_4
    2  A    between atoms: C_4  and  O_10
    3  A    between atoms: C_4  and  C_23
    4  A    between atoms: C_7  and  O_15
    5  A    between atoms: C_7  and  C_25
    6  A    between atoms: C_8  and  O_12
    7  A    between atoms: C_8  and  C_13
    8  A    between atoms: C_9  and  O_12
    9  A    between atoms: C_9  and  C_21
   10  A    between atoms: O_10  and  C_25
   11  A    between atoms: C_13  and  C_30
   12  A    between atoms: C_17  and  C_21
   13  A    between atoms: C_23  and  S_27
   14  A    between atoms: S_27  and  C_30
                            x       y       z     vdW  Elec       q    Type
                         _______ _______ _______ _____ _____    ______ ____

>  <TORSDO>
F 14

$$$$
=
 OpenBabel11052417093D

 30 32  0  0  1  0  0  0  0  0999 V2000
  189.3520  176.8050  143.9530 C   0  0  1  0  0  3  0  0  0  0  0  0
  187.9760  176.1140  143.9600 C   0  0  2  0  0  3  0  0  0  0  0  0
  186.2990  176.8290  145.5590 O   0  0  0  0  0  0  0  0  0  0  0  0
  186.9540  178.4320  143.7330 C   0  0  2  0  0  3  0  0  0  0  0  0
  187.3460  175.7390  142.6210 C   0  0  2  0  0  3  0  0  0  0  0  0
  187.2170  178.5340  142.2060 C   0  0  0  0  0  2  0  0  0  0  0  0
  184.5790  177.3000  146.9890 O   0  0  0  0  0  1  0  0  0  0  0  0
  185.1050  177.5560  145.7240 C   0  0  1  0  0  3  0  0  0  0  0  0
  184.6940  179.1780  143.2940 O   0  0  0  0  0  1  0  0  0  0  0  0
  185.3670  179.0520  145.5800 C   0  0  0  0  0  2  0  0  0  0  0  0
  186.7530  176.9740  144.2270 C   0  0  1  0  0  0  0  0  0  0  0  0
  187.8070  176.9920  141.3460 S   0  0  0  0  0  0  0  0  0  0  0  0
  185.7910  179.3450  144.1450 C   0  0  1  0  0  3  0  0  0  0  0  0
  185.9960  176.1690  143.1820 C   0  0  0  0  0  2  0  0  0  0  0  0
  189.7320  177.1280  145.2590 O   0  0  0  0  0  0  0  0  0  0  0  0
  189.7960  175.9050  145.9330 C   0  0  0  0  0  2  0  0  0  0  0  0
  190.6000  176.0580  147.2130 C   0  0  1  0  0  3  0  0  0  0  0  0
  192.3500  175.6830  146.8960 S   0  0  0  0  0  1  0  0  0  0  0  0
  190.4820  177.3660  147.6820 O   0  0  0  0  0  0  0  0  0  0  0  0
  191.4010  177.4550  148.7280 C   0  0  0  0  0  1  0  0  0  0  0  0
  190.4150  175.9250  143.2940 C   0  0  0  0  0  2  0  0  0  0  0  0
  191.9150  176.8630  142.8530 S   0  0  0  0  0  0  0  0  0  0  0  0
  193.0160  175.4710  143.2510 C   0  0  0  0  0  2  0  0  0  0  0  0
  192.2700  174.1530  143.1290 C   0  0  0  0  0  2  0  0  0  0  0  0
  192.9310  173.2350  142.1110 C   0  0  0  0  0  2  0  0  0  0  0  0
  192.0280  172.2710  141.6580 O   0  0  0  0  0  0  0  0  0  0  0  0
  191.4400  171.7580  142.8170 C   0  0  0  0  0  2  0  0  0  0  0  0
  190.0090  171.3340  142.5260 C   0  0  0  0  0  2  0  0  0  0  0  0
  188.5080  172.7620  141.1330 C   0  0  0  0  0  1  0  0  0  0  0  0
  189.0690  172.5300  142.5230 C   0  0  0  0  0  2  0  0  0  0  0  0
  1 21  1  1  0  0  0
  1 15  1  0  0  0  0
  2  1  1  6  0  0  0
  2 11  1  0  0  0  0
  3  8  1  0  0  0  0
  4  6  1  6  0  0  0
  4 13  1  0  0  0  0
  4 11  1  0  0  0  0
  5 14  1  1  0  0  0
  5  2  1  0  0  0  0
  8  7  1  1  0  0  0
 10  8  1  0  0  0  0
 11 14  1  6  0  0  0
 11  3  1  0  0  0  0
 12  6  1  0  0  0  0
 12  5  1  0  0  0  0
 13  9  1  6  0  0  0
 13 10  1  0  0  0  0
 15 16  1  0  0  0  0
 16 17  1  0  0  0  0
 17 18  1  6  0  0  0
 17 19  1  0  0  0  0
 19 20  1  0  0  0  0
 22 23  1  0  0  0  0
 22 21  1  0  0  0  0
 24 23  1  0  0  0  0
 25 24  1  0  0  0  0
 26 25  1  0  0  0  0
 26 27  1  0  0  0  0
 28 27  1  0  0  0  0
 29 30  1  0  0  0  0
 30 28  1  0  0  0  0
M  END
>  <MODEL>
9

>  <REMARK>
 VINA RESULT:      -5.0      2.149      6.864
  Name = 
  14 active torsions:
  status: ('A' for Active; 'I' for Inactive)
    1  A    between atoms: C_1  and  C_4
    2  A    between atoms: C_4  and  O_10
    3  A    between atoms: C_4  and  C_23
    4  A    between atoms: C_7  and  O_15
    5  A    between atoms: C_7  and  C_25
    6  A    between atoms: C_8  and  O_12
    7  A    between atoms: C_8  and  C_13
    8  A    between atoms: C_9  and  O_12
    9  A    between atoms: C_9  and  C_21
   10  A    between atoms: O_10  and  C_25
   11  A    between atoms: C_13  and  C_30
   12  A    between atoms: C_17  and  C_21
   13  A    between atoms: C_23  and  S_27
   14  A    between atoms: S_27  and  C_30
                            x       y       z     vdW  Elec       q    Type
                         _______ _______ _______ _____ _____    ______ ____

>  <TORSDO>
F 14

$$$$
