=
 OpenBabel11052420033D

 37 39  0  0  1  0  0  0  0  0999 V2000
  188.7230  176.9540  144.4310 C   0  0  0  0  0  3  0  0  0  0  0  0
  192.8230  176.3720  143.0050 C   0  0  0  0  0  3  0  0  0  0  0  0
  188.4490  176.4620  143.2220 C   0  0  0  0  0  0  0  0  0  0  0  0
  191.4760  176.2120  143.3510 C   0  0  0  0  0  0  0  0  0  0  0  0
  191.1350  176.7300  144.5370 C   0  0  0  0  0  2  0  0  0  0  0  0
  190.6290  175.3850  142.5430 C   0  0  0  0  0  0  0  0  0  0  0  0
  192.6070  174.7480  141.2430 C   0  0  0  0  0  3  0  0  0  0  0  0
  189.8540  176.4630  145.2460 C   0  0  1  0  0  3  0  0  0  0  0  0
  191.2520  174.6160  141.5380 C   0  0  0  0  0  3  0  0  0  0  0  0
  189.2620  175.3570  142.6110 C   0  0  2  0  0  3  0  0  0  0  0  0
  193.3920  175.6620  141.9500 C   0  0  0  0  0  0  0  0  0  0  0  0
  194.7420  175.8620  141.6470 O   0  0  0  0  0  0  0  0  0  0  0  0
  195.7660  174.9850  142.0950 C   0  0  0  0  0  1  0  0  0  0  0  0
  189.8560  177.7120  147.6060 C   0  0  0  0  0  3  0  0  0  0  0  0
  189.8560  177.1460  146.5410 C   0  0  0  0  0  0  0  0  0  0  0  0
  187.3340  177.0220  142.5030 N   0  0  0  0  0  0  0  0  0  0  0  0
  186.9870  177.6340  140.2770 O   0  0  0  0  0  1  0  0  0  0  0  0
  187.5380  178.0480  141.4890 C   0  0  0  0  0  2  0  0  0  0  0  0
  185.9620  176.7340  142.9000 C   0  0  0  0  0  2  0  0  0  0  0  0
  185.3350  177.9590  143.5420 C   0  0  0  0  0  2  0  0  0  0  0  0
  185.5610  176.7140  145.7020 C   0  0  0  0  0  3  0  0  0  0  0  0
  185.5500  177.9330  145.0150 C   0  0  0  0  0  0  0  0  0  0  0  0
  185.7160  179.1320  145.7170 C   0  0  0  0  0  3  0  0  0  0  0  0
  186.0650  180.2720  147.7810 F   0  0  0  0  0  0  0  0  0  0  0  0
  185.9180  177.8930  147.7870 C   0  0  0  0  0  3  0  0  0  0  0  0
  185.9020  179.1120  147.1020 C   0  0  0  0  0  0  0  0  0  0  0  0
  185.7460  176.6940  147.0870 C   0  0  0  0  0  3  0  0  0  0  0  0
  188.5070  174.2360  141.9190 C   0  0  1  0  0  3  0  0  0  0  0  0
  188.3140  174.5080  140.5580 O   0  0  0  0  0  0  0  0  0  0  0  0
  188.2980  173.3280  139.9720 O   0  0  0  0  0  0  0  0  0  0  0  0
  189.8660  173.5350  138.1940 C   0  0  0  0  0  1  0  0  0  0  0  0
  188.4110  173.6050  138.6070 C   0  0  0  0  0  2  0  0  0  0  0  0
  189.1810  172.8850  142.1020 C   0  0  0  0  0  2  0  0  0  0  0  0
  188.9450  172.4080  143.3910 O   0  0  0  0  0  0  0  0  0  0  0  0
  190.1680  171.8760  143.7950 C   0  0  0  0  0  2  0  0  0  0  0  0
  192.2910  172.8050  144.6540 C   0  0  0  0  0  1  0  0  0  0  0  0
  190.7900  172.7750  144.8420 C   0  0  0  0  0  2  0  0  0  0  0  0
  1  8  1  0  0  0  0
  2  4  1  0  0  0  0
  3  1  2  0  0  0  0
  4  5  1  0  0  0  0
  5  8  1  0  0  0  0
  6 10  1  0  0  0  0
  6  4  2  0  0  0  0
  7  9  2  0  0  0  0
  7 11  1  0  0  0  0
  8 15  1  1  0  0  0
  9  6  1  0  0  0  0
 10 28  1  6  0  0  0
 10  3  1  0  0  0  0
 11  2  2  0  0  0  0
 12 11  1  0  0  0  0
 12 13  1  0  0  0  0
 15 14  3  0  0  0  0
 16 19  1  0  0  0  0
 16  3  1  0  0  0  0
 17 18  1  0  0  0  0
 18 16  1  0  0  0  0
 19 20  1  0  0  0  0
 20 22  1  0  0  0  0
 21 27  1  0  0  0  0
 22 21  2  0  0  0  0
 22 23  1  0  0  0  0
 23 26  2  0  0  0  0
 26 24  1  0  0  0  0
 26 25  1  0  0  0  0
 27 25  2  0  0  0  0
 28 33  1  6  0  0  0
 29 28  1  0  0  0  0
 30 29  1  0  0  0  0
 31 32  1  0  0  0  0
 32 30  1  0  0  0  0
 33 34  1  0  0  0  0
 34 35  1  0  0  0  0
 35 37  1  0  0  0  0
 36 37  1  0  0  0  0
M  END
>  <MODEL>
1

>  <REMARK>
 VINA RESULT:      -6.1      0.000      0.000
  Name = 
  15 active torsions:
  status: ('A' for Active; 'I' for Inactive)
    1  A    between atoms: O_1  and  O_5
    2  A    between atoms: O_1  and  C_36
    3  A    between atoms: O_3  and  C_32
    4  A    between atoms: O_5  and  C_23
    5  A    between atoms: C_6  and  C_31
    6  A    between atoms: C_10  and  N_14
    7  A    between atoms: N_14  and  C_27
    8  A    between atoms: N_14  and  C_37
    9  A    between atoms: O_17  and  C_26
   10  A    between atoms: O_17  and  C_33
   11  A    between atoms: C_24  and  C_28
   12  A    between atoms: C_26  and  C_34
   13  A    between atoms: C_29  and  C_36
   14  A    between atoms: C_31  and  C_37
   15  A    between atoms: C_33  and  C_36
                            x       y       z     vdW  Elec       q    Type
                         _______ _______ _______ _____ _____    ______ ____

>  <TORSDO>
F 15

$$$$
=
 OpenBabel11052420033D

 37 39  0  0  1  0  0  0  0  0999 V2000
  189.1400  176.6010  144.3230 C   0  0  0  0  0  3  0  0  0  0  0  0
  193.3110  176.5410  142.9910 C   0  0  0  0  0  3  0  0  0  0  0  0
  188.9570  176.0830  143.1090 C   0  0  0  0  0  0  0  0  0  0  0  0
  191.9880  176.2130  143.3060 C   0  0  0  0  0  0  0  0  0  0  0  0
  191.5580  176.6810  144.4840 C   0  0  0  0  0  2  0  0  0  0  0  0
  191.2690  175.2890  142.4790 C   0  0  0  0  0  0  0  0  0  0  0  0
  193.3400  174.9070  141.2250 C   0  0  0  0  0  3  0  0  0  0  0  0
  190.3040  176.2540  145.1640 C   0  0  1  0  0  3  0  0  0  0  0  0
  192.0060  174.6060  141.4890 C   0  0  0  0  0  3  0  0  0  0  0  0
  189.9150  175.0900  142.5160 C   0  0  2  0  0  3  0  0  0  0  0  0
  193.9880  175.9100  141.9490 C   0  0  0  0  0  0  0  0  0  0  0  0
  195.3090  176.2780  141.6770 O   0  0  0  0  0  0  0  0  0  0  0  0
  195.9970  175.8600  140.5060 C   0  0  0  0  0  1  0  0  0  0  0  0
  190.0980  177.4820  147.5260 C   0  0  0  0  0  3  0  0  0  0  0  0
  190.1920  176.9290  146.4590 C   0  0  0  0  0  0  0  0  0  0  0  0
  187.7970  176.5000  142.3640 N   0  0  0  0  0  0  0  0  0  0  0  0
  188.8740  178.4430  141.6480 O   0  0  0  0  0  1  0  0  0  0  0  0
  187.9060  177.4980  141.3090 C   0  0  0  0  0  2  0  0  0  0  0  0
  186.4570  176.0960  142.7700 C   0  0  0  0  0  2  0  0  0  0  0  0
  185.5480  177.3100  142.8540 C   0  0  0  0  0  2  0  0  0  0  0  0
  184.2930  178.6080  144.5880 C   0  0  0  0  0  3  0  0  0  0  0  0
  185.2220  177.6100  144.2750 C   0  0  0  0  0  0  0  0  0  0  0  0
  185.8650  176.9090  145.3010 C   0  0  0  0  0  3  0  0  0  0  0  0
  186.1930  176.5180  147.6300 F   0  0  0  0  0  0  0  0  0  0  0  0
  184.6400  178.1930  146.9480 C   0  0  0  0  0  3  0  0  0  0  0  0
  185.5730  177.1990  146.6370 C   0  0  0  0  0  0  0  0  0  0  0  0
  184.0010  178.8990  145.9240 C   0  0  0  0  0  3  0  0  0  0  0  0
  189.3220  173.8840  141.8080 C   0  0  1  0  0  3  0  0  0  0  0  0
  188.4800  173.1530  142.6540 O   0  0  0  0  0  0  0  0  0  0  0  0
  188.8830  171.9020  142.5420 O   0  0  0  0  0  0  0  0  0  0  0  0
  189.6570  172.1410  144.7790 C   0  0  0  0  0  1  0  0  0  0  0  0
  190.0230  171.8210  143.3450 C   0  0  0  0  0  2  0  0  0  0  0  0
  188.5940  174.2640  140.5280 C   0  0  0  0  0  2  0  0  0  0  0  0
  189.3310  173.8450  139.4210 O   0  0  0  0  0  0  0  0  0  0  0  0
  188.7850  172.6070  139.0860 C   0  0  0  0  0  2  0  0  0  0  0  0
  191.1890  172.1630  138.7190 C   0  0  0  0  0  1  0  0  0  0  0  0
  189.8670  171.5490  139.1290 C   0  0  0  0  0  2  0  0  0  0  0  0
  1  8  1  0  0  0  0
  2  4  1  0  0  0  0
  3  1  2  0  0  0  0
  4  5  1  0  0  0  0
  5  8  1  0  0  0  0
  6 10  1  0  0  0  0
  6  4  2  0  0  0  0
  7  9  2  0  0  0  0
  7 11  1  0  0  0  0
  8 15  1  1  0  0  0
  9  6  1  0  0  0  0
 10 28  1  6  0  0  0
 10  3  1  0  0  0  0
 11  2  2  0  0  0  0
 12 11  1  0  0  0  0
 13 12  1  0  0  0  0
 15 14  3  0  0  0  0
 16 19  1  0  0  0  0
 16  3  1  0  0  0  0
 18 17  1  0  0  0  0
 18 16  1  0  0  0  0
 19 20  1  0  0  0  0
 20 22  1  0  0  0  0
 21 27  1  0  0  0  0
 22 21  2  0  0  0  0
 22 23  1  0  0  0  0
 23 26  2  0  0  0  0
 26 25  1  0  0  0  0
 26 24  1  0  0  0  0
 27 25  2  0  0  0  0
 28 33  1  6  0  0  0
 28 29  1  0  0  0  0
 30 29  1  0  0  0  0
 30 32  1  0  0  0  0
 32 31  1  0  0  0  0
 34 33  1  0  0  0  0
 35 37  1  0  0  0  0
 35 34  1  0  0  0  0
 36 37  1  0  0  0  0
M  END
>  <MODEL>
2

>  <REMARK>
 VINA RESULT:      -6.0      1.277      2.691
  Name = 
  15 active torsions:
  status: ('A' for Active; 'I' for Inactive)
    1  A    between atoms: O_1  and  O_5
    2  A    between atoms: O_1  and  C_36
    3  A    between atoms: O_3  and  C_32
    4  A    between atoms: O_5  and  C_23
    5  A    between atoms: C_6  and  C_31
    6  A    between atoms: C_10  and  N_14
    7  A    between atoms: N_14  and  C_27
    8  A    between atoms: N_14  and  C_37
    9  A    between atoms: O_17  and  C_26
   10  A    between atoms: O_17  and  C_33
   11  A    between atoms: C_24  and  C_28
   12  A    between atoms: C_26  and  C_34
   13  A    between atoms: C_29  and  C_36
   14  A    between atoms: C_31  and  C_37
   15  A    between atoms: C_33  and  C_36
                            x       y       z     vdW  Elec       q    Type
                         _______ _______ _______ _____ _____    ______ ____

>  <TORSDO>
F 15

$$$$
=
 OpenBabel11052420033D

 37 39  0  0  1  0  0  0  0  0999 V2000
  189.8990  175.2560  141.9210 C   0  0  0  0  0  3  0  0  0  0  0  0
  186.1240  177.0110  143.2800 C   0  0  0  0  0  3  0  0  0  0  0  0
  190.2800  175.6360  143.1400 C   0  0  0  0  0  0  0  0  0  0  0  0
  187.3080  176.2740  143.1640 C   0  0  0  0  0  0  0  0  0  0  0  0
  187.5240  175.7440  141.9540 C   0  0  0  0  0  2  0  0  0  0  0  0
  188.0850  175.9890  144.3350 C   0  0  0  0  0  0  0  0  0  0  0  0
  186.3000  176.9950  145.6800 C   0  0  0  0  0  3  0  0  0  0  0  0
  188.5520  174.7120  141.6470 C   0  0  1  0  0  3  0  0  0  0  0  0
  187.5080  176.3090  145.5820 C   0  0  0  0  0  3  0  0  0  0  0  0
  189.3710  175.5200  144.3290 C   0  0  2  0  0  3  0  0  0  0  0  0
  185.6220  177.3890  144.5240 C   0  0  0  0  0  0  0  0  0  0  0  0
  184.4360  178.1260  144.5810 O   0  0  0  0  0  0  0  0  0  0  0  0
  183.9950  178.7810  145.7630 C   0  0  0  0  0  1  0  0  0  0  0  0
  188.3810  174.0100  139.0770 C   0  0  0  0  0  3  0  0  0  0  0  0
  188.4570  174.3270  140.2380 C   0  0  0  0  0  0  0  0  0  0  0  0
  191.6100  176.1680  143.2960 N   0  0  0  0  0  0  0  0  0  0  0  0
  190.6410  178.2910  143.2080 O   0  0  0  0  0  1  0  0  0  0  0  0
  191.8270  177.6000  143.4540 C   0  0  0  0  0  2  0  0  0  0  0  0
  192.7840  175.3280  143.1000 C   0  0  0  0  0  2  0  0  0  0  0  0
  193.8340  176.0760  142.2960 C   0  0  0  0  0  2  0  0  0  0  0  0
  196.2810  176.5480  142.5280 C   0  0  0  0  0  3  0  0  0  0  0  0
  195.1980  175.6910  142.7520 C   0  0  0  0  0  0  0  0  0  0  0  0
  195.4020  174.4590  143.3820 C   0  0  0  0  0  3  0  0  0  0  0  0
  196.8800  172.8960  144.4090 F   0  0  0  0  0  0  0  0  0  0  0  0
  197.7650  174.9470  143.5770 C   0  0  0  0  0  3  0  0  0  0  0  0
  196.6840  174.0880  143.7970 C   0  0  0  0  0  0  0  0  0  0  0  0
  197.5640  176.1770  142.9420 C   0  0  0  0  0  3  0  0  0  0  0  0
  189.9710  174.9830  145.6170 C   0  0  1  0  0  3  0  0  0  0  0  0
  190.7320  173.8300  145.3880 O   0  0  0  0  0  0  0  0  0  0  0  0
  189.8580  172.9070  145.0360 O   0  0  0  0  0  0  0  0  0  0  0  0
  189.7640  171.6750  143.0030 C   0  0  0  0  0  1  0  0  0  0  0  0
  190.5780  172.0200  144.2320 C   0  0  0  0  0  2  0  0  0  0  0  0
  190.7940  176.0280  146.3540 C   0  0  0  0  0  2  0  0  0  0  0  0
  191.8830  175.4200  146.9780 O   0  0  0  0  0  0  0  0  0  0  0  0
  192.8000  176.4540  147.1640 C   0  0  0  0  0  2  0  0  0  0  0  0
  194.6850  177.4100  145.8820 C   0  0  0  0  0  1  0  0  0  0  0  0
  194.0820  176.1320  146.4260 C   0  0  0  0  0  2  0  0  0  0  0  0
  1  3  2  0  0  0  0
  2 11  1  0  0  0  0
  3 16  1  0  0  0  0
  3 10  1  0  0  0  0
  4  2  2  0  0  0  0
  4  6  1  0  0  0  0
  5  4  1  0  0  0  0
  6  9  2  0  0  0  0
  8 15  1  6  0  0  0
  8  1  1  0  0  0  0
  8  5  1  0  0  0  0
  9  7  1  0  0  0  0
 10  6  1  0  0  0  0
 10 28  1  1  0  0  0
 11 12  1  0  0  0  0
 11  7  2  0  0  0  0
 12 13  1  0  0  0  0
 14 15  3  0  0  0  0
 16 18  1  0  0  0  0
 17 18  1  0  0  0  0
 19 16  1  0  0  0  0
 20 22  1  0  0  0  0
 20 19  1  0  0  0  0
 21 22  2  0  0  0  0
 21 27  1  0  0  0  0
 22 23  1  0  0  0  0
 23 26  2  0  0  0  0
 25 26  1  0  0  0  0
 26 24  1  0  0  0  0
 27 25  2  0  0  0  0
 28 33  1  6  0  0  0
 29 28  1  0  0  0  0
 30 29  1  0  0  0  0
 31 32  1  0  0  0  0
 32 30  1  0  0  0  0
 33 34  1  0  0  0  0
 34 35  1  0  0  0  0
 36 37  1  0  0  0  0
 37 35  1  0  0  0  0
M  END
>  <MODEL>
3

>  <REMARK>
 VINA RESULT:      -6.0      3.207      7.734
  Name = 
  15 active torsions:
  status: ('A' for Active; 'I' for Inactive)
    1  A    between atoms: O_1  and  O_5
    2  A    between atoms: O_1  and  C_36
    3  A    between atoms: O_3  and  C_32
    4  A    between atoms: O_5  and  C_23
    5  A    between atoms: C_6  and  C_31
    6  A    between atoms: C_10  and  N_14
    7  A    between atoms: N_14  and  C_27
    8  A    between atoms: N_14  and  C_37
    9  A    between atoms: O_17  and  C_26
   10  A    between atoms: O_17  and  C_33
   11  A    between atoms: C_24  and  C_28
   12  A    between atoms: C_26  and  C_34
   13  A    between atoms: C_29  and  C_36
   14  A    between atoms: C_31  and  C_37
   15  A    between atoms: C_33  and  C_36
                            x       y       z     vdW  Elec       q    Type
                         _______ _______ _______ _____ _____    ______ ____

>  <TORSDO>
F 15

$$$$
=
 OpenBabel11052420033D

 37 39  0  0  1  0  0  0  0  0999 V2000
  191.4480  176.3800  144.2740 C   0  0  0  0  0  3  0  0  0  0  0  0
  194.5030  175.7210  141.2060 C   0  0  0  0  0  3  0  0  0  0  0  0
  190.6490  176.0310  143.2650 C   0  0  0  0  0  0  0  0  0  0  0  0
  193.4150  175.6010  142.0790 C   0  0  0  0  0  0  0  0  0  0  0  0
  193.6510  176.0130  143.3310 C   0  0  0  0  0  2  0  0  0  0  0  0
  192.2350  174.9100  141.6520 C   0  0  0  0  0  0  0  0  0  0  0  0
  193.4190  174.3000  139.5950 C   0  0  0  0  0  3  0  0  0  0  0  0
  192.7640  175.7460  144.4960 C   0  0  1  0  0  3  0  0  0  0  0  0
  192.3060  174.2140  140.4270 C   0  0  0  0  0  3  0  0  0  0  0  0
  191.0250  174.9510  142.2920 C   0  0  2  0  0  3  0  0  0  0  0  0
  194.5090  175.0910  139.9630 C   0  0  0  0  0  0  0  0  0  0  0  0
  195.6220  175.2460  139.1310 O   0  0  0  0  0  0  0  0  0  0  0  0
  196.7100  174.3320  139.1270 C   0  0  0  0  0  1  0  0  0  0  0  0
  193.8740  176.7420  146.7110 C   0  0  0  0  0  3  0  0  0  0  0  0
  193.3710  176.2930  145.7110 C   0  0  0  0  0  0  0  0  0  0  0  0
  189.3930  176.7220  143.1270 N   0  0  0  0  0  0  0  0  0  0  0  0
  188.0560  177.9850  141.6890 O   0  0  0  0  0  1  0  0  0  0  0  0
  189.2930  177.9390  142.3330 C   0  0  0  0  0  2  0  0  0  0  0  0
  188.2370  176.3500  143.9330 C   0  0  0  0  0  2  0  0  0  0  0  0
  188.1790  177.2020  145.1900 C   0  0  0  0  0  2  0  0  0  0  0  0
  185.9590  177.0300  146.3310 C   0  0  0  0  0  3  0  0  0  0  0  0
  186.7900  177.6860  145.4180 C   0  0  0  0  0  0  0  0  0  0  0  0
  186.3070  178.7840  144.6970 C   0  0  0  0  0  3  0  0  0  0  0  0
  184.5310  180.2960  144.2030 F   0  0  0  0  0  0  0  0  0  0  0  0
  184.1690  178.5780  145.8150 C   0  0  0  0  0  3  0  0  0  0  0  0
  184.9980  179.2310  144.8980 C   0  0  0  0  0  0  0  0  0  0  0  0
  184.6490  177.4760  146.5310 C   0  0  0  0  0  3  0  0  0  0  0  0
  189.9480  173.9500  141.9090 C   0  0  1  0  0  3  0  0  0  0  0  0
  189.3510  173.3800  143.0410 O   0  0  0  0  0  0  0  0  0  0  0  0
  190.2640  172.5700  143.5390 O   0  0  0  0  0  0  0  0  0  0  0  0
  189.7530  173.4800  145.6770 C   0  0  0  0  0  1  0  0  0  0  0  0
  189.7920  172.2380  144.8110 C   0  0  0  0  0  2  0  0  0  0  0  0
  188.8930  174.5530  140.9960 C   0  0  0  0  0  2  0  0  0  0  0  0
  189.0550  174.0670  139.6990 O   0  0  0  0  0  0  0  0  0  0  0  0
  188.5640  172.7630  139.7510 C   0  0  0  0  0  2  0  0  0  0  0  0
  190.3920  171.1080  139.5900 C   0  0  0  0  0  1  0  0  0  0  0  0
  189.3570  171.8860  138.8060 C   0  0  0  0  0  2  0  0  0  0  0  0
  1  8  1  0  0  0  0
  2  4  1  0  0  0  0
  3  1  2  0  0  0  0
  4  5  1  0  0  0  0
  5  8  1  0  0  0  0
  6  4  2  0  0  0  0
  6 10  1  0  0  0  0
  7 11  1  0  0  0  0
  7  9  2  0  0  0  0
  8 15  1  1  0  0  0
  9  6  1  0  0  0  0
 10 28  1  6  0  0  0
 10  3  1  0  0  0  0
 11  2  2  0  0  0  0
 12 11  1  0  0  0  0
 13 12  1  0  0  0  0
 15 14  3  0  0  0  0
 16  3  1  0  0  0  0
 16 19  1  0  0  0  0
 17 18  1  0  0  0  0
 18 16  1  0  0  0  0
 19 20  1  0  0  0  0
 20 22  1  0  0  0  0
 21 27  1  0  0  0  0
 22 21  2  0  0  0  0
 23 26  2  0  0  0  0
 23 22  1  0  0  0  0
 24 26  1  0  0  0  0
 25 27  2  0  0  0  0
 26 25  1  0  0  0  0
 28 33  1  1  0  0  0
 28 29  1  0  0  0  0
 29 30  1  0  0  0  0
 30 32  1  0  0  0  0
 32 31  1  0  0  0  0
 34 35  1  0  0  0  0
 34 33  1  0  0  0  0
 37 36  1  0  0  0  0
 37 35  1  0  0  0  0
M  END
>  <MODEL>
4

>  <REMARK>
 VINA RESULT:      -5.8      1.769      3.338
  Name = 
  15 active torsions:
  status: ('A' for Active; 'I' for Inactive)
    1  A    between atoms: O_1  and  O_5
    2  A    between atoms: O_1  and  C_36
    3  A    between atoms: O_3  and  C_32
    4  A    between atoms: O_5  and  C_23
    5  A    between atoms: C_6  and  C_31
    6  A    between atoms: C_10  and  N_14
    7  A    between atoms: N_14  and  C_27
    8  A    between atoms: N_14  and  C_37
    9  A    between atoms: O_17  and  C_26
   10  A    between atoms: O_17  and  C_33
   11  A    between atoms: C_24  and  C_28
   12  A    between atoms: C_26  and  C_34
   13  A    between atoms: C_29  and  C_36
   14  A    between atoms: C_31  and  C_37
   15  A    between atoms: C_33  and  C_36
                            x       y       z     vdW  Elec       q    Type
                         _______ _______ _______ _____ _____    ______ ____

>  <TORSDO>
F 15

$$$$
=
 OpenBabel11052420033D

 37 39  0  0  1  0  0  0  0  0999 V2000
  190.8200  176.6840  145.8270 C   0  0  0  0  0  3  0  0  0  0  0  0
  195.0770  176.1160  144.9680 C   0  0  0  0  0  3  0  0  0  0  0  0
  190.7150  176.2110  144.5850 C   0  0  0  0  0  0  0  0  0  0  0  0
  193.6950  175.9540  145.1240 C   0  0  0  0  0  0  0  0  0  0  0  0
  193.1950  176.4540  146.2600 C   0  0  0  0  0  2  0  0  0  0  0  0
  192.9670  175.1400  144.1950 C   0  0  0  0  0  0  0  0  0  0  0  0
  195.1050  174.5190  143.1680 C   0  0  0  0  0  3  0  0  0  0  0  0
  191.8280  176.1790  146.7820 C   0  0  1  0  0  3  0  0  0  0  0  0
  193.7220  174.3850  143.2730 C   0  0  0  0  0  3  0  0  0  0  0  0
  191.6040  175.1140  144.0740 C   0  0  2  0  0  3  0  0  0  0  0  0
  195.7850  175.4210  143.9900 C   0  0  0  0  0  0  0  0  0  0  0  0
  197.1640  175.6220  143.8780 O   0  0  0  0  0  0  0  0  0  0  0  0
  197.8080  175.8520  142.6320 C   0  0  0  0  0  1  0  0  0  0  0  0
  191.5070  177.3930  149.1380 C   0  0  0  0  0  3  0  0  0  0  0  0
  191.6530  176.8430  148.0750 C   0  0  0  0  0  0  0  0  0  0  0  0
  189.7090  176.7840  143.7280 N   0  0  0  0  0  0  0  0  0  0  0  0
  191.1550  178.5330  143.1810 O   0  0  0  0  0  1  0  0  0  0  0  0
  190.0570  177.7950  142.7390 C   0  0  0  0  0  2  0  0  0  0  0  0
  188.2920  176.5250  143.9540 C   0  0  0  0  0  2  0  0  0  0  0  0
  187.4900  177.8000  143.7560 C   0  0  0  0  0  2  0  0  0  0  0  0
  185.3840  178.7820  144.6860 C   0  0  0  0  0  3  0  0  0  0  0  0
  186.5030  177.9610  144.8590 C   0  0  0  0  0  0  0  0  0  0  0  0
  186.7100  177.3100  146.0800 C   0  0  0  0  0  3  0  0  0  0  0  0
  185.9920  176.8400  148.3040 F   0  0  0  0  0  0  0  0  0  0  0  0
  184.6720  178.2900  146.9480 C   0  0  0  0  0  3  0  0  0  0  0  0
  185.7930  177.4720  147.1230 C   0  0  0  0  0  0  0  0  0  0  0  0
  184.4690  178.9460  145.7300 C   0  0  0  0  0  3  0  0  0  0  0  0
  190.9510  174.0040  143.2680 C   0  0  1  0  0  3  0  0  0  0  0  0
  189.9700  173.3370  144.0130 O   0  0  0  0  0  0  0  0  0  0  0  0
  190.6260  172.4210  144.6990 O   0  0  0  0  0  0  0  0  0  0  0  0
  192.4380  170.9510  144.2360 C   0  0  0  0  0  1  0  0  0  0  0  0
  191.1420  171.5520  143.7350 C   0  0  0  0  0  2  0  0  0  0  0  0
  190.3740  174.5050  141.9530 C   0  0  0  0  0  2  0  0  0  0  0  0
  189.1710  173.8520  141.6840 O   0  0  0  0  0  0  0  0  0  0  0  0
  188.6510  174.5220  140.5780 C   0  0  0  0  0  2  0  0  0  0  0  0
  189.4970  173.7220  138.3970 C   0  0  0  0  0  1  0  0  0  0  0  0
  188.4260  173.5370  139.4510 C   0  0  0  0  0  2  0  0  0  0  0  0
  1  8  1  0  0  0  0
  2  4  1  0  0  0  0
  3  1  2  0  0  0  0
  4  5  1  0  0  0  0
  5  8  1  0  0  0  0
  6  4  2  0  0  0  0
  7  9  2  0  0  0  0
  7 11  1  0  0  0  0
  8 15  1  1  0  0  0
  9  6  1  0  0  0  0
 10 28  1  6  0  0  0
 10  6  1  0  0  0  0
 10  3  1  0  0  0  0
 11  2  2  0  0  0  0
 12 11  1  0  0  0  0
 13 12  1  0  0  0  0
 15 14  3  0  0  0  0
 16 19  1  0  0  0  0
 16  3  1  0  0  0  0
 18 17  1  0  0  0  0
 18 16  1  0  0  0  0
 20 19  1  0  0  0  0
 20 22  1  0  0  0  0
 21 22  2  0  0  0  0
 21 27  1  0  0  0  0
 22 23  1  0  0  0  0
 23 26  2  0  0  0  0
 25 26  1  0  0  0  0
 26 24  1  0  0  0  0
 27 25  2  0  0  0  0
 28 33  1  6  0  0  0
 28 29  1  0  0  0  0
 29 30  1  0  0  0  0
 32 31  1  0  0  0  0
 32 30  1  0  0  0  0
 34 33  1  0  0  0  0
 35 34  1  0  0  0  0
 36 37  1  0  0  0  0
 37 35  1  0  0  0  0
M  END
>  <MODEL>
5

>  <REMARK>
 VINA RESULT:      -5.7      1.982      3.518
  Name = 
  15 active torsions:
  status: ('A' for Active; 'I' for Inactive)
    1  A    between atoms: O_1  and  O_5
    2  A    between atoms: O_1  and  C_36
    3  A    between atoms: O_3  and  C_32
    4  A    between atoms: O_5  and  C_23
    5  A    between atoms: C_6  and  C_31
    6  A    between atoms: C_10  and  N_14
    7  A    between atoms: N_14  and  C_27
    8  A    between atoms: N_14  and  C_37
    9  A    between atoms: O_17  and  C_26
   10  A    between atoms: O_17  and  C_33
   11  A    between atoms: C_24  and  C_28
   12  A    between atoms: C_26  and  C_34
   13  A    between atoms: C_29  and  C_36
   14  A    between atoms: C_31  and  C_37
   15  A    between atoms: C_33  and  C_36
                            x       y       z     vdW  Elec       q    Type
                         _______ _______ _______ _____ _____    ______ ____

>  <TORSDO>
F 15

$$$$
=
 OpenBabel11052420033D

 37 39  0  0  1  0  0  0  0  0999 V2000
  191.7730  176.7510  144.4560 C   0  0  0  0  0  3  0  0  0  0  0  0
  194.2310  175.2360  141.1640 C   0  0  0  0  0  3  0  0  0  0  0  0
  190.7960  176.3920  143.6230 C   0  0  0  0  0  0  0  0  0  0  0  0
  193.2780  175.3990  142.1760 C   0  0  0  0  0  0  0  0  0  0  0  0
  193.7470  175.9360  143.3090 C   0  0  0  0  0  2  0  0  0  0  0  0
  191.9680  174.8400  142.0140 C   0  0  0  0  0  0  0  0  0  0  0  0
  192.7470  173.7890  139.9410 C   0  0  0  0  0  3  0  0  0  0  0  0
  193.0140  175.9630  144.6050 C   0  0  1  0  0  3  0  0  0  0  0  0
  191.7670  173.9830  140.9110 C   0  0  0  0  0  3  0  0  0  0  0  0
  190.8810  175.1470  142.7880 C   0  0  2  0  0  3  0  0  0  0  0  0
  193.9730  174.4520  140.0420 C   0  0  0  0  0  0  0  0  0  0  0  0
  194.9610  174.3250  139.0610 O   0  0  0  0  0  0  0  0  0  0  0  0
  194.8850  174.9860  137.8050 C   0  0  0  0  0  1  0  0  0  0  0  0
  194.5580  177.0730  146.4790 C   0  0  0  0  0  3  0  0  0  0  0  0
  193.8600  176.5720  145.6340 C   0  0  0  0  0  0  0  0  0  0  0  0
  189.6330  177.2380  143.5420 N   0  0  0  0  0  0  0  0  0  0  0  0
  188.1740  177.3350  141.7220 O   0  0  0  0  0  1  0  0  0  0  0  0
  189.2960  177.9270  142.3030 C   0  0  0  0  0  2  0  0  0  0  0  0
  188.8770  177.5940  144.7360 C   0  0  0  0  0  2  0  0  0  0  0  0
  187.7450  176.6050  144.9520 C   0  0  0  0  0  2  0  0  0  0  0  0
  185.6290  176.8200  146.2710 C   0  0  0  0  0  3  0  0  0  0  0  0
  186.4890  177.3280  145.2910 C   0  0  0  0  0  0  0  0  0  0  0  0
  186.1560  178.5040  144.6110 C   0  0  0  0  0  3  0  0  0  0  0  0
  184.6490  180.3180  144.2600 F   0  0  0  0  0  0  0  0  0  0  0  0
  184.1120  178.6720  145.8990 C   0  0  0  0  0  3  0  0  0  0  0  0
  184.9690  179.1780  144.9170 C   0  0  0  0  0  0  0  0  0  0  0  0
  184.4420  177.4930  146.5750 C   0  0  0  0  0  3  0  0  0  0  0  0
  189.6400  174.2760  142.7040 C   0  0  1  0  0  3  0  0  0  0  0  0
  189.1310  174.2290  141.4000 O   0  0  0  0  0  0  0  0  0  0  0  0
  188.6280  173.0160  141.2730 O   0  0  0  0  0  0  0  0  0  0  0  0
  188.5370  174.1810  139.2000 C   0  0  0  0  0  1  0  0  0  0  0  0
  188.4700  172.8380  139.8960 C   0  0  0  0  0  2  0  0  0  0  0  0
  189.8820  172.8710  143.2340 C   0  0  0  0  0  2  0  0  0  0  0  0
  190.6430  172.9280  144.4010 O   0  0  0  0  0  0  0  0  0  0  0  0
  191.5770  171.9030  144.2590 C   0  0  0  0  0  2  0  0  0  0  0  0
  193.9360  172.1240  143.5520 C   0  0  0  0  0  1  0  0  0  0  0  0
  192.9460  172.4080  144.6620 C   0  0  0  0  0  2  0  0  0  0  0  0
  1  8  1  0  0  0  0
  2  4  1  0  0  0  0
  3  1  2  0  0  0  0
  4  5  1  0  0  0  0
  5  8  1  0  0  0  0
  6  4  2  0  0  0  0
  6 10  1  0  0  0  0
  7 11  1  0  0  0  0
  7  9  2  0  0  0  0
  8 15  1  1  0  0  0
  9  6  1  0  0  0  0
 10 28  1  6  0  0  0
 10  3  1  0  0  0  0
 11  2  2  0  0  0  0
 12 11  1  0  0  0  0
 13 12  1  0  0  0  0
 15 14  3  0  0  0  0
 16  3  1  0  0  0  0
 16 19  1  0  0  0  0
 17 18  1  0  0  0  0
 18 16  1  0  0  0  0
 19 20  1  0  0  0  0
 20 22  1  0  0  0  0
 21 27  1  0  0  0  0
 22 21  2  0  0  0  0
 23 26  2  0  0  0  0
 23 22  1  0  0  0  0
 24 26  1  0  0  0  0
 25 27  2  0  0  0  0
 26 25  1  0  0  0  0
 28 33  1  6  0  0  0
 29 28  1  0  0  0  0
 30 29  1  0  0  0  0
 31 32  1  0  0  0  0
 32 30  1  0  0  0  0
 33 34  1  0  0  0  0
 35 34  1  0  0  0  0
 35 37  1  0  0  0  0
 36 37  1  0  0  0  0
M  END
>  <MODEL>
6

>  <REMARK>
 VINA RESULT:      -5.7      1.824      2.481
  Name = 
  15 active torsions:
  status: ('A' for Active; 'I' for Inactive)
    1  A    between atoms: O_1  and  O_5
    2  A    between atoms: O_1  and  C_36
    3  A    between atoms: O_3  and  C_32
    4  A    between atoms: O_5  and  C_23
    5  A    between atoms: C_6  and  C_31
    6  A    between atoms: C_10  and  N_14
    7  A    between atoms: N_14  and  C_27
    8  A    between atoms: N_14  and  C_37
    9  A    between atoms: O_17  and  C_26
   10  A    between atoms: O_17  and  C_33
   11  A    between atoms: C_24  and  C_28
   12  A    between atoms: C_26  and  C_34
   13  A    between atoms: C_29  and  C_36
   14  A    between atoms: C_31  and  C_37
   15  A    between atoms: C_33  and  C_36
                            x       y       z     vdW  Elec       q    Type
                         _______ _______ _______ _____ _____    ______ ____

>  <TORSDO>
F 15

$$$$
=
 OpenBabel11052420033D

 37 39  0  0  1  0  0  0  0  0999 V2000
  188.2330  176.4510  143.2810 C   0  0  0  0  0  3  0  0  0  0  0  0
  189.1060  173.0720  140.6350 C   0  0  0  0  0  3  0  0  0  0  0  0
  189.2590  175.9290  143.9520 C   0  0  0  0  0  0  0  0  0  0  0  0
  189.1850  174.2110  141.4450 C   0  0  0  0  0  0  0  0  0  0  0  0
  188.1930  175.0930  141.2720 C   0  0  0  0  0  2  0  0  0  0  0  0
  190.3590  174.4410  142.2340 C   0  0  0  0  0  0  0  0  0  0  0  0
  191.3840  172.4950  141.1530 C   0  0  0  0  0  3  0  0  0  0  0  0
  188.1890  176.4840  141.8040 C   0  0  1  0  0  3  0  0  0  0  0  0
  191.4630  173.5930  142.0050 C   0  0  0  0  0  3  0  0  0  0  0  0
  190.4560  175.3520  143.2510 C   0  0  2  0  0  3  0  0  0  0  0  0
  190.1870  172.2040  140.4950 C   0  0  0  0  0  0  0  0  0  0  0  0
  190.0520  171.0800  139.6740 O   0  0  0  0  0  0  0  0  0  0  0  0
  189.7480  171.1740  138.2890 C   0  0  0  0  0  1  0  0  0  0  0  0
  185.9720  177.7380  141.0040 C   0  0  0  0  0  3  0  0  0  0  0  0
  186.9740  177.1740  141.3660 C   0  0  0  0  0  0  0  0  0  0  0  0
  189.1970  175.9320  145.3910 N   0  0  0  0  0  0  0  0  0  0  0  0
  190.0810  174.9090  147.2940 O   0  0  0  0  0  1  0  0  0  0  0  0
  189.3180  174.6930  146.1460 C   0  0  0  0  0  2  0  0  0  0  0  0
  188.8110  177.1310  146.1250 C   0  0  0  0  0  2  0  0  0  0  0  0
  187.5150  176.8880  146.8780 C   0  0  0  0  0  2  0  0  0  0  0  0
  185.1080  177.5650  146.7640 C   0  0  0  0  0  3  0  0  0  0  0  0
  186.4090  177.6740  146.2640 C   0  0  0  0  0  0  0  0  0  0  0  0
  186.6690  178.5040  145.1680 C   0  0  0  0  0  3  0  0  0  0  0  0
  185.8830  180.0370  143.5210 F   0  0  0  0  0  0  0  0  0  0  0  0
  184.3310  179.1260  145.0830 C   0  0  0  0  0  3  0  0  0  0  0  0
  185.6310  179.2320  144.5800 C   0  0  0  0  0  0  0  0  0  0  0  0
  184.0690  178.2910  146.1750 C   0  0  0  0  0  3  0  0  0  0  0  0
  191.8260  175.7030  143.8050 C   0  0  1  0  0  3  0  0  0  0  0  0
  192.5010  174.5660  144.2670 O   0  0  0  0  0  0  0  0  0  0  0  0
  192.7250  174.7970  145.5460 O   0  0  0  0  0  0  0  0  0  0  0  0
  194.8980  175.5620  146.1370 C   0  0  0  0  0  1  0  0  0  0  0  0
  194.0380  174.3730  145.7620 C   0  0  0  0  0  2  0  0  0  0  0  0
  192.6810  176.4600  142.8010 C   0  0  0  0  0  2  0  0  0  0  0  0
  193.9590  175.9050  142.7530 O   0  0  0  0  0  0  0  0  0  0  0  0
  194.3420  176.0260  141.4180 C   0  0  0  0  0  2  0  0  0  0  0  0
  195.2150  173.7860  141.9910 C   0  0  0  0  0  1  0  0  0  0  0  0
  195.4040  174.9950  141.1010 C   0  0  0  0  0  2  0  0  0  0  0  0
  1  3  2  0  0  0  0
  2  4  1  0  0  0  0
  3 16  1  0  0  0  0
  4  6  2  0  0  0  0
  5  4  1  0  0  0  0
  5  8  1  0  0  0  0
  6 10  1  0  0  0  0
  7  9  2  0  0  0  0
  8 15  1  1  0  0  0
  8  1  1  0  0  0  0
  9  6  1  0  0  0  0
 10 28  1  1  0  0  0
 10  3  1  0  0  0  0
 11  2  2  0  0  0  0
 11  7  1  0  0  0  0
 12 11  1  0  0  0  0
 13 12  1  0  0  0  0
 14 15  3  0  0  0  0
 16 19  1  0  0  0  0
 16 18  1  0  0  0  0
 18 17  1  0  0  0  0
 19 20  1  0  0  0  0
 22 21  1  0  0  0  0
 22 20  1  0  0  0  0
 23 22  2  0  0  0  0
 24 26  1  0  0  0  0
 25 27  1  0  0  0  0
 26 25  2  0  0  0  0
 26 23  1  0  0  0  0
 27 21  2  0  0  0  0
 28 33  1  6  0  0  0
 28 29  1  0  0  0  0
 29 30  1  0  0  0  0
 30 32  1  0  0  0  0
 32 31  1  0  0  0  0
 34 33  1  0  0  0  0
 35 34  1  0  0  0  0
 37 35  1  0  0  0  0
 37 36  1  0  0  0  0
M  END
>  <MODEL>
7

>  <REMARK>
 VINA RESULT:      -5.6      2.332      5.101
  Name = 
  15 active torsions:
  status: ('A' for Active; 'I' for Inactive)
    1  A    between atoms: O_1  and  O_5
    2  A    between atoms: O_1  and  C_36
    3  A    between atoms: O_3  and  C_32
    4  A    between atoms: O_5  and  C_23
    5  A    between atoms: C_6  and  C_31
    6  A    between atoms: C_10  and  N_14
    7  A    between atoms: N_14  and  C_27
    8  A    between atoms: N_14  and  C_37
    9  A    between atoms: O_17  and  C_26
   10  A    between atoms: O_17  and  C_33
   11  A    between atoms: C_24  and  C_28
   12  A    between atoms: C_26  and  C_34
   13  A    between atoms: C_29  and  C_36
   14  A    between atoms: C_31  and  C_37
   15  A    between atoms: C_33  and  C_36
                            x       y       z     vdW  Elec       q    Type
                         _______ _______ _______ _____ _____    ______ ____

>  <TORSDO>
F 15

$$$$
=
 OpenBabel11052420033D

 37 39  0  0  1  0  0  0  0  0999 V2000
  190.7430  175.2270  146.0550 C   0  0  0  0  0  3  0  0  0  0  0  0
  186.7080  176.8910  146.4090 C   0  0  0  0  0  3  0  0  0  0  0  0
  190.2430  174.7930  144.8980 C   0  0  0  0  0  0  0  0  0  0  0  0
  187.9850  176.5220  145.9700 C   0  0  0  0  0  0  0  0  0  0  0  0
  188.9480  176.6240  146.8940 C   0  0  0  0  0  2  0  0  0  0  0  0
  188.2070  176.2500  144.5800 C   0  0  0  0  0  0  0  0  0  0  0  0
  185.9070  176.9760  144.1410 C   0  0  0  0  0  3  0  0  0  0  0  0
  190.4080  176.5530  146.6130 C   0  0  1  0  0  3  0  0  0  0  0  0
  187.1560  176.5570  143.6900 C   0  0  0  0  0  3  0  0  0  0  0  0
  189.3160  175.6330  144.0680 C   0  0  2  0  0  3  0  0  0  0  0  0
  185.6640  177.1030  145.5110 C   0  0  0  0  0  0  0  0  0  0  0  0
  184.4080  177.4690  146.0040 O   0  0  0  0  0  0  0  0  0  0  0  0
  184.1980  178.6490  146.7690 C   0  0  0  0  0  1  0  0  0  0  0  0
  191.7770  176.9390  148.8730 C   0  0  0  0  0  3  0  0  0  0  0  0
  191.1580  176.7670  147.8520 C   0  0  0  0  0  0  0  0  0  0  0  0
  190.6210  173.4770  144.4510 N   0  0  0  0  0  0  0  0  0  0  0  0
  189.3000  171.7990  143.5060 O   0  0  0  0  0  1  0  0  0  0  0  0
  189.7670  172.3260  144.7110 C   0  0  0  0  0  2  0  0  0  0  0  0
  191.9490  173.2180  143.9090 C   0  0  0  0  0  2  0  0  0  0  0  0
  192.6520  172.1530  144.7320 C   0  0  0  0  0  2  0  0  0  0  0  0
  194.2030  174.0110  145.3680 C   0  0  0  0  0  3  0  0  0  0  0  0
  193.9860  172.6430  145.1730 C   0  0  0  0  0  0  0  0  0  0  0  0
  195.0330  171.7350  145.3680 C   0  0  0  0  0  3  0  0  0  0  0  0
  197.3040  171.3150  145.9590 F   0  0  0  0  0  0  0  0  0  0  0  0
  196.5070  173.5610  145.9670 C   0  0  0  0  0  3  0  0  0  0  0  0
  196.2920  172.1940  145.7670 C   0  0  0  0  0  0  0  0  0  0  0  0
  195.4620  174.4700  145.7660 C   0  0  0  0  0  3  0  0  0  0  0  0
  189.5620  175.6720  142.5690 C   0  0  1  0  0  3  0  0  0  0  0  0
  190.9290  175.7360  142.2740 O   0  0  0  0  0  0  0  0  0  0  0  0
  191.3320  176.8900  142.7680 O   0  0  0  0  0  0  0  0  0  0  0  0
  193.1550  177.1610  144.2730 C   0  0  0  0  0  1  0  0  0  0  0  0
  192.7200  176.7680  142.8770 C   0  0  0  0  0  2  0  0  0  0  0  0
  188.9140  174.5020  141.8460 C   0  0  0  0  0  2  0  0  0  0  0  0
  189.8460  173.8850  141.0120 O   0  0  0  0  0  0  0  0  0  0  0  0
  189.0770  173.2400  140.0450 C   0  0  0  0  0  2  0  0  0  0  0  0
  188.1960  174.1310  137.9140 C   0  0  0  0  0  1  0  0  0  0  0  0
  189.4520  173.7570  138.6720 C   0  0  0  0  0  2  0  0  0  0  0  0
  1  8  1  0  0  0  0
  3  1  2  0  0  0  0
  4  2  1  0  0  0  0
  4  5  1  0  0  0  0
  6  4  2  0  0  0  0
  7 11  1  0  0  0  0
  8  5  1  0  0  0  0
  8 15  1  1  0  0  0
  9  7  2  0  0  0  0
  9  6  1  0  0  0  0
 10 28  1  6  0  0  0
 10  6  1  0  0  0  0
 10  3  1  0  0  0  0
 11 12  1  0  0  0  0
 11  2  2  0  0  0  0
 12 13  1  0  0  0  0
 15 14  3  0  0  0  0
 16 18  1  0  0  0  0
 16  3  1  0  0  0  0
 17 18  1  0  0  0  0
 19 16  1  0  0  0  0
 19 20  1  0  0  0  0
 20 22  1  0  0  0  0
 21 27  1  0  0  0  0
 22 21  2  0  0  0  0
 22 23  1  0  0  0  0
 23 26  2  0  0  0  0
 26 24  1  0  0  0  0
 26 25  1  0  0  0  0
 27 25  2  0  0  0  0
 28 33  1  6  0  0  0
 29 28  1  0  0  0  0
 29 30  1  0  0  0  0
 30 32  1  0  0  0  0
 32 31  1  0  0  0  0
 34 33  1  0  0  0  0
 35 34  1  0  0  0  0
 36 37  1  0  0  0  0
 37 35  1  0  0  0  0
M  END
>  <MODEL>
8

>  <REMARK>
 VINA RESULT:      -5.6      3.339      7.446
  Name = 
  15 active torsions:
  status: ('A' for Active; 'I' for Inactive)
    1  A    between atoms: O_1  and  O_5
    2  A    between atoms: O_1  and  C_36
    3  A    between atoms: O_3  and  C_32
    4  A    between atoms: O_5  and  C_23
    5  A    between atoms: C_6  and  C_31
    6  A    between atoms: C_10  and  N_14
    7  A    between atoms: N_14  and  C_27
    8  A    between atoms: N_14  and  C_37
    9  A    between atoms: O_17  and  C_26
   10  A    between atoms: O_17  and  C_33
   11  A    between atoms: C_24  and  C_28
   12  A    between atoms: C_26  and  C_34
   13  A    between atoms: C_29  and  C_36
   14  A    between atoms: C_31  and  C_37
   15  A    between atoms: C_33  and  C_36
                            x       y       z     vdW  Elec       q    Type
                         _______ _______ _______ _____ _____    ______ ____

>  <TORSDO>
F 15

$$$$
=
 OpenBabel11052420033D

 37 39  0  0  1  0  0  0  0  0999 V2000
  194.0370  175.4330  142.0950 C   0  0  0  0  0  3  0  0  0  0  0  0
  190.3620  173.5990  140.5740 C   0  0  0  0  0  3  0  0  0  0  0  0
  193.3300  175.4300  143.2250 C   0  0  0  0  0  0  0  0  0  0  0  0
  191.5040  173.9270  141.3150 C   0  0  0  0  0  0  0  0  0  0  0  0
  192.5870  174.2130  140.5820 C   0  0  0  0  0  2  0  0  0  0  0  0
  191.4960  173.7640  142.7390 C   0  0  0  0  0  0  0  0  0  0  0  0
  189.2850  172.7260  142.5410 C   0  0  0  0  0  3  0  0  0  0  0  0
  193.9710  174.3270  141.1180 C   0  0  1  0  0  3  0  0  0  0  0  0
  190.3900  173.0940  143.3040 C   0  0  0  0  0  3  0  0  0  0  0  0
  192.4290  174.2870  143.5950 C   0  0  2  0  0  3  0  0  0  0  0  0
  189.2480  173.0160  141.1750 C   0  0  0  0  0  0  0  0  0  0  0  0
  188.1350  172.7110  140.3870 O   0  0  0  0  0  0  0  0  0  0  0  0
  188.1880  172.6670  138.9680 C   0  0  0  0  0  1  0  0  0  0  0  0
  195.6720  174.8050  139.1160 C   0  0  0  0  0  3  0  0  0  0  0  0
  194.9030  174.5880  140.0190 C   0  0  0  0  0  0  0  0  0  0  0  0
  193.4540  176.5660  144.1020 N   0  0  0  0  0  0  0  0  0  0  0  0
  194.4040  177.0550  146.1780 O   0  0  0  0  0  1  0  0  0  0  0  0
  194.6880  176.8130  144.8330 C   0  0  0  0  0  2  0  0  0  0  0  0
  192.2960  177.3830  144.4430 C   0  0  0  0  0  2  0  0  0  0  0  0
  191.4670  177.6590  143.2000 C   0  0  0  0  0  2  0  0  0  0  0  0
  189.2980  176.6920  142.4100 C   0  0  0  0  0  3  0  0  0  0  0  0
  190.0470  177.2790  143.4350 C   0  0  0  0  0  0  0  0  0  0  0  0
  189.4540  177.5330  144.6770 C   0  0  0  0  0  3  0  0  0  0  0  0
  187.5430  177.4340  146.0980 F   0  0  0  0  0  0  0  0  0  0  0  0
  187.3690  176.6000  143.8720 C   0  0  0  0  0  3  0  0  0  0  0  0
  188.1160  177.1910  144.8960 C   0  0  0  0  0  0  0  0  0  0  0  0
  187.9600  176.3520  142.6290 C   0  0  0  0  0  3  0  0  0  0  0  0
  192.4740  173.7990  145.0320 C   0  0  1  0  0  3  0  0  0  0  0  0
  193.7880  173.7340  145.5120 O   0  0  0  0  0  0  0  0  0  0  0  0
  194.0060  172.4530  145.7400 O   0  0  0  0  0  0  0  0  0  0  0  0
  196.2680  173.1910  145.7360 C   0  0  0  0  0  1  0  0  0  0  0  0
  195.2630  172.2000  145.1860 C   0  0  0  0  0  2  0  0  0  0  0  0
  191.6090  174.6400  145.9580 C   0  0  0  0  0  2  0  0  0  0  0  0
  192.3050  174.9190  147.1340 O   0  0  0  0  0  0  0  0  0  0  0  0
  191.3230  175.3460  148.0270 C   0  0  0  0  0  2  0  0  0  0  0  0
  191.5620  177.5450  149.1300 C   0  0  0  0  0  1  0  0  0  0  0  0
  191.1110  176.8360  147.8700 C   0  0  0  0  0  2  0  0  0  0  0  0
  1  3  2  0  0  0  0
  2 11  2  0  0  0  0
  2  4  1  0  0  0  0
  3 10  1  0  0  0  0
  3 16  1  0  0  0  0
  4  6  2  0  0  0  0
  5  8  1  0  0  0  0
  5  4  1  0  0  0  0
  6  9  1  0  0  0  0
  6 10  1  0  0  0  0
  7  9  2  0  0  0  0
  8 15  1  6  0  0  0
  8  1  1  0  0  0  0
 10 28  1  1  0  0  0
 11  7  1  0  0  0  0
 12 11  1  0  0  0  0
 13 12  1  0  0  0  0
 14 15  3  0  0  0  0
 16 19  1  0  0  0  0
 16 18  1  0  0  0  0
 18 17  1  0  0  0  0
 20 22  1  0  0  0  0
 20 19  1  0  0  0  0
 21 27  2  0  0  0  0
 21 22  1  0  0  0  0
 22 23  2  0  0  0  0
 23 26  1  0  0  0  0
 25 26  2  0  0  0  0
 26 24  1  0  0  0  0
 27 25  1  0  0  0  0
 28 29  1  0  0  0  0
 28 33  1  1  0  0  0
 29 30  1  0  0  0  0
 32 31  1  0  0  0  0
 32 30  1  0  0  0  0
 33 34  1  0  0  0  0
 34 35  1  0  0  0  0
 37 35  1  0  0  0  0
 37 36  1  0  0  0  0
M  END
>  <MODEL>
9

>  <REMARK>
 VINA RESULT:      -5.5      2.626      6.231
  Name = 
  15 active torsions:
  status: ('A' for Active; 'I' for Inactive)
    1  A    between atoms: O_1  and  O_5
    2  A    between atoms: O_1  and  C_36
    3  A    between atoms: O_3  and  C_32
    4  A    between atoms: O_5  and  C_23
    5  A    between atoms: C_6  and  C_31
    6  A    between atoms: C_10  and  N_14
    7  A    between atoms: N_14  and  C_27
    8  A    between atoms: N_14  and  C_37
    9  A    between atoms: O_17  and  C_26
   10  A    between atoms: O_17  and  C_33
   11  A    between atoms: C_24  and  C_28
   12  A    between atoms: C_26  and  C_34
   13  A    between atoms: C_29  and  C_36
   14  A    between atoms: C_31  and  C_37
   15  A    between atoms: C_33  and  C_36
                            x       y       z     vdW  Elec       q    Type
                         _______ _______ _______ _____ _____    ______ ____

>  <TORSDO>
F 15

$$$$
