=
 OpenBabel11052417363D

 25 26  0  0  1  0  0  0  0  0999 V2000
  189.8390  176.4830  144.9060 C   0  0  2  0  0  3  0  0  0  0  0  0
  188.7730  177.4800  145.3890 C   0  0  1  0  0  3  0  0  0  0  0  0
  188.5690  174.6860  147.6350 O   0  0  0  0  0  0  0  0  0  0  0  0
  188.8110  175.5470  146.7490 C   0  0  0  0  0  0  0  0  0  0  0  0
  186.7300  176.9200  146.9020 C   0  0  0  0  0  0  0  0  0  0  0  0
  186.2530  176.5140  147.9500 O   0  0  0  0  0  0  0  0  0  0  0  0
  187.7160  177.6000  144.2960 C   0  0  0  0  0  2  0  0  0  0  0  0
  189.7160  175.3370  145.7340 O   0  0  0  0  0  0  0  0  0  0  0  0
  185.7930  177.4200  145.8380 C   0  0  0  0  0  2  0  0  0  0  0  0
  186.4970  178.3210  144.8320 C   0  0  2  0  0  3  0  0  0  0  0  0
  188.2350  176.9120  146.7270 C   0  0  2  0  0  3  0  0  0  0  0  0
  191.2480  177.0870  144.9780 C   0  0  1  0  0  3  0  0  0  0  0  0
  192.3340  176.0530  145.3060 C   0  0  1  0  0  3  0  0  0  0  0  0
  193.3600  176.0770  144.3560 O   0  0  0  0  0  1  0  0  0  0  0  0
  194.2010  176.9370  146.5910 N   0  0  0  0  0  1  0  0  0  0  0  0
  192.9010  176.3000  146.6950 C   0  0  0  0  0  2  0  0  0  0  0  0
  190.9830  177.6250  142.6900 O   0  0  0  0  0  0  0  0  0  0  0  0
  191.5620  177.8680  143.7360 C   0  0  0  0  0  3  0  0  0  0  0  0
  185.5610  178.6480  143.6830 C   0  0  0  0  0  2  0  0  0  0  0  0
  186.3510  178.8770  142.4060 C   0  0  0  0  0  2  0  0  0  0  0  0
  185.7810  178.0560  141.3020 C   0  0  0  0  0  0  0  0  0  0  0  0
  184.5360  178.0530  141.1130 O   0  0  0  0  0  0  0  0  0  0  0  0
  186.6620  177.2780  140.4220 C   0  0  0  0  0  0  0  0  0  0  0  0
  186.5310  177.3490  139.1710 O   0  0  0  0  0  0  0  0  0  0  0  0
  187.6450  176.4580  140.9620 O   0  0  0  0  0  1  0  0  0  0  0  0
  1 12  1  1  0  0  0
  1  2  1  0  0  0  0
  1  8  1  0  0  0  0
  2  7  1  6  0  0  0
  2 11  1  0  0  0  0
  4  3  2  0  0  0  0
  5  6  2  0  0  0  0
  7 10  1  0  0  0  0
  8  4  1  0  0  0  0
  9  5  1  0  0  0  0
 10 19  1  6  0  0  0
 10  9  1  0  0  0  0
 11  4  1  6  0  0  0
 11  5  1  0  0  0  0
 12 18  1  6  0  0  0
 12 13  1  0  0  0  0
 13 14  1  6  0  0  0
 13 16  1  0  0  0  0
 15 16  1  0  0  0  0
 17 18  2  0  0  0  0
 20 19  1  0  0  0  0
 21 20  1  0  0  0  0
 22 21  2  0  0  0  0
 23 25  1  0  0  0  0
 23 21  1  0  0  0  0
 24 23  2  0  0  0  0
M  END
>  <MODEL>
1

>  <REMARK>
 VINA RESULT:      -6.5      0.000      0.000
  Name = 
  8 active torsions:
  status: ('A' for Active; 'I' for Inactive)
    1  A    between atoms: C_1  and  C_5
    2  A    between atoms: C_2  and  C_21
    3  A    between atoms: C_5  and  C_10
    4  A    between atoms: C_5  and  C_22
    5  A    between atoms: C_6  and  C_15
    6  A    between atoms: C_6  and  C_23
    7  A    between atoms: C_10  and  C_11
    8  A    between atoms: C_15  and  C_21
                            x       y       z     vdW  Elec       q    Type
                         _______ _______ _______ _____ _____    ______ ____

>  <TORSDO>
F 8

$$$$
=
 OpenBabel11052417363D

 25 26  0  0  1  0  0  0  0  0999 V2000
  184.7520  177.6310  143.7530 C   0  0  2  0  0  3  0  0  0  0  0  0
  186.1820  177.6110  143.1900 C   0  0  1  0  0  3  0  0  0  0  0  0
  184.0650  178.4590  140.4170 O   0  0  0  0  0  0  0  0  0  0  0  0
  184.6120  178.1600  141.5100 C   0  0  0  0  0  0  0  0  0  0  0  0
  186.8340  177.3760  140.6810 C   0  0  0  0  0  0  0  0  0  0  0  0
  186.8120  177.7740  139.5260 O   0  0  0  0  0  0  0  0  0  0  0  0
  186.7020  176.1790  143.2840 C   0  0  0  0  0  2  0  0  0  0  0  0
  183.8940  177.8850  142.6520 O   0  0  0  0  0  0  0  0  0  0  0  0
  187.6270  176.1370  140.9930 C   0  0  0  0  0  2  0  0  0  0  0  0
  187.9720  176.0350  142.4720 C   0  0  2  0  0  3  0  0  0  0  0  0
  186.0750  178.1490  141.7400 C   0  0  2  0  0  3  0  0  0  0  0  0
  184.5950  178.6910  144.8520 C   0  0  1  0  0  3  0  0  0  0  0  0
  184.5110  178.0920  146.2630 C   0  0  1  0  0  3  0  0  0  0  0  0
  184.8410  176.7330  146.2570 O   0  0  0  0  0  1  0  0  0  0  0  0
  186.3500  177.9260  147.8460 N   0  0  0  0  0  1  0  0  0  0  0  0
  185.4220  178.8480  147.2160 C   0  0  0  0  0  2  0  0  0  0  0  0
  185.4590  180.7590  144.0950 O   0  0  0  0  0  0  0  0  0  0  0  0
  185.6590  179.7430  144.7410 C   0  0  0  0  0  3  0  0  0  0  0  0
  188.6060  174.6890  142.7670 C   0  0  0  0  0  2  0  0  0  0  0  0
  189.8660  174.8680  143.5960 C   0  0  0  0  0  2  0  0  0  0  0  0
  189.5980  174.4910  145.0130 C   0  0  0  0  0  0  0  0  0  0  0  0
  189.7650  173.2960  145.3770 O   0  0  0  0  0  0  0  0  0  0  0  0
  189.1720  175.5050  145.9850 C   0  0  0  0  0  0  0  0  0  0  0  0
  189.3690  176.7280  145.7530 O   0  0  0  0  0  0  0  0  0  0  0  0
  188.5490  175.1250  147.1670 O   0  0  0  0  0  1  0  0  0  0  0  0
  1 12  1  1  0  0  0
  2  7  1  6  0  0  0
  2  1  1  0  0  0  0
  3  4  2  0  0  0  0
  4 11  1  0  0  0  0
  4  8  1  0  0  0  0
  5  9  1  0  0  0  0
  6  5  2  0  0  0  0
  8  1  1  0  0  0  0
  9 10  1  0  0  0  0
 10 19  1  6  0  0  0
 10  7  1  0  0  0  0
 11  5  1  6  0  0  0
 11  2  1  0  0  0  0
 12 18  1  1  0  0  0
 12 13  1  0  0  0  0
 13 14  1  6  0  0  0
 13 16  1  0  0  0  0
 16 15  1  0  0  0  0
 17 18  2  0  0  0  0
 19 20  1  0  0  0  0
 20 21  1  0  0  0  0
 21 22  2  0  0  0  0
 21 23  1  0  0  0  0
 23 25  1  0  0  0  0
 24 23  2  0  0  0  0
M  END
>  <MODEL>
2

>  <REMARK>
 VINA RESULT:      -6.4      2.695      6.673
  Name = 
  8 active torsions:
  status: ('A' for Active; 'I' for Inactive)
    1  A    between atoms: C_1  and  C_5
    2  A    between atoms: C_2  and  C_21
    3  A    between atoms: C_5  and  C_10
    4  A    between atoms: C_5  and  C_22
    5  A    between atoms: C_6  and  C_15
    6  A    between atoms: C_6  and  C_23
    7  A    between atoms: C_10  and  C_11
    8  A    between atoms: C_15  and  C_21
                            x       y       z     vdW  Elec       q    Type
                         _______ _______ _______ _____ _____    ______ ____

>  <TORSDO>
F 8

$$$$
=
 OpenBabel11052417363D

 25 26  0  0  1  0  0  0  0  0999 V2000
  186.9830  178.5040  143.7030 C   0  0  2  0  0  3  0  0  0  0  0  0
  187.0680  177.1270  144.3800 C   0  0  1  0  0  3  0  0  0  0  0  0
  185.1900  179.1970  146.6340 O   0  0  0  0  0  0  0  0  0  0  0  0
  185.8530  178.6580  145.7100 C   0  0  0  0  0  0  0  0  0  0  0  0
  186.7130  176.6450  146.9140 C   0  0  0  0  0  0  0  0  0  0  0  0
  186.0200  176.6540  147.9190 O   0  0  0  0  0  0  0  0  0  0  0  0
  188.5330  176.8570  144.7080 C   0  0  0  0  0  2  0  0  0  0  0  0
  186.3130  179.3580  144.6170 O   0  0  0  0  0  0  0  0  0  0  0  0
  188.0950  176.0620  147.0060 C   0  0  0  0  0  2  0  0  0  0  0  0
  188.6440  175.6700  145.6420 C   0  0  2  0  0  3  0  0  0  0  0  0
  186.1480  177.2090  145.6250 C   0  0  2  0  0  3  0  0  0  0  0  0
  186.2480  178.4260  142.3580 C   0  0  1  0  0  3  0  0  0  0  0  0
  187.1740  178.0880  141.1810 C   0  0  1  0  0  3  0  0  0  0  0  0
  188.5160  178.2950  141.5160 O   0  0  0  0  0  1  0  0  0  0  0  0
  188.0840  175.8320  141.1570 N   0  0  0  0  0  1  0  0  0  0  0  0
  186.9630  176.6520  140.7320 C   0  0  0  0  0  2  0  0  0  0  0  0
  183.9530  177.9380  142.6540 O   0  0  0  0  0  0  0  0  0  0  0  0
  185.0720  177.4990  142.4410 C   0  0  0  0  0  3  0  0  0  0  0  0
  190.1010  175.2630  145.7650 C   0  0  0  0  0  2  0  0  0  0  0  0
  190.9970  176.4890  145.7470 C   0  0  0  0  0  2  0  0  0  0  0  0
  191.9570  176.4330  146.8850 C   0  0  0  0  0  0  0  0  0  0  0  0
  191.5260  176.5430  148.0640 O   0  0  0  0  0  0  0  0  0  0  0  0
  193.3890  176.2230  146.6410 C   0  0  0  0  0  0  0  0  0  0  0  0
  194.2150  177.1440  146.8820 O   0  0  0  0  0  1  0  0  0  0  0  0
  193.8440  175.0090  146.1420 O   0  0  0  0  0  0  0  0  0  0  0  0
  1 12  1  6  0  0  0
  1  2  1  0  0  0  0
  1  8  1  0  0  0  0
  2  7  1  1  0  0  0
  2 11  1  0  0  0  0
  4  3  2  0  0  0  0
  5  9  1  0  0  0  0
  5  6  2  0  0  0  0
  7 10  1  0  0  0  0
  8  4  1  0  0  0  0
 10 19  1  1  0  0  0
 10  9  1  0  0  0  0
 11  4  1  1  0  0  0
 11  5  1  0  0  0  0
 12 18  1  1  0  0  0
 13 14  1  1  0  0  0
 13 12  1  0  0  0  0
 16 15  1  0  0  0  0
 16 13  1  0  0  0  0
 18 17  2  0  0  0  0
 20 19  1  0  0  0  0
 20 21  1  0  0  0  0
 21 22  2  0  0  0  0
 23 24  1  0  0  0  0
 23 21  1  0  0  0  0
 25 23  2  0  0  0  0
M  END
>  <MODEL>
3

>  <REMARK>
 VINA RESULT:      -6.3      2.377      6.308
  Name = 
  8 active torsions:
  status: ('A' for Active; 'I' for Inactive)
    1  A    between atoms: C_1  and  C_5
    2  A    between atoms: C_2  and  C_21
    3  A    between atoms: C_5  and  C_10
    4  A    between atoms: C_5  and  C_22
    5  A    between atoms: C_6  and  C_15
    6  A    between atoms: C_6  and  C_23
    7  A    between atoms: C_10  and  C_11
    8  A    between atoms: C_15  and  C_21
                            x       y       z     vdW  Elec       q    Type
                         _______ _______ _______ _____ _____    ______ ____

>  <TORSDO>
F 8

$$$$
=
 OpenBabel11052417363D

 25 26  0  0  1  0  0  0  0  0999 V2000
  187.1130  177.6450  142.8880 C   0  0  2  0  0  3  0  0  0  0  0  0
  186.6750  176.9650  144.1950 C   0  0  1  0  0  3  0  0  0  0  0  0
  185.4510  180.3340  144.4020 O   0  0  0  0  0  0  0  0  0  0  0  0
  185.9580  179.2160  144.1230 C   0  0  0  0  0  0  0  0  0  0  0  0
  185.9920  178.1780  146.3950 C   0  0  0  0  0  0  0  0  0  0  0  0
  185.2710  178.9420  147.0170 O   0  0  0  0  0  0  0  0  0  0  0  0
  187.9330  176.6090  144.9810 C   0  0  0  0  0  2  0  0  0  0  0  0
  186.7080  179.0010  142.9890 O   0  0  0  0  0  0  0  0  0  0  0  0
  187.0830  177.4610  147.1400 C   0  0  0  0  0  2  0  0  0  0  0  0
  187.5660  176.2220  146.3980 C   0  0  2  0  0  3  0  0  0  0  0  0
  185.7490  177.9800  144.9120 C   0  0  2  0  0  3  0  0  0  0  0  0
  186.4970  176.9580  141.6620 C   0  0  1  0  0  3  0  0  0  0  0  0
  186.0530  177.9450  140.5740 C   0  0  1  0  0  3  0  0  0  0  0  0
  186.7440  177.7250  139.3780 O   0  0  0  0  0  1  0  0  0  0  0  0
  183.8400  178.1650  141.5600 N   0  0  0  0  0  1  0  0  0  0  0  0
  184.5550  177.8400  140.3390 C   0  0  0  0  0  2  0  0  0  0  0  0
  188.5790  175.8510  141.4700 O   0  0  0  0  0  0  0  0  0  0  0  0
  187.4070  175.8920  141.1280 C   0  0  0  0  0  3  0  0  0  0  0  0
  188.7840  175.6420  147.0920 C   0  0  0  0  0  2  0  0  0  0  0  0
  189.9750  175.6310  146.1490 C   0  0  0  0  0  2  0  0  0  0  0  0
  191.1400  176.2980  146.7950 C   0  0  0  0  0  0  0  0  0  0  0  0
  191.0260  176.7400  147.9700 O   0  0  0  0  0  0  0  0  0  0  0  0
  192.4190  176.4150  146.0840 C   0  0  0  0  0  0  0  0  0  0  0  0
  192.4480  176.8460  144.9010 O   0  0  0  0  0  0  0  0  0  0  0  0
  193.6040  176.0520  146.7100 O   0  0  0  0  0  1  0  0  0  0  0  0
  1 12  1  6  0  0  0
  1  8  1  0  0  0  0
  1  2  1  0  0  0  0
  2 11  1  0  0  0  0
  2  7  1  1  0  0  0
  4  3  2  0  0  0  0
  5  6  2  0  0  0  0
  5  9  1  0  0  0  0
  7 10  1  0  0  0  0
  8  4  1  0  0  0  0
 10 19  1  1  0  0  0
 10  9  1  0  0  0  0
 11  4  1  6  0  0  0
 11  5  1  0  0  0  0
 12 18  1  6  0  0  0
 13 14  1  6  0  0  0
 13 12  1  0  0  0  0
 16 13  1  0  0  0  0
 16 15  1  0  0  0  0
 18 17  2  0  0  0  0
 20 21  1  0  0  0  0
 20 19  1  0  0  0  0
 21 22  2  0  0  0  0
 23 25  1  0  0  0  0
 23 21  1  0  0  0  0
 24 23  2  0  0  0  0
M  END
>  <MODEL>
4

>  <REMARK>
 VINA RESULT:      -6.3      2.885      6.458
  Name = 
  8 active torsions:
  status: ('A' for Active; 'I' for Inactive)
    1  A    between atoms: C_1  and  C_5
    2  A    between atoms: C_2  and  C_21
    3  A    between atoms: C_5  and  C_10
    4  A    between atoms: C_5  and  C_22
    5  A    between atoms: C_6  and  C_15
    6  A    between atoms: C_6  and  C_23
    7  A    between atoms: C_10  and  C_11
    8  A    between atoms: C_15  and  C_21
                            x       y       z     vdW  Elec       q    Type
                         _______ _______ _______ _____ _____    ______ ____

>  <TORSDO>
F 8

$$$$
=
 OpenBabel11052417363D

 25 26  0  0  1  0  0  0  0  0999 V2000
  186.9910  177.1860  145.7050 C   0  0  2  0  0  3  0  0  0  0  0  0
  188.4620  177.4930  145.3840 C   0  0  1  0  0  3  0  0  0  0  0  0
  187.2050  175.7050  142.5360 O   0  0  0  0  0  0  0  0  0  0  0  0
  187.4330  176.3100  143.6160 C   0  0  0  0  0  0  0  0  0  0  0  0
  189.9300  176.2670  143.6180 C   0  0  0  0  0  0  0  0  0  0  0  0
  190.1640  175.9290  142.4680 O   0  0  0  0  0  0  0  0  0  0  0  0
  189.3280  176.7320  146.3830 C   0  0  0  0  0  2  0  0  0  0  0  0
  186.5010  176.4080  144.6250 O   0  0  0  0  0  0  0  0  0  0  0  0
  190.9130  175.8810  144.6880 C   0  0  0  0  0  2  0  0  0  0  0  0
  190.7740  176.7470  145.9320 C   0  0  2  0  0  3  0  0  0  0  0  0
  188.6740  177.0630  143.9100 C   0  0  2  0  0  3  0  0  0  0  0  0
  186.1760  178.4720  145.8950 C   0  0  1  0  0  3  0  0  0  0  0  0
  184.8910  178.5040  145.0560 C   0  0  1  0  0  3  0  0  0  0  0  0
  183.7890  178.8780  145.8320 O   0  0  0  0  0  1  0  0  0  0  0  0
  184.8550  178.7260  142.6340 N   0  0  0  0  0  1  0  0  0  0  0  0
  185.0470  179.4500  143.8780 C   0  0  0  0  0  2  0  0  0  0  0  0
  185.9720  177.8240  148.1610 O   0  0  0  0  0  0  0  0  0  0  0  0
  185.9140  178.7330  147.3490 C   0  0  0  0  0  3  0  0  0  0  0  0
  191.6520  176.2050  147.0440 C   0  0  0  0  0  2  0  0  0  0  0  0
  192.7500  175.3260  146.4700 C   0  0  0  0  0  2  0  0  0  0  0  0
  194.0270  176.0900  146.3980 C   0  0  0  0  0  0  0  0  0  0  0  0
  194.1330  177.1770  147.0270 O   0  0  0  0  0  0  0  0  0  0  0  0
  195.1630  175.5710  145.6260 C   0  0  0  0  0  0  0  0  0  0  0  0
  195.8450  174.6100  146.0720 O   0  0  0  0  0  1  0  0  0  0  0  0
  195.4940  176.1360  144.4010 O   0  0  0  0  0  0  0  0  0  0  0  0
  1 12  1  6  0  0  0
  2  1  1  0  0  0  0
  2  7  1  1  0  0  0
  3  4  2  0  0  0  0
  4  8  1  0  0  0  0
  5 11  1  0  0  0  0
  5  9  1  0  0  0  0
  6  5  2  0  0  0  0
  8  1  1  0  0  0  0
  9 10  1  0  0  0  0
 10  7  1  0  0  0  0
 10 19  1  1  0  0  0
 11  4  1  1  0  0  0
 11  2  1  0  0  0  0
 12 18  1  1  0  0  0
 13 14  1  1  0  0  0
 13 12  1  0  0  0  0
 15 16  1  0  0  0  0
 16 13  1  0  0  0  0
 18 17  2  0  0  0  0
 20 19  1  0  0  0  0
 21 20  1  0  0  0  0
 21 22  2  0  0  0  0
 23 24  1  0  0  0  0
 23 21  1  0  0  0  0
 25 23  2  0  0  0  0
M  END
>  <MODEL>
5

>  <REMARK>
 VINA RESULT:      -6.2      2.979      7.332
  Name = 
  8 active torsions:
  status: ('A' for Active; 'I' for Inactive)
    1  A    between atoms: C_1  and  C_5
    2  A    between atoms: C_2  and  C_21
    3  A    between atoms: C_5  and  C_10
    4  A    between atoms: C_5  and  C_22
    5  A    between atoms: C_6  and  C_15
    6  A    between atoms: C_6  and  C_23
    7  A    between atoms: C_10  and  C_11
    8  A    between atoms: C_15  and  C_21
                            x       y       z     vdW  Elec       q    Type
                         _______ _______ _______ _____ _____    ______ ____

>  <TORSDO>
F 8

$$$$
=
 OpenBabel11052417363D

 25 26  0  0  1  0  0  0  0  0999 V2000
  186.8310  177.7890  142.9160 C   0  0  2  0  0  3  0  0  0  0  0  0
  186.5490  176.9410  144.1660 C   0  0  1  0  0  3  0  0  0  0  0  0
  184.3020  179.7350  144.3670 O   0  0  0  0  0  0  0  0  0  0  0  0
  185.1570  178.8500  144.0990 C   0  0  0  0  0  0  0  0  0  0  0  0
  185.3710  177.7630  146.3370 C   0  0  0  0  0  0  0  0  0  0  0  0
  184.4050  178.2280  146.9210 O   0  0  0  0  0  0  0  0  0  0  0  0
  187.8000  176.9630  145.0390 C   0  0  0  0  0  2  0  0  0  0  0  0
  186.0090  178.9400  143.0210 O   0  0  0  0  0  0  0  0  0  0  0  0
  186.5830  177.3930  147.1460 C   0  0  0  0  0  2  0  0  0  0  0  0
  187.4830  176.4090  146.4120 C   0  0  2  0  0  3  0  0  0  0  0  0
  185.3020  177.5740  144.8350 C   0  0  2  0  0  3  0  0  0  0  0  0
  186.5490  177.0040  141.6280 C   0  0  1  0  0  3  0  0  0  0  0  0
  186.0490  177.8890  140.4770 C   0  0  1  0  0  3  0  0  0  0  0  0
  186.8070  177.6900  139.3190 O   0  0  0  0  0  1  0  0  0  0  0  0
  183.7880  178.7840  140.5350 N   0  0  0  0  0  1  0  0  0  0  0  0
  184.5810  177.6160  140.1950 C   0  0  0  0  0  2  0  0  0  0  0  0
  187.7760  174.9850  141.5150 O   0  0  0  0  0  0  0  0  0  0  0  0
  187.7330  176.1720  141.2340 C   0  0  0  0  0  3  0  0  0  0  0  0
  188.7740  176.2100  147.1830 C   0  0  0  0  0  2  0  0  0  0  0  0
  189.1320  174.7350  147.2450 C   0  0  0  0  0  2  0  0  0  0  0  0
  190.0680  174.3930  146.1370 C   0  0  0  0  0  0  0  0  0  0  0  0
  189.7460  173.5010  145.3080 O   0  0  0  0  0  0  0  0  0  0  0  0
  191.3430  175.1060  145.9940 C   0  0  0  0  0  0  0  0  0  0  0  0
  191.5430  175.8530  144.9990 O   0  0  0  0  0  0  0  0  0  0  0  0
  192.3380  174.9620  146.9530 O   0  0  0  0  0  1  0  0  0  0  0  0
  1 12  1  6  0  0  0
  1  8  1  0  0  0  0
  1  2  1  0  0  0  0
  2 11  1  0  0  0  0
  2  7  1  1  0  0  0
  4  3  2  0  0  0  0
  5  6  2  0  0  0  0
  5  9  1  0  0  0  0
  7 10  1  0  0  0  0
  8  4  1  0  0  0  0
 10  9  1  0  0  0  0
 10 19  1  1  0  0  0
 11  4  1  6  0  0  0
 11  5  1  0  0  0  0
 12 18  1  6  0  0  0
 13 14  1  6  0  0  0
 13 12  1  0  0  0  0
 16 13  1  0  0  0  0
 16 15  1  0  0  0  0
 18 17  2  0  0  0  0
 19 20  1  0  0  0  0
 21 20  1  0  0  0  0
 22 21  2  0  0  0  0
 23 21  1  0  0  0  0
 23 25  1  0  0  0  0
 24 23  2  0  0  0  0
M  END
>  <MODEL>
6

>  <REMARK>
 VINA RESULT:      -6.2      3.024      6.405
  Name = 
  8 active torsions:
  status: ('A' for Active; 'I' for Inactive)
    1  A    between atoms: C_1  and  C_5
    2  A    between atoms: C_2  and  C_21
    3  A    between atoms: C_5  and  C_10
    4  A    between atoms: C_5  and  C_22
    5  A    between atoms: C_6  and  C_15
    6  A    between atoms: C_6  and  C_23
    7  A    between atoms: C_10  and  C_11
    8  A    between atoms: C_15  and  C_21
                            x       y       z     vdW  Elec       q    Type
                         _______ _______ _______ _____ _____    ______ ____

>  <TORSDO>
F 8

$$$$
=
 OpenBabel11052417363D

 25 26  0  0  1  0  0  0  0  0999 V2000
  186.3130  177.0530  144.4700 C   0  0  2  0  0  3  0  0  0  0  0  0
  187.7000  177.5870  144.8610 C   0  0  1  0  0  3  0  0  0  0  0  0
  187.7670  177.2500  141.2870 O   0  0  0  0  0  0  0  0  0  0  0  0
  187.5270  177.2940  142.5220 C   0  0  0  0  0  0  0  0  0  0  0  0
  189.8570  177.4480  143.4100 C   0  0  0  0  0  0  0  0  0  0  0  0
  190.4830  177.7070  142.3940 O   0  0  0  0  0  0  0  0  0  0  0  0
  188.3960  176.5160  145.6950 C   0  0  0  0  0  2  0  0  0  0  0  0
  186.3500  176.8360  143.0680 O   0  0  0  0  0  0  0  0  0  0  0  0
  190.5530  176.6830  144.5010 C   0  0  0  0  0  2  0  0  0  0  0  0
  189.8650  176.8520  145.8480 C   0  0  2  0  0  3  0  0  0  0  0  0
  188.4200  177.9150  143.5280 C   0  0  2  0  0  3  0  0  0  0  0  0
  185.2000  178.0330  144.8650 C   0  0  1  0  0  3  0  0  0  0  0  0
  184.5600  177.7080  146.2210 C   0  0  1  0  0  3  0  0  0  0  0  0
  184.8270  176.3900  146.6050 O   0  0  0  0  0  1  0  0  0  0  0  0
  186.0640  178.0290  148.1060 N   0  0  0  0  0  1  0  0  0  0  0  0
  185.0520  178.6730  147.2870 C   0  0  0  0  0  2  0  0  0  0  0  0
  185.3100  180.1810  143.8810 O   0  0  0  0  0  0  0  0  0  0  0  0
  185.6810  179.4520  144.7860 C   0  0  0  0  0  3  0  0  0  0  0  0
  190.4890  175.9220  146.8710 C   0  0  0  0  0  2  0  0  0  0  0  0
  191.8690  176.4190  147.2650 C   0  0  0  0  0  2  0  0  0  0  0  0
  192.9150  175.5700  146.6280 C   0  0  0  0  0  0  0  0  0  0  0  0
  192.6170  174.4090  146.2390 O   0  0  0  0  0  0  0  0  0  0  0  0
  194.2740  176.0880  146.4270 C   0  0  0  0  0  0  0  0  0  0  0  0
  195.2170  175.3010  146.1460 O   0  0  0  0  0  0  0  0  0  0  0  0
  194.5300  177.4480  146.5470 O   0  0  0  0  0  1  0  0  0  0  0  0
  1  2  1  0  0  0  0
  1 12  1  6  0  0  0
  2  7  1  6  0  0  0
  3  4  2  0  0  0  0
  4  8  1  0  0  0  0
  5 11  1  0  0  0  0
  5  9  1  0  0  0  0
  6  5  2  0  0  0  0
  7 10  1  0  0  0  0
  8  1  1  0  0  0  0
  9 10  1  0  0  0  0
 10 19  1  1  0  0  0
 11  4  1  6  0  0  0
 11  2  1  0  0  0  0
 12 18  1  1  0  0  0
 12 13  1  0  0  0  0
 13 14  1  1  0  0  0
 13 16  1  0  0  0  0
 16 15  1  0  0  0  0
 17 18  2  0  0  0  0
 19 20  1  0  0  0  0
 21 20  1  0  0  0  0
 22 21  2  0  0  0  0
 23 25  1  0  0  0  0
 23 21  1  0  0  0  0
 24 23  2  0  0  0  0
M  END
>  <MODEL>
7

>  <REMARK>
 VINA RESULT:      -6.2      2.529      6.993
  Name = 
  8 active torsions:
  status: ('A' for Active; 'I' for Inactive)
    1  A    between atoms: C_1  and  C_5
    2  A    between atoms: C_2  and  C_21
    3  A    between atoms: C_5  and  C_10
    4  A    between atoms: C_5  and  C_22
    5  A    between atoms: C_6  and  C_15
    6  A    between atoms: C_6  and  C_23
    7  A    between atoms: C_10  and  C_11
    8  A    between atoms: C_15  and  C_21
                            x       y       z     vdW  Elec       q    Type
                         _______ _______ _______ _____ _____    ______ ____

>  <TORSDO>
F 8

$$$$
=
 OpenBabel11052417363D

 25 26  0  0  1  0  0  0  0  0999 V2000
  185.7490  178.3000  144.2980 C   0  0  2  0  0  3  0  0  0  0  0  0
  185.1730  177.5590  143.0810 C   0  0  1  0  0  3  0  0  0  0  0  0
  188.5950  178.2610  142.2520 O   0  0  0  0  0  0  0  0  0  0  0  0
  187.4450  178.1170  142.7420 C   0  0  0  0  0  0  0  0  0  0  0  0
  186.1560  177.5830  140.6710 C   0  0  0  0  0  0  0  0  0  0  0  0
  187.0590  177.3570  139.8800 O   0  0  0  0  0  0  0  0  0  0  0  0
  184.0910  178.4420  142.4660 C   0  0  0  0  0  2  0  0  0  0  0  0
  187.0790  178.6570  143.9540 O   0  0  0  0  0  0  0  0  0  0  0  0
  184.8640  178.1350  140.1380 C   0  0  0  0  0  2  0  0  0  0  0  0
  183.7060  177.9120  141.1010 C   0  0  2  0  0  3  0  0  0  0  0  0
  186.3750  177.2880  142.1410 C   0  0  2  0  0  3  0  0  0  0  0  0
  185.7030  177.4300  145.5610 C   0  0  1  0  0  3  0  0  0  0  0  0
  186.9650  177.5510  146.4260 C   0  0  1  0  0  3  0  0  0  0  0  0
  186.6590  178.0370  147.7020 O   0  0  0  0  0  1  0  0  0  0  0  0
  189.0130  176.3130  145.9940 N   0  0  0  0  0  1  0  0  0  0  0  0
  187.6690  176.2090  146.5330 C   0  0  0  0  0  2  0  0  0  0  0  0
  183.7730  178.6750  146.1240 O   0  0  0  0  0  0  0  0  0  0  0  0
  184.4480  177.6830  146.3430 C   0  0  0  0  0  3  0  0  0  0  0  0
  182.4710  178.6440  140.6080 C   0  0  0  0  0  2  0  0  0  0  0  0
  181.2890  178.3620  141.5200 C   0  0  0  0  0  2  0  0  0  0  0  0
  180.0630  179.0130  140.9780 C   0  0  0  0  0  0  0  0  0  0  0  0
  179.9960  180.2700  140.9420 O   0  0  0  0  0  0  0  0  0  0  0  0
  178.9550  178.2000  140.4630 C   0  0  0  0  0  0  0  0  0  0  0  0
  179.0960  177.5330  139.4040 O   0  0  0  0  0  0  0  0  0  0  0  0
  177.7420  178.1610  141.1400 O   0  0  0  0  0  1  0  0  0  0  0  0
  1 12  1  1  0  0  0
  2  7  1  6  0  0  0
  2  1  1  0  0  0  0
  3  4  2  0  0  0  0
  4  8  1  0  0  0  0
  6  5  2  0  0  0  0
  8  1  1  0  0  0  0
  9  5  1  0  0  0  0
  9 10  1  0  0  0  0
 10 19  1  6  0  0  0
 10  7  1  0  0  0  0
 11  5  1  6  0  0  0
 11  4  1  0  0  0  0
 11  2  1  0  0  0  0
 12 18  1  1  0  0  0
 12 13  1  0  0  0  0
 13 16  1  0  0  0  0
 13 14  1  1  0  0  0
 15 16  1  0  0  0  0
 17 18  2  0  0  0  0
 19 20  1  0  0  0  0
 21 20  1  0  0  0  0
 22 21  2  0  0  0  0
 23 21  1  0  0  0  0
 23 25  1  0  0  0  0
 24 23  2  0  0  0  0
M  END
>  <MODEL>
8

>  <REMARK>
 VINA RESULT:      -6.0      3.481      6.172
  Name = 
  8 active torsions:
  status: ('A' for Active; 'I' for Inactive)
    1  A    between atoms: C_1  and  C_5
    2  A    between atoms: C_2  and  C_21
    3  A    between atoms: C_5  and  C_10
    4  A    between atoms: C_5  and  C_22
    5  A    between atoms: C_6  and  C_15
    6  A    between atoms: C_6  and  C_23
    7  A    between atoms: C_10  and  C_11
    8  A    between atoms: C_15  and  C_21
                            x       y       z     vdW  Elec       q    Type
                         _______ _______ _______ _____ _____    ______ ____

>  <TORSDO>
F 8

$$$$
=
 OpenBabel11052417363D

 25 26  0  0  1  0  0  0  0  0999 V2000
  185.9310  177.0810  144.9280 C   0  0  2  0  0  3  0  0  0  0  0  0
  187.1810  177.9390  144.6730 C   0  0  1  0  0  3  0  0  0  0  0  0
  185.8630  177.1660  141.4240 O   0  0  0  0  0  0  0  0  0  0  0  0
  186.1450  177.3180  142.6410 C   0  0  0  0  0  0  0  0  0  0  0  0
  188.5200  178.0680  142.4440 C   0  0  0  0  0  0  0  0  0  0  0  0
  188.5920  178.3190  141.2520 O   0  0  0  0  0  0  0  0  0  0  0  0
  188.3950  177.1540  145.1600 C   0  0  0  0  0  2  0  0  0  0  0  0
  185.4440  176.6980  143.6510 O   0  0  0  0  0  0  0  0  0  0  0  0
  189.7640  177.6120  143.1540 C   0  0  0  0  0  2  0  0  0  0  0  0
  189.6670  177.8060  144.6610 C   0  0  2  0  0  3  0  0  0  0  0  0
  187.1900  178.2350  143.1520 C   0  0  2  0  0  3  0  0  0  0  0  0
  184.8750  177.8500  145.7320 C   0  0  1  0  0  3  0  0  0  0  0  0
  185.1690  177.8870  147.2380 C   0  0  1  0  0  3  0  0  0  0  0  0
  185.9460  176.7920  147.6300 O   0  0  0  0  0  1  0  0  0  0  0  0
  187.0620  178.8960  148.3850 N   0  0  0  0  0  1  0  0  0  0  0  0
  185.8660  179.1840  147.6120 C   0  0  0  0  0  2  0  0  0  0  0  0
  183.8430  179.3920  144.2650 O   0  0  0  0  0  0  0  0  0  0  0  0
  184.6550  179.2190  145.1600 C   0  0  0  0  0  3  0  0  0  0  0  0
  190.8610  177.1670  145.3450 C   0  0  0  0  0  2  0  0  0  0  0  0
  191.1940  175.8360  144.6930 C   0  0  0  0  0  2  0  0  0  0  0  0
  191.3730  174.7890  145.7380 C   0  0  0  0  0  0  0  0  0  0  0  0
  192.1220  173.8030  145.5040 O   0  0  0  0  0  0  0  0  0  0  0  0
  190.7080  174.9150  147.0400 C   0  0  0  0  0  0  0  0  0  0  0  0
  191.3440  175.3490  148.0380 O   0  0  0  0  0  1  0  0  0  0  0  0
  189.3730  174.5580  147.1820 O   0  0  0  0  0  0  0  0  0  0  0  0
  1 12  1  6  0  0  0
  2  1  1  0  0  0  0
  2  7  1  6  0  0  0
  3  4  2  0  0  0  0
  4 11  1  0  0  0  0
  4  8  1  0  0  0  0
  5  9  1  0  0  0  0
  6  5  2  0  0  0  0
  8  1  1  0  0  0  0
  9 10  1  0  0  0  0
 10  7  1  0  0  0  0
 10 19  1  1  0  0  0
 11  5  1  6  0  0  0
 11  2  1  0  0  0  0
 12 18  1  6  0  0  0
 12 13  1  0  0  0  0
 13 16  1  0  0  0  0
 13 14  1  6  0  0  0
 16 15  1  0  0  0  0
 17 18  2  0  0  0  0
 20 19  1  0  0  0  0
 20 21  1  0  0  0  0
 21 23  1  0  0  0  0
 22 21  2  0  0  0  0
 23 25  2  0  0  0  0
 23 24  1  0  0  0  0
M  END
>  <MODEL>
9

>  <REMARK>
 VINA RESULT:      -6.0      2.373      6.592
  Name = 
  8 active torsions:
  status: ('A' for Active; 'I' for Inactive)
    1  A    between atoms: C_1  and  C_5
    2  A    between atoms: C_2  and  C_21
    3  A    between atoms: C_5  and  C_10
    4  A    between atoms: C_5  and  C_22
    5  A    between atoms: C_6  and  C_15
    6  A    between atoms: C_6  and  C_23
    7  A    between atoms: C_10  and  C_11
    8  A    between atoms: C_15  and  C_21
                            x       y       z     vdW  Elec       q    Type
                         _______ _______ _______ _____ _____    ______ ____

>  <TORSDO>
F 8

$$$$
