=
 OpenBabel11052417383D

 25 25  0  0  1  0  0  0  0  0999 V2000
  189.7070  175.5960  144.1580 C   0  0  1  0  0  3  0  0  0  0  0  0
  192.1950  175.3030  143.8290 C   0  0  0  0  0  2  0  0  0  0  0  0
  191.2540  175.4170  146.1410 C   0  0  0  0  0  2  0  0  0  0  0  0
  195.0060  175.3960  146.3960 O   0  0  0  0  0  1  0  0  0  0  0  0
  193.7370  175.4400  145.8370 C   0  0  0  0  0  0  0  0  0  0  0  0
  192.6720  175.4190  146.6450 C   0  0  0  0  0  3  0  0  0  0  0  0
  191.1100  175.9540  144.7080 C   0  0  2  0  0  0  0  0  0  0  0  0
  193.6080  175.5900  144.3450 C   0  0  0  0  0  2  0  0  0  0  0  0
  191.2770  177.4850  144.7340 C   0  0  0  0  0  2  0  0  0  0  0  0
  190.8010  178.1560  143.4530 C   0  0  0  0  0  1  0  0  0  0  0  0
  189.6530  174.4690  142.0540 O   0  0  0  0  0  0  0  0  0  0  0  0
  189.6880  174.3560  143.3090 C   0  0  0  0  0  0  0  0  0  0  0  0
  189.7140  173.0960  143.9100 O   0  0  0  0  0  0  0  0  0  0  0  0
  189.3880  171.9160  143.1910 C   0  0  0  0  0  1  0  0  0  0  0  0
  188.7690  175.4820  145.1920 O   0  0  0  0  0  0  0  0  0  0  0  0
  187.7880  176.4330  144.8970 C   0  0  0  0  0  2  0  0  0  0  0  0
  187.6240  177.3880  146.0640 C   0  0  0  0  0  2  0  0  0  0  0  0
  186.5420  176.8870  147.0050 C   0  0  0  0  0  2  0  0  0  0  0  0
  185.7820  178.0540  147.6160 C   0  0  0  0  0  2  0  0  0  0  0  0
  185.4000  179.0800  146.5610 C   0  0  0  0  0  2  0  0  0  0  0  0
  184.1000  178.8490  146.1100 O   0  0  0  0  0  0  0  0  0  0  0  0
  184.2070  178.8350  144.7170 C   0  0  0  0  0  2  0  0  0  0  0  0
  185.3600  179.7210  144.2820 C   0  0  0  0  0  2  0  0  0  0  0  0
  185.8910  179.2510  143.0800 O   0  0  0  0  0  0  0  0  0  0  0  0
  185.1400  178.1120  142.7900 C   0  0  0  0  0  1  0  0  0  0  0  0
  1 12  1  1  0  0  0
  1  7  1  0  0  0  0
  1 15  1  0  0  0  0
  2  8  1  0  0  0  0
  2  7  1  0  0  0  0
  3  6  1  0  0  0  0
  5  4  1  0  0  0  0
  5  6  2  0  0  0  0
  7  9  1  6  0  0  0
  7  3  1  0  0  0  0
  8  5  1  0  0  0  0
 10  9  1  0  0  0  0
 11 12  2  0  0  0  0
 12 13  1  0  0  0  0
 14 13  1  0  0  0  0
 16 15  1  0  0  0  0
 16 17  1  0  0  0  0
 17 18  1  0  0  0  0
 18 19  1  0  0  0  0
 20 19  1  0  0  0  0
 21 20  1  0  0  0  0
 22 21  1  0  0  0  0
 23 22  1  0  0  0  0
 24 23  1  0  0  0  0
 25 24  1  0  0  0  0
M  END
>  <MODEL>
1

>  <REMARK>
 VINA RESULT:      -5.0      0.000      0.000
  Name = 
  14 active torsions:
  status: ('A' for Active; 'I' for Inactive)
    1  A    between atoms: C_1  and  O_3
    2  A    between atoms: C_1  and  C_18
    3  A    between atoms: C_1  and  C_24
    4  A    between atoms: C_2  and  O_7
    5  A    between atoms: C_2  and  C_25
    6  A    between atoms: O_3  and  C_16
    7  A    between atoms: C_6  and  C_15
    8  A    between atoms: C_6  and  O_21
    9  A    between atoms: O_13  and  C_24
   10  A    between atoms: C_15  and  C_20
   11  A    between atoms: C_16  and  C_23
   12  A    between atoms: C_17  and  C_18
   13  A    between atoms: C_20  and  C_23
   14  A    between atoms: O_21  and  C_25
                            x       y       z     vdW  Elec       q    Type
                         _______ _______ _______ _____ _____    ______ ____

>  <TORSDO>
F 14

$$$$
=
 OpenBabel11052417383D

 25 25  0  0  1  0  0  0  0  0999 V2000
  188.5340  176.4360  144.5390 C   0  0  1  0  0  3  0  0  0  0  0  0
  186.9960  178.4300  144.3420 C   0  0  0  0  0  2  0  0  0  0  0  0
  186.4260  176.5750  145.9150 C   0  0  0  0  0  2  0  0  0  0  0  0
  183.5320  178.9750  145.8280 O   0  0  0  0  0  1  0  0  0  0  0  0
  184.7450  178.3810  145.5060 C   0  0  0  0  0  0  0  0  0  0  0  0
  185.1140  177.2710  146.1550 C   0  0  0  0  0  3  0  0  0  0  0  0
  187.0590  176.9050  144.5540 C   0  0  2  0  0  0  0  0  0  0  0  0
  185.5610  178.9620  144.3840 C   0  0  0  0  0  2  0  0  0  0  0  0
  186.2740  176.1700  143.4510 C   0  0  0  0  0  2  0  0  0  0  0  0
  187.0210  176.1140  142.1260 C   0  0  0  0  0  1  0  0  0  0  0  0
  189.4890  177.5810  146.4040 O   0  0  0  0  0  0  0  0  0  0  0  0
  189.4890  177.4200  145.1540 C   0  0  0  0  0  0  0  0  0  0  0  0
  190.3690  178.1400  144.3430 O   0  0  0  0  0  0  0  0  0  0  0  0
  190.4620  177.9070  142.9460 C   0  0  0  0  0  1  0  0  0  0  0  0
  188.6770  175.1840  145.1540 O   0  0  0  0  0  0  0  0  0  0  0  0
  189.6130  174.5020  144.3710 C   0  0  0  0  0  2  0  0  0  0  0  0
  190.5380  173.6900  145.2600 C   0  0  0  0  0  2  0  0  0  0  0  0
  191.8790  174.3890  145.4000 C   0  0  0  0  0  2  0  0  0  0  0  0
  191.9510  175.1470  146.7160 C   0  0  0  0  0  2  0  0  0  0  0  0
  192.9900  176.2560  146.6620 C   0  0  0  0  0  2  0  0  0  0  0  0
  193.5070  176.3710  145.3710 O   0  0  0  0  0  0  0  0  0  0  0  0
  194.8910  176.2710  145.5360 C   0  0  0  0  0  2  0  0  0  0  0  0
  195.5420  175.9140  144.2130 C   0  0  0  0  0  2  0  0  0  0  0  0
  196.2520  177.0110  143.7230 O   0  0  0  0  0  0  0  0  0  0  0  0
  196.6460  176.6260  142.4420 C   0  0  0  0  0  1  0  0  0  0  0  0
  1  7  1  0  0  0  0
  1 12  1  1  0  0  0
  1 15  1  0  0  0  0
  2  8  1  0  0  0  0
  2  7  1  0  0  0  0
  3  6  1  0  0  0  0
  5  4  1  0  0  0  0
  5  6  2  0  0  0  0
  7  9  1  6  0  0  0
  7  3  1  0  0  0  0
  8  5  1  0  0  0  0
 10  9  1  0  0  0  0
 12 11  2  0  0  0  0
 13 12  1  0  0  0  0
 14 13  1  0  0  0  0
 16 15  1  0  0  0  0
 16 17  1  0  0  0  0
 17 18  1  0  0  0  0
 18 19  1  0  0  0  0
 20 19  1  0  0  0  0
 21 22  1  0  0  0  0
 21 20  1  0  0  0  0
 23 22  1  0  0  0  0
 24 23  1  0  0  0  0
 25 24  1  0  0  0  0
M  END
>  <MODEL>
2

>  <REMARK>
 VINA RESULT:      -5.0      1.894      7.399
  Name = 
  14 active torsions:
  status: ('A' for Active; 'I' for Inactive)
    1  A    between atoms: C_1  and  O_3
    2  A    between atoms: C_1  and  C_18
    3  A    between atoms: C_1  and  C_24
    4  A    between atoms: C_2  and  O_7
    5  A    between atoms: C_2  and  C_25
    6  A    between atoms: O_3  and  C_16
    7  A    between atoms: C_6  and  C_15
    8  A    between atoms: C_6  and  O_21
    9  A    between atoms: O_13  and  C_24
   10  A    between atoms: C_15  and  C_20
   11  A    between atoms: C_16  and  C_23
   12  A    between atoms: C_17  and  C_18
   13  A    between atoms: C_20  and  C_23
   14  A    between atoms: O_21  and  C_25
                            x       y       z     vdW  Elec       q    Type
                         _______ _______ _______ _____ _____    ______ ____

>  <TORSDO>
F 14

$$$$
=
 OpenBabel11052417383D

 25 25  0  0  1  0  0  0  0  0999 V2000
  187.9040  176.8580  145.5050 C   0  0  1  0  0  3  0  0  0  0  0  0
  186.7950  178.2400  143.7060 C   0  0  0  0  0  2  0  0  0  0  0  0
  187.6410  175.9520  143.1670 C   0  0  0  0  0  2  0  0  0  0  0  0
  186.5060  177.5710  139.9680 O   0  0  0  0  0  1  0  0  0  0  0  0
  186.8330  177.4170  141.3080 C   0  0  0  0  0  0  0  0  0  0  0  0
  187.3010  176.2380  141.7290 C   0  0  0  0  0  3  0  0  0  0  0  0
  187.9080  177.2170  143.9990 C   0  0  2  0  0  0  0  0  0  0  0  0
  186.7230  178.6080  142.2210 C   0  0  0  0  0  2  0  0  0  0  0  0
  189.2860  177.7850  143.6090 C   0  0  0  0  0  2  0  0  0  0  0  0
  190.2410  177.8900  144.7890 C   0  0  0  0  0  1  0  0  0  0  0  0
  185.5920  176.5370  146.0060 O   0  0  0  0  0  0  0  0  0  0  0  0
  186.6290  177.2230  146.2120 C   0  0  0  0  0  0  0  0  0  0  0  0
  186.6020  178.3080  147.0900 O   0  0  0  0  0  0  0  0  0  0  0  0
  185.4130  179.0410  147.3390 C   0  0  0  0  0  1  0  0  0  0  0  0
  188.1910  175.5010  145.7060 O   0  0  0  0  0  0  0  0  0  0  0  0
  188.6580  175.4200  147.0210 C   0  0  0  0  0  2  0  0  0  0  0  0
  189.9520  174.6280  147.0640 C   0  0  0  0  0  2  0  0  0  0  0  0
  191.0710  175.4810  147.6360 C   0  0  0  0  0  2  0  0  0  0  0  0
  192.3270  175.3510  146.7900 C   0  0  0  0  0  2  0  0  0  0  0  0
  193.2340  176.5610  146.9540 C   0  0  0  0  0  2  0  0  0  0  0  0
  194.5300  176.2530  146.5400 O   0  0  0  0  0  0  0  0  0  0  0  0
  194.6090  176.7400  145.2320 C   0  0  0  0  0  2  0  0  0  0  0  0
  195.5390  175.8630  144.4140 C   0  0  0  0  0  2  0  0  0  0  0  0
  195.7130  176.4150  143.1440 O   0  0  0  0  0  0  0  0  0  0  0  0
  197.0570  176.7880  143.1090 C   0  0  0  0  0  1  0  0  0  0  0  0
  1 15  1  6  0  0  0
  1 12  1  0  0  0  0
  2  7  1  0  0  0  0
  3  7  1  0  0  0  0
  4  5  1  0  0  0  0
  5  6  2  0  0  0  0
  5  8  1  0  0  0  0
  6  3  1  0  0  0  0
  7  9  1  6  0  0  0
  7  1  1  0  0  0  0
  8  2  1  0  0  0  0
  9 10  1  0  0  0  0
 11 12  2  0  0  0  0
 12 13  1  0  0  0  0
 13 14  1  0  0  0  0
 15 16  1  0  0  0  0
 16 17  1  0  0  0  0
 17 18  1  0  0  0  0
 19 20  1  0  0  0  0
 19 18  1  0  0  0  0
 21 20  1  0  0  0  0
 22 21  1  0  0  0  0
 23 22  1  0  0  0  0
 24 23  1  0  0  0  0
 25 24  1  0  0  0  0
M  END
>  <MODEL>
3

>  <REMARK>
 VINA RESULT:      -5.0      2.236      7.328
  Name = 
  14 active torsions:
  status: ('A' for Active; 'I' for Inactive)
    1  A    between atoms: C_1  and  O_3
    2  A    between atoms: C_1  and  C_18
    3  A    between atoms: C_1  and  C_24
    4  A    between atoms: C_2  and  O_7
    5  A    between atoms: C_2  and  C_25
    6  A    between atoms: O_3  and  C_16
    7  A    between atoms: C_6  and  C_15
    8  A    between atoms: C_6  and  O_21
    9  A    between atoms: O_13  and  C_24
   10  A    between atoms: C_15  and  C_20
   11  A    between atoms: C_16  and  C_23
   12  A    between atoms: C_17  and  C_18
   13  A    between atoms: C_20  and  C_23
   14  A    between atoms: O_21  and  C_25
                            x       y       z     vdW  Elec       q    Type
                         _______ _______ _______ _____ _____    ______ ____

>  <TORSDO>
F 14

$$$$
=
 OpenBabel11052417383D

 25 25  0  0  1  0  0  0  0  0999 V2000
  187.6940  177.6300  144.7350 C   0  0  1  0  0  3  0  0  0  0  0  0
  187.0110  176.9800  142.3920 C   0  0  0  0  0  2  0  0  0  0  0  0
  188.7540  175.6500  143.5900 C   0  0  0  0  0  2  0  0  0  0  0  0
  188.5400  174.3940  140.0510 O   0  0  0  0  0  1  0  0  0  0  0  0
  188.3190  175.1840  141.1710 C   0  0  0  0  0  0  0  0  0  0  0  0
  188.9570  174.8880  142.3080 C   0  0  0  0  0  3  0  0  0  0  0  0
  188.1880  177.0640  143.3810 C   0  0  2  0  0  0  0  0  0  0  0  0
  187.4290  176.3900  141.0420 C   0  0  0  0  0  2  0  0  0  0  0  0
  189.3040  177.9670  142.8230 C   0  0  0  0  0  2  0  0  0  0  0  0
  190.5480  177.9870  143.7000 C   0  0  0  0  0  1  0  0  0  0  0  0
  186.1580  179.3820  144.2140 O   0  0  0  0  0  0  0  0  0  0  0  0
  186.3130  178.2200  144.6780 C   0  0  0  0  0  0  0  0  0  0  0  0
  185.2180  177.4810  145.1280 O   0  0  0  0  0  0  0  0  0  0  0  0
  184.4370  177.9000  146.2380 C   0  0  0  0  0  1  0  0  0  0  0  0
  187.7580  176.6610  145.7460 O   0  0  0  0  0  0  0  0  0  0  0  0
  188.2290  177.3430  146.8720 C   0  0  0  0  0  2  0  0  0  0  0  0
  189.7210  177.1150  147.0290 C   0  0  0  0  0  2  0  0  0  0  0  0
  190.0150  175.6300  147.1500 C   0  0  0  0  0  2  0  0  0  0  0  0
  191.4150  175.4050  147.7000 C   0  0  0  0  0  2  0  0  0  0  0  0
  192.4770  175.7260  146.6610 C   0  0  0  0  0  2  0  0  0  0  0  0
  193.2920  176.7670  147.1070 O   0  0  0  0  0  0  0  0  0  0  0  0
  194.3840  176.7600  146.2340 C   0  0  0  0  0  2  0  0  0  0  0  0
  194.1100  175.8170  145.0770 C   0  0  0  0  0  2  0  0  0  0  0  0
  194.5640  176.3850  143.8860 O   0  0  0  0  0  0  0  0  0  0  0  0
  195.9410  176.1630  143.8980 C   0  0  0  0  0  1  0  0  0  0  0  0
  1 12  1  6  0  0  0
  1 15  1  0  0  0  0
  2  7  1  0  0  0  0
  4  5  1  0  0  0  0
  5  6  2  0  0  0  0
  6  3  1  0  0  0  0
  7  9  1  6  0  0  0
  7  3  1  0  0  0  0
  7  1  1  0  0  0  0
  8  5  1  0  0  0  0
  8  2  1  0  0  0  0
  9 10  1  0  0  0  0
 11 12  2  0  0  0  0
 12 13  1  0  0  0  0
 13 14  1  0  0  0  0
 15 16  1  0  0  0  0
 16 17  1  0  0  0  0
 17 18  1  0  0  0  0
 18 19  1  0  0  0  0
 20 21  1  0  0  0  0
 20 19  1  0  0  0  0
 22 21  1  0  0  0  0
 23 22  1  0  0  0  0
 24 25  1  0  0  0  0
 24 23  1  0  0  0  0
M  END
>  <MODEL>
4

>  <REMARK>
 VINA RESULT:      -4.9      1.891      6.616
  Name = 
  14 active torsions:
  status: ('A' for Active; 'I' for Inactive)
    1  A    between atoms: C_1  and  O_3
    2  A    between atoms: C_1  and  C_18
    3  A    between atoms: C_1  and  C_24
    4  A    between atoms: C_2  and  O_7
    5  A    between atoms: C_2  and  C_25
    6  A    between atoms: O_3  and  C_16
    7  A    between atoms: C_6  and  C_15
    8  A    between atoms: C_6  and  O_21
    9  A    between atoms: O_13  and  C_24
   10  A    between atoms: C_15  and  C_20
   11  A    between atoms: C_16  and  C_23
   12  A    between atoms: C_17  and  C_18
   13  A    between atoms: C_20  and  C_23
   14  A    between atoms: O_21  and  C_25
                            x       y       z     vdW  Elec       q    Type
                         _______ _______ _______ _____ _____    ______ ____

>  <TORSDO>
F 14

$$$$
=
 OpenBabel11052417383D

 25 25  0  0  1  0  0  0  0  0999 V2000
  191.3380  175.5700  145.0620 C   0  0  1  0  0  3  0  0  0  0  0  0
  190.2840  177.5010  143.8200 C   0  0  0  0  0  2  0  0  0  0  0  0
  189.3650  175.1950  143.5370 C   0  0  0  0  0  2  0  0  0  0  0  0
  187.6070  177.4690  141.1110 O   0  0  0  0  0  1  0  0  0  0  0  0
  188.5130  177.0320  142.0680 C   0  0  0  0  0  0  0  0  0  0  0  0
  188.4620  175.7580  142.4730 C   0  0  0  0  0  3  0  0  0  0  0  0
  190.6540  176.0080  143.7430 C   0  0  2  0  0  0  0  0  0  0  0  0
  189.5680  177.9860  142.5560 C   0  0  0  0  0  2  0  0  0  0  0  0
  191.6020  175.7420  142.5580 C   0  0  0  0  0  2  0  0  0  0  0  0
  191.5060  174.3180  142.0290 C   0  0  0  0  0  1  0  0  0  0  0  0
  193.5720  174.7350  144.9620 O   0  0  0  0  0  0  0  0  0  0  0  0
  192.8300  175.7490  145.0590 C   0  0  0  0  0  0  0  0  0  0  0  0
  193.3800  177.0290  145.1560 O   0  0  0  0  0  0  0  0  0  0  0  0
  194.5010  177.3010  145.9830 C   0  0  0  0  0  1  0  0  0  0  0  0
  190.7790  176.2260  146.1670 O   0  0  0  0  0  0  0  0  0  0  0  0
  190.3040  175.2020  146.9930 C   0  0  0  0  0  2  0  0  0  0  0  0
  188.7910  175.2630  147.0760 C   0  0  0  0  0  2  0  0  0  0  0  0
  188.3080  176.6820  146.8290 C   0  0  0  0  0  2  0  0  0  0  0  0
  186.9490  176.6730  146.1460 C   0  0  0  0  0  2  0  0  0  0  0  0
  185.8350  177.0140  147.1230 C   0  0  0  0  0  2  0  0  0  0  0  0
  184.6610  177.3140  146.4320 O   0  0  0  0  0  0  0  0  0  0  0  0
  185.0850  177.6480  145.1430 C   0  0  0  0  0  2  0  0  0  0  0  0
  184.4430  178.9540  144.7130 C   0  0  0  0  0  2  0  0  0  0  0  0
  184.7370  179.2080  143.3720 O   0  0  0  0  0  0  0  0  0  0  0  0
  184.4780  177.9990  142.7260 C   0  0  0  0  0  1  0  0  0  0  0  0
  1 12  1  6  0  0  0
  1 15  1  0  0  0  0
  3  7  1  0  0  0  0
  4  5  1  0  0  0  0
  5  6  2  0  0  0  0
  5  8  1  0  0  0  0
  6  3  1  0  0  0  0
  7  9  1  6  0  0  0
  7  2  1  0  0  0  0
  7  1  1  0  0  0  0
  8  2  1  0  0  0  0
 10  9  1  0  0  0  0
 11 12  2  0  0  0  0
 12 13  1  0  0  0  0
 13 14  1  0  0  0  0
 15 16  1  0  0  0  0
 16 17  1  0  0  0  0
 18 17  1  0  0  0  0
 19 18  1  0  0  0  0
 19 20  1  0  0  0  0
 21 20  1  0  0  0  0
 22 21  1  0  0  0  0
 23 22  1  0  0  0  0
 24 23  1  0  0  0  0
 25 24  1  0  0  0  0
M  END
>  <MODEL>
5

>  <REMARK>
 VINA RESULT:      -4.9      1.787      4.094
  Name = 
  14 active torsions:
  status: ('A' for Active; 'I' for Inactive)
    1  A    between atoms: C_1  and  O_3
    2  A    between atoms: C_1  and  C_18
    3  A    between atoms: C_1  and  C_24
    4  A    between atoms: C_2  and  O_7
    5  A    between atoms: C_2  and  C_25
    6  A    between atoms: O_3  and  C_16
    7  A    between atoms: C_6  and  C_15
    8  A    between atoms: C_6  and  O_21
    9  A    between atoms: O_13  and  C_24
   10  A    between atoms: C_15  and  C_20
   11  A    between atoms: C_16  and  C_23
   12  A    between atoms: C_17  and  C_18
   13  A    between atoms: C_20  and  C_23
   14  A    between atoms: O_21  and  C_25
                            x       y       z     vdW  Elec       q    Type
                         _______ _______ _______ _____ _____    ______ ____

>  <TORSDO>
F 14

$$$$
=
 OpenBabel11052417383D

 25 25  0  0  1  0  0  0  0  0999 V2000
  190.5810  176.3800  144.9370 C   0  0  1  0  0  3  0  0  0  0  0  0
  193.0650  176.8350  144.9030 C   0  0  0  0  0  2  0  0  0  0  0  0
  192.2280  174.5650  145.5270 C   0  0  0  0  0  2  0  0  0  0  0  0
  195.9460  174.6430  146.0850 O   0  0  0  0  0  1  0  0  0  0  0  0
  194.6600  175.0800  145.8000 C   0  0  0  0  0  0  0  0  0  0  0  0
  193.6510  174.2060  145.8600 C   0  0  0  0  0  3  0  0  0  0  0  0
  191.9360  176.0710  145.6200 C   0  0  2  0  0  0  0  0  0  0  0  0
  194.4400  176.5400  145.5100 C   0  0  0  0  0  2  0  0  0  0  0  0
  191.8670  176.4710  147.1060 C   0  0  0  0  0  2  0  0  0  0  0  0
  191.2590  175.3870  147.9850 C   0  0  0  0  0  1  0  0  0  0  0  0
  190.5200  177.8290  143.0410 O   0  0  0  0  0  0  0  0  0  0  0  0
  190.6930  176.6550  143.4640 C   0  0  0  0  0  0  0  0  0  0  0  0
  190.9930  175.6160  142.5810 O   0  0  0  0  0  0  0  0  0  0  0  0
  189.9760  174.8900  141.9060 C   0  0  0  0  0  1  0  0  0  0  0  0
  189.6510  175.3560  145.1630 O   0  0  0  0  0  0  0  0  0  0  0  0
  188.4060  175.9920  145.1700 C   0  0  0  0  0  2  0  0  0  0  0  0
  188.0500  176.4200  146.5810 C   0  0  0  0  0  2  0  0  0  0  0  0
  187.0770  177.5860  146.5470 C   0  0  0  0  0  2  0  0  0  0  0  0
  185.7230  177.1680  147.0990 C   0  0  0  0  0  2  0  0  0  0  0  0
  184.5850  177.7970  146.3110 C   0  0  0  0  0  2  0  0  0  0  0  0
  184.9030  179.1110  145.9670 O   0  0  0  0  0  0  0  0  0  0  0  0
  184.3980  179.2690  144.6730 C   0  0  0  0  0  2  0  0  0  0  0  0
  185.5440  179.4150  143.6890 C   0  0  0  0  0  2  0  0  0  0  0  0
  185.2350  178.7520  142.5010 O   0  0  0  0  0  0  0  0  0  0  0  0
  185.4820  177.4080  142.7790 C   0  0  0  0  0  1  0  0  0  0  0  0
  1 12  1  6  0  0  0
  1 15  1  0  0  0  0
  1  7  1  0  0  0  0
  2  8  1  0  0  0  0
  2  7  1  0  0  0  0
  3  7  1  0  0  0  0
  3  6  1  0  0  0  0
  5  6  2  0  0  0  0
  5  4  1  0  0  0  0
  7  9  1  1  0  0  0
  8  5  1  0  0  0  0
  9 10  1  0  0  0  0
 11 12  2  0  0  0  0
 13 12  1  0  0  0  0
 14 13  1  0  0  0  0
 15 16  1  0  0  0  0
 16 17  1  0  0  0  0
 18 17  1  0  0  0  0
 18 19  1  0  0  0  0
 20 19  1  0  0  0  0
 21 20  1  0  0  0  0
 22 21  1  0  0  0  0
 23 22  1  0  0  0  0
 24 25  1  0  0  0  0
 24 23  1  0  0  0  0
M  END
>  <MODEL>
6

>  <REMARK>
 VINA RESULT:      -4.8      1.418      2.040
  Name = 
  14 active torsions:
  status: ('A' for Active; 'I' for Inactive)
    1  A    between atoms: C_1  and  O_3
    2  A    between atoms: C_1  and  C_18
    3  A    between atoms: C_1  and  C_24
    4  A    between atoms: C_2  and  O_7
    5  A    between atoms: C_2  and  C_25
    6  A    between atoms: O_3  and  C_16
    7  A    between atoms: C_6  and  C_15
    8  A    between atoms: C_6  and  O_21
    9  A    between atoms: O_13  and  C_24
   10  A    between atoms: C_15  and  C_20
   11  A    between atoms: C_16  and  C_23
   12  A    between atoms: C_17  and  C_18
   13  A    between atoms: C_20  and  C_23
   14  A    between atoms: O_21  and  C_25
                            x       y       z     vdW  Elec       q    Type
                         _______ _______ _______ _____ _____    ______ ____

>  <TORSDO>
F 14

$$$$
=
 OpenBabel11052417383D

 25 25  0  0  1  0  0  0  0  0999 V2000
  188.7340  176.4570  144.4790 C   0  0  1  0  0  3  0  0  0  0  0  0
  187.0920  178.3690  144.3160 C   0  0  0  0  0  2  0  0  0  0  0  0
  186.6860  176.5210  145.9470 C   0  0  0  0  0  2  0  0  0  0  0  0
  183.6760  178.7760  145.9480 O   0  0  0  0  0  1  0  0  0  0  0  0
  184.9000  178.2350  145.5820 C   0  0  0  0  0  0  0  0  0  0  0  0
  185.3520  177.1580  146.2340 C   0  0  0  0  0  3  0  0  0  0  0  0
  187.2400  176.8540  144.5520 C   0  0  2  0  0  0  0  0  0  0  0  0
  185.6360  178.8320  144.4140 C   0  0  0  0  0  2  0  0  0  0  0  0
  186.4430  176.0590  143.5010 C   0  0  0  0  0  2  0  0  0  0  0  0
  187.0710  176.1120  142.1150 C   0  0  0  0  0  1  0  0  0  0  0  0
  189.8090  177.7190  146.1970 O   0  0  0  0  0  0  0  0  0  0  0  0
  189.6710  177.5290  144.9580 C   0  0  0  0  0  0  0  0  0  0  0  0
  190.3820  178.3000  144.0360 O   0  0  0  0  0  0  0  0  0  0  0  0
  191.4310  177.7520  143.2530 C   0  0  0  0  0  1  0  0  0  0  0  0
  188.9780  175.2640  145.1730 O   0  0  0  0  0  0  0  0  0  0  0  0
  189.6580  174.4480  144.2620 C   0  0  0  0  0  2  0  0  0  0  0  0
  189.9990  173.1200  144.9110 C   0  0  0  0  0  2  0  0  0  0  0  0
  189.6850  171.9760  143.9620 C   0  0  0  0  0  2  0  0  0  0  0  0
  188.9470  172.4880  142.7340 C   0  0  0  0  0  2  0  0  0  0  0  0
  189.6950  172.1470  141.4550 C   0  0  0  0  0  2  0  0  0  0  0  0
  190.1890  173.3080  140.8600 O   0  0  0  0  0  0  0  0  0  0  0  0
  189.1450  173.7580  140.0460 C   0  0  0  0  0  2  0  0  0  0  0  0
  188.7860  172.6880  139.0320 C   0  0  0  0  0  2  0  0  0  0  0  0
  188.2010  173.2760  137.9100 O   0  0  0  0  0  0  0  0  0  0  0  0
  189.2400  173.9860  137.3080 C   0  0  0  0  0  1  0  0  0  0  0  0
  1  7  1  0  0  0  0
  1 12  1  1  0  0  0
  1 15  1  0  0  0  0
  2  8  1  0  0  0  0
  2  7  1  0  0  0  0
  3  6  1  0  0  0  0
  5  4  1  0  0  0  0
  5  6  2  0  0  0  0
  7  9  1  6  0  0  0
  7  3  1  0  0  0  0
  8  5  1  0  0  0  0
 10  9  1  0  0  0  0
 12 11  2  0  0  0  0
 13 12  1  0  0  0  0
 14 13  1  0  0  0  0
 16 17  1  0  0  0  0
 16 15  1  0  0  0  0
 18 17  1  0  0  0  0
 19 18  1  0  0  0  0
 20 19  1  0  0  0  0
 21 20  1  0  0  0  0
 22 21  1  0  0  0  0
 23 22  1  0  0  0  0
 24 23  1  0  0  0  0
 25 24  1  0  0  0  0
M  END
>  <MODEL>
7

>  <REMARK>
 VINA RESULT:      -4.8      2.415      6.948
  Name = 
  14 active torsions:
  status: ('A' for Active; 'I' for Inactive)
    1  A    between atoms: C_1  and  O_3
    2  A    between atoms: C_1  and  C_18
    3  A    between atoms: C_1  and  C_24
    4  A    between atoms: C_2  and  O_7
    5  A    between atoms: C_2  and  C_25
    6  A    between atoms: O_3  and  C_16
    7  A    between atoms: C_6  and  C_15
    8  A    between atoms: C_6  and  O_21
    9  A    between atoms: O_13  and  C_24
   10  A    between atoms: C_15  and  C_20
   11  A    between atoms: C_16  and  C_23
   12  A    between atoms: C_17  and  C_18
   13  A    between atoms: C_20  and  C_23
   14  A    between atoms: O_21  and  C_25
                            x       y       z     vdW  Elec       q    Type
                         _______ _______ _______ _____ _____    ______ ____

>  <TORSDO>
F 14

$$$$
=
 OpenBabel11052417383D

 25 25  0  0  1  0  0  0  0  0999 V2000
  188.0170  176.8520  143.5320 C   0  0  1  0  0  3  0  0  0  0  0  0
  186.0250  176.3390  144.9970 C   0  0  0  0  0  2  0  0  0  0  0  0
  186.7520  178.7070  144.6770 C   0  0  0  0  0  2  0  0  0  0  0  0
  184.0280  178.6520  147.2700 O   0  0  0  0  0  1  0  0  0  0  0  0
  184.9820  178.1980  146.3690 C   0  0  0  0  0  0  0  0  0  0  0  0
  185.7240  179.0910  145.7070 C   0  0  0  0  0  3  0  0  0  0  0  0
  187.2470  177.2580  144.8120 C   0  0  2  0  0  0  0  0  0  0  0  0
  185.1980  176.7160  146.2300 C   0  0  0  0  0  2  0  0  0  0  0  0
  188.1860  177.1670  146.0290 C   0  0  0  0  0  2  0  0  0  0  0  0
  188.7560  175.7710  146.2370 C   0  0  0  0  0  1  0  0  0  0  0  0
  187.4510  174.9940  142.1430 O   0  0  0  0  0  0  0  0  0  0  0  0
  187.1630  176.1670  142.5020 C   0  0  0  0  0  0  0  0  0  0  0  0
  186.0600  176.8280  141.9580 O   0  0  0  0  0  0  0  0  0  0  0  0
  186.1950  177.7640  140.8990 C   0  0  0  0  0  1  0  0  0  0  0  0
  188.6690  177.9520  142.9580 O   0  0  0  0  0  0  0  0  0  0  0  0
  189.9870  177.5290  142.7610 C   0  0  0  0  0  2  0  0  0  0  0  0
  190.9170  178.2780  143.6970 C   0  0  0  0  0  2  0  0  0  0  0  0
  191.6060  177.3080  144.6400 C   0  0  0  0  0  2  0  0  0  0  0  0
  192.8080  176.6680  143.9620 C   0  0  0  0  0  2  0  0  0  0  0  0
  192.6480  175.1590  143.8610 C   0  0  0  0  0  2  0  0  0  0  0  0
  192.1240  174.6470  145.0470 O   0  0  0  0  0  0  0  0  0  0  0  0
  191.4660  173.4750  144.6660 C   0  0  0  0  0  2  0  0  0  0  0  0
  190.5080  173.7720  143.5270 C   0  0  0  0  0  2  0  0  0  0  0  0
  190.4240  172.6660  142.6780 O   0  0  0  0  0  0  0  0  0  0  0  0
  189.3780  171.9060  143.2010 C   0  0  0  0  0  1  0  0  0  0  0  0
  1 12  1  6  0  0  0
  1  7  1  0  0  0  0
  2  8  1  0  0  0  0
  3  7  1  0  0  0  0
  3  6  1  0  0  0  0
  5  4  1  0  0  0  0
  6  5  2  0  0  0  0
  7  2  1  0  0  0  0
  7  9  1  1  0  0  0
  8  5  1  0  0  0  0
  9 10  1  0  0  0  0
 11 12  2  0  0  0  0
 13 12  1  0  0  0  0
 14 13  1  0  0  0  0
 15  1  1  0  0  0  0
 16 15  1  0  0  0  0
 16 17  1  0  0  0  0
 17 18  1  0  0  0  0
 19 18  1  0  0  0  0
 20 19  1  0  0  0  0
 20 21  1  0  0  0  0
 22 21  1  0  0  0  0
 23 22  1  0  0  0  0
 24 25  1  0  0  0  0
 24 23  1  0  0  0  0
M  END
>  <MODEL>
8

>  <REMARK>
 VINA RESULT:      -4.7      1.818      6.732
  Name = 
  14 active torsions:
  status: ('A' for Active; 'I' for Inactive)
    1  A    between atoms: C_1  and  O_3
    2  A    between atoms: C_1  and  C_18
    3  A    between atoms: C_1  and  C_24
    4  A    between atoms: C_2  and  O_7
    5  A    between atoms: C_2  and  C_25
    6  A    between atoms: O_3  and  C_16
    7  A    between atoms: C_6  and  C_15
    8  A    between atoms: C_6  and  O_21
    9  A    between atoms: O_13  and  C_24
   10  A    between atoms: C_15  and  C_20
   11  A    between atoms: C_16  and  C_23
   12  A    between atoms: C_17  and  C_18
   13  A    between atoms: C_20  and  C_23
   14  A    between atoms: O_21  and  C_25
                            x       y       z     vdW  Elec       q    Type
                         _______ _______ _______ _____ _____    ______ ____

>  <TORSDO>
F 14

$$$$
=
 OpenBabel11052417383D

 25 25  0  0  1  0  0  0  0  0999 V2000
  188.0450  176.8630  145.6190 C   0  0  1  0  0  3  0  0  0  0  0  0
  186.9060  178.3060  143.8870 C   0  0  0  0  0  2  0  0  0  0  0  0
  187.4500  175.9260  143.3550 C   0  0  0  0  0  2  0  0  0  0  0  0
  186.1660  177.5690  140.2250 O   0  0  0  0  0  1  0  0  0  0  0  0
  186.6110  177.4180  141.5310 C   0  0  0  0  0  0  0  0  0  0  0  0
  186.9950  176.2070  141.9480 C   0  0  0  0  0  3  0  0  0  0  0  0
  187.9310  177.1780  144.1070 C   0  0  2  0  0  0  0  0  0  0  0  0
  186.7200  178.6390  142.4030 C   0  0  0  0  0  2  0  0  0  0  0  0
  189.3130  177.5830  143.5600 C   0  0  0  0  0  2  0  0  0  0  0  0
  190.3160  177.9040  144.6600 C   0  0  0  0  0  1  0  0  0  0  0  0
  187.0840  178.3450  147.2250 O   0  0  0  0  0  0  0  0  0  0  0  0
  186.8940  177.3820  146.4340 C   0  0  0  0  0  0  0  0  0  0  0  0
  185.6300  176.8030  146.3070 O   0  0  0  0  0  0  0  0  0  0  0  0
  184.4400  177.5530  146.5030 C   0  0  0  0  0  1  0  0  0  0  0  0
  188.2070  175.4880  145.8420 O   0  0  0  0  0  0  0  0  0  0  0  0
  188.8390  175.3960  147.0860 C   0  0  0  0  0  2  0  0  0  0  0  0
  190.2620  174.9010  146.9080 C   0  0  0  0  0  2  0  0  0  0  0  0
  191.2300  175.8080  147.6470 C   0  0  0  0  0  2  0  0  0  0  0  0
  192.5390  175.9300  146.8820 C   0  0  0  0  0  2  0  0  0  0  0  0
  192.5450  175.0410  145.6490 C   0  0  0  0  0  2  0  0  0  0  0  0
  193.0470  175.7390  144.5510 O   0  0  0  0  0  0  0  0  0  0  0  0
  192.7950  174.9070  143.4570 C   0  0  0  0  0  2  0  0  0  0  0  0
  191.3490  174.4480  143.4840 C   0  0  0  0  0  2  0  0  0  0  0  0
  191.0550  173.7370  142.3190 O   0  0  0  0  0  0  0  0  0  0  0  0
  191.9200  174.2670  141.3620 C   0  0  0  0  0  1  0  0  0  0  0  0
  1 15  1  6  0  0  0
  1 12  1  0  0  0  0
  2  7  1  0  0  0  0
  3  7  1  0  0  0  0
  4  5  1  0  0  0  0
  5  6  2  0  0  0  0
  5  8  1  0  0  0  0
  6  3  1  0  0  0  0
  7  9  1  6  0  0  0
  7  1  1  0  0  0  0
  8  2  1  0  0  0  0
  9 10  1  0  0  0  0
 12 11  2  0  0  0  0
 13 12  1  0  0  0  0
 13 14  1  0  0  0  0
 15 16  1  0  0  0  0
 17 16  1  0  0  0  0
 17 18  1  0  0  0  0
 19 18  1  0  0  0  0
 20 19  1  0  0  0  0
 21 20  1  0  0  0  0
 22 23  1  0  0  0  0
 22 21  1  0  0  0  0
 24 23  1  0  0  0  0
 25 24  1  0  0  0  0
M  END
>  <MODEL>
9

>  <REMARK>
 VINA RESULT:      -4.7      1.917      6.647
  Name = 
  14 active torsions:
  status: ('A' for Active; 'I' for Inactive)
    1  A    between atoms: C_1  and  O_3
    2  A    between atoms: C_1  and  C_18
    3  A    between atoms: C_1  and  C_24
    4  A    between atoms: C_2  and  O_7
    5  A    between atoms: C_2  and  C_25
    6  A    between atoms: O_3  and  C_16
    7  A    between atoms: C_6  and  C_15
    8  A    between atoms: C_6  and  O_21
    9  A    between atoms: O_13  and  C_24
   10  A    between atoms: C_15  and  C_20
   11  A    between atoms: C_16  and  C_23
   12  A    between atoms: C_17  and  C_18
   13  A    between atoms: C_20  and  C_23
   14  A    between atoms: O_21  and  C_25
                            x       y       z     vdW  Elec       q    Type
                         _______ _______ _______ _____ _____    ______ ____

>  <TORSDO>
F 14

$$$$
