=
 OpenBabel11052417293D

 25 28  0  0  1  0  0  0  0  0999 V2000
  188.0500  176.0080  143.7100 C   0  0  0  0  0  0  0  0  0  0  0  0
  186.8430  176.8100  143.5760 C   0  0  0  0  0  0  0  0  0  0  0  0
  186.8940  176.6110  141.0980 C   0  0  0  0  0  2  0  0  0  0  0  0
  186.0440  177.4110  144.5220 C   0  0  0  0  0  0  0  0  0  0  0  0
  184.0620  178.8350  145.8170 C   0  0  0  0  0  3  0  0  0  0  0  0
  188.1190  175.8140  141.2990 N   0  0  0  0  0  0  0  0  0  0  0  0
  185.0560  178.0300  143.7950 C   0  0  0  0  0  0  0  0  0  0  0  0
  184.0410  178.7560  144.4110 C   0  0  0  0  0  3  0  0  0  0  0  0
  189.8550  174.7390  142.5400 N   0  0  0  0  0  0  0  0  0  0  0  0
  190.5160  174.2330  141.3480 C   0  0  0  0  0  1  0  0  0  0  0  0
  188.6090  175.7070  144.8860 C   0  0  0  0  0  3  0  0  0  0  0  0
  185.0810  178.1960  146.5610 C   0  0  0  0  0  3  0  0  0  0  0  0
  186.3270  177.0790  142.3630 N   0  0  0  0  0  0  0  0  0  0  0  0
  185.2320  177.8240  142.4740 N   0  0  0  0  0  0  0  0  0  0  0  0
  190.4210  174.4450  143.8270 C   0  0  0  0  0  3  0  0  0  0  0  0
  186.0960  177.4690  145.9120 C   0  0  0  0  0  3  0  0  0  0  0  0
  189.8400  174.8900  144.9490 C   0  0  0  0  0  0  0  0  0  0  0  0
  188.6570  175.5280  142.4570 C   0  0  0  0  0  0  0  0  0  0  0  0
  190.4560  174.5850  146.2720 C   0  0  0  0  0  2  0  0  0  0  0  0
  191.4260  175.6810  146.6870 C   0  0  1  0  0  3  0  0  0  0  0  0
  191.1620  176.0750  148.0620 N   0  0  0  0  0  1  0  0  0  0  0  0
  192.8490  175.1580  146.5630 C   0  0  0  0  0  2  0  0  0  0  0  0
  192.9480  176.9140  144.7950 C   0  0  0  0  0  1  0  0  0  0  0  0
  194.2760  177.1020  146.8080 N   0  0  0  0  0  1  0  0  0  0  0  0
  193.7410  176.1570  145.8440 C   0  0  1  0  0  3  0  0  0  0  0  0
  1 11  2  0  0  0  0
  2  1  1  0  0  0  0
  2  4  2  0  0  0  0
  3  6  1  0  0  0  0
  3 13  1  0  0  0  0
  4 16  1  0  0  0  0
  5 12  1  0  0  0  0
  6 18  2  0  0  0  0
  7  8  1  0  0  0  0
  7  4  1  0  0  0  0
  8  5  2  0  0  0  0
  9 15  1  0  0  0  0
 10  9  1  0  0  0  0
 11 17  1  0  0  0  0
 13 14  1  0  0  0  0
 13  2  1  0  0  0  0
 14  7  2  0  0  0  0
 15 17  2  0  0  0  0
 16 12  2  0  0  0  0
 17 19  1  0  0  0  0
 18  9  1  0  0  0  0
 18  1  1  0  0  0  0
 19 20  1  0  0  0  0
 20 21  1  1  0  0  0
 22 20  1  0  0  0  0
 25 23  1  6  0  0  0
 25 22  1  0  0  0  0
 25 24  1  0  0  0  0
M  END
>  <MODEL>
1

>  <REMARK>
 VINA RESULT:      -7.2      0.000      0.000
  Name = 
  4 active torsions:
  status: ('A' for Active; 'I' for Inactive)
    1  A    between atoms: C_6  and  C_15
    2  A    between atoms: C_6  and  C_23
    3  A    between atoms: C_12  and  C_21
    4  A    between atoms: C_15  and  C_21
                            x       y       z     vdW  Elec       q    Type
                         _______ _______ _______ _____ _____    ______ ____

>  <TORSDO>
F 4

$$$$
=
 OpenBabel11052417293D

 25 28  0  0  1  0  0  0  0  0999 V2000
  186.5490  176.9090  142.8880 C   0  0  0  0  0  0  0  0  0  0  0  0
  185.7230  177.5270  143.9150 C   0  0  0  0  0  0  0  0  0  0  0  0
  184.2590  178.5890  142.2080 C   0  0  0  0  0  2  0  0  0  0  0  0
  185.8010  177.4850  145.2880 C   0  0  0  0  0  0  0  0  0  0  0  0
  185.3620  177.8420  147.9930 C   0  0  0  0  0  3  0  0  0  0  0  0
  185.1390  177.9440  141.2150 N   0  0  0  0  0  0  0  0  0  0  0  0
  184.7550  178.2640  145.7170 C   0  0  0  0  0  0  0  0  0  0  0  0
  184.5010  178.4680  147.0710 C   0  0  0  0  0  3  0  0  0  0  0  0
  186.9610  176.6030  140.4430 N   0  0  0  0  0  0  0  0  0  0  0  0
  186.6530  176.8340  139.0420 C   0  0  0  0  0  1  0  0  0  0  0  0
  187.6020  176.1330  143.1560 C   0  0  0  0  0  3  0  0  0  0  0  0
  186.4390  177.0410  147.5470 C   0  0  0  0  0  3  0  0  0  0  0  0
  184.6740  178.3010  143.5820 N   0  0  0  0  0  0  0  0  0  0  0  0
  184.0660  178.7610  144.6700 N   0  0  0  0  0  0  0  0  0  0  0  0
  188.0860  175.7780  140.7820 C   0  0  0  0  0  3  0  0  0  0  0  0
  186.6730  176.8530  146.1710 C   0  0  0  0  0  3  0  0  0  0  0  0
  188.4000  175.5400  142.0620 C   0  0  0  0  0  0  0  0  0  0  0  0
  186.1690  177.1860  141.4920 C   0  0  0  0  0  0  0  0  0  0  0  0
  189.5840  174.6920  142.3880 C   0  0  0  0  0  2  0  0  0  0  0  0
  190.0310  174.9100  143.8250 C   0  0  1  0  0  3  0  0  0  0  0  0
  190.1540  173.6280  144.5000 N   0  0  0  0  0  1  0  0  0  0  0  0
  191.3720  175.6260  143.8260 C   0  0  0  0  0  2  0  0  0  0  0  0
  190.8550  178.0420  143.4860 C   0  0  0  0  0  1  0  0  0  0  0  0
  190.2760  176.9270  145.5530 N   0  0  0  0  0  1  0  0  0  0  0  0
  191.2680  176.9870  144.4950 C   0  0  1  0  0  3  0  0  0  0  0  0
  1 11  2  0  0  0  0
  1  2  1  0  0  0  0
  2  4  2  0  0  0  0
  3 13  1  0  0  0  0
  4  7  1  0  0  0  0
  4 16  1  0  0  0  0
  6 18  2  0  0  0  0
  6  3  1  0  0  0  0
  7  8  1  0  0  0  0
  8  5  2  0  0  0  0
  9 15  1  0  0  0  0
  9 18  1  0  0  0  0
 10  9  1  0  0  0  0
 12  5  1  0  0  0  0
 13  2  1  0  0  0  0
 13 14  1  0  0  0  0
 14  7  2  0  0  0  0
 15 17  2  0  0  0  0
 16 12  2  0  0  0  0
 17 19  1  0  0  0  0
 17 11  1  0  0  0  0
 18  1  1  0  0  0  0
 19 20  1  0  0  0  0
 20 22  1  0  0  0  0
 20 21  1  6  0  0  0
 22 25  1  0  0  0  0
 25 23  1  6  0  0  0
 25 24  1  0  0  0  0
M  END
>  <MODEL>
2

>  <REMARK>
 VINA RESULT:      -7.2      1.878      3.115
  Name = 
  4 active torsions:
  status: ('A' for Active; 'I' for Inactive)
    1  A    between atoms: C_6  and  C_15
    2  A    between atoms: C_6  and  C_23
    3  A    between atoms: C_12  and  C_21
    4  A    between atoms: C_15  and  C_21
                            x       y       z     vdW  Elec       q    Type
                         _______ _______ _______ _____ _____    ______ ____

>  <TORSDO>
F 4

$$$$
=
 OpenBabel11052417293D

 25 28  0  0  1  0  0  0  0  0999 V2000
  186.5550  176.8750  142.8370 C   0  0  0  0  0  0  0  0  0  0  0  0
  185.7210  177.5120  143.8460 C   0  0  0  0  0  0  0  0  0  0  0  0
  184.2990  178.5800  142.1080 C   0  0  0  0  0  2  0  0  0  0  0  0
  185.7760  177.4790  145.2210 C   0  0  0  0  0  0  0  0  0  0  0  0
  185.2980  177.8620  147.9150 C   0  0  0  0  0  3  0  0  0  0  0  0
  185.1870  177.9160  141.1340 N   0  0  0  0  0  0  0  0  0  0  0  0
  184.7330  178.2750  145.6270 C   0  0  0  0  0  0  0  0  0  0  0  0
  184.4600  178.4920  146.9740 C   0  0  0  0  0  3  0  0  0  0  0  0
  187.0030  176.5460  140.4020 N   0  0  0  0  0  0  0  0  0  0  0  0
  186.7210  176.7700  138.9940 C   0  0  0  0  0  1  0  0  0  0  0  0
  187.5940  176.0870  143.1280 C   0  0  0  0  0  3  0  0  0  0  0  0
  186.3710  177.0430  147.4930 C   0  0  0  0  0  3  0  0  0  0  0  0
  184.6880  178.2960  143.4900 N   0  0  0  0  0  0  0  0  0  0  0  0
  184.0680  178.7730  144.5650 N   0  0  0  0  0  0  0  0  0  0  0  0
  188.1110  175.7080  140.7650 C   0  0  0  0  0  3  0  0  0  0  0  0
  186.6250  176.8420  146.1230 C   0  0  0  0  0  3  0  0  0  0  0  0
  188.4020  175.4750  142.0520 C   0  0  0  0  0  0  0  0  0  0  0  0
  186.2020  177.1470  141.4330 C   0  0  0  0  0  0  0  0  0  0  0  0
  189.5690  174.6150  142.4030 C   0  0  0  0  0  2  0  0  0  0  0  0
  189.2590  173.7430  143.6100 C   0  0  1  0  0  3  0  0  0  0  0  0
  189.2170  172.3460  143.2070 N   0  0  0  0  0  1  0  0  0  0  0  0
  190.3380  173.9460  144.6610 C   0  0  0  0  0  2  0  0  0  0  0  0
  189.3420  174.4690  146.8870 C   0  0  0  0  0  1  0  0  0  0  0  0
  191.1500  175.8020  145.9910 N   0  0  0  0  0  1  0  0  0  0  0  0
  189.9600  175.0540  145.6310 C   0  0  1  0  0  3  0  0  0  0  0  0
  1 11  2  0  0  0  0
  1  2  1  0  0  0  0
  2  4  2  0  0  0  0
  3 13  1  0  0  0  0
  4  7  1  0  0  0  0
  4 16  1  0  0  0  0
  6 18  2  0  0  0  0
  6  3  1  0  0  0  0
  7  8  1  0  0  0  0
  8  5  2  0  0  0  0
  9 15  1  0  0  0  0
  9 18  1  0  0  0  0
 10  9  1  0  0  0  0
 12  5  1  0  0  0  0
 13  2  1  0  0  0  0
 13 14  1  0  0  0  0
 14  7  2  0  0  0  0
 15 17  2  0  0  0  0
 16 12  2  0  0  0  0
 17 19  1  0  0  0  0
 17 11  1  0  0  0  0
 18  1  1  0  0  0  0
 19 20  1  0  0  0  0
 20 21  1  6  0  0  0
 20 22  1  0  0  0  0
 22 25  1  0  0  0  0
 25 24  1  0  0  0  0
 25 23  1  1  0  0  0
M  END
>  <MODEL>
3

>  <REMARK>
 VINA RESULT:      -7.1      1.869      3.379
  Name = 
  4 active torsions:
  status: ('A' for Active; 'I' for Inactive)
    1  A    between atoms: C_6  and  C_15
    2  A    between atoms: C_6  and  C_23
    3  A    between atoms: C_12  and  C_21
    4  A    between atoms: C_15  and  C_21
                            x       y       z     vdW  Elec       q    Type
                         _______ _______ _______ _____ _____    ______ ____

>  <TORSDO>
F 4

$$$$
=
 OpenBabel11052417293D

 25 28  0  0  1  0  0  0  0  0999 V2000
  189.2570  176.2020  144.4390 C   0  0  0  0  0  0  0  0  0  0  0  0
  187.8530  176.5550  144.5940 C   0  0  0  0  0  0  0  0  0  0  0  0
  187.2970  175.6500  142.3460 C   0  0  0  0  0  2  0  0  0  0  0  0
  187.1800  177.1620  145.6300 C   0  0  0  0  0  0  0  0  0  0  0  0
  185.2480  178.2910  147.2520 C   0  0  0  0  0  3  0  0  0  0  0  0
  188.7330  175.3270  142.2450 N   0  0  0  0  0  0  0  0  0  0  0  0
  185.8770  177.2330  145.2000 C   0  0  0  0  0  0  0  0  0  0  0  0
  184.8760  177.7930  145.9880 C   0  0  0  0  0  3  0  0  0  0  0  0
  191.0080  175.2030  142.9650 N   0  0  0  0  0  0  0  0  0  0  0  0
  191.4560  174.5710  141.7350 C   0  0  0  0  0  1  0  0  0  0  0  0
  190.1840  176.4360  145.3720 C   0  0  0  0  0  3  0  0  0  0  0  0
  186.5910  178.2160  147.6910 C   0  0  0  0  0  3  0  0  0  0  0  0
  186.9660  176.2950  143.6170 N   0  0  0  0  0  0  0  0  0  0  0  0
  185.7500  176.7000  143.9680 N   0  0  0  0  0  0  0  0  0  0  0  0
  191.9690  175.4760  143.9970 C   0  0  0  0  0  3  0  0  0  0  0  0
  187.5830  177.6430  146.8730 C   0  0  0  0  0  3  0  0  0  0  0  0
  191.5940  176.0550  145.1460 C   0  0  0  0  0  0  0  0  0  0  0  0
  189.6310  175.5610  143.1670 C   0  0  0  0  0  0  0  0  0  0  0  0
  192.6140  176.3440  146.1960 C   0  0  0  0  0  2  0  0  0  0  0  0
  194.0160  176.3420  145.6080 C   0  0  1  0  0  3  0  0  0  0  0  0
  194.6380  177.6400  145.8190 N   0  0  0  0  0  1  0  0  0  0  0  0
  194.8390  175.2580  146.2860 C   0  0  0  0  0  2  0  0  0  0  0  0
  196.7950  173.7230  146.0890 C   0  0  0  0  0  1  0  0  0  0  0  0
  195.3170  174.1000  144.2120 N   0  0  0  0  0  1  0  0  0  0  0  0
  195.9290  174.7360  145.3640 C   0  0  1  0  0  3  0  0  0  0  0  0
  1  2  1  0  0  0  0
  1 11  2  0  0  0  0
  2  4  2  0  0  0  0
  3 13  1  0  0  0  0
  4 16  1  0  0  0  0
  5 12  1  0  0  0  0
  6  3  1  0  0  0  0
  6 18  2  0  0  0  0
  7  4  1  0  0  0  0
  7  8  1  0  0  0  0
  8  5  2  0  0  0  0
  9 18  1  0  0  0  0
  9 15  1  0  0  0  0
 10  9  1  0  0  0  0
 13 14  1  0  0  0  0
 13  2  1  0  0  0  0
 14  7  2  0  0  0  0
 15 17  2  0  0  0  0
 16 12  2  0  0  0  0
 17 11  1  0  0  0  0
 17 19  1  0  0  0  0
 18  1  1  0  0  0  0
 20 21  1  1  0  0  0
 20 19  1  0  0  0  0
 20 22  1  0  0  0  0
 24 25  1  0  0  0  0
 25 23  1  1  0  0  0
 25 22  1  0  0  0  0
M  END
>  <MODEL>
4

>  <REMARK>
 VINA RESULT:      -7.0      1.767      2.374
  Name = 
  4 active torsions:
  status: ('A' for Active; 'I' for Inactive)
    1  A    between atoms: C_6  and  C_15
    2  A    between atoms: C_6  and  C_23
    3  A    between atoms: C_12  and  C_21
    4  A    between atoms: C_15  and  C_21
                            x       y       z     vdW  Elec       q    Type
                         _______ _______ _______ _____ _____    ______ ____

>  <TORSDO>
F 4

$$$$
=
 OpenBabel11052417293D

 25 28  0  0  1  0  0  0  0  0999 V2000
  188.4960  176.9260  143.4860 C   0  0  0  0  0  0  0  0  0  0  0  0
  189.5940  176.1810  144.0870 C   0  0  0  0  0  0  0  0  0  0  0  0
  189.9670  174.8920  141.9940 C   0  0  0  0  0  2  0  0  0  0  0  0
  190.1450  176.2370  145.3470 C   0  0  0  0  0  0  0  0  0  0  0  0
  191.6890  175.8150  147.5990 C   0  0  0  0  0  3  0  0  0  0  0  0
  188.8400  175.6720  141.4450 N   0  0  0  0  0  0  0  0  0  0  0  0
  191.1460  175.2970  145.3270 C   0  0  0  0  0  0  0  0  0  0  0  0
  191.9450  175.0560  146.4410 C   0  0  0  0  0  3  0  0  0  0  0  0
  187.0840  177.2930  141.4590 N   0  0  0  0  0  0  0  0  0  0  0  0
  186.6960  177.0140  140.0860 C   0  0  0  0  0  1  0  0  0  0  0  0
  187.8000  177.8650  144.1330 C   0  0  0  0  0  3  0  0  0  0  0  0
  190.6570  176.7820  147.6150 C   0  0  0  0  0  3  0  0  0  0  0  0
  190.2570  175.2460  143.3840 N   0  0  0  0  0  0  0  0  0  0  0  0
  191.2120  174.6930  144.1230 N   0  0  0  0  0  0  0  0  0  0  0  0
  186.3640  178.2920  142.1970 C   0  0  0  0  0  3  0  0  0  0  0  0
  189.8630  177.0050  146.4740 C   0  0  0  0  0  3  0  0  0  0  0  0
  186.6940  178.5800  143.4630 C   0  0  0  0  0  0  0  0  0  0  0  0
  188.1670  176.5890  142.0910 C   0  0  0  0  0  0  0  0  0  0  0  0
  185.9190  179.6110  144.2130 C   0  0  0  0  0  2  0  0  0  0  0  0
  184.6580  179.0120  144.8160 C   0  0  1  0  0  3  0  0  0  0  0  0
  183.5840  179.0410  143.8350 N   0  0  0  0  0  1  0  0  0  0  0  0
  184.9390  177.5780  145.2340 C   0  0  0  0  0  2  0  0  0  0  0  0
  186.3210  177.1460  147.2640 C   0  0  0  0  0  1  0  0  0  0  0  0
  184.4410  178.6660  147.3420 N   0  0  0  0  0  1  0  0  0  0  0  0
  184.9240  177.4330  146.7470 C   0  0  1  0  0  3  0  0  0  0  0  0
  1  2  1  0  0  0  0
  1 11  2  0  0  0  0
  2  4  2  0  0  0  0
  3 13  1  0  0  0  0
  4 16  1  0  0  0  0
  5 12  1  0  0  0  0
  6  3  1  0  0  0  0
  6 18  2  0  0  0  0
  7  4  1  0  0  0  0
  7  8  1  0  0  0  0
  8  5  2  0  0  0  0
  9 18  1  0  0  0  0
  9 15  1  0  0  0  0
 10  9  1  0  0  0  0
 13  2  1  0  0  0  0
 13 14  1  0  0  0  0
 14  7  2  0  0  0  0
 15 17  2  0  0  0  0
 16 12  2  0  0  0  0
 17 11  1  0  0  0  0
 17 19  1  0  0  0  0
 18  1  1  0  0  0  0
 19 20  1  0  0  0  0
 20 21  1  6  0  0  0
 20 22  1  0  0  0  0
 22 25  1  0  0  0  0
 25 23  1  1  0  0  0
 25 24  1  0  0  0  0
M  END
>  <MODEL>
5

>  <REMARK>
 VINA RESULT:      -6.9      1.845      6.188
  Name = 
  4 active torsions:
  status: ('A' for Active; 'I' for Inactive)
    1  A    between atoms: C_6  and  C_15
    2  A    between atoms: C_6  and  C_23
    3  A    between atoms: C_12  and  C_21
    4  A    between atoms: C_15  and  C_21
                            x       y       z     vdW  Elec       q    Type
                         _______ _______ _______ _____ _____    ______ ____

>  <TORSDO>
F 4

$$$$
=
 OpenBabel11052417293D

 25 28  0  0  1  0  0  0  0  0999 V2000
  186.8010  177.8450  144.6700 C   0  0  0  0  0  0  0  0  0  0  0  0
  185.9680  177.9970  143.4860 C   0  0  0  0  0  0  0  0  0  0  0  0
  184.0880  178.9150  144.8300 C   0  0  0  0  0  2  0  0  0  0  0  0
  186.2140  177.7110  142.1620 C   0  0  0  0  0  0  0  0  0  0  0  0
  186.0120  177.3910  139.4250 C   0  0  0  0  0  3  0  0  0  0  0  0
  184.9770  178.7270  145.9930 N   0  0  0  0  0  0  0  0  0  0  0  0
  185.0560  178.0610  141.5130 C   0  0  0  0  0  0  0  0  0  0  0  0
  184.9160  177.9150  140.1360 C   0  0  0  0  0  3  0  0  0  0  0  0
  186.9770  178.1130  147.1470 N   0  0  0  0  0  0  0  0  0  0  0  0
  186.4480  178.4880  148.4480 C   0  0  0  0  0  1  0  0  0  0  0  0
  188.0460  177.3630  144.6400 C   0  0  0  0  0  3  0  0  0  0  0  0
  187.2040  177.0310  140.0980 C   0  0  0  0  0  3  0  0  0  0  0  0
  184.7200  178.4890  143.5800 N   0  0  0  0  0  0  0  0  0  0  0  0
  184.1430  178.5380  142.3840 N   0  0  0  0  0  0  0  0  0  0  0  0
  188.3110  177.5870  147.0640 C   0  0  0  0  0  3  0  0  0  0  0  0
  187.3170  177.1890  141.4920 C   0  0  0  0  0  3  0  0  0  0  0  0
  188.8350  177.2320  145.8840 C   0  0  0  0  0  0  0  0  0  0  0  0
  186.1950  178.2530  145.9490 C   0  0  0  0  0  0  0  0  0  0  0  0
  190.2170  176.6720  145.8260 C   0  0  0  0  0  2  0  0  0  0  0  0
  190.3420  175.4380  146.7060 C   0  0  1  0  0  3  0  0  0  0  0  0
  190.0490  174.2470  145.9240 N   0  0  0  0  0  1  0  0  0  0  0  0
  191.7570  175.3620  147.2560 C   0  0  0  0  0  2  0  0  0  0  0  0
  193.8150  176.6080  146.6010 C   0  0  0  0  0  1  0  0  0  0  0  0
  193.4570  174.3310  145.8690 N   0  0  0  0  0  1  0  0  0  0  0  0
  192.7860  175.5860  146.1590 C   0  0  1  0  0  3  0  0  0  0  0  0
  1 18  1  0  0  0  0
  2 13  1  0  0  0  0
  2  1  1  0  0  0  0
  3  6  1  0  0  0  0
  4  2  2  0  0  0  0
  5 12  1  0  0  0  0
  5  8  2  0  0  0  0
  7  4  1  0  0  0  0
  7 14  2  0  0  0  0
  8  7  1  0  0  0  0
  9 10  1  0  0  0  0
 11  1  2  0  0  0  0
 11 17  1  0  0  0  0
 12 16  2  0  0  0  0
 13  3  1  0  0  0  0
 14 13  1  0  0  0  0
 15  9  1  0  0  0  0
 16  4  1  0  0  0  0
 17 15  2  0  0  0  0
 18  6  2  0  0  0  0
 18  9  1  0  0  0  0
 19 17  1  0  0  0  0
 19 20  1  0  0  0  0
 20 21  1  6  0  0  0
 20 22  1  0  0  0  0
 24 25  1  0  0  0  0
 25 23  1  1  0  0  0
 25 22  1  0  0  0  0
M  END
>  <MODEL>
6

>  <REMARK>
 VINA RESULT:      -6.8      2.181      4.232
  Name = 
  4 active torsions:
  status: ('A' for Active; 'I' for Inactive)
    1  A    between atoms: C_6  and  C_15
    2  A    between atoms: C_6  and  C_23
    3  A    between atoms: C_12  and  C_21
    4  A    between atoms: C_15  and  C_21
                            x       y       z     vdW  Elec       q    Type
                         _______ _______ _______ _____ _____    ______ ____

>  <TORSDO>
F 4

$$$$
=
 OpenBabel11052417293D

 25 28  0  0  1  0  0  0  0  0999 V2000
  188.2600  177.5350  144.5340 C   0  0  0  0  0  0  0  0  0  0  0  0
  186.8520  177.7600  144.2360 C   0  0  0  0  0  0  0  0  0  0  0  0
  186.2580  177.7380  146.6510 C   0  0  0  0  0  2  0  0  0  0  0  0
  186.1930  177.9130  143.0380 C   0  0  0  0  0  0  0  0  0  0  0  0
  184.2780  178.2850  141.0810 C   0  0  0  0  0  3  0  0  0  0  0  0
  187.6950  177.5000  146.8870 N   0  0  0  0  0  0  0  0  0  0  0  0
  184.8770  178.0910  143.3890 C   0  0  0  0  0  0  0  0  0  0  0  0
  183.8840  178.2820  142.4330 C   0  0  0  0  0  3  0  0  0  0  0  0
  189.9880  177.1750  146.3010 N   0  0  0  0  0  0  0  0  0  0  0  0
  190.4140  177.0330  147.6830 C   0  0  0  0  0  1  0  0  0  0  0  0
  189.2060  177.4380  143.5970 C   0  0  0  0  0  3  0  0  0  0  0  0
  185.6340  178.1010  140.7240 C   0  0  0  0  0  3  0  0  0  0  0  0
  185.9450  177.8480  145.2250 N   0  0  0  0  0  0  0  0  0  0  0  0
  184.7290  178.0520  144.7290 N   0  0  0  0  0  0  0  0  0  0  0  0
  190.9690  177.0760  145.2570 C   0  0  0  0  0  3  0  0  0  0  0  0
  186.6180  177.9100  141.7120 C   0  0  0  0  0  3  0  0  0  0  0  0
  190.6170  177.2040  143.9710 C   0  0  0  0  0  0  0  0  0  0  0  0
  188.6110  177.4070  145.9590 C   0  0  0  0  0  0  0  0  0  0  0  0
  191.6520  177.0800  142.9040 C   0  0  0  0  0  2  0  0  0  0  0  0
  192.4430  175.7900  143.0590 C   0  0  1  0  0  3  0  0  0  0  0  0
  192.1610  174.9040  141.9410 N   0  0  0  0  0  1  0  0  0  0  0  0
  193.9270  176.1180  143.0980 C   0  0  0  0  0  2  0  0  0  0  0  0
  194.5580  176.8520  145.3960 C   0  0  0  0  0  1  0  0  0  0  0  0
  193.7790  174.6000  144.9820 N   0  0  0  0  0  1  0  0  0  0  0  0
  194.5500  175.6930  144.4180 C   0  0  1  0  0  3  0  0  0  0  0  0
  1 18  1  0  0  0  0
  2  1  1  0  0  0  0
  2 13  1  0  0  0  0
  3  6  1  0  0  0  0
  4  7  1  0  0  0  0
  4  2  2  0  0  0  0
  5  8  2  0  0  0  0
  7 14  2  0  0  0  0
  8  7  1  0  0  0  0
  9 10  1  0  0  0  0
 11 17  1  0  0  0  0
 11  1  2  0  0  0  0
 12  5  1  0  0  0  0
 12 16  2  0  0  0  0
 13  3  1  0  0  0  0
 14 13  1  0  0  0  0
 15  9  1  0  0  0  0
 16  4  1  0  0  0  0
 17 15  2  0  0  0  0
 18  9  1  0  0  0  0
 18  6  2  0  0  0  0
 19 20  1  0  0  0  0
 19 17  1  0  0  0  0
 20 21  1  6  0  0  0
 20 22  1  0  0  0  0
 22 25  1  0  0  0  0
 25 24  1  0  0  0  0
 25 23  1  1  0  0  0
M  END
>  <MODEL>
7

>  <REMARK>
 VINA RESULT:      -6.7      2.238      3.876
  Name = 
  4 active torsions:
  status: ('A' for Active; 'I' for Inactive)
    1  A    between atoms: C_6  and  C_15
    2  A    between atoms: C_6  and  C_23
    3  A    between atoms: C_12  and  C_21
    4  A    between atoms: C_15  and  C_21
                            x       y       z     vdW  Elec       q    Type
                         _______ _______ _______ _____ _____    ______ ____

>  <TORSDO>
F 4

$$$$
=
 OpenBabel11052417293D

 25 28  0  0  1  0  0  0  0  0999 V2000
  188.5800  177.3800  144.8140 C   0  0  0  0  0  0  0  0  0  0  0  0
  187.1830  177.6950  144.5520 C   0  0  0  0  0  0  0  0  0  0  0  0
  186.6860  177.8690  146.9830 C   0  0  0  0  0  2  0  0  0  0  0  0
  186.4880  177.8240  143.3710 C   0  0  0  0  0  0  0  0  0  0  0  0
  184.5290  178.2230  141.4630 C   0  0  0  0  0  3  0  0  0  0  0  0
  188.1100  177.5360  147.1820 N   0  0  0  0  0  0  0  0  0  0  0  0
  185.2050  178.1260  143.7570 C   0  0  0  0  0  0  0  0  0  0  0  0
  184.1910  178.3340  142.8260 C   0  0  0  0  0  3  0  0  0  0  0  0
  190.3470  176.9970  146.5370 N   0  0  0  0  0  0  0  0  0  0  0  0
  190.8160  176.9090  147.9100 C   0  0  0  0  0  1  0  0  0  0  0  0
  189.4770  177.1520  143.8510 C   0  0  0  0  0  3  0  0  0  0  0  0
  185.8520  177.9120  141.0700 C   0  0  0  0  0  3  0  0  0  0  0  0
  186.3250  177.9150  145.5650 N   0  0  0  0  0  0  0  0  0  0  0  0
  185.1090  178.1820  145.1010 N   0  0  0  0  0  0  0  0  0  0  0  0
  191.2740  176.7570  145.4680 C   0  0  0  0  0  3  0  0  0  0  0  0
  186.8580  177.7060  142.0330 C   0  0  0  0  0  3  0  0  0  0  0  0
  190.8810  176.8320  144.1890 C   0  0  0  0  0  0  0  0  0  0  0  0
  188.9790  177.3140  146.2300 C   0  0  0  0  0  0  0  0  0  0  0  0
  191.8600  176.5620  143.0960 C   0  0  0  0  0  2  0  0  0  0  0  0
  191.6320  175.1870  142.4880 C   0  0  1  0  0  3  0  0  0  0  0  0
  192.6330  174.9310  141.4650 N   0  0  0  0  0  1  0  0  0  0  0  0
  191.7300  174.1370  143.5830 C   0  0  0  0  0  2  0  0  0  0  0  0
  189.8660  173.2880  145.0050 C   0  0  0  0  0  1  0  0  0  0  0  0
  189.5210  173.7640  142.6590 N   0  0  0  0  0  1  0  0  0  0  0  0
  190.4860  173.2640  143.6210 C   0  0  1  0  0  3  0  0  0  0  0  0
  1 18  1  0  0  0  0
  2  1  1  0  0  0  0
  2 13  1  0  0  0  0
  3  6  1  0  0  0  0
  4  7  1  0  0  0  0
  4  2  2  0  0  0  0
  5  8  2  0  0  0  0
  7 14  2  0  0  0  0
  8  7  1  0  0  0  0
  9 10  1  0  0  0  0
 11 17  1  0  0  0  0
 11  1  2  0  0  0  0
 12  5  1  0  0  0  0
 12 16  2  0  0  0  0
 13  3  1  0  0  0  0
 14 13  1  0  0  0  0
 15  9  1  0  0  0  0
 16  4  1  0  0  0  0
 17 15  2  0  0  0  0
 18  9  1  0  0  0  0
 18  6  2  0  0  0  0
 19 17  1  0  0  0  0
 20 21  1  6  0  0  0
 20 19  1  0  0  0  0
 20 22  1  0  0  0  0
 22 25  1  0  0  0  0
 24 25  1  0  0  0  0
 25 23  1  1  0  0  0
M  END
>  <MODEL>
8

>  <REMARK>
 VINA RESULT:      -6.6      2.044      4.310
  Name = 
  4 active torsions:
  status: ('A' for Active; 'I' for Inactive)
    1  A    between atoms: C_6  and  C_15
    2  A    between atoms: C_6  and  C_23
    3  A    between atoms: C_12  and  C_21
    4  A    between atoms: C_15  and  C_21
                            x       y       z     vdW  Elec       q    Type
                         _______ _______ _______ _____ _____    ______ ____

>  <TORSDO>
F 4

$$$$
=
 OpenBabel11052417293D

 25 28  0  0  1  0  0  0  0  0999 V2000
  187.8000  176.0340  142.8010 C   0  0  0  0  0  0  0  0  0  0  0  0
  186.9590  177.1160  143.2910 C   0  0  0  0  0  0  0  0  0  0  0  0
  186.1500  177.6320  140.9970 C   0  0  0  0  0  2  0  0  0  0  0  0
  186.7550  177.6010  144.5630 C   0  0  0  0  0  0  0  0  0  0  0  0
  185.8910  179.0410  146.7570 C   0  0  0  0  0  3  0  0  0  0  0  0
  187.0310  176.5300  140.5610 N   0  0  0  0  0  0  0  0  0  0  0  0
  185.8580  178.6280  144.4010 C   0  0  0  0  0  0  0  0  0  0  0  0
  185.3990  179.3770  145.4810 C   0  0  0  0  0  3  0  0  0  0  0  0
  188.5990  174.7460  140.8160 N   0  0  0  0  0  0  0  0  0  0  0  0
  188.6350  174.4550  139.3920 C   0  0  0  0  0  1  0  0  0  0  0  0
  188.5670  175.2790  143.5920 C   0  0  0  0  0  3  0  0  0  0  0  0
  186.8140  177.9820  146.9200 C   0  0  0  0  0  3  0  0  0  0  0  0
  186.2080  177.8430  142.4440 N   0  0  0  0  0  0  0  0  0  0  0  0
  185.5250  178.7730  143.1020 N   0  0  0  0  0  0  0  0  0  0  0  0
  189.4090  173.9630  141.7060 C   0  0  0  0  0  3  0  0  0  0  0  0
  187.2620  177.2420  145.8090 C   0  0  0  0  0  3  0  0  0  0  0  0
  189.4010  174.1980  143.0250 C   0  0  0  0  0  0  0  0  0  0  0  0
  187.7780  175.7990  141.3470 C   0  0  0  0  0  0  0  0  0  0  0  0
  190.2640  173.3820  143.9280 C   0  0  0  0  0  2  0  0  0  0  0  0
  191.3120  174.2470  144.6090 C   0  0  1  0  0  3  0  0  0  0  0  0
  192.3330  173.4020  145.2080 N   0  0  0  0  0  1  0  0  0  0  0  0
  191.9440  175.1680  143.5770 C   0  0  0  0  0  2  0  0  0  0  0  0
  191.4280  177.5680  143.1380 C   0  0  0  0  0  1  0  0  0  0  0  0
  191.3840  176.6800  145.3870 N   0  0  0  0  0  1  0  0  0  0  0  0
  192.0620  176.5890  144.1070 C   0  0  1  0  0  3  0  0  0  0  0  0
  1  2  1  0  0  0  0
  1 11  2  0  0  0  0
  2  4  2  0  0  0  0
  3 13  1  0  0  0  0
  4 16  1  0  0  0  0
  5 12  1  0  0  0  0
  6  3  1  0  0  0  0
  6 18  2  0  0  0  0
  7  4  1  0  0  0  0
  7  8  1  0  0  0  0
  8  5  2  0  0  0  0
  9 18  1  0  0  0  0
  9 15  1  0  0  0  0
 10  9  1  0  0  0  0
 13 14  1  0  0  0  0
 13  2  1  0  0  0  0
 14  7  2  0  0  0  0
 15 17  2  0  0  0  0
 16 12  2  0  0  0  0
 17 11  1  0  0  0  0
 17 19  1  0  0  0  0
 18  1  1  0  0  0  0
 19 20  1  0  0  0  0
 20 21  1  6  0  0  0
 22 25  1  0  0  0  0
 22 20  1  0  0  0  0
 25 23  1  6  0  0  0
 25 24  1  0  0  0  0
M  END
>  <MODEL>
9

>  <REMARK>
 VINA RESULT:      -6.5      1.688      2.087
  Name = 
  4 active torsions:
  status: ('A' for Active; 'I' for Inactive)
    1  A    between atoms: C_6  and  C_15
    2  A    between atoms: C_6  and  C_23
    3  A    between atoms: C_12  and  C_21
    4  A    between atoms: C_15  and  C_21
                            x       y       z     vdW  Elec       q    Type
                         _______ _______ _______ _____ _____    ______ ____

>  <TORSDO>
F 4

$$$$
