=
 OpenBabel11052419553D

 37 42  0  0  1  0  0  0  0  0999 V2000
  192.4420  173.0500  139.7310 C   0  0  0  0  0  0  0  0  0  0  0  0
  190.7510  173.7820  142.4350 C   0  0  0  0  0  0  0  0  0  0  0  0
  190.9350  171.4240  140.7850 O   0  0  0  0  0  0  0  0  0  0  0  0
  190.6630  175.0410  142.8880 C   0  0  0  0  0  3  0  0  0  0  0  0
  192.1240  173.1550  142.1710 C   0  0  2  0  0  3  0  0  0  0  0  0
  189.4190  175.7220  143.3830 C   0  0  1  0  0  3  0  0  0  0  0  0
  190.6690  170.7720  141.9980 C   0  0  0  0  0  2  0  0  0  0  0  0
  193.2610  174.0950  141.7530 C   0  0  1  0  0  3  0  0  0  0  0  0
  191.2100  173.4320  138.9270 C   0  0  0  0  0  1  0  0  0  0  0  0
  188.4440  173.3590  141.5350 C   0  0  0  0  0  2  0  0  0  0  0  0
  189.6090  171.5500  142.7780 C   0  0  0  0  0  2  0  0  0  0  0  0
  193.0910  174.3210  140.2610 C   0  0  0  0  0  2  0  0  0  0  0  0
  189.5690  172.9550  142.3710 N   0  0  0  0  0  0  0  0  0  0  0  0
  192.1060  172.1950  140.9630 C   0  0  2  0  0  3  0  0  0  0  0  0
  188.2950  175.7240  142.3410 C   0  0  1  0  0  3  0  0  0  0  0  0
  193.4180  172.3070  138.8420 C   0  0  0  0  0  1  0  0  0  0  0  0
  187.5720  174.3840  142.2380 C   0  0  0  0  0  2  0  0  0  0  0  0
  194.6850  176.2370  142.0320 C   0  0  0  0  0  2  0  0  0  0  0  0
  196.1180  175.6250  142.0440 C   0  0  1  0  0  3  0  0  0  0  0  0
  195.9080  175.6730  144.5910 C   0  0  2  0  0  0  0  0  0  0  0  0
  196.8580  175.6000  143.4070 C   0  0  0  0  0  2  0  0  0  0  0  0
  195.6660  174.6940  145.7240 C   0  0  0  0  0  2  0  0  0  0  0  0
  193.5970  175.0600  144.0970 C   0  0  0  0  0  2  0  0  0  0  0  0
  194.9610  174.4790  144.4040 C   0  0  1  0  0  3  0  0  0  0  0  0
  195.3050  176.9190  144.8150 O   0  0  0  0  0  1  0  0  0  0  0  0
  193.5210  175.3610  142.5840 C   0  0  2  0  0  3  0  0  0  0  0  0
  196.1460  174.3620  141.4500 O   0  0  0  0  0  0  0  0  0  0  0  0
  196.6900  174.5600  140.2680 O   0  0  0  0  0  1  0  0  0  0  0  0
  187.4210  177.6690  143.7070 C   0  0  0  0  0  3  0  0  0  0  0  0
  187.3390  176.8550  142.5650 C   0  0  0  0  0  0  0  0  0  0  0  0
  186.3640  177.1220  141.5970 C   0  0  0  0  0  3  0  0  0  0  0  0
  184.2550  178.5090  140.5560 Cl  0  0  0  0  0  0  0  0  0  0  0  0
  185.5520  178.9870  142.9120 C   0  0  0  0  0  3  0  0  0  0  0  0
  185.4710  178.1840  141.7710 C   0  0  0  0  0  0  0  0  0  0  0  0
  186.5270  178.7300  143.8790 C   0  0  0  0  0  3  0  0  0  0  0  0
  188.9830  175.1810  144.7450 C   0  0  0  0  0  2  0  0  0  0  0  0
  190.1290  175.2520  145.7360 C   0  0  0  0  0  1  0  0  0  0  0  0
  1 12  1  0  0  0  0
  1 14  1  0  0  0  0
  2  4  2  0  0  0  0
  3  7  1  0  0  0  0
  4  6  1  0  0  0  0
  5  2  1  6  0  0  0
  6 36  1  1  0  0  0
  7 11  1  0  0  0  0
  8 12  1  6  0  0  0
  8  5  1  0  0  0  0
  8 26  1  0  0  0  0
  9  1  1  0  0  0  0
 10 17  1  0  0  0  0
 10 13  1  0  0  0  0
 13  2  1  0  0  0  0
 13 11  1  0  0  0  0
 14  3  1  6  0  0  0
 14  5  1  0  0  0  0
 15 30  1  1  0  0  0
 15  6  1  0  0  0  0
 16  1  1  0  0  0  0
 17 15  1  0  0  0  0
 18 19  1  0  0  0  0
 19 27  1  1  0  0  0
 19 21  1  0  0  0  0
 20 25  1  1  0  0  0
 20 22  1  0  0  0  0
 21 20  1  0  0  0  0
 24 23  1  1  0  0  0
 24 20  1  0  0  0  0
 24 22  1  0  0  0  0
 26 18  1  6  0  0  0
 26 23  1  0  0  0  0
 28 27  1  0  0  0  0
 29 35  1  0  0  0  0
 30 29  2  0  0  0  0
 31 34  2  0  0  0  0
 31 30  1  0  0  0  0
 32 34  1  0  0  0  0
 33 35  2  0  0  0  0
 34 33  1  0  0  0  0
 36 37  1  0  0  0  0
M  END
>  <MODEL>
1

>  <REMARK>
 VINA RESULT:      -7.5      0.000      0.000
  Name = 
  4 active torsions:
  status: ('A' for Active; 'I' for Inactive)
    1  A    between atoms: C_5  and  O_12
    2  A    between atoms: C_6  and  C_31
    3  A    between atoms: C_7  and  C_14
    4  A    between atoms: C_20  and  C_36
                            x       y       z     vdW  Elec       q    Type
                         _______ _______ _______ _____ _____    ______ ____

>  <TORSDO>
F 4

$$$$
=
 OpenBabel11052419553D

 37 42  0  0  1  0  0  0  0  0999 V2000
  193.0890  172.7830  143.9470 C   0  0  0  0  0  0  0  0  0  0  0  0
  191.2370  175.3630  143.1570 C   0  0  0  0  0  0  0  0  0  0  0  0
  194.0050  175.0600  143.9090 O   0  0  0  0  0  0  0  0  0  0  0  0
  189.9030  175.2660  143.0670 C   0  0  0  0  0  3  0  0  0  0  0  0
  192.1310  174.4060  142.3620 C   0  0  2  0  0  3  0  0  0  0  0  0
  188.9020  176.2440  143.6150 C   0  0  1  0  0  3  0  0  0  0  0  0
  194.1660  176.1850  143.0870 C   0  0  0  0  0  2  0  0  0  0  0  0
  191.5820  173.0050  142.0670 C   0  0  1  0  0  3  0  0  0  0  0  0
  192.7990  173.0940  145.4060 C   0  0  0  0  0  1  0  0  0  0  0  0
  191.5500  176.6830  145.2710 C   0  0  0  0  0  2  0  0  0  0  0  0
  193.0100  177.1600  143.3170 C   0  0  0  0  0  2  0  0  0  0  0  0
  191.8380  172.1840  143.3190 C   0  0  0  0  0  2  0  0  0  0  0  0
  191.8330  176.4770  143.8550 N   0  0  0  0  0  0  0  0  0  0  0  0
  193.4210  174.0390  143.1260 C   0  0  2  0  0  3  0  0  0  0  0  0
  189.0620  176.4650  145.1230 C   0  0  1  0  0  3  0  0  0  0  0  0
  194.2340  171.7940  143.8560 C   0  0  0  0  0  1  0  0  0  0  0  0
  190.2230  177.3910  145.4730 C   0  0  0  0  0  2  0  0  0  0  0  0
  189.7510  171.3950  141.2040 C   0  0  0  0  0  2  0  0  0  0  0  0
  190.5570  170.5930  140.1390 C   0  0  1  0  0  3  0  0  0  0  0  0
  189.6080  172.2590  138.4490 C   0  0  2  0  0  0  0  0  0  0  0  0
  190.2420  170.8930  138.6500 C   0  0  0  0  0  2  0  0  0  0  0  0
  190.0860  173.4610  137.6550 C   0  0  0  0  0  2  0  0  0  0  0  0
  189.9490  173.8330  140.2830 C   0  0  0  0  0  2  0  0  0  0  0  0
  190.6140  173.2480  139.0560 C   0  0  1  0  0  3  0  0  0  0  0  0
  188.2770  172.3830  138.8710 O   0  0  0  0  0  1  0  0  0  0  0  0
  190.1730  172.8710  141.4700 C   0  0  2  0  0  3  0  0  0  0  0  0
  191.9320  170.6640  140.3710 O   0  0  0  0  0  0  0  0  0  0  0  0
  192.4820  170.2360  139.2530 O   0  0  0  0  0  1  0  0  0  0  0  0
  186.5380  176.4230  145.3240 C   0  0  0  0  0  3  0  0  0  0  0  0
  187.7800  176.9190  145.7520 C   0  0  0  0  0  0  0  0  0  0  0  0
  187.8290  177.8340  146.8090 C   0  0  0  0  0  3  0  0  0  0  0  0
  186.7210  179.4060  148.7480 Cl  0  0  0  0  0  0  0  0  0  0  0  0
  185.4150  177.7700  146.9940 C   0  0  0  0  0  3  0  0  0  0  0  0
  186.6500  178.2600  147.4280 C   0  0  0  0  0  0  0  0  0  0  0  0
  185.3590  176.8510  145.9430 C   0  0  0  0  0  3  0  0  0  0  0  0
  188.8830  177.5430  142.8100 C   0  0  0  0  0  2  0  0  0  0  0  0
  187.9370  177.4230  141.6310 C   0  0  0  0  0  1  0  0  0  0  0  0
  1  9  1  0  0  0  0
  2 13  1  0  0  0  0
  4  2  2  0  0  0  0
  4  6  1  0  0  0  0
  5 14  1  0  0  0  0
  5  2  1  1  0  0  0
  6 36  1  6  0  0  0
  6 15  1  0  0  0  0
  7 11  1  0  0  0  0
  7  3  1  0  0  0  0
  8  5  1  0  0  0  0
  8 12  1  1  0  0  0
 10 17  1  0  0  0  0
 11 13  1  0  0  0  0
 12  1  1  0  0  0  0
 13 10  1  0  0  0  0
 14  3  1  1  0  0  0
 14  1  1  0  0  0  0
 15 17  1  0  0  0  0
 15 30  1  6  0  0  0
 16  1  1  0  0  0  0
 18 26  1  0  0  0  0
 19 27  1  6  0  0  0
 19 18  1  0  0  0  0
 20 21  1  0  0  0  0
 20 25  1  1  0  0  0
 20 24  1  0  0  0  0
 21 19  1  0  0  0  0
 22 20  1  0  0  0  0
 24 22  1  6  0  0  0
 24 23  1  0  0  0  0
 26 23  1  6  0  0  0
 26  8  1  0  0  0  0
 28 27  1  0  0  0  0
 29 30  2  0  0  0  0
 29 35  1  0  0  0  0
 30 31  1  0  0  0  0
 31 34  2  0  0  0  0
 33 34  1  0  0  0  0
 34 32  1  0  0  0  0
 35 33  2  0  0  0  0
 37 36  1  0  0  0  0
M  END
>  <MODEL>
2

>  <REMARK>
 VINA RESULT:      -7.3      2.595      5.705
  Name = 
  4 active torsions:
  status: ('A' for Active; 'I' for Inactive)
    1  A    between atoms: C_5  and  O_12
    2  A    between atoms: C_6  and  C_31
    3  A    between atoms: C_7  and  C_14
    4  A    between atoms: C_20  and  C_36
                            x       y       z     vdW  Elec       q    Type
                         _______ _______ _______ _____ _____    ______ ____

>  <TORSDO>
F 4

$$$$
=
 OpenBabel11052419553D

 37 42  0  0  1  0  0  0  0  0999 V2000
  196.2270  174.3780  144.4100 C   0  0  0  0  0  0  0  0  0  0  0  0
  193.1430  173.9970  143.3840 C   0  0  0  0  0  0  0  0  0  0  0  0
  195.4560  175.3170  142.2770 O   0  0  0  0  0  0  0  0  0  0  0  0
  192.1860  173.5300  144.1980 C   0  0  0  0  0  3  0  0  0  0  0  0
  194.4400  173.2040  143.1900 C   0  0  2  0  0  3  0  0  0  0  0  0
  190.7930  174.0770  144.3370 C   0  0  1  0  0  3  0  0  0  0  0  0
  194.8490  174.9730  141.0610 C   0  0  0  0  0  2  0  0  0  0  0  0
  194.9230  172.3410  144.3620 C   0  0  1  0  0  3  0  0  0  0  0  0
  195.8110  175.7290  144.9730 C   0  0  0  0  0  1  0  0  0  0  0  0
  192.5400  176.4250  143.1630 C   0  0  0  0  0  2  0  0  0  0  0  0
  193.3380  175.1890  141.1610 C   0  0  0  0  0  2  0  0  0  0  0  0
  195.6550  173.2840  145.3010 C   0  0  0  0  0  2  0  0  0  0  0  0
  192.8830  175.1460  142.5500 N   0  0  0  0  0  0  0  0  0  0  0  0
  195.6650  174.1220  143.0030 C   0  0  2  0  0  3  0  0  0  0  0  0
  190.7800  175.5620  144.7180 C   0  0  1  0  0  3  0  0  0  0  0  0
  197.7380  174.2820  144.3850 C   0  0  0  0  0  1  0  0  0  0  0  0
  191.0710  176.4850  143.5380 C   0  0  0  0  0  2  0  0  0  0  0  0
  194.5780  170.4970  146.1420 C   0  0  0  0  0  2  0  0  0  0  0  0
  195.6670  169.4720  145.7040 C   0  0  1  0  0  3  0  0  0  0  0  0
  193.7820  168.3110  144.4250 C   0  0  2  0  0  0  0  0  0  0  0  0
  195.1680  168.1660  145.0300 C   0  0  0  0  0  2  0  0  0  0  0  0
  193.3110  168.1660  142.9900 C   0  0  0  0  0  2  0  0  0  0  0  0
  193.0750  170.6100  144.0070 C   0  0  0  0  0  2  0  0  0  0  0  0
  193.9080  169.4800  143.4380 C   0  0  1  0  0  3  0  0  0  0  0  0
  192.7200  168.3770  145.3390 O   0  0  0  0  0  1  0  0  0  0  0  0
  193.9300  171.3820  145.0350 C   0  0  2  0  0  3  0  0  0  0  0  0
  196.6600  170.0730  144.9280 O   0  0  0  0  0  0  0  0  0  0  0  0
  197.5820  170.4410  145.7930 O   0  0  0  0  0  1  0  0  0  0  0  0
  189.1180  175.3110  146.6110 C   0  0  0  0  0  3  0  0  0  0  0  0
  189.5110  175.9390  145.4180 C   0  0  0  0  0  0  0  0  0  0  0  0
  188.7190  176.9620  144.8850 C   0  0  0  0  0  3  0  0  0  0  0  0
  186.5560  178.6290  144.8540 Cl  0  0  0  0  0  0  0  0  0  0  0  0
  187.1490  176.7170  146.7120 C   0  0  0  0  0  3  0  0  0  0  0  0
  187.5400  177.3500  145.5290 C   0  0  0  0  0  0  0  0  0  0  0  0
  187.9380  175.6990  147.2540 C   0  0  0  0  0  3  0  0  0  0  0  0
  189.9360  173.7570  143.1130 C   0  0  0  0  0  2  0  0  0  0  0  0
  189.2860  172.3940  143.2620 C   0  0  0  0  0  1  0  0  0  0  0  0
  1  9  1  0  0  0  0
  1 12  1  0  0  0  0
  2  4  2  0  0  0  0
  4  6  1  0  0  0  0
  5  2  1  1  0  0  0
  5  8  1  0  0  0  0
  6 36  1  6  0  0  0
  6 15  1  0  0  0  0
  7 11  1  0  0  0  0
  7  3  1  0  0  0  0
  8 26  1  0  0  0  0
  8 12  1  1  0  0  0
 10 17  1  0  0  0  0
 11 13  1  0  0  0  0
 13 10  1  0  0  0  0
 13  2  1  0  0  0  0
 14  3  1  1  0  0  0
 14  5  1  0  0  0  0
 14  1  1  0  0  0  0
 15 30  1  6  0  0  0
 16  1  1  0  0  0  0
 17 15  1  0  0  0  0
 19 27  1  6  0  0  0
 19 18  1  0  0  0  0
 20 21  1  0  0  0  0
 20 25  1  1  0  0  0
 21 19  1  0  0  0  0
 22 20  1  0  0  0  0
 24 22  1  6  0  0  0
 24 23  1  0  0  0  0
 24 20  1  0  0  0  0
 26 23  1  6  0  0  0
 26 18  1  0  0  0  0
 27 28  1  0  0  0  0
 29 35  1  0  0  0  0
 30 29  2  0  0  0  0
 31 30  1  0  0  0  0
 31 34  2  0  0  0  0
 32 34  1  0  0  0  0
 33 35  2  0  0  0  0
 34 33  1  0  0  0  0
 36 37  1  0  0  0  0
M  END
>  <MODEL>
3

>  <REMARK>
 VINA RESULT:      -7.3      3.129      5.411
  Name = 
  4 active torsions:
  status: ('A' for Active; 'I' for Inactive)
    1  A    between atoms: C_5  and  O_12
    2  A    between atoms: C_6  and  C_31
    3  A    between atoms: C_7  and  C_14
    4  A    between atoms: C_20  and  C_36
                            x       y       z     vdW  Elec       q    Type
                         _______ _______ _______ _____ _____    ______ ____

>  <TORSDO>
F 4

$$$$
=
 OpenBabel11052419553D

 37 42  0  0  1  0  0  0  0  0999 V2000
  192.5630  173.2550  144.4180 C   0  0  0  0  0  0  0  0  0  0  0  0
  190.6580  175.6730  143.3060 C   0  0  0  0  0  0  0  0  0  0  0  0
  193.3590  175.5750  144.3120 O   0  0  0  0  0  0  0  0  0  0  0  0
  189.3440  175.4950  143.1080 C   0  0  0  0  0  3  0  0  0  0  0  0
  191.6680  174.7230  142.6540 C   0  0  2  0  0  3  0  0  0  0  0  0
  188.2490  176.4450  143.5030 C   0  0  1  0  0  3  0  0  0  0  0  0
  193.5350  176.6560  143.4350 C   0  0  0  0  0  2  0  0  0  0  0  0
  191.2200  173.2780  142.4060 C   0  0  1  0  0  3  0  0  0  0  0  0
  192.1270  173.6370  145.8240 C   0  0  0  0  0  1  0  0  0  0  0  0
  190.7120  177.1350  145.3480 C   0  0  0  0  0  2  0  0  0  0  0  0
  192.3150  177.5750  143.5010 C   0  0  0  0  0  2  0  0  0  0  0  0
  191.4050  172.5490  143.7250 C   0  0  0  0  0  2  0  0  0  0  0  0
  191.1310  176.8600  143.9780 N   0  0  0  0  0  0  0  0  0  0  0  0
  192.9010  174.4770  143.5490 C   0  0  2  0  0  3  0  0  0  0  0  0
  188.2610  176.7660  145.0010 C   0  0  1  0  0  3  0  0  0  0  0  0
  193.7600  172.3300  144.4910 C   0  0  0  0  0  1  0  0  0  0  0  0
  189.3370  177.7760  145.3890 C   0  0  0  0  0  2  0  0  0  0  0  0
  189.5660  171.5170  141.4820 C   0  0  0  0  0  2  0  0  0  0  0  0
  190.5070  170.7120  140.5350 C   0  0  1  0  0  3  0  0  0  0  0  0
  189.6190  172.2290  138.6800 C   0  0  2  0  0  0  0  0  0  0  0  0
  190.3080  170.9160  139.0100 C   0  0  0  0  0  2  0  0  0  0  0  0
  190.0960  173.4160  137.8640 C   0  0  0  0  0  2  0  0  0  0  0  0
  189.7070  173.9120  140.4450 C   0  0  0  0  0  2  0  0  0  0  0  0
  190.5100  173.3070  139.3130 C   0  0  1  0  0  3  0  0  0  0  0  0
  188.2500  172.2940  138.9800 O   0  0  0  0  0  1  0  0  0  0  0  0
  189.8790  173.0280  141.6990 C   0  0  2  0  0  3  0  0  0  0  0  0
  191.8500  170.8780  140.8790 O   0  0  0  0  0  0  0  0  0  0  0  0
  192.5190  170.4200  139.8420 O   0  0  0  0  0  1  0  0  0  0  0  0
  186.5280  177.0240  146.8290 C   0  0  0  0  0  3  0  0  0  0  0  0
  186.9070  177.1840  145.4860 C   0  0  0  0  0  0  0  0  0  0  0  0
  186.0150  177.7740  144.5850 C   0  0  0  0  0  3  0  0  0  0  0  0
  183.6430  178.9290  143.8790 Cl  0  0  0  0  0  0  0  0  0  0  0  0
  184.3760  178.0250  146.3500 C   0  0  0  0  0  3  0  0  0  0  0  0
  184.7520  178.1920  145.0140 C   0  0  0  0  0  0  0  0  0  0  0  0
  185.2640  177.4420  147.2580 C   0  0  0  0  0  3  0  0  0  0  0  0
  188.2350  177.6910  142.6160 C   0  0  0  0  0  2  0  0  0  0  0  0
  187.6650  177.3630  141.2490 C   0  0  0  0  0  1  0  0  0  0  0  0
  1 16  1  0  0  0  0
  1  9  1  0  0  0  0
  2 13  1  0  0  0  0
  4  2  2  0  0  0  0
  4  6  1  0  0  0  0
  5  2  1  1  0  0  0
  5 14  1  0  0  0  0
  6 36  1  6  0  0  0
  6 15  1  0  0  0  0
  7 11  1  0  0  0  0
  7  3  1  0  0  0  0
  8  5  1  0  0  0  0
  8 12  1  1  0  0  0
 10 17  1  0  0  0  0
 11 13  1  0  0  0  0
 12  1  1  0  0  0  0
 13 10  1  0  0  0  0
 14  3  1  1  0  0  0
 14  1  1  0  0  0  0
 15 17  1  0  0  0  0
 15 30  1  6  0  0  0
 18 26  1  0  0  0  0
 19 27  1  1  0  0  0
 19 18  1  0  0  0  0
 20 25  1  1  0  0  0
 20 21  1  0  0  0  0
 20 24  1  0  0  0  0
 21 19  1  0  0  0  0
 22 20  1  0  0  0  0
 24 22  1  6  0  0  0
 24 23  1  0  0  0  0
 26 23  1  6  0  0  0
 26  8  1  0  0  0  0
 28 27  1  0  0  0  0
 29 35  1  0  0  0  0
 30 29  2  0  0  0  0
 31 34  2  0  0  0  0
 31 30  1  0  0  0  0
 32 34  1  0  0  0  0
 33 35  2  0  0  0  0
 34 33  1  0  0  0  0
 37 36  1  0  0  0  0
M  END
>  <MODEL>
4

>  <REMARK>
 VINA RESULT:      -7.3      2.357      5.508
  Name = 
  4 active torsions:
  status: ('A' for Active; 'I' for Inactive)
    1  A    between atoms: C_5  and  O_12
    2  A    between atoms: C_6  and  C_31
    3  A    between atoms: C_7  and  C_14
    4  A    between atoms: C_20  and  C_36
                            x       y       z     vdW  Elec       q    Type
                         _______ _______ _______ _____ _____    ______ ____

>  <TORSDO>
F 4

$$$$
=
 OpenBabel11052419553D

 37 42  0  0  1  0  0  0  0  0999 V2000
  192.5590  173.1090  139.0860 C   0  0  0  0  0  0  0  0  0  0  0  0
  191.1920  173.6070  142.0180 C   0  0  0  0  0  0  0  0  0  0  0  0
  191.2240  171.3720  140.1950 O   0  0  0  0  0  0  0  0  0  0  0  0
  191.1330  174.8300  142.5650 C   0  0  0  0  0  3  0  0  0  0  0  0
  192.5360  173.0400  141.5480 C   0  0  2  0  0  3  0  0  0  0  0  0
  189.9440  175.4390  143.2520 C   0  0  1  0  0  3  0  0  0  0  0  0
  191.1210  170.6320  141.3820 C   0  0  0  0  0  2  0  0  0  0  0  0
  193.5940  174.0390  141.0650 C   0  0  1  0  0  3  0  0  0  0  0  0
  191.2300  173.5080  138.4640 C   0  0  0  0  0  1  0  0  0  0  0  0
  188.8030  173.1780  141.3720 C   0  0  0  0  0  2  0  0  0  0  0  0
  190.1470  171.3250  142.3370 C   0  0  0  0  0  2  0  0  0  0  0  0
  193.2390  174.3600  139.6230 C   0  0  0  0  0  2  0  0  0  0  0  0
  190.0290  172.7520  142.0370 N   0  0  0  0  0  0  0  0  0  0  0  0
  192.3920  172.1630  140.2860 C   0  0  2  0  0  3  0  0  0  0  0  0
  188.7020  175.4780  142.3540 C   0  0  1  0  0  3  0  0  0  0  0  0
  193.4350  172.4560  138.0370 C   0  0  0  0  0  1  0  0  0  0  0  0
  188.0000  174.1280  142.2440 C   0  0  0  0  0  2  0  0  0  0  0  0
  194.8600  176.2870  141.2500 C   0  0  0  0  0  2  0  0  0  0  0  0
  196.3060  175.8290  140.8920 C   0  0  1  0  0  3  0  0  0  0  0  0
  196.6640  175.6470  143.4170 C   0  0  2  0  0  0  0  0  0  0  0  0
  197.3300  175.7710  142.0560 C   0  0  0  0  0  2  0  0  0  0  0  0
  196.7640  174.5600  144.4690 C   0  0  0  0  0  2  0  0  0  0  0  0
  194.3620  174.8400  143.3690 C   0  0  0  0  0  2  0  0  0  0  0  0
  195.8040  174.3810  143.3160 C   0  0  1  0  0  3  0  0  0  0  0  0
  196.0250  176.8020  143.8900 O   0  0  0  0  0  1  0  0  0  0  0  0
  193.9250  175.2530  141.9460 C   0  0  2  0  0  3  0  0  0  0  0  0
  196.3060  174.6280  140.1800 O   0  0  0  0  0  0  0  0  0  0  0  0
  197.5530  174.2110  140.2290 O   0  0  0  0  0  1  0  0  0  0  0  0
  187.5970  177.7290  142.0030 C   0  0  0  0  0  3  0  0  0  0  0  0
  187.7560  176.5630  142.7690 C   0  0  0  0  0  0  0  0  0  0  0  0
  186.9940  176.3920  143.9300 C   0  0  0  0  0  3  0  0  0  0  0  0
  185.1400  177.1560  145.7840 Cl  0  0  0  0  0  0  0  0  0  0  0  0
  185.9380  178.5410  143.5690 C   0  0  0  0  0  3  0  0  0  0  0  0
  186.0880  177.3790  144.3300 C   0  0  0  0  0  0  0  0  0  0  0  0
  186.6910  178.7160  142.4050 C   0  0  0  0  0  3  0  0  0  0  0  0
  189.6870  174.7950  144.6140 C   0  0  0  0  0  2  0  0  0  0  0  0
  190.8900  174.9730  145.5210 C   0  0  0  0  0  1  0  0  0  0  0  0
  1 12  1  0  0  0  0
  1 14  1  0  0  0  0
  2 13  1  0  0  0  0
  2  4  2  0  0  0  0
  3  7  1  0  0  0  0
  4  6  1  0  0  0  0
  5  2  1  6  0  0  0
  6 36  1  1  0  0  0
  7 11  1  0  0  0  0
  8 12  1  6  0  0  0
  8  5  1  0  0  0  0
  8 26  1  0  0  0  0
  9  1  1  0  0  0  0
 10 13  1  0  0  0  0
 10 17  1  0  0  0  0
 13 11  1  0  0  0  0
 14  3  1  6  0  0  0
 14  5  1  0  0  0  0
 15 30  1  1  0  0  0
 15  6  1  0  0  0  0
 16  1  1  0  0  0  0
 17 15  1  0  0  0  0
 19 27  1  1  0  0  0
 19 18  1  0  0  0  0
 19 21  1  0  0  0  0
 20 25  1  1  0  0  0
 20 22  1  0  0  0  0
 21 20  1  0  0  0  0
 24 23  1  1  0  0  0
 24 20  1  0  0  0  0
 24 22  1  0  0  0  0
 26 18  1  6  0  0  0
 26 23  1  0  0  0  0
 27 28  1  0  0  0  0
 29 35  2  0  0  0  0
 29 30  1  0  0  0  0
 30 31  2  0  0  0  0
 31 34  1  0  0  0  0
 33 34  2  0  0  0  0
 34 32  1  0  0  0  0
 35 33  1  0  0  0  0
 36 37  1  0  0  0  0
M  END
>  <MODEL>
5

>  <REMARK>
 VINA RESULT:      -7.3      1.269      1.425
  Name = 
  4 active torsions:
  status: ('A' for Active; 'I' for Inactive)
    1  A    between atoms: C_5  and  O_12
    2  A    between atoms: C_6  and  C_31
    3  A    between atoms: C_7  and  C_14
    4  A    between atoms: C_20  and  C_36
                            x       y       z     vdW  Elec       q    Type
                         _______ _______ _______ _____ _____    ______ ____

>  <TORSDO>
F 4

$$$$
=
 OpenBabel11052419553D

 37 42  0  0  1  0  0  0  0  0999 V2000
  195.2170  173.8680  145.0820 C   0  0  0  0  0  0  0  0  0  0  0  0
  192.6000  174.8420  143.3750 C   0  0  0  0  0  0  0  0  0  0  0  0
  195.3090  175.8110  143.5840 O   0  0  0  0  0  0  0  0  0  0  0  0
  191.3770  174.3550  143.6290 C   0  0  0  0  0  3  0  0  0  0  0  0
  193.7640  173.8850  143.0940 C   0  0  2  0  0  3  0  0  0  0  0  0
  190.1060  175.1500  143.7220 C   0  0  1  0  0  3  0  0  0  0  0  0
  195.0780  176.2100  142.2590 C   0  0  0  0  0  2  0  0  0  0  0  0
  193.7200  172.5040  143.7580 C   0  0  1  0  0  3  0  0  0  0  0  0
  194.8410  174.8980  146.1350 C   0  0  0  0  0  1  0  0  0  0  0  0
  192.4520  177.1870  144.2610 C   0  0  0  0  0  2  0  0  0  0  0  0
  193.6610  176.7720  142.1310 C   0  0  0  0  0  2  0  0  0  0  0  0
  194.2410  172.7030  145.1710 C   0  0  0  0  0  2  0  0  0  0  0  0
  192.7850  176.2610  143.1850 N   0  0  0  0  0  0  0  0  0  0  0  0
  195.1030  174.4140  143.6500 C   0  0  2  0  0  3  0  0  0  0  0  0
  190.1840  176.2620  144.7730 C   0  0  1  0  0  3  0  0  0  0  0  0
  196.6280  173.3770  145.3330 C   0  0  0  0  0  1  0  0  0  0  0  0
  190.9640  177.4840  144.2960 C   0  0  0  0  0  2  0  0  0  0  0  0
  192.5430  170.2750  144.3390 C   0  0  0  0  0  2  0  0  0  0  0  0
  193.5690  169.2540  143.7650 C   0  0  1  0  0  3  0  0  0  0  0  0
  192.1040  169.2520  141.6700 C   0  0  2  0  0  0  0  0  0  0  0  0
  193.1650  168.5090  142.4650 C   0  0  0  0  0  2  0  0  0  0  0  0
  192.1410  169.8190  140.2640 C   0  0  0  0  0  2  0  0  0  0  0  0
  191.8960  171.6260  142.1970 C   0  0  0  0  0  2  0  0  0  0  0  0
  192.7160  170.6340  141.4000 C   0  0  1  0  0  3  0  0  0  0  0  0
  190.8110  169.2360  142.2140 O   0  0  0  0  0  1  0  0  0  0  0  0
  192.4390  171.6650  143.6420 C   0  0  2  0  0  3  0  0  0  0  0  0
  194.8390  169.8180  143.6290 O   0  0  0  0  0  0  0  0  0  0  0  0
  195.5060  169.3980  144.6840 O   0  0  0  0  0  1  0  0  0  0  0  0
  188.2790  176.0290  146.4250 C   0  0  0  0  0  3  0  0  0  0  0  0
  188.8250  176.6350  145.2820 C   0  0  0  0  0  0  0  0  0  0  0  0
  188.1010  177.6320  144.6180 C   0  0  0  0  0  3  0  0  0  0  0  0
  185.9420  179.2610  144.2460 Cl  0  0  0  0  0  0  0  0  0  0  0  0
  186.2970  177.4040  146.2170 C   0  0  0  0  0  3  0  0  0  0  0  0
  186.8390  178.0150  145.0830 C   0  0  0  0  0  0  0  0  0  0  0  0
  187.0160  176.4120  146.8890 C   0  0  0  0  0  3  0  0  0  0  0  0
  189.6470  175.6430  142.3500 C   0  0  0  0  0  2  0  0  0  0  0  0
  188.3160  175.0160  141.9780 C   0  0  0  0  0  1  0  0  0  0  0  0
  1 12  1  0  0  0  0
  1 16  1  0  0  0  0
  1  9  1  0  0  0  0
  2  4  2  0  0  0  0
  4  6  1  0  0  0  0
  5  2  1  1  0  0  0
  5 14  1  0  0  0  0
  5  8  1  0  0  0  0
  6 36  1  6  0  0  0
  6 15  1  0  0  0  0
  7  3  1  0  0  0  0
  8 12  1  1  0  0  0
 10 17  1  0  0  0  0
 11  7  1  0  0  0  0
 11 13  1  0  0  0  0
 13  2  1  0  0  0  0
 13 10  1  0  0  0  0
 14  3  1  1  0  0  0
 14  1  1  0  0  0  0
 15 30  1  6  0  0  0
 17 15  1  0  0  0  0
 19 27  1  6  0  0  0
 19 18  1  0  0  0  0
 20 25  1  1  0  0  0
 20 21  1  0  0  0  0
 21 19  1  0  0  0  0
 22 20  1  0  0  0  0
 24 22  1  6  0  0  0
 24 20  1  0  0  0  0
 24 23  1  0  0  0  0
 26 23  1  6  0  0  0
 26  8  1  0  0  0  0
 26 18  1  0  0  0  0
 27 28  1  0  0  0  0
 29 35  1  0  0  0  0
 30 29  2  0  0  0  0
 31 34  2  0  0  0  0
 31 30  1  0  0  0  0
 32 34  1  0  0  0  0
 33 35  2  0  0  0  0
 34 33  1  0  0  0  0
 37 36  1  0  0  0  0
M  END
>  <MODEL>
6

>  <REMARK>
 VINA RESULT:      -7.2      2.494      5.427
  Name = 
  4 active torsions:
  status: ('A' for Active; 'I' for Inactive)
    1  A    between atoms: C_5  and  O_12
    2  A    between atoms: C_6  and  C_31
    3  A    between atoms: C_7  and  C_14
    4  A    between atoms: C_20  and  C_36
                            x       y       z     vdW  Elec       q    Type
                         _______ _______ _______ _____ _____    ______ ____

>  <TORSDO>
F 4

$$$$
=
 OpenBabel11052419553D

 37 42  0  0  1  0  0  0  0  0999 V2000
  191.8820  171.4520  142.9480 C   0  0  0  0  0  0  0  0  0  0  0  0
  191.0720  174.6040  142.6090 C   0  0  0  0  0  0  0  0  0  0  0  0
  193.3700  173.2500  143.7060 O   0  0  0  0  0  0  0  0  0  0  0  0
  189.8290  174.9760  142.2690 C   0  0  0  0  0  3  0  0  0  0  0  0
  191.8360  173.5980  141.7410 C   0  0  2  0  0  3  0  0  0  0  0  0
  189.0340  176.0890  142.8900 C   0  0  1  0  0  3  0  0  0  0  0  0
  194.0350  174.4060  143.2710 C   0  0  0  0  0  2  0  0  0  0  0  0
  191.0120  172.5540  140.9780 C   0  0  1  0  0  3  0  0  0  0  0  0
  191.3340  171.5240  144.3650 C   0  0  0  0  0  1  0  0  0  0  0  0
  191.2010  175.2650  145.0280 C   0  0  0  0  0  2  0  0  0  0  0  0
  193.1750  175.6360  143.5650 C   0  0  0  0  0  2  0  0  0  0  0  0
  190.7120  171.4480  141.9740 C   0  0  0  0  0  2  0  0  0  0  0  0
  191.7600  175.2830  143.6810 N   0  0  0  0  0  0  0  0  0  0  0  0
  192.7410  172.6710  142.5800 C   0  0  2  0  0  3  0  0  0  0  0  0
  188.8680  175.9190  144.4040 C   0  0  1  0  0  3  0  0  0  0  0  0
  192.6930  170.1830  142.7810 C   0  0  0  0  0  1  0  0  0  0  0  0
  190.1140  176.3120  145.1920 C   0  0  0  0  0  2  0  0  0  0  0  0
  188.9770  171.8520  139.5440 C   0  0  0  0  0  2  0  0  0  0  0  0
  189.6690  170.9190  138.5060 C   0  0  1  0  0  3  0  0  0  0  0  0
  189.7640  172.9850  137.0030 C   0  0  2  0  0  0  0  0  0  0  0  0
  189.8190  171.4670  137.0620 C   0  0  0  0  0  2  0  0  0  0  0  0
  190.7940  173.9920  136.5280 C   0  0  0  0  0  2  0  0  0  0  0  0
  190.2120  174.1160  139.1180 C   0  0  0  0  0  2  0  0  0  0  0  0
  190.8880  173.4520  137.9370 C   0  0  1  0  0  3  0  0  0  0  0  0
  188.5010  173.5580  137.2080 O   0  0  0  0  0  1  0  0  0  0  0  0
  189.8160  173.0240  140.1360 C   0  0  2  0  0  3  0  0  0  0  0  0
  190.8940  170.4410  138.9760 O   0  0  0  0  0  0  0  0  0  0  0  0
  191.3830  169.7360  137.9780 O   0  0  0  0  0  1  0  0  0  0  0  0
  186.4380  176.5990  144.1930 C   0  0  0  0  0  3  0  0  0  0  0  0
  187.6470  176.6270  144.9070 C   0  0  0  0  0  0  0  0  0  0  0  0
  187.7090  177.3030  146.1300 C   0  0  0  0  0  3  0  0  0  0  0  0
  186.6680  178.7990  148.1640 Cl  0  0  0  0  0  0  0  0  0  0  0  0
  185.3800  177.9320  145.9170 C   0  0  0  0  0  3  0  0  0  0  0  0
  186.5800  177.9560  146.6340 C   0  0  0  0  0  0  0  0  0  0  0  0
  185.3090  177.2530  144.6970 C   0  0  0  0  0  3  0  0  0  0  0  0
  189.5760  177.4610  142.4900 C   0  0  0  0  0  2  0  0  0  0  0  0
  188.5480  178.2200  141.6710 C   0  0  0  0  0  1  0  0  0  0  0  0
  1  9  1  0  0  0  0
  2 13  1  0  0  0  0
  4  2  2  0  0  0  0
  4  6  1  0  0  0  0
  5 14  1  0  0  0  0
  5  2  1  1  0  0  0
  6 36  1  1  0  0  0
  6 15  1  0  0  0  0
  7 11  1  0  0  0  0
  7  3  1  0  0  0  0
  8  5  1  0  0  0  0
  8 12  1  1  0  0  0
 10 17  1  0  0  0  0
 11 13  1  0  0  0  0
 12  1  1  0  0  0  0
 13 10  1  0  0  0  0
 14  1  1  0  0  0  0
 14  3  1  1  0  0  0
 15 30  1  1  0  0  0
 15 17  1  0  0  0  0
 16  1  1  0  0  0  0
 18 26  1  0  0  0  0
 19 27  1  1  0  0  0
 19 18  1  0  0  0  0
 20 21  1  0  0  0  0
 20 25  1  1  0  0  0
 20 24  1  0  0  0  0
 21 19  1  0  0  0  0
 22 20  1  0  0  0  0
 24 22  1  6  0  0  0
 24 23  1  0  0  0  0
 26 23  1  6  0  0  0
 26  8  1  0  0  0  0
 28 27  1  0  0  0  0
 29 35  2  0  0  0  0
 29 30  1  0  0  0  0
 30 31  2  0  0  0  0
 31 34  1  0  0  0  0
 33 34  2  0  0  0  0
 34 32  1  0  0  0  0
 35 33  1  0  0  0  0
 37 36  1  0  0  0  0
M  END
>  <MODEL>
7

>  <REMARK>
 VINA RESULT:      -7.1      2.592      5.691
  Name = 
  4 active torsions:
  status: ('A' for Active; 'I' for Inactive)
    1  A    between atoms: C_5  and  O_12
    2  A    between atoms: C_6  and  C_31
    3  A    between atoms: C_7  and  C_14
    4  A    between atoms: C_20  and  C_36
                            x       y       z     vdW  Elec       q    Type
                         _______ _______ _______ _____ _____    ______ ____

>  <TORSDO>
F 4

$$$$
=
 OpenBabel11052419553D

 37 42  0  0  1  0  0  0  0  0999 V2000
  192.2920  173.3940  139.9230 C   0  0  0  0  0  0  0  0  0  0  0  0
  194.1840  173.9060  142.5450 C   0  0  0  0  0  0  0  0  0  0  0  0
  194.5450  174.3470  139.7170 O   0  0  0  0  0  0  0  0  0  0  0  0
  193.8700  173.3990  143.7450 C   0  0  0  0  0  3  0  0  0  0  0  0
  193.1630  174.7570  141.7800 C   0  0  2  0  0  3  0  0  0  0  0  0
  194.8150  172.7250  144.6990 C   0  0  1  0  0  3  0  0  0  0  0  0
  195.3570  175.3990  140.1660 C   0  0  0  0  0  2  0  0  0  0  0  0
  191.6780  174.4540  142.0090 C   0  0  1  0  0  3  0  0  0  0  0  0
  193.0100  172.0660  139.7380 C   0  0  0  0  0  1  0  0  0  0  0  0
  196.1440  172.4980  141.8480 C   0  0  0  0  0  2  0  0  0  0  0  0
  196.1750  174.9370  141.3730 C   0  0  0  0  0  2  0  0  0  0  0  0
  191.3480  173.2740  141.1120 C   0  0  0  0  0  2  0  0  0  0  0  0
  195.5370  173.8090  142.0520 N   0  0  0  0  0  0  0  0  0  0  0  0
  193.2530  174.5470  140.2540 C   0  0  2  0  0  3  0  0  0  0  0  0
  195.5290  171.5240  144.0690 C   0  0  1  0  0  3  0  0  0  0  0  0
  191.5050  173.7250  138.6720 C   0  0  0  0  0  1  0  0  0  0  0  0
  196.6780  171.9260  143.1480 C   0  0  0  0  0  2  0  0  0  0  0  0
  189.6690  173.8890  143.5380 C   0  0  0  0  0  2  0  0  0  0  0  0
  188.5830  174.8330  142.9410 C   0  0  1  0  0  3  0  0  0  0  0  0
  189.2690  176.4690  144.7810 C   0  0  2  0  0  0  0  0  0  0  0  0
  188.1910  176.0730  143.7860 C   0  0  0  0  0  2  0  0  0  0  0  0
  190.0670  177.7530  144.9130 C   0  0  0  0  0  2  0  0  0  0  0  0
  191.4970  175.6020  144.2860 C   0  0  0  0  0  2  0  0  0  0  0  0
  190.5220  176.7030  143.9250 C   0  0  1  0  0  3  0  0  0  0  0  0
  189.4180  175.6230  145.8890 O   0  0  0  0  0  1  0  0  0  0  0  0
  191.1560  174.3500  143.4500 C   0  0  2  0  0  3  0  0  0  0  0  0
  188.8910  175.2110  141.6320 O   0  0  0  0  0  0  0  0  0  0  0  0
  187.9470  176.0680  141.3020 O   0  0  0  0  0  1  0  0  0  0  0  0
  197.3230  170.1980  145.2670 C   0  0  0  0  0  3  0  0  0  0  0  0
  195.9700  170.5390  145.1080 C   0  0  0  0  0  0  0  0  0  0  0  0
  195.0130  169.9730  145.9570 C   0  0  0  0  0  3  0  0  0  0  0  0
  194.1940  168.3620  148.0040 Cl  0  0  0  0  0  0  0  0  0  0  0  0
  196.7450  168.7240  147.0990 C   0  0  0  0  0  3  0  0  0  0  0  0
  195.3980  169.0650  146.9490 C   0  0  0  0  0  0  0  0  0  0  0  0
  197.7070  169.2910  146.2590 C   0  0  0  0  0  3  0  0  0  0  0  0
  195.7700  173.7260  145.3490 C   0  0  0  0  0  2  0  0  0  0  0  0
  195.0030  174.9160  145.8940 C   0  0  0  0  0  1  0  0  0  0  0  0
  1 14  1  0  0  0  0
  1 12  1  0  0  0  0
  2  4  2  0  0  0  0
  3  7  1  0  0  0  0
  4  6  1  0  0  0  0
  5  8  1  0  0  0  0
  5  2  1  1  0  0  0
  6 36  1  6  0  0  0
  7 11  1  0  0  0  0
  8 12  1  1  0  0  0
  8 26  1  0  0  0  0
  9  1  1  0  0  0  0
 10 13  1  0  0  0  0
 10 17  1  0  0  0  0
 11 13  1  0  0  0  0
 13  2  1  0  0  0  0
 14  3  1  1  0  0  0
 14  5  1  0  0  0  0
 15  6  1  0  0  0  0
 15 30  1  1  0  0  0
 16  1  1  0  0  0  0
 17 15  1  0  0  0  0
 19 27  1  6  0  0  0
 19 18  1  0  0  0  0
 19 21  1  0  0  0  0
 20 22  1  0  0  0  0
 20 25  1  1  0  0  0
 21 20  1  0  0  0  0
 24 23  1  1  0  0  0
 24 20  1  0  0  0  0
 24 22  1  0  0  0  0
 26 18  1  6  0  0  0
 26 23  1  0  0  0  0
 28 27  1  0  0  0  0
 29 35  1  0  0  0  0
 30 29  2  0  0  0  0
 30 31  1  0  0  0  0
 31 34  2  0  0  0  0
 34 33  1  0  0  0  0
 34 32  1  0  0  0  0
 35 33  2  0  0  0  0
 36 37  1  0  0  0  0
M  END
>  <MODEL>
8

>  <REMARK>
 VINA RESULT:      -7.1      4.109      8.003
  Name = 
  4 active torsions:
  status: ('A' for Active; 'I' for Inactive)
    1  A    between atoms: C_5  and  O_12
    2  A    between atoms: C_6  and  C_31
    3  A    between atoms: C_7  and  C_14
    4  A    between atoms: C_20  and  C_36
                            x       y       z     vdW  Elec       q    Type
                         _______ _______ _______ _____ _____    ______ ____

>  <TORSDO>
F 4

$$$$
=
 OpenBabel11052419553D

 37 42  0  0  1  0  0  0  0  0999 V2000
  193.4740  176.0320  145.6720 C   0  0  0  0  0  0  0  0  0  0  0  0
  193.3540  174.2320  142.9410 C   0  0  0  0  0  0  0  0  0  0  0  0
  194.2140  173.6920  145.6410 O   0  0  0  0  0  0  0  0  0  0  0  0
  193.1240  174.7900  141.7440 C   0  0  0  0  0  3  0  0  0  0  0  0
  192.3850  174.4790  144.1020 C   0  0  2  0  0  3  0  0  0  0  0  0
  193.8560  174.4880  140.4680 C   0  0  1  0  0  3  0  0  0  0  0  0
  193.7920  172.3920  145.3250 C   0  0  0  0  0  2  0  0  0  0  0  0
  191.6300  175.8130  144.1220 C   0  0  1  0  0  3  0  0  0  0  0  0
  194.9280  176.3300  145.3430 C   0  0  0  0  0  1  0  0  0  0  0  0
  195.7890  173.6300  142.8080 C   0  0  0  0  0  2  0  0  0  0  0  0
  194.2090  172.0500  143.8940 C   0  0  0  0  0  2  0  0  0  0  0  0
  192.5880  176.8270  144.7230 C   0  0  0  0  0  2  0  0  0  0  0  0
  194.4080  173.2570  143.0910 N   0  0  0  0  0  0  0  0  0  0  0  0
  193.1080  174.5540  145.4630 C   0  0  2  0  0  3  0  0  0  0  0  0
  195.3680  174.7100  140.5900 C   0  0  1  0  0  3  0  0  0  0  0  0
  193.1850  176.4340  147.1040 C   0  0  0  0  0  1  0  0  0  0  0  0
  196.0830  173.5770  141.3190 C   0  0  0  0  0  2  0  0  0  0  0  0
  190.2900  177.7010  142.9670 C   0  0  0  0  0  2  0  0  0  0  0  0
  189.1500  177.9170  144.0060 C   0  0  1  0  0  3  0  0  0  0  0  0
  187.7820  176.3250  142.5470 C   0  0  2  0  0  0  0  0  0  0  0  0
  187.7380  177.4060  143.6140 C   0  0  0  0  0  2  0  0  0  0  0  0
  187.3080  174.8840  142.5830 C   0  0  0  0  0  2  0  0  0  0  0  0
  189.9330  175.1960  142.3120 C   0  0  0  0  0  2  0  0  0  0  0  0
  188.6690  175.2240  143.1450 C   0  0  1  0  0  3  0  0  0  0  0  0
  188.1070  176.7560  141.2540 O   0  0  0  0  0  1  0  0  0  0  0  0
  190.9010  176.2720  142.8500 C   0  0  2  0  0  3  0  0  0  0  0  0
  189.5070  177.4430  145.2710 O   0  0  0  0  0  0  0  0  0  0  0  0
  188.3810  177.4320  145.9540 O   0  0  0  0  0  1  0  0  0  0  0  0
  197.3860  175.0410  139.0980 C   0  0  0  0  0  3  0  0  0  0  0  0
  195.9920  174.9940  139.2580 C   0  0  0  0  0  0  0  0  0  0  0  0
  195.1640  175.1850  138.1470 C   0  0  0  0  0  3  0  0  0  0  0  0
  194.6770  175.6700  135.5040 Cl  0  0  0  0  0  0  0  0  0  0  0  0
  197.1080  175.4850  136.7340 C   0  0  0  0  0  3  0  0  0  0  0  0
  195.7200  175.4320  136.8870 C   0  0  0  0  0  0  0  0  0  0  0  0
  197.9410  175.2890  137.8380 C   0  0  0  0  0  3  0  0  0  0  0  0
  193.4890  173.1090  139.9190 C   0  0  0  0  0  2  0  0  0  0  0  0
  191.9930  173.0120  139.6840 C   0  0  0  0  0  1  0  0  0  0  0  0
  1 16  1  0  0  0  0
  2 13  1  0  0  0  0
  4  2  2  0  0  0  0
  5  2  1  6  0  0  0
  5  8  1  0  0  0  0
  5 14  1  0  0  0  0
  6 36  1  1  0  0  0
  6 15  1  0  0  0  0
  6  4  1  0  0  0  0
  7  3  1  0  0  0  0
  8 12  1  6  0  0  0
  9  1  1  0  0  0  0
 10 13  1  0  0  0  0
 11  7  1  0  0  0  0
 12  1  1  0  0  0  0
 13 11  1  0  0  0  0
 14  3  1  6  0  0  0
 14  1  1  0  0  0  0
 15 30  1  6  0  0  0
 15 17  1  0  0  0  0
 17 10  1  0  0  0  0
 18 19  1  0  0  0  0
 19 27  1  1  0  0  0
 20 25  1  6  0  0  0
 20 22  1  0  0  0  0
 20 24  1  0  0  0  0
 20 21  1  0  0  0  0
 21 19  1  0  0  0  0
 22 24  1  0  0  0  0
 24 23  1  6  0  0  0
 26 23  1  1  0  0  0
 26 18  1  0  0  0  0
 26  8  1  0  0  0  0
 27 28  1  0  0  0  0
 29 30  1  0  0  0  0
 31 30  2  0  0  0  0
 32 34  1  0  0  0  0
 33 34  2  0  0  0  0
 33 35  1  0  0  0  0
 34 31  1  0  0  0  0
 35 29  2  0  0  0  0
 37 36  1  0  0  0  0
M  END
>  <MODEL>
9

>  <REMARK>
 VINA RESULT:      -7.0      3.546      7.835
  Name = 
  4 active torsions:
  status: ('A' for Active; 'I' for Inactive)
    1  A    between atoms: C_5  and  O_12
    2  A    between atoms: C_6  and  C_31
    3  A    between atoms: C_7  and  C_14
    4  A    between atoms: C_20  and  C_36
                            x       y       z     vdW  Elec       q    Type
                         _______ _______ _______ _____ _____    ______ ____

>  <TORSDO>
F 4

$$$$
