=
 OpenBabel11052418283D

 27 31  0  0  1  0  0  0  0  0999 V2000
  188.7680  176.4560  145.8900 O   0  0  0  0  0  0  0  0  0  0  0  0
  188.1890  176.0010  143.6190 C   0  0  0  0  0  0  0  0  0  0  0  0
  190.7400  176.0100  143.6490 N   0  0  0  0  0  2  0  0  0  0  0  0
  188.2740  173.4350  140.3750 C   0  0  0  0  0  3  0  0  0  0  0  0
  189.4840  172.1910  138.6190 O   0  0  0  0  0  1  0  0  0  0  0  0
  187.0490  175.5250  143.0900 C   0  0  0  0  0  3  0  0  0  0  0  0
  190.8610  174.2980  141.4200 C   0  0  0  0  0  2  0  0  0  0  0  0
  192.8980  176.5480  146.6170 C   0  0  0  0  0  0  0  0  0  0  0  0
  190.7150  173.4160  140.2060 C   0  0  0  0  0  3  0  0  0  0  0  0
  194.2920  176.6250  146.8880 N   0  0  0  0  0  1  0  0  0  0  0  0
  189.5410  174.7480  142.0020 C   0  0  0  0  0  0  0  0  0  0  0  0
  188.1740  177.0070  144.7300 C   0  0  1  0  0  3  0  0  0  0  0  0
  189.5310  173.0140  139.7350 C   0  0  0  0  0  0  0  0  0  0  0  0
  188.2730  174.2460  141.4300 C   0  0  0  0  0  0  0  0  0  0  0  0
  190.1480  176.4160  146.0760 C   0  0  0  0  0  0  0  0  0  0  0  0
  189.5000  175.5600  143.0770 C   0  0  0  0  0  0  0  0  0  0  0  0
  192.4500  176.3980  145.3040 C   0  0  0  0  0  3  0  0  0  0  0  0
  187.0660  174.6340  142.0130 O   0  0  0  0  0  0  0  0  0  0  0  0
  191.9800  176.5930  147.6630 C   0  0  0  0  0  3  0  0  0  0  0  0
  190.6140  176.5270  147.3910 C   0  0  0  0  0  3  0  0  0  0  0  0
  191.0820  176.3150  145.0110 C   0  0  0  0  0  0  0  0  0  0  0  0
  184.3240  178.6670  145.7020 C   0  0  0  0  0  3  0  0  0  0  0  0
  186.8240  177.5870  145.0490 C   0  0  0  0  0  0  0  0  0  0  0  0
  186.0790  177.0470  146.1030 C   0  0  0  0  0  3  0  0  0  0  0  0
  184.8300  177.5840  146.4280 C   0  0  0  0  0  3  0  0  0  0  0  0
  185.0680  179.2130  144.6530 C   0  0  0  0  0  3  0  0  0  0  0  0
  186.3160  178.6760  144.3270 C   0  0  0  0  0  3  0  0  0  0  0  0
  1 15  1  0  0  0  0
  2 12  1  0  0  0  0
  3 21  1  0  0  0  0
  4 14  2  0  0  0  0
  5 13  1  0  0  0  0
  6  2  2  0  0  0  0
  7 11  1  0  0  0  0
  8 10  1  0  0  0  0
  8 19  1  0  0  0  0
  9  7  1  0  0  0  0
 11 16  2  0  0  0  0
 12 23  1  1  0  0  0
 12  1  1  0  0  0  0
 13  9  2  0  0  0  0
 13  4  1  0  0  0  0
 14 11  1  0  0  0  0
 14 18  1  0  0  0  0
 15 20  1  0  0  0  0
 16  2  1  0  0  0  0
 16  3  1  0  0  0  0
 17  8  2  0  0  0  0
 18  6  1  0  0  0  0
 20 19  2  0  0  0  0
 21 17  1  0  0  0  0
 21 15  2  0  0  0  0
 22 25  1  0  0  0  0
 23 24  1  0  0  0  0
 24 25  2  0  0  0  0
 26 22  2  0  0  0  0
 27 26  1  0  0  0  0
 27 23  2  0  0  0  0
M  END
>  <MODEL>
1

>  <REMARK>
 VINA RESULT:      -8.3      0.000      0.000
  Name = 
  1 active torsions:
  status: ('A' for Active; 'I' for Inactive)
    1  A    between atoms: C_9  and  C_15
                            x       y       z     vdW  Elec       q    Type
                         _______ _______ _______ _____ _____    ______ ____

>  <TORSDO>
F 1

$$$$
=
 OpenBabel11052418283D

 27 31  0  0  1  0  0  0  0  0999 V2000
  187.4500  177.0660  142.6020 O   0  0  0  0  0  0  0  0  0  0  0  0
  188.7760  176.5960  144.5310 C   0  0  0  0  0  0  0  0  0  0  0  0
  189.4970  174.8570  142.8090 N   0  0  0  0  0  2  0  0  0  0  0  0
  192.5060  176.3320  146.3030 C   0  0  0  0  0  3  0  0  0  0  0  0
  194.7450  175.3130  146.5130 O   0  0  0  0  0  1  0  0  0  0  0  0
  189.0960  177.3750  145.5790 C   0  0  0  0  0  3  0  0  0  0  0  0
  192.0370  174.6050  143.9940 C   0  0  0  0  0  2  0  0  0  0  0  0
  188.2180  174.5410  139.3420 C   0  0  0  0  0  0  0  0  0  0  0  0
  193.3160  174.5870  144.7910 C   0  0  0  0  0  3  0  0  0  0  0  0
  188.4270  173.6770  138.2330 N   0  0  0  0  0  1  0  0  0  0  0  0
  190.9950  175.5520  144.5450 C   0  0  0  0  0  0  0  0  0  0  0  0
  187.3990  176.6080  143.9410 C   0  0  1  0  0  3  0  0  0  0  0  0
  193.5330  175.3840  145.8410 C   0  0  0  0  0  0  0  0  0  0  0  0
  191.3200  176.4120  145.7040 C   0  0  0  0  0  0  0  0  0  0  0  0
  187.7930  176.2320  141.5400 C   0  0  0  0  0  0  0  0  0  0  0  0
  189.7870  175.6690  143.9600 C   0  0  0  0  0  0  0  0  0  0  0  0
  188.8600  174.2860  140.5550 C   0  0  0  0  0  3  0  0  0  0  0  0
  190.3630  177.3160  146.1660 O   0  0  0  0  0  0  0  0  0  0  0  0
  187.3970  175.6590  139.2120 C   0  0  0  0  0  3  0  0  0  0  0  0
  187.1880  176.4970  140.3060 C   0  0  0  0  0  3  0  0  0  0  0  0
  188.6740  175.1250  141.6620 C   0  0  0  0  0  0  0  0  0  0  0  0
  184.4370  178.8280  146.1360 C   0  0  0  0  0  3  0  0  0  0  0  0
  186.3740  177.3770  144.7260 C   0  0  0  0  0  0  0  0  0  0  0  0
  186.0640  178.6890  144.3480 C   0  0  0  0  0  3  0  0  0  0  0  0
  185.0990  179.4140  145.0540 C   0  0  0  0  0  3  0  0  0  0  0  0
  184.7380  177.5160  146.5130 C   0  0  0  0  0  3  0  0  0  0  0  0
  185.7030  176.7910  145.8090 C   0  0  0  0  0  3  0  0  0  0  0  0
  1 12  1  0  0  0  0
  2  6  2  0  0  0  0
  3 16  1  0  0  0  0
  6 18  1  0  0  0  0
  7 11  1  0  0  0  0
  7  9  1  0  0  0  0
  8 17  1  0  0  0  0
  9 13  2  0  0  0  0
 10  8  1  0  0  0  0
 11 14  1  0  0  0  0
 12  2  1  0  0  0  0
 12 23  1  1  0  0  0
 13  4  1  0  0  0  0
 13  5  1  0  0  0  0
 14 18  1  0  0  0  0
 14  4  2  0  0  0  0
 15 21  1  0  0  0  0
 15  1  1  0  0  0  0
 16  2  1  0  0  0  0
 16 11  2  0  0  0  0
 17 21  2  0  0  0  0
 19  8  2  0  0  0  0
 19 20  1  0  0  0  0
 20 15  2  0  0  0  0
 21  3  1  0  0  0  0
 22 26  1  0  0  0  0
 23 27  1  0  0  0  0
 24 23  2  0  0  0  0
 24 25  1  0  0  0  0
 25 22  2  0  0  0  0
 27 26  2  0  0  0  0
M  END
>  <MODEL>
2

>  <REMARK>
 VINA RESULT:      -8.2      2.210      5.541
  Name = 
  1 active torsions:
  status: ('A' for Active; 'I' for Inactive)
    1  A    between atoms: C_9  and  C_15
                            x       y       z     vdW  Elec       q    Type
                         _______ _______ _______ _____ _____    ______ ____

>  <TORSDO>
F 1

$$$$
=
 OpenBabel11052418283D

 27 31  0  0  1  0  0  0  0  0999 V2000
  190.8370  174.3120  143.5220 O   0  0  0  0  0  0  0  0  0  0  0  0
  189.8960  176.0040  144.9190 C   0  0  0  0  0  0  0  0  0  0  0  0
  188.4430  176.0130  142.8220 N   0  0  0  0  0  2  0  0  0  0  0  0
  186.6840  177.4300  147.1030 C   0  0  0  0  0  3  0  0  0  0  0  0
  184.3750  178.2910  147.2630 O   0  0  0  0  0  1  0  0  0  0  0  0
  189.9970  176.1930  146.2460 C   0  0  0  0  0  3  0  0  0  0  0  0
  186.2360  177.0200  144.2460 C   0  0  0  0  0  2  0  0  0  0  0  0
  188.8270  173.7890  139.8780 C   0  0  0  0  0  0  0  0  0  0  0  0
  185.1920  177.5910  145.1700 C   0  0  0  0  0  3  0  0  0  0  0  0
  188.1910  173.6140  138.6190 N   0  0  0  0  0  1  0  0  0  0  0  0
  187.5580  176.7440  144.9250 C   0  0  0  0  0  0  0  0  0  0  0  0
  191.0760  175.5830  144.0990 C   0  0  1  0  0  3  0  0  0  0  0  0
  185.3950  177.7700  146.4790 C   0  0  0  0  0  0  0  0  0  0  0  0
  187.6970  176.9540  146.3820 C   0  0  0  0  0  0  0  0  0  0  0  0
  190.0920  174.1490  142.3570 C   0  0  0  0  0  0  0  0  0  0  0  0
  188.6030  176.2510  144.2310 C   0  0  0  0  0  0  0  0  0  0  0  0
  188.4260  174.8250  140.7240 C   0  0  0  0  0  3  0  0  0  0  0  0
  188.9090  176.6460  146.9990 O   0  0  0  0  0  0  0  0  0  0  0  0
  189.8290  172.9100  140.2830 C   0  0  0  0  0  3  0  0  0  0  0  0
  190.4550  173.0910  141.5150 C   0  0  0  0  0  3  0  0  0  0  0  0
  189.0330  175.0150  141.9720 C   0  0  0  0  0  0  0  0  0  0  0  0
  194.8700  175.5800  146.1310 C   0  0  0  0  0  3  0  0  0  0  0  0
  192.3950  175.5980  144.8200 C   0  0  0  0  0  0  0  0  0  0  0  0
  192.9440  174.3920  145.2690 C   0  0  0  0  0  3  0  0  0  0  0  0
  194.1790  174.3820  145.9250 C   0  0  0  0  0  3  0  0  0  0  0  0
  194.3290  176.7870  145.6790 C   0  0  0  0  0  3  0  0  0  0  0  0
  193.0940  176.7970  145.0230 C   0  0  0  0  0  3  0  0  0  0  0  0
  1 12  1  0  0  0  0
  2  6  2  0  0  0  0
  3 16  1  0  0  0  0
  6 18  1  0  0  0  0
  7 11  1  0  0  0  0
  7  9  1  0  0  0  0
  8 19  2  0  0  0  0
  8 17  1  0  0  0  0
  9 13  2  0  0  0  0
 10  8  1  0  0  0  0
 11 14  1  0  0  0  0
 12 23  1  1  0  0  0
 12  2  1  0  0  0  0
 13  4  1  0  0  0  0
 13  5  1  0  0  0  0
 14 18  1  0  0  0  0
 14  4  2  0  0  0  0
 15  1  1  0  0  0  0
 16  2  1  0  0  0  0
 16 11  2  0  0  0  0
 17 21  2  0  0  0  0
 19 20  1  0  0  0  0
 20 15  2  0  0  0  0
 21 15  1  0  0  0  0
 21  3  1  0  0  0  0
 23 27  2  0  0  0  0
 23 24  1  0  0  0  0
 24 25  2  0  0  0  0
 25 22  1  0  0  0  0
 26 22  2  0  0  0  0
 27 26  1  0  0  0  0
M  END
>  <MODEL>
3

>  <REMARK>
 VINA RESULT:      -8.2      2.281      7.106
  Name = 
  1 active torsions:
  status: ('A' for Active; 'I' for Inactive)
    1  A    between atoms: C_9  and  C_15
                            x       y       z     vdW  Elec       q    Type
                         _______ _______ _______ _____ _____    ______ ____

>  <TORSDO>
F 1

$$$$
=
 OpenBabel11052418283D

 27 31  0  0  1  0  0  0  0  0999 V2000
  190.3980  174.3710  143.4560 O   0  0  0  0  0  0  0  0  0  0  0  0
  189.3620  176.2480  144.5060 C   0  0  0  0  0  0  0  0  0  0  0  0
  188.1720  176.0230  142.2610 N   0  0  0  0  0  2  0  0  0  0  0  0
  185.9680  178.0130  146.0830 C   0  0  0  0  0  3  0  0  0  0  0  0
  183.6910  178.9410  145.8480 O   0  0  0  0  0  1  0  0  0  0  0  0
  189.3100  176.6020  145.8020 C   0  0  0  0  0  3  0  0  0  0  0  0
  185.8500  177.2530  143.2650 C   0  0  0  0  0  2  0  0  0  0  0  0
  188.8200  173.4350  139.6840 C   0  0  0  0  0  0  0  0  0  0  0  0
  184.7250  177.9620  143.9760 C   0  0  0  0  0  3  0  0  0  0  0  0
  188.3340  173.1150  138.3870 N   0  0  0  0  0  1  0  0  0  0  0  0
  187.0690  177.0360  144.1310 C   0  0  0  0  0  0  0  0  0  0  0  0
  190.6150  175.6990  143.8960 C   0  0  1  0  0  3  0  0  0  0  0  0
  184.7770  178.3010  145.2670 C   0  0  0  0  0  0  0  0  0  0  0  0
  187.0410  177.4270  145.5570 C   0  0  0  0  0  0  0  0  0  0  0  0
  189.7910  174.0780  142.2370 C   0  0  0  0  0  0  0  0  0  0  0  0
  188.1700  176.4350  143.6380 C   0  0  0  0  0  0  0  0  0  0  0  0
  188.3610  174.5780  140.3390 C   0  0  0  0  0  3  0  0  0  0  0  0
  188.1580  177.1720  146.3520 O   0  0  0  0  0  0  0  0  0  0  0  0
  189.7310  172.5910  140.3150 C   0  0  0  0  0  3  0  0  0  0  0  0
  190.2120  172.9140  141.5840 C   0  0  0  0  0  3  0  0  0  0  0  0
  188.8210  174.9120  141.6200 C   0  0  0  0  0  0  0  0  0  0  0  0
  194.1010  175.9770  146.4050 C   0  0  0  0  0  3  0  0  0  0  0  0
  191.8370  175.7760  144.7680 C   0  0  0  0  0  0  0  0  0  0  0  0
  192.6830  176.8860  144.6650 C   0  0  0  0  0  3  0  0  0  0  0  0
  193.8150  176.9850  145.4800 C   0  0  0  0  0  3  0  0  0  0  0  0
  193.2550  174.8690  146.5160 C   0  0  0  0  0  3  0  0  0  0  0  0
  192.1240  174.7690  145.7010 C   0  0  0  0  0  3  0  0  0  0  0  0
  1 12  1  0  0  0  0
  2  6  2  0  0  0  0
  3 16  1  0  0  0  0
  6 18  1  0  0  0  0
  7  9  1  0  0  0  0
  7 11  1  0  0  0  0
  8 19  2  0  0  0  0
  8 17  1  0  0  0  0
  9 13  2  0  0  0  0
 10  8  1  0  0  0  0
 11 14  1  0  0  0  0
 12  2  1  0  0  0  0
 12 23  1  1  0  0  0
 13  5  1  0  0  0  0
 13  4  1  0  0  0  0
 14  4  2  0  0  0  0
 14 18  1  0  0  0  0
 15  1  1  0  0  0  0
 16 11  2  0  0  0  0
 16  2  1  0  0  0  0
 17 21  2  0  0  0  0
 19 20  1  0  0  0  0
 20 15  2  0  0  0  0
 21 15  1  0  0  0  0
 21  3  1  0  0  0  0
 22 26  1  0  0  0  0
 23 27  1  0  0  0  0
 24 23  2  0  0  0  0
 24 25  1  0  0  0  0
 25 22  2  0  0  0  0
 27 26  2  0  0  0  0
M  END
>  <MODEL>
4

>  <REMARK>
 VINA RESULT:      -8.2      2.322      6.935
  Name = 
  1 active torsions:
  status: ('A' for Active; 'I' for Inactive)
    1  A    between atoms: C_9  and  C_15
                            x       y       z     vdW  Elec       q    Type
                         _______ _______ _______ _____ _____    ______ ____

>  <TORSDO>
F 1

$$$$
=
 OpenBabel11052418283D

 27 31  0  0  1  0  0  0  0  0999 V2000
  189.5330  176.2010  145.5650 O   0  0  0  0  0  0  0  0  0  0  0  0
  188.6520  175.6770  143.4090 C   0  0  0  0  0  0  0  0  0  0  0  0
  191.1830  175.7060  143.0850 N   0  0  0  0  0  2  0  0  0  0  0  0
  188.3190  173.0190  140.2550 C   0  0  0  0  0  3  0  0  0  0  0  0
  189.2910  171.7350  138.3830 O   0  0  0  0  0  1  0  0  0  0  0  0
  187.4560  175.1760  143.0550 C   0  0  0  0  0  3  0  0  0  0  0  0
  191.0160  173.9320  140.9090 C   0  0  0  0  0  2  0  0  0  0  0  0
  193.7230  176.3470  145.7110 C   0  0  0  0  0  0  0  0  0  0  0  0
  190.7140  173.0140  139.7520 C   0  0  0  0  0  3  0  0  0  0  0  0
  195.1390  176.4420  145.7850 N   0  0  0  0  0  1  0  0  0  0  0  0
  189.7840  174.3880  141.6550 C   0  0  0  0  0  0  0  0  0  0  0  0
  188.7780  176.7130  144.4830 C   0  0  1  0  0  3  0  0  0  0  0  0
  189.4810  172.5900  139.4590 C   0  0  0  0  0  0  0  0  0  0  0  0
  188.4550  173.8600  141.2780 C   0  0  0  0  0  0  0  0  0  0  0  0
  190.9260  176.1770  145.5590 C   0  0  0  0  0  0  0  0  0  0  0  0
  189.8810  175.2310  142.7030 C   0  0  0  0  0  0  0  0  0  0  0  0
  193.1000  176.1550  144.4770 C   0  0  0  0  0  3  0  0  0  0  0  0
  187.3350  174.2550  142.0110 O   0  0  0  0  0  0  0  0  0  0  0  0
  192.9570  176.4140  146.8730 C   0  0  0  0  0  3  0  0  0  0  0  0
  191.5670  176.3290  146.7940 C   0  0  0  0  0  3  0  0  0  0  0  0
  191.7060  176.0530  144.3790 C   0  0  0  0  0  0  0  0  0  0  0  0
  185.0360  178.3650  145.8190 C   0  0  0  0  0  3  0  0  0  0  0  0
  187.4790  177.2910  144.9690 C   0  0  0  0  0  0  0  0  0  0  0  0
  186.8790  178.3310  144.2490 C   0  0  0  0  0  3  0  0  0  0  0  0
  185.6610  178.8690  144.6750 C   0  0  0  0  0  3  0  0  0  0  0  0
  185.6270  177.3230  146.5380 C   0  0  0  0  0  3  0  0  0  0  0  0
  186.8460  176.7850  146.1140 C   0  0  0  0  0  3  0  0  0  0  0  0
  2 12  1  0  0  0  0
  3 21  1  0  0  0  0
  4 14  2  0  0  0  0
  5 13  1  0  0  0  0
  6  2  2  0  0  0  0
  7 11  1  0  0  0  0
  8 10  1  0  0  0  0
  8 19  1  0  0  0  0
  9  7  1  0  0  0  0
 11 16  2  0  0  0  0
 12 23  1  1  0  0  0
 12  1  1  0  0  0  0
 13  9  2  0  0  0  0
 13  4  1  0  0  0  0
 14 11  1  0  0  0  0
 14 18  1  0  0  0  0
 15  1  1  0  0  0  0
 15 20  1  0  0  0  0
 16  3  1  0  0  0  0
 16  2  1  0  0  0  0
 17  8  2  0  0  0  0
 18  6  1  0  0  0  0
 20 19  2  0  0  0  0
 21 17  1  0  0  0  0
 21 15  2  0  0  0  0
 22 26  1  0  0  0  0
 23 27  1  0  0  0  0
 24 25  1  0  0  0  0
 24 23  2  0  0  0  0
 25 22  2  0  0  0  0
 27 26  2  0  0  0  0
M  END
>  <MODEL>
5

>  <REMARK>
 VINA RESULT:      -7.8      0.753      1.237
  Name = 
  1 active torsions:
  status: ('A' for Active; 'I' for Inactive)
    1  A    between atoms: C_9  and  C_15
                            x       y       z     vdW  Elec       q    Type
                         _______ _______ _______ _____ _____    ______ ____

>  <TORSDO>
F 1

$$$$
=
 OpenBabel11052418283D

 27 31  0  0  1  0  0  0  0  0999 V2000
  187.0060  178.1010  143.2580 O   0  0  0  0  0  0  0  0  0  0  0  0
  188.8210  177.1180  144.4590 C   0  0  0  0  0  0  0  0  0  0  0  0
  188.9300  176.0610  142.1400 N   0  0  0  0  0  2  0  0  0  0  0  0
  192.8930  176.5180  144.8820 C   0  0  0  0  0  3  0  0  0  0  0  0
  195.0500  175.6140  144.0910 O   0  0  0  0  0  1  0  0  0  0  0  0
  189.4670  177.5410  145.5590 C   0  0  0  0  0  3  0  0  0  0  0  0
  191.6930  175.5910  142.3850 C   0  0  0  0  0  2  0  0  0  0  0  0
  186.6740  176.7910  139.2870 C   0  0  0  0  0  0  0  0  0  0  0  0
  193.1480  175.3930  142.7240 C   0  0  0  0  0  3  0  0  0  0  0  0
  186.5110  176.3380  137.9500 N   0  0  0  0  0  1  0  0  0  0  0  0
  190.9010  176.2520  143.4890 C   0  0  0  0  0  0  0  0  0  0  0  0
  187.3330  177.2390  144.3330 C   0  0  1  0  0  3  0  0  0  0  0  0
  193.6980  175.8260  143.8620 C   0  0  0  0  0  0  0  0  0  0  0  0
  191.5870  176.7170  144.7140 C   0  0  0  0  0  0  0  0  0  0  0  0
  186.9870  177.6690  141.9340 C   0  0  0  0  0  0  0  0  0  0  0  0
  189.5790  176.4800  143.3520 C   0  0  0  0  0  0  0  0  0  0  0  0
  187.6340  176.2000  140.1110 C   0  0  0  0  0  3  0  0  0  0  0  0
  190.8480  177.3700  145.7000 O   0  0  0  0  0  0  0  0  0  0  0  0
  185.8990  177.8430  139.7680 C   0  0  0  0  0  3  0  0  0  0  0  0
  186.0560  178.2770  141.0830 C   0  0  0  0  0  3  0  0  0  0  0  0
  187.8180  176.6320  141.4320 C   0  0  0  0  0  0  0  0  0  0  0  0
  185.3300  178.4220  147.9540 C   0  0  0  0  0  3  0  0  0  0  0  0
  186.6170  177.6590  145.5860 C   0  0  0  0  0  0  0  0  0  0  0  0
  186.5860  176.7880  146.6810 C   0  0  0  0  0  3  0  0  0  0  0  0
  185.9410  177.1680  147.8630 C   0  0  0  0  0  3  0  0  0  0  0  0
  185.3640  179.2970  146.8650 C   0  0  0  0  0  3  0  0  0  0  0  0
  186.0080  178.9180  145.6830 C   0  0  0  0  0  3  0  0  0  0  0  0
  1 12  1  0  0  0  0
  2  6  2  0  0  0  0
  3 16  1  0  0  0  0
  6 18  1  0  0  0  0
  7  9  1  0  0  0  0
  7 11  1  0  0  0  0
  8 19  2  0  0  0  0
  8 17  1  0  0  0  0
  9 13  2  0  0  0  0
 10  8  1  0  0  0  0
 11 14  1  0  0  0  0
 12  2  1  0  0  0  0
 12 23  1  1  0  0  0
 13  5  1  0  0  0  0
 13  4  1  0  0  0  0
 14  4  2  0  0  0  0
 14 18  1  0  0  0  0
 15  1  1  0  0  0  0
 16 11  2  0  0  0  0
 16  2  1  0  0  0  0
 17 21  2  0  0  0  0
 19 20  1  0  0  0  0
 20 15  2  0  0  0  0
 21 15  1  0  0  0  0
 21  3  1  0  0  0  0
 23 27  2  0  0  0  0
 23 24  1  0  0  0  0
 24 25  2  0  0  0  0
 25 22  1  0  0  0  0
 26 22  2  0  0  0  0
 27 26  1  0  0  0  0
M  END
>  <MODEL>
6

>  <REMARK>
 VINA RESULT:      -7.6      2.884      5.481
  Name = 
  1 active torsions:
  status: ('A' for Active; 'I' for Inactive)
    1  A    between atoms: C_9  and  C_15
                            x       y       z     vdW  Elec       q    Type
                         _______ _______ _______ _____ _____    ______ ____

>  <TORSDO>
F 1

$$$$
=
 OpenBabel11052418283D

 27 31  0  0  1  0  0  0  0  0999 V2000
  190.8180  175.4250  144.2590 O   0  0  0  0  0  0  0  0  0  0  0  0
  188.5310  175.4030  143.5750 C   0  0  0  0  0  0  0  0  0  0  0  0
  188.5000  176.4380  145.9060 N   0  0  0  0  0  2  0  0  0  0  0  0
  185.0790  177.4870  142.6470 C   0  0  0  0  0  3  0  0  0  0  0  0
  183.1950  178.9580  143.2670 O   0  0  0  0  0  1  0  0  0  0  0  0
  187.9910  175.3260  142.3460 C   0  0  0  0  0  3  0  0  0  0  0  0
  186.1310  177.8490  145.3470 C   0  0  0  0  0  3  0  0  0  0  0  0
  191.4510  177.0870  148.0580 C   0  0  0  0  0  0  0  0  0  0  0  0
  184.8510  178.4850  144.8690 C   0  0  0  0  0  3  0  0  0  0  0  0
  191.6940  177.6090  149.3580 N   0  0  0  0  0  1  0  0  0  0  0  0
  186.7810  176.9520  144.3190 C   0  0  0  0  0  0  0  0  0  0  0  0
  189.7230  174.5800  143.9570 C   0  0  1  0  0  3  0  0  0  0  0  0
  184.3760  178.3260  143.6310 C   0  0  0  0  0  0  0  0  0  0  0  0
  186.1990  176.8420  142.9640 C   0  0  2  0  0  3  0  0  0  0  0  0
  190.9660  176.0400  145.5000 C   0  0  0  0  0  0  0  0  0  0  0  0
  187.9220  176.2910  144.5990 C   0  0  0  0  0  0  0  0  0  0  0  0
  190.1410  176.9270  147.6050 C   0  0  0  0  0  3  0  0  0  0  0  0
  186.8410  176.0490  142.0130 O   0  0  0  0  0  0  0  0  0  0  0  0
  192.5190  176.7640  147.2240 C   0  0  0  0  0  3  0  0  0  0  0  0
  192.2750  176.2430  145.9540 C   0  0  0  0  0  3  0  0  0  0  0  0
  189.8750  176.4200  146.3260 C   0  0  0  0  0  0  0  0  0  0  0  0
  190.9250  171.5920  141.1030 C   0  0  0  0  0  3  0  0  0  0  0  0
  190.1220  173.5310  142.9570 C   0  0  0  0  0  0  0  0  0  0  0  0
  191.0490  173.8530  141.9600 C   0  0  0  0  0  3  0  0  0  0  0  0
  191.4490  172.8860  141.0320 C   0  0  0  0  0  3  0  0  0  0  0  0
  190.0030  171.2630  142.1010 C   0  0  0  0  0  3  0  0  0  0  0  0
  189.6030  172.2300  143.0280 C   0  0  0  0  0  3  0  0  0  0  0  0
  1 15  1  0  0  0  0
  2 12  1  0  0  0  0
  2 16  1  0  0  0  0
  3 21  1  0  0  0  0
  4 13  2  0  0  0  0
  5 13  1  0  0  0  0
  6  2  2  0  0  0  0
  8 10  1  0  0  0  0
  9  7  2  0  0  0  0
 11 16  2  0  0  0  0
 11  7  1  0  0  0  0
 12 23  1  6  0  0  0
 12  1  1  0  0  0  0
 13  9  1  0  0  0  0
 14  4  1  6  0  0  0
 14 11  1  0  0  0  0
 15 20  2  0  0  0  0
 15 21  1  0  0  0  0
 16  3  1  0  0  0  0
 17  8  1  0  0  0  0
 18  6  1  0  0  0  0
 18 14  1  0  0  0  0
 19  8  2  0  0  0  0
 20 19  1  0  0  0  0
 21 17  2  0  0  0  0
 22 26  1  0  0  0  0
 23 27  1  0  0  0  0
 24 23  2  0  0  0  0
 25 22  2  0  0  0  0
 25 24  1  0  0  0  0
 26 27  2  0  0  0  0
M  END
>  <MODEL>
7

>  <REMARK>
 VINA RESULT:      -7.6      2.055      5.739
  Name = 
  1 active torsions:
  status: ('A' for Active; 'I' for Inactive)
    1  A    between atoms: C_9  and  C_15
                            x       y       z     vdW  Elec       q    Type
                         _______ _______ _______ _____ _____    ______ ____

>  <TORSDO>
F 1

$$$$
=
 OpenBabel11052418283D

 27 31  0  0  1  0  0  0  0  0999 V2000
  188.2720  175.5870  141.3920 O   0  0  0  0  0  0  0  0  0  0  0  0
  188.1650  176.3730  143.6440 C   0  0  0  0  0  0  0  0  0  0  0  0
  189.2800  174.0840  143.8070 N   0  0  0  0  0  2  0  0  0  0  0  0
  190.1210  177.5300  147.1010 C   0  0  0  0  0  3  0  0  0  0  0  0
  191.5620  177.0490  149.0480 O   0  0  0  0  0  1  0  0  0  0  0  0
  188.0300  177.6200  144.1250 C   0  0  0  0  0  3  0  0  0  0  0  0
  190.6070  174.8000  146.1830 C   0  0  0  0  0  3  0  0  0  0  0  0
  190.0840  171.8280  140.9760 C   0  0  0  0  0  0  0  0  0  0  0  0
  191.1910  175.3580  147.4550 C   0  0  0  0  0  3  0  0  0  0  0  0
  190.6580  170.5380  140.8050 N   0  0  0  0  0  1  0  0  0  0  0  0
  189.6920  175.7650  145.4640 C   0  0  0  0  0  0  0  0  0  0  0  0
  187.3880  175.9080  142.4500 C   0  0  1  0  0  3  0  0  0  0  0  0
  190.9750  176.6100  147.8700 C   0  0  0  0  0  0  0  0  0  0  0  0
  189.5180  177.1400  145.9800 C   0  0  1  0  0  3  0  0  0  0  0  0
  188.9340  174.3640  141.3160 C   0  0  0  0  0  0  0  0  0  0  0  0
  189.0720  175.4100  144.3210 C   0  0  0  0  0  0  0  0  0  0  0  0
  189.8730  172.3330  142.2590 C   0  0  0  0  0  3  0  0  0  0  0  0
  188.7090  178.0310  145.2760 O   0  0  0  0  0  0  0  0  0  0  0  0
  189.7600  172.6000  139.8620 C   0  0  0  0  0  3  0  0  0  0  0  0
  189.1890  173.8600  140.0350 C   0  0  0  0  0  3  0  0  0  0  0  0
  189.3140  173.6030  142.4530 C   0  0  0  0  0  0  0  0  0  0  0  0
  184.3150  178.5740  141.0480 C   0  0  0  0  0  3  0  0  0  0  0  0
  186.3160  176.8490  141.9790 C   0  0  0  0  0  0  0  0  0  0  0  0
  186.4030  177.4000  140.6950 C   0  0  0  0  0  3  0  0  0  0  0  0
  185.4050  178.2630  140.2310 C   0  0  0  0  0  3  0  0  0  0  0  0
  184.2200  178.0220  142.3290 C   0  0  0  0  0  3  0  0  0  0  0  0
  185.2170  177.1600  142.7940 C   0  0  0  0  0  3  0  0  0  0  0  0
  1 12  1  0  0  0  0
  2  6  2  0  0  0  0
  2 16  1  0  0  0  0
  3 16  1  0  0  0  0
  4 13  2  0  0  0  0
  6 18  1  0  0  0  0
  7  9  2  0  0  0  0
  8 17  1  0  0  0  0
  9 13  1  0  0  0  0
 10  8  1  0  0  0  0
 11 14  1  0  0  0  0
 11  7  1  0  0  0  0
 12 23  1  6  0  0  0
 12  2  1  0  0  0  0
 13  5  1  0  0  0  0
 14  4  1  1  0  0  0
 15  1  1  0  0  0  0
 15 21  1  0  0  0  0
 16 11  2  0  0  0  0
 17 21  2  0  0  0  0
 18 14  1  0  0  0  0
 19 20  1  0  0  0  0
 19  8  2  0  0  0  0
 20 15  2  0  0  0  0
 21  3  1  0  0  0  0
 22 26  1  0  0  0  0
 23 27  1  0  0  0  0
 24 23  2  0  0  0  0
 25 24  1  0  0  0  0
 25 22  2  0  0  0  0
 26 27  2  0  0  0  0
M  END
>  <MODEL>
8

>  <REMARK>
 VINA RESULT:      -7.5      2.352      5.962
  Name = 
  1 active torsions:
  status: ('A' for Active; 'I' for Inactive)
    1  A    between atoms: C_9  and  C_15
                            x       y       z     vdW  Elec       q    Type
                         _______ _______ _______ _____ _____    ______ ____

>  <TORSDO>
F 1

$$$$
=
 OpenBabel11052418283D

 27 31  0  0  1  0  0  0  0  0999 V2000
  188.5670  176.0130  142.7340 O   0  0  0  0  0  0  0  0  0  0  0  0
  190.0140  175.7840  144.6190 C   0  0  0  0  0  0  0  0  0  0  0  0
  190.5480  173.7720  143.1440 N   0  0  0  0  0  2  0  0  0  0  0  0
  193.8530  175.6280  146.1540 C   0  0  0  0  0  3  0  0  0  0  0  0
  196.0660  174.5540  146.3690 O   0  0  0  0  0  1  0  0  0  0  0  0
  190.4370  176.7000  145.5080 C   0  0  0  0  0  3  0  0  0  0  0  0
  193.1580  173.5910  144.1800 C   0  0  0  0  0  2  0  0  0  0  0  0
  189.0080  172.9870  139.8630 C   0  0  0  0  0  0  0  0  0  0  0  0
  194.4910  173.6380  144.8820 C   0  0  0  0  0  3  0  0  0  0  0  0
  189.1050  171.9550  138.8900 N   0  0  0  0  0  1  0  0  0  0  0  0
  192.1920  174.6570  144.6460 C   0  0  0  0  0  0  0  0  0  0  0  0
  188.6000  175.7680  144.1280 C   0  0  1  0  0  3  0  0  0  0  0  0
  194.8110  174.5750  145.7780 C   0  0  0  0  0  0  0  0  0  0  0  0
  192.6300  175.6690  145.6310 C   0  0  0  0  0  0  0  0  0  0  0  0
  188.8030  175.0120  141.7940 C   0  0  0  0  0  0  0  0  0  0  0  0
  190.9490  174.7370  144.1320 C   0  0  0  0  0  0  0  0  0  0  0  0
  189.7280  172.8920  141.0550 C   0  0  0  0  0  3  0  0  0  0  0  0
  191.7410  176.6740  146.0110 O   0  0  0  0  0  0  0  0  0  0  0  0
  188.2180  174.1070  139.6150 C   0  0  0  0  0  3  0  0  0  0  0  0
  188.1180  175.1120  140.5770 C   0  0  0  0  0  3  0  0  0  0  0  0
  189.6530  173.8980  142.0270 C   0  0  0  0  0  0  0  0  0  0  0  0
  185.9490  178.4160  146.2450 C   0  0  0  0  0  3  0  0  0  0  0  0
  187.6610  176.6930  144.8500 C   0  0  0  0  0  0  0  0  0  0  0  0
  187.3130  176.4160  146.1770 C   0  0  0  0  0  3  0  0  0  0  0  0
  186.4570  177.2750  146.8730 C   0  0  0  0  0  3  0  0  0  0  0  0
  186.2990  178.7000  144.9220 C   0  0  0  0  0  3  0  0  0  0  0  0
  187.1540  177.8420  144.2260 C   0  0  0  0  0  3  0  0  0  0  0  0
  1 12  1  0  0  0  0
  2  6  2  0  0  0  0
  3 16  1  0  0  0  0
  6 18  1  0  0  0  0
  7 11  1  0  0  0  0
  7  9  1  0  0  0  0
  8 17  1  0  0  0  0
  9 13  2  0  0  0  0
 10  8  1  0  0  0  0
 11 14  1  0  0  0  0
 12  2  1  0  0  0  0
 12 23  1  1  0  0  0
 13  4  1  0  0  0  0
 13  5  1  0  0  0  0
 14 18  1  0  0  0  0
 14  4  2  0  0  0  0
 15 21  1  0  0  0  0
 15  1  1  0  0  0  0
 16  2  1  0  0  0  0
 16 11  2  0  0  0  0
 17 21  2  0  0  0  0
 19  8  2  0  0  0  0
 19 20  1  0  0  0  0
 20 15  2  0  0  0  0
 21  3  1  0  0  0  0
 22 25  1  0  0  0  0
 23 24  1  0  0  0  0
 24 25  2  0  0  0  0
 26 22  2  0  0  0  0
 27 23  2  0  0  0  0
 27 26  1  0  0  0  0
M  END
>  <MODEL>
9

>  <REMARK>
 VINA RESULT:      -7.4      2.523      5.608
  Name = 
  1 active torsions:
  status: ('A' for Active; 'I' for Inactive)
    1  A    between atoms: C_9  and  C_15
                            x       y       z     vdW  Elec       q    Type
                         _______ _______ _______ _____ _____    ______ ____

>  <TORSDO>
F 1

$$$$
