=
 OpenBabel11052419233D

 32 33  0  0  1  0  0  0  0  0999 V2000
  188.3770  175.6040  141.3410 C   0  0  0  0  0  2  0  0  0  0  0  0
  187.1160  176.3230  141.2690 N   0  0  0  0  0  2  0  0  0  0  0  0
  187.4360  177.7440  141.2240 C   0  0  1  0  0  3  0  0  0  0  0  0
  186.6900  178.5550  142.2910 C   0  0  2  0  0  3  0  0  0  0  0  0
  188.1310  178.1430  142.5090 C   0  0  0  0  0  2  0  0  0  0  0  0
  185.7790  177.7210  143.1900 C   0  0  0  0  0  2  0  0  0  0  0  0
  185.3190  178.5330  144.3910 C   0  0  2  0  0  3  0  0  0  0  0  0
  185.4420  180.0260  144.1070 C   0  0  0  0  0  1  0  0  0  0  0  0
  186.0820  178.0990  145.6500 C   0  0  1  0  0  3  0  0  0  0  0  0
  186.3080  179.2440  147.8780 O   0  0  0  0  0  1  0  0  0  0  0  0
  185.5090  178.5890  146.9480 C   0  0  0  0  0  0  0  0  0  0  0  0
  184.2900  178.4000  147.1990 O   0  0  0  0  0  0  0  0  0  0  0  0
  186.4700  176.6200  145.6690 C   0  0  0  0  0  2  0  0  0  0  0  0
  187.7420  176.3490  146.4660 C   0  0  0  0  0  2  0  0  0  0  0  0
  189.9900  177.2740  146.9970 C   0  0  0  0  0  1  0  0  0  0  0  0
  188.8730  177.2330  145.9740 C   0  0  0  0  0  2  0  0  0  0  0  0
  188.3110  174.5330  142.4260 C   0  0  2  0  0  3  0  0  0  0  0  0
  189.5070  174.6070  143.3260 C   0  0  0  0  0  0  0  0  0  0  0  0
  189.5930  173.8260  144.4880 C   0  0  0  0  0  3  0  0  0  0  0  0
  190.5670  175.4530  142.9840 C   0  0  0  0  0  3  0  0  0  0  0  0
  192.9030  174.8090  145.7790 O   0  0  0  0  0  1  0  0  0  0  0  0
  191.7830  174.7470  144.9600 C   0  0  0  0  0  0  0  0  0  0  0  0
  190.7270  173.8980  145.3010 C   0  0  0  0  0  3  0  0  0  0  0  0
  191.7080  175.5320  143.7980 C   0  0  0  0  0  0  0  0  0  0  0  0
  192.7980  176.3950  143.4560 N   0  0  0  0  0  2  0  0  0  0  0  0
  193.8790  176.0160  142.5540 C   0  0  0  0  0  2  0  0  0  0  0  0
  195.2020  176.0290  143.2960 C   0  0  0  0  0  1  0  0  0  0  0  0
  188.1870  173.1420  141.8140 C   0  0  0  0  0  2  0  0  0  0  0  0
  189.0690  173.0020  140.5820 C   0  0  2  0  0  3  0  0  0  0  0  0
  188.1960  172.6680  139.3880 C   0  0  0  0  0  1  0  0  0  0  0  0
  189.9300  171.3240  142.0530 O   0  0  0  0  0  1  0  0  0  0  0  0
  190.0920  171.8940  140.7920 C   0  0  0  0  0  2  0  0  0  0  0  0
  2  1  1  0  0  0  0
  3  2  1  1  0  0  0
  3  4  1  0  0  0  0
  3  5  1  0  0  0  0
  4  5  1  0  0  0  0
  4  6  1  1  0  0  0
  6  7  1  0  0  0  0
  7  8  1  6  0  0  0
  7  9  1  0  0  0  0
  9 13  1  1  0  0  0
  9 11  1  0  0  0  0
 11 12  2  0  0  0  0
 11 10  1  0  0  0  0
 13 14  1  0  0  0  0
 16 14  1  0  0  0  0
 16 15  1  0  0  0  0
 17  1  1  6  0  0  0
 17 18  1  0  0  0  0
 18 19  1  0  0  0  0
 19 23  2  0  0  0  0
 20 18  2  0  0  0  0
 20 24  1  0  0  0  0
 22 23  1  0  0  0  0
 22 21  1  0  0  0  0
 24 22  2  0  0  0  0
 25 24  1  0  0  0  0
 26 27  1  0  0  0  0
 26 25  1  0  0  0  0
 28 17  1  0  0  0  0
 29 30  1  6  0  0  0
 29 32  1  0  0  0  0
 29 28  1  0  0  0  0
 32 31  1  0  0  0  0
M  END
>  <MODEL>
1

>  <REMARK>
 VINA RESULT:      -5.8      0.000      0.000
  Name = 
  16 active torsions:
  status: ('A' for Active; 'I' for Inactive)
    1  A    between atoms: N_1  and  C_4
    2  A    between atoms: N_1  and  C_5
    3  A    between atoms: C_2  and  C_14
    4  A    between atoms: C_3  and  C_15
    5  A    between atoms: C_3  and  C_20
    6  A    between atoms: C_3  and  C_22
    7  A    between atoms: C_5  and  C_14
    8  A    between atoms: C_9  and  N_28
    9  A    between atoms: C_13  and  C_29
   10  A    between atoms: C_13  and  C_30
   11  A    between atoms: C_14  and  C_30
   12  A    between atoms: C_15  and  C_26
   13  A    between atoms: C_16  and  C_20
   14  A    between atoms: C_16  and  C_24
   15  A    between atoms: C_19  and  C_26
   16  A    between atoms: N_28  and  C_32
                            x       y       z     vdW  Elec       q    Type
                         _______ _______ _______ _____ _____    ______ ____

>  <TORSDO>
F 16

$$$$
=
 OpenBabel11052419233D

 32 33  0  0  1  0  0  0  0  0999 V2000
  188.7920  175.2460  141.7170 C   0  0  0  0  0  2  0  0  0  0  0  0
  187.4210  175.5670  142.0770 N   0  0  0  0  0  2  0  0  0  0  0  0
  187.1220  176.8720  141.5030 C   0  0  1  0  0  3  0  0  0  0  0  0
  186.2310  177.7300  142.4090 C   0  0  2  0  0  3  0  0  0  0  0  0
  187.7280  177.9540  142.3710 C   0  0  0  0  0  2  0  0  0  0  0  0
  185.8470  177.0610  143.7270 C   0  0  0  0  0  2  0  0  0  0  0  0
  185.4280  178.1000  144.7560 C   0  0  2  0  0  3  0  0  0  0  0  0
  185.2350  179.4610  144.0950 C   0  0  0  0  0  1  0  0  0  0  0  0
  186.4320  178.1350  145.9160 C   0  0  1  0  0  3  0  0  0  0  0  0
  186.6940  178.9760  148.2720 O   0  0  0  0  0  1  0  0  0  0  0  0
  185.8630  178.5460  147.2440 C   0  0  0  0  0  0  0  0  0  0  0  0
  184.6200  178.4940  147.4290 O   0  0  0  0  0  0  0  0  0  0  0  0
  187.3470  176.9120  145.9900 C   0  0  0  0  0  2  0  0  0  0  0  0
  188.8270  177.2740  145.9670 C   0  0  0  0  0  2  0  0  0  0  0  0
  188.9750  175.0120  146.9940 C   0  0  0  0  0  1  0  0  0  0  0  0
  189.6040  176.3890  146.9240 C   0  0  0  0  0  2  0  0  0  0  0  0
  189.4470  174.4200  142.8200 C   0  0  2  0  0  3  0  0  0  0  0  0
  190.6060  175.1550  143.4230 C   0  0  0  0  0  0  0  0  0  0  0  0
  190.8530  176.5020  143.1170 C   0  0  0  0  0  3  0  0  0  0  0  0
  191.4390  174.4910  144.3290 C   0  0  0  0  0  3  0  0  0  0  0  0
  193.8270  177.1830  145.1860 O   0  0  0  0  0  1  0  0  0  0  0  0
  192.7610  176.5040  144.6080 C   0  0  0  0  0  0  0  0  0  0  0  0
  191.9270  177.1710  143.7070 C   0  0  0  0  0  3  0  0  0  0  0  0
  192.5220  175.1570  144.9240 C   0  0  0  0  0  0  0  0  0  0  0  0
  193.3800  174.4840  145.8530 N   0  0  0  0  0  2  0  0  0  0  0  0
  194.4970  173.6360  145.4540 C   0  0  0  0  0  2  0  0  0  0  0  0
  195.8090  174.3410  145.7370 C   0  0  0  0  0  1  0  0  0  0  0  0
  189.8920  173.0600  142.2940 C   0  0  0  0  0  2  0  0  0  0  0  0
  190.4390  173.1690  140.8790 C   0  0  2  0  0  3  0  0  0  0  0  0
  189.8610  172.0460  140.0400 C   0  0  0  0  0  1  0  0  0  0  0  0
  192.5260  174.3080  140.6180 O   0  0  0  0  0  1  0  0  0  0  0  0
  191.9580  173.0660  140.8930 C   0  0  0  0  0  2  0  0  0  0  0  0
  1  2  1  0  0  0  0
  3  2  1  1  0  0  0
  3  5  1  0  0  0  0
  3  4  1  0  0  0  0
  4  6  1  1  0  0  0
  5  4  1  0  0  0  0
  6  7  1  0  0  0  0
  7  8  1  6  0  0  0
  7  9  1  0  0  0  0
  9 13  1  1  0  0  0
  9 11  1  0  0  0  0
 11 12  2  0  0  0  0
 11 10  1  0  0  0  0
 14 13  1  0  0  0  0
 14 16  1  0  0  0  0
 16 15  1  0  0  0  0
 17  1  1  6  0  0  0
 17 18  1  0  0  0  0
 18 20  1  0  0  0  0
 19 18  2  0  0  0  0
 19 23  1  0  0  0  0
 20 24  2  0  0  0  0
 22 24  1  0  0  0  0
 22 21  1  0  0  0  0
 23 22  2  0  0  0  0
 24 25  1  0  0  0  0
 26 27  1  0  0  0  0
 26 25  1  0  0  0  0
 28 17  1  0  0  0  0
 29 30  1  6  0  0  0
 29 32  1  0  0  0  0
 29 28  1  0  0  0  0
 31 32  1  0  0  0  0
M  END
>  <MODEL>
2

>  <REMARK>
 VINA RESULT:      -5.4      1.606      1.994
  Name = 
  16 active torsions:
  status: ('A' for Active; 'I' for Inactive)
    1  A    between atoms: N_1  and  C_4
    2  A    between atoms: N_1  and  C_5
    3  A    between atoms: C_2  and  C_14
    4  A    between atoms: C_3  and  C_15
    5  A    between atoms: C_3  and  C_20
    6  A    between atoms: C_3  and  C_22
    7  A    between atoms: C_5  and  C_14
    8  A    between atoms: C_9  and  N_28
    9  A    between atoms: C_13  and  C_29
   10  A    between atoms: C_13  and  C_30
   11  A    between atoms: C_14  and  C_30
   12  A    between atoms: C_15  and  C_26
   13  A    between atoms: C_16  and  C_20
   14  A    between atoms: C_16  and  C_24
   15  A    between atoms: C_19  and  C_26
   16  A    between atoms: N_28  and  C_32
                            x       y       z     vdW  Elec       q    Type
                         _______ _______ _______ _____ _____    ______ ____

>  <TORSDO>
F 16

$$$$
=
 OpenBabel11052419233D

 32 33  0  0  1  0  0  0  0  0999 V2000
  188.4890  177.6480  145.4660 C   0  0  0  0  0  2  0  0  0  0  0  0
  189.3730  176.9340  146.3720 N   0  0  0  0  0  2  0  0  0  0  0  0
  189.2720  175.5190  146.0420 C   0  0  1  0  0  3  0  0  0  0  0  0
  190.5290  174.7280  146.4230 C   0  0  2  0  0  3  0  0  0  0  0  0
  189.3060  174.7020  147.3160 C   0  0  0  0  0  2  0  0  0  0  0  0
  191.6230  175.5670  147.0790 C   0  0  0  0  0  2  0  0  0  0  0  0
  192.9700  175.3020  146.4240 C   0  0  2  0  0  3  0  0  0  0  0  0
  193.9230  176.4660  146.6720 C   0  0  0  0  0  1  0  0  0  0  0  0
  192.7830  174.9880  144.9340 C   0  0  1  0  0  3  0  0  0  0  0  0
  191.9110  177.1650  144.0250 O   0  0  0  0  0  1  0  0  0  0  0  0
  192.8810  176.1700  144.0120 C   0  0  0  0  0  0  0  0  0  0  0  0
  193.8500  176.2560  143.2150 O   0  0  0  0  0  0  0  0  0  0  0  0
  193.5620  173.7640  144.4490 C   0  0  0  0  0  2  0  0  0  0  0  0
  194.2790  173.0310  145.5770 C   0  0  0  0  0  2  0  0  0  0  0  0
  196.6100  173.7550  146.0640 C   0  0  0  0  0  1  0  0  0  0  0  0
  195.7430  172.8320  145.2310 C   0  0  0  0  0  2  0  0  0  0  0  0
  187.4050  176.7110  144.9410 C   0  0  2  0  0  3  0  0  0  0  0  0
  187.2140  176.8850  143.4650 C   0  0  0  0  0  0  0  0  0  0  0  0
  186.5440  178.0020  142.9440 C   0  0  0  0  0  3  0  0  0  0  0  0
  187.7390  175.9280  142.5900 C   0  0  0  0  0  3  0  0  0  0  0  0
  186.7600  177.3560  139.3210 O   0  0  0  0  0  1  0  0  0  0  0  0
  186.9170  177.1930  140.6920 C   0  0  0  0  0  0  0  0  0  0  0  0
  186.3950  178.1530  141.5640 C   0  0  0  0  0  3  0  0  0  0  0  0
  187.5920  176.0720  141.2020 C   0  0  0  0  0  0  0  0  0  0  0  0
  188.1270  175.0970  140.3000 N   0  0  0  0  0  2  0  0  0  0  0  0
  189.1840  174.1590  140.6560 C   0  0  0  0  0  2  0  0  0  0  0  0
  188.6280  172.7490  140.7160 C   0  0  0  0  0  1  0  0  0  0  0  0
  186.0890  176.9280  145.6790 C   0  0  0  0  0  2  0  0  0  0  0  0
  186.1460  178.1740  146.5510 C   0  0  2  0  0  3  0  0  0  0  0  0
  185.9760  177.7670  148.0020 C   0  0  0  0  0  1  0  0  0  0  0  0
  184.0700  178.4800  145.4030 O   0  0  0  0  0  1  0  0  0  0  0  0
  185.0370  179.1410  146.1580 C   0  0  0  0  0  2  0  0  0  0  0  0
  1  2  1  0  0  0  0
  3  2  1  1  0  0  0
  3  4  1  0  0  0  0
  3  5  1  0  0  0  0
  4  6  1  1  0  0  0
  4  5  1  0  0  0  0
  7  8  1  6  0  0  0
  7  6  1  0  0  0  0
  9 13  1  6  0  0  0
  9  7  1  0  0  0  0
 11 10  1  0  0  0  0
 11  9  1  0  0  0  0
 12 11  2  0  0  0  0
 13 14  1  0  0  0  0
 16 14  1  0  0  0  0
 16 15  1  0  0  0  0
 17  1  1  1  0  0  0
 17 28  1  0  0  0  0
 18 17  1  0  0  0  0
 19 18  1  0  0  0  0
 20 18  2  0  0  0  0
 21 22  1  0  0  0  0
 22 24  2  0  0  0  0
 22 23  1  0  0  0  0
 23 19  2  0  0  0  0
 24 20  1  0  0  0  0
 25 26  1  0  0  0  0
 25 24  1  0  0  0  0
 26 27  1  0  0  0  0
 28 29  1  0  0  0  0
 29 30  1  1  0  0  0
 31 32  1  0  0  0  0
 32 29  1  0  0  0  0
M  END
>  <MODEL>
3

>  <REMARK>
 VINA RESULT:      -5.4      2.453      7.321
  Name = 
  16 active torsions:
  status: ('A' for Active; 'I' for Inactive)
    1  A    between atoms: N_1  and  C_4
    2  A    between atoms: N_1  and  C_5
    3  A    between atoms: C_2  and  C_14
    4  A    between atoms: C_3  and  C_15
    5  A    between atoms: C_3  and  C_20
    6  A    between atoms: C_3  and  C_22
    7  A    between atoms: C_5  and  C_14
    8  A    between atoms: C_9  and  N_28
    9  A    between atoms: C_13  and  C_29
   10  A    between atoms: C_13  and  C_30
   11  A    between atoms: C_14  and  C_30
   12  A    between atoms: C_15  and  C_26
   13  A    between atoms: C_16  and  C_20
   14  A    between atoms: C_16  and  C_24
   15  A    between atoms: C_19  and  C_26
   16  A    between atoms: N_28  and  C_32
                            x       y       z     vdW  Elec       q    Type
                         _______ _______ _______ _____ _____    ______ ____

>  <TORSDO>
F 16

$$$$
=
 OpenBabel11052419233D

 32 33  0  0  1  0  0  0  0  0999 V2000
  191.1240  175.2560  146.4150 C   0  0  0  0  0  2  0  0  0  0  0  0
  190.5770  176.5410  146.0080 N   0  0  0  0  0  2  0  0  0  0  0  0
  189.4830  176.8470  146.9200 C   0  0  1  0  0  3  0  0  0  0  0  0
  188.1880  177.2230  146.1900 C   0  0  2  0  0  3  0  0  0  0  0  0
  188.3790  175.8260  146.7420 C   0  0  0  0  0  2  0  0  0  0  0  0
  188.2940  177.1900  144.6670 C   0  0  0  0  0  2  0  0  0  0  0  0
  186.9130  177.1970  144.0310 C   0  0  2  0  0  3  0  0  0  0  0  0
  186.6760  175.9080  143.2510 C   0  0  0  0  0  1  0  0  0  0  0  0
  186.7280  178.4570  143.1750 C   0  0  1  0  0  3  0  0  0  0  0  0
  188.2140  178.0950  141.1780 O   0  0  0  0  0  1  0  0  0  0  0  0
  186.9370  178.2660  141.7000 C   0  0  0  0  0  0  0  0  0  0  0  0
  185.9440  178.2670  140.9280 O   0  0  0  0  0  0  0  0  0  0  0  0
  185.4800  179.2710  143.5190 C   0  0  0  0  0  2  0  0  0  0  0  0
  185.3350  179.5320  145.0140 C   0  0  0  0  0  2  0  0  0  0  0  0
  184.4200  177.9440  146.6980 C   0  0  0  0  0  1  0  0  0  0  0  0
  184.0780  178.8700  145.5470 C   0  0  0  0  0  2  0  0  0  0  0  0
  191.6270  174.4880  145.1960 C   0  0  2  0  0  3  0  0  0  0  0  0
  193.0290  174.8890  144.8510 C   0  0  0  0  0  0  0  0  0  0  0  0
  194.0700  174.7720  145.7840 C   0  0  0  0  0  3  0  0  0  0  0  0
  193.3080  175.3630  143.5650 C   0  0  0  0  0  3  0  0  0  0  0  0
  196.9480  175.9670  143.8160 O   0  0  0  0  0  1  0  0  0  0  0  0
  195.6480  175.6110  144.1500 C   0  0  0  0  0  0  0  0  0  0  0  0
  195.3730  175.1330  145.4340 C   0  0  0  0  0  3  0  0  0  0  0  0
  194.6140  175.7290  143.2060 C   0  0  0  0  0  0  0  0  0  0  0  0
  194.9080  176.2160  141.8920 N   0  0  0  0  0  2  0  0  0  0  0  0
  195.2430  175.3530  140.7660 C   0  0  0  0  0  2  0  0  0  0  0  0
  196.6000  175.7320  140.2070 C   0  0  0  0  0  1  0  0  0  0  0  0
  190.7030  174.6930  144.0000 C   0  0  0  0  0  2  0  0  0  0  0  0
  189.6480  173.5990  143.9270 C   0  0  2  0  0  3  0  0  0  0  0  0
  190.2030  172.3360  144.5560 C   0  0  0  0  0  1  0  0  0  0  0  0
  189.6280  174.4120  141.6780 O   0  0  0  0  0  1  0  0  0  0  0  0
  189.2750  173.3260  142.4760 C   0  0  0  0  0  2  0  0  0  0  0  0
  2  1  1  0  0  0  0
  3  2  1  6  0  0  0
  4  6  1  6  0  0  0
  4  5  1  0  0  0  0
  4  3  1  0  0  0  0
  5  3  1  0  0  0  0
  7  8  1  6  0  0  0
  7  6  1  0  0  0  0
  9 13  1  6  0  0  0
  9  7  1  0  0  0  0
 10 11  1  0  0  0  0
 11  9  1  0  0  0  0
 12 11  2  0  0  0  0
 13 14  1  0  0  0  0
 14 16  1  0  0  0  0
 16 15  1  0  0  0  0
 17 28  1  6  0  0  0
 17  1  1  0  0  0  0
 18 17  1  0  0  0  0
 18 19  1  0  0  0  0
 20 18  2  0  0  0  0
 21 22  1  0  0  0  0
 22 23  1  0  0  0  0
 23 19  2  0  0  0  0
 24 20  1  0  0  0  0
 24 22  2  0  0  0  0
 25 24  1  0  0  0  0
 26 25  1  0  0  0  0
 27 26  1  0  0  0  0
 29 28  1  0  0  0  0
 29 30  1  6  0  0  0
 31 32  1  0  0  0  0
 32 29  1  0  0  0  0
M  END
>  <MODEL>
4

>  <REMARK>
 VINA RESULT:      -5.3      2.622      4.423
  Name = 
  16 active torsions:
  status: ('A' for Active; 'I' for Inactive)
    1  A    between atoms: N_1  and  C_4
    2  A    between atoms: N_1  and  C_5
    3  A    between atoms: C_2  and  C_14
    4  A    between atoms: C_3  and  C_15
    5  A    between atoms: C_3  and  C_20
    6  A    between atoms: C_3  and  C_22
    7  A    between atoms: C_5  and  C_14
    8  A    between atoms: C_9  and  N_28
    9  A    between atoms: C_13  and  C_29
   10  A    between atoms: C_13  and  C_30
   11  A    between atoms: C_14  and  C_30
   12  A    between atoms: C_15  and  C_26
   13  A    between atoms: C_16  and  C_20
   14  A    between atoms: C_16  and  C_24
   15  A    between atoms: C_19  and  C_26
   16  A    between atoms: N_28  and  C_32
                            x       y       z     vdW  Elec       q    Type
                         _______ _______ _______ _____ _____    ______ ____

>  <TORSDO>
F 16

$$$$
=
 OpenBabel11052419233D

 32 33  0  0  1  0  0  0  0  0999 V2000
  192.2330  175.5190  146.9720 C   0  0  0  0  0  2  0  0  0  0  0  0
  190.9510  176.2020  146.9060 N   0  0  0  0  0  2  0  0  0  0  0  0
  189.9180  175.1800  147.0090 C   0  0  1  0  0  3  0  0  0  0  0  0
  188.5420  175.6780  146.5510 C   0  0  2  0  0  3  0  0  0  0  0  0
  189.4030  174.8440  145.6250 C   0  0  0  0  0  2  0  0  0  0  0  0
  188.5270  177.1260  146.0690 C   0  0  0  0  0  2  0  0  0  0  0  0
  187.1030  177.6560  145.9970 C   0  0  2  0  0  3  0  0  0  0  0  0
  186.1680  176.7920  146.8370 C   0  0  0  0  0  1  0  0  0  0  0  0
  186.6540  177.7770  144.5350 C   0  0  1  0  0  3  0  0  0  0  0  0
  184.2570  178.2570  143.9420 O   0  0  0  0  0  0  0  0  0  0  0  0
  185.5170  178.7280  144.2900 C   0  0  0  0  0  0  0  0  0  0  0  0
  185.7120  179.9660  144.3960 O   0  0  0  0  0  1  0  0  0  0  0  0
  187.8030  177.9210  143.5360 C   0  0  0  0  0  2  0  0  0  0  0  0
  187.6720  176.9850  142.3400 C   0  0  0  0  0  2  0  0  0  0  0  0
  187.7680  174.5100  142.0990 C   0  0  0  0  0  1  0  0  0  0  0  0
  187.0510  175.6680  142.7640 C   0  0  0  0  0  2  0  0  0  0  0  0
  192.8320  175.3870  145.5740 C   0  0  2  0  0  3  0  0  0  0  0  0
  194.0280  174.4840  145.5870 C   0  0  0  0  0  0  0  0  0  0  0  0
  195.3140  174.9840  145.8420 C   0  0  0  0  0  3  0  0  0  0  0  0
  193.8530  173.1150  145.3650 C   0  0  0  0  0  3  0  0  0  0  0  0
  197.3350  171.9060  145.6700 O   0  0  0  0  0  1  0  0  0  0  0  0
  196.2340  172.7520  145.6420 C   0  0  0  0  0  0  0  0  0  0  0  0
  196.4110  174.1200  145.8680 C   0  0  0  0  0  3  0  0  0  0  0  0
  194.9510  172.2410  145.3880 C   0  0  0  0  0  0  0  0  0  0  0  0
  194.7800  170.8370  145.1620 N   0  0  0  0  0  2  0  0  0  0  0  0
  194.5590  169.8680  146.2280 C   0  0  0  0  0  2  0  0  0  0  0  0
  195.5070  168.6950  146.0660 C   0  0  0  0  0  1  0  0  0  0  0  0
  193.1980  176.7530  145.0040 C   0  0  0  0  0  2  0  0  0  0  0  0
  192.5770  176.9600  143.6300 C   0  0  2  0  0  3  0  0  0  0  0  0
  191.4020  177.9100  143.7600 C   0  0  0  0  0  1  0  0  0  0  0  0
  190.8930  175.8040  142.3870 O   0  0  0  0  0  1  0  0  0  0  0  0
  192.0990  175.6310  143.0640 C   0  0  0  0  0  2  0  0  0  0  0  0
  2  1  1  0  0  0  0
  3  2  1  6  0  0  0
  4  6  1  6  0  0  0
  4  3  1  0  0  0  0
  5  4  1  0  0  0  0
  5  3  1  0  0  0  0
  7  6  1  0  0  0  0
  7  8  1  1  0  0  0
  9 13  1  6  0  0  0
  9  7  1  0  0  0  0
 10 11  2  0  0  0  0
 11 12  1  0  0  0  0
 11  9  1  0  0  0  0
 14 16  1  0  0  0  0
 14 13  1  0  0  0  0
 15 16  1  0  0  0  0
 17 28  1  1  0  0  0
 17 18  1  0  0  0  0
 17  1  1  0  0  0  0
 18 19  1  0  0  0  0
 19 23  2  0  0  0  0
 20 24  1  0  0  0  0
 20 18  2  0  0  0  0
 22 21  1  0  0  0  0
 22 23  1  0  0  0  0
 24 22  2  0  0  0  0
 25 24  1  0  0  0  0
 25 26  1  0  0  0  0
 27 26  1  0  0  0  0
 29 30  1  1  0  0  0
 29 28  1  0  0  0  0
 31 32  1  0  0  0  0
 32 29  1  0  0  0  0
M  END
>  <MODEL>
5

>  <REMARK>
 VINA RESULT:      -5.3      3.106      5.343
  Name = 
  16 active torsions:
  status: ('A' for Active; 'I' for Inactive)
    1  A    between atoms: N_1  and  C_4
    2  A    between atoms: N_1  and  C_5
    3  A    between atoms: C_2  and  C_14
    4  A    between atoms: C_3  and  C_15
    5  A    between atoms: C_3  and  C_20
    6  A    between atoms: C_3  and  C_22
    7  A    between atoms: C_5  and  C_14
    8  A    between atoms: C_9  and  N_28
    9  A    between atoms: C_13  and  C_29
   10  A    between atoms: C_13  and  C_30
   11  A    between atoms: C_14  and  C_30
   12  A    between atoms: C_15  and  C_26
   13  A    between atoms: C_16  and  C_20
   14  A    between atoms: C_16  and  C_24
   15  A    between atoms: C_19  and  C_26
   16  A    between atoms: N_28  and  C_32
                            x       y       z     vdW  Elec       q    Type
                         _______ _______ _______ _____ _____    ______ ____

>  <TORSDO>
F 16

$$$$
=
 OpenBabel11052419233D

 32 33  0  0  1  0  0  0  0  0999 V2000
  187.5680  176.3060  141.5780 C   0  0  0  0  0  2  0  0  0  0  0  0
  188.1100  175.2780  142.4520 N   0  0  0  0  0  2  0  0  0  0  0  0
  188.7540  174.2880  141.5980 C   0  0  1  0  0  3  0  0  0  0  0  0
  190.1070  173.8200  142.1470 C   0  0  2  0  0  3  0  0  0  0  0  0
  188.8660  172.9770  142.3460 C   0  0  0  0  0  2  0  0  0  0  0  0
  190.5030  174.4660  143.4730 C   0  0  0  0  0  2  0  0  0  0  0  0
  190.5410  173.4300  144.5860 C   0  0  2  0  0  3  0  0  0  0  0  0
  189.5860  173.8170  145.7100 C   0  0  0  0  0  1  0  0  0  0  0  0
  191.9820  173.2220  145.0700 C   0  0  1  0  0  3  0  0  0  0  0  0
  192.0640  171.2250  143.5430 O   0  0  0  0  0  0  0  0  0  0  0  0
  192.6980  172.0470  144.4670 C   0  0  0  0  0  0  0  0  0  0  0  0
  193.8840  171.8030  144.8070 O   0  0  0  0  0  1  0  0  0  0  0  0
  192.8210  174.5000  145.1080 C   0  0  0  0  0  2  0  0  0  0  0  0
  192.8900  175.1250  146.4980 C   0  0  0  0  0  2  0  0  0  0  0  0
  194.0670  176.7520  145.0280 C   0  0  0  0  0  1  0  0  0  0  0  0
  193.6370  176.4440  146.4480 C   0  0  0  0  0  2  0  0  0  0  0  0
  187.9030  177.6910  142.1240 C   0  0  2  0  0  3  0  0  0  0  0  0
  188.4930  177.5970  143.4990 C   0  0  0  0  0  0  0  0  0  0  0  0
  189.8670  177.7780  143.7160 C   0  0  0  0  0  3  0  0  0  0  0  0
  187.6500  177.3510  144.5870 C   0  0  0  0  0  3  0  0  0  0  0  0
  190.0820  177.3840  147.3740 O   0  0  0  0  0  1  0  0  0  0  0  0
  189.5470  177.4540  146.0940 C   0  0  0  0  0  0  0  0  0  0  0  0
  190.3900  177.7050  145.0080 C   0  0  0  0  0  3  0  0  0  0  0  0
  188.1690  177.2750  145.8890 C   0  0  0  0  0  0  0  0  0  0  0  0
  187.3130  177.0230  147.0100 N   0  0  0  0  0  2  0  0  0  0  0  0
  185.8580  177.0340  146.9340 C   0  0  0  0  0  2  0  0  0  0  0  0
  185.3280  178.3960  147.3400 C   0  0  0  0  0  1  0  0  0  0  0  0
  186.6720  178.5900  142.1300 C   0  0  0  0  0  2  0  0  0  0  0  0
  185.4110  177.7990  141.8150 C   0  0  2  0  0  3  0  0  0  0  0  0
  184.8410  178.2850  140.4960 C   0  0  0  0  0  1  0  0  0  0  0  0
  184.6810  179.1320  143.6610 O   0  0  0  0  0  1  0  0  0  0  0  0
  184.3810  177.9910  142.9190 C   0  0  0  0  0  2  0  0  0  0  0  0
  1  2  1  0  0  0  0
  3  4  1  0  0  0  0
  3  5  1  0  0  0  0
  3  2  1  1  0  0  0
  4  5  1  0  0  0  0
  4  6  1  1  0  0  0
  6  7  1  0  0  0  0
  7  9  1  0  0  0  0
  7  8  1  1  0  0  0
  9 13  1  6  0  0  0
 10 11  2  0  0  0  0
 11 12  1  0  0  0  0
 11  9  1  0  0  0  0
 13 14  1  0  0  0  0
 15 16  1  0  0  0  0
 16 14  1  0  0  0  0
 17  1  1  1  0  0  0
 17 28  1  0  0  0  0
 17 18  1  0  0  0  0
 18 19  2  0  0  0  0
 18 20  1  0  0  0  0
 19 23  1  0  0  0  0
 20 24  2  0  0  0  0
 22 21  1  0  0  0  0
 23 22  2  0  0  0  0
 24 22  1  0  0  0  0
 24 25  1  0  0  0  0
 26 25  1  0  0  0  0
 26 27  1  0  0  0  0
 29 30  1  6  0  0  0
 29 28  1  0  0  0  0
 29 32  1  0  0  0  0
 32 31  1  0  0  0  0
M  END
>  <MODEL>
6

>  <REMARK>
 VINA RESULT:      -5.2      2.159      6.620
  Name = 
  16 active torsions:
  status: ('A' for Active; 'I' for Inactive)
    1  A    between atoms: N_1  and  C_4
    2  A    between atoms: N_1  and  C_5
    3  A    between atoms: C_2  and  C_14
    4  A    between atoms: C_3  and  C_15
    5  A    between atoms: C_3  and  C_20
    6  A    between atoms: C_3  and  C_22
    7  A    between atoms: C_5  and  C_14
    8  A    between atoms: C_9  and  N_28
    9  A    between atoms: C_13  and  C_29
   10  A    between atoms: C_13  and  C_30
   11  A    between atoms: C_14  and  C_30
   12  A    between atoms: C_15  and  C_26
   13  A    between atoms: C_16  and  C_20
   14  A    between atoms: C_16  and  C_24
   15  A    between atoms: C_19  and  C_26
   16  A    between atoms: N_28  and  C_32
                            x       y       z     vdW  Elec       q    Type
                         _______ _______ _______ _____ _____    ______ ____

>  <TORSDO>
F 16

$$$$
=
 OpenBabel11052419233D

 32 33  0  0  1  0  0  0  0  0999 V2000
  191.5040  175.8650  146.3560 C   0  0  0  0  0  2  0  0  0  0  0  0
  190.6270  176.8530  145.7500 N   0  0  0  0  0  2  0  0  0  0  0  0
  189.5730  177.1380  146.7150 C   0  0  1  0  0  3  0  0  0  0  0  0
  188.1970  177.3070  146.0600 C   0  0  2  0  0  3  0  0  0  0  0  0
  188.5760  175.9990  146.7220 C   0  0  0  0  0  2  0  0  0  0  0  0
  188.1980  177.1300  144.5430 C   0  0  0  0  0  2  0  0  0  0  0  0
  186.7890  177.2570  143.9850 C   0  0  2  0  0  3  0  0  0  0  0  0
  186.3810  175.9760  143.2650 C   0  0  0  0  0  1  0  0  0  0  0  0
  186.6780  178.5030  143.0970 C   0  0  1  0  0  3  0  0  0  0  0  0
  185.5530  178.3270  140.8550 O   0  0  0  0  0  0  0  0  0  0  0  0
  186.7110  178.2420  141.6180 C   0  0  0  0  0  0  0  0  0  0  0  0
  187.7990  177.9370  141.0670 O   0  0  0  0  0  1  0  0  0  0  0  0
  185.5850  179.4830  143.5250 C   0  0  0  0  0  2  0  0  0  0  0  0
  185.4360  179.5830  145.0390 C   0  0  0  0  0  2  0  0  0  0  0  0
  184.3440  178.2330  146.8220 C   0  0  0  0  0  1  0  0  0  0  0  0
  184.1450  178.9250  145.4890 C   0  0  0  0  0  2  0  0  0  0  0  0
  191.8890  174.8020  145.3320 C   0  0  2  0  0  3  0  0  0  0  0  0
  193.3540  174.8610  145.0220 C   0  0  0  0  0  0  0  0  0  0  0  0
  193.8820  175.8610  144.1920 C   0  0  0  0  0  3  0  0  0  0  0  0
  194.2120  173.9160  145.5930 C   0  0  0  0  0  3  0  0  0  0  0  0
  197.4710  175.0180  144.2340 O   0  0  0  0  0  1  0  0  0  0  0  0
  196.1080  174.9590  144.5010 C   0  0  0  0  0  0  0  0  0  0  0  0
  195.2540  175.9080  143.9330 C   0  0  0  0  0  3  0  0  0  0  0  0
  195.5910  173.9560  145.3360 C   0  0  0  0  0  0  0  0  0  0  0  0
  196.4770  172.9920  145.9170 N   0  0  0  0  0  2  0  0  0  0  0  0
  196.7780  171.7010  145.3110 C   0  0  0  0  0  2  0  0  0  0  0  0
  195.6280  170.7400  145.5400 C   0  0  0  0  0  1  0  0  0  0  0  0
  191.0660  174.9470  144.0570 C   0  0  0  0  0  2  0  0  0  0  0  0
  190.3080  173.6660  143.7410 C   0  0  2  0  0  3  0  0  0  0  0  0
  190.0100  172.9390  145.0380 C   0  0  0  0  0  1  0  0  0  0  0  0
  190.3770  171.6970  142.3850 O   0  0  0  0  0  1  0  0  0  0  0  0
  191.1420  172.7730  142.8340 C   0  0  0  0  0  2  0  0  0  0  0  0
  2  1  1  0  0  0  0
  3  2  1  6  0  0  0
  3  5  1  0  0  0  0
  4  6  1  6  0  0  0
  4  3  1  0  0  0  0
  4  5  1  0  0  0  0
  7  8  1  6  0  0  0
  7  6  1  0  0  0  0
  9 13  1  6  0  0  0
  9  7  1  0  0  0  0
 10 11  2  0  0  0  0
 11  9  1  0  0  0  0
 12 11  1  0  0  0  0
 13 14  1  0  0  0  0
 14 16  1  0  0  0  0
 16 15  1  0  0  0  0
 17 28  1  6  0  0  0
 17  1  1  0  0  0  0
 18 17  1  0  0  0  0
 18 20  1  0  0  0  0
 19 18  2  0  0  0  0
 21 22  1  0  0  0  0
 22 24  1  0  0  0  0
 23 19  1  0  0  0  0
 23 22  2  0  0  0  0
 24 20  2  0  0  0  0
 24 25  1  0  0  0  0
 26 27  1  0  0  0  0
 26 25  1  0  0  0  0
 29 28  1  0  0  0  0
 29 30  1  1  0  0  0
 31 32  1  0  0  0  0
 32 29  1  0  0  0  0
M  END
>  <MODEL>
7

>  <REMARK>
 VINA RESULT:      -5.2      2.885      4.818
  Name = 
  16 active torsions:
  status: ('A' for Active; 'I' for Inactive)
    1  A    between atoms: N_1  and  C_4
    2  A    between atoms: N_1  and  C_5
    3  A    between atoms: C_2  and  C_14
    4  A    between atoms: C_3  and  C_15
    5  A    between atoms: C_3  and  C_20
    6  A    between atoms: C_3  and  C_22
    7  A    between atoms: C_5  and  C_14
    8  A    between atoms: C_9  and  N_28
    9  A    between atoms: C_13  and  C_29
   10  A    between atoms: C_13  and  C_30
   11  A    between atoms: C_14  and  C_30
   12  A    between atoms: C_15  and  C_26
   13  A    between atoms: C_16  and  C_20
   14  A    between atoms: C_16  and  C_24
   15  A    between atoms: C_19  and  C_26
   16  A    between atoms: N_28  and  C_32
                            x       y       z     vdW  Elec       q    Type
                         _______ _______ _______ _____ _____    ______ ____

>  <TORSDO>
F 16

$$$$
=
 OpenBabel11052419233D

 32 33  0  0  1  0  0  0  0  0999 V2000
  190.9300  174.9840  144.0020 C   0  0  0  0  0  2  0  0  0  0  0  0
  189.5850  175.5350  143.9800 N   0  0  0  0  0  2  0  0  0  0  0  0
  189.6560  176.8060  143.2710 C   0  0  1  0  0  3  0  0  0  0  0  0
  188.5440  177.7790  143.6820 C   0  0  2  0  0  3  0  0  0  0  0  0
  189.9370  177.9180  144.2600 C   0  0  0  0  0  2  0  0  0  0  0  0
  187.5990  177.2360  144.7510 C   0  0  0  0  0  2  0  0  0  0  0  0
  186.1790  177.1360  144.2140 C   0  0  2  0  0  3  0  0  0  0  0  0
  186.0890  176.0600  143.1380 C   0  0  0  0  0  1  0  0  0  0  0  0
  185.6970  178.5100  143.7290 C   0  0  1  0  0  3  0  0  0  0  0  0
  183.5150  178.2900  142.4960 O   0  0  0  0  0  1  0  0  0  0  0  0
  184.8890  178.4950  142.4630 C   0  0  0  0  0  0  0  0  0  0  0  0
  185.4660  178.6650  141.3580 O   0  0  0  0  0  0  0  0  0  0  0  0
  185.1000  179.3890  144.8290 C   0  0  0  0  0  2  0  0  0  0  0  0
  184.1180  178.6380  145.7220 C   0  0  0  0  0  2  0  0  0  0  0  0
  185.9430  179.3350  147.2630 C   0  0  0  0  0  1  0  0  0  0  0  0
  184.5870  178.6650  147.1640 C   0  0  0  0  0  2  0  0  0  0  0  0
  191.7300  175.5920  145.1500 C   0  0  2  0  0  3  0  0  0  0  0  0
  193.1420  175.8690  144.7310 C   0  0  0  0  0  0  0  0  0  0  0  0
  194.1780  175.9530  145.6740 C   0  0  0  0  0  3  0  0  0  0  0  0
  193.4350  176.0190  143.3720 C   0  0  0  0  0  3  0  0  0  0  0  0
  197.0880  176.5860  143.5020 O   0  0  0  0  0  1  0  0  0  0  0  0
  195.7780  176.3470  143.9000 C   0  0  0  0  0  0  0  0  0  0  0  0
  195.4890  176.1930  145.2590 C   0  0  0  0  0  3  0  0  0  0  0  0
  194.7510  176.2610  142.9470 C   0  0  0  0  0  0  0  0  0  0  0  0
  195.0590  176.4160  141.5570 N   0  0  0  0  0  2  0  0  0  0  0  0
  195.0330  175.3210  140.5960 C   0  0  0  0  0  2  0  0  0  0  0  0
  195.5600  174.0530  141.2400 C   0  0  0  0  0  1  0  0  0  0  0  0
  191.7030  174.6860  146.3760 C   0  0  0  0  0  2  0  0  0  0  0  0
  190.8550  175.2880  147.4870 C   0  0  2  0  0  3  0  0  0  0  0  0
  189.4070  174.8940  147.2690 C   0  0  0  0  0  1  0  0  0  0  0  0
  191.5660  177.2460  148.6620 O   0  0  0  0  0  1  0  0  0  0  0  0
  190.9780  176.8050  147.4770 C   0  0  0  0  0  2  0  0  0  0  0  0
  2  1  1  0  0  0  0
  3  4  1  0  0  0  0
  3  2  1  1  0  0  0
  3  5  1  0  0  0  0
  4  5  1  0  0  0  0
  4  6  1  1  0  0  0
  7  8  1  6  0  0  0
  7  6  1  0  0  0  0
  9  7  1  0  0  0  0
  9 13  1  1  0  0  0
 11 10  1  0  0  0  0
 11  9  1  0  0  0  0
 12 11  2  0  0  0  0
 13 14  1  0  0  0  0
 14 16  1  0  0  0  0
 16 15  1  0  0  0  0
 17  1  1  6  0  0  0
 17 28  1  0  0  0  0
 18 17  1  0  0  0  0
 18 19  1  0  0  0  0
 20 18  2  0  0  0  0
 21 22  1  0  0  0  0
 22 23  1  0  0  0  0
 23 19  2  0  0  0  0
 24 20  1  0  0  0  0
 24 22  2  0  0  0  0
 25 24  1  0  0  0  0
 26 27  1  0  0  0  0
 26 25  1  0  0  0  0
 28 29  1  0  0  0  0
 29 30  1  6  0  0  0
 32 29  1  0  0  0  0
 32 31  1  0  0  0  0
M  END
>  <MODEL>
8

>  <REMARK>
 VINA RESULT:      -5.1      3.108      4.796
  Name = 
  16 active torsions:
  status: ('A' for Active; 'I' for Inactive)
    1  A    between atoms: N_1  and  C_4
    2  A    between atoms: N_1  and  C_5
    3  A    between atoms: C_2  and  C_14
    4  A    between atoms: C_3  and  C_15
    5  A    between atoms: C_3  and  C_20
    6  A    between atoms: C_3  and  C_22
    7  A    between atoms: C_5  and  C_14
    8  A    between atoms: C_9  and  N_28
    9  A    between atoms: C_13  and  C_29
   10  A    between atoms: C_13  and  C_30
   11  A    between atoms: C_14  and  C_30
   12  A    between atoms: C_15  and  C_26
   13  A    between atoms: C_16  and  C_20
   14  A    between atoms: C_16  and  C_24
   15  A    between atoms: C_19  and  C_26
   16  A    between atoms: N_28  and  C_32
                            x       y       z     vdW  Elec       q    Type
                         _______ _______ _______ _____ _____    ______ ____

>  <TORSDO>
F 16

$$$$
=
 OpenBabel11052419233D

 32 33  0  0  1  0  0  0  0  0999 V2000
  192.0340  174.1560  145.3880 C   0  0  0  0  0  2  0  0  0  0  0  0
  190.6240  174.0670  145.7300 N   0  0  0  0  0  2  0  0  0  0  0  0
  190.3660  175.0830  146.7420 C   0  0  1  0  0  3  0  0  0  0  0  0
  189.2200  176.0270  146.3580 C   0  0  2  0  0  3  0  0  0  0  0  0
  188.9790  174.8790  147.3160 C   0  0  0  0  0  2  0  0  0  0  0  0
  188.5730  175.7120  145.0110 C   0  0  0  0  0  2  0  0  0  0  0  0
  188.7650  176.8660  144.0390 C   0  0  2  0  0  3  0  0  0  0  0  0
  189.6890  177.9220  144.6370 C   0  0  0  0  0  1  0  0  0  0  0  0
  187.4050  177.4340  143.6120 C   0  0  1  0  0  3  0  0  0  0  0  0
  187.9500  176.8750  141.2210 O   0  0  0  0  0  0  0  0  0  0  0  0
  187.2310  177.6360  142.1340 C   0  0  0  0  0  0  0  0  0  0  0  0
  186.4270  178.5110  141.7190 O   0  0  0  0  0  1  0  0  0  0  0  0
  186.2070  176.7650  144.2870 C   0  0  0  0  0  2  0  0  0  0  0  0
  185.5230  177.6650  145.3100 C   0  0  0  0  0  2  0  0  0  0  0  0
  186.1330  177.9670  147.7040 C   0  0  0  0  0  1  0  0  0  0  0  0
  185.5420  177.0170  146.6820 C   0  0  0  0  0  2  0  0  0  0  0  0
  192.2430  175.1780  144.2750 C   0  0  2  0  0  3  0  0  0  0  0  0
  192.1580  174.5280  142.9270 C   0  0  0  0  0  0  0  0  0  0  0  0
  193.2700  173.8950  142.3520 C   0  0  0  0  0  3  0  0  0  0  0  0
  190.9380  174.5320  142.2430 C   0  0  0  0  0  3  0  0  0  0  0  0
  191.8490  172.6720  139.1790 O   0  0  0  0  0  1  0  0  0  0  0  0
  191.9420  173.2880  140.4200 C   0  0  0  0  0  0  0  0  0  0  0  0
  193.1610  173.2790  141.1040 C   0  0  0  0  0  3  0  0  0  0  0  0
  190.8210  173.9160  140.9870 C   0  0  0  0  0  0  0  0  0  0  0  0
  189.5760  173.9150  140.2800 N   0  0  0  0  0  2  0  0  0  0  0  0
  188.5190  172.9360  140.5040 C   0  0  0  0  0  2  0  0  0  0  0  0
  187.8510  173.1930  141.8410 C   0  0  0  0  0  1  0  0  0  0  0  0
  193.5770  175.9000  144.4370 C   0  0  0  0  0  2  0  0  0  0  0  0
  194.2070  175.5940  145.7880 C   0  0  2  0  0  3  0  0  0  0  0  0
  194.2230  176.8610  146.6210 C   0  0  0  0  0  1  0  0  0  0  0  0
  196.1170  175.4740  144.3530 O   0  0  0  0  0  1  0  0  0  0  0  0
  195.6300  175.0880  145.6010 C   0  0  0  0  0  2  0  0  0  0  0  0
  1  2  1  0  0  0  0
  3  2  1  6  0  0  0
  3  5  1  0  0  0  0
  4  6  1  6  0  0  0
  4  3  1  0  0  0  0
  4  5  1  0  0  0  0
  7  8  1  1  0  0  0
  7  6  1  0  0  0  0
  9  7  1  0  0  0  0
  9 13  1  6  0  0  0
 10 11  2  0  0  0  0
 11  9  1  0  0  0  0
 12 11  1  0  0  0  0
 13 14  1  0  0  0  0
 14 16  1  0  0  0  0
 16 15  1  0  0  0  0
 17 28  1  1  0  0  0
 17  1  1  0  0  0  0
 18 17  1  0  0  0  0
 19 18  1  0  0  0  0
 20 18  2  0  0  0  0
 21 22  1  0  0  0  0
 22 24  2  0  0  0  0
 22 23  1  0  0  0  0
 23 19  2  0  0  0  0
 24 20  1  0  0  0  0
 25 26  1  0  0  0  0
 25 24  1  0  0  0  0
 26 27  1  0  0  0  0
 28 29  1  0  0  0  0
 29 30  1  1  0  0  0
 31 32  1  0  0  0  0
 32 29  1  0  0  0  0
M  END
>  <MODEL>
9

>  <REMARK>
 VINA RESULT:      -5.1      2.583      5.621
  Name = 
  16 active torsions:
  status: ('A' for Active; 'I' for Inactive)
    1  A    between atoms: N_1  and  C_4
    2  A    between atoms: N_1  and  C_5
    3  A    between atoms: C_2  and  C_14
    4  A    between atoms: C_3  and  C_15
    5  A    between atoms: C_3  and  C_20
    6  A    between atoms: C_3  and  C_22
    7  A    between atoms: C_5  and  C_14
    8  A    between atoms: C_9  and  N_28
    9  A    between atoms: C_13  and  C_29
   10  A    between atoms: C_13  and  C_30
   11  A    between atoms: C_14  and  C_30
   12  A    between atoms: C_15  and  C_26
   13  A    between atoms: C_16  and  C_20
   14  A    between atoms: C_16  and  C_24
   15  A    between atoms: C_19  and  C_26
   16  A    between atoms: N_28  and  C_32
                            x       y       z     vdW  Elec       q    Type
                         _______ _______ _______ _____ _____    ______ ____

>  <TORSDO>
F 16

$$$$
