=
 OpenBabel11052417363D

 25 28  0  0  1  0  0  0  0  0999 V2000
  189.5100  176.3850  143.3180 N   0  0  0  0  0  0  0  0  0  0  0  0
  188.2380  176.9940  143.0560 C   0  0  0  0  0  0  0  0  0  0  0  0
  189.2570  174.8390  141.4910 C   0  0  0  0  0  3  0  0  0  0  0  0
  190.4960  176.6600  144.3640 C   0  0  0  0  0  0  0  0  0  0  0  0
  193.0560  175.9020  144.1800 C   0  0  0  0  0  2  0  0  0  0  0  0
  187.9490  175.4660  141.1750 C   0  0  0  0  0  3  0  0  0  0  0  0
  191.5810  175.6080  144.0360 C   0  0  0  0  0  0  0  0  0  0  0  0
  192.3730  174.9030  145.1150 C   0  0  0  0  0  2  0  0  0  0  0  0
  186.1480  177.1270  141.5390 C   0  0  2  0  0  3  0  0  0  0  0  0
  186.2550  177.7710  140.2410 N   0  0  0  0  0  1  0  0  0  0  0  0
  187.7380  177.9550  143.8310 C   0  0  0  0  0  3  0  0  0  0  0  0
  191.0170  178.0840  144.2360 C   0  0  0  0  0  1  0  0  0  0  0  0
  189.9720  175.3080  142.5150 C   0  0  0  0  0  0  0  0  0  0  0  0
  191.2020  174.8240  142.9170 O   0  0  0  0  0  0  0  0  0  0  0  0
  185.7060  178.1150  142.5340 N   0  0  0  0  0  0  0  0  0  0  0  0
  189.8840  176.4390  145.7410 C   0  0  0  0  0  1  0  0  0  0  0  0
  186.4070  178.5180  143.5570 C   0  0  0  0  0  0  0  0  0  0  0  0
  187.4610  176.4870  141.9040 C   0  0  0  0  0  0  0  0  0  0  0  0
  185.9030  179.4870  144.4280 O   0  0  0  0  0  0  0  0  0  0  0  0
  184.6800  179.3120  145.1280 C   0  0  0  0  0  2  0  0  0  0  0  0
  184.9100  178.4600  146.3280 C   0  0  0  0  0  0  0  0  0  0  0  0
  184.1620  177.4670  146.5340 O   0  0  0  0  0  0  0  0  0  0  0  0
  186.0200  178.7480  147.2450 C   0  0  0  0  0  0  0  0  0  0  0  0
  187.0510  177.8290  147.4070 O   0  0  0  0  0  0  0  0  0  0  0  0
  186.0460  179.8290  147.8890 O   0  0  0  0  0  1  0  0  0  0  0  0
  1  4  1  0  0  0  0
  2  1  1  0  0  0  0
  2 11  2  0  0  0  0
  3 13  2  0  0  0  0
  4 16  1  0  0  0  0
  5  8  1  0  0  0  0
  6  3  1  0  0  0  0
  6 18  2  0  0  0  0
  7  5  1  0  0  0  0
  7  4  1  0  0  0  0
  7  8  1  0  0  0  0
  9 10  1  6  0  0  0
  9 18  1  0  0  0  0
  9 15  1  0  0  0  0
 12  4  1  0  0  0  0
 13 14  1  0  0  0  0
 13  1  1  0  0  0  0
 14  7  1  0  0  0  0
 15 17  2  0  0  0  0
 17 11  1  0  0  0  0
 17 19  1  0  0  0  0
 18  2  1  0  0  0  0
 19 20  1  0  0  0  0
 20 21  1  0  0  0  0
 21 22  2  0  0  0  0
 21 23  1  0  0  0  0
 23 24  2  0  0  0  0
 23 25  1  0  0  0  0
M  END
>  <MODEL>
1

>  <REMARK>
 VINA RESULT:      -6.6      0.000      0.000
  Name = 
  4 active torsions:
  status: ('A' for Active; 'I' for Inactive)
    1  A    between atoms: C_2  and  C_21
    2  A    between atoms: O_6  and  C_15
    3  A    between atoms: O_6  and  C_23
    4  A    between atoms: C_15  and  C_21
                            x       y       z     vdW  Elec       q    Type
                         _______ _______ _______ _____ _____    ______ ____

>  <TORSDO>
F 4

$$$$
=
 OpenBabel11052417363D

 25 28  0  0  1  0  0  0  0  0999 V2000
  189.6960  175.7870  144.6250 N   0  0  0  0  0  0  0  0  0  0  0  0
  188.7750  176.0090  143.5480 C   0  0  0  0  0  0  0  0  0  0  0  0
  189.9620  173.4650  144.0520 C   0  0  0  0  0  3  0  0  0  0  0  0
  190.1880  176.7030  145.6550 C   0  0  0  0  0  0  0  0  0  0  0  0
  192.4190  176.2400  147.0610 C   0  0  0  0  0  2  0  0  0  0  0  0
  189.0340  173.6670  142.9110 C   0  0  0  0  0  3  0  0  0  0  0  0
  191.1110  175.7670  146.4710 C   0  0  0  0  0  0  0  0  0  0  0  0
  191.2470  175.8770  147.9730 C   0  0  0  0  0  2  0  0  0  0  0  0
  187.5630  175.0490  141.4750 C   0  0  2  0  0  3  0  0  0  0  0  0
  188.3110  174.8580  140.2440 N   0  0  0  0  0  1  0  0  0  0  0  0
  188.1740  177.1810  143.3580 C   0  0  0  0  0  3  0  0  0  0  0  0
  190.9550  177.8520  145.0170 C   0  0  0  0  0  1  0  0  0  0  0  0
  190.2550  174.4990  144.8420 C   0  0  0  0  0  0  0  0  0  0  0  0
  191.1010  174.4550  145.9330 O   0  0  0  0  0  0  0  0  0  0  0  0
  186.9270  176.3740  141.4530 N   0  0  0  0  0  0  0  0  0  0  0  0
  189.0320  177.2340  146.4900 C   0  0  0  0  0  1  0  0  0  0  0  0
  187.1980  177.3530  142.2710 C   0  0  0  0  0  0  0  0  0  0  0  0
  188.4730  174.8640  142.6600 C   0  0  0  0  0  0  0  0  0  0  0  0
  186.5540  178.5850  142.1430 O   0  0  0  0  0  0  0  0  0  0  0  0
  185.9490  179.2420  143.2480 C   0  0  0  0  0  2  0  0  0  0  0  0
  184.7800  178.4490  143.7210 C   0  0  0  0  0  0  0  0  0  0  0  0
  183.8810  178.1230  142.9000 O   0  0  0  0  0  0  0  0  0  0  0  0
  184.6910  178.0170  145.1220 C   0  0  0  0  0  0  0  0  0  0  0  0
  183.8570  178.6870  146.0090 O   0  0  0  0  0  1  0  0  0  0  0  0
  185.3690  177.0370  145.5280 O   0  0  0  0  0  0  0  0  0  0  0  0
  1 13  1  0  0  0  0
  1  4  1  0  0  0  0
  2  1  1  0  0  0  0
  3 13  2  0  0  0  0
  4  7  1  0  0  0  0
  4 16  1  0  0  0  0
  5  8  1  0  0  0  0
  6  3  1  0  0  0  0
  7  5  1  0  0  0  0
  7  8  1  0  0  0  0
  9 10  1  6  0  0  0
  9 18  1  0  0  0  0
 11  2  2  0  0  0  0
 12  4  1  0  0  0  0
 13 14  1  0  0  0  0
 14  7  1  0  0  0  0
 15  9  1  0  0  0  0
 15 17  2  0  0  0  0
 17 11  1  0  0  0  0
 18  6  2  0  0  0  0
 18  2  1  0  0  0  0
 19 17  1  0  0  0  0
 19 20  1  0  0  0  0
 20 21  1  0  0  0  0
 21 23  1  0  0  0  0
 22 21  2  0  0  0  0
 23 25  2  0  0  0  0
 23 24  1  0  0  0  0
M  END
>  <MODEL>
2

>  <REMARK>
 VINA RESULT:      -6.6      1.878      2.564
  Name = 
  4 active torsions:
  status: ('A' for Active; 'I' for Inactive)
    1  A    between atoms: C_2  and  C_21
    2  A    between atoms: O_6  and  C_15
    3  A    between atoms: O_6  and  C_23
    4  A    between atoms: C_15  and  C_21
                            x       y       z     vdW  Elec       q    Type
                         _______ _______ _______ _____ _____    ______ ____

>  <TORSDO>
F 4

$$$$
=
 OpenBabel11052417363D

 25 28  0  0  1  0  0  0  0  0999 V2000
  189.0850  175.1390  144.4920 N   0  0  0  0  0  0  0  0  0  0  0  0
  188.2230  176.1990  144.9300 C   0  0  0  0  0  0  0  0  0  0  0  0
  189.5690  174.4660  146.7510 C   0  0  0  0  0  3  0  0  0  0  0  0
  189.4800  174.7350  143.1420 C   0  0  0  0  0  0  0  0  0  0  0  0
  190.4820  172.3160  142.5870 C   0  0  0  0  0  2  0  0  0  0  0  0
  188.6620  175.5360  147.2370 C   0  0  0  0  0  3  0  0  0  0  0  0
  190.4320  173.5560  143.4500 C   0  0  0  0  0  0  0  0  0  0  0  0
  191.6690  173.2800  142.6240 C   0  0  0  0  0  2  0  0  0  0  0  0
  187.0750  177.4090  146.9060 C   0  0  2  0  0  3  0  0  0  0  0  0
  185.9410  176.7790  147.5590 N   0  0  0  0  0  1  0  0  0  0  0  0
  187.6500  177.0460  144.0770 C   0  0  0  0  0  3  0  0  0  0  0  0
  188.2610  174.2970  142.3440 C   0  0  0  0  0  1  0  0  0  0  0  0
  189.7410  174.3070  145.4370 C   0  0  0  0  0  0  0  0  0  0  0  0
  190.5500  173.3540  144.8490 O   0  0  0  0  0  0  0  0  0  0  0  0
  186.5880  178.3030  145.8460 N   0  0  0  0  0  0  0  0  0  0  0  0
  190.1970  175.8770  142.4350 C   0  0  0  0  0  1  0  0  0  0  0  0
  186.8130  178.1500  144.5710 C   0  0  0  0  0  0  0  0  0  0  0  0
  188.0170  176.3550  146.3870 C   0  0  0  0  0  0  0  0  0  0  0  0
  186.2760  179.0450  143.6420 O   0  0  0  0  0  0  0  0  0  0  0  0
  186.0420  178.6820  142.2890 C   0  0  0  0  0  2  0  0  0  0  0  0
  184.5900  178.4110  142.0890 C   0  0  0  0  0  0  0  0  0  0  0  0
  183.8170  178.4220  143.0840 O   0  0  0  0  0  0  0  0  0  0  0  0
  184.0560  178.1710  140.7430 C   0  0  0  0  0  0  0  0  0  0  0  0
  182.7170  178.4220  140.4660 O   0  0  0  0  0  1  0  0  0  0  0  0
  184.8060  177.7350  139.8310 O   0  0  0  0  0  0  0  0  0  0  0  0
  1  2  1  0  0  0  0
  1 13  1  0  0  0  0
  2 18  1  0  0  0  0
  3  6  1  0  0  0  0
  4  7  1  0  0  0  0
  4  1  1  0  0  0  0
  5  8  1  0  0  0  0
  5  7  1  0  0  0  0
  7 14  1  0  0  0  0
  8  7  1  0  0  0  0
  9 10  1  6  0  0  0
 11 17  1  0  0  0  0
 11  2  2  0  0  0  0
 12  4  1  0  0  0  0
 13  3  2  0  0  0  0
 14 13  1  0  0  0  0
 15  9  1  0  0  0  0
 16  4  1  0  0  0  0
 17 15  2  0  0  0  0
 18  9  1  0  0  0  0
 18  6  2  0  0  0  0
 19 17  1  0  0  0  0
 20 19  1  0  0  0  0
 21 20  1  0  0  0  0
 21 22  2  0  0  0  0
 23 21  1  0  0  0  0
 24 23  1  0  0  0  0
 25 23  2  0  0  0  0
M  END
>  <MODEL>
3

>  <REMARK>
 VINA RESULT:      -6.5      2.638      4.536
  Name = 
  4 active torsions:
  status: ('A' for Active; 'I' for Inactive)
    1  A    between atoms: C_2  and  C_21
    2  A    between atoms: O_6  and  C_15
    3  A    between atoms: O_6  and  C_23
    4  A    between atoms: C_15  and  C_21
                            x       y       z     vdW  Elec       q    Type
                         _______ _______ _______ _____ _____    ______ ____

>  <TORSDO>
F 4

$$$$
=
 OpenBabel11052417363D

 25 28  0  0  1  0  0  0  0  0999 V2000
  188.5190  177.1390  144.4940 N   0  0  0  0  0  0  0  0  0  0  0  0
  187.1250  177.4700  144.5750 C   0  0  0  0  0  0  0  0  0  0  0  0
  188.8280  177.4350  146.8620 C   0  0  0  0  0  3  0  0  0  0  0  0
  189.3470  176.8010  143.3360 C   0  0  0  0  0  0  0  0  0  0  0  0
  191.6910  175.5270  143.5520 C   0  0  0  0  0  2  0  0  0  0  0  0
  187.3840  177.7550  146.9850 C   0  0  0  0  0  3  0  0  0  0  0  0
  190.7270  176.5990  144.0040 C   0  0  0  0  0  0  0  0  0  0  0  0
  192.0180  177.0040  143.3290 C   0  0  0  0  0  2  0  0  0  0  0  0
  185.1020  178.0610  146.0730 C   0  0  2  0  0  3  0  0  0  0  0  0
  184.4700  177.0130  146.8560 N   0  0  0  0  0  1  0  0  0  0  0  0
  186.3510  177.5500  143.4950 C   0  0  0  0  0  3  0  0  0  0  0  0
  188.8360  175.5290  142.6750 C   0  0  0  0  0  1  0  0  0  0  0  0
  189.3290  177.1430  145.6610 C   0  0  0  0  0  0  0  0  0  0  0  0
  190.6480  176.8250  145.4020 O   0  0  0  0  0  0  0  0  0  0  0  0
  184.4080  178.1860  144.7830 N   0  0  0  0  0  0  0  0  0  0  0  0
  189.3600  177.9510  142.3380 C   0  0  0  0  0  1  0  0  0  0  0  0
  184.9390  177.9430  143.6160 C   0  0  0  0  0  0  0  0  0  0  0  0
  186.5700  177.7690  145.9140 C   0  0  0  0  0  0  0  0  0  0  0  0
  184.1790  178.0640  142.4510 O   0  0  0  0  0  0  0  0  0  0  0  0
  182.8720  178.6200  142.4530 C   0  0  0  0  0  2  0  0  0  0  0  0
  182.1940  178.3040  141.1650 C   0  0  0  0  0  0  0  0  0  0  0  0
  182.8660  177.8240  140.2140 O   0  0  0  0  0  0  0  0  0  0  0  0
  180.7480  178.5140  141.0140 C   0  0  0  0  0  0  0  0  0  0  0  0
  179.8490  177.7400  141.7370 O   0  0  0  0  0  1  0  0  0  0  0  0
  180.3140  179.3960  140.2280 O   0  0  0  0  0  0  0  0  0  0  0  0
  1  2  1  0  0  0  0
  1 13  1  0  0  0  0
  2 18  1  0  0  0  0
  3  6  1  0  0  0  0
  4  7  1  0  0  0  0
  4  1  1  0  0  0  0
  5  7  1  0  0  0  0
  7 14  1  0  0  0  0
  8  5  1  0  0  0  0
  8  7  1  0  0  0  0
  9 10  1  1  0  0  0
 11 17  1  0  0  0  0
 11  2  2  0  0  0  0
 12  4  1  0  0  0  0
 13  3  2  0  0  0  0
 14 13  1  0  0  0  0
 15  9  1  0  0  0  0
 16  4  1  0  0  0  0
 17 15  2  0  0  0  0
 18  9  1  0  0  0  0
 18  6  2  0  0  0  0
 19 20  1  0  0  0  0
 19 17  1  0  0  0  0
 21 20  1  0  0  0  0
 22 21  2  0  0  0  0
 23 21  1  0  0  0  0
 23 24  1  0  0  0  0
 25 23  2  0  0  0  0
M  END
>  <MODEL>
4

>  <REMARK>
 VINA RESULT:      -6.5      3.186      4.842
  Name = 
  4 active torsions:
  status: ('A' for Active; 'I' for Inactive)
    1  A    between atoms: C_2  and  C_21
    2  A    between atoms: O_6  and  C_15
    3  A    between atoms: O_6  and  C_23
    4  A    between atoms: C_15  and  C_21
                            x       y       z     vdW  Elec       q    Type
                         _______ _______ _______ _____ _____    ______ ____

>  <TORSDO>
F 4

$$$$
=
 OpenBabel11052417363D

 25 28  0  0  1  0  0  0  0  0999 V2000
  190.2410  175.4310  144.4020 N   0  0  0  0  0  0  0  0  0  0  0  0
  189.4330  175.3800  143.2180 C   0  0  0  0  0  0  0  0  0  0  0  0
  190.3140  173.0320  144.5760 C   0  0  0  0  0  3  0  0  0  0  0  0
  190.7440  176.5790  145.1580 C   0  0  0  0  0  0  0  0  0  0  0  0
  192.8030  176.4060  146.8600 C   0  0  0  0  0  2  0  0  0  0  0  0
  189.5010  172.9430  143.3380 C   0  0  0  0  0  3  0  0  0  0  0  0
  191.5020  175.8720  146.3060 C   0  0  0  0  0  0  0  0  0  0  0  0
  191.5340  176.4260  147.7130 C   0  0  0  0  0  2  0  0  0  0  0  0
  188.2920  173.9240  141.4110 C   0  0  2  0  0  3  0  0  0  0  0  0
  189.1070  173.3110  140.3770 N   0  0  0  0  0  1  0  0  0  0  0  0
  188.9700  176.4790  142.6280 C   0  0  0  0  0  3  0  0  0  0  0  0
  191.6690  177.4190  144.2900 C   0  0  0  0  0  1  0  0  0  0  0  0
  190.6490  174.2340  145.0490 C   0  0  0  0  0  0  0  0  0  0  0  0
  191.4010  174.4630  146.1850 O   0  0  0  0  0  0  0  0  0  0  0  0
  187.7960  175.2220  140.9300 N   0  0  0  0  0  0  0  0  0  0  0  0
  189.5870  177.4230  145.6740 C   0  0  0  0  0  1  0  0  0  0  0  0
  188.1010  176.3810  141.4440 C   0  0  0  0  0  0  0  0  0  0  0  0
  189.0850  174.0440  142.6860 C   0  0  0  0  0  0  0  0  0  0  0  0
  187.5970  177.5600  140.8900 O   0  0  0  0  0  0  0  0  0  0  0  0
  186.3890  177.5890  140.1430 C   0  0  0  0  0  2  0  0  0  0  0  0
  185.3100  178.2070  140.9630 C   0  0  0  0  0  0  0  0  0  0  0  0
  184.2620  178.6170  140.3980 O   0  0  0  0  0  0  0  0  0  0  0  0
  185.4470  178.3040  142.4220 C   0  0  0  0  0  0  0  0  0  0  0  0
  185.1320  177.2170  143.2290 O   0  0  0  0  0  1  0  0  0  0  0  0
  185.8510  179.3730  142.9510 O   0  0  0  0  0  0  0  0  0  0  0  0
  1 13  1  0  0  0  0
  1  4  1  0  0  0  0
  2  1  1  0  0  0  0
  3 13  2  0  0  0  0
  4 16  1  0  0  0  0
  4  7  1  0  0  0  0
  5  8  1  0  0  0  0
  6  3  1  0  0  0  0
  7  5  1  0  0  0  0
  7  8  1  0  0  0  0
  9 10  1  6  0  0  0
  9 18  1  0  0  0  0
 11  2  2  0  0  0  0
 12  4  1  0  0  0  0
 13 14  1  0  0  0  0
 14  7  1  0  0  0  0
 15  9  1  0  0  0  0
 15 17  2  0  0  0  0
 17 11  1  0  0  0  0
 18  2  1  0  0  0  0
 18  6  2  0  0  0  0
 19 17  1  0  0  0  0
 20 19  1  0  0  0  0
 20 21  1  0  0  0  0
 21 23  1  0  0  0  0
 22 21  2  0  0  0  0
 23 25  2  0  0  0  0
 23 24  1  0  0  0  0
M  END
>  <MODEL>
5

>  <REMARK>
 VINA RESULT:      -6.5      2.588      3.743
  Name = 
  4 active torsions:
  status: ('A' for Active; 'I' for Inactive)
    1  A    between atoms: C_2  and  C_21
    2  A    between atoms: O_6  and  C_15
    3  A    between atoms: O_6  and  C_23
    4  A    between atoms: C_15  and  C_21
                            x       y       z     vdW  Elec       q    Type
                         _______ _______ _______ _____ _____    ______ ____

>  <TORSDO>
F 4

$$$$
=
 OpenBabel11052417363D

 25 28  0  0  1  0  0  0  0  0999 V2000
  190.0260  176.7600  144.9520 N   0  0  0  0  0  0  0  0  0  0  0  0
  188.7050  177.2780  145.1650 C   0  0  0  0  0  0  0  0  0  0  0  0
  190.5030  176.7360  147.3110 C   0  0  0  0  0  3  0  0  0  0  0  0
  190.7300  176.4380  143.7100 C   0  0  0  0  0  0  0  0  0  0  0  0
  192.8620  174.8220  143.6280 C   0  0  0  0  0  2  0  0  0  0  0  0
  189.1330  177.2470  147.5670 C   0  0  0  0  0  3  0  0  0  0  0  0
  192.0970  175.9640  144.2560 C   0  0  0  0  0  0  0  0  0  0  0  0
  193.3960  176.2520  143.5370 C   0  0  0  0  0  2  0  0  0  0  0  0
  186.8780  177.9820  146.8540 C   0  0  2  0  0  3  0  0  0  0  0  0
  186.1380  176.9550  147.5660 N   0  0  0  0  0  1  0  0  0  0  0  0
  187.8950  177.5910  144.1560 C   0  0  0  0  0  3  0  0  0  0  0  0
  189.9970  175.3370  142.9580 C   0  0  0  0  0  1  0  0  0  0  0  0
  190.8890  176.5140  146.0530 C   0  0  0  0  0  0  0  0  0  0  0  0
  192.1290  176.0390  145.6720 O   0  0  0  0  0  0  0  0  0  0  0  0
  186.1430  178.3510  145.6360 N   0  0  0  0  0  0  0  0  0  0  0  0
  190.8630  177.6800  142.8390 C   0  0  0  0  0  1  0  0  0  0  0  0
  186.5670  178.1670  144.4160 C   0  0  0  0  0  0  0  0  0  0  0  0
  188.2740  177.4990  146.5630 C   0  0  0  0  0  0  0  0  0  0  0  0
  185.7730  178.5280  143.3250 O   0  0  0  0  0  0  0  0  0  0  0  0
  185.1610  177.5640  142.4810 C   0  0  0  0  0  2  0  0  0  0  0  0
  185.3210  177.9740  141.0580 C   0  0  0  0  0  0  0  0  0  0  0  0
  184.4170  178.6560  140.5070 O   0  0  0  0  0  0  0  0  0  0  0  0
  186.5350  177.6190  140.3130 C   0  0  0  0  0  0  0  0  0  0  0  0
  187.7880  177.8220  140.8790 O   0  0  0  0  0  1  0  0  0  0  0  0
  186.4490  177.1310  139.1560 O   0  0  0  0  0  0  0  0  0  0  0  0
  1  2  1  0  0  0  0
  1 13  1  0  0  0  0
  2 18  1  0  0  0  0
  3  6  1  0  0  0  0
  4  7  1  0  0  0  0
  4  1  1  0  0  0  0
  5  7  1  0  0  0  0
  7 14  1  0  0  0  0
  8  5  1  0  0  0  0
  8  7  1  0  0  0  0
  9 10  1  6  0  0  0
 11 17  1  0  0  0  0
 11  2  2  0  0  0  0
 12  4  1  0  0  0  0
 13  3  2  0  0  0  0
 14 13  1  0  0  0  0
 15  9  1  0  0  0  0
 16  4  1  0  0  0  0
 17 15  2  0  0  0  0
 18  9  1  0  0  0  0
 18  6  2  0  0  0  0
 19 17  1  0  0  0  0
 20 19  1  0  0  0  0
 21 20  1  0  0  0  0
 22 21  2  0  0  0  0
 23 24  1  0  0  0  0
 23 21  1  0  0  0  0
 25 23  2  0  0  0  0
M  END
>  <MODEL>
6

>  <REMARK>
 VINA RESULT:      -6.5      2.464      4.557
  Name = 
  4 active torsions:
  status: ('A' for Active; 'I' for Inactive)
    1  A    between atoms: C_2  and  C_21
    2  A    between atoms: O_6  and  C_15
    3  A    between atoms: O_6  and  C_23
    4  A    between atoms: C_15  and  C_21
                            x       y       z     vdW  Elec       q    Type
                         _______ _______ _______ _____ _____    ______ ____

>  <TORSDO>
F 4

$$$$
=
 OpenBabel11052417363D

 25 28  0  0  1  0  0  0  0  0999 V2000
  187.6390  176.8170  144.5650 N   0  0  0  0  0  0  0  0  0  0  0  0
  188.6710  175.8240  144.4830 C   0  0  0  0  0  0  0  0  0  0  0  0
  187.6950  176.8180  146.9710 C   0  0  0  0  0  3  0  0  0  0  0  0
  186.8780  177.4840  143.5080 C   0  0  0  0  0  0  0  0  0  0  0  0
  185.5660  179.7850  143.8960 C   0  0  0  0  0  2  0  0  0  0  0  0
  188.7830  175.8100  146.9210 C   0  0  0  0  0  3  0  0  0  0  0  0
  185.9400  178.3900  144.3400 C   0  0  0  0  0  0  0  0  0  0  0  0
  184.5140  178.6740  143.9240 C   0  0  0  0  0  2  0  0  0  0  0  0
  190.3850  174.3440  145.7300 C   0  0  2  0  0  3  0  0  0  0  0  0
  191.5920  174.9530  146.2630 N   0  0  0  0  0  1  0  0  0  0  0  0
  189.0750  175.3170  143.3210 C   0  0  0  0  0  3  0  0  0  0  0  0
  187.8100  178.2890  142.6140 C   0  0  0  0  0  1  0  0  0  0  0  0
  187.1790  177.2760  145.8290 C   0  0  0  0  0  0  0  0  0  0  0  0
  186.1690  178.2120  145.7290 O   0  0  0  0  0  0  0  0  0  0  0  0
  190.6580  173.8300  144.3800 N   0  0  0  0  0  0  0  0  0  0  0  0
  186.1030  176.4630  142.6870 C   0  0  0  0  0  1  0  0  0  0  0  0
  190.1010  174.2630  143.2830 C   0  0  0  0  0  0  0  0  0  0  0  0
  189.2560  175.3390  145.7520 C   0  0  0  0  0  0  0  0  0  0  0  0
  190.4560  173.7240  142.0440 O   0  0  0  0  0  0  0  0  0  0  0  0
  189.8250  172.5670  141.5130 C   0  0  0  0  0  2  0  0  0  0  0  0
  188.4770  172.9290  140.9940 C   0  0  0  0  0  0  0  0  0  0  0  0
  187.4570  172.6670  141.6860 O   0  0  0  0  0  0  0  0  0  0  0  0
  188.3350  173.6190  139.7050 C   0  0  0  0  0  0  0  0  0  0  0  0
  188.3570  172.8960  138.5180 O   0  0  0  0  0  0  0  0  0  0  0  0
  188.1920  174.8690  139.6670 O   0  0  0  0  0  1  0  0  0  0  0  0
  1 13  1  0  0  0  0
  2  1  1  0  0  0  0
  2 18  1  0  0  0  0
  4  7  1  0  0  0  0
  4  1  1  0  0  0  0
  5  8  1  0  0  0  0
  5  7  1  0  0  0  0
  6  3  1  0  0  0  0
  7 14  1  0  0  0  0
  8  7  1  0  0  0  0
  9 18  1  0  0  0  0
  9 10  1  6  0  0  0
 11  2  2  0  0  0  0
 12  4  1  0  0  0  0
 13  3  2  0  0  0  0
 14 13  1  0  0  0  0
 15  9  1  0  0  0  0
 16  4  1  0  0  0  0
 17 11  1  0  0  0  0
 17 15  2  0  0  0  0
 18  6  2  0  0  0  0
 19 17  1  0  0  0  0
 20 19  1  0  0  0  0
 21 20  1  0  0  0  0
 21 22  2  0  0  0  0
 23 21  1  0  0  0  0
 24 23  2  0  0  0  0
 25 23  1  0  0  0  0
M  END
>  <MODEL>
7

>  <REMARK>
 VINA RESULT:      -6.4      2.516      6.848
  Name = 
  4 active torsions:
  status: ('A' for Active; 'I' for Inactive)
    1  A    between atoms: C_2  and  C_21
    2  A    between atoms: O_6  and  C_15
    3  A    between atoms: O_6  and  C_23
    4  A    between atoms: C_15  and  C_21
                            x       y       z     vdW  Elec       q    Type
                         _______ _______ _______ _____ _____    ______ ____

>  <TORSDO>
F 4

$$$$
=
 OpenBabel11052417363D

 25 28  0  0  1  0  0  0  0  0999 V2000
  188.2980  176.0930  144.7730 N   0  0  0  0  0  0  0  0  0  0  0  0
  189.3080  175.4910  143.9500 C   0  0  0  0  0  0  0  0  0  0  0  0
  186.7240  176.1750  142.9540 C   0  0  0  0  0  3  0  0  0  0  0  0
  188.3380  176.4980  146.1790 C   0  0  0  0  0  0  0  0  0  0  0  0
  186.1280  176.9000  147.6350 C   0  0  0  0  0  2  0  0  0  0  0  0
  187.7370  175.5280  142.0820 C   0  0  0  0  0  3  0  0  0  0  0  0
  186.9180  177.0850  146.3610 C   0  0  0  0  0  0  0  0  0  0  0  0
  186.6480  178.2830  147.2430 C   0  0  0  0  0  2  0  0  0  0  0  0
  189.9520  174.5080  141.6470 C   0  0  2  0  0  3  0  0  0  0  0  0
  189.4560  173.1940  141.2750 N   0  0  0  0  0  1  0  0  0  0  0  0
  190.5330  175.2360  144.4030 C   0  0  0  0  0  3  0  0  0  0  0  0
  188.5780  175.2880  147.0700 C   0  0  0  0  0  1  0  0  0  0  0  0
  187.0280  176.4230  144.2290 C   0  0  0  0  0  0  0  0  0  0  0  0
  186.1840  177.0150  145.1490 O   0  0  0  0  0  0  0  0  0  0  0  0
  191.2730  174.3660  142.2750 N   0  0  0  0  0  0  0  0  0  0  0  0
  189.4210  177.5450  146.3990 C   0  0  0  0  0  1  0  0  0  0  0  0
  191.5550  174.6650  143.5120 C   0  0  0  0  0  0  0  0  0  0  0  0
  188.9570  175.1960  142.5440 C   0  0  0  0  0  0  0  0  0  0  0  0
  192.8410  174.4620  144.0180 O   0  0  0  0  0  0  0  0  0  0  0  0
  193.0810  174.1990  145.3930 C   0  0  0  0  0  2  0  0  0  0  0  0
  194.1220  175.1340  145.9050 C   0  0  0  0  0  0  0  0  0  0  0  0
  195.3390  174.8310  145.7850 O   0  0  0  0  0  0  0  0  0  0  0  0
  193.7380  176.4160  146.5110 C   0  0  0  0  0  0  0  0  0  0  0  0
  194.5660  177.5250  146.3850 O   0  0  0  0  0  0  0  0  0  0  0  0
  192.6580  176.5170  147.1490 O   0  0  0  0  0  1  0  0  0  0  0  0
  1  4  1  0  0  0  0
  2 11  2  0  0  0  0
  2  1  1  0  0  0  0
  3 13  2  0  0  0  0
  4  7  1  0  0  0  0
  4 16  1  0  0  0  0
  4 12  1  0  0  0  0
  6 18  2  0  0  0  0
  6  3  1  0  0  0  0
  7  8  1  0  0  0  0
  7  5  1  0  0  0  0
  8  5  1  0  0  0  0
  9 10  1  1  0  0  0
  9 15  1  0  0  0  0
  9 18  1  0  0  0  0
 13  1  1  0  0  0  0
 13 14  1  0  0  0  0
 14  7  1  0  0  0  0
 15 17  2  0  0  0  0
 17 19  1  0  0  0  0
 17 11  1  0  0  0  0
 18  2  1  0  0  0  0
 19 20  1  0  0  0  0
 20 21  1  0  0  0  0
 21 23  1  0  0  0  0
 22 21  2  0  0  0  0
 23 25  1  0  0  0  0
 24 23  2  0  0  0  0
M  END
>  <MODEL>
8

>  <REMARK>
 VINA RESULT:      -6.4      2.502      6.244
  Name = 
  4 active torsions:
  status: ('A' for Active; 'I' for Inactive)
    1  A    between atoms: C_2  and  C_21
    2  A    between atoms: O_6  and  C_15
    3  A    between atoms: O_6  and  C_23
    4  A    between atoms: C_15  and  C_21
                            x       y       z     vdW  Elec       q    Type
                         _______ _______ _______ _____ _____    ______ ____

>  <TORSDO>
F 4

$$$$
=
 OpenBabel11052417363D

 25 28  0  0  1  0  0  0  0  0999 V2000
  187.4220  176.7310  144.6430 N   0  0  0  0  0  0  0  0  0  0  0  0
  188.5820  175.9680  145.0050 C   0  0  0  0  0  0  0  0  0  0  0  0
  186.6280  176.7890  146.9140 C   0  0  0  0  0  3  0  0  0  0  0  0
  186.9720  177.2080  143.3350 C   0  0  0  0  0  0  0  0  0  0  0  0
  185.2080  179.2000  143.0460 C   0  0  0  0  0  2  0  0  0  0  0  0
  187.8310  176.0240  147.3270 C   0  0  0  0  0  3  0  0  0  0  0  0
  185.6520  177.9200  143.7140 C   0  0  0  0  0  0  0  0  0  0  0  0
  184.4370  177.9000  142.8140 C   0  0  0  0  0  2  0  0  0  0  0  0
  189.9900  174.8920  146.8880 C   0  0  2  0  0  3  0  0  0  0  0  0
  190.7980  175.7440  147.7430 N   0  0  0  0  0  1  0  0  0  0  0  0
  189.4550  175.5310  144.1010 C   0  0  0  0  0  3  0  0  0  0  0  0
  187.9940  178.1680  142.7430 C   0  0  0  0  0  1  0  0  0  0  0  0
  186.4720  177.1100  145.6290 C   0  0  0  0  0  0  0  0  0  0  0  0
  185.4070  177.8190  145.1070 O   0  0  0  0  0  0  0  0  0  0  0  0
  190.8100  174.4190  145.7630 N   0  0  0  0  0  0  0  0  0  0  0  0
  186.7380  176.0350  142.3940 C   0  0  0  0  0  1  0  0  0  0  0  0
  190.6040  174.7080  144.5080 C   0  0  0  0  0  0  0  0  0  0  0  0
  188.7620  175.6360  146.4360 C   0  0  0  0  0  0  0  0  0  0  0  0
  191.4640  174.2280  143.5180 O   0  0  0  0  0  0  0  0  0  0  0  0
  192.8760  174.3320  143.6270 C   0  0  0  0  0  2  0  0  0  0  0  0
  193.2810  175.7610  143.5210 C   0  0  0  0  0  0  0  0  0  0  0  0
  193.0200  176.4010  142.4670 O   0  0  0  0  0  0  0  0  0  0  0  0
  193.9460  176.4320  144.6450 C   0  0  0  0  0  0  0  0  0  0  0  0
  195.3130  176.6820  144.6030 O   0  0  0  0  0  0  0  0  0  0  0  0
  193.2820  176.7850  145.6550 O   0  0  0  0  0  1  0  0  0  0  0  0
  1  2  1  0  0  0  0
  1 13  1  0  0  0  0
  2 18  1  0  0  0  0
  3  6  1  0  0  0  0
  4  7  1  0  0  0  0
  4  1  1  0  0  0  0
  5  7  1  0  0  0  0
  7 14  1  0  0  0  0
  8  5  1  0  0  0  0
  8  7  1  0  0  0  0
  9 10  1  1  0  0  0
 11 17  1  0  0  0  0
 11  2  2  0  0  0  0
 12  4  1  0  0  0  0
 13  3  2  0  0  0  0
 14 13  1  0  0  0  0
 15  9  1  0  0  0  0
 16  4  1  0  0  0  0
 17 15  2  0  0  0  0
 18  9  1  0  0  0  0
 18  6  2  0  0  0  0
 19 20  1  0  0  0  0
 19 17  1  0  0  0  0
 21 20  1  0  0  0  0
 21 23  1  0  0  0  0
 22 21  2  0  0  0  0
 23 25  1  0  0  0  0
 24 23  2  0  0  0  0
M  END
>  <MODEL>
9

>  <REMARK>
 VINA RESULT:      -6.4      2.313      6.924
  Name = 
  4 active torsions:
  status: ('A' for Active; 'I' for Inactive)
    1  A    between atoms: C_2  and  C_21
    2  A    between atoms: O_6  and  C_15
    3  A    between atoms: O_6  and  C_23
    4  A    between atoms: C_15  and  C_21
                            x       y       z     vdW  Elec       q    Type
                         _______ _______ _______ _____ _____    ______ ____

>  <TORSDO>
F 4

$$$$
