=
 OpenBabel11052418103D

 28 32  0  0  1  0  0  0  0  0999 V2000
  185.7990  178.2940  142.3750 C   0  0  0  0  0  0  0  0  0  0  0  0
  187.9250  175.3090  139.3700 O   0  0  0  0  0  0  0  0  0  0  0  0
  188.4370  175.8440  143.0150 C   0  0  1  0  0  3  0  0  0  0  0  0
  189.4230  174.2790  141.4320 N   0  0  0  0  0  2  0  0  0  0  0  0
  186.8520  176.8400  140.7790 N   0  0  0  0  0  0  0  0  0  0  0  0
  187.9790  177.3020  143.0070 C   0  0  0  0  0  2  0  0  0  0  0  0
  184.7530  177.9910  140.2360 C   0  0  0  0  0  3  0  0  0  0  0  0
  187.8190  175.8080  140.5230 C   0  0  0  0  0  0  0  0  0  0  0  0
  185.9760  177.3020  139.6980 C   0  0  0  0  0  2  0  0  0  0  0  0
  188.6800  175.3230  141.6180 C   0  0  0  0  0  0  0  0  0  0  0  0
  184.7160  178.4570  141.4480 N   0  0  0  0  0  0  0  0  0  0  0  0
  186.8290  177.4960  142.0610 C   0  0  0  0  0  0  0  0  0  0  0  0
  189.5060  174.7780  144.9990 C   0  0  0  0  0  3  0  0  0  0  0  0
  190.8170  176.3890  143.7460 C   0  0  0  0  0  0  0  0  0  0  0  0
  191.7630  175.3060  145.6960 C   0  0  0  0  0  0  0  0  0  0  0  0
  189.6170  175.6730  143.9300 C   0  0  0  0  0  0  0  0  0  0  0  0
  191.8830  176.2010  144.6300 C   0  0  0  0  0  3  0  0  0  0  0  0
  190.9530  177.2650  142.7190 F   0  0  0  0  0  0  0  0  0  0  0  0
  192.8990  175.1100  146.6340 C   0  0  0  0  0  1  0  0  0  0  0  0
  190.5750  174.5940  145.8810 C   0  0  0  0  0  3  0  0  0  0  0  0
  185.7320  178.9500  143.6410 N   0  0  0  0  0  0  0  0  0  0  0  0
  186.2390  179.2350  144.9880 N   0  0  1  0  0  0  0  0  0  0  0  0
  185.0790  179.8300  144.5990 C   0  0  2  0  0  3  0  0  0  0  0  0
  183.9190  179.2110  145.0880 O   0  0  0  0  0  1  0  0  0  0  0  0
  186.4620  178.2720  147.2090 C   0  0  2  0  0  3  0  0  0  0  0  0
  186.0740  178.0070  145.7660 C   0  0  2  0  0  3  0  0  0  0  0  0
  187.4240  177.5570  146.2870 C   0  0  0  0  0  2  0  0  0  0  0  0
  185.7710  177.2570  148.0950 C   0  0  0  0  0  1  0  0  0  0  0  0
  1 21  1  0  0  0  0
  2  8  2  0  0  0  0
  3 16  1  1  0  0  0
  4 10  2  0  0  0  0
  5 12  1  0  0  0  0
  6  3  1  0  0  0  0
  7 11  2  0  0  0  0
  8  5  1  0  0  0  0
  8 10  1  0  0  0  0
  9  7  1  0  0  0  0
  9  5  1  0  0  0  0
 10  3  1  0  0  0  0
 11  1  1  0  0  0  0
 12  1  2  0  0  0  0
 12  6  1  0  0  0  0
 13 20  1  0  0  0  0
 14 16  1  0  0  0  0
 14 17  2  0  0  0  0
 15 20  2  0  0  0  0
 15 19  1  0  0  0  0
 16 13  2  0  0  0  0
 17 15  1  0  0  0  0
 18 14  1  0  0  0  0
 21 23  1  0  0  0  0
 22 21  1  6  0  0  0
 22 26  1  0  0  0  0
 23 22  1  0  0  0  0
 23 24  1  1  0  0  0
 25 28  1  1  0  0  0
 26 27  1  6  0  0  0
 26 25  1  0  0  0  0
 27 25  1  0  0  0  0
M  END
>  <MODEL>
1

>  <REMARK>
 VINA RESULT:      -7.5      0.000      0.000
  Name = 
  3 active torsions:
  status: ('A' for Active; 'I' for Inactive)
    1  A    between atoms: C_1  and  N_2
    2  A    between atoms: N_3  and  C_7
    3  A    between atoms: C_10  and  C_13
                            x       y       z     vdW  Elec       q    Type
                         _______ _______ _______ _____ _____    ______ ____

>  <TORSDO>
F 3

$$$$
=
 OpenBabel11052418103D

 28 32  0  0  1  0  0  0  0  0999 V2000
  186.0040  178.2270  142.2780 C   0  0  0  0  0  0  0  0  0  0  0  0
  188.1320  175.1060  139.4160 O   0  0  0  0  0  0  0  0  0  0  0  0
  188.6490  175.8160  143.0300 C   0  0  1  0  0  3  0  0  0  0  0  0
  189.6360  174.1800  141.5230 N   0  0  0  0  0  2  0  0  0  0  0  0
  187.0580  176.7010  140.7520 N   0  0  0  0  0  0  0  0  0  0  0  0
  188.1880  177.2720  142.9530 C   0  0  0  0  0  2  0  0  0  0  0  0
  184.9560  177.8190  140.1580 C   0  0  0  0  0  3  0  0  0  0  0  0
  188.0270  175.6600  140.5440 C   0  0  0  0  0  0  0  0  0  0  0  0
  186.1790  177.1090  139.6520 C   0  0  0  0  0  2  0  0  0  0  0  0
  188.8910  175.2300  141.6600 C   0  0  0  0  0  0  0  0  0  0  0  0
  184.9200  178.3430  141.3470 N   0  0  0  0  0  0  0  0  0  0  0  0
  187.0360  177.4180  142.0020 C   0  0  0  0  0  0  0  0  0  0  0  0
  190.7420  176.7540  144.0080 C   0  0  0  0  0  3  0  0  0  0  0  0
  190.0500  174.5480  144.7400 C   0  0  0  0  0  0  0  0  0  0  0  0
  192.0740  175.5420  145.6250 C   0  0  0  0  0  0  0  0  0  0  0  0
  189.8320  175.6930  143.9500 C   0  0  0  0  0  0  0  0  0  0  0  0
  191.1700  174.4790  145.5740 C   0  0  0  0  0  3  0  0  0  0  0  0
  189.1840  173.5030  144.7050 F   0  0  0  0  0  0  0  0  0  0  0  0
  193.2640  175.4640  146.5120 C   0  0  0  0  0  1  0  0  0  0  0  0
  191.8620  176.6800  144.8420 C   0  0  0  0  0  3  0  0  0  0  0  0
  185.9380  178.9430  143.5110 N   0  0  0  0  0  0  0  0  0  0  0  0
  186.4010  179.2390  144.8730 N   0  0  1  0  0  0  0  0  0  0  0  0
  185.3270  179.9240  144.3960 C   0  0  2  0  0  3  0  0  0  0  0  0
  184.0880  179.4430  144.8440 O   0  0  0  0  0  1  0  0  0  0  0  0
  186.5360  178.3080  147.1140 C   0  0  2  0  0  3  0  0  0  0  0  0
  186.0760  178.0690  145.6880 C   0  0  2  0  0  3  0  0  0  0  0  0
  187.3570  177.4350  146.1920 C   0  0  0  0  0  2  0  0  0  0  0  0
  185.7250  177.4300  148.0440 C   0  0  0  0  0  1  0  0  0  0  0  0
  1 21  1  0  0  0  0
  2  8  2  0  0  0  0
  3 16  1  1  0  0  0
  4 10  2  0  0  0  0
  5 12  1  0  0  0  0
  6  3  1  0  0  0  0
  7 11  2  0  0  0  0
  8  5  1  0  0  0  0
  8 10  1  0  0  0  0
  9  7  1  0  0  0  0
  9  5  1  0  0  0  0
 10  3  1  0  0  0  0
 11  1  1  0  0  0  0
 12  1  2  0  0  0  0
 12  6  1  0  0  0  0
 13 20  1  0  0  0  0
 14 17  2  0  0  0  0
 15 19  1  0  0  0  0
 16 13  2  0  0  0  0
 16 14  1  0  0  0  0
 17 15  1  0  0  0  0
 18 14  1  0  0  0  0
 20 15  2  0  0  0  0
 21 23  1  0  0  0  0
 22 21  1  6  0  0  0
 22 26  1  0  0  0  0
 23 24  1  1  0  0  0
 23 22  1  0  0  0  0
 25 28  1  1  0  0  0
 26 27  1  6  0  0  0
 26 25  1  0  0  0  0
 27 25  1  0  0  0  0
M  END
>  <MODEL>
2

>  <REMARK>
 VINA RESULT:      -7.4      0.931      1.278
  Name = 
  3 active torsions:
  status: ('A' for Active; 'I' for Inactive)
    1  A    between atoms: C_1  and  N_2
    2  A    between atoms: N_3  and  C_7
    3  A    between atoms: C_10  and  C_13
                            x       y       z     vdW  Elec       q    Type
                         _______ _______ _______ _____ _____    ______ ____

>  <TORSDO>
F 3

$$$$
=
 OpenBabel11052418103D

 28 32  0  0  1  0  0  0  0  0999 V2000
  190.8410  173.6930  142.9020 C   0  0  0  0  0  0  0  0  0  0  0  0
  192.7220  176.6490  146.0930 O   0  0  0  0  0  0  0  0  0  0  0  0
  189.1690  175.8560  145.3310 C   0  0  1  0  0  3  0  0  0  0  0  0
  190.2070  177.2880  147.0030 N   0  0  0  0  0  2  0  0  0  0  0  0
  191.8740  175.1960  144.4650 N   0  0  0  0  0  0  0  0  0  0  0  0
  189.4220  175.4760  143.8710 C   0  0  0  0  0  2  0  0  0  0  0  0
  193.1910  173.4630  143.3310 C   0  0  0  0  0  3  0  0  0  0  0  0
  191.7120  176.1580  145.5200 C   0  0  0  0  0  0  0  0  0  0  0  0
  193.2200  174.7740  144.0640 C   0  0  0  0  0  2  0  0  0  0  0  0
  190.3570  176.5610  145.9420 C   0  0  0  0  0  0  0  0  0  0  0  0
  192.0990  173.0140  142.7880 N   0  0  0  0  0  0  0  0  0  0  0  0
  190.7230  174.7420  143.7280 C   0  0  0  0  0  0  0  0  0  0  0  0
  187.5360  177.5030  144.4180 C   0  0  0  0  0  3  0  0  0  0  0  0
  187.0420  176.5090  146.5740 C   0  0  0  0  0  0  0  0  0  0  0  0
  185.5220  178.1270  145.6060 C   0  0  0  0  0  0  0  0  0  0  0  0
  187.8870  176.6300  145.4530 C   0  0  0  0  0  0  0  0  0  0  0  0
  185.8640  177.2580  146.6440 C   0  0  0  0  0  3  0  0  0  0  0  0
  187.3570  175.6710  147.5940 F   0  0  0  0  0  0  0  0  0  0  0  0
  184.2690  178.9220  145.6850 C   0  0  0  0  0  1  0  0  0  0  0  0
  186.3570  178.2510  144.4930 C   0  0  0  0  0  3  0  0  0  0  0  0
  189.7200  173.2040  142.1650 N   0  0  0  0  0  0  0  0  0  0  0  0
  189.0870  172.6930  140.9430 N   0  0  1  0  0  0  0  0  0  0  0  0
  188.3110  172.8620  142.0480 C   0  0  2  0  0  3  0  0  0  0  0  0
  187.5430  174.0360  142.0410 O   0  0  0  0  0  1  0  0  0  0  0  0
  188.5190  173.3110  138.6620 C   0  0  2  0  0  3  0  0  0  0  0  0
  189.0590  173.8040  139.9910 C   0  0  2  0  0  3  0  0  0  0  0  0
  190.0070  173.5090  138.8460 C   0  0  0  0  0  2  0  0  0  0  0  0
  187.9490  174.4880  137.8980 C   0  0  0  0  0  1  0  0  0  0  0  0
  1 12  2  0  0  0  0
  3 16  1  6  0  0  0
  3 10  1  0  0  0  0
  5  8  1  0  0  0  0
  6  3  1  0  0  0  0
  7  9  1  0  0  0  0
  8 10  1  0  0  0  0
  8  2  2  0  0  0  0
  9  5  1  0  0  0  0
 10  4  2  0  0  0  0
 11  1  1  0  0  0  0
 11  7  2  0  0  0  0
 12  6  1  0  0  0  0
 12  5  1  0  0  0  0
 13 20  2  0  0  0  0
 13 16  1  0  0  0  0
 14 17  1  0  0  0  0
 14 18  1  0  0  0  0
 15 19  1  0  0  0  0
 15 17  2  0  0  0  0
 16 14  2  0  0  0  0
 20 15  1  0  0  0  0
 21  1  1  0  0  0  0
 22 23  1  0  0  0  0
 22 21  1  1  0  0  0
 23 24  1  6  0  0  0
 23 21  1  0  0  0  0
 25 28  1  6  0  0  0
 25 27  1  0  0  0  0
 25 26  1  0  0  0  0
 26 27  1  6  0  0  0
 26 22  1  0  0  0  0
M  END
>  <MODEL>
3

>  <REMARK>
 VINA RESULT:      -7.4      3.353      7.185
  Name = 
  3 active torsions:
  status: ('A' for Active; 'I' for Inactive)
    1  A    between atoms: C_1  and  N_2
    2  A    between atoms: N_3  and  C_7
    3  A    between atoms: C_10  and  C_13
                            x       y       z     vdW  Elec       q    Type
                         _______ _______ _______ _____ _____    ______ ____

>  <TORSDO>
F 3

$$$$
=
 OpenBabel11052418103D

 28 32  0  0  1  0  0  0  0  0999 V2000
  190.7160  173.7120  143.0090 C   0  0  0  0  0  0  0  0  0  0  0  0
  192.5780  176.6500  146.2280 O   0  0  0  0  0  0  0  0  0  0  0  0
  189.0290  175.9230  145.3850 C   0  0  1  0  0  3  0  0  0  0  0  0
  190.0560  177.3440  147.0730 N   0  0  0  0  0  2  0  0  0  0  0  0
  191.7410  175.2030  144.5870 N   0  0  0  0  0  0  0  0  0  0  0  0
  189.3090  175.5290  143.9340 C   0  0  0  0  0  2  0  0  0  0  0  0
  193.0490  173.4370  143.4960 C   0  0  0  0  0  3  0  0  0  0  0  0
  191.5730  176.1750  145.6330 C   0  0  0  0  0  0  0  0  0  0  0  0
  193.0870  174.7530  144.2220 C   0  0  0  0  0  2  0  0  0  0  0  0
  190.2160  176.6070  146.0200 C   0  0  0  0  0  0  0  0  0  0  0  0
  191.9620  173.0070  142.9290 N   0  0  0  0  0  0  0  0  0  0  0  0
  190.5980  174.7680  143.8260 C   0  0  0  0  0  0  0  0  0  0  0  0
  186.8030  176.3510  146.4220 C   0  0  0  0  0  3  0  0  0  0  0  0
  187.5080  177.8210  144.6260 C   0  0  0  0  0  0  0  0  0  0  0  0
  185.3570  178.1500  145.6930 C   0  0  0  0  0  0  0  0  0  0  0  0
  187.7610  176.7230  145.4720 C   0  0  0  0  0  0  0  0  0  0  0  0
  186.3080  178.5290  144.7420 C   0  0  0  0  0  3  0  0  0  0  0  0
  188.4170  178.2050  143.6950 F   0  0  0  0  0  0  0  0  0  0  0  0
  184.0820  178.9040  145.8110 C   0  0  0  0  0  1  0  0  0  0  0  0
  185.6040  177.0610  146.5330 C   0  0  0  0  0  3  0  0  0  0  0  0
  189.6030  173.2400  142.2480 N   0  0  0  0  0  0  0  0  0  0  0  0
  188.9900  172.7320  141.0150 N   0  0  1  0  0  0  0  0  0  0  0  0
  188.1900  172.9290  142.0980 C   0  0  2  0  0  3  0  0  0  0  0  0
  187.4490  174.1200  142.0610 O   0  0  0  0  0  1  0  0  0  0  0  0
  188.4530  173.3520  138.7270 C   0  0  2  0  0  3  0  0  0  0  0  0
  189.0110  173.8340  140.0530 C   0  0  2  0  0  3  0  0  0  0  0  0
  189.9480  173.4890  138.9120 C   0  0  0  0  0  2  0  0  0  0  0  0
  187.9350  174.5440  137.9510 C   0  0  0  0  0  1  0  0  0  0  0  0
  1 12  2  0  0  0  0
  3 16  1  6  0  0  0
  3 10  1  0  0  0  0
  5  8  1  0  0  0  0
  6  3  1  0  0  0  0
  7  9  1  0  0  0  0
  8 10  1  0  0  0  0
  8  2  2  0  0  0  0
  9  5  1  0  0  0  0
 10  4  2  0  0  0  0
 11  1  1  0  0  0  0
 11  7  2  0  0  0  0
 12  6  1  0  0  0  0
 12  5  1  0  0  0  0
 13 20  1  0  0  0  0
 14 17  2  0  0  0  0
 14 16  1  0  0  0  0
 15 19  1  0  0  0  0
 15 20  2  0  0  0  0
 16 13  2  0  0  0  0
 17 15  1  0  0  0  0
 18 14  1  0  0  0  0
 21  1  1  0  0  0  0
 22 23  1  0  0  0  0
 22 21  1  1  0  0  0
 23 24  1  6  0  0  0
 23 21  1  0  0  0  0
 25 28  1  6  0  0  0
 25 27  1  0  0  0  0
 25 26  1  0  0  0  0
 26 27  1  6  0  0  0
 26 22  1  0  0  0  0
M  END
>  <MODEL>
4

>  <REMARK>
 VINA RESULT:      -7.3      3.189      7.043
  Name = 
  3 active torsions:
  status: ('A' for Active; 'I' for Inactive)
    1  A    between atoms: C_1  and  N_2
    2  A    between atoms: N_3  and  C_7
    3  A    between atoms: C_10  and  C_13
                            x       y       z     vdW  Elec       q    Type
                         _______ _______ _______ _____ _____    ______ ____

>  <TORSDO>
F 3

$$$$
=
 OpenBabel11052418103D

 28 32  0  0  1  0  0  0  0  0999 V2000
  192.0160  174.3150  143.7380 C   0  0  0  0  0  0  0  0  0  0  0  0
  188.1510  173.2860  141.1960 O   0  0  0  0  0  0  0  0  0  0  0  0
  188.7720  176.0020  143.6610 C   0  0  1  0  0  3  0  0  0  0  0  0
  186.8550  175.4660  142.2600 N   0  0  0  0  0  2  0  0  0  0  0  0
  190.0890  173.7030  142.4420 N   0  0  0  0  0  0  0  0  0  0  0  0
  189.8280  175.2310  144.4530 C   0  0  0  0  0  2  0  0  0  0  0  0
  192.2980  172.7680  141.9250 C   0  0  0  0  0  3  0  0  0  0  0  0
  188.7280  173.9840  142.0730 C   0  0  0  0  0  0  0  0  0  0  0  0
  190.8110  172.6090  141.7850 C   0  0  0  0  0  2  0  0  0  0  0  0
  188.0120  175.1030  142.7150 C   0  0  0  0  0  0  0  0  0  0  0  0
  192.8150  173.5290  142.8440 N   0  0  0  0  0  0  0  0  0  0  0  0
  190.6940  174.4170  143.5370 C   0  0  0  0  0  0  0  0  0  0  0  0
  187.6920  176.2850  145.8900 C   0  0  0  0  0  3  0  0  0  0  0  0
  187.2370  177.9640  144.1990 C   0  0  0  0  0  0  0  0  0  0  0  0
  186.2280  178.1450  146.3940 C   0  0  0  0  0  0  0  0  0  0  0  0
  187.8830  176.7760  144.5930 C   0  0  0  0  0  0  0  0  0  0  0  0
  186.4130  178.6420  145.1020 C   0  0  0  0  0  3  0  0  0  0  0  0
  187.4030  178.4630  142.9490 F   0  0  0  0  0  0  0  0  0  0  0  0
  185.3510  178.8690  147.3510 C   0  0  0  0  0  1  0  0  0  0  0  0
  186.8670  176.9670  146.7890 C   0  0  0  0  0  3  0  0  0  0  0  0
  192.6560  175.0190  144.8030 N   0  0  0  0  0  0  0  0  0  0  0  0
  192.8490  175.3390  146.2220 N   0  0  1  0  0  0  0  0  0  0  0  0
  193.6030  176.0030  145.3050 C   0  0  2  0  0  3  0  0  0  0  0  0
  193.1430  177.2930  145.0020 O   0  0  0  0  0  1  0  0  0  0  0  0
  191.8160  176.4850  148.1010 C   0  0  2  0  0  3  0  0  0  0  0  0
  191.6440  176.0440  146.6590 C   0  0  2  0  0  3  0  0  0  0  0  0
  190.9820  175.2650  147.7780 C   0  0  0  0  0  2  0  0  0  0  0  0
  190.8990  177.6600  148.3660 C   0  0  0  0  0  1  0  0  0  0  0  0
  1 21  1  0  0  0  0
  2  8  2  0  0  0  0
  3  6  1  0  0  0  0
  3 16  1  1  0  0  0
  4 10  2  0  0  0  0
  5 12  1  0  0  0  0
  7 11  2  0  0  0  0
  8  5  1  0  0  0  0
  8 10  1  0  0  0  0
  9  7  1  0  0  0  0
  9  5  1  0  0  0  0
 10  3  1  0  0  0  0
 11  1  1  0  0  0  0
 12  1  2  0  0  0  0
 12  6  1  0  0  0  0
 13 20  1  0  0  0  0
 14 16  1  0  0  0  0
 14 17  2  0  0  0  0
 15 20  2  0  0  0  0
 15 19  1  0  0  0  0
 16 13  2  0  0  0  0
 17 15  1  0  0  0  0
 18 14  1  0  0  0  0
 21 23  1  0  0  0  0
 22 21  1  6  0  0  0
 22 26  1  0  0  0  0
 23 24  1  6  0  0  0
 23 22  1  0  0  0  0
 25 28  1  6  0  0  0
 26 27  1  1  0  0  0
 26 25  1  0  0  0  0
 27 25  1  0  0  0  0
M  END
>  <MODEL>
5

>  <REMARK>
 VINA RESULT:      -7.2      2.944      5.958
  Name = 
  3 active torsions:
  status: ('A' for Active; 'I' for Inactive)
    1  A    between atoms: C_1  and  N_2
    2  A    between atoms: N_3  and  C_7
    3  A    between atoms: C_10  and  C_13
                            x       y       z     vdW  Elec       q    Type
                         _______ _______ _______ _____ _____    ______ ____

>  <TORSDO>
F 3

$$$$
=
 OpenBabel11052418103D

 28 32  0  0  1  0  0  0  0  0999 V2000
  189.0010  173.6000  140.9300 C   0  0  0  0  0  0  0  0  0  0  0  0
  186.6210  177.3690  139.3190 O   0  0  0  0  0  0  0  0  0  0  0  0
  187.8490  176.5640  142.7370 C   0  0  1  0  0  3  0  0  0  0  0  0
  186.7040  178.5070  141.8210 N   0  0  0  0  0  2  0  0  0  0  0  0
  187.7620  175.4560  140.0410 N   0  0  0  0  0  0  0  0  0  0  0  0
  187.8050  175.0480  142.5460 C   0  0  0  0  0  2  0  0  0  0  0  0
  188.8890  173.8670  138.5480 C   0  0  0  0  0  3  0  0  0  0  0  0
  187.1360  176.7280  140.2750 C   0  0  0  0  0  0  0  0  0  0  0  0
  187.8150  174.9100  138.6810 C   0  0  0  0  0  2  0  0  0  0  0  0
  187.1070  177.2900  141.6400 C   0  0  0  0  0  0  0  0  0  0  0  0
  189.3860  173.2690  139.5890 N   0  0  0  0  0  0  0  0  0  0  0  0
  188.2270  174.6710  141.1560 C   0  0  0  0  0  0  0  0  0  0  0  0
  186.0520  176.6570  144.4620 C   0  0  0  0  0  3  0  0  0  0  0  0
  188.2300  177.5400  145.0600 C   0  0  0  0  0  0  0  0  0  0  0  0
  186.4150  177.5920  146.6650 C   0  0  0  0  0  0  0  0  0  0  0  0
  187.3800  176.9290  144.1170 C   0  0  0  0  0  0  0  0  0  0  0  0
  187.7430  177.8670  146.3290 C   0  0  0  0  0  3  0  0  0  0  0  0
  189.5220  177.8170  144.7540 F   0  0  0  0  0  0  0  0  0  0  0  0
  185.9010  177.9430  148.0140 C   0  0  0  0  0  1  0  0  0  0  0  0
  185.5690  176.9870  145.7320 C   0  0  0  0  0  3  0  0  0  0  0  0
  189.4940  172.8060  142.0090 N   0  0  0  0  0  0  0  0  0  0  0  0
  189.9290  172.6220  143.3990 N   0  0  1  0  0  0  0  0  0  0  0  0
  189.9860  171.5520  142.5600 C   0  0  2  0  0  3  0  0  0  0  0  0
  191.2650  171.2860  142.0490 O   0  0  0  0  0  1  0  0  0  0  0  0
  191.5300  173.4720  145.0190 C   0  0  2  0  0  3  0  0  0  0  0  0
  191.1830  173.3610  143.5460 C   0  0  2  0  0  3  0  0  0  0  0  0
  190.9210  174.6520  144.2960 C   0  0  0  0  0  2  0  0  0  0  0  0
  193.0230  173.6850  145.1550 C   0  0  0  0  0  1  0  0  0  0  0  0
  1 12  2  0  0  0  0
  1 21  1  0  0  0  0
  2  8  2  0  0  0  0
  3 16  1  1  0  0  0
  5  8  1  0  0  0  0
  5 12  1  0  0  0  0
  6  3  1  0  0  0  0
  7  9  1  0  0  0  0
  7 11  2  0  0  0  0
  8 10  1  0  0  0  0
  9  5  1  0  0  0  0
 10  4  2  0  0  0  0
 10  3  1  0  0  0  0
 11  1  1  0  0  0  0
 12  6  1  0  0  0  0
 13 20  1  0  0  0  0
 14 17  2  0  0  0  0
 15 19  1  0  0  0  0
 16 13  2  0  0  0  0
 16 14  1  0  0  0  0
 17 15  1  0  0  0  0
 18 14  1  0  0  0  0
 20 15  2  0  0  0  0
 21 23  1  0  0  0  0
 22 21  1  6  0  0  0
 22 26  1  0  0  0  0
 23 24  1  6  0  0  0
 23 22  1  0  0  0  0
 25 28  1  6  0  0  0
 26 27  1  1  0  0  0
 26 25  1  0  0  0  0
 27 25  1  0  0  0  0
M  END
>  <MODEL>
6

>  <REMARK>
 VINA RESULT:      -7.2      2.175      5.735
  Name = 
  3 active torsions:
  status: ('A' for Active; 'I' for Inactive)
    1  A    between atoms: C_1  and  N_2
    2  A    between atoms: N_3  and  C_7
    3  A    between atoms: C_10  and  C_13
                            x       y       z     vdW  Elec       q    Type
                         _______ _______ _______ _____ _____    ______ ____

>  <TORSDO>
F 3

$$$$
=
 OpenBabel11052418103D

 28 32  0  0  1  0  0  0  0  0999 V2000
  186.1280  177.7040  143.5070 C   0  0  0  0  0  0  0  0  0  0  0  0
  186.5720  178.1530  148.2040 O   0  0  0  0  0  0  0  0  0  0  0  0
  189.1420  177.5850  145.5760 C   0  0  1  0  0  3  0  0  0  0  0  0
  189.3020  177.9120  147.9820 N   0  0  0  0  0  2  0  0  0  0  0  0
  186.2610  177.9040  145.8970 N   0  0  0  0  0  0  0  0  0  0  0  0
  188.1930  176.8840  144.6030 C   0  0  0  0  0  2  0  0  0  0  0  0
  184.2250  178.5570  144.6930 C   0  0  0  0  0  3  0  0  0  0  0  0
  187.0850  177.9310  147.0740 C   0  0  0  0  0  0  0  0  0  0  0  0
  184.8200  178.1490  146.0110 C   0  0  0  0  0  2  0  0  0  0  0  0
  188.5400  177.7130  146.9550 C   0  0  0  0  0  0  0  0  0  0  0  0
  184.8320  178.3130  143.5710 N   0  0  0  0  0  0  0  0  0  0  0  0
  186.8330  177.5190  144.6320 C   0  0  0  0  0  0  0  0  0  0  0  0
  190.6840  175.8180  146.4210 C   0  0  0  0  0  3  0  0  0  0  0  0
  191.5400  177.3490  144.7460 C   0  0  0  0  0  0  0  0  0  0  0  0
  192.9630  175.6030  145.6380 C   0  0  0  0  0  0  0  0  0  0  0  0
  190.4850  176.9110  145.5700 C   0  0  0  0  0  0  0  0  0  0  0  0
  192.7740  176.6920  144.7850 C   0  0  0  0  0  3  0  0  0  0  0  0
  191.3770  178.4060  143.9110 F   0  0  0  0  0  0  0  0  0  0  0  0
  194.2770  174.9090  145.6760 C   0  0  0  0  0  1  0  0  0  0  0  0
  191.9190  175.1650  146.4570 C   0  0  0  0  0  3  0  0  0  0  0  0
  186.6650  177.3490  142.2330 N   0  0  0  0  0  0  0  0  0  0  0  0
  187.0410  176.3720  141.2040 N   0  0  1  0  0  0  0  0  0  0  0  0
  187.2980  177.6870  140.9670 C   0  0  2  0  0  3  0  0  0  0  0  0
  188.6290  178.0660  141.1950 O   0  0  0  0  0  1  0  0  0  0  0  0
  188.5070  174.4770  140.7900 C   0  0  2  0  0  3  0  0  0  0  0  0
  188.1660  175.6080  141.7420 C   0  0  2  0  0  3  0  0  0  0  0  0
  187.7160  174.1940  142.0470 C   0  0  0  0  0  2  0  0  0  0  0  0
  189.9500  174.0730  141.0060 C   0  0  0  0  0  1  0  0  0  0  0  0
  1 11  1  0  0  0  0
  1 12  2  0  0  0  0
  3 16  1  1  0  0  0
  3 10  1  0  0  0  0
  5  9  1  0  0  0  0
  5  8  1  0  0  0  0
  6 12  1  0  0  0  0
  6  3  1  0  0  0  0
  7  9  1  0  0  0  0
  8  2  2  0  0  0  0
 10  8  1  0  0  0  0
 10  4  2  0  0  0  0
 11  7  2  0  0  0  0
 12  5  1  0  0  0  0
 13 20  1  0  0  0  0
 14 17  2  0  0  0  0
 14 16  1  0  0  0  0
 15 19  1  0  0  0  0
 15 20  2  0  0  0  0
 16 13  2  0  0  0  0
 17 15  1  0  0  0  0
 18 14  1  0  0  0  0
 21  1  1  0  0  0  0
 22 26  1  0  0  0  0
 22 21  1  1  0  0  0
 23 24  1  1  0  0  0
 23 22  1  0  0  0  0
 23 21  1  0  0  0  0
 25 28  1  1  0  0  0
 25 26  1  0  0  0  0
 25 27  1  0  0  0  0
 26 27  1  1  0  0  0
M  END
>  <MODEL>
7

>  <REMARK>
 VINA RESULT:      -7.1      1.860      4.811
  Name = 
  3 active torsions:
  status: ('A' for Active; 'I' for Inactive)
    1  A    between atoms: C_1  and  N_2
    2  A    between atoms: N_3  and  C_7
    3  A    between atoms: C_10  and  C_13
                            x       y       z     vdW  Elec       q    Type
                         _______ _______ _______ _____ _____    ______ ____

>  <TORSDO>
F 3

$$$$
=
 OpenBabel11052418103D

 28 32  0  0  1  0  0  0  0  0999 V2000
  187.8490  176.6800  146.0020 C   0  0  0  0  0  0  0  0  0  0  0  0
  186.2640  178.3240  141.8490 O   0  0  0  0  0  0  0  0  0  0  0  0
  188.3620  175.3540  142.6330 C   0  0  1  0  0  3  0  0  0  0  0  0
  187.4410  176.2080  140.5480 N   0  0  0  0  0  2  0  0  0  0  0  0
  187.0380  177.6010  143.9380 N   0  0  0  0  0  0  0  0  0  0  0  0
  188.9560  175.9380  143.9150 C   0  0  0  0  0  2  0  0  0  0  0  0
  186.1190  178.3410  146.0900 C   0  0  0  0  0  3  0  0  0  0  0  0
  186.9510  177.4960  142.5070 C   0  0  0  0  0  0  0  0  0  0  0  0
  186.3110  178.6660  144.6350 C   0  0  0  0  0  2  0  0  0  0  0  0
  187.6600  176.4070  141.8080 C   0  0  0  0  0  0  0  0  0  0  0  0
  186.8560  177.4530  146.6890 N   0  0  0  0  0  0  0  0  0  0  0  0
  187.9300  176.7350  144.6650 C   0  0  0  0  0  0  0  0  0  0  0  0
  190.7410  175.0240  141.9670 C   0  0  0  0  0  3  0  0  0  0  0  0
  189.0970  173.4910  141.0570 C   0  0  0  0  0  0  0  0  0  0  0  0
  191.4350  173.2590  140.4630 C   0  0  0  0  0  0  0  0  0  0  0  0
  189.4120  174.5990  141.8680 C   0  0  0  0  0  0  0  0  0  0  0  0
  190.1110  172.8270  140.3590 C   0  0  0  0  0  3  0  0  0  0  0  0
  187.8170  173.0560  140.9410 F   0  0  0  0  0  0  0  0  0  0  0  0
  192.5090  172.5520  139.7190 C   0  0  0  0  0  1  0  0  0  0  0  0
  191.7510  174.3580  141.2670 C   0  0  0  0  0  3  0  0  0  0  0  0
  188.7050  175.8230  146.7590 N   0  0  0  0  0  0  0  0  0  0  0  0
  189.9450  175.5370  147.4890 N   0  0  1  0  0  0  0  0  0  0  0  0
  189.0260  174.5410  147.3670 C   0  0  2  0  0  3  0  0  0  0  0  0
  189.3160  173.6050  146.3630 O   0  0  0  0  0  1  0  0  0  0  0  0
  192.3190  175.1220  147.1740 C   0  0  2  0  0  3  0  0  0  0  0  0
  191.0190  175.5120  146.4960 C   0  0  2  0  0  3  0  0  0  0  0  0
  192.0470  176.5710  146.8400 C   0  0  0  0  0  2  0  0  0  0  0  0
  193.2560  174.5380  146.1370 C   0  0  0  0  0  1  0  0  0  0  0  0
  1 11  1  0  0  0  0
  1 21  1  0  0  0  0
  2  8  2  0  0  0  0
  3 16  1  6  0  0  0
  3  6  1  0  0  0  0
  4 10  2  0  0  0  0
  5  9  1  0  0  0  0
  5 12  1  0  0  0  0
  6 12  1  0  0  0  0
  7 11  2  0  0  0  0
  8  5  1  0  0  0  0
  9  7  1  0  0  0  0
 10  8  1  0  0  0  0
 10  3  1  0  0  0  0
 12  1  2  0  0  0  0
 14 16  2  0  0  0  0
 15 20  1  0  0  0  0
 16 13  1  0  0  0  0
 17 15  2  0  0  0  0
 17 14  1  0  0  0  0
 18 14  1  0  0  0  0
 19 15  1  0  0  0  0
 20 13  2  0  0  0  0
 21 23  1  0  0  0  0
 22 21  1  6  0  0  0
 23 24  1  6  0  0  0
 23 22  1  0  0  0  0
 25 28  1  6  0  0  0
 26 27  1  1  0  0  0
 26 25  1  0  0  0  0
 26 22  1  0  0  0  0
 27 25  1  0  0  0  0
M  END
>  <MODEL>
8

>  <REMARK>
 VINA RESULT:      -7.1      3.016      5.081
  Name = 
  3 active torsions:
  status: ('A' for Active; 'I' for Inactive)
    1  A    between atoms: C_1  and  N_2
    2  A    between atoms: N_3  and  C_7
    3  A    between atoms: C_10  and  C_13
                            x       y       z     vdW  Elec       q    Type
                         _______ _______ _______ _____ _____    ______ ____

>  <TORSDO>
F 3

$$$$
=
 OpenBabel11052418103D

 28 32  0  0  1  0  0  0  0  0999 V2000
  192.8590  174.8700  143.0430 C   0  0  0  0  0  0  0  0  0  0  0  0
  193.8130  176.8110  147.2600 O   0  0  0  0  0  0  0  0  0  0  0  0
  190.5650  175.8790  145.7070 C   0  0  1  0  0  3  0  0  0  0  0  0
  191.1370  176.7930  147.8890 N   0  0  0  0  0  2  0  0  0  0  0  0
  193.4260  175.8860  145.1440 N   0  0  0  0  0  0  0  0  0  0  0  0
  191.0490  176.0390  144.2650 C   0  0  0  0  0  2  0  0  0  0  0  0
  195.1460  174.8050  143.7670 C   0  0  0  0  0  3  0  0  0  0  0  0
  192.9780  176.4160  146.4030 C   0  0  0  0  0  0  0  0  0  0  0  0
  194.8620  175.7920  144.8640 C   0  0  0  0  0  2  0  0  0  0  0  0
  191.5330  176.4840  146.6960 C   0  0  0  0  0  0  0  0  0  0  0  0
  194.2190  174.4290  142.9370 N   0  0  0  0  0  0  0  0  0  0  0  0
  192.4650  175.5620  144.1210 C   0  0  0  0  0  0  0  0  0  0  0  0
  188.7550  177.4430  145.0050 C   0  0  0  0  0  3  0  0  0  0  0  0
  188.2620  175.8860  146.7980 C   0  0  0  0  0  0  0  0  0  0  0  0
  186.5720  177.4520  146.0490 C   0  0  0  0  0  0  0  0  0  0  0  0
  189.1630  176.4030  145.8470 C   0  0  0  0  0  0  0  0  0  0  0  0
  186.9710  176.4140  146.8940 C   0  0  0  0  0  3  0  0  0  0  0  0
  188.6290  174.8780  147.6290 F   0  0  0  0  0  0  0  0  0  0  0  0
  185.1990  178.0110  146.1560 C   0  0  0  0  0  1  0  0  0  0  0  0
  187.4630  177.9680  145.1050 C   0  0  0  0  0  3  0  0  0  0  0  0
  191.9330  174.5160  142.0150 N   0  0  0  0  0  0  0  0  0  0  0  0
  190.6010  174.5350  141.3990 N   0  0  1  0  0  0  0  0  0  0  0  0
  191.5850  173.8240  140.7830 C   0  0  2  0  0  3  0  0  0  0  0  0
  191.5360  172.4420  141.0190 O   0  0  0  0  0  1  0  0  0  0  0  0
  188.3830  173.5600  141.5920 C   0  0  2  0  0  3  0  0  0  0  0  0
  189.7260  173.7520  142.2710 C   0  0  2  0  0  3  0  0  0  0  0  0
  188.5380  174.5970  142.6820 C   0  0  0  0  0  2  0  0  0  0  0  0
  187.7150  172.3280  142.1660 C   0  0  0  0  0  1  0  0  0  0  0  0
  1 12  2  0  0  0  0
  3 16  1  6  0  0  0
  3 10  1  0  0  0  0
  5  8  1  0  0  0  0
  6  3  1  0  0  0  0
  7  9  1  0  0  0  0
  8 10  1  0  0  0  0
  8  2  2  0  0  0  0
  9  5  1  0  0  0  0
 10  4  2  0  0  0  0
 11  1  1  0  0  0  0
 11  7  2  0  0  0  0
 12  6  1  0  0  0  0
 12  5  1  0  0  0  0
 13 20  2  0  0  0  0
 13 16  1  0  0  0  0
 14 17  1  0  0  0  0
 14 18  1  0  0  0  0
 15 19  1  0  0  0  0
 15 17  2  0  0  0  0
 16 14  2  0  0  0  0
 20 15  1  0  0  0  0
 21  1  1  0  0  0  0
 22 21  1  1  0  0  0
 22 26  1  0  0  0  0
 23 24  1  1  0  0  0
 23 22  1  0  0  0  0
 23 21  1  0  0  0  0
 25 28  1  1  0  0  0
 25 26  1  0  0  0  0
 25 27  1  0  0  0  0
 26 27  1  1  0  0  0
M  END
>  <MODEL>
9

>  <REMARK>
 VINA RESULT:      -7.1      3.957      7.351
  Name = 
  3 active torsions:
  status: ('A' for Active; 'I' for Inactive)
    1  A    between atoms: C_1  and  N_2
    2  A    between atoms: N_3  and  C_7
    3  A    between atoms: C_10  and  C_13
                            x       y       z     vdW  Elec       q    Type
                         _______ _______ _______ _____ _____    ______ ____

>  <TORSDO>
F 3

$$$$
