=
 OpenBabel11052417323D

 25 28  0  0  1  0  0  0  0  0999 V2000
  188.9040  175.8700  143.5530 C   0  0  0  0  0  0  0  0  0  0  0  0
  187.9580  176.7580  143.0110 C   0  0  0  0  0  0  0  0  0  0  0  0
  189.0530  174.7080  141.4300 C   0  0  0  0  0  3  0  0  0  0  0  0
  189.4360  175.8380  144.8540 C   0  0  0  0  0  0  0  0  0  0  0  0
  190.7230  175.4120  147.2710 C   0  0  0  0  0  3  0  0  0  0  0  0
  188.1380  175.5740  140.9160 N   0  0  0  0  0  0  0  0  0  0  0  0
  190.3560  174.8100  145.0280 C   0  0  2  0  0  3  0  0  0  0  0  0
  190.9890  174.5990  146.2090 N   0  0  0  0  0  0  0  0  0  0  0  0
  186.6130  177.4600  141.0730 N   0  0  0  0  0  0  0  0  0  0  0  0
  186.2350  177.3290  139.6760 C   0  0  0  0  0  1  0  0  0  0  0  0
  187.3900  177.8980  143.8180 C   0  0  0  0  0  3  0  0  0  0  0  0
  189.7990  176.4660  147.1490 C   0  0  0  0  0  3  0  0  0  0  0  0
  189.4360  174.8580  142.7560 C   0  0  0  0  0  0  0  0  0  0  0  0
  190.5470  173.9200  143.6140 S   0  0  0  0  0  0  0  0  0  0  0  0
  185.9480  178.4460  141.8680 C   0  0  0  0  0  3  0  0  0  0  0  0
  189.1460  176.6840  145.9270 C   0  0  0  0  0  3  0  0  0  0  0  0
  186.2630  178.6390  143.1510 C   0  0  0  0  0  0  0  0  0  0  0  0
  187.5860  176.5830  141.6590 C   0  0  0  0  0  0  0  0  0  0  0  0
  185.5540  179.6940  143.9290 C   0  0  0  0  0  2  0  0  0  0  0  0
  184.1210  179.2790  144.2070 C   0  0  0  0  0  2  0  0  0  0  0  0
  184.0320  178.6800  145.5950 C   0  0  0  0  0  2  0  0  0  0  0  0
  185.0640  179.1900  146.3880 O   0  0  0  0  0  0  0  0  0  0  0  0
  185.2510  178.2590  147.3550 N   0  0  0  0  0  0  0  0  0  0  0  0
  185.2850  176.9660  146.6930 C   0  0  0  0  0  1  0  0  0  0  0  0
  186.5810  178.4780  147.8980 C   0  0  0  0  0  1  0  0  0  0  0  0
  1  4  2  0  0  0  0
  2  1  1  0  0  0  0
  2 11  2  0  0  0  0
  3 13  2  0  0  0  0
  4  7  1  0  0  0  0
  4 16  1  0  0  0  0
  6  3  1  0  0  0  0
  6 18  2  0  0  0  0
  7 14  1  6  0  0  0
  7  8  1  0  0  0  0
  8  5  2  0  0  0  0
  9 18  1  0  0  0  0
  9 15  1  0  0  0  0
 10  9  1  0  0  0  0
 12  5  1  0  0  0  0
 13  1  1  0  0  0  0
 13 14  1  0  0  0  0
 15 17  2  0  0  0  0
 16 12  2  0  0  0  0
 17 11  1  0  0  0  0
 17 19  1  0  0  0  0
 18  2  1  0  0  0  0
 19 20  1  0  0  0  0
 20 21  1  0  0  0  0
 21 22  1  0  0  0  0
 22 23  1  0  0  0  0
 23 25  1  0  0  0  0
 24 23  1  0  0  0  0
M  END
>  <MODEL>
1

>  <REMARK>
 VINA RESULT:      -7.0      0.000      0.000
  Name = 
  5 active torsions:
  status: ('A' for Active; 'I' for Inactive)
    1  A    between atoms: N_2  and  O_25
    2  A    between atoms: C_6  and  C_15
    3  A    between atoms: C_6  and  C_23
    4  A    between atoms: C_15  and  C_21
    5  A    between atoms: C_21  and  O_25
                            x       y       z     vdW  Elec       q    Type
                         _______ _______ _______ _____ _____    ______ ____

>  <TORSDO>
F 5

$$$$
=
 OpenBabel11052417323D

 25 28  0  0  1  0  0  0  0  0999 V2000
  186.8100  176.8620  143.5290 C   0  0  0  0  0  0  0  0  0  0  0  0
  187.9510  176.0570  143.6980 C   0  0  0  0  0  0  0  0  0  0  0  0
  187.0700  176.7530  141.1210 C   0  0  0  0  0  3  0  0  0  0  0  0
  185.9710  177.4170  144.5120 C   0  0  0  0  0  0  0  0  0  0  0  0
  184.0860  178.6880  146.0960 C   0  0  0  0  0  3  0  0  0  0  0  0
  188.1710  175.9730  141.2960 N   0  0  0  0  0  0  0  0  0  0  0  0
  184.9320  178.1620  143.9670 C   0  0  1  0  0  3  0  0  0  0  0  0
  184.0070  178.7860  144.7380 N   0  0  0  0  0  0  0  0  0  0  0  0
  189.8020  174.8040  142.6680 N   0  0  0  0  0  0  0  0  0  0  0  0
  190.4990  174.3060  141.4950 C   0  0  0  0  0  1  0  0  0  0  0  0
  188.4180  175.6260  145.0640 C   0  0  0  0  0  3  0  0  0  0  0  0
  185.1180  177.9460  146.6990 C   0  0  0  0  0  3  0  0  0  0  0  0
  186.3870  177.1990  142.2440 C   0  0  0  0  0  0  0  0  0  0  0  0
  185.0040  178.1660  142.2860 S   0  0  0  0  0  0  0  0  0  0  0  0
  190.3500  174.5170  143.9580 C   0  0  0  0  0  3  0  0  0  0  0  0
  186.0740  177.3020  145.9000 C   0  0  0  0  0  3  0  0  0  0  0  0
  189.7480  174.9220  145.0790 C   0  0  0  0  0  0  0  0  0  0  0  0
  188.6260  175.6160  142.5370 C   0  0  0  0  0  0  0  0  0  0  0  0
  190.3500  174.5780  146.3990 C   0  0  0  0  0  2  0  0  0  0  0  0
  190.2770  175.7650  147.3420 C   0  0  0  0  0  2  0  0  0  0  0  0
  191.6080  176.4880  147.3450 C   0  0  0  0  0  2  0  0  0  0  0  0
  192.6150  175.6080  146.9360 O   0  0  0  0  0  0  0  0  0  0  0  0
  193.5780  176.4030  146.4120 N   0  0  0  0  0  0  0  0  0  0  0  0
  194.7500  175.5690  146.2130 C   0  0  0  0  0  1  0  0  0  0  0  0
  193.1250  176.7990  145.0890 C   0  0  0  0  0  1  0  0  0  0  0  0
  1  2  1  0  0  0  0
  1  4  2  0  0  0  0
  2 11  2  0  0  0  0
  3  6  1  0  0  0  0
  3 13  2  0  0  0  0
  4 16  1  0  0  0  0
  5 12  1  0  0  0  0
  6 18  2  0  0  0  0
  7 14  1  1  0  0  0
  7  4  1  0  0  0  0
  7  8  1  0  0  0  0
  8  5  2  0  0  0  0
  9 15  1  0  0  0  0
 10  9  1  0  0  0  0
 11 17  1  0  0  0  0
 13 14  1  0  0  0  0
 13  1  1  0  0  0  0
 15 17  2  0  0  0  0
 16 12  2  0  0  0  0
 17 19  1  0  0  0  0
 18  9  1  0  0  0  0
 18  2  1  0  0  0  0
 19 20  1  0  0  0  0
 20 21  1  0  0  0  0
 22 21  1  0  0  0  0
 23 22  1  0  0  0  0
 24 23  1  0  0  0  0
 25 23  1  0  0  0  0
M  END
>  <MODEL>
2

>  <REMARK>
 VINA RESULT:      -6.7      2.810      5.984
  Name = 
  5 active torsions:
  status: ('A' for Active; 'I' for Inactive)
    1  A    between atoms: N_2  and  O_25
    2  A    between atoms: C_6  and  C_15
    3  A    between atoms: C_6  and  C_23
    4  A    between atoms: C_15  and  C_21
    5  A    between atoms: C_21  and  O_25
                            x       y       z     vdW  Elec       q    Type
                         _______ _______ _______ _____ _____    ______ ____

>  <TORSDO>
F 5

$$$$
=
 OpenBabel11052417323D

 25 28  0  0  0  0  0  0  0  0999 V2000
  186.5010  177.6890  143.7800 C   0  0  0  0  0  0  0  0  0  0  0  0
  185.8260  177.7660  142.5480 C   0  0  0  0  0  0  0  0  0  0  0  0
  188.5530  177.0910  142.6350 C   0  0  0  0  0  3  0  0  0  0  0  0
  185.9990  177.9140  145.0740 C   0  0  0  0  0  0  0  0  0  0  0  0
  185.4360  178.2590  147.7650 C   0  0  0  0  0  3  0  0  0  0  0  0
  187.8900  177.1700  141.4490 N   0  0  0  0  0  0  0  0  0  0  0  0
  186.9670  177.7450  146.0570 C   0  0  0  0  0  0  0  0  0  0  0  0
  186.6960  177.9140  147.3760 N   0  0  0  0  0  0  0  0  0  0  0  0
  185.9060  177.5500  140.0980 N   0  0  0  0  0  0  0  0  0  0  0  0
  186.6430  177.3130  138.8690 C   0  0  0  0  0  1  0  0  0  0  0  0
  184.3770  178.1740  142.4660 C   0  0  0  0  0  3  0  0  0  0  0  0
  184.4180  178.4410  146.8100 C   0  0  0  0  0  3  0  0  0  0  0  0
  187.8530  177.3520  143.8050 C   0  0  0  0  0  0  0  0  0  0  0  0
  188.4500  177.3220  145.3840 S   0  0  0  0  0  0  0  0  0  0  0  0
  184.4970  177.7800  140.0130 C   0  0  0  0  0  3  0  0  0  0  0  0
  184.7010  178.2670  145.4470 C   0  0  0  0  0  2  0  0  0  0  0  0
  183.7620  178.0310  141.1000 C   0  0  0  0  0  0  0  0  0  0  0  0
  186.5630  177.4960  141.3730 C   0  0  0  0  0  0  0  0  0  0  0  0
  182.3000  178.2850  140.9540 C   0  0  0  0  0  2  0  0  0  0  0  0
  181.7400  178.9130  142.2160 C   0  0  0  0  0  2  0  0  0  0  0  0
  180.2390  179.0600  142.0820 C   0  0  0  0  0  2  0  0  0  0  0  0
  179.6680  177.8030  141.8630 O   0  0  0  0  0  0  0  0  0  0  0  0
  178.3510  177.9690  142.1340 N   0  0  0  0  0  0  0  0  0  0  0  0
  177.8320  176.6670  142.5160 C   0  0  0  0  0  1  0  0  0  0  0  0
  178.2660  178.8090  143.3160 C   0  0  0  0  0  1  0  0  0  0  0  0
  1 13  1  0  0  0  0
  1  4  2  0  0  0  0
  2  1  1  0  0  0  0
  3 13  2  0  0  0  0
  4 16  1  0  0  0  0
  4  7  1  0  0  0  0
  6  3  1  0  0  0  0
  7  8  2  0  0  0  0
  8  5  1  0  0  0  0
  9 18  1  0  0  0  0
 10  9  1  0  0  0  0
 11  2  2  0  0  0  0
 12  5  2  0  0  0  0
 13 14  1  0  0  0  0
 14  7  1  0  0  0  0
 15  9  1  0  0  0  0
 15 17  2  0  0  0  0
 16 12  1  0  0  0  0
 17 11  1  0  0  0  0
 18  6  2  0  0  0  0
 18  2  1  0  0  0  0
 19 17  1  0  0  0  0
 19 20  1  0  0  0  0
 21 20  1  0  0  0  0
 22 21  1  0  0  0  0
 22 23  1  0  0  0  0
 23 24  1  0  0  0  0
 23 25  1  0  0  0  0
M  END
>  <MODEL>
3

>  <REMARK>
 VINA RESULT:      -6.7      3.475      4.874
  Name = 
  5 active torsions:
  status: ('A' for Active; 'I' for Inactive)
    1  A    between atoms: N_2  and  O_25
    2  A    between atoms: C_6  and  C_15
    3  A    between atoms: C_6  and  C_23
    4  A    between atoms: C_15  and  C_21
    5  A    between atoms: C_21  and  O_25
                            x       y       z     vdW  Elec       q    Type
                         _______ _______ _______ _____ _____    ______ ____

>  <TORSDO>
F 5

$$$$
=
 OpenBabel11052417323D

 25 28  0  0  0  0  0  0  0  0999 V2000
  186.8410  177.7360  144.7160 C   0  0  0  0  0  0  0  0  0  0  0  0
  188.1990  177.3910  144.8330 C   0  0  0  0  0  0  0  0  0  0  0  0
  186.6620  177.9220  147.1260 C   0  0  0  0  0  3  0  0  0  0  0  0
  186.0650  177.8720  143.5500 C   0  0  0  0  0  0  0  0  0  0  0  0
  184.1950  178.2430  141.5400 C   0  0  0  0  0  3  0  0  0  0  0  0
  187.9780  177.5890  147.2280 N   0  0  0  0  0  0  0  0  0  0  0  0
  184.7500  178.2280  143.8240 C   0  0  0  0  0  0  0  0  0  0  0  0
  183.8310  178.4120  142.8430 N   0  0  0  0  0  0  0  0  0  0  0  0
  190.1330  176.9630  146.2950 N   0  0  0  0  0  0  0  0  0  0  0  0
  190.7420  176.9200  147.6130 C   0  0  0  0  0  1  0  0  0  0  0  0
  189.0610  177.1500  143.6210 C   0  0  0  0  0  3  0  0  0  0  0  0
  185.5140  177.8820  141.2080 C   0  0  0  0  0  3  0  0  0  0  0  0
  186.0930  177.9950  145.8630 C   0  0  0  0  0  0  0  0  0  0  0  0
  184.4960  178.3880  145.4800 S   0  0  0  0  0  0  0  0  0  0  0  0
  190.9230  176.5770  145.1670 C   0  0  0  0  0  3  0  0  0  0  0  0
  186.4630  177.6930  142.2230 C   0  0  0  0  0  2  0  0  0  0  0  0
  190.4360  176.6170  143.9240 C   0  0  0  0  0  0  0  0  0  0  0  0
  188.7540  177.3250  146.1320 C   0  0  0  0  0  0  0  0  0  0  0  0
  191.3090  176.2240  142.7810 C   0  0  0  0  0  2  0  0  0  0  0  0
  191.7450  174.7770  142.9180 C   0  0  0  0  0  2  0  0  0  0  0  0
  190.6370  173.8700  142.4260 C   0  0  0  0  0  2  0  0  0  0  0  0
  190.1810  174.3230  141.1850 O   0  0  0  0  0  0  0  0  0  0  0  0
  189.0600  173.6020  140.9420 N   0  0  0  0  0  0  0  0  0  0  0  0
  188.0750  174.0100  141.9280 C   0  0  0  0  0  1  0  0  0  0  0  0
  188.5530  174.0350  139.6510 C   0  0  0  0  0  1  0  0  0  0  0  0
  1  2  1  0  0  0  0
  1 13  1  0  0  0  0
  2 18  1  0  0  0  0
  3  6  1  0  0  0  0
  4  7  1  0  0  0  0
  4  1  2  0  0  0  0
  5  8  1  0  0  0  0
  7 14  1  0  0  0  0
  8  7  2  0  0  0  0
  9 10  1  0  0  0  0
 11 17  1  0  0  0  0
 11  2  2  0  0  0  0
 12  5  2  0  0  0  0
 12 16  1  0  0  0  0
 13  3  2  0  0  0  0
 14 13  1  0  0  0  0
 15  9  1  0  0  0  0
 16  4  1  0  0  0  0
 17 15  2  0  0  0  0
 18  9  1  0  0  0  0
 18  6  2  0  0  0  0
 19 20  1  0  0  0  0
 19 17  1  0  0  0  0
 21 20  1  0  0  0  0
 22 21  1  0  0  0  0
 23 22  1  0  0  0  0
 23 24  1  0  0  0  0
 25 23  1  0  0  0  0
M  END
>  <MODEL>
4

>  <REMARK>
 VINA RESULT:      -6.4      2.894      6.912
  Name = 
  5 active torsions:
  status: ('A' for Active; 'I' for Inactive)
    1  A    between atoms: N_2  and  O_25
    2  A    between atoms: C_6  and  C_15
    3  A    between atoms: C_6  and  C_23
    4  A    between atoms: C_15  and  C_21
    5  A    between atoms: C_21  and  O_25
                            x       y       z     vdW  Elec       q    Type
                         _______ _______ _______ _____ _____    ______ ____

>  <TORSDO>
F 5

$$$$
=
 OpenBabel11052417323D

 25 28  0  0  0  0  0  0  0  0999 V2000
  186.9160  177.7090  144.7350 C   0  0  0  0  0  0  0  0  0  0  0  0
  188.2600  177.3110  144.8550 C   0  0  0  0  0  0  0  0  0  0  0  0
  186.7480  177.9260  147.1440 C   0  0  0  0  0  3  0  0  0  0  0  0
  186.1460  177.8650  143.5690 C   0  0  0  0  0  0  0  0  0  0  0  0
  184.2890  178.2910  141.5570 C   0  0  0  0  0  3  0  0  0  0  0  0
  188.0500  177.5410  147.2480 N   0  0  0  0  0  0  0  0  0  0  0  0
  184.8470  178.2760  143.8400 C   0  0  0  0  0  0  0  0  0  0  0  0
  183.9340  178.4870  142.8590 N   0  0  0  0  0  0  0  0  0  0  0  0
  190.1770  176.8200  146.3190 N   0  0  0  0  0  0  0  0  0  0  0  0
  190.7850  176.7660  147.6370 C   0  0  0  0  0  1  0  0  0  0  0  0
  189.1110  177.0240  143.6440 C   0  0  0  0  0  3  0  0  0  0  0  0
  185.5920  177.8740  141.2270 C   0  0  0  0  0  3  0  0  0  0  0  0
  186.1810  178.0090  145.8800 C   0  0  0  0  0  0  0  0  0  0  0  0
  184.6000  178.4610  145.4940 S   0  0  0  0  0  0  0  0  0  0  0  0
  190.9500  176.3920  145.1950 C   0  0  0  0  0  3  0  0  0  0  0  0
  186.5340  177.6570  142.2440 C   0  0  0  0  0  2  0  0  0  0  0  0
  190.4630  176.4390  143.9520 C   0  0  0  0  0  0  0  0  0  0  0  0
  188.8130  177.2360  146.1540 C   0  0  0  0  0  0  0  0  0  0  0  0
  191.3180  176.0010  142.8120 C   0  0  0  0  0  2  0  0  0  0  0  0
  192.6140  176.7900  142.7850 C   0  0  0  0  0  2  0  0  0  0  0  0
  193.7830  175.8430  142.9530 C   0  0  0  0  0  2  0  0  0  0  0  0
  194.7240  176.4140  143.8150 O   0  0  0  0  0  0  0  0  0  0  0  0
  194.5110  175.8130  145.0100 N   0  0  0  0  0  0  0  0  0  0  0  0
  195.6480  174.9440  145.2520 C   0  0  0  0  0  1  0  0  0  0  0  0
  194.5660  176.8550  146.0210 C   0  0  0  0  0  1  0  0  0  0  0  0
  1  2  1  0  0  0  0
  1 13  1  0  0  0  0
  2 18  1  0  0  0  0
  3  6  1  0  0  0  0
  4  7  1  0  0  0  0
  4  1  2  0  0  0  0
  5  8  1  0  0  0  0
  7 14  1  0  0  0  0
  8  7  2  0  0  0  0
  9 10  1  0  0  0  0
 11 17  1  0  0  0  0
 11  2  2  0  0  0  0
 12  5  2  0  0  0  0
 12 16  1  0  0  0  0
 13  3  2  0  0  0  0
 14 13  1  0  0  0  0
 15  9  1  0  0  0  0
 16  4  1  0  0  0  0
 17 15  2  0  0  0  0
 18  9  1  0  0  0  0
 18  6  2  0  0  0  0
 19 17  1  0  0  0  0
 20 19  1  0  0  0  0
 20 21  1  0  0  0  0
 21 22  1  0  0  0  0
 22 23  1  0  0  0  0
 23 24  1  0  0  0  0
 23 25  1  0  0  0  0
M  END
>  <MODEL>
5

>  <REMARK>
 VINA RESULT:      -6.3      3.534      7.296
  Name = 
  5 active torsions:
  status: ('A' for Active; 'I' for Inactive)
    1  A    between atoms: N_2  and  O_25
    2  A    between atoms: C_6  and  C_15
    3  A    between atoms: C_6  and  C_23
    4  A    between atoms: C_15  and  C_21
    5  A    between atoms: C_21  and  O_25
                            x       y       z     vdW  Elec       q    Type
                         _______ _______ _______ _____ _____    ______ ____

>  <TORSDO>
F 5

$$$$
=
 OpenBabel11052417323D

 25 28  0  0  1  0  0  0  0  0999 V2000
  187.0850  176.9400  143.1490 C   0  0  0  0  0  0  0  0  0  0  0  0
  187.8090  175.8550  142.6230 C   0  0  0  0  0  0  0  0  0  0  0  0
  186.4480  177.6200  140.9110 C   0  0  0  0  0  3  0  0  0  0  0  0
  186.9140  177.3150  144.4940 C   0  0  0  0  0  0  0  0  0  0  0  0
  186.3280  178.3990  146.9760 C   0  0  0  0  0  3  0  0  0  0  0  0
  187.1500  176.5660  140.4140 N   0  0  0  0  0  0  0  0  0  0  0  0
  186.1280  178.4520  144.6340 C   0  0  2  0  0  3  0  0  0  0  0  0
  185.8370  178.9860  145.8470 N   0  0  0  0  0  0  0  0  0  0  0  0
  188.5610  174.6010  140.6440 N   0  0  0  0  0  0  0  0  0  0  0  0
  188.5670  174.3810  139.2080 C   0  0  0  0  0  1  0  0  0  0  0  0
  188.5060  174.8620  143.5180 C   0  0  0  0  0  3  0  0  0  0  0  0
  187.1300  177.2460  146.8900 C   0  0  0  0  0  3  0  0  0  0  0  0
  186.4180  177.8070  142.2860 C   0  0  0  0  0  0  0  0  0  0  0  0
  185.6200  179.0280  143.1370 S   0  0  0  0  0  0  0  0  0  0  0  0
  189.3570  173.7430  141.4670 C   0  0  0  0  0  3  0  0  0  0  0  0
  187.4290  176.6960  145.6350 C   0  0  0  0  0  3  0  0  0  0  0  0
  189.3790  173.8710  142.7960 C   0  0  0  0  0  0  0  0  0  0  0  0
  187.8230  175.6880  141.2200 C   0  0  0  0  0  0  0  0  0  0  0  0
  190.2100  172.9380  143.6090 C   0  0  0  0  0  2  0  0  0  0  0  0
  190.4000  173.4810  145.0130 C   0  0  0  0  0  2  0  0  0  0  0  0
  191.7640  174.1290  145.1210 C   0  0  0  0  0  2  0  0  0  0  0  0
  191.6120  175.4800  145.4450 O   0  0  0  0  0  0  0  0  0  0  0  0
  192.1480  175.6030  146.6830 N   0  0  0  0  0  0  0  0  0  0  0  0
  193.3430  176.4170  146.5460 C   0  0  0  0  0  1  0  0  0  0  0  0
  191.2090  176.3810  147.4730 C   0  0  0  0  0  1  0  0  0  0  0  0
  1  4  2  0  0  0  0
  2  1  1  0  0  0  0
  2 11  2  0  0  0  0
  3 13  2  0  0  0  0
  4  7  1  0  0  0  0
  4 16  1  0  0  0  0
  6  3  1  0  0  0  0
  6 18  2  0  0  0  0
  7 14  1  1  0  0  0
  7  8  1  0  0  0  0
  8  5  2  0  0  0  0
  9 18  1  0  0  0  0
  9 15  1  0  0  0  0
 10  9  1  0  0  0  0
 12  5  1  0  0  0  0
 13 14  1  0  0  0  0
 13  1  1  0  0  0  0
 15 17  2  0  0  0  0
 16 12  2  0  0  0  0
 17 11  1  0  0  0  0
 17 19  1  0  0  0  0
 18  2  1  0  0  0  0
 19 20  1  0  0  0  0
 20 21  1  0  0  0  0
 21 22  1  0  0  0  0
 22 23  1  0  0  0  0
 23 25  1  0  0  0  0
 24 23  1  0  0  0  0
M  END
>  <MODEL>
6

>  <REMARK>
 VINA RESULT:      -6.1      2.524      5.467
  Name = 
  5 active torsions:
  status: ('A' for Active; 'I' for Inactive)
    1  A    between atoms: N_2  and  O_25
    2  A    between atoms: C_6  and  C_15
    3  A    between atoms: C_6  and  C_23
    4  A    between atoms: C_15  and  C_21
    5  A    between atoms: C_21  and  O_25
                            x       y       z     vdW  Elec       q    Type
                         _______ _______ _______ _____ _____    ______ ____

>  <TORSDO>
F 5

$$$$
=
 OpenBabel11052417323D

 25 28  0  0  1  0  0  0  0  0999 V2000
  185.7440  178.0490  143.6150 C   0  0  0  0  0  0  0  0  0  0  0  0
  186.6450  177.9200  144.6880 C   0  0  0  0  0  0  0  0  0  0  0  0
  184.0050  178.7740  145.1410 C   0  0  0  0  0  3  0  0  0  0  0  0
  185.9640  177.8050  142.2470 C   0  0  0  0  0  0  0  0  0  0  0  0
  185.9580  177.4470  139.5000 C   0  0  0  0  0  3  0  0  0  0  0  0
  184.8860  178.6470  146.1710 N   0  0  0  0  0  0  0  0  0  0  0  0
  184.8330  178.0430  141.4760 C   0  0  2  0  0  3  0  0  0  0  0  0
  184.8250  177.8700  140.1310 N   0  0  0  0  0  0  0  0  0  0  0  0
  187.0620  178.1010  147.1070 N   0  0  0  0  0  0  0  0  0  0  0  0
  186.6230  178.4500  148.4470 C   0  0  0  0  0  1  0  0  0  0  0  0
  188.0800  177.5130  144.4700 C   0  0  0  0  0  3  0  0  0  0  0  0
  187.1310  177.1910  140.2350 C   0  0  0  0  0  3  0  0  0  0  0  0
  184.4390  178.4720  143.8580 C   0  0  0  0  0  0  0  0  0  0  0  0
  183.5430  178.5540  142.4280 S   0  0  0  0  0  0  0  0  0  0  0  0
  188.3770  177.5660  146.9390 C   0  0  0  0  0  3  0  0  0  0  0  0
  187.1360  177.3710  141.6260 C   0  0  0  0  0  3  0  0  0  0  0  0
  188.8550  177.2480  145.7330 C   0  0  0  0  0  0  0  0  0  0  0  0
  186.1770  178.2340  145.9840 C   0  0  0  0  0  0  0  0  0  0  0  0
  190.2410  176.7130  145.6110 C   0  0  0  0  0  2  0  0  0  0  0  0
  190.2360  175.1980  145.6950 C   0  0  0  0  0  2  0  0  0  0  0  0
  190.6210  174.6180  144.3500 C   0  0  0  0  0  2  0  0  0  0  0  0
  189.4640  174.3260  143.6230 O   0  0  0  0  0  0  0  0  0  0  0  0
  189.6730  174.8760  142.4020 N   0  0  0  0  0  0  0  0  0  0  0  0
  191.0810  174.6940  142.0940 C   0  0  0  0  0  1  0  0  0  0  0  0
  188.9350  174.0700  141.4450 C   0  0  0  0  0  1  0  0  0  0  0  0
  1 13  1  0  0  0  0
  1  2  1  0  0  0  0
  2 18  1  0  0  0  0
  3  6  1  0  0  0  0
  4  1  2  0  0  0  0
  5  8  2  0  0  0  0
  5 12  1  0  0  0  0
  7  8  1  6  0  0  0
  7  4  1  0  0  0  0
  7 14  1  0  0  0  0
  9 10  1  0  0  0  0
 11  2  2  0  0  0  0
 11 17  1  0  0  0  0
 12 16  2  0  0  0  0
 13  3  2  0  0  0  0
 14 13  1  0  0  0  0
 15  9  1  0  0  0  0
 16  4  1  0  0  0  0
 17 15  2  0  0  0  0
 18  6  2  0  0  0  0
 18  9  1  0  0  0  0
 19 20  1  0  0  0  0
 19 17  1  0  0  0  0
 21 20  1  0  0  0  0
 22 21  1  0  0  0  0
 23 22  1  0  0  0  0
 24 23  1  0  0  0  0
 25 23  1  0  0  0  0
M  END
>  <MODEL>
7

>  <REMARK>
 VINA RESULT:      -6.1      2.671      6.737
  Name = 
  5 active torsions:
  status: ('A' for Active; 'I' for Inactive)
    1  A    between atoms: N_2  and  O_25
    2  A    between atoms: C_6  and  C_15
    3  A    between atoms: C_6  and  C_23
    4  A    between atoms: C_15  and  C_21
    5  A    between atoms: C_21  and  O_25
                            x       y       z     vdW  Elec       q    Type
                         _______ _______ _______ _____ _____    ______ ____

>  <TORSDO>
F 5

$$$$
=
 OpenBabel11052417323D

 25 28  0  0  1  0  0  0  0  0999 V2000
  186.9820  177.0830  143.0630 C   0  0  0  0  0  0  0  0  0  0  0  0
  187.2510  177.0270  144.4430 C   0  0  0  0  0  0  0  0  0  0  0  0
  185.5180  178.9850  143.4110 C   0  0  0  0  0  3  0  0  0  0  0  0
  187.4770  176.2600  142.0360 C   0  0  0  0  0  0  0  0  0  0  0  0
  188.1950  174.8970  139.7330 C   0  0  0  0  0  3  0  0  0  0  0  0
  185.7870  178.9220  144.7430 N   0  0  0  0  0  0  0  0  0  0  0  0
  186.9870  176.6180  140.7850 C   0  0  2  0  0  3  0  0  0  0  0  0
  187.3370  175.9540  139.6550 N   0  0  0  0  0  0  0  0  0  0  0  0
  186.8650  177.9480  146.6920 N   0  0  0  0  0  0  0  0  0  0  0  0
  186.2660  178.9360  147.5730 C   0  0  0  0  0  1  0  0  0  0  0  0
  188.2140  176.0210  145.0190 C   0  0  0  0  0  3  0  0  0  0  0  0
  188.7190  174.4940  140.9750 C   0  0  0  0  0  3  0  0  0  0  0  0
  186.1190  178.0590  142.5680 C   0  0  0  0  0  0  0  0  0  0  0  0
  185.9470  177.9360  140.8930 S   0  0  0  0  0  0  0  0  0  0  0  0
  187.6500  176.9040  147.2750 C   0  0  0  0  0  3  0  0  0  0  0  0
  188.3570  175.1810  142.1420 C   0  0  0  0  0  3  0  0  0  0  0  0
  188.2510  175.9770  146.5230 C   0  0  0  0  0  0  0  0  0  0  0  0
  186.6270  177.9810  145.2770 C   0  0  0  0  0  0  0  0  0  0  0  0
  189.0750  174.9230  147.1790 C   0  0  0  0  0  2  0  0  0  0  0  0
  190.4040  175.4940  147.6380 C   0  0  0  0  0  2  0  0  0  0  0  0
  191.4410  175.2850  146.5550 C   0  0  0  0  0  2  0  0  0  0  0  0
  191.5830  176.4610  145.8150 O   0  0  0  0  0  0  0  0  0  0  0  0
  192.2320  176.0850  144.6860 N   0  0  0  0  0  0  0  0  0  0  0  0
  191.6090  174.8550  144.2320 C   0  0  0  0  0  1  0  0  0  0  0  0
  191.9420  177.0910  143.6780 C   0  0  0  0  0  1  0  0  0  0  0  0
  1  2  1  0  0  0  0
  2 11  2  0  0  0  0
  2 18  1  0  0  0  0
  3  6  1  0  0  0  0
  4 16  1  0  0  0  0
  4  1  2  0  0  0  0
  5 12  1  0  0  0  0
  6 18  2  0  0  0  0
  7  8  1  6  0  0  0
  7 14  1  0  0  0  0
  7  4  1  0  0  0  0
  8  5  2  0  0  0  0
  9 15  1  0  0  0  0
  9 10  1  0  0  0  0
 11 17  1  0  0  0  0
 12 16  2  0  0  0  0
 13  1  1  0  0  0  0
 13  3  2  0  0  0  0
 14 13  1  0  0  0  0
 17 19  1  0  0  0  0
 17 15  2  0  0  0  0
 18  9  1  0  0  0  0
 19 20  1  0  0  0  0
 21 20  1  0  0  0  0
 22 21  1  0  0  0  0
 23 22  1  0  0  0  0
 24 23  1  0  0  0  0
 25 23  1  0  0  0  0
M  END
>  <MODEL>
8

>  <REMARK>
 VINA RESULT:      -6.1      2.452      6.101
  Name = 
  5 active torsions:
  status: ('A' for Active; 'I' for Inactive)
    1  A    between atoms: N_2  and  O_25
    2  A    between atoms: C_6  and  C_15
    3  A    between atoms: C_6  and  C_23
    4  A    between atoms: C_15  and  C_21
    5  A    between atoms: C_21  and  O_25
                            x       y       z     vdW  Elec       q    Type
                         _______ _______ _______ _____ _____    ______ ____

>  <TORSDO>
F 5

$$$$
=
 OpenBabel11052417323D

 25 28  0  0  1  0  0  0  0  0999 V2000
  189.9230  175.4300  144.0120 C   0  0  0  0  0  0  0  0  0  0  0  0
  189.0110  175.9790  143.0930 C   0  0  0  0  0  0  0  0  0  0  0  0
  190.4620  173.6600  142.4460 C   0  0  0  0  0  3  0  0  0  0  0  0
  190.2570  175.8880  145.3000 C   0  0  0  0  0  0  0  0  0  0  0  0
  191.1970  176.4270  147.8500 C   0  0  0  0  0  3  0  0  0  0  0  0
  189.5780  174.2000  141.5640 N   0  0  0  0  0  0  0  0  0  0  0  0
  191.2070  175.0850  145.9200 C   0  0  1  0  0  3  0  0  0  0  0  0
  191.6700  175.3460  147.1680 N   0  0  0  0  0  0  0  0  0  0  0  0
  187.9250  175.8480  140.8880 N   0  0  0  0  0  0  0  0  0  0  0  0
  187.7680  175.2240  139.5850 C   0  0  0  0  0  1  0  0  0  0  0  0
  188.2560  177.2490  143.3900 C   0  0  0  0  0  3  0  0  0  0  0  0
  190.2330  177.2720  147.2680 C   0  0  0  0  0  3  0  0  0  0  0  0
  190.6330  174.2790  143.6770 C   0  0  0  0  0  0  0  0  0  0  0  0
  191.6650  173.8060  144.9270 S   0  0  0  0  0  0  0  0  0  0  0  0
  187.0860  176.9600  141.2150 C   0  0  0  0  0  3  0  0  0  0  0  0
  189.7550  177.0010  145.9770 C   0  0  0  0  0  3  0  0  0  0  0  0
  187.1930  177.5980  142.3830 C   0  0  0  0  0  0  0  0  0  0  0  0
  188.8570  175.3280  141.8480 C   0  0  0  0  0  0  0  0  0  0  0  0
  186.3080  178.7640  142.6660 C   0  0  0  0  0  2  0  0  0  0  0  0
  184.9010  178.2970  142.9900 C   0  0  0  0  0  2  0  0  0  0  0  0
  184.8160  177.9430  144.4600 C   0  0  0  0  0  2  0  0  0  0  0  0
  185.4770  178.9190  145.2120 O   0  0  0  0  0  0  0  0  0  0  0  0
  186.0830  178.2350  146.2120 N   0  0  0  0  0  0  0  0  0  0  0  0
  185.8220  178.9640  147.4400 C   0  0  0  0  0  1  0  0  0  0  0  0
  185.3910  176.9630  146.3330 C   0  0  0  0  0  1  0  0  0  0  0  0
  1  4  2  0  0  0  0
  2 11  2  0  0  0  0
  2  1  1  0  0  0  0
  3 13  2  0  0  0  0
  4  7  1  0  0  0  0
  4 16  1  0  0  0  0
  6 18  2  0  0  0  0
  6  3  1  0  0  0  0
  7 14  1  1  0  0  0
  7  8  1  0  0  0  0
  8  5  2  0  0  0  0
  9 15  1  0  0  0  0
  9 18  1  0  0  0  0
 10  9  1  0  0  0  0
 12  5  1  0  0  0  0
 13  1  1  0  0  0  0
 13 14  1  0  0  0  0
 15 17  2  0  0  0  0
 16 12  2  0  0  0  0
 17 19  1  0  0  0  0
 17 11  1  0  0  0  0
 18  2  1  0  0  0  0
 19 20  1  0  0  0  0
 20 21  1  0  0  0  0
 21 22  1  0  0  0  0
 22 23  1  0  0  0  0
 23 25  1  0  0  0  0
 23 24  1  0  0  0  0
M  END
>  <MODEL>
9

>  <REMARK>
 VINA RESULT:      -6.0      1.249      1.673
  Name = 
  5 active torsions:
  status: ('A' for Active; 'I' for Inactive)
    1  A    between atoms: N_2  and  O_25
    2  A    between atoms: C_6  and  C_15
    3  A    between atoms: C_6  and  C_23
    4  A    between atoms: C_15  and  C_21
    5  A    between atoms: C_21  and  O_25
                            x       y       z     vdW  Elec       q    Type
                         _______ _______ _______ _____ _____    ______ ____

>  <TORSDO>
F 5

$$$$
