=
 OpenBabel11052417503D

 31 34  0  0  1  0  0  0  0  0999 V2000
  185.6830  178.1210  147.0840 C   0  0  0  0  0  0  0  0  0  0  0  0
  186.9550  177.9700  143.4300 C   0  0  0  0  0  0  0  0  0  0  0  0
  185.6950  178.0600  142.6250 C   0  0  0  0  0  0  0  0  0  0  0  0
  183.2920  178.4140  142.4420 C   0  0  0  0  0  3  0  0  0  0  0  0
  186.9240  177.8750  144.9250 C   0  0  0  0  0  0  0  0  0  0  0  0
  186.6640  177.4740  147.7270 C   0  0  0  0  0  3  0  0  0  0  0  0
  184.4540  178.3520  143.2140 C   0  0  0  0  0  3  0  0  0  0  0  0
  189.4230  177.6730  143.5530 C   0  0  2  0  0  3  0  0  0  0  0  0
  184.3590  178.2980  147.7400 C   0  0  0  0  0  1  0  0  0  0  0  0
  187.0290  177.4110  140.5880 C   0  0  0  0  0  2  0  0  0  0  0  0
  183.3530  178.1760  141.0680 C   0  0  0  0  0  0  0  0  0  0  0  0
  189.1570  176.2920  144.7050 S   0  0  0  0  0  0  0  0  0  0  0  0
  188.1440  177.8990  142.7760 C   0  0  0  0  0  0  0  0  0  0  0  0
  185.9240  178.6930  145.7120 C   0  0  0  0  0  2  0  0  0  0  0  0
  182.1160  178.2370  140.2470 C   0  0  0  0  0  1  0  0  0  0  0  0
  187.9010  177.2170  145.5910 C   0  0  0  0  0  0  0  0  0  0  0  0
  188.0180  177.3280  147.0880 C   0  0  0  0  0  2  0  0  0  0  0  0
  188.1940  178.1070  141.2800 C   0  0  0  0  0  2  0  0  0  0  0  0
  185.7410  177.8170  141.2340 C   0  0  0  0  0  0  0  0  0  0  0  0
  184.5750  177.8690  140.4660 C   0  0  0  0  0  3  0  0  0  0  0  0
  190.6210  177.3760  142.6600 C   0  0  0  0  0  2  0  0  0  0  0  0
  193.7830  176.0720  144.3470 N   0  0  0  0  0  2  0  0  0  0  0  0
  194.3810  173.8320  143.9880 O   0  0  0  0  0  0  0  0  0  0  0  0
  192.2720  175.0800  142.8580 O   0  0  0  0  0  0  0  0  0  0  0  0
  191.8300  177.2880  143.4620 N   0  0  0  0  0  2  0  0  0  0  0  0
  194.6300  174.9350  144.5440 C   0  0  0  0  0  0  0  0  0  0  0  0
  192.6120  176.0950  143.5240 C   0  0  0  0  0  0  0  0  0  0  0  0
  195.8400  175.0670  145.4050 C   0  0  0  0  0  2  0  0  0  0  0  0
  196.7080  173.8250  145.3040 C   0  0  2  0  0  3  0  0  0  0  0  0
  197.0960  173.4100  146.5790 O   0  0  0  0  0  1  0  0  0  0  0  0
  197.9410  174.1440  144.4860 C   0  0  0  0  0  1  0  0  0  0  0  0
  1  6  2  0  0  0  0
  1  9  1  0  0  0  0
  2  5  1  0  0  0  0
  3  7  1  0  0  0  0
  3  2  1  0  0  0  0
  4  7  2  0  0  0  0
  5 16  2  0  0  0  0
  5 14  1  0  0  0  0
  8 21  1  6  0  0  0
  8 12  1  0  0  0  0
 10 19  1  0  0  0  0
 10 18  1  0  0  0  0
 11  4  1  0  0  0  0
 12 16  1  0  0  0  0
 13  2  2  0  0  0  0
 13  8  1  0  0  0  0
 14  1  1  0  0  0  0
 15 11  1  0  0  0  0
 16 17  1  0  0  0  0
 17  6  1  0  0  0  0
 18 13  1  0  0  0  0
 19  3  2  0  0  0  0
 20 11  2  0  0  0  0
 20 19  1  0  0  0  0
 21 25  1  0  0  0  0
 22 26  1  0  0  0  0
 23 26  2  0  0  0  0
 24 27  2  0  0  0  0
 25 27  1  0  0  0  0
 26 28  1  0  0  0  0
 27 22  1  0  0  0  0
 29 31  1  6  0  0  0
 29 28  1  0  0  0  0
 29 30  1  0  0  0  0
M  END
>  <MODEL>
1

>  <REMARK>
 VINA RESULT:      -8.1      0.000      0.000
  Name = 
  4 active torsions:
  status: ('A' for Active; 'I' for Inactive)
    1  A    between atoms: C_1  and  C_24
    2  A    between atoms: N_9  and  C_23
    3  A    between atoms: C_15  and  C_23
    4  A    between atoms: C_19  and  C_24
                            x       y       z     vdW  Elec       q    Type
                         _______ _______ _______ _____ _____    ______ ____

>  <TORSDO>
F 4

$$$$
=
 OpenBabel11052417503D

 31 34  0  0  1  0  0  0  0  0999 V2000
  185.8990  177.3750  141.1890 C   0  0  0  0  0  0  0  0  0  0  0  0
  187.8710  176.3820  144.3700 C   0  0  0  0  0  0  0  0  0  0  0  0
  187.3460  177.3270  145.4070 C   0  0  0  0  0  0  0  0  0  0  0  0
  185.7830  179.0430  146.1450 C   0  0  0  0  0  3  0  0  0  0  0  0
  187.4600  176.4890  142.9340 C   0  0  0  0  0  0  0  0  0  0  0  0
  186.7450  176.9840  140.2270 C   0  0  0  0  0  3  0  0  0  0  0  0
  186.2420  178.1590  145.1650 C   0  0  0  0  0  3  0  0  0  0  0  0
  189.4460  174.5790  143.6900 C   0  0  2  0  0  3  0  0  0  0  0  0
  184.8140  178.3440  140.8730 C   0  0  0  0  0  1  0  0  0  0  0  0
  189.2290  176.6080  146.9190 C   0  0  0  0  0  2  0  0  0  0  0  0
  186.4280  179.1120  147.3800 C   0  0  0  0  0  0  0  0  0  0  0  0
  189.9950  175.6350  142.3150 S   0  0  0  0  0  0  0  0  0  0  0  0
  188.7970  175.4590  144.7380 C   0  0  0  0  0  0  0  0  0  0  0  0
  186.0250  176.8180  142.5830 C   0  0  0  0  0  2  0  0  0  0  0  0
  185.9430  180.0560  148.4210 C   0  0  0  0  0  1  0  0  0  0  0  0
  188.3030  176.1070  141.9480 C   0  0  0  0  0  0  0  0  0  0  0  0
  187.8170  175.9730  140.5300 C   0  0  0  0  0  2  0  0  0  0  0  0
  189.1340  175.2690  146.1980 C   0  0  0  0  0  2  0  0  0  0  0  0
  187.9930  177.4110  146.6600 C   0  0  0  0  0  0  0  0  0  0  0  0
  187.5380  178.3040  147.6350 C   0  0  0  0  0  3  0  0  0  0  0  0
  190.6260  173.7790  144.2280 C   0  0  0  0  0  2  0  0  0  0  0  0
  193.9910  175.5500  143.9330 N   0  0  0  0  0  2  0  0  0  0  0  0
  194.8330  176.6400  145.8320 O   0  0  0  0  0  0  0  0  0  0  0  0
  192.5440  175.2140  145.7440 O   0  0  0  0  0  0  0  0  0  0  0  0
  191.8710  174.3140  143.7020 N   0  0  0  0  0  2  0  0  0  0  0  0
  194.9750  176.3320  144.6180 C   0  0  0  0  0  0  0  0  0  0  0  0
  192.7900  175.0370  144.5200 C   0  0  0  0  0  0  0  0  0  0  0  0
  196.1960  176.7720  143.8860 C   0  0  0  0  0  2  0  0  0  0  0  0
  196.5500  175.7820  142.7900 C   0  0  2  0  0  3  0  0  0  0  0  0
  197.8600  175.3300  142.9620 O   0  0  0  0  0  1  0  0  0  0  0  0
  196.4320  176.4650  141.4450 C   0  0  0  0  0  1  0  0  0  0  0  0
  1 14  1  0  0  0  0
  2 13  2  0  0  0  0
  2  3  1  0  0  0  0
  3 19  1  0  0  0  0
  4 11  2  0  0  0  0
  5  2  1  0  0  0  0
  6 17  1  0  0  0  0
  6  1  2  0  0  0  0
  7  3  2  0  0  0  0
  7  4  1  0  0  0  0
  8 21  1  1  0  0  0
  8 13  1  0  0  0  0
  9  1  1  0  0  0  0
 11 20  1  0  0  0  0
 11 15  1  0  0  0  0
 12  8  1  0  0  0  0
 13 18  1  0  0  0  0
 14  5  1  0  0  0  0
 16 12  1  0  0  0  0
 16  5  2  0  0  0  0
 17 16  1  0  0  0  0
 18 10  1  0  0  0  0
 19 10  1  0  0  0  0
 19 20  2  0  0  0  0
 22 27  1  0  0  0  0
 22 26  1  0  0  0  0
 25 21  1  0  0  0  0
 25 27  1  0  0  0  0
 26 23  2  0  0  0  0
 27 24  2  0  0  0  0
 28 26  1  0  0  0  0
 29 31  1  6  0  0  0
 29 30  1  0  0  0  0
 29 28  1  0  0  0  0
M  END
>  <MODEL>
2

>  <REMARK>
 VINA RESULT:      -7.6      2.109      4.735
  Name = 
  4 active torsions:
  status: ('A' for Active; 'I' for Inactive)
    1  A    between atoms: C_1  and  C_24
    2  A    between atoms: N_9  and  C_23
    3  A    between atoms: C_15  and  C_23
    4  A    between atoms: C_19  and  C_24
                            x       y       z     vdW  Elec       q    Type
                         _______ _______ _______ _____ _____    ______ ____

>  <TORSDO>
F 4

$$$$
=
 OpenBabel11052417503D

 31 34  0  0  1  0  0  0  0  0999 V2000
  185.0620  178.3820  144.7550 C   0  0  0  0  0  0  0  0  0  0  0  0
  188.1390  176.0820  144.2650 C   0  0  0  0  0  0  0  0  0  0  0  0
  188.9990  176.4040  145.4490 C   0  0  0  0  0  0  0  0  0  0  0  0
  189.3710  177.5060  147.5880 C   0  0  0  0  0  3  0  0  0  0  0  0
  186.8760  176.8390  143.9850 C   0  0  0  0  0  0  0  0  0  0  0  0
  184.6410  178.5240  143.4920 C   0  0  0  0  0  3  0  0  0  0  0  0
  188.5410  177.2090  146.5040 C   0  0  0  0  0  3  0  0  0  0  0  0
  187.7830  174.8760  142.1160 C   0  0  2  0  0  3  0  0  0  0  0  0
  184.6110  179.3430  145.7990 C   0  0  0  0  0  1  0  0  0  0  0  0
  190.8740  175.1300  144.3480 C   0  0  0  0  0  2  0  0  0  0  0  0
  190.6740  177.0090  147.6280 C   0  0  0  0  0  0  0  0  0  0  0  0
  187.4430  176.4770  141.3240 S   0  0  0  0  0  0  0  0  0  0  0  0
  188.5600  175.1310  143.3910 C   0  0  0  0  0  0  0  0  0  0  0  0
  185.9680  177.2380  145.1290 C   0  0  0  0  0  2  0  0  0  0  0  0
  191.5580  177.3300  148.7790 C   0  0  0  0  0  1  0  0  0  0  0  0
  186.4400  177.0010  142.7160 C   0  0  0  0  0  0  0  0  0  0  0  0
  185.0580  177.5330  142.4400 C   0  0  0  0  0  2  0  0  0  0  0  0
  189.7690  174.2880  143.7210 C   0  0  0  0  0  2  0  0  0  0  0  0
  190.3220  175.9120  145.4990 C   0  0  0  0  0  0  0  0  0  0  0  0
  191.1520  176.2200  146.5800 C   0  0  0  0  0  3  0  0  0  0  0  0
  188.5170  173.9630  141.1410 C   0  0  0  0  0  2  0  0  0  0  0  0
  188.8190  174.3850  137.3630 N   0  0  0  0  0  2  0  0  0  0  0  0
  189.9200  172.7050  136.1510 O   0  0  0  0  0  0  0  0  0  0  0  0
  189.4490  172.6530  138.8080 O   0  0  0  0  0  0  0  0  0  0  0  0
  188.4270  174.5010  139.7940 N   0  0  0  0  0  2  0  0  0  0  0  0
  189.3190  173.8130  136.1500 C   0  0  0  0  0  0  0  0  0  0  0  0
  188.9260  173.7900  138.6610 C   0  0  0  0  0  0  0  0  0  0  0  0
  189.1060  174.5310  134.8620 C   0  0  0  0  0  2  0  0  0  0  0  0
  188.7900  175.9960  135.1110 C   0  0  2  0  0  3  0  0  0  0  0  0
  187.5720  176.3280  134.5130 O   0  0  0  0  0  1  0  0  0  0  0  0
  189.8870  176.8510  134.5150 C   0  0  0  0  0  1  0  0  0  0  0  0
  1 14  1  0  0  0  0
  1  9  1  0  0  0  0
  2  3  1  0  0  0  0
  3 19  2  0  0  0  0
  3  7  1  0  0  0  0
  4 11  1  0  0  0  0
  5  2  1  0  0  0  0
  5 14  1  0  0  0  0
  6  1  2  0  0  0  0
  7  4  2  0  0  0  0
  8 21  1  6  0  0  0
  8 13  1  0  0  0  0
 10 19  1  0  0  0  0
 11 15  1  0  0  0  0
 12  8  1  0  0  0  0
 12 16  1  0  0  0  0
 13 18  1  0  0  0  0
 13  2  2  0  0  0  0
 16  5  2  0  0  0  0
 17 16  1  0  0  0  0
 17  6  1  0  0  0  0
 18 10  1  0  0  0  0
 19 20  1  0  0  0  0
 20 11  2  0  0  0  0
 22 27  1  0  0  0  0
 25 21  1  0  0  0  0
 26 23  2  0  0  0  0
 26 22  1  0  0  0  0
 27 24  2  0  0  0  0
 27 25  1  0  0  0  0
 28 29  1  0  0  0  0
 28 26  1  0  0  0  0
 29 31  1  6  0  0  0
 30 29  1  0  0  0  0
M  END
>  <MODEL>
3

>  <REMARK>
 VINA RESULT:      -7.6      4.294      7.633
  Name = 
  4 active torsions:
  status: ('A' for Active; 'I' for Inactive)
    1  A    between atoms: C_1  and  C_24
    2  A    between atoms: N_9  and  C_23
    3  A    between atoms: C_15  and  C_23
    4  A    between atoms: C_19  and  C_24
                            x       y       z     vdW  Elec       q    Type
                         _______ _______ _______ _____ _____    ______ ____

>  <TORSDO>
F 4

$$$$
=
 OpenBabel11052417503D

 31 34  0  0  1  0  0  0  0  0999 V2000
  191.7780  175.4320  146.2050 C   0  0  0  0  0  0  0  0  0  0  0  0
  188.6920  175.9380  143.9210 C   0  0  0  0  0  0  0  0  0  0  0  0
  187.7130  176.6330  144.8170 C   0  0  0  0  0  0  0  0  0  0  0  0
  187.1380  177.7420  146.9070 C   0  0  0  0  0  3  0  0  0  0  0  0
  190.0070  175.4390  144.4360 C   0  0  0  0  0  0  0  0  0  0  0  0
  192.3480  174.3630  145.6360 C   0  0  0  0  0  3  0  0  0  0  0  0
  188.0760  177.1120  146.0860 C   0  0  0  0  0  3  0  0  0  0  0  0
  189.2480  174.8780  141.7380 C   0  0  2  0  0  3  0  0  0  0  0  0
  192.1410  175.8140  147.5970 C   0  0  0  0  0  1  0  0  0  0  0  0
  185.9310  176.2100  143.0860 C   0  0  0  0  0  2  0  0  0  0  0  0
  185.8200  177.8960  146.4730 C   0  0  0  0  0  0  0  0  0  0  0  0
  189.7400  173.3780  142.6410 S   0  0  0  0  0  0  0  0  0  0  0  0
  188.3380  175.6950  142.6320 C   0  0  0  0  0  0  0  0  0  0  0  0
  190.7910  176.2670  145.4310 C   0  0  0  0  0  2  0  0  0  0  0  0
  184.8220  178.5620  147.3490 C   0  0  0  0  0  1  0  0  0  0  0  0
  190.5950  174.3540  143.8810 C   0  0  0  0  0  0  0  0  0  0  0  0
  192.0180  173.9960  144.2160 C   0  0  0  0  0  2  0  0  0  0  0  0
  187.0670  176.2910  142.0740 C   0  0  0  0  0  2  0  0  0  0  0  0
  186.3750  176.7910  144.3920 C   0  0  0  0  0  0  0  0  0  0  0  0
  185.4370  177.4130  145.2210 C   0  0  0  0  0  3  0  0  0  0  0  0
  188.5980  174.4930  140.4150 C   0  0  0  0  0  2  0  0  0  0  0  0
  189.8540  171.8350  137.9850 N   0  0  0  0  0  2  0  0  0  0  0  0
  189.1800  171.9840  135.7440 O   0  0  0  0  0  0  0  0  0  0  0  0
  188.5540  173.7580  137.6780 O   0  0  0  0  0  0  0  0  0  0  0  0
  189.2610  173.3260  139.8560 N   0  0  0  0  0  2  0  0  0  0  0  0
  189.8270  171.3680  136.6330 C   0  0  0  0  0  0  0  0  0  0  0  0
  189.1900  173.0090  138.4660 C   0  0  0  0  0  0  0  0  0  0  0  0
  190.5950  170.1450  136.2670 C   0  0  0  0  0  2  0  0  0  0  0  0
  191.1980  169.5000  137.5030 C   0  0  2  0  0  3  0  0  0  0  0  0
  192.5410  169.1930  137.2730 O   0  0  0  0  0  1  0  0  0  0  0  0
  190.4440  168.2280  137.8210 C   0  0  0  0  0  1  0  0  0  0  0  0
  1  9  1  0  0  0  0
  2  5  1  0  0  0  0
  2  3  1  0  0  0  0
  3  7  1  0  0  0  0
  5 14  1  0  0  0  0
  6  1  2  0  0  0  0
  7  4  2  0  0  0  0
  8 21  1  6  0  0  0
  8 13  1  0  0  0  0
  8 12  1  0  0  0  0
 10 19  1  0  0  0  0
 11  4  1  0  0  0  0
 11 15  1  0  0  0  0
 12 16  1  0  0  0  0
 13  2  2  0  0  0  0
 14  1  1  0  0  0  0
 16 17  1  0  0  0  0
 16  5  2  0  0  0  0
 17  6  1  0  0  0  0
 18 13  1  0  0  0  0
 18 10  1  0  0  0  0
 19  3  2  0  0  0  0
 19 20  1  0  0  0  0
 20 11  2  0  0  0  0
 22 27  1  0  0  0  0
 23 26  2  0  0  0  0
 24 27  2  0  0  0  0
 25 21  1  0  0  0  0
 26 22  1  0  0  0  0
 27 25  1  0  0  0  0
 28 26  1  0  0  0  0
 28 29  1  0  0  0  0
 29 31  1  6  0  0  0
 30 29  1  0  0  0  0
M  END
>  <MODEL>
4

>  <REMARK>
 VINA RESULT:      -7.6      4.897      6.777
  Name = 
  4 active torsions:
  status: ('A' for Active; 'I' for Inactive)
    1  A    between atoms: C_1  and  C_24
    2  A    between atoms: N_9  and  C_23
    3  A    between atoms: C_15  and  C_23
    4  A    between atoms: C_19  and  C_24
                            x       y       z     vdW  Elec       q    Type
                         _______ _______ _______ _____ _____    ______ ____

>  <TORSDO>
F 4

$$$$
=
 OpenBabel11052417503D

 31 34  0  0  1  0  0  0  0  0999 V2000
  195.2570  175.3560  145.2140 C   0  0  0  0  0  0  0  0  0  0  0  0
  191.7360  173.7560  145.0150 C   0  0  0  0  0  0  0  0  0  0  0  0
  191.8860  172.7330  143.9320 C   0  0  0  0  0  0  0  0  0  0  0  0
  193.2450  171.4620  142.3600 C   0  0  0  0  0  3  0  0  0  0  0  0
  192.8440  174.7070  145.3530 C   0  0  0  0  0  0  0  0  0  0  0  0
  194.9630  176.5690  145.6990 C   0  0  0  0  0  3  0  0  0  0  0  0
  193.1370  172.4100  143.3810 C   0  0  0  0  0  3  0  0  0  0  0  0
  190.3130  174.9760  146.6530 C   0  0  2  0  0  3  0  0  0  0  0  0
  196.5680  175.1210  144.5490 C   0  0  0  0  0  1  0  0  0  0  0  0
  189.3800  172.4770  143.9190 C   0  0  0  0  0  2  0  0  0  0  0  0
  192.1020  170.8300  141.8690 C   0  0  0  0  0  0  0  0  0  0  0  0
  190.8770  176.5390  145.9160 S   0  0  0  0  0  0  0  0  0  0  0  0
  190.5400  173.8650  145.6490 C   0  0  0  0  0  0  0  0  0  0  0  0
  194.2770  174.2220  145.3630 C   0  0  0  0  0  2  0  0  0  0  0  0
  192.2170  169.8260  140.7790 C   0  0  0  0  0  1  0  0  0  0  0  0
  192.5670  175.9400  145.8350 C   0  0  0  0  0  0  0  0  0  0  0  0
  193.6580  176.8030  146.4100 C   0  0  0  0  0  2  0  0  0  0  0  0
  189.4570  172.8420  145.3960 C   0  0  0  0  0  2  0  0  0  0  0  0
  190.7370  172.0890  143.4220 C   0  0  0  0  0  0  0  0  0  0  0  0
  190.8490  171.1490  142.3930 C   0  0  0  0  0  3  0  0  0  0  0  0
  188.8570  175.1040  147.0840 C   0  0  0  0  0  2  0  0  0  0  0  0
  186.2380  177.3700  145.4880 N   0  0  0  0  0  2  0  0  0  0  0  0
  184.3800  177.9890  146.7800 O   0  0  0  0  0  0  0  0  0  0  0  0
  186.4500  176.4910  147.6480 O   0  0  0  0  0  0  0  0  0  0  0  0
  188.1280  175.9250  146.1320 N   0  0  0  0  0  2  0  0  0  0  0  0
  184.9920  178.0480  145.6800 C   0  0  0  0  0  0  0  0  0  0  0  0
  186.9140  176.5900  146.4800 C   0  0  0  0  0  0  0  0  0  0  0  0
  184.4200  178.8540  144.5640 C   0  0  0  0  0  2  0  0  0  0  0  0
  184.8280  178.2750  143.2200 C   0  0  2  0  0  3  0  0  0  0  0  0
  185.8550  179.0420  142.6650 O   0  0  0  0  0  1  0  0  0  0  0  0
  183.6360  178.2880  142.2890 C   0  0  0  0  0  1  0  0  0  0  0  0
  1 14  1  0  0  0  0
  1  6  2  0  0  0  0
  2  5  1  0  0  0  0
  2 13  2  0  0  0  0
  3  2  1  0  0  0  0
  4  7  1  0  0  0  0
  5 14  1  0  0  0  0
  5 16  2  0  0  0  0
  6 17  1  0  0  0  0
  7  3  2  0  0  0  0
  8 21  1  6  0  0  0
  9  1  1  0  0  0  0
 10 18  1  0  0  0  0
 11  4  2  0  0  0  0
 11 20  1  0  0  0  0
 12  8  1  0  0  0  0
 13  8  1  0  0  0  0
 15 11  1  0  0  0  0
 16 12  1  0  0  0  0
 16 17  1  0  0  0  0
 18 13  1  0  0  0  0
 19 10  1  0  0  0  0
 19  3  1  0  0  0  0
 20 19  2  0  0  0  0
 22 26  1  0  0  0  0
 22 27  1  0  0  0  0
 25 27  1  0  0  0  0
 25 21  1  0  0  0  0
 26 23  2  0  0  0  0
 27 24  2  0  0  0  0
 28 26  1  0  0  0  0
 29 31  1  6  0  0  0
 29 28  1  0  0  0  0
 30 29  1  0  0  0  0
M  END
>  <MODEL>
5

>  <REMARK>
 VINA RESULT:      -7.4      4.187      9.249
  Name = 
  4 active torsions:
  status: ('A' for Active; 'I' for Inactive)
    1  A    between atoms: C_1  and  C_24
    2  A    between atoms: N_9  and  C_23
    3  A    between atoms: C_15  and  C_23
    4  A    between atoms: C_19  and  C_24
                            x       y       z     vdW  Elec       q    Type
                         _______ _______ _______ _____ _____    ______ ____

>  <TORSDO>
F 4

$$$$
=
 OpenBabel11052417503D

 31 34  0  0  1  0  0  0  0  0999 V2000
  186.0750  178.1900  144.1580 C   0  0  0  0  0  0  0  0  0  0  0  0
  188.9760  175.7440  144.9320 C   0  0  0  0  0  0  0  0  0  0  0  0
  189.6140  176.3440  146.1480 C   0  0  0  0  0  0  0  0  0  0  0  0
  189.6570  177.9660  147.9630 C   0  0  0  0  0  3  0  0  0  0  0  0
  187.8620  176.4380  144.2090 C   0  0  0  0  0  0  0  0  0  0  0  0
  185.9220  178.0020  142.8420 C   0  0  0  0  0  3  0  0  0  0  0  0
  189.0310  177.4160  146.8420 C   0  0  0  0  0  3  0  0  0  0  0  0
  188.9420  174.0190  143.1380 C   0  0  2  0  0  3  0  0  0  0  0  0
  185.5150  179.4090  144.8040 C   0  0  0  0  0  1  0  0  0  0  0  0
  191.5490  174.7610  145.8290 C   0  0  0  0  0  2  0  0  0  0  0  0
  190.8790  177.4560  148.4020 C   0  0  0  0  0  0  0  0  0  0  0  0
  188.9030  175.3590  141.9090 S   0  0  0  0  0  0  0  0  0  0  0  0
  189.4750  174.5810  144.4390 C   0  0  0  0  0  0  0  0  0  0  0  0
  186.7870  177.1590  144.9940 C   0  0  0  0  0  2  0  0  0  0  0  0
  191.5470  178.0440  149.5920 C   0  0  0  0  0  1  0  0  0  0  0  0
  187.6970  176.2690  142.8770 C   0  0  0  0  0  0  0  0  0  0  0  0
  186.4480  176.7520  142.1910 C   0  0  0  0  0  2  0  0  0  0  0  0
  190.5190  173.8180  145.2200 C   0  0  0  0  0  2  0  0  0  0  0  0
  190.8540  175.8400  146.5990 C   0  0  0  0  0  0  0  0  0  0  0  0
  191.4820  176.4000  147.7160 C   0  0  0  0  0  3  0  0  0  0  0  0
  189.7690  172.8550  142.6050 C   0  0  0  0  0  2  0  0  0  0  0  0
  189.7280  171.4210  139.0720 N   0  0  0  0  0  2  0  0  0  0  0  0
  191.3690  169.8440  138.5030 O   0  0  0  0  0  0  0  0  0  0  0  0
  191.0630  170.9620  140.9400 O   0  0  0  0  0  0  0  0  0  0  0  0
  189.4160  172.5870  141.2210 N   0  0  0  0  0  2  0  0  0  0  0  0
  190.3690  170.5290  138.1550 C   0  0  0  0  0  0  0  0  0  0  0  0
  190.1170  171.6240  140.4340 C   0  0  0  0  0  0  0  0  0  0  0  0
  189.8330  170.3940  136.7710 C   0  0  0  0  0  2  0  0  0  0  0  0
  190.5140  171.3760  135.8330 C   0  0  2  0  0  3  0  0  0  0  0  0
  189.6660  172.4560  135.5770 O   0  0  0  0  0  1  0  0  0  0  0  0
  190.8390  170.6780  134.5310 C   0  0  0  0  0  1  0  0  0  0  0  0
  1  9  1  0  0  0  0
  1 14  1  0  0  0  0
  2  3  1  0  0  0  0
  3 19  2  0  0  0  0
  3  7  1  0  0  0  0
  4 11  1  0  0  0  0
  5  2  1  0  0  0  0
  5 14  1  0  0  0  0
  6  1  2  0  0  0  0
  7  4  2  0  0  0  0
  8 21  1  6  0  0  0
  8 13  1  0  0  0  0
 10 19  1  0  0  0  0
 11 15  1  0  0  0  0
 12 16  1  0  0  0  0
 12  8  1  0  0  0  0
 13  2  2  0  0  0  0
 13 18  1  0  0  0  0
 16  5  2  0  0  0  0
 17  6  1  0  0  0  0
 17 16  1  0  0  0  0
 18 10  1  0  0  0  0
 19 20  1  0  0  0  0
 20 11  2  0  0  0  0
 22 27  1  0  0  0  0
 25 21  1  0  0  0  0
 26 23  2  0  0  0  0
 26 22  1  0  0  0  0
 27 24  2  0  0  0  0
 27 25  1  0  0  0  0
 28 26  1  0  0  0  0
 29 31  1  6  0  0  0
 29 28  1  0  0  0  0
 30 29  1  0  0  0  0
M  END
>  <MODEL>
6

>  <REMARK>
 VINA RESULT:      -7.4      4.808      7.476
  Name = 
  4 active torsions:
  status: ('A' for Active; 'I' for Inactive)
    1  A    between atoms: C_1  and  C_24
    2  A    between atoms: N_9  and  C_23
    3  A    between atoms: C_15  and  C_23
    4  A    between atoms: C_19  and  C_24
                            x       y       z     vdW  Elec       q    Type
                         _______ _______ _______ _____ _____    ______ ____

>  <TORSDO>
F 4

$$$$
=
 OpenBabel11052417503D

 31 34  0  0  1  0  0  0  0  0999 V2000
  191.9070  171.6940  141.2230 C   0  0  0  0  0  0  0  0  0  0  0  0
  190.6200  175.1230  142.4800 C   0  0  0  0  0  0  0  0  0  0  0  0
  191.6400  175.5170  143.5040 C   0  0  0  0  0  0  0  0  0  0  0  0
  193.7600  175.1800  144.6540 C   0  0  0  0  0  3  0  0  0  0  0  0
  190.6610  173.7840  141.8080 C   0  0  0  0  0  0  0  0  0  0  0  0
  190.7680  171.1260  140.8070 C   0  0  0  0  0  3  0  0  0  0  0  0
  192.8340  174.8000  143.6790 C   0  0  0  0  0  3  0  0  0  0  0  0
  188.4780  175.5530  141.2870 C   0  0  2  0  0  3  0  0  0  0  0  0
  193.1040  170.8480  141.4870 C   0  0  0  0  0  1  0  0  0  0  0  0
  190.0830  177.3530  144.2490 C   0  0  0  0  0  2  0  0  0  0  0  0
  193.5000  176.2790  145.4730 C   0  0  0  0  0  0  0  0  0  0  0  0
  187.9180  173.8950  141.7820 S   0  0  0  0  0  0  0  0  0  0  0  0
  189.5960  175.9760  142.2160 C   0  0  0  0  0  0  0  0  0  0  0  0
  191.9910  173.1870  141.3980 C   0  0  0  0  0  2  0  0  0  0  0  0
  194.4830  176.6810  146.5130 C   0  0  0  0  0  1  0  0  0  0  0  0
  189.5210  173.1910  141.3890 C   0  0  0  0  0  0  0  0  0  0  0  0
  189.5680  171.9790  140.4970 C   0  0  0  0  0  2  0  0  0  0  0  0
  189.6060  177.3690  142.8020 C   0  0  0  0  0  2  0  0  0  0  0  0
  191.3870  176.6240  144.3440 C   0  0  0  0  0  0  0  0  0  0  0  0
  192.3110  176.9950  145.3250 C   0  0  0  0  0  3  0  0  0  0  0  0
  187.2990  176.5180  141.2920 C   0  0  0  0  0  2  0  0  0  0  0  0
  185.4090  177.5020  144.4540 N   0  0  0  0  0  2  0  0  0  0  0  0
  184.8950  179.7690  144.7710 O   0  0  0  0  0  0  0  0  0  0  0  0
  186.1230  178.7410  142.5990 O   0  0  0  0  0  0  0  0  0  0  0  0
  186.6160  176.4630  142.5740 N   0  0  0  0  0  2  0  0  0  0  0  0
  184.8460  178.5860  145.2020 C   0  0  0  0  0  0  0  0  0  0  0  0
  186.0530  177.6250  143.1820 C   0  0  0  0  0  0  0  0  0  0  0  0
  184.1730  178.3040  146.5010 C   0  0  0  0  0  2  0  0  0  0  0  0
  185.1830  178.2920  147.6360 C   0  0  2  0  0  3  0  0  0  0  0  0
  185.9410  179.4650  147.6110 O   0  0  0  0  0  1  0  0  0  0  0  0
  186.1010  177.1010  147.4750 C   0  0  0  0  0  1  0  0  0  0  0  0
  1 14  1  0  0  0  0
  1  9  1  0  0  0  0
  2  3  1  0  0  0  0
  3  7  2  0  0  0  0
  3 19  1  0  0  0  0
  4 11  2  0  0  0  0
  5  2  1  0  0  0  0
  6  1  2  0  0  0  0
  7  4  1  0  0  0  0
  8 21  1  1  0  0  0
  8 12  1  0  0  0  0
  8 13  1  0  0  0  0
 10 19  1  0  0  0  0
 11 15  1  0  0  0  0
 13  2  2  0  0  0  0
 13 18  1  0  0  0  0
 14  5  1  0  0  0  0
 16 12  1  0  0  0  0
 16  5  2  0  0  0  0
 17  6  1  0  0  0  0
 17 16  1  0  0  0  0
 18 10  1  0  0  0  0
 19 20  2  0  0  0  0
 20 11  1  0  0  0  0
 21 25  1  0  0  0  0
 22 26  1  0  0  0  0
 23 26  2  0  0  0  0
 24 27  2  0  0  0  0
 25 27  1  0  0  0  0
 26 28  1  0  0  0  0
 27 22  1  0  0  0  0
 28 29  1  0  0  0  0
 29 31  1  6  0  0  0
 30 29  1  0  0  0  0
M  END
>  <MODEL>
7

>  <REMARK>
 VINA RESULT:      -7.3      4.148      8.946
  Name = 
  4 active torsions:
  status: ('A' for Active; 'I' for Inactive)
    1  A    between atoms: C_1  and  C_24
    2  A    between atoms: N_9  and  C_23
    3  A    between atoms: C_15  and  C_23
    4  A    between atoms: C_19  and  C_24
                            x       y       z     vdW  Elec       q    Type
                         _______ _______ _______ _____ _____    ______ ____

>  <TORSDO>
F 4

$$$$
=
 OpenBabel11052417503D

 31 34  0  0  1  0  0  0  0  0999 V2000
  187.6160  177.2780  145.6470 C   0  0  0  0  0  0  0  0  0  0  0  0
  190.7100  176.0730  143.6540 C   0  0  0  0  0  0  0  0  0  0  0  0
  190.1070  175.3070  142.5170 C   0  0  0  0  0  0  0  0  0  0  0  0
  188.1900  174.5770  141.2040 C   0  0  0  0  0  3  0  0  0  0  0  0
  189.8640  176.6300  144.7590 C   0  0  0  0  0  0  0  0  0  0  0  0
  188.1340  177.4120  146.8740 C   0  0  0  0  0  3  0  0  0  0  0  0
  188.7270  175.3150  142.2630 C   0  0  0  0  0  3  0  0  0  0  0  0
  192.7090  176.8500  144.9180 C   0  0  2  0  0  3  0  0  0  0  0  0
  186.1400  177.1880  145.4710 C   0  0  0  0  0  1  0  0  0  0  0  0
  192.4060  174.4210  141.9850 C   0  0  0  0  0  2  0  0  0  0  0  0
  189.0280  173.8150  140.3890 C   0  0  0  0  0  0  0  0  0  0  0  0
  191.9900  176.1200  146.4200 S   0  0  0  0  0  0  0  0  0  0  0  0
  192.0620  176.1980  143.7150 C   0  0  0  0  0  0  0  0  0  0  0  0
  188.5180  177.2440  144.4420 C   0  0  0  0  0  2  0  0  0  0  0  0
  188.4560  173.0270  139.2660 C   0  0  0  0  0  1  0  0  0  0  0  0
  190.3670  176.7640  146.0070 C   0  0  0  0  0  0  0  0  0  0  0  0
  189.6210  177.5460  147.0560 C   0  0  0  0  0  2  0  0  0  0  0  0
  192.9130  175.7410  142.5530 C   0  0  0  0  0  2  0  0  0  0  0  0
  190.9430  174.5270  141.6870 C   0  0  0  0  0  0  0  0  0  0  0  0
  190.4010  173.7830  140.6350 C   0  0  0  0  0  3  0  0  0  0  0  0
  194.2240  176.6900  144.9420 C   0  0  0  0  0  2  0  0  0  0  0  0
  195.7450  173.2860  145.7480 N   0  0  0  0  0  2  0  0  0  0  0  0
  197.0560  172.2480  144.1030 O   0  0  0  0  0  0  0  0  0  0  0  0
  195.9330  174.6920  143.8840 O   0  0  0  0  0  0  0  0  0  0  0  0
  194.5830  175.4570  145.6230 N   0  0  0  0  0  2  0  0  0  0  0  0
  196.5480  172.2090  145.2560 C   0  0  0  0  0  0  0  0  0  0  0  0
  195.4440  174.4870  145.0270 C   0  0  0  0  0  0  0  0  0  0  0  0
  196.8050  171.0310  146.1320 C   0  0  0  0  0  2  0  0  0  0  0  0
  195.8950  169.8750  145.7570 C   0  0  2  0  0  3  0  0  0  0  0  0
  194.5820  170.3290  145.6150 O   0  0  0  0  0  1  0  0  0  0  0  0
  195.9450  168.8270  146.8480 C   0  0  0  0  0  1  0  0  0  0  0  0
  1  6  2  0  0  0  0
  2 13  2  0  0  0  0
  2  5  1  0  0  0  0
  3  2  1  0  0  0  0
  4  7  2  0  0  0  0
  5 16  2  0  0  0  0
  6 17  1  0  0  0  0
  7  3  1  0  0  0  0
  8 21  1  6  0  0  0
  8 12  1  0  0  0  0
  9  1  1  0  0  0  0
 10 18  1  0  0  0  0
 11 20  2  0  0  0  0
 11  4  1  0  0  0  0
 13  8  1  0  0  0  0
 14  5  1  0  0  0  0
 14  1  1  0  0  0  0
 15 11  1  0  0  0  0
 16 12  1  0  0  0  0
 16 17  1  0  0  0  0
 18 13  1  0  0  0  0
 19 10  1  0  0  0  0
 19  3  2  0  0  0  0
 20 19  1  0  0  0  0
 21 25  1  0  0  0  0
 23 26  2  0  0  0  0
 24 27  2  0  0  0  0
 26 22  1  0  0  0  0
 26 28  1  0  0  0  0
 27 25  1  0  0  0  0
 27 22  1  0  0  0  0
 29 28  1  0  0  0  0
 29 31  1  1  0  0  0
 30 29  1  0  0  0  0
M  END
>  <MODEL>
8

>  <REMARK>
 VINA RESULT:      -7.3      2.930      4.646
  Name = 
  4 active torsions:
  status: ('A' for Active; 'I' for Inactive)
    1  A    between atoms: C_1  and  C_24
    2  A    between atoms: N_9  and  C_23
    3  A    between atoms: C_15  and  C_23
    4  A    between atoms: C_19  and  C_24
                            x       y       z     vdW  Elec       q    Type
                         _______ _______ _______ _____ _____    ______ ____

>  <TORSDO>
F 4

$$$$
=
 OpenBabel11052417503D

 31 34  0  0  1  0  0  0  0  0999 V2000
  191.5470  176.2790  147.1210 C   0  0  0  0  0  0  0  0  0  0  0  0
  189.0320  175.9840  144.1910 C   0  0  0  0  0  0  0  0  0  0  0  0
  187.8210  176.6990  144.7060 C   0  0  0  0  0  0  0  0  0  0  0  0
  186.6930  178.0780  146.3670 C   0  0  0  0  0  3  0  0  0  0  0  0
  190.2320  175.7520  145.0570 C   0  0  0  0  0  0  0  0  0  0  0  0
  192.3190  175.2060  146.9090 C   0  0  0  0  0  3  0  0  0  0  0  0
  187.8430  177.4350  145.9010 C   0  0  0  0  0  3  0  0  0  0  0  0
  190.1570  174.6340  142.4280 C   0  0  2  0  0  3  0  0  0  0  0  0
  191.5500  176.9430  148.4530 C   0  0  0  0  0  1  0  0  0  0  0  0
  186.5210  175.7570  142.7630 C   0  0  0  0  0  2  0  0  0  0  0  0
  185.5010  177.9860  145.6470 C   0  0  0  0  0  0  0  0  0  0  0  0
  190.5540  173.3910  143.6940 S   0  0  0  0  0  0  0  0  0  0  0  0
  189.0030  175.4750  142.9310 C   0  0  0  0  0  0  0  0  0  0  0  0
  190.6960  176.8340  146.0080 C   0  0  0  0  0  2  0  0  0  0  0  0
  184.2770  178.6660  146.1450 C   0  0  0  0  0  1  0  0  0  0  0  0
  191.0190  174.6690  144.8640 C   0  0  0  0  0  0  0  0  0  0  0  0
  192.3530  174.5560  145.5530 C   0  0  0  0  0  2  0  0  0  0  0  0
  187.8480  175.7990  142.0140 C   0  0  0  0  0  2  0  0  0  0  0  0
  186.6060  176.6100  143.9900 C   0  0  0  0  0  0  0  0  0  0  0  0
  185.4550  177.2460  144.4650 C   0  0  0  0  0  3  0  0  0  0  0  0
  189.8610  173.9440  141.1020 C   0  0  0  0  0  2  0  0  0  0  0  0
  192.3240  173.2760  138.2680 N   0  0  0  0  0  2  0  0  0  0  0  0
  191.4600  172.6080  136.1920 O   0  0  0  0  0  0  0  0  0  0  0  0
  189.9830  173.2550  138.3560 O   0  0  0  0  0  0  0  0  0  0  0  0
  191.0880  173.7870  140.3390 N   0  0  0  0  0  2  0  0  0  0  0  0
  192.4670  172.8740  136.9020 C   0  0  0  0  0  0  0  0  0  0  0  0
  191.0780  173.4290  138.9570 C   0  0  0  0  0  0  0  0  0  0  0  0
  193.8290  172.7880  136.3050 C   0  0  0  0  0  2  0  0  0  0  0  0
  194.7630  173.7950  136.9550 C   0  0  2  0  0  3  0  0  0  0  0  0
  194.6070  175.0460  136.3540 O   0  0  0  0  0  1  0  0  0  0  0  0
  196.1940  173.3330  136.7800 C   0  0  0  0  0  1  0  0  0  0  0  0
  1  9  1  0  0  0  0
  2  3  1  0  0  0  0
  2  5  1  0  0  0  0
  3  7  1  0  0  0  0
  5 14  1  0  0  0  0
  6  1  2  0  0  0  0
  7  4  2  0  0  0  0
  8 21  1  6  0  0  0
  8 13  1  0  0  0  0
  8 12  1  0  0  0  0
 10 19  1  0  0  0  0
 11 15  1  0  0  0  0
 11  4  1  0  0  0  0
 12 16  1  0  0  0  0
 13  2  2  0  0  0  0
 14  1  1  0  0  0  0
 16  5  2  0  0  0  0
 16 17  1  0  0  0  0
 17  6  1  0  0  0  0
 18 10  1  0  0  0  0
 18 13  1  0  0  0  0
 19 20  1  0  0  0  0
 19  3  2  0  0  0  0
 20 11  2  0  0  0  0
 22 27  1  0  0  0  0
 23 26  2  0  0  0  0
 24 27  2  0  0  0  0
 25 21  1  0  0  0  0
 26 22  1  0  0  0  0
 27 25  1  0  0  0  0
 28 26  1  0  0  0  0
 28 29  1  0  0  0  0
 29 31  1  6  0  0  0
 30 29  1  0  0  0  0
M  END
>  <MODEL>
9

>  <REMARK>
 VINA RESULT:      -7.2      4.359      5.797
  Name = 
  4 active torsions:
  status: ('A' for Active; 'I' for Inactive)
    1  A    between atoms: C_1  and  C_24
    2  A    between atoms: N_9  and  C_23
    3  A    between atoms: C_15  and  C_23
    4  A    between atoms: C_19  and  C_24
                            x       y       z     vdW  Elec       q    Type
                         _______ _______ _______ _____ _____    ______ ____

>  <TORSDO>
F 4

$$$$
