=
 OpenBabel11052419423D

 55 60  0  0  1  0  0  0  0  0999 V2000
  196.0250  173.1000  140.1260 C   0  0  0  0  0  2  0  0  0  0  0  0
  191.2160  174.9410  142.1210 O   0  0  0  0  0  0  0  0  0  0  0  0
  190.4770  172.2290  142.8260 C   0  0  0  0  0  1  0  0  0  0  0  0
  192.3510  171.5510  141.5190 O   0  0  0  0  0  0  0  0  0  0  0  0
  197.6020  174.7230  141.1940 C   0  0  0  0  0  3  0  0  0  0  0  0
  195.7930  175.1860  143.2790 C   0  0  0  0  0  0  0  0  0  0  0  0
  195.8490  171.8110  140.6520 O   0  0  0  0  0  0  0  0  0  0  0  0
  195.4730  174.2890  142.2570 C   0  0  0  0  0  3  0  0  0  0  0  0
  192.3060  175.7930  142.3150 C   0  0  0  0  0  2  0  0  0  0  0  0
  191.7130  173.8650  141.3770 C   0  0  0  0  0  2  0  0  0  0  0  0
  191.8420  172.6220  142.2640 C   0  0  1  0  0  3  0  0  0  0  0  0
  197.9230  175.6270  142.2140 C   0  0  0  0  0  3  0  0  0  0  0  0
  192.6820  175.8500  143.7970 C   0  0  1  0  0  3  0  0  0  0  0  0
  196.3780  174.0490  141.2180 C   0  0  0  0  0  0  0  0  0  0  0  0
  193.7250  171.5120  141.7930 C   0  0  2  0  0  3  0  0  0  0  0  0
  194.4890  171.5270  140.4580 C   0  0  2  0  0  3  0  0  0  0  0  0
  193.9300  176.4700  143.9370 O   0  0  0  0  0  0  0  0  0  0  0  0
  194.8010  175.4600  144.3560 C   0  0  0  0  0  2  0  0  0  0  0  0
  197.0160  175.8580  143.2570 C   0  0  0  0  0  3  0  0  0  0  0  0
  193.1630  170.2340  143.9320 C   0  0  0  0  0  2  0  0  0  0  0  0
  193.6010  171.2430  144.9980 C   0  0  0  0  0  2  0  0  0  0  0  0
  195.5810  170.3230  143.0790 C   0  0  2  0  0  3  0  0  0  0  0  0
  195.8300  170.0510  144.5670 C   0  0  0  0  0  2  0  0  0  0  0  0
  195.0550  171.0450  145.4390 C   0  0  0  0  0  2  0  0  0  0  0  0
  194.0820  170.3070  142.6950 C   0  0  2  0  0  3  0  0  0  0  0  0
  196.2670  169.3760  142.3170 O   0  0  0  0  0  1  0  0  0  0  0  0
  191.2870  177.7500  144.0630 O   0  0  0  0  0  1  0  0  0  0  0  0
  191.6300  176.5460  144.6820 C   0  0  2  0  0  0  0  0  0  0  0  0
  192.1810  176.8370  145.9190 F   0  0  0  0  0  0  0  0  0  0  0  0
  190.3740  175.6580  144.8640 C   0  0  1  0  0  3  0  0  0  0  0  0
  190.7430  174.3810  145.2940 O   0  0  0  0  0  1  0  0  0  0  0  0
  189.2410  176.2350  145.7520 C   0  0  2  0  0  0  0  0  0  0  0  0
  189.7210  177.3610  146.4320 O   0  0  0  0  0  1  0  0  0  0  0  0
  189.7110  175.1040  147.8300 F   0  0  0  0  0  0  0  0  0  0  0  0
  188.7940  175.2030  146.7930 C   0  0  0  0  0  2  0  0  0  0  0  0
  188.0210  176.6680  144.8990 C   0  0  2  0  0  3  0  0  0  0  0  0
  188.2330  176.4870  143.3780 C   0  0  2  0  0  3  0  0  0  0  0  0
  187.1230  176.9870  142.6730 O   0  0  0  0  0  0  0  0  0  0  0  0
  187.2510  175.5890  142.7230 C   0  0  0  0  0  2  0  0  0  0  0  0
  187.5910  177.9600  145.2390 O   0  0  0  0  0  0  0  0  0  0  0  0
  186.4360  177.8260  147.2090 O   0  0  0  0  0  1  0  0  0  0  0  0
  186.3210  177.7900  145.8130 C   0  0  1  0  0  3  0  0  0  0  0  0
  185.7340  179.6280  144.3830 O   0  0  0  0  0  0  0  0  0  0  0  0
  185.3950  178.8630  145.3270 C   0  0  0  0  0  0  0  0  0  0  0  0
  184.1400  178.9890  145.9000 O   0  0  0  0  0  1  0  0  0  0  0  0
  194.3140  170.2250  139.6780 C   0  0  0  0  0  2  0  0  0  0  0  0
  193.7070  171.4190  137.5610 C   0  0  0  0  0  2  0  0  0  0  0  0
  191.4550  170.9270  136.6230 C   0  0  0  0  0  0  0  0  0  0  0  0
  192.3440  169.4550  138.3540 C   0  0  0  0  0  3  0  0  0  0  0  0
  191.4160  169.6860  137.4250 C   0  0  0  0  0  3  0  0  0  0  0  0
  192.5140  171.7450  136.7020 C   0  0  0  0  0  3  0  0  0  0  0  0
  193.3950  170.4100  138.5680 N   0  0  0  0  0  0  0  0  0  0  0  0
  190.3190  171.2460  135.6860 C   0  0  0  0  0  3  0  0  0  0  0  0
  189.3680  172.2530  136.3320 C   0  0  0  0  0  2  0  0  0  0  0  0
  190.3500  172.7120  135.2810 C   0  0  0  0  0  2  0  0  0  0  0  0
  1  7  1  0  0  0  0
  1 14  1  0  0  0  0
  2  9  1  0  0  0  0
  4 11  1  0  0  0  0
  5 14  2  0  0  0  0
  5 12  1  0  0  0  0
  6 18  1  0  0  0  0
  8  6  2  0  0  0  0
  9 13  1  0  0  0  0
 10  2  1  0  0  0  0
 10 11  1  0  0  0  0
 11  3  1  6  0  0  0
 12 19  2  0  0  0  0
 13 17  1  0  0  0  0
 13 28  1  1  0  0  0
 14  8  1  0  0  0  0
 15  4  1  6  0  0  0
 15 25  1  0  0  0  0
 16 46  1  1  0  0  0
 16  7  1  0  0  0  0
 16 15  1  0  0  0  0
 17 18  1  0  0  0  0
 19  6  1  0  0  0  0
 20 21  1  0  0  0  0
 21 24  1  0  0  0  0
 22 26  1  6  0  0  0
 22 23  1  0  0  0  0
 23 24  1  0  0  0  0
 25 22  1  0  0  0  0
 25 20  1  1  0  0  0
 28 27  1  6  0  0  0
 28 30  1  0  0  0  0
 28 29  1  0  0  0  0
 30 31  1  1  0  0  0
 30 32  1  0  0  0  0
 32 33  1  1  0  0  0
 32 35  1  0  0  0  0
 35 34  1  0  0  0  0
 36 40  1  6  0  0  0
 36 32  1  0  0  0  0
 37 36  1  1  0  0  0
 38 39  1  0  0  0  0
 38 37  1  0  0  0  0
 39 37  1  0  0  0  0
 40 42  1  0  0  0  0
 42 41  1  1  0  0  0
 43 44  2  0  0  0  0
 44 42  1  0  0  0  0
 44 45  1  0  0  0  0
 47 52  1  0  0  0  0
 48 51  2  0  0  0  0
 48 50  1  0  0  0  0
 49 52  1  0  0  0  0
 50 49  2  0  0  0  0
 51 47  1  0  0  0  0
 52 46  1  0  0  0  0
 53 54  1  0  0  0  0
 53 48  1  0  0  0  0
 55 53  1  0  0  0  0
 55 54  1  0  0  0  0
M  END
>  <MODEL>
1

>  <REMARK>
 VINA RESULT:      -6.7      0.000      0.000
  Name = 
  13 active torsions:
  status: ('A' for Active; 'I' for Inactive)
    1  A    between atoms: C_1  and  C_53
    2  A    between atoms: C_6  and  C_14
    3  A    between atoms: C_6  and  C_20
    4  A    between atoms: C_6  and  C_53
    5  A    between atoms: C_8  and  C_20
    6  A    between atoms: C_8  and  C_43
    7  A    between atoms: C_10  and  C_32
    8  A    between atoms: C_11  and  C_29
    9  A    between atoms: C_11  and  O_38
   10  A    between atoms: C_26  and  C_45
   11  A    between atoms: C_33  and  C_49
   12  A    between atoms: C_33  and  N_52
   13  A    between atoms: O_38  and  C_53
                            x       y       z     vdW  Elec       q    Type
                         _______ _______ _______ _____ _____    ______ ____

>  <TORSDO>
F 13

$$$$
=
 OpenBabel11052419423D

 55 60  0  0  1  0  0  0  0  0999 V2000
  190.9940  174.3870  143.0910 C   0  0  0  0  0  2  0  0  0  0  0  0
  195.5780  176.0420  140.4940 O   0  0  0  0  0  0  0  0  0  0  0  0
  196.9910  176.0770  143.0240 C   0  0  0  0  0  1  0  0  0  0  0  0
  194.8500  175.8270  144.0390 O   0  0  0  0  0  0  0  0  0  0  0  0
  190.2960  172.5000  141.6040 C   0  0  0  0  0  3  0  0  0  0  0  0
  192.9350  172.1310  140.7480 C   0  0  0  0  0  0  0  0  0  0  0  0
  191.6620  174.1450  144.3000 O   0  0  0  0  0  0  0  0  0  0  0  0
  192.6300  173.1310  141.6750 C   0  0  0  0  0  3  0  0  0  0  0  0
  194.7770  175.1510  139.7760 C   0  0  0  0  0  2  0  0  0  0  0  0
  194.8820  176.2960  141.6810 C   0  0  0  0  0  2  0  0  0  0  0  0
  195.5570  175.5800  142.8550 C   0  0  1  0  0  3  0  0  0  0  0  0
  190.5980  171.5010  140.6710 C   0  0  0  0  0  3  0  0  0  0  0  0
  195.4690  173.7930  139.6500 C   0  0  1  0  0  3  0  0  0  0  0  0
  191.3130  173.3120  142.1110 C   0  0  0  0  0  0  0  0  0  0  0  0
  194.0240  174.7100  144.2320 C   0  0  2  0  0  3  0  0  0  0  0  0
  192.5790  175.2010  144.4220 C   0  0  2  0  0  3  0  0  0  0  0  0
  194.5500  172.8430  139.1860 O   0  0  0  0  0  0  0  0  0  0  0  0
  194.3360  171.9780  140.2640 C   0  0  0  0  0  2  0  0  0  0  0  0
  191.9190  171.3170  140.2420 C   0  0  0  0  0  3  0  0  0  0  0  0
  195.7780  174.4510  146.0710 C   0  0  0  0  0  2  0  0  0  0  0  0
  197.0380  174.1930  145.2380 C   0  0  0  0  0  2  0  0  0  0  0  0
  194.7880  172.3780  144.9300 C   0  0  2  0  0  3  0  0  0  0  0  0
  196.1230  171.8050  145.4200 C   0  0  0  0  0  2  0  0  0  0  0  0
  197.2900  172.7010  144.9930 C   0  0  0  0  0  2  0  0  0  0  0  0
  194.5360  173.8320  145.3980 C   0  0  2  0  0  3  0  0  0  0  0  0
  193.7470  171.5600  145.3700 O   0  0  0  0  0  1  0  0  0  0  0  0
  196.8520  172.5460  138.1810 O   0  0  0  0  0  1  0  0  0  0  0  0
  196.7240  173.8120  138.7570 C   0  0  2  0  0  0  0  0  0  0  0  0
  197.8460  174.0480  139.5340 F   0  0  0  0  0  0  0  0  0  0  0  0
  196.6120  174.8950  137.6550 C   0  0  1  0  0  3  0  0  0  0  0  0
  197.7280  175.7340  137.6860 O   0  0  0  0  0  1  0  0  0  0  0  0
  196.3410  174.3890  136.2140 C   0  0  2  0  0  0  0  0  0  0  0  0
  197.2400  173.3590  135.9130 O   0  0  0  0  0  1  0  0  0  0  0  0
  196.2230  176.7520  135.7440 F   0  0  0  0  0  0  0  0  0  0  0  0
  196.5500  175.5190  135.1990 C   0  0  0  0  0  2  0  0  0  0  0  0
  194.9000  173.8320  136.0740 C   0  0  2  0  0  3  0  0  0  0  0  0
  194.8350  172.4530  135.3780 C   0  0  2  0  0  3  0  0  0  0  0  0
  193.5030  172.1370  135.0550 O   0  0  0  0  0  0  0  0  0  0  0  0
  194.0700  171.4240  136.1240 C   0  0  0  0  0  2  0  0  0  0  0  0
  194.0410  174.7770  135.4910 O   0  0  0  0  0  0  0  0  0  0  0  0
  193.1450  176.7160  136.3100 O   0  0  0  0  0  1  0  0  0  0  0  0
  193.3390  175.3520  136.5630 C   0  0  1  0  0  3  0  0  0  0  0  0
  191.7830  174.0080  137.8030 O   0  0  0  0  0  1  0  0  0  0  0  0
  192.0280  174.6520  136.7460 C   0  0  0  0  0  0  0  0  0  0  0  0
  191.0620  174.7470  135.7580 O   0  0  0  0  0  0  0  0  0  0  0  0
  192.3870  175.9330  145.7490 C   0  0  0  0  0  2  0  0  0  0  0  0
  190.3140  175.4800  147.0820 C   0  0  0  0  0  2  0  0  0  0  0  0
  188.2110  176.5020  146.2320 C   0  0  0  0  0  0  0  0  0  0  0  0
  190.3370  177.2930  145.3340 C   0  0  0  0  0  3  0  0  0  0  0  0
  189.0180  177.4570  145.4440 C   0  0  0  0  0  3  0  0  0  0  0  0
  188.8150  175.5680  146.9800 C   0  0  0  0  0  3  0  0  0  0  0  0
  190.9780  176.1910  145.9950 N   0  0  0  0  0  0  0  0  0  0  0  0
  186.7080  176.6110  146.2240 C   0  0  0  0  0  3  0  0  0  0  0  0
  186.2360  177.5080  147.3680 C   0  0  0  0  0  2  0  0  0  0  0  0
  186.2720  178.0440  145.9560 C   0  0  0  0  0  2  0  0  0  0  0  0
  1  7  1  0  0  0  0
  2 10  1  0  0  0  0
  5 14  1  0  0  0  0
  6  8  1  0  0  0  0
  7 16  1  0  0  0  0
  8 14  2  0  0  0  0
  9  2  1  0  0  0  0
 10 11  1  0  0  0  0
 11  3  1  1  0  0  0
 11  4  1  0  0  0  0
 12  5  2  0  0  0  0
 13 28  1  6  0  0  0
 13  9  1  0  0  0  0
 14  1  1  0  0  0  0
 15  4  1  1  0  0  0
 15 16  1  0  0  0  0
 15 25  1  0  0  0  0
 16 46  1  1  0  0  0
 17 13  1  0  0  0  0
 17 18  1  0  0  0  0
 18  6  1  0  0  0  0
 19 12  1  0  0  0  0
 19  6  2  0  0  0  0
 21 20  1  0  0  0  0
 22 26  1  1  0  0  0
 22 25  1  0  0  0  0
 22 23  1  0  0  0  0
 24 21  1  0  0  0  0
 24 23  1  0  0  0  0
 25 20  1  6  0  0  0
 28 27  1  6  0  0  0
 28 29  1  0  0  0  0
 30 31  1  6  0  0  0
 30 28  1  0  0  0  0
 32 33  1  6  0  0  0
 32 30  1  0  0  0  0
 35 34  1  0  0  0  0
 35 32  1  0  0  0  0
 36 40  1  6  0  0  0
 36 32  1  0  0  0  0
 37 36  1  1  0  0  0
 37 39  1  0  0  0  0
 38 37  1  0  0  0  0
 38 39  1  0  0  0  0
 40 42  1  0  0  0  0
 42 41  1  6  0  0  0
 42 44  1  0  0  0  0
 44 43  1  0  0  0  0
 45 44  2  0  0  0  0
 46 52  1  0  0  0  0
 48 51  2  0  0  0  0
 49 50  2  0  0  0  0
 49 52  1  0  0  0  0
 50 48  1  0  0  0  0
 51 47  1  0  0  0  0
 52 47  1  0  0  0  0
 53 48  1  0  0  0  0
 53 54  1  0  0  0  0
 55 53  1  0  0  0  0
 55 54  1  0  0  0  0
M  END
>  <MODEL>
2

>  <REMARK>
 VINA RESULT:      -6.7      3.834      9.062
  Name = 
  13 active torsions:
  status: ('A' for Active; 'I' for Inactive)
    1  A    between atoms: C_1  and  C_53
    2  A    between atoms: C_6  and  C_14
    3  A    between atoms: C_6  and  C_20
    4  A    between atoms: C_6  and  C_53
    5  A    between atoms: C_8  and  C_20
    6  A    between atoms: C_8  and  C_43
    7  A    between atoms: C_10  and  C_32
    8  A    between atoms: C_11  and  C_29
    9  A    between atoms: C_11  and  O_38
   10  A    between atoms: C_26  and  C_45
   11  A    between atoms: C_33  and  C_49
   12  A    between atoms: C_33  and  N_52
   13  A    between atoms: O_38  and  C_53
                            x       y       z     vdW  Elec       q    Type
                         _______ _______ _______ _____ _____    ______ ____

>  <TORSDO>
F 13

$$$$
=
 OpenBabel11052419423D

 55 60  0  0  1  0  0  0  0  0999 V2000
  195.9420  173.1970  140.0540 C   0  0  0  0  0  2  0  0  0  0  0  0
  191.2300  175.0570  142.2520 O   0  0  0  0  0  0  0  0  0  0  0  0
  190.4940  172.3430  142.9540 C   0  0  0  0  0  1  0  0  0  0  0  0
  192.3100  171.6650  141.5690 O   0  0  0  0  0  0  0  0  0  0  0  0
  197.5730  174.7930  141.0780 C   0  0  0  0  0  3  0  0  0  0  0  0
  195.8500  175.2490  143.2360 C   0  0  0  0  0  0  0  0  0  0  0  0
  195.7740  171.9040  140.5720 O   0  0  0  0  0  0  0  0  0  0  0  0
  195.4820  174.3660  142.2170 C   0  0  0  0  0  3  0  0  0  0  0  0
  192.3340  175.8970  142.4140 C   0  0  0  0  0  2  0  0  0  0  0  0
  191.6880  173.9850  141.4780 C   0  0  0  0  0  2  0  0  0  0  0  0
  191.8390  172.7310  142.3450 C   0  0  1  0  0  3  0  0  0  0  0  0
  197.9410  175.6830  142.0960 C   0  0  0  0  0  3  0  0  0  0  0  0
  192.7670  175.9340  143.8800 C   0  0  1  0  0  3  0  0  0  0  0  0
  196.3450  174.1310  141.1420 C   0  0  0  0  0  0  0  0  0  0  0  0
  193.6930  171.6100  141.7900 C   0  0  2  0  0  3  0  0  0  0  0  0
  194.4050  171.6330  140.4270 C   0  0  2  0  0  3  0  0  0  0  0  0
  194.0250  176.5420  143.9790 O   0  0  0  0  0  0  0  0  0  0  0  0
  194.9020  175.5190  144.3540 C   0  0  0  0  0  2  0  0  0  0  0  0
  197.0770  175.9110  143.1750 C   0  0  0  0  0  3  0  0  0  0  0  0
  193.1560  170.2730  143.8990 C   0  0  0  0  0  2  0  0  0  0  0  0
  193.5750  171.2660  144.9880 C   0  0  0  0  0  2  0  0  0  0  0  0
  195.5720  170.4270  143.0480 C   0  0  2  0  0  3  0  0  0  0  0  0
  195.8260  170.1260  144.5300 C   0  0  0  0  0  2  0  0  0  0  0  0
  195.0340  171.0850  145.4240 C   0  0  0  0  0  2  0  0  0  0  0  0
  194.0730  170.3920  142.6640 C   0  0  2  0  0  3  0  0  0  0  0  0
  196.2750  169.5110  142.2650 O   0  0  0  0  0  1  0  0  0  0  0  0
  191.3540  177.8130  144.1920 O   0  0  0  0  0  1  0  0  0  0  0  0
  191.7560  176.6290  144.8130 C   0  0  2  0  0  0  0  0  0  0  0  0
  192.3740  176.9550  146.0090 F   0  0  0  0  0  0  0  0  0  0  0  0
  190.5310  175.7220  145.0870 C   0  0  1  0  0  3  0  0  0  0  0  0
  190.9470  174.4200  145.3760 O   0  0  0  0  0  1  0  0  0  0  0  0
  189.5190  176.2280  146.1490 C   0  0  2  0  0  0  0  0  0  0  0  0
  190.0890  177.2970  146.8510 O   0  0  0  0  0  1  0  0  0  0  0  0
  190.2230  174.9440  148.0650 F   0  0  0  0  0  0  0  0  0  0  0  0
  189.1920  175.1170  147.1530 C   0  0  0  0  0  2  0  0  0  0  0  0
  188.2080  176.7250  145.4870 C   0  0  2  0  0  3  0  0  0  0  0  0
  186.9470  176.4760  146.3460 C   0  0  2  0  0  3  0  0  0  0  0  0
  185.8650  177.2190  145.8420 O   0  0  0  0  0  0  0  0  0  0  0  0
  186.4310  177.6790  147.0430 C   0  0  0  0  0  2  0  0  0  0  0  0
  188.0800  176.2370  144.1770 O   0  0  0  0  0  0  0  0  0  0  0  0
  188.9200  177.2060  142.2820 O   0  0  0  0  0  1  0  0  0  0  0  0
  188.0400  177.3780  143.3580 C   0  0  1  0  0  3  0  0  0  0  0  0
  185.9080  176.6350  142.5390 O   0  0  0  0  0  0  0  0  0  0  0  0
  186.6420  177.6060  142.8710 C   0  0  0  0  0  0  0  0  0  0  0  0
  186.1410  178.8970  142.8220 O   0  0  0  0  0  1  0  0  0  0  0  0
  194.1880  170.3420  139.6400 C   0  0  0  0  0  2  0  0  0  0  0  0
  192.0580  169.5520  138.5830 C   0  0  0  0  0  2  0  0  0  0  0  0
  191.3500  170.7360  136.5120 C   0  0  0  0  0  0  0  0  0  0  0  0
  193.0890  171.7450  137.8940 C   0  0  0  0  0  3  0  0  0  0  0  0
  192.2300  171.8650  136.8810 C   0  0  0  0  0  3  0  0  0  0  0  0
  191.2850  169.6500  137.2950 C   0  0  0  0  0  3  0  0  0  0  0  0
  193.1500  170.5180  138.6380 N   0  0  0  0  0  0  0  0  0  0  0  0
  190.4940  170.8310  135.2750 C   0  0  0  0  0  3  0  0  0  0  0  0
  189.2120  171.6060  135.5760 C   0  0  0  0  0  2  0  0  0  0  0  0
  190.3420  172.2790  134.8340 C   0  0  0  0  0  2  0  0  0  0  0  0
  1  7  1  0  0  0  0
  1 14  1  0  0  0  0
  2  9  1  0  0  0  0
  4 11  1  0  0  0  0
  5 14  2  0  0  0  0
  5 12  1  0  0  0  0
  6 18  1  0  0  0  0
  8  6  2  0  0  0  0
  9 13  1  0  0  0  0
 10  2  1  0  0  0  0
 10 11  1  0  0  0  0
 11  3  1  6  0  0  0
 12 19  2  0  0  0  0
 13 17  1  0  0  0  0
 13 28  1  1  0  0  0
 14  8  1  0  0  0  0
 15  4  1  6  0  0  0
 15 25  1  0  0  0  0
 16 46  1  1  0  0  0
 16  7  1  0  0  0  0
 16 15  1  0  0  0  0
 17 18  1  0  0  0  0
 19  6  1  0  0  0  0
 20 21  1  0  0  0  0
 21 24  1  0  0  0  0
 22 26  1  6  0  0  0
 22 23  1  0  0  0  0
 23 24  1  0  0  0  0
 25 22  1  0  0  0  0
 25 20  1  1  0  0  0
 28 27  1  6  0  0  0
 28 30  1  0  0  0  0
 28 29  1  0  0  0  0
 30 31  1  1  0  0  0
 30 32  1  0  0  0  0
 32 33  1  1  0  0  0
 32 35  1  0  0  0  0
 35 34  1  0  0  0  0
 36 40  1  6  0  0  0
 36 32  1  0  0  0  0
 37 36  1  6  0  0  0
 37 39  1  0  0  0  0
 38 37  1  0  0  0  0
 38 39  1  0  0  0  0
 42 41  1  6  0  0  0
 42 40  1  0  0  0  0
 43 44  2  0  0  0  0
 44 42  1  0  0  0  0
 45 44  1  0  0  0  0
 47 52  1  0  0  0  0
 48 50  1  0  0  0  0
 48 51  2  0  0  0  0
 49 52  1  0  0  0  0
 50 49  2  0  0  0  0
 51 47  1  0  0  0  0
 52 46  1  0  0  0  0
 53 54  1  0  0  0  0
 53 48  1  0  0  0  0
 55 53  1  0  0  0  0
 55 54  1  0  0  0  0
M  END
>  <MODEL>
3

>  <REMARK>
 VINA RESULT:      -6.7      0.791      1.676
  Name = 
  13 active torsions:
  status: ('A' for Active; 'I' for Inactive)
    1  A    between atoms: C_1  and  C_53
    2  A    between atoms: C_6  and  C_14
    3  A    between atoms: C_6  and  C_20
    4  A    between atoms: C_6  and  C_53
    5  A    between atoms: C_8  and  C_20
    6  A    between atoms: C_8  and  C_43
    7  A    between atoms: C_10  and  C_32
    8  A    between atoms: C_11  and  C_29
    9  A    between atoms: C_11  and  O_38
   10  A    between atoms: C_26  and  C_45
   11  A    between atoms: C_33  and  C_49
   12  A    between atoms: C_33  and  N_52
   13  A    between atoms: O_38  and  C_53
                            x       y       z     vdW  Elec       q    Type
                         _______ _______ _______ _____ _____    ______ ____

>  <TORSDO>
F 13

$$$$
=
 OpenBabel11052419423D

 55 60  0  0  1  0  0  0  0  0999 V2000
  197.0450  172.7950  142.0250 C   0  0  0  0  0  2  0  0  0  0  0  0
  192.6680  176.1580  142.1740 O   0  0  0  0  0  0  0  0  0  0  0  0
  191.0690  174.1240  140.8660 C   0  0  0  0  0  1  0  0  0  0  0  0
  193.1290  172.9980  140.4580 O   0  0  0  0  0  0  0  0  0  0  0  0
  197.8530  173.0100  144.3840 C   0  0  0  0  0  3  0  0  0  0  0  0
  195.2860  173.7070  145.2540 C   0  0  0  0  0  0  0  0  0  0  0  0
  196.2880  171.6860  141.6200 O   0  0  0  0  0  0  0  0  0  0  0  0
  195.5210  173.4320  143.9040 C   0  0  0  0  0  3  0  0  0  0  0  0
  193.5210  176.2430  143.2770 C   0  0  0  0  0  2  0  0  0  0  0  0
  193.2730  175.2440  141.3050 C   0  0  0  0  0  2  0  0  0  0  0  0
  192.5120  173.9140  141.3200 C   0  0  1  0  0  3  0  0  0  0  0  0
  197.6220  173.2910  145.7360 C   0  0  0  0  0  3  0  0  0  0  0  0
  192.8410  175.6750  144.5230 C   0  0  1  0  0  3  0  0  0  0  0  0
  196.8010  173.0760  143.4680 C   0  0  0  0  0  0  0  0  0  0  0  0
  193.9380  172.1920  141.2700 C   0  0  2  0  0  3  0  0  0  0  0  0
  195.3650  172.1990  140.6960 C   0  0  2  0  0  3  0  0  0  0  0  0
  193.7920  175.5070  145.5370 O   0  0  0  0  0  0  0  0  0  0  0  0
  193.9250  174.1240  145.6950 C   0  0  0  0  0  2  0  0  0  0  0  0
  196.3370  173.6400  146.1700 C   0  0  0  0  0  3  0  0  0  0  0  0
  192.9430  170.1770  140.0560 C   0  0  0  0  0  2  0  0  0  0  0  0
  191.6090  170.7570  139.5730 C   0  0  0  0  0  2  0  0  0  0  0  0
  192.1640  170.7690  142.4270 C   0  0  2  0  0  3  0  0  0  0  0  0
  190.9410  169.9910  141.9270 C   0  0  0  0  0  2  0  0  0  0  0  0
  190.4690  170.5300  140.5720 C   0  0  0  0  0  2  0  0  0  0  0  0
  193.3410  170.7730  141.4220 C   0  0  2  0  0  3  0  0  0  0  0  0
  192.5900  170.2270  143.6400 O   0  0  0  0  0  1  0  0  0  0  0  0
  191.7550  177.7820  144.4380 O   0  0  0  0  0  1  0  0  0  0  0  0
  191.6560  176.5210  145.0290 C   0  0  2  0  0  0  0  0  0  0  0  0
  191.7480  176.6780  146.4020 F   0  0  0  0  0  0  0  0  0  0  0  0
  190.3020  175.8610  144.6670 C   0  0  1  0  0  3  0  0  0  0  0  0
  190.3910  174.4730  144.7910 O   0  0  0  0  0  1  0  0  0  0  0  0
  189.0500  176.4030  145.4050 C   0  0  2  0  0  0  0  0  0  0  0  0
  189.3880  177.5840  146.0760 O   0  0  0  0  0  1  0  0  0  0  0  0
  187.6060  175.9510  147.2830 F   0  0  0  0  0  0  0  0  0  0  0  0
  188.5560  175.3880  146.4420 C   0  0  0  0  0  2  0  0  0  0  0  0
  187.9030  176.7220  144.4100 C   0  0  2  0  0  3  0  0  0  0  0  0
  188.2390  176.3660  142.9430 C   0  0  2  0  0  3  0  0  0  0  0  0
  187.1100  176.5640  142.1280 O   0  0  0  0  0  0  0  0  0  0  0  0
  187.4610  175.2300  142.3930 C   0  0  0  0  0  2  0  0  0  0  0  0
  187.4480  178.0410  144.5600 O   0  0  0  0  0  0  0  0  0  0  0  0
  185.9310  178.2850  146.2550 O   0  0  0  0  0  1  0  0  0  0  0  0
  186.0930  177.9290  144.9100 C   0  0  1  0  0  3  0  0  0  0  0  0
  185.6320  179.9860  143.7590 O   0  0  0  0  0  1  0  0  0  0  0  0
  185.2640  178.8080  144.0240 C   0  0  0  0  0  0  0  0  0  0  0  0
  184.1020  178.3060  143.4620 O   0  0  0  0  0  0  0  0  0  0  0  0
  195.4570  171.4510  139.3670 C   0  0  0  0  0  2  0  0  0  0  0  0
  196.3550  173.6850  138.6720 C   0  0  0  0  0  2  0  0  0  0  0  0
  196.8000  173.9870  136.2430 C   0  0  0  0  0  0  0  0  0  0  0  0
  196.4340  171.7280  137.0880 C   0  0  0  0  0  3  0  0  0  0  0  0
  196.8180  172.5180  136.0850 C   0  0  0  0  0  3  0  0  0  0  0  0
  196.5650  174.5320  137.4450 C   0  0  0  0  0  3  0  0  0  0  0  0
  196.0140  172.3070  138.3340 N   0  0  0  0  0  0  0  0  0  0  0  0
  197.0910  174.8690  135.0560 C   0  0  0  0  0  3  0  0  0  0  0  0
  195.7940  175.4710  134.5150 C   0  0  0  0  0  2  0  0  0  0  0  0
  196.7220  176.3150  135.3550 C   0  0  0  0  0  2  0  0  0  0  0  0
  1 14  1  0  0  0  0
  2  9  1  0  0  0  0
  4 11  1  0  0  0  0
  5 12  1  0  0  0  0
  6 18  1  0  0  0  0
  6 19  1  0  0  0  0
  7  1  1  0  0  0  0
  8  6  2  0  0  0  0
  9 13  1  0  0  0  0
 10 11  1  0  0  0  0
 10  2  1  0  0  0  0
 11  3  1  6  0  0  0
 12 19  2  0  0  0  0
 13 28  1  1  0  0  0
 13 17  1  0  0  0  0
 14  8  1  0  0  0  0
 14  5  2  0  0  0  0
 15  4  1  6  0  0  0
 15 25  1  0  0  0  0
 16 46  1  6  0  0  0
 16 15  1  0  0  0  0
 16  7  1  0  0  0  0
 17 18  1  0  0  0  0
 21 20  1  0  0  0  0
 21 24  1  0  0  0  0
 22 26  1  1  0  0  0
 23 22  1  0  0  0  0
 24 23  1  0  0  0  0
 25 20  1  6  0  0  0
 25 22  1  0  0  0  0
 28 27  1  6  0  0  0
 28 29  1  0  0  0  0
 30 31  1  1  0  0  0
 30 28  1  0  0  0  0
 30 32  1  0  0  0  0
 32 33  1  1  0  0  0
 32 35  1  0  0  0  0
 35 34  1  0  0  0  0
 36 40  1  6  0  0  0
 36 32  1  0  0  0  0
 37 36  1  1  0  0  0
 38 39  1  0  0  0  0
 38 37  1  0  0  0  0
 39 37  1  0  0  0  0
 40 42  1  0  0  0  0
 42 41  1  1  0  0  0
 43 44  1  0  0  0  0
 44 42  1  0  0  0  0
 45 44  2  0  0  0  0
 48 51  2  0  0  0  0
 49 52  1  0  0  0  0
 50 48  1  0  0  0  0
 50 49  2  0  0  0  0
 51 47  1  0  0  0  0
 52 47  1  0  0  0  0
 52 46  1  0  0  0  0
 53 55  1  0  0  0  0
 53 48  1  0  0  0  0
 54 53  1  0  0  0  0
 54 55  1  0  0  0  0
M  END
>  <MODEL>
4

>  <REMARK>
 VINA RESULT:      -6.6      2.230      3.297
  Name = 
  13 active torsions:
  status: ('A' for Active; 'I' for Inactive)
    1  A    between atoms: C_1  and  C_53
    2  A    between atoms: C_6  and  C_14
    3  A    between atoms: C_6  and  C_20
    4  A    between atoms: C_6  and  C_53
    5  A    between atoms: C_8  and  C_20
    6  A    between atoms: C_8  and  C_43
    7  A    between atoms: C_10  and  C_32
    8  A    between atoms: C_11  and  C_29
    9  A    between atoms: C_11  and  O_38
   10  A    between atoms: C_26  and  C_45
   11  A    between atoms: C_33  and  C_49
   12  A    between atoms: C_33  and  N_52
   13  A    between atoms: O_38  and  C_53
                            x       y       z     vdW  Elec       q    Type
                         _______ _______ _______ _____ _____    ______ ____

>  <TORSDO>
F 13

$$$$
=
 OpenBabel11052419423D

 55 60  0  0  1  0  0  0  0  0999 V2000
  196.8190  172.8050  141.6190 C   0  0  0  0  0  2  0  0  0  0  0  0
  192.3270  175.9600  142.2270 O   0  0  0  0  0  0  0  0  0  0  0  0
  190.6750  173.7800  141.2690 C   0  0  0  0  0  1  0  0  0  0  0  0
  192.7150  172.7310  140.6250 O   0  0  0  0  0  0  0  0  0  0  0  0
  197.9390  173.1960  143.8220 C   0  0  0  0  0  3  0  0  0  0  0  0
  195.4870  173.8200  145.0170 C   0  0  0  0  0  0  0  0  0  0  0  0
  196.0750  171.6400  141.3850 O   0  0  0  0  0  0  0  0  0  0  0  0
  195.5430  173.4780  143.6630 C   0  0  0  0  0  3  0  0  0  0  0  0
  193.3220  176.1490  143.1890 C   0  0  0  0  0  2  0  0  0  0  0  0
  192.8530  175.0260  141.3270 C   0  0  0  0  0  2  0  0  0  0  0  0
  192.1760  173.6650  141.5190 C   0  0  1  0  0  3  0  0  0  0  0  0
  197.8870  173.5440  145.1780 C   0  0  0  0  0  3  0  0  0  0  0  0
  192.8570  175.6230  144.5480 C   0  0  1  0  0  3  0  0  0  0  0  0
  196.7660  173.1580  143.0660 C   0  0  0  0  0  0  0  0  0  0  0  0
  193.6740  172.0120  141.3520 C   0  0  2  0  0  3  0  0  0  0  0  0
  195.0030  172.0540  140.5790 C   0  0  2  0  0  3  0  0  0  0  0  0
  193.9500  175.5610  145.4210 O   0  0  0  0  0  0  0  0  0  0  0  0
  194.1810  174.1960  145.6280 C   0  0  0  0  0  2  0  0  0  0  0  0
  196.6590  173.8560  145.7750 C   0  0  0  0  0  3  0  0  0  0  0  0
  191.8620  170.5900  142.4560 C   0  0  0  0  0  2  0  0  0  0  0  0
  192.1170  170.8900  143.9370 C   0  0  0  0  0  2  0  0  0  0  0  0
  194.2850  169.7530  142.3690 C   0  0  2  0  0  3  0  0  0  0  0  0
  193.7700  168.9630  143.5770 C   0  0  0  0  0  2  0  0  0  0  0  0
  193.0850  169.8930  144.5840 C   0  0  0  0  0  2  0  0  0  0  0  0
  193.1840  170.5780  141.6610 C   0  0  2  0  0  3  0  0  0  0  0  0
  194.8660  168.8710  141.4560 O   0  0  0  0  0  1  0  0  0  0  0  0
  191.7770  177.7320  144.6510 O   0  0  0  0  0  1  0  0  0  0  0  0
  191.7110  176.4400  145.1760 C   0  0  2  0  0  0  0  0  0  0  0  0
  191.8920  176.5200  146.5460 F   0  0  0  0  0  0  0  0  0  0  0  0
  190.3330  175.8030  144.8650 C   0  0  1  0  0  3  0  0  0  0  0  0
  190.4390  174.4100  144.8420 O   0  0  0  0  0  1  0  0  0  0  0  0
  189.1460  176.2530  145.7560 C   0  0  2  0  0  0  0  0  0  0  0  0
  189.5590  177.3180  146.5650 O   0  0  0  0  0  1  0  0  0  0  0  0
  189.5700  174.9340  147.7300 F   0  0  0  0  0  0  0  0  0  0  0  0
  188.6930  175.1070  146.6680 C   0  0  0  0  0  2  0  0  0  0  0  0
  187.9470  176.7320  144.8980 C   0  0  2  0  0  3  0  0  0  0  0  0
  188.2130  176.6750  143.3750 C   0  0  2  0  0  3  0  0  0  0  0  0
  187.1290  177.2330  142.6750 O   0  0  0  0  0  0  0  0  0  0  0  0
  187.2550  175.8350  142.6160 C   0  0  0  0  0  2  0  0  0  0  0  0
  187.4830  177.9870  145.3220 O   0  0  0  0  0  0  0  0  0  0  0  0
  185.7920  176.4580  145.5110 O   0  0  0  0  0  1  0  0  0  0  0  0
  186.2070  177.7490  145.8590 C   0  0  1  0  0  3  0  0  0  0  0  0
  186.5430  179.0240  147.8660 O   0  0  0  0  0  0  0  0  0  0  0  0
  186.2430  177.9140  147.3480 C   0  0  0  0  0  0  0  0  0  0  0  0
  185.9070  176.8420  148.1590 O   0  0  0  0  0  1  0  0  0  0  0  0
  194.9460  171.2350  139.2900 C   0  0  0  0  0  2  0  0  0  0  0  0
  196.8370  172.0540  137.8640 C   0  0  0  0  0  2  0  0  0  0  0  0
  196.2690  173.7830  136.1670 C   0  0  0  0  0  0  0  0  0  0  0  0
  194.4510  172.5530  137.2300 C   0  0  0  0  0  3  0  0  0  0  0  0
  194.8490  173.3880  136.2700 C   0  0  0  0  0  3  0  0  0  0  0  0
  197.1930  173.1760  136.9240 C   0  0  0  0  0  3  0  0  0  0  0  0
  195.4090  172.0230  138.1600 N   0  0  0  0  0  0  0  0  0  0  0  0
  196.6790  174.8420  135.1760 C   0  0  0  0  0  3  0  0  0  0  0  0
  196.4960  176.2340  135.7830 C   0  0  0  0  0  2  0  0  0  0  0  0
  197.8760  175.6280  135.6910 C   0  0  0  0  0  2  0  0  0  0  0  0
  1 14  1  0  0  0  0
  2  9  1  0  0  0  0
  4 11  1  0  0  0  0
  5 12  1  0  0  0  0
  6 18  1  0  0  0  0
  6 19  1  0  0  0  0
  7  1  1  0  0  0  0
  8  6  2  0  0  0  0
  9 13  1  0  0  0  0
 10 11  1  0  0  0  0
 10  2  1  0  0  0  0
 11  3  1  6  0  0  0
 12 19  2  0  0  0  0
 13 28  1  1  0  0  0
 13 17  1  0  0  0  0
 14  8  1  0  0  0  0
 14  5  2  0  0  0  0
 15  4  1  6  0  0  0
 15 25  1  0  0  0  0
 16 46  1  6  0  0  0
 16 15  1  0  0  0  0
 16  7  1  0  0  0  0
 17 18  1  0  0  0  0
 20 21  1  0  0  0  0
 21 24  1  0  0  0  0
 22 26  1  6  0  0  0
 22 23  1  0  0  0  0
 23 24  1  0  0  0  0
 25 22  1  0  0  0  0
 25 20  1  1  0  0  0
 28 27  1  6  0  0  0
 28 29  1  0  0  0  0
 30 31  1  1  0  0  0
 30 28  1  0  0  0  0
 30 32  1  0  0  0  0
 32 33  1  1  0  0  0
 32 35  1  0  0  0  0
 35 34  1  0  0  0  0
 36 40  1  1  0  0  0
 36 32  1  0  0  0  0
 37 36  1  1  0  0  0
 38 37  1  0  0  0  0
 39 38  1  0  0  0  0
 39 37  1  0  0  0  0
 40 42  1  0  0  0  0
 42 41  1  1  0  0  0
 42 44  1  0  0  0  0
 44 43  2  0  0  0  0
 44 45  1  0  0  0  0
 47 52  1  0  0  0  0
 48 50  1  0  0  0  0
 48 51  2  0  0  0  0
 49 52  1  0  0  0  0
 50 49  2  0  0  0  0
 51 47  1  0  0  0  0
 52 46  1  0  0  0  0
 53 55  1  0  0  0  0
 53 54  1  0  0  0  0
 53 48  1  0  0  0  0
 55 54  1  0  0  0  0
M  END
>  <MODEL>
5

>  <REMARK>
 VINA RESULT:      -6.5      1.996      2.832
  Name = 
  13 active torsions:
  status: ('A' for Active; 'I' for Inactive)
    1  A    between atoms: C_1  and  C_53
    2  A    between atoms: C_6  and  C_14
    3  A    between atoms: C_6  and  C_20
    4  A    between atoms: C_6  and  C_53
    5  A    between atoms: C_8  and  C_20
    6  A    between atoms: C_8  and  C_43
    7  A    between atoms: C_10  and  C_32
    8  A    between atoms: C_11  and  C_29
    9  A    between atoms: C_11  and  O_38
   10  A    between atoms: C_26  and  C_45
   11  A    between atoms: C_33  and  C_49
   12  A    between atoms: C_33  and  N_52
   13  A    between atoms: O_38  and  C_53
                            x       y       z     vdW  Elec       q    Type
                         _______ _______ _______ _____ _____    ______ ____

>  <TORSDO>
F 13

$$$$
=
 OpenBabel11052419423D

 55 60  0  0  1  0  0  0  0  0999 V2000
  191.1010  173.4930  143.3060 C   0  0  0  0  0  2  0  0  0  0  0  0
  195.0860  175.9980  140.4170 O   0  0  0  0  0  0  0  0  0  0  0  0
  196.5840  176.4190  142.8630 C   0  0  0  0  0  1  0  0  0  0  0  0
  194.6010  175.7530  144.0020 O   0  0  0  0  0  0  0  0  0  0  0  0
  190.7510  171.4510  141.9030 C   0  0  0  0  0  3  0  0  0  0  0  0
  193.3600  171.6240  140.9070 C   0  0  0  0  0  0  0  0  0  0  0  0
  191.8660  173.4400  144.4800 O   0  0  0  0  0  0  0  0  0  0  0  0
  192.8950  172.5670  141.8280 C   0  0  0  0  0  3  0  0  0  0  0  0
  194.4590  174.9330  139.7660 C   0  0  0  0  0  2  0  0  0  0  0  0
  194.4120  176.1380  141.6360 C   0  0  0  0  0  2  0  0  0  0  0  0
  195.2840  175.6220  142.7860 C   0  0  1  0  0  3  0  0  0  0  0  0
  191.2130  170.5080  140.9760 C   0  0  0  0  0  3  0  0  0  0  0  0
  195.4200  173.7500  139.6320 C   0  0  1  0  0  3  0  0  0  0  0  0
  191.5940  172.4780  142.3330 C   0  0  0  0  0  0  0  0  0  0  0  0
  194.0450  174.4930  144.2660 C   0  0  2  0  0  3  0  0  0  0  0  0
  192.5390  174.6700  144.5270 C   0  0  2  0  0  3  0  0  0  0  0  0
  194.7040  172.6120  139.2420 O   0  0  0  0  0  0  0  0  0  0  0  0
  194.7360  171.7570  140.3490 C   0  0  0  0  0  2  0  0  0  0  0  0
  192.5190  170.5960  140.4780 C   0  0  0  0  0  3  0  0  0  0  0  0
  196.0770  174.5410  145.8130 C   0  0  0  0  0  2  0  0  0  0  0  0
  197.2070  174.2530  144.8190 C   0  0  0  0  0  2  0  0  0  0  0  0
  195.0690  172.3000  145.0750 C   0  0  2  0  0  3  0  0  0  0  0  0
  196.5000  171.8580  145.4000 C   0  0  0  0  0  2  0  0  0  0  0  0
  197.5210  172.7580  144.6970 C   0  0  0  0  0  2  0  0  0  0  0  0
  194.7920  173.7840  145.4200 C   0  0  2  0  0  3  0  0  0  0  0  0
  194.1680  171.4860  145.7630 O   0  0  0  0  0  1  0  0  0  0  0  0
  197.0210  172.7670  138.1840 O   0  0  0  0  0  1  0  0  0  0  0  0
  196.5950  174.0060  138.6680 C   0  0  2  0  0  0  0  0  0  0  0  0
  197.6460  174.5850  139.3600 F   0  0  0  0  0  0  0  0  0  0  0  0
  196.1690  174.9250  137.4960 C   0  0  1  0  0  3  0  0  0  0  0  0
  197.1950  175.8210  137.1870 O   0  0  0  0  0  1  0  0  0  0  0  0
  195.6490  174.2170  136.2170 C   0  0  2  0  0  0  0  0  0  0  0  0
  195.7050  172.8310  136.4050 O   0  0  0  0  0  1  0  0  0  0  0  0
  197.5780  173.6760  134.8730 F   0  0  0  0  0  0  0  0  0  0  0  0
  196.5260  174.5720  135.0110 C   0  0  0  0  0  2  0  0  0  0  0  0
  194.1790  174.6070  135.9160 C   0  0  2  0  0  3  0  0  0  0  0  0
  193.8150  176.0420  136.3610 C   0  0  2  0  0  3  0  0  0  0  0  0
  192.4830  176.3320  136.0130 O   0  0  0  0  0  0  0  0  0  0  0  0
  193.4790  176.9630  135.2480 C   0  0  0  0  0  2  0  0  0  0  0  0
  193.2840  173.6420  136.4050 O   0  0  0  0  0  0  0  0  0  0  0  0
  193.0690  172.2240  134.6230 O   0  0  0  0  0  1  0  0  0  0  0  0
  192.4780  173.2930  135.3090 C   0  0  1  0  0  3  0  0  0  0  0  0
  190.4140  173.7480  136.4490 O   0  0  0  0  0  1  0  0  0  0  0  0
  191.1050  172.9290  135.7820 C   0  0  0  0  0  0  0  0  0  0  0  0
  190.5770  171.6920  135.4500 O   0  0  0  0  0  0  0  0  0  0  0  0
  192.2620  175.3890  145.8450 C   0  0  0  0  0  2  0  0  0  0  0  0
  190.4750  176.8490  144.8670 C   0  0  0  0  0  2  0  0  0  0  0  0
  188.3660  177.0360  146.1730 C   0  0  0  0  0  0  0  0  0  0  0  0
  189.9390  175.2620  146.7480 C   0  0  0  0  0  3  0  0  0  0  0  0
  188.7260  175.7950  146.8920 C   0  0  0  0  0  3  0  0  0  0  0  0
  189.1910  177.5380  145.2440 C   0  0  0  0  0  3  0  0  0  0  0  0
  190.8980  175.8890  145.8810 N   0  0  0  0  0  0  0  0  0  0  0  0
  187.0490  177.7090  146.4600 C   0  0  0  0  0  3  0  0  0  0  0  0
  185.9080  176.9530  145.7780 C   0  0  0  0  0  2  0  0  0  0  0  0
  186.1370  176.7910  147.2620 C   0  0  0  0  0  2  0  0  0  0  0  0
  1  7  1  0  0  0  0
  2 10  1  0  0  0  0
  5 14  1  0  0  0  0
  6  8  1  0  0  0  0
  7 16  1  0  0  0  0
  8 14  2  0  0  0  0
  9  2  1  0  0  0  0
 10 11  1  0  0  0  0
 11  3  1  1  0  0  0
 11  4  1  0  0  0  0
 12  5  2  0  0  0  0
 13 28  1  6  0  0  0
 13  9  1  0  0  0  0
 14  1  1  0  0  0  0
 15  4  1  1  0  0  0
 15 16  1  0  0  0  0
 15 25  1  0  0  0  0
 16 46  1  1  0  0  0
 17 13  1  0  0  0  0
 17 18  1  0  0  0  0
 18  6  1  0  0  0  0
 19  6  2  0  0  0  0
 19 12  1  0  0  0  0
 21 20  1  0  0  0  0
 22 23  1  0  0  0  0
 22 25  1  0  0  0  0
 22 26  1  1  0  0  0
 24 21  1  0  0  0  0
 24 23  1  0  0  0  0
 25 20  1  6  0  0  0
 28 27  1  6  0  0  0
 28 29  1  0  0  0  0
 30 31  1  6  0  0  0
 30 28  1  0  0  0  0
 32 33  1  1  0  0  0
 32 30  1  0  0  0  0
 34 35  1  0  0  0  0
 35 32  1  0  0  0  0
 36 32  1  0  0  0  0
 36 40  1  1  0  0  0
 37 36  1  6  0  0  0
 38 37  1  0  0  0  0
 39 38  1  0  0  0  0
 39 37  1  0  0  0  0
 42 41  1  1  0  0  0
 42 44  1  0  0  0  0
 42 40  1  0  0  0  0
 44 43  1  0  0  0  0
 45 44  2  0  0  0  0
 46 52  1  0  0  0  0
 47 51  1  0  0  0  0
 47 52  1  0  0  0  0
 48 53  1  0  0  0  0
 48 50  1  0  0  0  0
 49 50  2  0  0  0  0
 51 48  2  0  0  0  0
 52 49  1  0  0  0  0
 53 55  1  0  0  0  0
 54 53  1  0  0  0  0
 54 55  1  0  0  0  0
M  END
>  <MODEL>
6

>  <REMARK>
 VINA RESULT:      -6.3      3.891      9.034
  Name = 
  13 active torsions:
  status: ('A' for Active; 'I' for Inactive)
    1  A    between atoms: C_1  and  C_53
    2  A    between atoms: C_6  and  C_14
    3  A    between atoms: C_6  and  C_20
    4  A    between atoms: C_6  and  C_53
    5  A    between atoms: C_8  and  C_20
    6  A    between atoms: C_8  and  C_43
    7  A    between atoms: C_10  and  C_32
    8  A    between atoms: C_11  and  C_29
    9  A    between atoms: C_11  and  O_38
   10  A    between atoms: C_26  and  C_45
   11  A    between atoms: C_33  and  C_49
   12  A    between atoms: C_33  and  N_52
   13  A    between atoms: O_38  and  C_53
                            x       y       z     vdW  Elec       q    Type
                         _______ _______ _______ _____ _____    ______ ____

>  <TORSDO>
F 13

$$$$
=
 OpenBabel11052419423D

 55 60  0  0  1  0  0  0  0  0999 V2000
  196.2280  173.7650  140.7490 C   0  0  0  0  0  2  0  0  0  0  0  0
  190.7780  173.7440  141.6380 O   0  0  0  0  0  0  0  0  0  0  0  0
  190.8870  170.9010  142.1940 C   0  0  0  0  0  1  0  0  0  0  0  0
  193.1060  170.9810  141.3310 O   0  0  0  0  0  0  0  0  0  0  0  0
  196.8950  175.7510  142.1160 C   0  0  0  0  0  3  0  0  0  0  0  0
  194.6490  175.4420  143.7550 C   0  0  0  0  0  0  0  0  0  0  0  0
  196.4010  172.4610  141.2380 O   0  0  0  0  0  0  0  0  0  0  0  0
  194.8740  174.5570  142.6970 C   0  0  0  0  0  3  0  0  0  0  0  0
  191.4440  174.8990  142.0540 C   0  0  0  0  0  2  0  0  0  0  0  0
  191.7560  172.9480  141.0300 C   0  0  0  0  0  2  0  0  0  0  0  0
  192.1180  171.7670  141.9370 C   0  0  1  0  0  3  0  0  0  0  0  0
  196.6690  176.6430  143.1720 C   0  0  0  0  0  3  0  0  0  0  0  0
  191.4630  174.9830  143.5810 C   0  0  1  0  0  3  0  0  0  0  0  0
  196.0000  174.7050  141.8820 C   0  0  0  0  0  0  0  0  0  0  0  0
  194.3220  171.3900  141.8960 C   0  0  2  0  0  3  0  0  0  0  0  0
  195.2920  171.7480  140.7570 C   0  0  2  0  0  3  0  0  0  0  0  0
  192.3640  175.9770  143.9810 O   0  0  0  0  0  0  0  0  0  0  0  0
  193.4230  175.2940  144.5900 C   0  0  0  0  0  2  0  0  0  0  0  0
  195.5430  176.4870  143.9910 C   0  0  0  0  0  3  0  0  0  0  0  0
  193.7850  169.8130  143.8320 C   0  0  0  0  0  2  0  0  0  0  0  0
  193.5520  170.8140  144.9680 C   0  0  0  0  0  2  0  0  0  0  0  0
  196.1260  170.8410  143.6150 C   0  0  2  0  0  3  0  0  0  0  0  0
  196.0980  170.5480  145.1200 C   0  0  0  0  0  2  0  0  0  0  0  0
  194.8280  171.1150  145.7620 C   0  0  0  0  0  2  0  0  0  0  0  0
  194.8760  170.3200  142.8660 C   0  0  2  0  0  3  0  0  0  0  0  0
  197.2730  170.2760  143.0570 O   0  0  0  0  0  1  0  0  0  0  0  0
  190.2600  176.0320  145.3360 O   0  0  0  0  0  1  0  0  0  0  0  0
  190.0780  175.2250  144.2110 C   0  0  2  0  0  0  0  0  0  0  0  0
  189.5380  174.0190  144.6270 F   0  0  0  0  0  0  0  0  0  0  0  0
  189.1170  175.9100  143.2070 C   0  0  1  0  0  3  0  0  0  0  0  0
  187.9010  175.2240  143.1560 O   0  0  0  0  0  1  0  0  0  0  0  0
  188.8870  177.4320  143.4000 C   0  0  2  0  0  0  0  0  0  0  0  0
  189.2110  178.0980  142.2130 O   0  0  0  0  0  1  0  0  0  0  0  0
  190.8130  178.7540  143.9980 F   0  0  0  0  0  0  0  0  0  0  0  0
  189.7870  177.9750  144.5150 C   0  0  0  0  0  2  0  0  0  0  0  0
  187.4050  177.7390  143.7390 C   0  0  2  0  0  3  0  0  0  0  0  0
  186.7080  178.6500  142.7020 C   0  0  2  0  0  3  0  0  0  0  0  0
  185.7120  179.4200  143.3280 O   0  0  0  0  0  0  0  0  0  0  0  0
  185.2650  178.3690  142.5100 C   0  0  0  0  0  2  0  0  0  0  0  0
  187.2680  178.2090  145.0550 O   0  0  0  0  0  0  0  0  0  0  0  0
  187.2340  176.4030  146.4600 O   0  0  0  0  0  1  0  0  0  0  0  0
  186.4420  177.2730  145.7000 C   0  0  1  0  0  3  0  0  0  0  0  0
  184.2210  177.7040  146.5030 O   0  0  0  0  0  0  0  0  0  0  0  0
  185.4490  177.9840  146.5670 C   0  0  0  0  0  0  0  0  0  0  0  0
  185.8930  178.9340  147.4720 O   0  0  0  0  0  1  0  0  0  0  0  0
  195.7400  170.5160  139.9720 C   0  0  0  0  0  2  0  0  0  0  0  0
  194.3100  171.0660  137.9890 C   0  0  0  0  0  2  0  0  0  0  0  0
  192.5520  169.4050  137.4020 C   0  0  0  0  0  0  0  0  0  0  0  0
  194.3120  168.7400  138.9560 C   0  0  0  0  0  3  0  0  0  0  0  0
  193.2840  168.3860  138.1840 C   0  0  0  0  0  3  0  0  0  0  0  0
  193.0200  170.6590  137.3280 C   0  0  0  0  0  3  0  0  0  0  0  0
  194.7190  170.1160  139.0180 N   0  0  0  0  0  0  0  0  0  0  0  0
  191.3020  169.0160  136.6550 C   0  0  0  0  0  3  0  0  0  0  0  0
  190.0670  169.2930  137.5120 C   0  0  0  0  0  2  0  0  0  0  0  0
  190.4320  170.2360  136.3900 C   0  0  0  0  0  2  0  0  0  0  0  0
  1  7  1  0  0  0  0
  1 14  1  0  0  0  0
  2  9  1  0  0  0  0
  4 11  1  0  0  0  0
  5 12  1  0  0  0  0
  6 19  1  0  0  0  0
  6 18  1  0  0  0  0
  8  6  2  0  0  0  0
  9 13  1  0  0  0  0
 10  2  1  0  0  0  0
 10 11  1  0  0  0  0
 11  3  1  6  0  0  0
 12 19  2  0  0  0  0
 13 17  1  0  0  0  0
 13 28  1  6  0  0  0
 14  5  2  0  0  0  0
 14  8  1  0  0  0  0
 15  4  1  6  0  0  0
 15 25  1  0  0  0  0
 16 46  1  1  0  0  0
 16  7  1  0  0  0  0
 16 15  1  0  0  0  0
 17 18  1  0  0  0  0
 20 21  1  0  0  0  0
 21 24  1  0  0  0  0
 22 26  1  6  0  0  0
 22 23  1  0  0  0  0
 23 24  1  0  0  0  0
 25 22  1  0  0  0  0
 25 20  1  1  0  0  0
 28 29  1  1  0  0  0
 28 27  1  0  0  0  0
 30 31  1  1  0  0  0
 30 32  1  0  0  0  0
 30 28  1  0  0  0  0
 32 33  1  6  0  0  0
 32 36  1  0  0  0  0
 32 35  1  0  0  0  0
 34 35  1  0  0  0  0
 36 40  1  1  0  0  0
 37 38  1  0  0  0  0
 37 36  1  1  0  0  0
 39 37  1  0  0  0  0
 39 38  1  0  0  0  0
 40 42  1  0  0  0  0
 42 41  1  1  0  0  0
 42 44  1  0  0  0  0
 43 44  2  0  0  0  0
 44 45  1  0  0  0  0
 47 52  1  0  0  0  0
 48 50  1  0  0  0  0
 49 52  1  0  0  0  0
 50 49  2  0  0  0  0
 51 48  2  0  0  0  0
 51 47  1  0  0  0  0
 52 46  1  0  0  0  0
 53 48  1  0  0  0  0
 53 54  1  0  0  0  0
 55 53  1  0  0  0  0
 55 54  1  0  0  0  0
M  END
>  <MODEL>
7

>  <REMARK>
 VINA RESULT:      -6.3      1.477      2.124
  Name = 
  13 active torsions:
  status: ('A' for Active; 'I' for Inactive)
    1  A    between atoms: C_1  and  C_53
    2  A    between atoms: C_6  and  C_14
    3  A    between atoms: C_6  and  C_20
    4  A    between atoms: C_6  and  C_53
    5  A    between atoms: C_8  and  C_20
    6  A    between atoms: C_8  and  C_43
    7  A    between atoms: C_10  and  C_32
    8  A    between atoms: C_11  and  C_29
    9  A    between atoms: C_11  and  O_38
   10  A    between atoms: C_26  and  C_45
   11  A    between atoms: C_33  and  C_49
   12  A    between atoms: C_33  and  N_52
   13  A    between atoms: O_38  and  C_53
                            x       y       z     vdW  Elec       q    Type
                         _______ _______ _______ _____ _____    ______ ____

>  <TORSDO>
F 13

$$$$
=
 OpenBabel11052419423D

 55 60  0  0  1  0  0  0  0  0999 V2000
  197.0850  171.5210  141.6150 C   0  0  0  0  0  2  0  0  0  0  0  0
  193.5430  175.6020  142.7510 O   0  0  0  0  0  0  0  0  0  0  0  0
  191.5970  174.4000  140.9700 C   0  0  0  0  0  1  0  0  0  0  0  0
  193.3780  172.9980  140.2340 O   0  0  0  0  0  0  0  0  0  0  0  0
  197.8200  170.9110  143.9280 C   0  0  0  0  0  3  0  0  0  0  0  0
  195.4310  171.8980  145.0020 C   0  0  0  0  0  0  0  0  0  0  0  0
  196.1230  170.7570  140.9380 O   0  0  0  0  0  0  0  0  0  0  0  0
  195.6580  171.9510  143.6240 C   0  0  0  0  0  3  0  0  0  0  0  0
  194.3460  175.1970  143.8200 C   0  0  0  0  0  2  0  0  0  0  0  0
  193.9710  174.8450  141.6550 C   0  0  0  0  0  2  0  0  0  0  0  0
  192.9390  173.7620  141.3230 C   0  0  1  0  0  3  0  0  0  0  0  0
  197.5980  170.8620  145.3100 C   0  0  0  0  0  3  0  0  0  0  0  0
  193.5060  174.4800  144.8780 C   0  0  1  0  0  3  0  0  0  0  0  0
  196.8470  171.4510  143.0840 C   0  0  0  0  0  0  0  0  0  0  0  0
  193.9570  171.8450  140.7820 C   0  0  2  0  0  3  0  0  0  0  0  0
  195.3740  171.6910  140.2050 C   0  0  2  0  0  3  0  0  0  0  0  0
  194.3540  173.8410  145.7900 O   0  0  0  0  0  0  0  0  0  0  0  0
  194.1760  172.4720  145.5640 C   0  0  0  0  0  2  0  0  0  0  0  0
  196.4020  171.3570  145.8460 C   0  0  0  0  0  3  0  0  0  0  0  0
  192.5370  170.5440  139.1030 C   0  0  0  0  0  2  0  0  0  0  0  0
  191.3650  171.5110  138.9020 C   0  0  0  0  0  2  0  0  0  0  0  0
  191.9120  170.5520  141.5920 C   0  0  2  0  0  3  0  0  0  0  0  0
  190.5460  170.2370  140.9710 C   0  0  0  0  0  2  0  0  0  0  0  0
  190.2040  171.2430  139.8660 C   0  0  0  0  0  2  0  0  0  0  0  0
  193.0590  170.6060  140.5540 C   0  0  2  0  0  3  0  0  0  0  0  0
  192.2080  169.5940  142.5630 O   0  0  0  0  0  1  0  0  0  0  0  0
  192.9960  176.7060  145.5190 O   0  0  0  0  0  1  0  0  0  0  0  0
  192.5130  175.3990  145.6150 C   0  0  2  0  0  0  0  0  0  0  0  0
  192.4660  175.0530  146.9550 F   0  0  0  0  0  0  0  0  0  0  0  0
  191.0950  175.3030  144.9980 C   0  0  1  0  0  3  0  0  0  0  0  0
  190.9160  174.0580  144.3900 O   0  0  0  0  0  1  0  0  0  0  0  0
  189.9080  175.6340  145.9390 C   0  0  2  0  0  0  0  0  0  0  0  0
  190.3670  176.4340  146.9920 O   0  0  0  0  0  1  0  0  0  0  0  0
  189.0890  174.4880  147.8980 F   0  0  0  0  0  0  0  0  0  0  0  0
  189.3200  174.3500  146.5360 C   0  0  0  0  0  2  0  0  0  0  0  0
  188.7940  176.4100  145.1900 C   0  0  2  0  0  3  0  0  0  0  0  0
  187.4600  176.4850  145.9680 C   0  0  2  0  0  3  0  0  0  0  0  0
  186.4810  177.1250  145.1880 O   0  0  0  0  0  0  0  0  0  0  0  0
  186.9990  177.8630  146.2650 C   0  0  0  0  0  2  0  0  0  0  0  0
  188.6330  175.9350  143.8790 O   0  0  0  0  0  0  0  0  0  0  0  0
  189.9770  177.5230  142.9270 O   0  0  0  0  0  1  0  0  0  0  0  0
  188.6560  177.0790  143.0640 C   0  0  1  0  0  3  0  0  0  0  0  0
  187.4070  177.6340  141.0890 O   0  0  0  0  0  0  0  0  0  0  0  0
  188.0580  176.7620  141.7270 C   0  0  0  0  0  0  0  0  0  0  0  0
  188.2570  175.5080  141.1730 O   0  0  0  0  0  1  0  0  0  0  0  0
  195.3570  171.3270  138.7220 C   0  0  0  0  0  2  0  0  0  0  0  0
  196.3090  173.6360  138.5150 C   0  0  0  0  0  2  0  0  0  0  0  0
  197.2350  174.2510  136.2900 C   0  0  0  0  0  0  0  0  0  0  0  0
  196.7740  171.9000  136.7490 C   0  0  0  0  0  3  0  0  0  0  0  0
  197.3310  172.8150  135.9550 C   0  0  0  0  0  3  0  0  0  0  0  0
  196.7400  174.6340  137.4750 C   0  0  0  0  0  3  0  0  0  0  0  0
  196.0880  172.3120  137.9430 N   0  0  0  0  0  0  0  0  0  0  0  0
  197.7360  175.2810  135.3090 C   0  0  0  0  0  3  0  0  0  0  0  0
  196.5690  175.8650  134.5140 C   0  0  0  0  0  2  0  0  0  0  0  0
  197.1820  176.6580  135.6430 C   0  0  0  0  0  2  0  0  0  0  0  0
  1 14  1  0  0  0  0
  2  9  1  0  0  0  0
  4 11  1  0  0  0  0
  5 12  1  0  0  0  0
  6 18  1  0  0  0  0
  6 19  1  0  0  0  0
  7  1  1  0  0  0  0
  8  6  2  0  0  0  0
  9 13  1  0  0  0  0
 10  2  1  0  0  0  0
 11  3  1  6  0  0  0
 11 10  1  0  0  0  0
 12 19  2  0  0  0  0
 13 28  1  1  0  0  0
 13 17  1  0  0  0  0
 14  8  1  0  0  0  0
 14  5  2  0  0  0  0
 15  4  1  6  0  0  0
 16 46  1  6  0  0  0
 16 15  1  0  0  0  0
 16  7  1  0  0  0  0
 18 17  1  0  0  0  0
 21 20  1  0  0  0  0
 21 24  1  0  0  0  0
 22 26  1  1  0  0  0
 23 22  1  0  0  0  0
 24 23  1  0  0  0  0
 25 20  1  6  0  0  0
 25 15  1  0  0  0  0
 25 22  1  0  0  0  0
 28 27  1  6  0  0  0
 28 29  1  0  0  0  0
 30 31  1  1  0  0  0
 30 28  1  0  0  0  0
 30 32  1  0  0  0  0
 32 35  1  0  0  0  0
 32 33  1  1  0  0  0
 35 34  1  0  0  0  0
 36 40  1  6  0  0  0
 36 32  1  0  0  0  0
 37 36  1  6  0  0  0
 37 39  1  0  0  0  0
 38 37  1  0  0  0  0
 38 39  1  0  0  0  0
 42 41  1  6  0  0  0
 42 40  1  0  0  0  0
 43 44  2  0  0  0  0
 44 42  1  0  0  0  0
 45 44  1  0  0  0  0
 48 51  2  0  0  0  0
 49 52  1  0  0  0  0
 50 48  1  0  0  0  0
 50 49  2  0  0  0  0
 51 47  1  0  0  0  0
 52 47  1  0  0  0  0
 52 46  1  0  0  0  0
 53 55  1  0  0  0  0
 53 48  1  0  0  0  0
 54 53  1  0  0  0  0
 54 55  1  0  0  0  0
M  END
>  <MODEL>
8

>  <REMARK>
 VINA RESULT:      -6.2      2.365      4.170
  Name = 
  13 active torsions:
  status: ('A' for Active; 'I' for Inactive)
    1  A    between atoms: C_1  and  C_53
    2  A    between atoms: C_6  and  C_14
    3  A    between atoms: C_6  and  C_20
    4  A    between atoms: C_6  and  C_53
    5  A    between atoms: C_8  and  C_20
    6  A    between atoms: C_8  and  C_43
    7  A    between atoms: C_10  and  C_32
    8  A    between atoms: C_11  and  C_29
    9  A    between atoms: C_11  and  O_38
   10  A    between atoms: C_26  and  C_45
   11  A    between atoms: C_33  and  C_49
   12  A    between atoms: C_33  and  N_52
   13  A    between atoms: O_38  and  C_53
                            x       y       z     vdW  Elec       q    Type
                         _______ _______ _______ _____ _____    ______ ____

>  <TORSDO>
F 13

$$$$
=
 OpenBabel11052419423D

 55 60  0  0  1  0  0  0  0  0999 V2000
  194.1580  173.2510  146.0360 C   0  0  0  0  0  2  0  0  0  0  0  0
  190.5890  171.6880  142.1220 O   0  0  0  0  0  0  0  0  0  0  0  0
  190.7160  174.3390  140.9570 C   0  0  0  0  0  1  0  0  0  0  0  0
  191.8560  174.9830  142.9480 O   0  0  0  0  0  0  0  0  0  0  0  0
  195.7600  171.3300  145.9710 C   0  0  0  0  0  3  0  0  0  0  0  0
  195.0720  170.7790  143.3150 C   0  0  0  0  0  0  0  0  0  0  0  0
  194.4600  174.4640  145.3980 O   0  0  0  0  0  0  0  0  0  0  0  0
  194.4670  171.8410  143.9920 C   0  0  0  0  0  3  0  0  0  0  0  0
  191.4880  170.7030  142.5350 C   0  0  0  0  0  2  0  0  0  0  0  0
  190.8540  172.7980  142.9340 C   0  0  0  0  0  2  0  0  0  0  0  0
  191.5810  173.8810  142.1290 C   0  0  1  0  0  3  0  0  0  0  0  0
  196.3630  170.2610  145.2970 C   0  0  0  0  0  3  0  0  0  0  0  0
  192.4920  170.3960  141.4220 C   0  0  1  0  0  3  0  0  0  0  0  0
  194.8160  172.1240  145.3170 C   0  0  0  0  0  0  0  0  0  0  0  0
  193.1860  174.8310  143.3630 C   0  0  2  0  0  3  0  0  0  0  0  0
  193.2320  174.9210  144.8970 C   0  0  2  0  0  3  0  0  0  0  0  0
  193.5420  169.6280  141.9410 O   0  0  0  0  0  0  0  0  0  0  0  0
  194.6610  170.4670  141.9170 C   0  0  0  0  0  2  0  0  0  0  0  0
  196.0170  169.9850  143.9670 C   0  0  0  0  0  3  0  0  0  0  0  0
  194.0330  175.7190  141.1220 C   0  0  0  0  0  2  0  0  0  0  0  0
  194.8630  174.5280  140.6310 C   0  0  0  0  0  2  0  0  0  0  0  0
  195.5640  175.7390  143.1800 C   0  0  2  0  0  3  0  0  0  0  0  0
  196.6140  175.7380  142.0620 C   0  0  0  0  0  2  0  0  0  0  0  0
  196.3340  174.6180  141.0540 C   0  0  0  0  0  2  0  0  0  0  0  0
  194.1120  175.8510  142.6570 C   0  0  2  0  0  3  0  0  0  0  0  0
  195.8260  176.7940  144.0560 O   0  0  0  0  0  1  0  0  0  0  0  0
  190.6100  169.2320  140.5680 O   0  0  0  0  0  1  0  0  0  0  0  0
  191.8710  169.7020  140.1940 C   0  0  2  0  0  0  0  0  0  0  0  0
  192.6470  168.6150  139.8310 F   0  0  0  0  0  0  0  0  0  0  0  0
  191.7480  170.6810  139.0000 C   0  0  1  0  0  3  0  0  0  0  0  0
  193.0060  171.1760  138.6480 O   0  0  0  0  0  1  0  0  0  0  0  0
  190.9910  170.1570  137.7510 C   0  0  2  0  0  0  0  0  0  0  0  0
  189.9560  169.3100  138.1650 O   0  0  0  0  0  1  0  0  0  0  0  0
  191.3140  168.2130  136.3620 F   0  0  0  0  0  0  0  0  0  0  0  0
  191.9340  169.3550  136.8480 C   0  0  0  0  0  2  0  0  0  0  0  0
  190.3680  171.3220  136.9400 C   0  0  2  0  0  3  0  0  0  0  0  0
  191.0610  171.5710  135.5800 C   0  0  2  0  0  3  0  0  0  0  0  0
  190.9910  172.9340  135.2440 O   0  0  0  0  0  0  0  0  0  0  0  0
  190.1600  172.0690  134.5130 C   0  0  0  0  0  2  0  0  0  0  0  0
  190.2600  172.4870  137.7160 O   0  0  0  0  0  0  0  0  0  0  0  0
  188.6270  172.0970  139.2700 O   0  0  0  0  0  1  0  0  0  0  0  0
  188.8910  172.6210  137.9980 C   0  0  1  0  0  3  0  0  0  0  0  0
  188.0280  174.6570  138.9340 O   0  0  0  0  0  1  0  0  0  0  0  0
  188.4950  174.0640  137.9230 C   0  0  0  0  0  0  0  0  0  0  0  0
  188.6800  174.7590  136.7400 O   0  0  0  0  0  0  0  0  0  0  0  0
  192.9330  176.3320  145.4020 C   0  0  0  0  0  2  0  0  0  0  0  0
  191.0070  175.7540  146.8990 C   0  0  0  0  0  2  0  0  0  0  0  0
  188.7640  176.5350  146.1600 C   0  0  0  0  0  0  0  0  0  0  0  0
  190.7380  177.4750  145.0790 C   0  0  0  0  0  3  0  0  0  0  0  0
  189.4210  177.5220  145.2770 C   0  0  0  0  0  3  0  0  0  0  0  0
  189.5030  175.6980  146.9010 C   0  0  0  0  0  3  0  0  0  0  0  0
  191.5250  176.4700  145.7370 N   0  0  0  0  0  0  0  0  0  0  0  0
  187.2600  176.5040  146.2550 C   0  0  0  0  0  3  0  0  0  0  0  0
  186.8010  177.1070  147.5830 C   0  0  0  0  0  2  0  0  0  0  0  0
  186.6940  177.9160  146.3120 C   0  0  0  0  0  2  0  0  0  0  0  0
  2  9  1  0  0  0  0
  2 10  1  0  0  0  0
  6 19  2  0  0  0  0
  6  8  1  0  0  0  0
  7  1  1  0  0  0  0
  8 14  2  0  0  0  0
 11  3  1  6  0  0  0
 11 10  1  0  0  0  0
 11  4  1  0  0  0  0
 12  5  2  0  0  0  0
 13 28  1  6  0  0  0
 13 17  1  0  0  0  0
 13  9  1  0  0  0  0
 14  5  1  0  0  0  0
 14  1  1  0  0  0  0
 15  4  1  6  0  0  0
 15 16  1  0  0  0  0
 16  7  1  0  0  0  0
 16 46  1  6  0  0  0
 18 17  1  0  0  0  0
 18  6  1  0  0  0  0
 19 12  1  0  0  0  0
 21 24  1  0  0  0  0
 21 20  1  0  0  0  0
 22 26  1  1  0  0  0
 23 22  1  0  0  0  0
 24 23  1  0  0  0  0
 25 20  1  6  0  0  0
 25 22  1  0  0  0  0
 25 15  1  0  0  0  0
 28 29  1  6  0  0  0
 28 27  1  0  0  0  0
 30 31  1  6  0  0  0
 30 28  1  0  0  0  0
 32 33  1  1  0  0  0
 32 30  1  0  0  0  0
 34 35  1  0  0  0  0
 35 32  1  0  0  0  0
 36 40  1  1  0  0  0
 36 32  1  0  0  0  0
 37 36  1  1  0  0  0
 38 37  1  0  0  0  0
 39 38  1  0  0  0  0
 39 37  1  0  0  0  0
 40 42  1  0  0  0  0
 42 41  1  1  0  0  0
 44 42  1  0  0  0  0
 44 43  1  0  0  0  0
 45 44  2  0  0  0  0
 46 52  1  0  0  0  0
 47 51  1  0  0  0  0
 48 53  1  0  0  0  0
 48 51  2  0  0  0  0
 49 50  2  0  0  0  0
 49 52  1  0  0  0  0
 50 48  1  0  0  0  0
 52 47  1  0  0  0  0
 53 55  1  0  0  0  0
 53 54  1  0  0  0  0
 55 54  1  0  0  0  0
M  END
>  <MODEL>
9

>  <REMARK>
 VINA RESULT:      -6.2      3.612      8.348
  Name = 
  13 active torsions:
  status: ('A' for Active; 'I' for Inactive)
    1  A    between atoms: C_1  and  C_53
    2  A    between atoms: C_6  and  C_14
    3  A    between atoms: C_6  and  C_20
    4  A    between atoms: C_6  and  C_53
    5  A    between atoms: C_8  and  C_20
    6  A    between atoms: C_8  and  C_43
    7  A    between atoms: C_10  and  C_32
    8  A    between atoms: C_11  and  C_29
    9  A    between atoms: C_11  and  O_38
   10  A    between atoms: C_26  and  C_45
   11  A    between atoms: C_33  and  C_49
   12  A    between atoms: C_33  and  N_52
   13  A    between atoms: O_38  and  C_53
                            x       y       z     vdW  Elec       q    Type
                         _______ _______ _______ _____ _____    ______ ____

>  <TORSDO>
F 13

$$$$
