=
 OpenBabel11052417293D

 25 29  0  0  1  0  0  0  0  0999 V2000
  186.8760  176.8010  144.0560 C   0  0  0  0  0  0  0  0  0  0  0  0
  188.0840  176.0800  144.0110 C   0  0  0  0  0  0  0  0  0  0  0  0
  186.7010  176.6700  141.6380 C   0  0  0  0  0  3  0  0  0  0  0  0
  186.1960  177.3140  145.1770 C   0  0  0  0  0  0  0  0  0  0  0  0
  184.5710  178.4670  147.1380 C   0  0  0  0  0  3  0  0  0  0  0  0
  187.8700  175.9710  141.6050 N   0  0  0  0  0  0  0  0  0  0  0  0
  185.0190  177.9790  144.8330 C   0  0  0  0  0  0  0  0  0  0  0  0
  184.1930  178.5610  145.7910 C   0  0  0  0  0  3  0  0  0  0  0  0
  189.7670  174.9450  142.6730 C   0  0  0  0  0  0  0  0  0  0  0  0
  190.2790  174.5110  141.4170 N   0  0  0  0  0  1  0  0  0  0  0  0
  188.8150  175.7580  145.1590 C   0  0  0  0  0  3  0  0  0  0  0  0
  185.7560  177.7990  147.5010 C   0  0  0  0  0  3  0  0  0  0  0  0
  186.2060  177.0840  142.8690 C   0  0  0  0  0  0  0  0  0  0  0  0
  184.7910  177.9520  143.1650 S   0  0  0  0  0  0  0  0  0  0  0  0
  190.4480  174.6510  143.8120 N   0  0  0  0  0  0  0  0  0  0  0  0
  186.5760  177.2180  146.5200 C   0  0  0  0  0  3  0  0  0  0  0  0
  190.0070  175.0430  145.0370 C   0  0  0  0  0  0  0  0  0  0  0  0
  188.5670  175.6680  142.7420 C   0  0  0  0  0  0  0  0  0  0  0  0
  190.7750  174.6730  146.2560 C   0  0  0  0  0  2  0  0  0  0  0  0
  192.1780  174.9990  146.0680 N   0  0  0  0  0  2  0  0  0  0  0  0
  192.3700  176.3550  146.5550 C   0  0  1  0  0  3  0  0  0  0  0  0
  191.5310  176.5660  147.8030 C   0  0  0  0  0  1  0  0  0  0  0  0
  193.8360  176.5740  146.8860 C   0  0  0  0  0  3  0  0  0  0  0  0
  194.5250  177.2370  145.7100 C   0  0  0  0  0  2  0  0  0  0  0  0
  194.6950  175.7510  145.9460 C   0  0  0  0  0  2  0  0  0  0  0  0
  1  4  1  0  0  0  0
  2  1  1  0  0  0  0
  2 11  1  0  0  0  0
  3 13  1  0  0  0  0
  4 16  1  0  0  0  0
  5 12  1  0  0  0  0
  6  3  2  0  0  0  0
  6 18  1  0  0  0  0
  7  4  2  0  0  0  0
  7  8  1  0  0  0  0
  8  5  2  0  0  0  0
  9 18  1  0  0  0  0
  9 15  2  0  0  0  0
 10  9  1  0  0  0  0
 13 14  1  0  0  0  0
 13  1  2  0  0  0  0
 14  7  1  0  0  0  0
 15 17  1  0  0  0  0
 16 12  2  0  0  0  0
 17 11  2  0  0  0  0
 17 19  1  0  0  0  0
 18  2  2  0  0  0  0
 20 19  1  0  0  0  0
 20 21  1  0  0  0  0
 21 23  1  0  0  0  0
 21 22  1  1  0  0  0
 24 25  1  0  0  0  0
 24 23  1  0  0  0  0
 25 23  1  0  0  0  0
M  END
>  <MODEL>
1

>  <REMARK>
 VINA RESULT:      -7.7      0.000      0.000
  Name = 
  4 active torsions:
  status: ('A' for Active; 'I' for Inactive)
    1  A    between atoms: C_2  and  C_21
    2  A    between atoms: C_6  and  N_15
    3  A    between atoms: C_6  and  C_23
    4  A    between atoms: N_15  and  C_21
                            x       y       z     vdW  Elec       q    Type
                         _______ _______ _______ _____ _____    ______ ____

>  <TORSDO>
F 4

$$$$
=
 OpenBabel11052417293D

 25 29  0  0  1  0  0  0  0  0999 V2000
  185.8020  177.5620  143.7200 C   0  0  0  0  0  0  0  0  0  0  0  0
  186.5720  176.9660  142.7050 C   0  0  0  0  0  0  0  0  0  0  0  0
  184.3810  178.5930  142.0430 C   0  0  0  0  0  3  0  0  0  0  0  0
  185.9590  177.4710  145.1160 C   0  0  0  0  0  0  0  0  0  0  0  0
  185.9470  177.5310  147.9110 C   0  0  0  0  0  3  0  0  0  0  0  0
  185.1330  178.0110  141.0680 N   0  0  0  0  0  0  0  0  0  0  0  0
  184.9980  178.2030  145.8130 C   0  0  0  0  0  0  0  0  0  0  0  0
  184.9710  178.2490  147.2050 C   0  0  0  0  0  3  0  0  0  0  0  0
  186.9570  176.6270  140.3280 C   0  0  0  0  0  0  0  0  0  0  0  0
  186.6140  176.8490  138.9640 N   0  0  0  0  0  1  0  0  0  0  0  0
  187.6740  176.1470  142.9750 C   0  0  0  0  0  3  0  0  0  0  0  0
  186.9230  176.7880  147.2220 C   0  0  0  0  0  3  0  0  0  0  0  0
  184.7190  178.3660  143.3720 C   0  0  0  0  0  0  0  0  0  0  0  0
  183.9480  178.9690  144.7440 S   0  0  0  0  0  0  0  0  0  0  0  0
  188.0210  175.8360  140.6320 N   0  0  0  0  0  0  0  0  0  0  0  0
  186.9340  176.7540  145.8180 C   0  0  0  0  0  3  0  0  0  0  0  0
  188.3950  175.5920  141.9160 C   0  0  0  0  0  0  0  0  0  0  0  0
  186.2060  177.2130  141.3570 C   0  0  0  0  0  0  0  0  0  0  0  0
  189.5490  174.6990  142.1970 C   0  0  0  0  0  2  0  0  0  0  0  0
  190.7450  175.4960  142.4070 N   0  0  0  0  0  2  0  0  0  0  0  0
  190.9710  175.5570  143.8420 C   0  0  1  0  0  3  0  0  0  0  0  0
  191.9750  174.4910  144.2400 C   0  0  0  0  0  1  0  0  0  0  0  0
  191.5110  176.9270  144.2140 C   0  0  0  0  0  3  0  0  0  0  0  0
  190.4220  177.7290  144.8990 C   0  0  0  0  0  2  0  0  0  0  0  0
  190.7550  177.9940  143.4460 C   0  0  0  0  0  2  0  0  0  0  0  0
  1  4  1  0  0  0  0
  2 11  1  0  0  0  0
  2  1  1  0  0  0  0
  3 13  1  0  0  0  0
  4  7  2  0  0  0  0
  4 16  1  0  0  0  0
  6 18  1  0  0  0  0
  6  3  2  0  0  0  0
  7  8  1  0  0  0  0
  8  5  2  0  0  0  0
  9 15  2  0  0  0  0
  9 18  1  0  0  0  0
 10  9  1  0  0  0  0
 12  5  1  0  0  0  0
 13  1  2  0  0  0  0
 13 14  1  0  0  0  0
 14  7  1  0  0  0  0
 15 17  1  0  0  0  0
 16 12  2  0  0  0  0
 17 19  1  0  0  0  0
 17 11  2  0  0  0  0
 18  2  2  0  0  0  0
 19 20  1  0  0  0  0
 20 21  1  0  0  0  0
 21 23  1  0  0  0  0
 21 22  1  6  0  0  0
 23 24  1  0  0  0  0
 25 23  1  0  0  0  0
 25 24  1  0  0  0  0
M  END
>  <MODEL>
2

>  <REMARK>
 VINA RESULT:      -7.6      2.006      3.175
  Name = 
  4 active torsions:
  status: ('A' for Active; 'I' for Inactive)
    1  A    between atoms: C_2  and  C_21
    2  A    between atoms: C_6  and  N_15
    3  A    between atoms: C_6  and  C_23
    4  A    between atoms: N_15  and  C_21
                            x       y       z     vdW  Elec       q    Type
                         _______ _______ _______ _____ _____    ______ ____

>  <TORSDO>
F 4

$$$$
=
 OpenBabel11052417293D

 25 29  0  0  1  0  0  0  0  0999 V2000
  190.2180  175.1070  143.9750 C   0  0  0  0  0  0  0  0  0  0  0  0
  189.2900  175.5100  142.9960 C   0  0  0  0  0  0  0  0  0  0  0  0
  191.0110  173.3450  142.5040 C   0  0  0  0  0  3  0  0  0  0  0  0
  190.4440  175.6500  145.2540 C   0  0  0  0  0  0  0  0  0  0  0  0
  191.1780  176.4450  147.8310 C   0  0  0  0  0  3  0  0  0  0  0  0
  190.1100  173.7430  141.5640 N   0  0  0  0  0  0  0  0  0  0  0  0
  191.4540  174.9860  145.9480 C   0  0  0  0  0  0  0  0  0  0  0  0
  191.8380  175.3620  147.2330 C   0  0  0  0  0  3  0  0  0  0  0  0
  188.3440  175.1780  140.7820 C   0  0  0  0  0  0  0  0  0  0  0  0
  188.2870  174.4850  139.5380 N   0  0  0  0  0  1  0  0  0  0  0  0
  188.4090  176.5790  143.1860 C   0  0  0  0  0  3  0  0  0  0  0  0
  190.1570  177.1260  147.1420 C   0  0  0  0  0  3  0  0  0  0  0  0
  191.0630  174.0320  143.7120 C   0  0  0  0  0  0  0  0  0  0  0  0
  192.0840  173.7310  145.0190 S   0  0  0  0  0  0  0  0  0  0  0  0
  187.5040  176.2250  141.0040 N   0  0  0  0  0  0  0  0  0  0  0  0
  189.7840  176.7320  145.8470 C   0  0  0  0  0  3  0  0  0  0  0  0
  187.5120  176.9200  142.1720 C   0  0  0  0  0  0  0  0  0  0  0  0
  189.2580  174.7930  141.7720 C   0  0  0  0  0  0  0  0  0  0  0  0
  186.5920  178.0740  142.3560 C   0  0  0  0  0  2  0  0  0  0  0  0
  185.6430  177.7780  143.4150 N   0  0  0  0  0  2  0  0  0  0  0  0
  185.9340  178.6830  144.5150 C   0  0  1  0  0  3  0  0  0  0  0  0
  185.3030  180.0350  144.2360 C   0  0  0  0  0  1  0  0  0  0  0  0
  185.3690  178.1160  145.8050 C   0  0  0  0  0  3  0  0  0  0  0  0
  186.4800  177.9870  146.8290 C   0  0  0  0  0  2  0  0  0  0  0  0
  185.9970  176.7630  146.0800 C   0  0  0  0  0  2  0  0  0  0  0  0
  1  4  1  0  0  0  0
  2 11  1  0  0  0  0
  2  1  1  0  0  0  0
  3 13  1  0  0  0  0
  4 16  2  0  0  0  0
  4  7  1  0  0  0  0
  6 18  1  0  0  0  0
  6  3  2  0  0  0  0
  7  8  2  0  0  0  0
  8  5  1  0  0  0  0
  9 15  2  0  0  0  0
  9 18  1  0  0  0  0
 10  9  1  0  0  0  0
 12  5  2  0  0  0  0
 13  1  2  0  0  0  0
 13 14  1  0  0  0  0
 14  7  1  0  0  0  0
 15 17  1  0  0  0  0
 16 12  1  0  0  0  0
 17 19  1  0  0  0  0
 17 11  2  0  0  0  0
 18  2  2  0  0  0  0
 19 20  1  0  0  0  0
 20 21  1  0  0  0  0
 21 22  1  6  0  0  0
 21 23  1  0  0  0  0
 23 25  1  0  0  0  0
 23 24  1  0  0  0  0
 25 24  1  0  0  0  0
M  END
>  <MODEL>
3

>  <REMARK>
 VINA RESULT:      -7.4      2.512      5.931
  Name = 
  4 active torsions:
  status: ('A' for Active; 'I' for Inactive)
    1  A    between atoms: C_2  and  C_21
    2  A    between atoms: C_6  and  N_15
    3  A    between atoms: C_6  and  C_23
    4  A    between atoms: N_15  and  C_21
                            x       y       z     vdW  Elec       q    Type
                         _______ _______ _______ _____ _____    ______ ____

>  <TORSDO>
F 4

$$$$
=
 OpenBabel11052417293D

 25 29  0  0  1  0  0  0  0  0999 V2000
  185.7580  178.0430  143.7920 C   0  0  0  0  0  0  0  0  0  0  0  0
  186.5750  177.8900  144.9280 C   0  0  0  0  0  0  0  0  0  0  0  0
  183.9040  178.7090  145.2100 C   0  0  0  0  0  3  0  0  0  0  0  0
  186.0820  177.8380  142.4370 C   0  0  0  0  0  0  0  0  0  0  0  0
  186.3450  177.5410  139.6700 C   0  0  0  0  0  3  0  0  0  0  0  0
  184.7030  178.5590  146.3020 N   0  0  0  0  0  0  0  0  0  0  0  0
  185.0090  178.0910  141.5840 C   0  0  0  0  0  0  0  0  0  0  0  0
  185.1140  177.9500  140.2030 C   0  0  0  0  0  3  0  0  0  0  0  0
  186.8040  178.0190  147.3450 C   0  0  0  0  0  0  0  0  0  0  0  0
  186.2690  178.2890  148.6370 N   0  0  0  0  0  1  0  0  0  0  0  0
  187.9110  177.4840  144.8480 C   0  0  0  0  0  3  0  0  0  0  0  0
  187.4380  177.2830  140.5180 C   0  0  0  0  0  3  0  0  0  0  0  0
  184.4370  178.4500  143.9530 C   0  0  0  0  0  0  0  0  0  0  0  0
  183.6540  178.5650  142.4640 S   0  0  0  0  0  0  0  0  0  0  0  0
  188.1000  177.6240  147.2250 N   0  0  0  0  0  0  0  0  0  0  0  0
  187.3120  177.4300  141.9090 C   0  0  0  0  0  3  0  0  0  0  0  0
  188.6610  177.3500  146.0170 C   0  0  0  0  0  0  0  0  0  0  0  0
  186.0070  178.1620  146.1990 C   0  0  0  0  0  0  0  0  0  0  0  0
  190.0900  176.9460  145.9370 C   0  0  0  0  0  2  0  0  0  0  0  0
  190.4020  176.5180  144.5850 N   0  0  0  0  0  2  0  0  0  0  0  0
  190.8860  175.1500  144.6710 C   0  0  1  0  0  3  0  0  0  0  0  0
  191.5180  174.9220  146.0320 C   0  0  0  0  0  1  0  0  0  0  0  0
  189.7260  174.1880  144.4830 C   0  0  0  0  0  3  0  0  0  0  0  0
  190.0120  173.2770  143.3040 C   0  0  0  0  0  2  0  0  0  0  0  0
  189.0650  174.4480  143.1430 C   0  0  0  0  0  2  0  0  0  0  0  0
  1 13  1  0  0  0  0
  1  2  2  0  0  0  0
  2 18  1  0  0  0  0
  3  6  1  0  0  0  0
  4  1  1  0  0  0  0
  5  8  2  0  0  0  0
  5 12  1  0  0  0  0
  7  4  2  0  0  0  0
  7 14  1  0  0  0  0
  8  7  1  0  0  0  0
  9 10  1  0  0  0  0
 11  2  1  0  0  0  0
 11 17  2  0  0  0  0
 12 16  2  0  0  0  0
 13  3  2  0  0  0  0
 14 13  1  0  0  0  0
 15  9  2  0  0  0  0
 16  4  1  0  0  0  0
 17 15  1  0  0  0  0
 18  6  2  0  0  0  0
 18  9  1  0  0  0  0
 19 17  1  0  0  0  0
 20 21  1  0  0  0  0
 20 19  1  0  0  0  0
 21 22  1  1  0  0  0
 23 21  1  0  0  0  0
 24 23  1  0  0  0  0
 25 24  1  0  0  0  0
 25 23  1  0  0  0  0
M  END
>  <MODEL>
4

>  <REMARK>
 VINA RESULT:      -7.1      2.559      4.852
  Name = 
  4 active torsions:
  status: ('A' for Active; 'I' for Inactive)
    1  A    between atoms: C_2  and  C_21
    2  A    between atoms: C_6  and  N_15
    3  A    between atoms: C_6  and  C_23
    4  A    between atoms: N_15  and  C_21
                            x       y       z     vdW  Elec       q    Type
                         _______ _______ _______ _____ _____    ______ ____

>  <TORSDO>
F 4

$$$$
=
 OpenBabel11052417293D

 25 29  0  0  1  0  0  0  0  0999 V2000
  187.0730  177.7420  144.2600 C   0  0  0  0  0  0  0  0  0  0  0  0
  188.3910  177.4470  144.6570 C   0  0  0  0  0  0  0  0  0  0  0  0
  186.4150  177.9470  146.5880 C   0  0  0  0  0  3  0  0  0  0  0  0
  186.5420  177.8350  142.9600 C   0  0  0  0  0  0  0  0  0  0  0  0
  185.1380  178.1060  140.5590 C   0  0  0  0  0  3  0  0  0  0  0  0
  187.6930  177.6620  146.9610 N   0  0  0  0  0  0  0  0  0  0  0  0
  185.1840  178.1490  142.9560 C   0  0  0  0  0  0  0  0  0  0  0  0
  184.4620  178.2890  141.7730 C   0  0  0  0  0  3  0  0  0  0  0  0
  189.9850  177.1240  146.4640 C   0  0  0  0  0  0  0  0  0  0  0  0
  190.3110  177.0880  147.8500 N   0  0  0  0  0  1  0  0  0  0  0  0
  189.4150  177.1880  143.7400 C   0  0  0  0  0  3  0  0  0  0  0  0
  186.5090  177.7890  140.5470 C   0  0  0  0  0  3  0  0  0  0  0  0
  186.1080  177.9870  145.2330 C   0  0  0  0  0  0  0  0  0  0  0  0
  184.6110  178.3170  144.5300 S   0  0  0  0  0  0  0  0  0  0  0  0
  190.9540  176.8800  145.5410 N   0  0  0  0  0  0  0  0  0  0  0  0
  187.2200  177.6520  141.7500 C   0  0  0  0  0  3  0  0  0  0  0  0
  190.6990  176.8990  144.2060 C   0  0  0  0  0  0  0  0  0  0  0  0
  188.6780  177.4130  146.0460 C   0  0  0  0  0  0  0  0  0  0  0  0
  191.7990  176.6510  143.2360 C   0  0  0  0  0  2  0  0  0  0  0  0
  193.0630  177.0730  143.8130 N   0  0  0  0  0  2  0  0  0  0  0  0
  193.8860  175.8820  143.9570 C   0  0  1  0  0  3  0  0  0  0  0  0
  194.4230  175.4740  142.5970 C   0  0  0  0  0  1  0  0  0  0  0  0
  195.0440  176.1740  144.8930 C   0  0  0  0  0  3  0  0  0  0  0  0
  194.9260  175.3020  146.1280 C   0  0  0  0  0  2  0  0  0  0  0  0
  194.5130  176.7570  146.1880 C   0  0  0  0  0  2  0  0  0  0  0  0
  1  2  2  0  0  0  0
  1 13  1  0  0  0  0
  2 18  1  0  0  0  0
  3  6  1  0  0  0  0
  4  1  1  0  0  0  0
  5  8  1  0  0  0  0
  7  4  1  0  0  0  0
  7 14  1  0  0  0  0
  8  7  2  0  0  0  0
  9 10  1  0  0  0  0
 11 17  2  0  0  0  0
 11  2  1  0  0  0  0
 12  5  2  0  0  0  0
 12 16  1  0  0  0  0
 13  3  2  0  0  0  0
 14 13  1  0  0  0  0
 15  9  2  0  0  0  0
 16  4  2  0  0  0  0
 17 15  1  0  0  0  0
 18  9  1  0  0  0  0
 18  6  2  0  0  0  0
 19 20  1  0  0  0  0
 19 17  1  0  0  0  0
 20 21  1  0  0  0  0
 21 22  1  6  0  0  0
 21 23  1  0  0  0  0
 23 24  1  0  0  0  0
 23 25  1  0  0  0  0
 24 25  1  0  0  0  0
M  END
>  <MODEL>
5

>  <REMARK>
 VINA RESULT:      -7.0      2.179      3.951
  Name = 
  4 active torsions:
  status: ('A' for Active; 'I' for Inactive)
    1  A    between atoms: C_2  and  C_21
    2  A    between atoms: C_6  and  N_15
    3  A    between atoms: C_6  and  C_23
    4  A    between atoms: N_15  and  C_21
                            x       y       z     vdW  Elec       q    Type
                         _______ _______ _______ _____ _____    ______ ____

>  <TORSDO>
F 4

$$$$
=
 OpenBabel11052417293D

 25 29  0  0  1  0  0  0  0  0999 V2000
  186.7850  177.7200  144.7290 C   0  0  0  0  0  0  0  0  0  0  0  0
  188.1280  177.3210  144.8670 C   0  0  0  0  0  0  0  0  0  0  0  0
  186.5950  177.9310  147.1400 C   0  0  0  0  0  3  0  0  0  0  0  0
  186.0270  177.8740  143.5530 C   0  0  0  0  0  0  0  0  0  0  0  0
  184.2190  178.2910  141.4620 C   0  0  0  0  0  3  0  0  0  0  0  0
  187.8950  177.5460  147.2630 N   0  0  0  0  0  0  0  0  0  0  0  0
  184.7200  178.2870  143.8080 C   0  0  0  0  0  0  0  0  0  0  0  0
  183.8000  178.5010  142.7840 C   0  0  0  0  0  3  0  0  0  0  0  0
  190.0050  176.8510  146.3390 C   0  0  0  0  0  0  0  0  0  0  0  0
  190.5830  176.7660  147.6380 N   0  0  0  0  0  1  0  0  0  0  0  0
  188.9390  177.0050  143.7720 C   0  0  0  0  0  3  0  0  0  0  0  0
  185.5350  177.8740  141.1900 C   0  0  0  0  0  3  0  0  0  0  0  0
  186.0420  178.0170  145.8680 C   0  0  0  0  0  0  0  0  0  0  0  0
  184.4690  178.4680  145.4630 S   0  0  0  0  0  0  0  0  0  0  0  0
  190.7620  176.5530  145.2480 N   0  0  0  0  0  0  0  0  0  0  0  0
  186.4480  177.6640  142.2360 C   0  0  0  0  0  3  0  0  0  0  0  0
  190.2610  176.6140  143.9850 C   0  0  0  0  0  0  0  0  0  0  0  0
  188.6690  177.2420  146.1770 C   0  0  0  0  0  0  0  0  0  0  0  0
  191.1360  176.3040  142.8240 C   0  0  0  0  0  2  0  0  0  0  0  0
  191.6800  174.9640  142.9650 N   0  0  0  0  0  2  0  0  0  0  0  0
  190.6970  174.0440  142.4160 C   0  0  1  0  0  3  0  0  0  0  0  0
  191.0180  173.7760  140.9570 C   0  0  0  0  0  1  0  0  0  0  0  0
  190.7330  172.7390  143.1910 C   0  0  0  0  0  3  0  0  0  0  0  0
  189.3160  172.3040  143.5130 C   0  0  0  0  0  2  0  0  0  0  0  0
  190.1660  172.9600  144.5800 C   0  0  0  0  0  2  0  0  0  0  0  0
  1  2  2  0  0  0  0
  1 13  1  0  0  0  0
  2 18  1  0  0  0  0
  3  6  1  0  0  0  0
  4  7  1  0  0  0  0
  4  1  1  0  0  0  0
  5  8  1  0  0  0  0
  7 14  1  0  0  0  0
  8  7  2  0  0  0  0
  9 10  1  0  0  0  0
 11 17  2  0  0  0  0
 11  2  1  0  0  0  0
 12  5  2  0  0  0  0
 12 16  1  0  0  0  0
 13  3  2  0  0  0  0
 14 13  1  0  0  0  0
 15  9  2  0  0  0  0
 16  4  2  0  0  0  0
 17 15  1  0  0  0  0
 18  9  1  0  0  0  0
 18  6  2  0  0  0  0
 19 20  1  0  0  0  0
 19 17  1  0  0  0  0
 21 22  1  6  0  0  0
 21 20  1  0  0  0  0
 21 23  1  0  0  0  0
 23 24  1  0  0  0  0
 23 25  1  0  0  0  0
 24 25  1  0  0  0  0
M  END
>  <MODEL>
6

>  <REMARK>
 VINA RESULT:      -7.0      2.342      4.503
  Name = 
  4 active torsions:
  status: ('A' for Active; 'I' for Inactive)
    1  A    between atoms: C_2  and  C_21
    2  A    between atoms: C_6  and  N_15
    3  A    between atoms: C_6  and  C_23
    4  A    between atoms: N_15  and  C_21
                            x       y       z     vdW  Elec       q    Type
                         _______ _______ _______ _____ _____    ______ ____

>  <TORSDO>
F 4

$$$$
=
 OpenBabel11052417293D

 25 29  0  0  1  0  0  0  0  0999 V2000
  187.1880  176.8070  142.9340 C   0  0  0  0  0  0  0  0  0  0  0  0
  187.2680  176.9010  144.3360 C   0  0  0  0  0  0  0  0  0  0  0  0
  185.7610  178.7700  142.8790 C   0  0  0  0  0  3  0  0  0  0  0  0
  187.7830  175.8610  142.0770 C   0  0  0  0  0  0  0  0  0  0  0  0
  188.7870  174.1870  140.0760 C   0  0  0  0  0  3  0  0  0  0  0  0
  185.8460  178.8530  144.2360 N   0  0  0  0  0  0  0  0  0  0  0  0
  187.4790  176.0860  140.7350 C   0  0  0  0  0  0  0  0  0  0  0  0
  187.9660  175.2670  139.7200 C   0  0  0  0  0  3  0  0  0  0  0  0
  186.6380  178.0750  146.3700 C   0  0  0  0  0  0  0  0  0  0  0  0
  185.9560  179.1270  147.0440 N   0  0  0  0  0  1  0  0  0  0  0  0
  188.0030  175.9990  145.1130 C   0  0  0  0  0  3  0  0  0  0  0  0
  189.1030  173.9480  141.4260 C   0  0  0  0  0  3  0  0  0  0  0  0
  186.4360  177.7430  142.2300 C   0  0  0  0  0  0  0  0  0  0  0  0
  186.4840  177.4350  140.5730 S   0  0  0  0  0  0  0  0  0  0  0  0
  187.3650  177.1780  147.0900 N   0  0  0  0  0  0  0  0  0  0  0  0
  188.6020  174.7850  142.4360 C   0  0  0  0  0  3  0  0  0  0  0  0
  188.0340  176.1520  146.5000 C   0  0  0  0  0  0  0  0  0  0  0  0
  186.5710  177.9590  144.9740 C   0  0  0  0  0  0  0  0  0  0  0  0
  188.8360  175.2140  147.3290 C   0  0  0  0  0  2  0  0  0  0  0  0
  190.1440  175.0240  146.7270 N   0  0  0  0  0  2  0  0  0  0  0  0
  190.8420  176.2970  146.8130 C   0  0  1  0  0  3  0  0  0  0  0  0
  191.3870  176.4790  148.2180 C   0  0  0  0  0  1  0  0  0  0  0  0
  191.9890  176.3160  145.8180 C   0  0  0  0  0  3  0  0  0  0  0  0
  191.5630  177.0670  144.5710 C   0  0  0  0  0  2  0  0  0  0  0  0
  191.5880  175.5540  144.5700 C   0  0  0  0  0  2  0  0  0  0  0  0
  1  2  2  0  0  0  0
  2 18  1  0  0  0  0
  2 11  1  0  0  0  0
  3  6  1  0  0  0  0
  4 16  1  0  0  0  0
  4  1  1  0  0  0  0
  5 12  1  0  0  0  0
  6 18  2  0  0  0  0
  7  4  2  0  0  0  0
  8  5  2  0  0  0  0
  8  7  1  0  0  0  0
  9 10  1  0  0  0  0
  9 15  2  0  0  0  0
 11 17  2  0  0  0  0
 12 16  2  0  0  0  0
 13  3  2  0  0  0  0
 13  1  1  0  0  0  0
 14  7  1  0  0  0  0
 14 13  1  0  0  0  0
 17 15  1  0  0  0  0
 17 19  1  0  0  0  0
 18  9  1  0  0  0  0
 20 21  1  0  0  0  0
 20 19  1  0  0  0  0
 21 22  1  1  0  0  0
 23 21  1  0  0  0  0
 24 23  1  0  0  0  0
 25 24  1  0  0  0  0
 25 23  1  0  0  0  0
M  END
>  <MODEL>
7

>  <REMARK>
 VINA RESULT:      -6.8      2.459      4.518
  Name = 
  4 active torsions:
  status: ('A' for Active; 'I' for Inactive)
    1  A    between atoms: C_2  and  C_21
    2  A    between atoms: C_6  and  N_15
    3  A    between atoms: C_6  and  C_23
    4  A    between atoms: N_15  and  C_21
                            x       y       z     vdW  Elec       q    Type
                         _______ _______ _______ _____ _____    ______ ____

>  <TORSDO>
F 4

$$$$
=
 OpenBabel11052417293D

 25 29  0  0  1  0  0  0  0  0999 V2000
  188.3440  175.9000  143.3020 C   0  0  0  0  0  0  0  0  0  0  0  0
  187.3600  176.8440  142.9520 C   0  0  0  0  0  0  0  0  0  0  0  0
  188.4020  175.1030  141.0090 C   0  0  0  0  0  3  0  0  0  0  0  0
  188.9360  175.6660  144.5580 C   0  0  0  0  0  0  0  0  0  0  0  0
  190.3250  174.9150  146.8640 C   0  0  0  0  0  3  0  0  0  0  0  0
  187.4510  176.0210  140.6810 N   0  0  0  0  0  0  0  0  0  0  0  0
  189.8800  174.6410  144.5240 C   0  0  0  0  0  0  0  0  0  0  0  0
  190.5850  174.2480  145.6580 C   0  0  0  0  0  3  0  0  0  0  0  0
  185.9470  177.8170  141.2300 C   0  0  0  0  0  0  0  0  0  0  0  0
  185.4890  177.8880  139.8830 N   0  0  0  0  0  1  0  0  0  0  0  0
  186.8050  177.7340  143.8770 C   0  0  0  0  0  3  0  0  0  0  0  0
  189.3750  175.9510  146.9140 C   0  0  0  0  0  3  0  0  0  0  0  0
  188.8470  175.0450  142.3250 C   0  0  0  0  0  0  0  0  0  0  0  0
  190.0080  174.0060  142.9690 S   0  0  0  0  0  0  0  0  0  0  0  0
  185.4330  178.6680  142.1590 N   0  0  0  0  0  0  0  0  0  0  0  0
  188.6730  176.3330  145.7590 C   0  0  0  0  0  3  0  0  0  0  0  0
  185.8310  178.6420  143.4590 C   0  0  0  0  0  0  0  0  0  0  0  0
  186.9230  176.8820  141.6030 C   0  0  0  0  0  0  0  0  0  0  0  0
  185.2570  179.6100  144.4300 C   0  0  0  0  0  2  0  0  0  0  0  0
  184.1250  179.0080  145.1110 N   0  0  0  0  0  2  0  0  0  0  0  0
  184.5800  178.6180  146.4350 C   0  0  1  0  0  3  0  0  0  0  0  0
  184.6510  177.1040  146.5190 C   0  0  0  0  0  1  0  0  0  0  0  0
  185.9550  179.2050  146.6940 C   0  0  0  0  0  3  0  0  0  0  0  0
  186.5510  178.5670  147.9340 C   0  0  0  0  0  2  0  0  0  0  0  0
  185.9460  179.9530  148.0130 C   0  0  0  0  0  2  0  0  0  0  0  0
  1  4  1  0  0  0  0
  2  1  1  0  0  0  0
  2 11  1  0  0  0  0
  3 13  1  0  0  0  0
  4 16  1  0  0  0  0
  5 12  1  0  0  0  0
  6  3  2  0  0  0  0
  6 18  1  0  0  0  0
  7  4  2  0  0  0  0
  7  8  1  0  0  0  0
  8  5  2  0  0  0  0
  9 18  1  0  0  0  0
  9 15  2  0  0  0  0
 10  9  1  0  0  0  0
 13 14  1  0  0  0  0
 13  1  2  0  0  0  0
 14  7  1  0  0  0  0
 15 17  1  0  0  0  0
 16 12  2  0  0  0  0
 17 11  2  0  0  0  0
 17 19  1  0  0  0  0
 18  2  2  0  0  0  0
 19 20  1  0  0  0  0
 20 21  1  0  0  0  0
 21 22  1  6  0  0  0
 21 23  1  0  0  0  0
 23 24  1  0  0  0  0
 23 25  1  0  0  0  0
 24 25  1  0  0  0  0
M  END
>  <MODEL>
8

>  <REMARK>
 VINA RESULT:      -6.7      2.932      5.955
  Name = 
  4 active torsions:
  status: ('A' for Active; 'I' for Inactive)
    1  A    between atoms: C_2  and  C_21
    2  A    between atoms: C_6  and  N_15
    3  A    between atoms: C_6  and  C_23
    4  A    between atoms: N_15  and  C_21
                            x       y       z     vdW  Elec       q    Type
                         _______ _______ _______ _____ _____    ______ ____

>  <TORSDO>
F 4

$$$$
=
 OpenBabel11052417293D

 25 29  0  0  1  0  0  0  0  0999 V2000
  190.5380  175.2700  143.9380 C   0  0  0  0  0  0  0  0  0  0  0  0
  190.0860  175.8650  145.1300 C   0  0  0  0  0  0  0  0  0  0  0  0
  192.8270  175.4000  144.7350 C   0  0  0  0  0  3  0  0  0  0  0  0
  189.7880  174.8370  142.8280 C   0  0  0  0  0  0  0  0  0  0  0  0
  188.6530  173.8650  140.4650 C   0  0  0  0  0  3  0  0  0  0  0  0
  192.3790  175.9740  145.8860 N   0  0  0  0  0  0  0  0  0  0  0  0
  190.5840  174.2910  141.8220 C   0  0  0  0  0  0  0  0  0  0  0  0
  190.0440  173.8010  140.6360 C   0  0  0  0  0  3  0  0  0  0  0  0
  190.6240  176.8060  147.3060 C   0  0  0  0  0  0  0  0  0  0  0  0
  191.5650  177.1640  148.3140 N   0  0  0  0  0  1  0  0  0  0  0  0
  188.7340  176.1220  145.3810 C   0  0  0  0  0  3  0  0  0  0  0  0
  187.8360  174.4130  141.4720 C   0  0  0  0  0  3  0  0  0  0  0  0
  191.9010  175.0470  143.7610 C   0  0  0  0  0  0  0  0  0  0  0  0
  192.2080  174.3280  142.2670 S   0  0  0  0  0  0  0  0  0  0  0  0
  189.3000  177.0380  147.5130 N   0  0  0  0  0  0  0  0  0  0  0  0
  188.4010  174.9030  142.6610 C   0  0  0  0  0  3  0  0  0  0  0  0
  188.3590  176.7180  146.5850 C   0  0  0  0  0  0  0  0  0  0  0  0
  191.0520  176.2150  146.1090 C   0  0  0  0  0  0  0  0  0  0  0  0
  186.9210  176.9680  146.8700 C   0  0  0  0  0  2  0  0  0  0  0  0
  186.1430  176.7890  145.6560 N   0  0  0  0  0  2  0  0  0  0  0  0
  185.2780  177.9500  145.5280 C   0  0  1  0  0  3  0  0  0  0  0  0
  185.0360  178.5530  146.9010 C   0  0  0  0  0  1  0  0  0  0  0  0
  185.9380  178.9810  144.6310 C   0  0  0  0  0  3  0  0  0  0  0  0
  185.2100  179.0350  143.3020 C   0  0  0  0  0  2  0  0  0  0  0  0
  186.5240  178.2920  143.4140 C   0  0  0  0  0  2  0  0  0  0  0  0
  1  2  2  0  0  0  0
  2 11  1  0  0  0  0
  2 18  1  0  0  0  0
  3  6  1  0  0  0  0
  4  1  1  0  0  0  0
  5  8  2  0  0  0  0
  5 12  1  0  0  0  0
  6 18  2  0  0  0  0
  7 14  1  0  0  0  0
  7  4  2  0  0  0  0
  8  7  1  0  0  0  0
  9 15  2  0  0  0  0
  9 10  1  0  0  0  0
 11 17  2  0  0  0  0
 12 16  2  0  0  0  0
 13  1  1  0  0  0  0
 13  3  2  0  0  0  0
 14 13  1  0  0  0  0
 16  4  1  0  0  0  0
 17 19  1  0  0  0  0
 17 15  1  0  0  0  0
 18  9  1  0  0  0  0
 20 19  1  0  0  0  0
 21 20  1  0  0  0  0
 21 22  1  1  0  0  0
 23 21  1  0  0  0  0
 24 25  1  0  0  0  0
 24 23  1  0  0  0  0
 25 23  1  0  0  0  0
M  END
>  <MODEL>
9

>  <REMARK>
 VINA RESULT:      -6.7      2.616      6.551
  Name = 
  4 active torsions:
  status: ('A' for Active; 'I' for Inactive)
    1  A    between atoms: C_2  and  C_21
    2  A    between atoms: C_6  and  N_15
    3  A    between atoms: C_6  and  C_23
    4  A    between atoms: N_15  and  C_21
                            x       y       z     vdW  Elec       q    Type
                         _______ _______ _______ _____ _____    ______ ____

>  <TORSDO>
F 4

$$$$
