=
 OpenBabel11052418383D

 34 38  0  0  1  0  0  0  0  0999 V2000
  190.6030  173.0750  139.8820 C   0  0  0  0  0  0  0  0  0  0  0  0
  188.6720  174.3440  140.7200 C   0  0  0  0  0  0  0  0  0  0  0  0
  190.7450  173.9240  142.1720 C   0  0  0  0  0  0  0  0  0  0  0  0
  190.5890  174.9300  144.5920 C   0  0  2  0  0  0  0  0  0  0  0  0
  188.7710  173.9220  138.3750 C   0  0  0  0  0  3  0  0  0  0  0  0
  194.9210  175.1010  145.9030 C   0  0  0  0  0  3  0  0  0  0  0  0
  193.8620  174.1470  145.7760 N   0  0  0  0  0  0  0  0  0  0  0  0
  188.1970  174.5060  139.3820 N   0  0  0  0  0  0  0  0  0  0  0  0
  189.8780  176.2590  142.7200 C   0  0  0  0  0  2  0  0  0  0  0  0
  193.8670  172.5730  143.8880 C   0  0  0  0  0  2  0  0  0  0  0  0
  190.0300  173.7990  140.9460 C   0  0  0  0  0  0  0  0  0  0  0  0
  192.5440  174.5230  146.0910 N   0  0  0  0  0  2  0  0  0  0  0  0
  189.6730  176.0080  145.1310 C   0  0  0  0  0  2  0  0  0  0  0  0
  189.9090  172.9520  138.5520 C   0  0  0  0  0  2  0  0  0  0  0  0
  191.8890  173.1060  142.3440 C   0  0  0  0  0  0  0  0  0  0  0  0
  194.1440  172.7680  145.3740 C   0  0  0  0  0  2  0  0  0  0  0  0
  191.7570  172.3880  140.0710 N   0  0  0  0  0  0  0  0  0  0  0  0
  187.9030  174.6040  141.6820 O   0  0  0  0  0  0  0  0  0  0  0  0
  190.2030  173.6860  145.1020 O   0  0  0  0  0  1  0  0  0  0  0  0
  192.0310  175.3140  144.9730 C   0  0  0  0  0  2  0  0  0  0  0  0
  192.5030  172.9840  143.6200 N   0  0  0  0  0  2  0  0  0  0  0  0
  189.5570  177.0170  143.9980 C   0  0  2  0  0  3  0  0  0  0  0  0
  196.1130  174.7850  145.6430 O   0  0  0  0  0  0  0  0  0  0  0  0
  190.4100  174.9690  143.1360 N   0  0  0  0  0  0  0  0  0  0  0  0
  192.3890  172.3700  141.2680 C   0  0  0  0  0  3  0  0  0  0  0  0
  188.1860  177.6880  143.9470 C   0  0  0  0  0  2  0  0  0  0  0  0
  187.0530  176.7340  144.3060 C   0  0  0  0  0  2  0  0  0  0  0  0
  184.4920  177.8800  143.7690 F   0  0  0  0  0  0  0  0  0  0  0  0
  186.1940  177.3320  145.3670 C   0  0  0  0  0  0  0  0  0  0  0  0
  184.9460  177.8890  145.0470 C   0  0  0  0  0  0  0  0  0  0  0  0
  184.6140  178.4800  147.3740 C   0  0  0  0  0  3  0  0  0  0  0  0
  185.8590  177.9290  147.6920 C   0  0  0  0  0  3  0  0  0  0  0  0
  186.6480  177.3570  146.6900 C   0  0  0  0  0  3  0  0  0  0  0  0
  184.1590  178.4610  146.0520 C   0  0  0  0  0  3  0  0  0  0  0  0
  1 17  2  0  0  0  0
  1 11  1  0  0  0  0
  2 11  1  0  0  0  0
  2 18  2  0  0  0  0
  3 15  1  0  0  0  0
  3 24  1  0  0  0  0
  4 20  1  0  0  0  0
  4 19  1  1  0  0  0
  4 13  1  0  0  0  0
  5 14  1  0  0  0  0
  5  8  2  0  0  0  0
  7  6  1  0  0  0  0
  7 12  1  0  0  0  0
  8  2  1  0  0  0  0
  9 24  1  0  0  0  0
  9 22  1  0  0  0  0
 10 16  1  0  0  0  0
 11  3  2  0  0  0  0
 14  1  1  0  0  0  0
 15 21  1  0  0  0  0
 16  7  1  0  0  0  0
 17 25  1  0  0  0  0
 20 12  1  0  0  0  0
 21 10  1  0  0  0  0
 22 26  1  6  0  0  0
 22 13  1  0  0  0  0
 23  6  2  0  0  0  0
 24  4  1  0  0  0  0
 25 15  2  0  0  0  0
 26 27  1  0  0  0  0
 27 29  1  0  0  0  0
 28 30  1  0  0  0  0
 29 33  1  0  0  0  0
 30 29  2  0  0  0  0
 30 34  1  0  0  0  0
 31 32  1  0  0  0  0
 33 32  2  0  0  0  0
 34 31  2  0  0  0  0
M  END
>  <MODEL>
1

>  <REMARK>
 VINA RESULT:      -8.7      0.000      0.000
  Name = 
  3 active torsions:
  status: ('A' for Active; 'I' for Inactive)
    1  A    between atoms: C_3  and  C_13
    2  A    between atoms: C_3  and  C_17
    3  A    between atoms: C_17  and  C_29
                            x       y       z     vdW  Elec       q    Type
                         _______ _______ _______ _____ _____    ______ ____

>  <TORSDO>
F 3

$$$$
=
 OpenBabel11052418383D

 34 38  0  0  1  0  0  0  0  0999 V2000
  190.7040  172.8640  140.8090 C   0  0  0  0  0  0  0  0  0  0  0  0
  189.1470  173.8800  142.4170 C   0  0  0  0  0  0  0  0  0  0  0  0
  191.6870  174.1660  142.6320 C   0  0  0  0  0  0  0  0  0  0  0  0
  192.4400  175.5870  144.7070 C   0  0  2  0  0  0  0  0  0  0  0  0
  188.2250  173.0220  140.3900 C   0  0  0  0  0  3  0  0  0  0  0  0
  196.6470  176.8480  143.6030 C   0  0  0  0  0  3  0  0  0  0  0  0
  195.9540  175.7020  144.1080 N   0  0  0  0  0  0  0  0  0  0  0  0
  188.0680  173.6750  141.5010 N   0  0  0  0  0  0  0  0  0  0  0  0
  190.5970  176.3520  143.3660 C   0  0  0  0  0  2  0  0  0  0  0  0
  195.4810  173.8140  142.6090 C   0  0  0  0  0  2  0  0  0  0  0  0
  190.5380  173.6620  141.9570 C   0  0  0  0  0  0  0  0  0  0  0  0
  194.9000  175.8730  145.0220 N   0  0  0  0  0  2  0  0  0  0  0  0
  191.6410  176.5540  145.5540 C   0  0  0  0  0  2  0  0  0  0  0  0
  189.5220  172.3460  140.0340 C   0  0  0  0  0  2  0  0  0  0  0  0
  192.9460  173.6350  142.2570 C   0  0  0  0  0  0  0  0  0  0  0  0
  196.3680  174.3520  143.7250 C   0  0  0  0  0  2  0  0  0  0  0  0
  191.9450  172.4640  140.4330 N   0  0  0  0  0  0  0  0  0  0  0  0
  188.8910  174.1740  143.6130 O   0  0  0  0  0  0  0  0  0  0  0  0
  192.6920  174.4200  145.4360 O   0  0  0  0  0  1  0  0  0  0  0  0
  193.7270  176.3100  144.2670 C   0  0  0  0  0  2  0  0  0  0  0  0
  194.1000  173.8920  143.0450 N   0  0  0  0  0  2  0  0  0  0  0  0
  190.7340  177.2740  144.5670 C   0  0  2  0  0  3  0  0  0  0  0  0
  197.6060  176.7220  142.7960 O   0  0  0  0  0  0  0  0  0  0  0  0
  191.5860  175.2980  143.5490 N   0  0  0  0  0  0  0  0  0  0  0  0
  193.0490  172.8080  141.1360 C   0  0  0  0  0  3  0  0  0  0  0  0
  189.3830  177.6440  145.1730 C   0  0  0  0  0  2  0  0  0  0  0  0
  188.2580  177.6400  144.1450 C   0  0  0  0  0  2  0  0  0  0  0  0
  186.2610  179.5420  143.3990 F   0  0  0  0  0  0  0  0  0  0  0  0
  186.9370  177.7370  144.8270 C   0  0  0  0  0  0  0  0  0  0  0  0
  185.9930  178.6960  144.4250 C   0  0  0  0  0  0  0  0  0  0  0  0
  184.4740  177.9220  146.1480 C   0  0  0  0  0  3  0  0  0  0  0  0
  185.4160  176.9700  146.5510 C   0  0  0  0  0  3  0  0  0  0  0  0
  186.6450  176.8790  145.8920 C   0  0  0  0  0  3  0  0  0  0  0  0
  184.7640  178.7850  145.0870 C   0  0  0  0  0  3  0  0  0  0  0  0
  1 11  1  0  0  0  0
  2 18  2  0  0  0  0
  3 24  1  0  0  0  0
  4 19  1  1  0  0  0
  4 13  1  0  0  0  0
  5  8  2  0  0  0  0
  6  7  1  0  0  0  0
  7 12  1  0  0  0  0
  8  2  1  0  0  0  0
  9 24  1  0  0  0  0
  9 22  1  0  0  0  0
 10 21  1  0  0  0  0
 10 16  1  0  0  0  0
 11  2  1  0  0  0  0
 11  3  2  0  0  0  0
 14  5  1  0  0  0  0
 14  1  1  0  0  0  0
 15  3  1  0  0  0  0
 15 21  1  0  0  0  0
 16  7  1  0  0  0  0
 17  1  2  0  0  0  0
 17 25  1  0  0  0  0
 20  4  1  0  0  0  0
 20 12  1  0  0  0  0
 22 26  1  1  0  0  0
 22 13  1  0  0  0  0
 23  6  2  0  0  0  0
 24  4  1  0  0  0  0
 25 15  2  0  0  0  0
 27 29  1  0  0  0  0
 27 26  1  0  0  0  0
 28 30  1  0  0  0  0
 29 33  1  0  0  0  0
 30 29  2  0  0  0  0
 30 34  1  0  0  0  0
 31 32  1  0  0  0  0
 33 32  2  0  0  0  0
 34 31  2  0  0  0  0
M  END
>  <MODEL>
2

>  <REMARK>
 VINA RESULT:      -8.6      1.793      1.991
  Name = 
  3 active torsions:
  status: ('A' for Active; 'I' for Inactive)
    1  A    between atoms: C_3  and  C_13
    2  A    between atoms: C_3  and  C_17
    3  A    between atoms: C_17  and  C_29
                            x       y       z     vdW  Elec       q    Type
                         _______ _______ _______ _____ _____    ______ ____

>  <TORSDO>
F 3

$$$$
=
 OpenBabel11052418383D

 34 38  0  0  1  0  0  0  0  0999 V2000
  189.6370  173.1920  140.4440 C   0  0  0  0  0  0  0  0  0  0  0  0
  191.1760  173.3440  142.3540 C   0  0  0  0  0  0  0  0  0  0  0  0
  189.2070  174.9640  142.0740 C   0  0  0  0  0  0  0  0  0  0  0  0
  189.0230  176.7750  143.9660 C   0  0  2  0  0  0  0  0  0  0  0  0
  191.2740  171.3670  141.0230 C   0  0  0  0  0  3  0  0  0  0  0  0
  184.7260  178.1660  143.6270 C   0  0  0  0  0  3  0  0  0  0  0  0
  185.9860  178.3640  142.9770 N   0  0  0  0  0  0  0  0  0  0  0  0
  191.6520  172.0250  142.0760 N   0  0  0  0  0  0  0  0  0  0  0  0
  189.4720  174.4910  144.5670 C   0  0  0  0  0  2  0  0  0  0  0  0
  186.4290  177.2560  140.8290 C   0  0  0  0  0  2  0  0  0  0  0  0
  189.9790  173.8470  141.6430 C   0  0  0  0  0  0  0  0  0  0  0  0
  187.1630  178.4260  143.7440 N   0  0  0  0  0  2  0  0  0  0  0  0
  189.6340  176.7880  145.3510 C   0  0  0  0  0  2  0  0  0  0  0  0
  190.3940  171.9800  139.9670 C   0  0  0  0  0  2  0  0  0  0  0  0
  188.2840  175.5130  141.1500 C   0  0  0  0  0  0  0  0  0  0  0  0
  186.0560  178.5580  141.5290 C   0  0  0  0  0  2  0  0  0  0  0  0
  188.6730  173.7050  139.6390 N   0  0  0  0  0  0  0  0  0  0  0  0
  191.8230  174.0770  143.1470 O   0  0  0  0  0  0  0  0  0  0  0  0
  189.6730  177.7120  143.1560 O   0  0  0  0  0  1  0  0  0  0  0  0
  187.5170  177.0580  144.1210 C   0  0  0  0  0  2  0  0  0  0  0  0
  187.6670  176.7670  141.4060 N   0  0  0  0  0  2  0  0  0  0  0  0
  189.5520  175.3440  145.8220 C   0  0  2  0  0  3  0  0  0  0  0  0
  183.6550  178.1240  142.9650 O   0  0  0  0  0  0  0  0  0  0  0  0
  189.2450  175.4150  143.4630 N   0  0  0  0  0  0  0  0  0  0  0  0
  188.0170  174.8470  139.9520 C   0  0  0  0  0  3  0  0  0  0  0  0
  190.7250  174.9510  146.7170 C   0  0  0  0  0  2  0  0  0  0  0  0
  191.9030  175.9100  146.5950 C   0  0  0  0  0  2  0  0  0  0  0  0
  194.4970  177.1060  146.6170 F   0  0  0  0  0  0  0  0  0  0  0  0
  193.1450  175.1580  146.2590 C   0  0  0  0  0  0  0  0  0  0  0  0
  194.3950  175.7970  146.2780 C   0  0  0  0  0  0  0  0  0  0  0  0
  195.4600  173.7310  145.5890 C   0  0  0  0  0  3  0  0  0  0  0  0
  194.2150  173.0960  145.5660 C   0  0  0  0  0  3  0  0  0  0  0  0
  193.0590  173.8090  145.8990 C   0  0  0  0  0  3  0  0  0  0  0  0
  195.5490  175.0800  145.9440 C   0  0  0  0  0  3  0  0  0  0  0  0
  1 11  1  0  0  0  0
  2 18  2  0  0  0  0
  3 24  1  0  0  0  0
  4 19  1  6  0  0  0
  4 20  1  0  0  0  0
  4 13  1  0  0  0  0
  5  8  2  0  0  0  0
  7  6  1  0  0  0  0
  7 12  1  0  0  0  0
  8  2  1  0  0  0  0
  9 22  1  0  0  0  0
 10 21  1  0  0  0  0
 10 16  1  0  0  0  0
 11  3  2  0  0  0  0
 11  2  1  0  0  0  0
 12 20  1  0  0  0  0
 13 22  1  0  0  0  0
 14  1  1  0  0  0  0
 14  5  1  0  0  0  0
 15 21  1  0  0  0  0
 15  3  1  0  0  0  0
 16  7  1  0  0  0  0
 17 25  1  0  0  0  0
 17  1  2  0  0  0  0
 22 26  1  6  0  0  0
 23  6  2  0  0  0  0
 24  4  1  0  0  0  0
 24  9  1  0  0  0  0
 25 15  2  0  0  0  0
 27 26  1  0  0  0  0
 29 30  1  0  0  0  0
 29 27  1  0  0  0  0
 30 28  1  0  0  0  0
 31 34  1  0  0  0  0
 32 31  2  0  0  0  0
 32 33  1  0  0  0  0
 33 29  2  0  0  0  0
 34 30  2  0  0  0  0
M  END
>  <MODEL>
3

>  <REMARK>
 VINA RESULT:      -8.4      2.920      6.910
  Name = 
  3 active torsions:
  status: ('A' for Active; 'I' for Inactive)
    1  A    between atoms: C_3  and  C_13
    2  A    between atoms: C_3  and  C_17
    3  A    between atoms: C_17  and  C_29
                            x       y       z     vdW  Elec       q    Type
                         _______ _______ _______ _____ _____    ______ ____

>  <TORSDO>
F 3

$$$$
=
 OpenBabel11052418383D

 34 38  0  0  1  0  0  0  0  0999 V2000
  189.7390  174.1360  140.7800 C   0  0  0  0  0  0  0  0  0  0  0  0
  191.9120  174.1730  141.9310 C   0  0  0  0  0  0  0  0  0  0  0  0
  189.8400  175.3210  142.9180 C   0  0  0  0  0  0  0  0  0  0  0  0
  190.2690  176.5360  145.2060 C   0  0  2  0  0  0  0  0  0  0  0  0
  191.6590  172.6470  140.1150 C   0  0  0  0  0  3  0  0  0  0  0  0
  186.1020  176.9530  146.9310 C   0  0  0  0  0  3  0  0  0  0  0  0
  186.9420  177.5820  145.9580 N   0  0  0  0  0  0  0  0  0  0  0  0
  192.3690  173.1020  141.1010 N   0  0  0  0  0  0  0  0  0  0  0  0
  191.1780  174.3380  144.8550 C   0  0  0  0  0  2  0  0  0  0  0  0
  186.5620  177.1510  143.5680 C   0  0  0  0  0  2  0  0  0  0  0  0
  190.4780  174.5450  141.9070 C   0  0  0  0  0  0  0  0  0  0  0  0
  188.3180  177.7250  146.2130 N   0  0  0  0  0  2  0  0  0  0  0  0
  191.4000  176.3560  146.1960 C   0  0  0  0  0  2  0  0  0  0  0  0
  190.3550  173.2780  139.7070 C   0  0  0  0  0  2  0  0  0  0  0  0
  188.5600  175.8510  142.6210 C   0  0  0  0  0  0  0  0  0  0  0  0
  186.3760  178.1270  144.7240 C   0  0  0  0  0  2  0  0  0  0  0  0
  188.4770  174.5940  140.5920 N   0  0  0  0  0  0  0  0  0  0  0  0
  192.7450  174.8220  142.6140 O   0  0  0  0  0  0  0  0  0  0  0  0
  190.4110  177.7620  144.5470 O   0  0  0  0  0  1  0  0  0  0  0  0
  188.9460  176.4240  145.9870 C   0  0  0  0  0  2  0  0  0  0  0  0
  187.9740  176.8330  143.4630 N   0  0  0  0  0  2  0  0  0  0  0  0
  191.6840  174.8620  146.1900 C   0  0  2  0  0  3  0  0  0  0  0  0
  184.8640  176.8280  146.7340 O   0  0  0  0  0  0  0  0  0  0  0  0
  190.4080  175.4230  144.2600 N   0  0  0  0  0  0  0  0  0  0  0  0
  187.8900  175.4480  141.4640 C   0  0  0  0  0  3  0  0  0  0  0  0
  193.1590  174.5430  146.4180 C   0  0  0  0  0  2  0  0  0  0  0  0
  194.0740  175.7040  146.0450 C   0  0  0  0  0  2  0  0  0  0  0  0
  195.1730  176.5670  143.5530 F   0  0  0  0  0  0  0  0  0  0  0  0
  195.3650  175.1890  145.5060 C   0  0  0  0  0  0  0  0  0  0  0  0
  195.8560  175.6410  144.2710 C   0  0  0  0  0  0  0  0  0  0  0  0
  197.7760  174.1800  144.5010 C   0  0  0  0  0  3  0  0  0  0  0  0
  197.2840  173.7260  145.7290 C   0  0  0  0  0  3  0  0  0  0  0  0
  196.0800  174.2280  146.2290 C   0  0  0  0  0  3  0  0  0  0  0  0
  197.0610  175.1360  143.7730 C   0  0  0  0  0  3  0  0  0  0  0  0
  1 11  1  0  0  0  0
  2 18  2  0  0  0  0
  3 24  1  0  0  0  0
  4 19  1  6  0  0  0
  4 20  1  0  0  0  0
  4 13  1  0  0  0  0
  5  8  2  0  0  0  0
  7 12  1  0  0  0  0
  7  6  1  0  0  0  0
  8  2  1  0  0  0  0
  9 22  1  0  0  0  0
 10 16  1  0  0  0  0
 11  2  1  0  0  0  0
 11  3  2  0  0  0  0
 14  5  1  0  0  0  0
 14  1  1  0  0  0  0
 15  3  1  0  0  0  0
 15 21  1  0  0  0  0
 16  7  1  0  0  0  0
 17  1  2  0  0  0  0
 17 25  1  0  0  0  0
 20 12  1  0  0  0  0
 21 10  1  0  0  0  0
 22 13  1  0  0  0  0
 22 26  1  6  0  0  0
 23  6  2  0  0  0  0
 24  9  1  0  0  0  0
 24  4  1  0  0  0  0
 25 15  2  0  0  0  0
 27 26  1  0  0  0  0
 28 30  1  0  0  0  0
 29 27  1  0  0  0  0
 29 33  1  0  0  0  0
 30 29  2  0  0  0  0
 31 32  1  0  0  0  0
 32 33  2  0  0  0  0
 34 30  1  0  0  0  0
 34 31  2  0  0  0  0
M  END
>  <MODEL>
4

>  <REMARK>
 VINA RESULT:      -8.3      3.005      7.205
  Name = 
  3 active torsions:
  status: ('A' for Active; 'I' for Inactive)
    1  A    between atoms: C_3  and  C_13
    2  A    between atoms: C_3  and  C_17
    3  A    between atoms: C_17  and  C_29
                            x       y       z     vdW  Elec       q    Type
                         _______ _______ _______ _____ _____    ______ ____

>  <TORSDO>
F 3

$$$$
=
 OpenBabel11052418383D

 34 38  0  0  1  0  0  0  0  0999 V2000
  187.0410  176.7110  144.4350 C   0  0  0  0  0  0  0  0  0  0  0  0
  188.6830  176.3280  146.2250 C   0  0  0  0  0  0  0  0  0  0  0  0
  188.9490  175.2770  143.8990 C   0  0  0  0  0  0  0  0  0  0  0  0
  191.0780  173.7630  143.6380 C   0  0  2  0  0  0  0  0  0  0  0  0
  187.0920  178.0760  146.5520 C   0  0  0  0  0  3  0  0  0  0  0  0
  191.6290  173.5500  139.1480 C   0  0  0  0  0  3  0  0  0  0  0  0
  190.8190  172.9630  140.1720 N   0  0  0  0  0  0  0  0  0  0  0  0
  188.1520  177.4400  146.9500 N   0  0  0  0  0  0  0  0  0  0  0  0
  191.2770  175.8880  144.7440 C   0  0  0  0  0  2  0  0  0  0  0  0
  188.4950  173.7100  140.4570 C   0  0  0  0  0  2  0  0  0  0  0  0
  188.2490  176.1010  144.8270 C   0  0  0  0  0  0  0  0  0  0  0  0
  191.3880  172.6580  141.4210 N   0  0  0  0  0  2  0  0  0  0  0  0
  192.3350  173.7130  144.4800 C   0  0  0  0  0  2  0  0  0  0  0  0
  186.2870  177.6270  145.3620 C   0  0  0  0  0  2  0  0  0  0  0  0
  188.2700  174.9130  142.7100 C   0  0  0  0  0  0  0  0  0  0  0  0
  189.4190  172.6260  139.9140 C   0  0  0  0  0  2  0  0  0  0  0  0
  186.4810  176.4040  143.2390 N   0  0  0  0  0  0  0  0  0  0  0  0
  189.4550  175.5240  146.8090 O   0  0  0  0  0  0  0  0  0  0  0  0
  190.3110  172.6160  143.8690 O   0  0  0  0  0  1  0  0  0  0  0  0
  191.5100  173.9090  142.1670 C   0  0  0  0  0  2  0  0  0  0  0  0
  188.7920  173.8990  141.8630 N   0  0  0  0  0  2  0  0  0  0  0  0
  192.6090  175.1630  144.8500 C   0  0  2  0  0  3  0  0  0  0  0  0
  191.1480  173.8170  138.0150 O   0  0  0  0  0  0  0  0  0  0  0  0
  190.3620  174.9620  144.0900 N   0  0  0  0  0  0  0  0  0  0  0  0
  187.0500  175.5140  142.3920 C   0  0  0  0  0  3  0  0  0  0  0  0
  193.2410  175.3070  146.2320 C   0  0  0  0  0  2  0  0  0  0  0  0
  194.5550  176.0800  146.1990 C   0  0  0  0  0  2  0  0  0  0  0  0
  195.6630  176.7870  143.6630 F   0  0  0  0  0  0  0  0  0  0  0  0
  195.6090  175.2730  145.5220 C   0  0  0  0  0  0  0  0  0  0  0  0
  196.1140  175.6620  144.2710 C   0  0  0  0  0  0  0  0  0  0  0  0
  197.5650  173.7210  144.2550 C   0  0  0  0  0  3  0  0  0  0  0  0
  197.0600  173.3310  145.4990 C   0  0  0  0  0  3  0  0  0  0  0  0
  196.0820  174.1060  146.1300 C   0  0  0  0  0  3  0  0  0  0  0  0
  197.0920  174.8840  143.6420 C   0  0  0  0  0  3  0  0  0  0  0  0
  1 11  1  0  0  0  0
  1 14  1  0  0  0  0
  2 18  2  0  0  0  0
  2  8  1  0  0  0  0
  3 24  1  0  0  0  0
  3 11  2  0  0  0  0
  4 19  1  1  0  0  0
  4 24  1  0  0  0  0
  4 13  1  0  0  0  0
  5  8  2  0  0  0  0
  6  7  1  0  0  0  0
  7 12  1  0  0  0  0
  9 22  1  0  0  0  0
 10 21  1  0  0  0  0
 11  2  1  0  0  0  0
 12 20  1  0  0  0  0
 13 22  1  0  0  0  0
 14  5  1  0  0  0  0
 15  3  1  0  0  0  0
 16  7  1  0  0  0  0
 16 10  1  0  0  0  0
 17  1  2  0  0  0  0
 20  4  1  0  0  0  0
 21 15  1  0  0  0  0
 22 26  1  1  0  0  0
 23  6  2  0  0  0  0
 24  9  1  0  0  0  0
 25 15  2  0  0  0  0
 25 17  1  0  0  0  0
 27 26  1  0  0  0  0
 28 30  1  0  0  0  0
 29 33  1  0  0  0  0
 29 27  1  0  0  0  0
 30 29  2  0  0  0  0
 31 32  1  0  0  0  0
 32 33  2  0  0  0  0
 34 31  2  0  0  0  0
 34 30  1  0  0  0  0
M  END
>  <MODEL>
5

>  <REMARK>
 VINA RESULT:      -8.1      2.881      7.556
  Name = 
  3 active torsions:
  status: ('A' for Active; 'I' for Inactive)
    1  A    between atoms: C_3  and  C_13
    2  A    between atoms: C_3  and  C_17
    3  A    between atoms: C_17  and  C_29
                            x       y       z     vdW  Elec       q    Type
                         _______ _______ _______ _____ _____    ______ ____

>  <TORSDO>
F 3

$$$$
=
 OpenBabel11052418383D

 34 38  0  0  1  0  0  0  0  0999 V2000
  186.4130  177.8980  142.2820 C   0  0  0  0  0  0  0  0  0  0  0  0
  186.9300  177.3340  144.6180 C   0  0  0  0  0  0  0  0  0  0  0  0
  187.9800  176.0560  142.6570 C   0  0  0  0  0  0  0  0  0  0  0  0
  189.5940  174.1150  143.3750 C   0  0  2  0  0  0  0  0  0  0  0  0
  185.8030  179.3970  144.2120 C   0  0  0  0  0  3  0  0  0  0  0  0
  192.0590  173.4090  139.6420 C   0  0  0  0  0  3  0  0  0  0  0  0
  190.7640  173.0940  140.1630 N   0  0  0  0  0  0  0  0  0  0  0  0
  186.3940  178.5900  145.0400 N   0  0  0  0  0  0  0  0  0  0  0  0
  189.7410  176.2370  144.4930 C   0  0  0  0  0  2  0  0  0  0  0  0
  188.7990  174.3310  139.3600 C   0  0  0  0  0  2  0  0  0  0  0  0
  187.1400  177.0850  143.1740 C   0  0  0  0  0  0  0  0  0  0  0  0
  190.6190  172.7840  141.5270 N   0  0  0  0  0  2  0  0  0  0  0  0
  190.2850  173.8750  144.7000 C   0  0  0  0  0  2  0  0  0  0  0  0
  185.5480  179.0260  142.7760 C   0  0  0  0  0  2  0  0  0  0  0  0
  187.8520  175.7420  141.2810 C   0  0  0  0  0  0  0  0  0  0  0  0
  189.5980  173.0350  139.2820 C   0  0  0  0  0  2  0  0  0  0  0  0
  186.4040  177.6140  140.9560 N   0  0  0  0  0  0  0  0  0  0  0  0
  187.1510  176.4400  145.4760 O   0  0  0  0  0  0  0  0  0  0  0  0
  188.5700  173.1770  143.2020 O   0  0  0  0  0  1  0  0  0  0  0  0
  190.6670  174.0410  142.2730 C   0  0  0  0  0  2  0  0  0  0  0  0
  188.4590  174.5730  140.7490 N   0  0  0  0  0  2  0  0  0  0  0  0
  190.6790  175.2620  145.1850 C   0  0  2  0  0  3  0  0  0  0  0  0
  192.2190  173.6730  138.4200 O   0  0  0  0  0  0  0  0  0  0  0  0
  189.0410  175.4700  143.4710 N   0  0  0  0  0  0  0  0  0  0  0  0
  187.0790  176.5550  140.4490 C   0  0  0  0  0  3  0  0  0  0  0  0
  190.6290  175.3890  146.7060 C   0  0  0  0  0  2  0  0  0  0  0  0
  191.9250  174.9460  147.3750 C   0  0  0  0  0  2  0  0  0  0  0  0
  193.4600  173.1050  145.8210 F   0  0  0  0  0  0  0  0  0  0  0  0
  193.0960  175.3600  146.5510 C   0  0  0  0  0  0  0  0  0  0  0  0
  193.8210  174.4120  145.8110 C   0  0  0  0  0  0  0  0  0  0  0  0
  195.3140  176.1580  145.0380 C   0  0  0  0  0  3  0  0  0  0  0  0
  194.5940  177.1020  145.7780 C   0  0  0  0  0  3  0  0  0  0  0  0
  193.4890  176.7030  146.5340 C   0  0  0  0  0  3  0  0  0  0  0  0
  194.9270  174.8150  145.0560 C   0  0  0  0  0  3  0  0  0  0  0  0
  1 14  1  0  0  0  0
  1 11  1  0  0  0  0
  2  8  1  0  0  0  0
  2 18  2  0  0  0  0
  3 11  2  0  0  0  0
  3 24  1  0  0  0  0
  4 19  1  6  0  0  0
  4 24  1  0  0  0  0
  4 13  1  0  0  0  0
  5  8  2  0  0  0  0
  6  7  1  0  0  0  0
  7 12  1  0  0  0  0
  9 22  1  0  0  0  0
 10 21  1  0  0  0  0
 11  2  1  0  0  0  0
 12 20  1  0  0  0  0
 13 22  1  0  0  0  0
 14  5  1  0  0  0  0
 15  3  1  0  0  0  0
 16 10  1  0  0  0  0
 16  7  1  0  0  0  0
 17  1  2  0  0  0  0
 20  4  1  0  0  0  0
 21 15  1  0  0  0  0
 22 26  1  1  0  0  0
 23  6  2  0  0  0  0
 24  9  1  0  0  0  0
 25 17  1  0  0  0  0
 25 15  2  0  0  0  0
 26 27  1  0  0  0  0
 29 27  1  0  0  0  0
 30 28  1  0  0  0  0
 30 29  2  0  0  0  0
 31 34  2  0  0  0  0
 31 32  1  0  0  0  0
 32 33  2  0  0  0  0
 33 29  1  0  0  0  0
 34 30  1  0  0  0  0
M  END
>  <MODEL>
6

>  <REMARK>
 VINA RESULT:      -8.1      3.074      6.653
  Name = 
  3 active torsions:
  status: ('A' for Active; 'I' for Inactive)
    1  A    between atoms: C_3  and  C_13
    2  A    between atoms: C_3  and  C_17
    3  A    between atoms: C_17  and  C_29
                            x       y       z     vdW  Elec       q    Type
                         _______ _______ _______ _____ _____    ______ ____

>  <TORSDO>
F 3

$$$$
=
 OpenBabel11052418383D

 34 38  0  0  1  0  0  0  0  0999 V2000
  188.0010  175.1150  139.4440 C   0  0  0  0  0  0  0  0  0  0  0  0
  187.2340  176.3040  141.4540 C   0  0  0  0  0  0  0  0  0  0  0  0
  189.1290  174.5770  141.5470 C   0  0  0  0  0  0  0  0  0  0  0  0
  190.1210  174.1930  143.9470 C   0  0  2  0  0  0  0  0  0  0  0  0
  186.5010  177.1350  139.3420 C   0  0  0  0  0  3  0  0  0  0  0  0
  194.1480  172.3070  143.0930 C   0  0  0  0  0  3  0  0  0  0  0  0
  192.7670  171.9380  143.1460 N   0  0  0  0  0  0  0  0  0  0  0  0
  186.5710  177.2670  140.6320 N   0  0  0  0  0  0  0  0  0  0  0  0
  189.6950  176.4370  143.1990 C   0  0  0  0  0  2  0  0  0  0  0  0
  191.5100  171.6440  141.0540 C   0  0  0  0  0  2  0  0  0  0  0  0
  188.1550  175.3280  140.8280 C   0  0  0  0  0  0  0  0  0  0  0  0
  191.9360  172.4890  144.1380 N   0  0  0  0  0  2  0  0  0  0  0  0
  190.0270  175.0650  145.1810 C   0  0  0  0  0  2  0  0  0  0  0  0
  187.0180  175.9140  138.6310 C   0  0  0  0  0  2  0  0  0  0  0  0
  189.7250  173.4770  140.8810 C   0  0  0  0  0  0  0  0  0  0  0  0
  192.2210  170.9530  142.2120 C   0  0  0  0  0  2  0  0  0  0  0  0
  188.6730  174.1080  138.8320 N   0  0  0  0  0  0  0  0  0  0  0  0
  186.9710  176.2600  142.6840 O   0  0  0  0  0  0  0  0  0  0  0  0
  189.3220  173.0560  144.1130 O   0  0  0  0  0  1  0  0  0  0  0  0
  191.6070  173.8540  143.7300 C   0  0  0  0  0  2  0  0  0  0  0  0
  190.5060  172.5350  141.6030 N   0  0  0  0  0  2  0  0  0  0  0  0
  190.1310  176.4890  144.6540 C   0  0  2  0  0  3  0  0  0  0  0  0
  194.9180  171.8150  142.2250 O   0  0  0  0  0  0  0  0  0  0  0  0
  189.6130  175.0240  142.8500 N   0  0  0  0  0  0  0  0  0  0  0  0
  189.5010  173.2840  139.5160 C   0  0  0  0  0  3  0  0  0  0  0  0
  189.3060  177.4790  145.4730 C   0  0  0  0  0  2  0  0  0  0  0  0
  188.2110  176.8000  146.2860 C   0  0  0  0  0  2  0  0  0  0  0  0
  186.0380  176.4980  148.1160 F   0  0  0  0  0  0  0  0  0  0  0  0
  186.9310  177.5520  146.1560 C   0  0  0  0  0  0  0  0  0  0  0  0
  185.8910  177.3600  147.0790 C   0  0  0  0  0  0  0  0  0  0  0  0
  184.5230  178.9530  145.8690 C   0  0  0  0  0  3  0  0  0  0  0  0
  185.5570  179.1410  144.9460 C   0  0  0  0  0  3  0  0  0  0  0  0
  186.7580  178.4410  145.0890 C   0  0  0  0  0  3  0  0  0  0  0  0
  184.6910  178.0630  146.9330 C   0  0  0  0  0  3  0  0  0  0  0  0
  1 11  1  0  0  0  0
  2 18  2  0  0  0  0
  3 24  1  0  0  0  0
  4 19  1  1  0  0  0
  4 13  1  0  0  0  0
  5  8  2  0  0  0  0
  6  7  1  0  0  0  0
  7 12  1  0  0  0  0
  8  2  1  0  0  0  0
  9 22  1  0  0  0  0
 10 21  1  0  0  0  0
 10 16  1  0  0  0  0
 11  2  1  0  0  0  0
 11  3  2  0  0  0  0
 14  5  1  0  0  0  0
 14  1  1  0  0  0  0
 15  3  1  0  0  0  0
 15 21  1  0  0  0  0
 16  7  1  0  0  0  0
 17  1  2  0  0  0  0
 17 25  1  0  0  0  0
 20  4  1  0  0  0  0
 20 12  1  0  0  0  0
 22 13  1  0  0  0  0
 22 26  1  1  0  0  0
 23  6  2  0  0  0  0
 24  9  1  0  0  0  0
 24  4  1  0  0  0  0
 25 15  2  0  0  0  0
 26 27  1  0  0  0  0
 29 27  1  0  0  0  0
 29 30  1  0  0  0  0
 30 28  1  0  0  0  0
 31 34  1  0  0  0  0
 32 33  1  0  0  0  0
 32 31  2  0  0  0  0
 33 29  2  0  0  0  0
 34 30  2  0  0  0  0
M  END
>  <MODEL>
7

>  <REMARK>
 VINA RESULT:      -8.0      1.953      2.843
  Name = 
  3 active torsions:
  status: ('A' for Active; 'I' for Inactive)
    1  A    between atoms: C_3  and  C_13
    2  A    between atoms: C_3  and  C_17
    3  A    between atoms: C_17  and  C_29
                            x       y       z     vdW  Elec       q    Type
                         _______ _______ _______ _____ _____    ______ ____

>  <TORSDO>
F 3

$$$$
=
 OpenBabel11052418383D

 34 38  0  0  1  0  0  0  0  0999 V2000
  186.8770  177.1920  146.8820 C   0  0  0  0  0  0  0  0  0  0  0  0
  185.7620  178.7360  145.3280 C   0  0  0  0  0  0  0  0  0  0  0  0
  187.3670  176.9130  144.5020 C   0  0  0  0  0  0  0  0  0  0  0  0
  187.7180  176.8830  141.9010 C   0  0  2  0  0  0  0  0  0  0  0  0
  184.9530  178.6660  147.5710 C   0  0  0  0  0  3  0  0  0  0  0  0
  189.3370  172.7220  141.1420 C   0  0  0  0  0  3  0  0  0  0  0  0
  189.7910  173.9940  141.6120 N   0  0  0  0  0  0  0  0  0  0  0  0
  184.8330  179.0980  146.3520 N   0  0  0  0  0  0  0  0  0  0  0  0
  185.4960  177.1340  142.7830 C   0  0  0  0  0  2  0  0  0  0  0  0
  190.1390  174.3440  144.0190 C   0  0  0  0  0  2  0  0  0  0  0  0
  186.6710  177.5870  145.5460 C   0  0  0  0  0  0  0  0  0  0  0  0
  189.3060  175.1720  141.0150 N   0  0  0  0  0  2  0  0  0  0  0  0
  186.8680  177.4910  140.8060 C   0  0  0  0  0  2  0  0  0  0  0  0
  186.1310  177.8420  148.0170 C   0  0  0  0  0  2  0  0  0  0  0  0
  188.4190  176.0420  144.8790 C   0  0  0  0  0  0  0  0  0  0  0  0
  190.7980  174.0830  142.6700 C   0  0  0  0  0  2  0  0  0  0  0  0
  187.8310  176.2770  147.1810 N   0  0  0  0  0  0  0  0  0  0  0  0
  185.8380  179.4420  144.2890 O   0  0  0  0  0  0  0  0  0  0  0  0
  188.9040  177.6120  142.0350 O   0  0  0  0  0  1  0  0  0  0  0  0
  187.9590  175.4070  141.5340 C   0  0  0  0  0  2  0  0  0  0  0  0
  189.3190  175.5340  143.9030 N   0  0  0  0  0  2  0  0  0  0  0  0
  185.4340  177.2850  141.2710 C   0  0  2  0  0  3  0  0  0  0  0  0
  189.7690  171.6520  141.6480 O   0  0  0  0  0  0  0  0  0  0  0  0
  186.9070  176.9880  143.1190 N   0  0  0  0  0  0  0  0  0  0  0  0
  188.6100  175.7200  146.2240 C   0  0  0  0  0  3  0  0  0  0  0  0
  184.5080  178.4190  140.8390 C   0  0  0  0  0  2  0  0  0  0  0  0
  183.2520  177.9150  140.1380 C   0  0  0  0  0  2  0  0  0  0  0  0
  180.5930  177.4850  139.1860 F   0  0  0  0  0  0  0  0  0  0  0  0
  182.0400  178.2920  140.9200 C   0  0  0  0  0  0  0  0  0  0  0  0
  180.7550  178.0650  140.4010 C   0  0  0  0  0  0  0  0  0  0  0  0
  179.7800  179.0410  142.3940 C   0  0  0  0  0  3  0  0  0  0  0  0
  181.0600  179.2710  142.9080 C   0  0  0  0  0  3  0  0  0  0  0  0
  182.1870  178.8980  142.1720 C   0  0  0  0  0  3  0  0  0  0  0  0
  179.6290  178.4390  141.1410 C   0  0  0  0  0  3  0  0  0  0  0  0
  1 17  1  0  0  0  0
  1 14  1  0  0  0  0
  2 11  1  0  0  0  0
  2  8  1  0  0  0  0
  3 15  2  0  0  0  0
  3 11  1  0  0  0  0
  4 19  1  1  0  0  0
  4 24  1  0  0  0  0
  5 14  1  0  0  0  0
  6  7  1  0  0  0  0
  6 23  2  0  0  0  0
  7 16  1  0  0  0  0
  8  5  2  0  0  0  0
  9 24  1  0  0  0  0
 11  1  2  0  0  0  0
 12 20  1  0  0  0  0
 12  7  1  0  0  0  0
 13 22  1  0  0  0  0
 13  4  1  0  0  0  0
 15 25  1  0  0  0  0
 16 10  1  0  0  0  0
 18  2  2  0  0  0  0
 20  4  1  0  0  0  0
 21 10  1  0  0  0  0
 21 15  1  0  0  0  0
 22 26  1  1  0  0  0
 22  9  1  0  0  0  0
 24  3  1  0  0  0  0
 25 17  2  0  0  0  0
 27 26  1  0  0  0  0
 27 29  1  0  0  0  0
 28 30  1  0  0  0  0
 29 33  1  0  0  0  0
 30 29  2  0  0  0  0
 30 34  1  0  0  0  0
 31 32  1  0  0  0  0
 33 32  2  0  0  0  0
 34 31  2  0  0  0  0
M  END
>  <MODEL>
8

>  <REMARK>
 VINA RESULT:      -7.9      3.726      6.625
  Name = 
  3 active torsions:
  status: ('A' for Active; 'I' for Inactive)
    1  A    between atoms: C_3  and  C_13
    2  A    between atoms: C_3  and  C_17
    3  A    between atoms: C_17  and  C_29
                            x       y       z     vdW  Elec       q    Type
                         _______ _______ _______ _____ _____    ______ ____

>  <TORSDO>
F 3

$$$$
=
 OpenBabel11052418383D

 34 38  0  0  1  0  0  0  0  0999 V2000
  191.9430  175.5020  146.6040 C   0  0  0  0  0  0  0  0  0  0  0  0
  190.2070  176.9390  145.6230 C   0  0  0  0  0  0  0  0  0  0  0  0
  191.0690  174.8470  144.4150 C   0  0  0  0  0  0  0  0  0  0  0  0
  189.9640  174.4220  142.0720 C   0  0  2  0  0  0  0  0  0  0  0  0
  190.7300  177.2690  147.9270 C   0  0  0  0  0  3  0  0  0  0  0  0
  190.8160  170.0370  141.3270 C   0  0  0  0  0  3  0  0  0  0  0  0
  191.4840  171.3000  141.2530 N   0  0  0  0  0  0  0  0  0  0  0  0
  189.9840  177.5420  146.9000 N   0  0  0  0  0  0  0  0  0  0  0  0
  188.5730  175.0470  143.9300 C   0  0  0  0  0  2  0  0  0  0  0  0
  193.0810  171.9320  143.0110 C   0  0  0  0  0  2  0  0  0  0  0  0
  191.0610  175.7330  145.5310 C   0  0  0  0  0  0  0  0  0  0  0  0
  190.7840  172.4340  140.8030 N   0  0  0  0  0  2  0  0  0  0  0  0
  188.6740  174.9700  141.5000 C   0  0  0  0  0  2  0  0  0  0  0  0
  191.9420  176.3830  147.8250 C   0  0  0  0  0  2  0  0  0  0  0  0
  192.1370  173.9190  144.3290 C   0  0  0  0  0  0  0  0  0  0  0  0
  192.9040  171.4150  141.5880 C   0  0  0  0  0  2  0  0  0  0  0  0
  192.8860  174.5320  146.5130 N   0  0  0  0  0  0  0  0  0  0  0  0
  189.7290  177.4830  144.5940 O   0  0  0  0  0  0  0  0  0  0  0  0
  191.0550  175.0200  141.4310 O   0  0  0  0  0  1  0  0  0  0  0  0
  189.9340  172.8920  141.9010 C   0  0  0  0  0  2  0  0  0  0  0  0
  192.3570  173.1820  143.1350 N   0  0  0  0  0  2  0  0  0  0  0  0
  187.7120  174.9970  142.6780 C   0  0  2  0  0  3  0  0  0  0  0  0
  191.4260  169.0030  141.7100 O   0  0  0  0  0  0  0  0  0  0  0  0
  189.9390  174.7860  143.4930 N   0  0  0  0  0  0  0  0  0  0  0  0
  193.0140  173.7630  145.4050 C   0  0  0  0  0  3  0  0  0  0  0  0
  186.7270  176.1620  142.6050 C   0  0  0  0  0  2  0  0  0  0  0  0
  187.1750  177.3620  143.4300 C   0  0  0  0  0  2  0  0  0  0  0  0
  185.6210  179.7580  143.3910 F   0  0  0  0  0  0  0  0  0  0  0  0
  186.1540  177.6830  144.4670 C   0  0  0  0  0  0  0  0  0  0  0  0
  185.4220  178.8800  144.4050 C   0  0  0  0  0  0  0  0  0  0  0  0
  184.2660  178.2780  146.4480 C   0  0  0  0  0  3  0  0  0  0  0  0
  184.9970  177.0880  146.5130 C   0  0  0  0  0  3  0  0  0  0  0  0
  185.9400  176.7920  145.5250 C   0  0  0  0  0  3  0  0  0  0  0  0
  184.4790  179.1730  145.3950 C   0  0  0  0  0  3  0  0  0  0  0  0
  1 14  1  0  0  0  0
  2  8  1  0  0  0  0
  3 11  1  0  0  0  0
  4 19  1  6  0  0  0
  4 24  1  0  0  0  0
  6 23  2  0  0  0  0
  7  6  1  0  0  0  0
  7 16  1  0  0  0  0
  8  5  2  0  0  0  0
 10 21  1  0  0  0  0
 11  2  1  0  0  0  0
 11  1  2  0  0  0  0
 12  7  1  0  0  0  0
 12 20  1  0  0  0  0
 13  4  1  0  0  0  0
 13 22  1  0  0  0  0
 14  5  1  0  0  0  0
 15  3  2  0  0  0  0
 15 25  1  0  0  0  0
 16 10  1  0  0  0  0
 17  1  1  0  0  0  0
 18  2  2  0  0  0  0
 20  4  1  0  0  0  0
 21 15  1  0  0  0  0
 22 26  1  6  0  0  0
 22  9  1  0  0  0  0
 24  9  1  0  0  0  0
 24  3  1  0  0  0  0
 25 17  2  0  0  0  0
 26 27  1  0  0  0  0
 27 29  1  0  0  0  0
 28 30  1  0  0  0  0
 29 33  1  0  0  0  0
 30 29  2  0  0  0  0
 30 34  1  0  0  0  0
 31 32  1  0  0  0  0
 33 32  2  0  0  0  0
 34 31  2  0  0  0  0
M  END
>  <MODEL>
9

>  <REMARK>
 VINA RESULT:      -7.9      2.140      4.864
  Name = 
  3 active torsions:
  status: ('A' for Active; 'I' for Inactive)
    1  A    between atoms: C_3  and  C_13
    2  A    between atoms: C_3  and  C_17
    3  A    between atoms: C_17  and  C_29
                            x       y       z     vdW  Elec       q    Type
                         _______ _______ _______ _____ _____    ______ ____

>  <TORSDO>
F 3

$$$$
