=
 OpenBabel11052417253D

 25 27  0  0  1  0  0  0  0  0999 V2000
  187.9300  176.1520  146.2900 C   0  0  0  0  0  0  0  0  0  0  0  0
  188.4990  176.0920  144.9930 C   0  0  0  0  0  0  0  0  0  0  0  0
  189.5010  174.4610  147.0490 C   0  0  0  0  0  3  0  0  0  0  0  0
  190.0490  174.3850  145.7720 C   0  0  0  0  0  3  0  0  0  0  0  0
  190.2360  175.1190  143.3800 C   0  0  1  0  0  3  0  0  0  0  0  0
  190.4260  173.6870  142.9070 C   0  0  0  0  0  1  0  0  0  0  0  0
  187.9780  176.9820  143.8920 C   0  0  0  0  0  2  0  0  0  0  0  0
  188.4470  175.3340  147.3040 C   0  0  0  0  0  3  0  0  0  0  0  0
  189.5030  175.8960  142.2880 C   0  0  0  0  0  2  0  0  0  0  0  0
  189.0270  177.2370  142.8220 C   0  0  1  0  0  3  0  0  0  0  0  0
  189.5450  175.1710  144.7280 C   0  0  0  0  0  0  0  0  0  0  0  0
  186.7950  177.0490  146.6200 C   0  0  0  0  0  0  0  0  0  0  0  0
  184.6120  178.6920  147.2750 C   0  0  0  0  0  3  0  0  0  0  0  0
  186.9740  178.1760  147.4470 C   0  0  0  0  0  0  0  0  0  0  0  0
  185.8840  178.9920  147.7660 C   0  0  0  0  0  3  0  0  0  0  0  0
  184.4250  177.5730  146.4610 C   0  0  0  0  0  3  0  0  0  0  0  0
  188.2000  178.5010  147.9270 F   0  0  0  0  0  0  0  0  0  0  0  0
  185.5100  176.7550  146.1380 C   0  0  0  0  0  3  0  0  0  0  0  0
  188.4100  178.0580  141.7050 C   0  0  0  0  0  2  0  0  0  0  0  0
  186.9760  178.4270  142.0500 C   0  0  0  0  0  2  0  0  0  0  0  0
  186.0030  177.5890  141.2370 C   0  0  2  0  0  3  0  0  0  0  0  0
  186.4160  177.5540  139.7740 C   0  0  0  0  0  1  0  0  0  0  0  0
  184.6170  178.1300  141.3670 C   0  0  0  0  0  0  0  0  0  0  0  0
  183.9960  178.1340  142.6080 O   0  0  0  0  0  1  0  0  0  0  0  0
  184.0060  178.5840  140.3620 O   0  0  0  0  0  0  0  0  0  0  0  0
  1 12  1  0  0  0  0
  1  8  1  0  0  0  0
  2  1  2  0  0  0  0
  3  8  2  0  0  0  0
  4  3  1  0  0  0  0
  5  6  1  6  0  0  0
  5 11  1  0  0  0  0
  7  2  1  0  0  0  0
  9 10  1  0  0  0  0
  9  5  1  0  0  0  0
 10 19  1  6  0  0  0
 10  7  1  0  0  0  0
 11  2  1  0  0  0  0
 11  4  2  0  0  0  0
 12 14  1  0  0  0  0
 13 15  1  0  0  0  0
 14 15  2  0  0  0  0
 14 17  1  0  0  0  0
 16 13  2  0  0  0  0
 18 16  1  0  0  0  0
 18 12  2  0  0  0  0
 19 20  1  0  0  0  0
 21 22  1  6  0  0  0
 21 23  1  0  0  0  0
 21 20  1  0  0  0  0
 23 24  1  0  0  0  0
 25 23  2  0  0  0  0
M  END
>  <MODEL>
1

>  <REMARK>
 VINA RESULT:      -8.1      0.000      0.000
  Name = 
  5 active torsions:
  status: ('A' for Active; 'I' for Inactive)
    1  A    between atoms: C_1  and  C_5
    2  A    between atoms: C_2  and  C_21
    3  A    between atoms: C_6  and  C_15
    4  A    between atoms: C_6  and  C_23
    5  A    between atoms: C_15  and  C_21
                            x       y       z     vdW  Elec       q    Type
                         _______ _______ _______ _____ _____    ______ ____

>  <TORSDO>
F 5

$$$$
=
 OpenBabel11052417253D

 25 27  0  0  1  0  0  0  0  0999 V2000
  187.3820  176.9590  146.2180 C   0  0  0  0  0  0  0  0  0  0  0  0
  186.8780  176.9860  144.8920 C   0  0  0  0  0  0  0  0  0  0  0  0
  185.3070  177.9390  147.0180 C   0  0  0  0  0  3  0  0  0  0  0  0
  184.8170  177.9840  145.7160 C   0  0  0  0  0  3  0  0  0  0  0  0
  184.9820  177.5230  143.2540 C   0  0  1  0  0  3  0  0  0  0  0  0
  184.3440  178.8590  142.9140 C   0  0  0  0  0  1  0  0  0  0  0  0
  187.7100  176.4550  143.7520 C   0  0  0  0  0  2  0  0  0  0  0  0
  186.5800  177.4350  147.2640 C   0  0  0  0  0  3  0  0  0  0  0  0
  185.9750  177.1670  142.1510 C   0  0  0  0  0  2  0  0  0  0  0  0
  186.8510  176.0010  142.5830 C   0  0  1  0  0  3  0  0  0  0  0  0
  185.5960  177.5380  144.6410 C   0  0  0  0  0  0  0  0  0  0  0  0
  188.7370  176.4510  146.5430 C   0  0  0  0  0  0  0  0  0  0  0  0
  191.2880  175.4260  147.1260 C   0  0  0  0  0  3  0  0  0  0  0  0
  189.8930  177.1270  146.1070 C   0  0  0  0  0  0  0  0  0  0  0  0
  191.1600  176.6150  146.4030 C   0  0  0  0  0  3  0  0  0  0  0  0
  190.1460  174.7450  147.5550 C   0  0  0  0  0  3  0  0  0  0  0  0
  189.8020  178.2910  145.4170 F   0  0  0  0  0  0  0  0  0  0  0  0
  188.8790  175.2540  147.2640 C   0  0  0  0  0  3  0  0  0  0  0  0
  187.7510  175.5680  141.4410 C   0  0  0  0  0  2  0  0  0  0  0  0
  189.1630  175.3170  141.9470 C   0  0  0  0  0  2  0  0  0  0  0  0
  189.5190  173.8450  141.8150 C   0  0  2  0  0  3  0  0  0  0  0  0
  188.5620  173.1430  140.8650 C   0  0  0  0  0  1  0  0  0  0  0  0
  189.4930  173.1830  143.1540 C   0  0  0  0  0  0  0  0  0  0  0  0
  188.9420  171.9160  143.2810 O   0  0  0  0  0  0  0  0  0  0  0  0
  189.9670  173.7640  144.1680 O   0  0  0  0  0  1  0  0  0  0  0  0
  1 12  1  0  0  0  0
  1  8  1  0  0  0  0
  2  1  2  0  0  0  0
  3  8  2  0  0  0  0
  4  3  1  0  0  0  0
  5  6  1  6  0  0  0
  5 11  1  0  0  0  0
  7  2  1  0  0  0  0
  9 10  1  0  0  0  0
  9  5  1  0  0  0  0
 10 19  1  6  0  0  0
 10  7  1  0  0  0  0
 11  2  1  0  0  0  0
 11  4  2  0  0  0  0
 12 18  1  0  0  0  0
 13 16  1  0  0  0  0
 14 15  1  0  0  0  0
 14 12  2  0  0  0  0
 15 13  2  0  0  0  0
 17 14  1  0  0  0  0
 18 16  2  0  0  0  0
 19 20  1  0  0  0  0
 21 22  1  6  0  0  0
 21 20  1  0  0  0  0
 21 23  1  0  0  0  0
 23 24  2  0  0  0  0
 23 25  1  0  0  0  0
M  END
>  <MODEL>
2

>  <REMARK>
 VINA RESULT:      -7.6      2.739      5.117
  Name = 
  5 active torsions:
  status: ('A' for Active; 'I' for Inactive)
    1  A    between atoms: C_1  and  C_5
    2  A    between atoms: C_2  and  C_21
    3  A    between atoms: C_6  and  C_15
    4  A    between atoms: C_6  and  C_23
    5  A    between atoms: C_15  and  C_21
                            x       y       z     vdW  Elec       q    Type
                         _______ _______ _______ _____ _____    ______ ____

>  <TORSDO>
F 5

$$$$
=
 OpenBabel11052417253D

 25 27  0  0  1  0  0  0  0  0999 V2000
  187.6790  176.8930  146.2810 C   0  0  0  0  0  0  0  0  0  0  0  0
  187.0910  176.8830  144.9910 C   0  0  0  0  0  0  0  0  0  0  0  0
  185.5990  177.7350  147.2140 C   0  0  0  0  0  3  0  0  0  0  0  0
  185.0250  177.7450  145.9460 C   0  0  0  0  0  3  0  0  0  0  0  0
  185.0630  177.2900  143.4780 C   0  0  1  0  0  3  0  0  0  0  0  0
  184.3180  178.5800  143.1820 C   0  0  0  0  0  1  0  0  0  0  0  0
  187.8830  176.4060  143.7990 C   0  0  0  0  0  2  0  0  0  0  0  0
  186.9170  177.3170  147.3780 C   0  0  0  0  0  3  0  0  0  0  0  0
  186.0060  176.9970  142.3130 C   0  0  0  0  0  2  0  0  0  0  0  0
  186.9830  175.8930  142.6860 C   0  0  1  0  0  3  0  0  0  0  0  0
  185.7620  177.3490  144.8220 C   0  0  0  0  0  0  0  0  0  0  0  0
  189.0830  176.4760  146.5190 C   0  0  0  0  0  0  0  0  0  0  0  0
  191.7540  175.7490  147.0020 C   0  0  0  0  0  3  0  0  0  0  0  0
  189.3830  175.3310  147.2830 C   0  0  0  0  0  0  0  0  0  0  0  0
  190.7140  174.9710  147.5160 C   0  0  0  0  0  3  0  0  0  0  0  0
  191.4650  176.8910  146.2510 C   0  0  0  0  0  3  0  0  0  0  0  0
  188.3950  174.5470  147.7820 F   0  0  0  0  0  0  0  0  0  0  0  0
  190.1380  177.2530  146.0130 C   0  0  0  0  0  3  0  0  0  0  0  0
  187.8350  175.5180  141.4880 C   0  0  0  0  0  2  0  0  0  0  0  0
  189.2600  175.2180  141.9270 C   0  0  0  0  0  2  0  0  0  0  0  0
  189.5410  173.7280  141.8280 C   0  0  2  0  0  3  0  0  0  0  0  0
  188.4990  173.0400  140.9610 C   0  0  0  0  0  1  0  0  0  0  0  0
  189.5650  173.1130  143.1890 C   0  0  0  0  0  0  0  0  0  0  0  0
  189.0040  171.8590  143.3850 O   0  0  0  0  0  0  0  0  0  0  0  0
  190.0910  173.7210  144.1600 O   0  0  0  0  0  1  0  0  0  0  0  0
  1 12  1  0  0  0  0
  1  8  1  0  0  0  0
  2  1  2  0  0  0  0
  3  8  2  0  0  0  0
  4  3  1  0  0  0  0
  5  6  1  6  0  0  0
  5 11  1  0  0  0  0
  7  2  1  0  0  0  0
  9 10  1  0  0  0  0
  9  5  1  0  0  0  0
 10 19  1  6  0  0  0
 10  7  1  0  0  0  0
 11  2  1  0  0  0  0
 11  4  2  0  0  0  0
 12 14  1  0  0  0  0
 13 15  1  0  0  0  0
 14 15  2  0  0  0  0
 14 17  1  0  0  0  0
 16 13  2  0  0  0  0
 18 16  1  0  0  0  0
 18 12  2  0  0  0  0
 19 20  1  0  0  0  0
 21 22  1  6  0  0  0
 21 20  1  0  0  0  0
 21 23  1  0  0  0  0
 23 24  2  0  0  0  0
 23 25  1  0  0  0  0
M  END
>  <MODEL>
3

>  <REMARK>
 VINA RESULT:      -7.6      2.839      5.213
  Name = 
  5 active torsions:
  status: ('A' for Active; 'I' for Inactive)
    1  A    between atoms: C_1  and  C_5
    2  A    between atoms: C_2  and  C_21
    3  A    between atoms: C_6  and  C_15
    4  A    between atoms: C_6  and  C_23
    5  A    between atoms: C_15  and  C_21
                            x       y       z     vdW  Elec       q    Type
                         _______ _______ _______ _____ _____    ______ ____

>  <TORSDO>
F 5

$$$$
=
 OpenBabel11052417253D

 25 27  0  0  1  0  0  0  0  0999 V2000
  187.4990  176.6000  146.2830 C   0  0  0  0  0  0  0  0  0  0  0  0
  186.9150  176.8260  145.0110 C   0  0  0  0  0  0  0  0  0  0  0  0
  185.4320  177.3080  147.3480 C   0  0  0  0  0  3  0  0  0  0  0  0
  184.8630  177.5490  146.1010 C   0  0  0  0  0  3  0  0  0  0  0  0
  184.9010  177.5280  143.5920 C   0  0  1  0  0  3  0  0  0  0  0  0
  184.1810  178.8650  143.5240 C   0  0  0  0  0  1  0  0  0  0  0  0
  187.7020  176.5480  143.7540 C   0  0  0  0  0  2  0  0  0  0  0  0
  186.7410  176.8410  147.4370 C   0  0  0  0  0  3  0  0  0  0  0  0
  185.8420  177.4240  142.3940 C   0  0  0  0  0  2  0  0  0  0  0  0
  186.7960  176.2530  142.5690 C   0  0  1  0  0  3  0  0  0  0  0  0
  185.5960  177.3390  144.9260 C   0  0  0  0  0  0  0  0  0  0  0  0
  188.8930  176.1210  146.4450 C   0  0  0  0  0  0  0  0  0  0  0  0
  191.5390  175.2030  146.6810 C   0  0  0  0  0  3  0  0  0  0  0  0
  189.8860  176.9460  147.0100 C   0  0  0  0  0  0  0  0  0  0  0  0
  191.2000  176.4830  147.1290 C   0  0  0  0  0  3  0  0  0  0  0  0
  190.5630  174.3830  146.1130 C   0  0  0  0  0  3  0  0  0  0  0  0
  189.5850  178.1860  147.4680 F   0  0  0  0  0  0  0  0  0  0  0  0
  189.2490  174.8400  145.9930 C   0  0  0  0  0  3  0  0  0  0  0  0
  187.6450  176.0760  141.3250 C   0  0  0  0  0  2  0  0  0  0  0  0
  188.8040  175.1340  141.6060 C   0  0  0  0  0  2  0  0  0  0  0  0
  188.3640  173.6880  141.4440 C   0  0  2  0  0  3  0  0  0  0  0  0
  188.9460  172.8220  142.5490 C   0  0  0  0  0  1  0  0  0  0  0  0
  188.7800  173.1650  140.1080 C   0  0  0  0  0  0  0  0  0  0  0  0
  190.0900  173.3330  139.6840 O   0  0  0  0  0  1  0  0  0  0  0  0
  187.9530  172.5730  139.3630 O   0  0  0  0  0  0  0  0  0  0  0  0
  1 12  1  0  0  0  0
  1  8  1  0  0  0  0
  2  1  2  0  0  0  0
  3  8  2  0  0  0  0
  4  3  1  0  0  0  0
  5  6  1  1  0  0  0
  5 11  1  0  0  0  0
  7  2  1  0  0  0  0
  9 10  1  0  0  0  0
  9  5  1  0  0  0  0
 10 19  1  6  0  0  0
 10  7  1  0  0  0  0
 11  2  1  0  0  0  0
 11  4  2  0  0  0  0
 12 14  1  0  0  0  0
 13 15  1  0  0  0  0
 14 15  2  0  0  0  0
 14 17  1  0  0  0  0
 16 13  2  0  0  0  0
 18 16  1  0  0  0  0
 18 12  2  0  0  0  0
 19 20  1  0  0  0  0
 21 20  1  0  0  0  0
 21 22  1  1  0  0  0
 23 21  1  0  0  0  0
 24 23  1  0  0  0  0
 25 23  2  0  0  0  0
M  END
>  <MODEL>
4

>  <REMARK>
 VINA RESULT:      -7.5      2.738      5.034
  Name = 
  5 active torsions:
  status: ('A' for Active; 'I' for Inactive)
    1  A    between atoms: C_1  and  C_5
    2  A    between atoms: C_2  and  C_21
    3  A    between atoms: C_6  and  C_15
    4  A    between atoms: C_6  and  C_23
    5  A    between atoms: C_15  and  C_21
                            x       y       z     vdW  Elec       q    Type
                         _______ _______ _______ _____ _____    ______ ____

>  <TORSDO>
F 5

$$$$
=
 OpenBabel11052417253D

 25 27  0  0  1  0  0  0  0  0999 V2000
  187.5770  176.3120  142.1010 C   0  0  0  0  0  0  0  0  0  0  0  0
  187.2230  176.9850  143.2990 C   0  0  0  0  0  0  0  0  0  0  0  0
  186.2330  177.8880  140.8300 C   0  0  0  0  0  3  0  0  0  0  0  0
  185.8680  178.5380  142.0050 C   0  0  0  0  0  3  0  0  0  0  0  0
  185.9790  178.8830  144.4880 C   0  0  1  0  0  3  0  0  0  0  0  0
  184.4890  179.1700  144.5620 C   0  0  0  0  0  1  0  0  0  0  0  0
  187.7700  176.5150  144.6240 C   0  0  0  0  0  2  0  0  0  0  0  0
  187.0760  176.7820  140.8790 C   0  0  0  0  0  3  0  0  0  0  0  0
  186.4070  178.2070  145.7890 C   0  0  0  0  0  2  0  0  0  0  0  0
  187.8090  177.6350  145.6520 C   0  0  1  0  0  3  0  0  0  0  0  0
  186.3310  178.0860  143.2470 C   0  0  0  0  0  0  0  0  0  0  0  0
  188.4570  175.1190  142.0890 C   0  0  0  0  0  0  0  0  0  0  0  0
  190.0990  172.8400  142.0030 C   0  0  0  0  0  3  0  0  0  0  0  0
  189.8580  175.2460  142.1680 C   0  0  0  0  0  0  0  0  0  0  0  0
  190.6700  174.1090  142.1290 C   0  0  0  0  0  3  0  0  0  0  0  0
  188.7120  172.7060  141.9160 C   0  0  0  0  0  3  0  0  0  0  0  0
  190.4410  176.4630  142.3070 F   0  0  0  0  0  0  0  0  0  0  0  0
  187.8960  173.8390  141.9570 C   0  0  0  0  0  3  0  0  0  0  0  0
  188.2790  177.0740  146.9810 C   0  0  0  0  0  2  0  0  0  0  0  0
  188.3760  175.5580  146.9110 C   0  0  0  0  0  2  0  0  0  0  0  0
  189.8020  175.1060  147.1810 C   0  0  2  0  0  3  0  0  0  0  0  0
  190.6850  176.2920  147.5330 C   0  0  0  0  0  1  0  0  0  0  0  0
  190.3530  174.3890  145.9930 C   0  0  0  0  0  0  0  0  0  0  0  0
  191.5720  174.7810  145.4600 O   0  0  0  0  0  0  0  0  0  0  0  0
  189.7220  173.4300  145.4700 O   0  0  0  0  0  1  0  0  0  0  0  0
  1  2  1  0  0  0  0
  2  7  1  0  0  0  0
  3  8  1  0  0  0  0
  3  4  2  0  0  0  0
  4 11  1  0  0  0  0
  5  6  1  1  0  0  0
  5  9  1  0  0  0  0
  7 10  1  0  0  0  0
  8  1  2  0  0  0  0
 10  9  1  0  0  0  0
 10 19  1  1  0  0  0
 11  2  2  0  0  0  0
 11  5  1  0  0  0  0
 12  1  1  0  0  0  0
 12 14  1  0  0  0  0
 13 15  1  0  0  0  0
 14 17  1  0  0  0  0
 15 14  2  0  0  0  0
 16 18  1  0  0  0  0
 16 13  2  0  0  0  0
 18 12  2  0  0  0  0
 20 19  1  0  0  0  0
 20 21  1  0  0  0  0
 21 22  1  6  0  0  0
 23 21  1  0  0  0  0
 24 23  2  0  0  0  0
 25 23  1  0  0  0  0
M  END
>  <MODEL>
5

>  <REMARK>
 VINA RESULT:      -7.4      3.062      6.768
  Name = 
  5 active torsions:
  status: ('A' for Active; 'I' for Inactive)
    1  A    between atoms: C_1  and  C_5
    2  A    between atoms: C_2  and  C_21
    3  A    between atoms: C_6  and  C_15
    4  A    between atoms: C_6  and  C_23
    5  A    between atoms: C_15  and  C_21
                            x       y       z     vdW  Elec       q    Type
                         _______ _______ _______ _____ _____    ______ ____

>  <TORSDO>
F 5

$$$$
=
 OpenBabel11052417253D

 25 27  0  0  1  0  0  0  0  0999 V2000
  187.4170  177.2660  142.1180 C   0  0  0  0  0  0  0  0  0  0  0  0
  186.2000  177.7810  142.6320 C   0  0  0  0  0  0  0  0  0  0  0  0
  186.5690  177.5390  139.8570 C   0  0  0  0  0  3  0  0  0  0  0  0
  185.3660  178.0270  140.3580 C   0  0  0  0  0  3  0  0  0  0  0  0
  183.8630  178.7530  142.2320 C   0  0  1  0  0  3  0  0  0  0  0  0
  182.6510  178.1240  141.5660 C   0  0  0  0  0  1  0  0  0  0  0  0
  186.0070  177.9320  144.1200 C   0  0  0  0  0  2  0  0  0  0  0  0
  187.5840  177.1580  140.7310 C   0  0  0  0  0  3  0  0  0  0  0  0
  183.6830  178.6660  143.7460 C   0  0  0  0  0  2  0  0  0  0  0  0
  184.9840  179.0070  144.4550 C   0  0  1  0  0  3  0  0  0  0  0  0
  185.1550  178.1300  141.7390 C   0  0  0  0  0  0  0  0  0  0  0  0
  188.5290  176.8260  142.9970 C   0  0  0  0  0  0  0  0  0  0  0  0
  190.6070  176.0350  144.7140 C   0  0  0  0  0  3  0  0  0  0  0  0
  188.7160  175.4650  143.3090 C   0  0  0  0  0  0  0  0  0  0  0  0
  189.7550  175.0770  144.1600 C   0  0  0  0  0  3  0  0  0  0  0  0
  190.4230  177.3870  144.4160 C   0  0  0  0  0  3  0  0  0  0  0  0
  187.9150  174.5110  142.7740 F   0  0  0  0  0  0  0  0  0  0  0  0
  189.3880  177.7800  143.5650 C   0  0  0  0  0  3  0  0  0  0  0  0
  184.7710  179.0410  145.9560 C   0  0  0  0  0  2  0  0  0  0  0  0
  185.0930  177.6870  146.5670 C   0  0  0  0  0  2  0  0  0  0  0  0
  186.1620  177.8290  147.6380 C   0  0  2  0  0  3  0  0  0  0  0  0
  186.3860  179.2930  147.9830 C   0  0  0  0  0  1  0  0  0  0  0  0
  187.4410  177.2070  147.1810 C   0  0  0  0  0  0  0  0  0  0  0  0
  188.6260  177.9210  147.2850 O   0  0  0  0  0  1  0  0  0  0  0  0
  187.4540  176.0400  146.7030 O   0  0  0  0  0  0  0  0  0  0  0  0
  1  2  1  0  0  0  0
  1 12  1  0  0  0  0
  2  7  1  0  0  0  0
  3  4  2  0  0  0  0
  3  8  1  0  0  0  0
  4 11  1  0  0  0  0
  5  6  1  6  0  0  0
  5  9  1  0  0  0  0
  7 10  1  0  0  0  0
  8  1  2  0  0  0  0
  9 10  1  0  0  0  0
 10 19  1  1  0  0  0
 11  5  1  0  0  0  0
 11  2  2  0  0  0  0
 12 14  2  0  0  0  0
 12 18  1  0  0  0  0
 14 15  1  0  0  0  0
 15 13  2  0  0  0  0
 16 13  1  0  0  0  0
 17 14  1  0  0  0  0
 18 16  2  0  0  0  0
 19 20  1  0  0  0  0
 20 21  1  0  0  0  0
 21 22  1  6  0  0  0
 23 24  1  0  0  0  0
 23 21  1  0  0  0  0
 25 23  2  0  0  0  0
M  END
>  <MODEL>
6

>  <REMARK>
 VINA RESULT:      -7.4      2.646      6.368
  Name = 
  5 active torsions:
  status: ('A' for Active; 'I' for Inactive)
    1  A    between atoms: C_1  and  C_5
    2  A    between atoms: C_2  and  C_21
    3  A    between atoms: C_6  and  C_15
    4  A    between atoms: C_6  and  C_23
    5  A    between atoms: C_15  and  C_21
                            x       y       z     vdW  Elec       q    Type
                         _______ _______ _______ _____ _____    ______ ____

>  <TORSDO>
F 5

$$$$
=
 OpenBabel11052417253D

 25 27  0  0  1  0  0  0  0  0999 V2000
  187.3070  176.9070  146.3990 C   0  0  0  0  0  0  0  0  0  0  0  0
  186.9430  176.8750  145.0290 C   0  0  0  0  0  0  0  0  0  0  0  0
  185.1690  177.9290  146.9360 C   0  0  0  0  0  3  0  0  0  0  0  0
  184.8150  177.9160  145.5900 C   0  0  0  0  0  3  0  0  0  0  0  0
  185.2290  177.3440  143.1820 C   0  0  1  0  0  3  0  0  0  0  0  0
  184.6400  178.6650  142.7180 C   0  0  0  0  0  1  0  0  0  0  0  0
  187.8840  176.2910  144.0050 C   0  0  0  0  0  2  0  0  0  0  0  0
  186.4060  177.4320  147.3350 C   0  0  0  0  0  3  0  0  0  0  0  0
  186.3280  176.9340  142.2040 C   0  0  0  0  0  2  0  0  0  0  0  0
  187.1450  175.7860  142.7750 C   0  0  1  0  0  3  0  0  0  0  0  0
  185.6980  177.4190  144.6220 C   0  0  0  0  0  0  0  0  0  0  0  0
  188.6170  176.4090  146.8850 C   0  0  0  0  0  0  0  0  0  0  0  0
  191.1060  175.4300  147.7450 C   0  0  0  0  0  3  0  0  0  0  0  0
  189.6660  177.2990  147.1930 C   0  0  0  0  0  0  0  0  0  0  0  0
  190.9010  176.8060  147.6250 C   0  0  0  0  0  3  0  0  0  0  0  0
  190.0750  174.5410  147.4330 C   0  0  0  0  0  3  0  0  0  0  0  0
  189.4910  178.6410  147.1020 F   0  0  0  0  0  0  0  0  0  0  0  0
  188.8390  175.0280  147.0040 C   0  0  0  0  0  3  0  0  0  0  0  0
  188.1550  175.2990  141.7530 C   0  0  0  0  0  2  0  0  0  0  0  0
  189.2620  174.5130  142.4360 C   0  0  0  0  0  2  0  0  0  0  0  0
  190.6180  174.9140  141.8800 C   0  0  2  0  0  3  0  0  0  0  0  0
  191.3160  173.7190  141.2500 C   0  0  0  0  0  1  0  0  0  0  0  0
  191.4700  175.4970  142.9600 C   0  0  0  0  0  0  0  0  0  0  0  0
  192.5180  176.3430  142.6250 O   0  0  0  0  0  0  0  0  0  0  0  0
  191.2460  175.2280  144.1710 O   0  0  0  0  0  1  0  0  0  0  0  0
  1 12  1  0  0  0  0
  1  8  1  0  0  0  0
  2  1  2  0  0  0  0
  3  8  2  0  0  0  0
  4  3  1  0  0  0  0
  5  6  1  6  0  0  0
  5 11  1  0  0  0  0
  7  2  1  0  0  0  0
  9 10  1  0  0  0  0
  9  5  1  0  0  0  0
 10 19  1  6  0  0  0
 10  7  1  0  0  0  0
 11  2  1  0  0  0  0
 11  4  2  0  0  0  0
 12 18  2  0  0  0  0
 12 14  1  0  0  0  0
 14 15  2  0  0  0  0
 15 13  1  0  0  0  0
 16 13  2  0  0  0  0
 17 14  1  0  0  0  0
 18 16  1  0  0  0  0
 19 20  1  0  0  0  0
 21 22  1  1  0  0  0
 21 20  1  0  0  0  0
 21 23  1  0  0  0  0
 23 25  1  0  0  0  0
 24 23  2  0  0  0  0
M  END
>  <MODEL>
7

>  <REMARK>
 VINA RESULT:      -7.2      2.775      5.183
  Name = 
  5 active torsions:
  status: ('A' for Active; 'I' for Inactive)
    1  A    between atoms: C_1  and  C_5
    2  A    between atoms: C_2  and  C_21
    3  A    between atoms: C_6  and  C_15
    4  A    between atoms: C_6  and  C_23
    5  A    between atoms: C_15  and  C_21
                            x       y       z     vdW  Elec       q    Type
                         _______ _______ _______ _____ _____    ______ ____

>  <TORSDO>
F 5

$$$$
=
 OpenBabel11052417253D

 25 27  0  0  1  0  0  0  0  0999 V2000
  187.8590  177.2220  143.0640 C   0  0  0  0  0  0  0  0  0  0  0  0
  187.3680  177.1810  144.3940 C   0  0  0  0  0  0  0  0  0  0  0  0
  186.2640  178.9790  142.5390 C   0  0  0  0  0  3  0  0  0  0  0  0
  185.7670  178.9270  143.8380 C   0  0  0  0  0  3  0  0  0  0  0  0
  185.7740  178.0660  146.1950 C   0  0  1  0  0  3  0  0  0  0  0  0
  184.2560  178.0450  146.2410 C   0  0  0  0  0  1  0  0  0  0  0  0
  187.9730  176.2320  145.3980 C   0  0  0  0  0  2  0  0  0  0  0  0
  187.2990  178.1300  142.1560 C   0  0  0  0  0  3  0  0  0  0  0  0
  186.3000  176.9310  147.0700 C   0  0  0  0  0  2  0  0  0  0  0  0
  187.7870  176.7200  146.8270 C   0  0  1  0  0  3  0  0  0  0  0  0
  186.2870  178.0190  144.7690 C   0  0  0  0  0  0  0  0  0  0  0  0
  188.9470  176.3320  142.5900 C   0  0  0  0  0  0  0  0  0  0  0  0
  191.0310  174.6410  141.7590 C   0  0  0  0  0  3  0  0  0  0  0  0
  188.6610  175.1200  141.9320 C   0  0  0  0  0  0  0  0  0  0  0  0
  189.7020  174.2840  141.5170 C   0  0  0  0  0  3  0  0  0  0  0  0
  191.3230  175.8370  142.4180 C   0  0  0  0  0  3  0  0  0  0  0  0
  187.3820  174.7540  141.6690 F   0  0  0  0  0  0  0  0  0  0  0  0
  190.2870  176.6760  142.8330 C   0  0  0  0  0  3  0  0  0  0  0  0
  188.3330  175.6780  147.7840 C   0  0  0  0  0  2  0  0  0  0  0  0
  189.3980  174.8370  147.0990 C   0  0  0  0  0  2  0  0  0  0  0  0
  190.7850  175.2820  147.5320 C   0  0  2  0  0  3  0  0  0  0  0  0
  190.8250  176.7870  147.7430 C   0  0  0  0  0  1  0  0  0  0  0  0
  191.8010  174.8780  146.5150 C   0  0  0  0  0  0  0  0  0  0  0  0
  191.4090  174.1350  145.4110 O   0  0  0  0  0  0  0  0  0  0  0  0
  193.0120  175.2060  146.6490 O   0  0  0  0  0  1  0  0  0  0  0  0
  1  2  1  0  0  0  0
  2 11  2  0  0  0  0
  2  7  1  0  0  0  0
  3  4  2  0  0  0  0
  4 11  1  0  0  0  0
  5  6  1  6  0  0  0
  5  9  1  0  0  0  0
  7 10  1  0  0  0  0
  8  3  1  0  0  0  0
  8  1  2  0  0  0  0
 10  9  1  0  0  0  0
 10 19  1  1  0  0  0
 11  5  1  0  0  0  0
 12 18  1  0  0  0  0
 12  1  1  0  0  0  0
 13 16  1  0  0  0  0
 14 12  2  0  0  0  0
 15 13  2  0  0  0  0
 15 14  1  0  0  0  0
 16 18  2  0  0  0  0
 17 14  1  0  0  0  0
 20 21  1  0  0  0  0
 20 19  1  0  0  0  0
 21 22  1  6  0  0  0
 23 25  1  0  0  0  0
 23 21  1  0  0  0  0
 24 23  2  0  0  0  0
M  END
>  <MODEL>
8

>  <REMARK>
 VINA RESULT:      -7.0      3.349      7.050
  Name = 
  5 active torsions:
  status: ('A' for Active; 'I' for Inactive)
    1  A    between atoms: C_1  and  C_5
    2  A    between atoms: C_2  and  C_21
    3  A    between atoms: C_6  and  C_15
    4  A    between atoms: C_6  and  C_23
    5  A    between atoms: C_15  and  C_21
                            x       y       z     vdW  Elec       q    Type
                         _______ _______ _______ _____ _____    ______ ____

>  <TORSDO>
F 5

$$$$
=
 OpenBabel11052417253D

 25 27  0  0  1  0  0  0  0  0999 V2000
  188.4210  177.2530  146.3480 C   0  0  0  0  0  0  0  0  0  0  0  0
  189.0150  176.3720  145.4100 C   0  0  0  0  0  0  0  0  0  0  0  0
  190.4810  177.2550  147.6380 C   0  0  0  0  0  3  0  0  0  0  0  0
  191.0600  176.3740  146.7280 C   0  0  0  0  0  3  0  0  0  0  0  0
  191.0410  175.0190  144.6160 C   0  0  1  0  0  3  0  0  0  0  0  0
  191.7640  173.8670  145.2940 C   0  0  0  0  0  1  0  0  0  0  0  0
  188.2370  175.9130  144.2010 C   0  0  0  0  0  2  0  0  0  0  0  0
  189.1710  177.6860  147.4500 C   0  0  0  0  0  3  0  0  0  0  0  0
  190.1090  174.4460  143.5510 C   0  0  0  0  0  2  0  0  0  0  0  0
  189.1520  175.5170  143.0530 C   0  0  1  0  0  3  0  0  0  0  0  0
  190.3350  175.9030  145.6260 C   0  0  0  0  0  0  0  0  0  0  0  0
  187.0240  177.7350  146.2140 C   0  0  0  0  0  0  0  0  0  0  0  0
  184.3780  178.6240  145.8930 C   0  0  0  0  0  3  0  0  0  0  0  0
  186.0010  177.2440  147.0490 C   0  0  0  0  0  0  0  0  0  0  0  0
  184.6870  177.6930  146.8870 C   0  0  0  0  0  3  0  0  0  0  0  0
  185.3850  179.1100  145.0560 C   0  0  0  0  0  3  0  0  0  0  0  0
  186.2720  176.3510  148.0330 F   0  0  0  0  0  0  0  0  0  0  0  0
  186.7000  178.6660  145.2150 C   0  0  0  0  0  3  0  0  0  0  0  0
  188.3120  174.9800  141.9090 C   0  0  0  0  0  2  0  0  0  0  0  0
  187.0820  175.8500  141.7030 C   0  0  0  0  0  2  0  0  0  0  0  0
  187.4260  177.0590  140.8480 C   0  0  2  0  0  3  0  0  0  0  0  0
  187.5890  178.2990  141.7120 C   0  0  0  0  0  1  0  0  0  0  0  0
  186.3670  177.2840  139.8190 C   0  0  0  0  0  0  0  0  0  0  0  0
  186.5440  176.7910  138.5340 O   0  0  0  0  0  0  0  0  0  0  0  0
  185.3150  177.9170  140.1060 O   0  0  0  0  0  1  0  0  0  0  0  0
  1  8  1  0  0  0  0
  2 11  1  0  0  0  0
  2  1  2  0  0  0  0
  4  3  1  0  0  0  0
  5  6  1  1  0  0  0
  5 11  1  0  0  0  0
  7  2  1  0  0  0  0
  8  3  2  0  0  0  0
  9  5  1  0  0  0  0
 10 19  1  6  0  0  0
 10  9  1  0  0  0  0
 10  7  1  0  0  0  0
 11  4  2  0  0  0  0
 12  1  1  0  0  0  0
 12 14  1  0  0  0  0
 13 15  1  0  0  0  0
 14 17  1  0  0  0  0
 15 14  2  0  0  0  0
 16 18  1  0  0  0  0
 16 13  2  0  0  0  0
 18 12  2  0  0  0  0
 20 19  1  0  0  0  0
 21 20  1  0  0  0  0
 21 22  1  1  0  0  0
 23 25  1  0  0  0  0
 23 21  1  0  0  0  0
 24 23  2  0  0  0  0
M  END
>  <MODEL>
9

>  <REMARK>
 VINA RESULT:      -7.0      1.755      2.271
  Name = 
  5 active torsions:
  status: ('A' for Active; 'I' for Inactive)
    1  A    between atoms: C_1  and  C_5
    2  A    between atoms: C_2  and  C_21
    3  A    between atoms: C_6  and  C_15
    4  A    between atoms: C_6  and  C_23
    5  A    between atoms: C_15  and  C_21
                            x       y       z     vdW  Elec       q    Type
                         _______ _______ _______ _____ _____    ______ ____

>  <TORSDO>
F 5

$$$$
