=
 OpenBabel11052418023D

 28 32  0  0  1  0  0  0  0  0999 V2000
  189.1550  176.9020  143.0890 N   0  0  0  0  0  0  0  0  0  0  0  0
  190.3760  176.1270  142.8810 C   0  0  1  0  0  3  0  0  0  0  0  0
  191.4820  176.4800  143.8980 C   0  0  1  0  0  3  0  0  0  0  0  0
  185.3260  176.3970  145.9020 O   0  0  0  0  0  0  0  0  0  0  0  0
  192.2620  175.7240  146.2300 C   0  0  2  0  0  3  0  0  0  0  0  0
  190.4250  177.4050  146.0100 C   0  0  1  0  0  3  0  0  0  0  0  0
  193.3280  174.7680  144.1830 C   0  0  0  0  0  0  0  0  0  0  0  0
  191.0820  176.1790  145.3550 C   0  0  1  0  0  3  0  0  0  0  0  0
  191.4050  176.5870  148.1390 C   0  0  0  0  0  2  0  0  0  0  0  0
  192.9510  174.5140  145.6130 C   0  0  0  0  0  2  0  0  0  0  0  0
  187.0360  177.2710  144.2370 C   0  0  0  0  0  0  0  0  0  0  0  0
  189.1680  177.9350  145.3100 C   0  0  0  0  0  2  0  0  0  0  0  0
  191.7980  175.3880  147.5160 O   0  0  0  0  0  0  0  0  0  0  0  0
  187.4760  178.2910  142.0300 C   0  0  0  0  0  3  0  0  0  0  0  0
  186.1580  176.8230  145.0910 C   0  0  0  0  0  0  0  0  0  0  0  0
  186.6630  178.3660  143.2900 C   0  0  0  0  0  2  0  0  0  0  0  0
  194.0430  173.9680  143.6040 O   0  0  0  0  0  0  0  0  0  0  0  0
  192.8790  176.0090  143.4650 C   0  0  0  0  0  2  0  0  0  0  0  0
  190.1350  177.1280  147.4810 C   0  0  0  0  0  2  0  0  0  0  0  0
  188.6320  177.6240  141.9620 C   0  0  0  0  0  3  0  0  0  0  0  0
  188.4830  176.9190  144.3980 C   0  0  2  0  0  3  0  0  0  0  0  0
  190.0660  174.6410  142.6090 C   0  0  1  0  0  3  0  0  0  0  0  0
  189.2400  173.0630  140.9580 C   0  0  1  0  0  3  0  0  0  0  0  0
  188.6340  174.2980  142.9830 C   0  0  0  0  0  2  0  0  0  0  0  0
  191.6970  173.7740  140.8840 C   0  0  0  0  0  1  0  0  0  0  0  0
  190.2580  174.1800  141.1760 C   0  0  2  0  0  3  0  0  0  0  0  0
  189.7630  171.6880  141.3590 C   0  0  0  0  0  1  0  0  0  0  0  0
  188.0820  173.4150  141.8710 C   0  0  0  0  0  2  0  0  0  0  0  0
  1 21  1  0  0  0  0
  2  1  1  1  0  0  0
  2  3  1  0  0  0  0
  3 18  1  6  0  0  0
  3  8  1  0  0  0  0
  5 10  1  6  0  0  0
  5 13  1  0  0  0  0
  6 12  1  6  0  0  0
  6 19  1  0  0  0  0
  7 10  1  0  0  0  0
  8  6  1  0  0  0  0
  8  5  1  0  0  0  0
 11 21  1  0  0  0  0
 11 15  2  0  0  0  0
 13  9  1  0  0  0  0
 14 16  1  0  0  0  0
 15  4  2  0  0  0  0
 16 11  1  0  0  0  0
 17  7  2  0  0  0  0
 18  7  1  0  0  0  0
 19  9  1  0  0  0  0
 20 14  2  0  0  0  0
 20  1  1  0  0  0  0
 21 12  1  0  0  0  0
 22  2  1  0  0  0  0
 22 24  1  0  0  0  0
 23 26  1  0  0  0  0
 23 27  1  0  0  0  0
 23 28  1  0  0  0  0
 25 26  1  0  0  0  0
 26 22  1  0  0  0  0
 28 24  1  0  0  0  0
M  END
>  <MODEL>
1

>  <REMARK>
 VINA RESULT:      -7.5      0.000      0.000
  Name = 
  1 active torsions:
  status: ('A' for Active; 'I' for Inactive)
    1  A    between atoms: C_2  and  C_3
                            x       y       z     vdW  Elec       q    Type
                         _______ _______ _______ _____ _____    ______ ____

>  <TORSDO>
F 1

$$$$
=
 OpenBabel11052418023D

 28 32  0  0  1  0  0  0  0  0999 V2000
  192.7360  176.1760  144.7350 N   0  0  0  0  0  0  0  0  0  0  0  0
  191.4440  176.8170  144.5020 C   0  0  1  0  0  3  0  0  0  0  0  0
  190.9660  176.6730  143.0420 C   0  0  1  0  0  3  0  0  0  0  0  0
  194.1030  171.7210  145.7920 O   0  0  0  0  0  0  0  0  0  0  0  0
  189.5890  175.0260  141.6230 C   0  0  2  0  0  3  0  0  0  0  0  0
  192.0250  174.6150  142.0050 C   0  0  1  0  0  3  0  0  0  0  0  0
  188.4910  177.0300  142.6330 C   0  0  0  0  0  0  0  0  0  0  0  0
  190.7470  175.2080  142.6190 C   0  0  1  0  0  3  0  0  0  0  0  0
  190.5140  173.2260  140.6090 C   0  0  0  0  0  2  0  0  0  0  0  0
  188.3000  175.6100  142.1870 C   0  0  0  0  0  2  0  0  0  0  0  0
  194.0750  174.1950  145.2090 C   0  0  0  0  0  0  0  0  0  0  0  0
  193.2640  174.6310  142.9090 C   0  0  0  0  0  2  0  0  0  0  0  0
  189.4020  173.6570  141.3570 O   0  0  0  0  0  0  0  0  0  0  0  0
  194.9590  176.4590  145.6530 C   0  0  0  0  0  3  0  0  0  0  0  0
  194.0900  172.9260  145.5080 C   0  0  0  0  0  0  0  0  0  0  0  0
  195.3080  175.0200  145.4020 C   0  0  0  0  0  2  0  0  0  0  0  0
  187.5160  177.6930  142.9420 O   0  0  0  0  0  0  0  0  0  0  0  0
  189.8530  177.6630  142.6650 C   0  0  0  0  0  2  0  0  0  0  0  0
  191.7620  173.2030  141.4920 C   0  0  0  0  0  2  0  0  0  0  0  0
  193.7740  176.9780  145.3230 C   0  0  0  0  0  3  0  0  0  0  0  0
  192.9500  174.7600  144.3990 C   0  0  2  0  0  3  0  0  0  0  0  0
  190.4480  176.5180  145.6410 C   0  0  1  0  0  3  0  0  0  0  0  0
  188.1860  175.7960  146.1520 C   0  0  1  0  0  3  0  0  0  0  0  0
  189.6490  177.7540  146.0150 C   0  0  0  0  0  2  0  0  0  0  0  0
  189.9810  174.0340  145.6780 C   0  0  0  0  0  1  0  0  0  0  0  0
  189.4370  175.4210  145.3600 C   0  0  2  0  0  3  0  0  0  0  0  0
  188.2020  175.2690  147.5830 C   0  0  0  0  0  1  0  0  0  0  0  0
  188.2040  177.3110  146.2030 C   0  0  0  0  0  2  0  0  0  0  0  0
  1 20  1  0  0  0  0
  2  1  1  1  0  0  0
  2 22  1  0  0  0  0
  3 18  1  1  0  0  0
  3  2  1  0  0  0  0
  5 10  1  1  0  0  0
  5  8  1  0  0  0  0
  6 19  1  1  0  0  0
  6  8  1  0  0  0  0
  6 12  1  0  0  0  0
  7 18  1  0  0  0  0
  7 17  2  0  0  0  0
  8  3  1  0  0  0  0
  9 13  1  0  0  0  0
  9 19  1  0  0  0  0
 10  7  1  0  0  0  0
 11 16  1  0  0  0  0
 11 15  2  0  0  0  0
 12 21  1  0  0  0  0
 13  5  1  0  0  0  0
 15  4  2  0  0  0  0
 16 14  1  0  0  0  0
 20 14  2  0  0  0  0
 21  1  1  0  0  0  0
 21 11  1  0  0  0  0
 22 24  1  0  0  0  0
 23 28  1  0  0  0  0
 23 27  1  0  0  0  0
 24 28  1  0  0  0  0
 26 22  1  0  0  0  0
 26 25  1  0  0  0  0
 26 23  1  0  0  0  0
M  END
>  <MODEL>
2

>  <REMARK>
 VINA RESULT:      -7.1      2.153      6.239
  Name = 
  1 active torsions:
  status: ('A' for Active; 'I' for Inactive)
    1  A    between atoms: C_2  and  C_3
                            x       y       z     vdW  Elec       q    Type
                         _______ _______ _______ _____ _____    ______ ____

>  <TORSDO>
F 1

$$$$
=
 OpenBabel11052418023D

 28 32  0  0  1  0  0  0  0  0999 V2000
  189.0570  175.3480  144.5620 N   0  0  0  0  0  0  0  0  0  0  0  0
  190.0070  174.2660  144.8120 C   0  0  1  0  0  3  0  0  0  0  0  0
  189.7010  173.0040  143.9770 C   0  0  1  0  0  3  0  0  0  0  0  0
  188.7440  178.8180  141.2920 O   0  0  0  0  0  0  0  0  0  0  0  0
  190.3060  172.0290  141.6740 C   0  0  2  0  0  3  0  0  0  0  0  0
  188.4260  173.6630  141.8860 C   0  0  1  0  0  3  0  0  0  0  0  0
  191.6060  171.3570  143.6990 C   0  0  0  0  0  0  0  0  0  0  0  0
  189.7900  173.2480  142.4590 C   0  0  1  0  0  3  0  0  0  0  0  0
  189.1390  172.5240  139.7990 C   0  0  0  0  0  2  0  0  0  0  0  0
  191.6560  171.5760  142.2160 C   0  0  0  0  0  2  0  0  0  0  0  0
  188.2890  177.2420  143.2330 C   0  0  0  0  0  0  0  0  0  0  0  0
  187.8070  174.9260  142.4980 C   0  0  0  0  0  2  0  0  0  0  0  0
  190.4390  172.3610  140.3140 O   0  0  0  0  0  0  0  0  0  0  0  0
  187.5750  176.9690  145.5830 C   0  0  0  0  0  3  0  0  0  0  0  0
  188.5220  178.0510  142.2380 C   0  0  0  0  0  0  0  0  0  0  0  0
  187.2580  177.5990  144.2570 C   0  0  0  0  0  2  0  0  0  0  0  0
  192.5510  170.8240  144.2550 O   0  0  0  0  0  0  0  0  0  0  0  0
  190.3980  171.7410  144.5060 C   0  0  0  0  0  2  0  0  0  0  0  0
  188.5040  173.7930  140.3690 C   0  0  0  0  0  2  0  0  0  0  0  0
  188.3940  175.9200  145.7010 C   0  0  0  0  0  3  0  0  0  0  0  0
  188.8130  175.8400  143.1970 C   0  0  2  0  0  3  0  0  0  0  0  0
  191.4580  174.7860  144.8650 C   0  0  1  0  0  3  0  0  0  0  0  0
  192.8450  176.7440  145.2360 C   0  0  1  0  0  3  0  0  0  0  0  0
  191.9180  175.2820  143.5060 C   0  0  0  0  0  2  0  0  0  0  0  0
  192.0090  175.4090  147.2520 C   0  0  0  0  0  1  0  0  0  0  0  0
  191.7160  175.9150  145.8460 C   0  0  2  0  0  3  0  0  0  0  0  0
  194.2330  176.2390  145.6150 C   0  0  0  0  0  1  0  0  0  0  0  0
  192.6740  176.5840  143.7390 C   0  0  0  0  0  2  0  0  0  0  0  0
  1 20  1  0  0  0  0
  2  1  1  6  0  0  0
  2 22  1  0  0  0  0
  3 18  1  1  0  0  0
  3  2  1  0  0  0  0
  4 15  2  0  0  0  0
  5 10  1  1  0  0  0
  5  8  1  0  0  0  0
  6 19  1  6  0  0  0
  6  8  1  0  0  0  0
  6 12  1  0  0  0  0
  7 17  2  0  0  0  0
  7 18  1  0  0  0  0
  8  3  1  0  0  0  0
  9 13  1  0  0  0  0
  9 19  1  0  0  0  0
 10  7  1  0  0  0  0
 11 16  1  0  0  0  0
 12 21  1  0  0  0  0
 13  5  1  0  0  0  0
 14 20  2  0  0  0  0
 15 11  2  0  0  0  0
 16 14  1  0  0  0  0
 21 11  1  0  0  0  0
 21  1  1  0  0  0  0
 22 26  1  0  0  0  0
 23 27  1  0  0  0  0
 23 26  1  0  0  0  0
 24 28  1  0  0  0  0
 24 22  1  0  0  0  0
 26 25  1  0  0  0  0
 28 23  1  0  0  0  0
M  END
>  <MODEL>
3

>  <REMARK>
 VINA RESULT:      -7.1      2.267      5.179
  Name = 
  1 active torsions:
  status: ('A' for Active; 'I' for Inactive)
    1  A    between atoms: C_2  and  C_3
                            x       y       z     vdW  Elec       q    Type
                         _______ _______ _______ _____ _____    ______ ____

>  <TORSDO>
F 1

$$$$
=
 OpenBabel11052418023D

 28 32  0  0  1  0  0  0  0  0999 V2000
  189.5060  173.9210  143.2390 N   0  0  0  0  0  0  0  0  0  0  0  0
  188.7830  174.7870  144.1670 C   0  0  1  0  0  3  0  0  0  0  0  0
  189.4780  174.8960  145.5400 C   0  0  1  0  0  3  0  0  0  0  0  0
  193.1440  174.5800  140.2130 O   0  0  0  0  0  0  0  0  0  0  0  0
  191.2520  176.3670  146.6860 C   0  0  2  0  0  3  0  0  0  0  0  0
  191.9570  174.4290  145.2720 C   0  0  1  0  0  3  0  0  0  0  0  0
  188.8240  176.8820  146.9720 C   0  0  0  0  0  0  0  0  0  0  0  0
  190.8860  175.5160  145.4570 C   0  0  1  0  0  3  0  0  0  0  0  0
  193.4690  175.9340  146.5420 C   0  0  0  0  0  2  0  0  0  0  0  0
  190.2090  177.4540  146.9140 C   0  0  0  0  0  2  0  0  0  0  0  0
  191.2810  173.5590  141.6080 C   0  0  0  0  0  0  0  0  0  0  0  0
  191.7930  173.5430  144.0310 C   0  0  0  0  0  2  0  0  0  0  0  0
  192.5110  176.9640  146.4920 O   0  0  0  0  0  0  0  0  0  0  0  0
  189.3210  172.0580  141.7020 C   0  0  0  0  0  3  0  0  0  0  0  0
  192.2370  174.0820  140.8910 C   0  0  0  0  0  0  0  0  0  0  0  0
  190.7500  172.2040  141.2640 C   0  0  0  0  0  2  0  0  0  0  0  0
  187.8990  177.5940  147.3250 O   0  0  0  0  0  0  0  0  0  0  0  0
  188.5600  175.4390  146.6460 C   0  0  0  0  0  2  0  0  0  0  0  0
  193.3510  175.0470  145.3020 C   0  0  0  0  0  2  0  0  0  0  0  0
  188.7700  172.8480  142.6270 C   0  0  0  0  0  3  0  0  0  0  0  0
  190.9260  174.1570  142.9330 C   0  0  2  0  0  3  0  0  0  0  0  0
  188.2970  176.0770  143.4770 C   0  0  1  0  0  3  0  0  0  0  0  0
  186.6110  177.0190  142.0050 C   0  0  1  0  0  3  0  0  0  0  0  0
  188.9300  176.2440  142.1070 C   0  0  0  0  0  2  0  0  0  0  0  0
  186.0870  176.7600  144.4960 C   0  0  0  0  0  1  0  0  0  0  0  0
  186.7970  176.1910  143.2740 C   0  0  2  0  0  3  0  0  0  0  0  0
  186.5830  178.5210  142.2670 C   0  0  0  0  0  1  0  0  0  0  0  0
  187.8310  176.7070  141.1600 C   0  0  0  0  0  2  0  0  0  0  0  0
  2  1  1  6  0  0  0
  2  3  1  0  0  0  0
  3 18  1  1  0  0  0
  4 15  2  0  0  0  0
  5 10  1  6  0  0  0
  6 12  1  6  0  0  0
  6 19  1  0  0  0  0
  6  8  1  0  0  0  0
  7 17  2  0  0  0  0
  8  3  1  0  0  0  0
  8  5  1  0  0  0  0
 10  7  1  0  0  0  0
 11 21  1  0  0  0  0
 13  9  1  0  0  0  0
 13  5  1  0  0  0  0
 14 20  2  0  0  0  0
 15 11  2  0  0  0  0
 16 11  1  0  0  0  0
 16 14  1  0  0  0  0
 18  7  1  0  0  0  0
 19  9  1  0  0  0  0
 20  1  1  0  0  0  0
 21  1  1  0  0  0  0
 21 12  1  0  0  0  0
 22  2  1  0  0  0  0
 23 27  1  0  0  0  0
 23 26  1  0  0  0  0
 24 22  1  0  0  0  0
 26 22  1  0  0  0  0
 26 25  1  0  0  0  0
 28 23  1  0  0  0  0
 28 24  1  0  0  0  0
M  END
>  <MODEL>
4

>  <REMARK>
 VINA RESULT:      -6.9      1.651      5.195
  Name = 
  1 active torsions:
  status: ('A' for Active; 'I' for Inactive)
    1  A    between atoms: C_2  and  C_3
                            x       y       z     vdW  Elec       q    Type
                         _______ _______ _______ _____ _____    ______ ____

>  <TORSDO>
F 1

$$$$
=
 OpenBabel11052418023D

 28 32  0  0  1  0  0  0  0  0999 V2000
  190.1320  176.2210  143.2050 N   0  0  0  0  0  0  0  0  0  0  0  0
  191.1470  175.5680  142.3830 C   0  0  1  0  0  3  0  0  0  0  0  0
  192.5810  175.9940  142.7630 C   0  0  1  0  0  3  0  0  0  0  0  0
  188.1940  175.2900  147.4720 O   0  0  0  0  0  0  0  0  0  0  0  0
  194.4450  175.2500  144.3740 C   0  0  2  0  0  3  0  0  0  0  0  0
  192.6230  176.7600  145.1800 C   0  0  1  0  0  3  0  0  0  0  0  0
  194.4440  174.4520  142.0060 C   0  0  0  0  0  0  0  0  0  0  0  0
  192.9600  175.6190  144.2080 C   0  0  1  0  0  3  0  0  0  0  0  0
  194.5660  175.9790  146.5130 C   0  0  0  0  0  2  0  0  0  0  0  0
  194.8270  174.1260  143.4190 C   0  0  0  0  0  2  0  0  0  0  0  0
  188.8180  176.3620  145.2540 C   0  0  0  0  0  0  0  0  0  0  0  0
  191.1520  177.1920  145.2100 C   0  0  0  0  0  2  0  0  0  0  0  0
  194.6870  174.8390  145.6970 O   0  0  0  0  0  0  0  0  0  0  0  0
  188.0600  177.4770  143.1830 C   0  0  0  0  0  3  0  0  0  0  0  0
  188.4970  175.8130  146.3920 C   0  0  0  0  0  0  0  0  0  0  0  0
  187.9580  177.4440  144.6810 C   0  0  0  0  0  2  0  0  0  0  0  0
  194.8400  173.7380  141.1010 O   0  0  0  0  0  0  0  0  0  0  0  0
  193.6200  175.6650  141.6800 C   0  0  0  0  0  2  0  0  0  0  0  0
  193.1040  176.4190  146.5860 C   0  0  0  0  0  2  0  0  0  0  0  0
  189.0790  176.9230  142.5220 C   0  0  0  0  0  3  0  0  0  0  0  0
  190.1800  176.1410  144.6740 C   0  0  2  0  0  3  0  0  0  0  0  0
  190.8450  174.0680  142.1930 C   0  0  1  0  0  3  0  0  0  0  0  0
  189.4060  172.4670  141.0690 C   0  0  1  0  0  3  0  0  0  0  0  0
  189.8300  173.5760  143.2100 C   0  0  0  0  0  2  0  0  0  0  0  0
  191.4280  173.4160  139.8220 C   0  0  0  0  0  1  0  0  0  0  0  0
  190.3140  173.6710  140.8280 C   0  0  2  0  0  3  0  0  0  0  0  0
  190.1540  171.1380  141.0480 C   0  0  0  0  0  1  0  0  0  0  0  0
  188.8520  172.6770  142.4650 C   0  0  0  0  0  2  0  0  0  0  0  0
  1 21  1  0  0  0  0
  2  3  1  0  0  0  0
  2  1  1  1  0  0  0
  3 18  1  6  0  0  0
  3  8  1  0  0  0  0
  5 10  1  6  0  0  0
  5 13  1  0  0  0  0
  6 12  1  1  0  0  0
  6 19  1  0  0  0  0
  7 10  1  0  0  0  0
  8  5  1  0  0  0  0
  8  6  1  0  0  0  0
  9 19  1  0  0  0  0
 11 15  2  0  0  0  0
 13  9  1  0  0  0  0
 14 16  1  0  0  0  0
 15  4  2  0  0  0  0
 16 11  1  0  0  0  0
 17  7  2  0  0  0  0
 18  7  1  0  0  0  0
 20 14  2  0  0  0  0
 20  1  1  0  0  0  0
 21 12  1  0  0  0  0
 21 11  1  0  0  0  0
 22  2  1  0  0  0  0
 22 24  1  0  0  0  0
 23 28  1  0  0  0  0
 25 26  1  0  0  0  0
 26 23  1  0  0  0  0
 26 22  1  0  0  0  0
 27 23  1  0  0  0  0
 28 24  1  0  0  0  0
M  END
>  <MODEL>
5

>  <REMARK>
 VINA RESULT:      -6.9      1.631      2.184
  Name = 
  1 active torsions:
  status: ('A' for Active; 'I' for Inactive)
    1  A    between atoms: C_2  and  C_3
                            x       y       z     vdW  Elec       q    Type
                         _______ _______ _______ _____ _____    ______ ____

>  <TORSDO>
F 1

$$$$
=
 OpenBabel11052418023D

 28 32  0  0  1  0  0  0  0  0999 V2000
  189.7610  174.9150  144.4440 N   0  0  0  0  0  0  0  0  0  0  0  0
  190.8320  173.9220  144.4700 C   0  0  1  0  0  3  0  0  0  0  0  0
  190.5330  172.7040  143.5720 C   0  0  1  0  0  3  0  0  0  0  0  0
  188.6760  178.5750  141.5710 O   0  0  0  0  0  0  0  0  0  0  0  0
  190.9020  171.9780  141.1310 C   0  0  2  0  0  3  0  0  0  0  0  0
  188.9250  173.3840  141.7320 C   0  0  1  0  0  3  0  0  0  0  0  0
  192.5270  171.2920  142.9010 C   0  0  0  0  0  0  0  0  0  0  0  0
  190.3890  173.0720  142.0830 C   0  0  1  0  0  3  0  0  0  0  0  0
  189.4470  172.4910  139.4750 C   0  0  0  0  0  2  0  0  0  0  0  0
  192.3500  171.6280  141.4490 C   0  0  0  0  0  2  0  0  0  0  0  0
  188.6420  176.8150  143.4040 C   0  0  0  0  0  0  0  0  0  0  0  0
  188.2820  174.5250  142.5300 C   0  0  0  0  0  2  0  0  0  0  0  0
  190.8150  172.4260  139.8000 O   0  0  0  0  0  0  0  0  0  0  0  0
  188.2890  176.2880  145.7920 C   0  0  0  0  0  3  0  0  0  0  0  0
  188.6590  177.7180  142.4640 C   0  0  0  0  0  0  0  0  0  0  0  0
  187.7340  176.9820  144.5810 C   0  0  0  0  0  2  0  0  0  0  0  0
  193.5860  170.8190  143.2780 O   0  0  0  0  0  0  0  0  0  0  0  0
  191.4120  171.4840  143.8880 C   0  0  0  0  0  2  0  0  0  0  0  0
  188.7810  173.6380  140.2350 C   0  0  0  0  0  2  0  0  0  0  0  0
  189.2100  175.3250  145.7070 C   0  0  0  0  0  3  0  0  0  0  0  0
  189.2850  175.4820  143.1730 C   0  0  2  0  0  3  0  0  0  0  0  0
  192.2220  174.5850  144.3810 C   0  0  1  0  0  3  0  0  0  0  0  0
  193.9160  175.8020  145.6260 C   0  0  1  0  0  3  0  0  0  0  0  0
  192.1120  176.0480  143.9890 C   0  0  0  0  0  2  0  0  0  0  0  0
  193.8490  173.2490  145.7800 C   0  0  0  0  0  1  0  0  0  0  0  0
  193.0540  174.5420  145.6500 C   0  0  2  0  0  3  0  0  0  0  0  0
  195.2330  175.6140  144.8810 C   0  0  0  0  0  1  0  0  0  0  0  0
  193.0850  176.8210  144.8710 C   0  0  0  0  0  2  0  0  0  0  0  0
  1 20  1  0  0  0  0
  2  1  1  6  0  0  0
  3 18  1  6  0  0  0
  3  2  1  0  0  0  0
  4 15  2  0  0  0  0
  5 10  1  1  0  0  0
  5  8  1  0  0  0  0
  6 19  1  6  0  0  0
  6  8  1  0  0  0  0
  6 12  1  0  0  0  0
  7 17  2  0  0  0  0
  7 18  1  0  0  0  0
  8  3  1  0  0  0  0
  9 13  1  0  0  0  0
  9 19  1  0  0  0  0
 10  7  1  0  0  0  0
 11 16  1  0  0  0  0
 12 21  1  0  0  0  0
 13  5  1  0  0  0  0
 15 11  2  0  0  0  0
 16 14  1  0  0  0  0
 20 14  2  0  0  0  0
 21 11  1  0  0  0  0
 21  1  1  0  0  0  0
 22  2  1  0  0  0  0
 22 26  1  0  0  0  0
 23 26  1  0  0  0  0
 24 22  1  0  0  0  0
 24 28  1  0  0  0  0
 26 25  1  0  0  0  0
 27 23  1  0  0  0  0
 28 23  1  0  0  0  0
M  END
>  <MODEL>
6

>  <REMARK>
 VINA RESULT:      -6.7      2.339      5.306
  Name = 
  1 active torsions:
  status: ('A' for Active; 'I' for Inactive)
    1  A    between atoms: C_2  and  C_3
                            x       y       z     vdW  Elec       q    Type
                         _______ _______ _______ _____ _____    ______ ____

>  <TORSDO>
F 1

$$$$
=
 OpenBabel11052418023D

 28 32  0  0  1  0  0  0  0  0999 V2000
  190.8710  173.3110  143.7030 N   0  0  0  0  0  0  0  0  0  0  0  0
  190.8740  174.2020  144.8600 C   0  0  1  0  0  3  0  0  0  0  0  0
  192.2670  174.3160  145.5150 C   0  0  1  0  0  3  0  0  0  0  0  0
  191.8910  173.8630  139.0670 O   0  0  0  0  0  0  0  0  0  0  0  0
  194.3800  175.7680  145.3000 C   0  0  2  0  0  3  0  0  0  0  0  0
  194.0560  173.8000  143.7940 C   0  0  1  0  0  3  0  0  0  0  0  0
  192.6420  176.3320  147.0040 C   0  0  0  0  0  0  0  0  0  0  0  0
  193.3310  174.9090  144.5730 C   0  0  1  0  0  3  0  0  0  0  0  0
  196.0400  175.2920  143.8370 C   0  0  0  0  0  2  0  0  0  0  0  0
  193.7050  176.8770  146.0960 C   0  0  0  0  0  2  0  0  0  0  0  0
  191.2680  172.8950  141.3330 C   0  0  0  0  0  0  0  0  0  0  0  0
  193.1600  172.9010  142.9330 C   0  0  0  0  0  2  0  0  0  0  0  0
  195.2600  176.3390  144.3620 O   0  0  0  0  0  0  0  0  0  0  0  0
  189.7680  171.4320  142.6430 C   0  0  0  0  0  3  0  0  0  0  0  0
  191.5870  173.3910  140.1700 C   0  0  0  0  0  0  0  0  0  0  0  0
  190.6290  171.5460  141.4170 C   0  0  0  0  0  2  0  0  0  0  0  0
  192.1340  177.0650  147.8350 O   0  0  0  0  0  0  0  0  0  0  0  0
  192.2240  174.8900  146.9400 C   0  0  0  0  0  2  0  0  0  0  0  0
  195.1790  174.3920  142.9490 C   0  0  0  0  0  2  0  0  0  0  0  0
  189.9060  172.2450  143.6930 C   0  0  0  0  0  3  0  0  0  0  0  0
  191.8050  173.5170  142.5850 C   0  0  2  0  0  3  0  0  0  0  0  0
  190.0770  175.4930  144.5850 C   0  0  1  0  0  3  0  0  0  0  0  0
  187.8590  176.4020  144.1940 C   0  0  1  0  0  3  0  0  0  0  0  0
  189.9480  175.7570  143.0950 C   0  0  0  0  0  2  0  0  0  0  0  0
  188.6360  176.0010  146.5990 C   0  0  0  0  0  1  0  0  0  0  0  0
  188.6680  175.5290  145.1510 C   0  0  2  0  0  3  0  0  0  0  0  0
  187.9210  177.8860  144.5370 C   0  0  0  0  0  1  0  0  0  0  0  0
  188.5130  176.1990  142.8420 C   0  0  0  0  0  2  0  0  0  0  0  0
  2  1  1  6  0  0  0
  2  3  1  0  0  0  0
  3 18  1  1  0  0  0
  4 15  2  0  0  0  0
  5 10  1  6  0  0  0
  6 12  1  6  0  0  0
  6  8  1  0  0  0  0
  7 17  2  0  0  0  0
  8  5  1  0  0  0  0
  8  3  1  0  0  0  0
  9 13  1  0  0  0  0
 10  7  1  0  0  0  0
 11 16  1  0  0  0  0
 11 21  1  0  0  0  0
 13  5  1  0  0  0  0
 14 20  2  0  0  0  0
 15 11  2  0  0  0  0
 16 14  1  0  0  0  0
 18  7  1  0  0  0  0
 19  6  1  0  0  0  0
 19  9  1  0  0  0  0
 20  1  1  0  0  0  0
 21 12  1  0  0  0  0
 21  1  1  0  0  0  0
 22  2  1  0  0  0  0
 22 26  1  0  0  0  0
 23 27  1  0  0  0  0
 23 26  1  0  0  0  0
 24 22  1  0  0  0  0
 26 25  1  0  0  0  0
 28 24  1  0  0  0  0
 28 23  1  0  0  0  0
M  END
>  <MODEL>
7

>  <REMARK>
 VINA RESULT:      -6.7      2.249      5.503
  Name = 
  1 active torsions:
  status: ('A' for Active; 'I' for Inactive)
    1  A    between atoms: C_2  and  C_3
                            x       y       z     vdW  Elec       q    Type
                         _______ _______ _______ _____ _____    ______ ____

>  <TORSDO>
F 1

$$$$
=
 OpenBabel11052418023D

 28 32  0  0  1  0  0  0  0  0999 V2000
  194.4000  175.9530  143.9790 N   0  0  0  0  0  0  0  0  0  0  0  0
  193.9410  175.6420  145.3310 C   0  0  1  0  0  3  0  0  0  0  0  0
  192.6460  176.3940  145.7040 C   0  0  1  0  0  3  0  0  0  0  0  0
  193.3610  174.2580  139.6340 O   0  0  0  0  0  0  0  0  0  0  0  0
  190.1020  176.0430  145.5390 C   0  0  2  0  0  3  0  0  0  0  0  0
  191.3660  176.9740  143.5930 C   0  0  1  0  0  3  0  0  0  0  0  0
  191.3160  175.4390  147.6380 C   0  0  0  0  0  0  0  0  0  0  0  0
  191.4530  176.0280  144.8020 C   0  0  1  0  0  3  0  0  0  0  0  0
  188.9100  176.6260  143.7060 C   0  0  0  0  0  2  0  0  0  0  0  0
  190.1460  175.1240  146.7540 C   0  0  0  0  0  2  0  0  0  0  0  0
  194.3100  175.6070  141.5670 C   0  0  0  0  0  0  0  0  0  0  0  0
  192.6040  177.0090  142.6900 C   0  0  0  0  0  2  0  0  0  0  0  0
  189.0820  175.6150  144.6700 O   0  0  0  0  0  0  0  0  0  0  0  0
  196.2920  176.6330  142.6280 C   0  0  0  0  0  3  0  0  0  0  0  0
  193.8240  174.9160  140.5750 C   0  0  0  0  0  0  0  0  0  0  0  0
  195.5140  176.4690  141.3550 C   0  0  0  0  0  2  0  0  0  0  0  0
  191.3900  174.9160  148.7370 O   0  0  0  0  0  0  0  0  0  0  0  0
  192.3720  176.4200  147.2160 C   0  0  0  0  0  2  0  0  0  0  0  0
  190.1180  176.6690  142.7700 C   0  0  0  0  0  2  0  0  0  0  0  0
  195.7560  176.4060  143.8300 C   0  0  0  0  0  3  0  0  0  0  0  0
  193.5090  175.7850  142.8200 C   0  0  2  0  0  3  0  0  0  0  0  0
  194.0330  174.1310  145.6270 C   0  0  1  0  0  3  0  0  0  0  0  0
  194.8830  172.0050  144.8190 C   0  0  1  0  0  3  0  0  0  0  0  0
  192.8650  173.3760  145.0170 C   0  0  0  0  0  2  0  0  0  0  0  0
  196.4390  173.5500  146.1380 C   0  0  0  0  0  1  0  0  0  0  0  0
  195.2940  173.4410  145.1400 C   0  0  2  0  0  3  0  0  0  0  0  0
  194.9660  171.0740  146.0240 C   0  0  0  0  0  1  0  0  0  0  0  0
  193.4310  172.1060  144.3950 C   0  0  0  0  0  2  0  0  0  0  0  0
  2  1  1  6  0  0  0
  2 22  1  0  0  0  0
  2  3  1  0  0  0  0
  3 18  1  1  0  0  0
  4 15  2  0  0  0  0
  5 10  1  1  0  0  0
  6 12  1  6  0  0  0
  6  8  1  0  0  0  0
  7 17  2  0  0  0  0
  8  5  1  0  0  0  0
  8  3  1  0  0  0  0
  9 13  1  0  0  0  0
 10  7  1  0  0  0  0
 11 21  1  0  0  0  0
 12 21  1  0  0  0  0
 13  5  1  0  0  0  0
 14 20  2  0  0  0  0
 15 11  2  0  0  0  0
 16 11  1  0  0  0  0
 16 14  1  0  0  0  0
 18  7  1  0  0  0  0
 19  6  1  0  0  0  0
 19  9  1  0  0  0  0
 20  1  1  0  0  0  0
 21  1  1  0  0  0  0
 23 26  1  0  0  0  0
 23 27  1  0  0  0  0
 24 22  1  0  0  0  0
 26 22  1  0  0  0  0
 26 25  1  0  0  0  0
 28 23  1  0  0  0  0
 28 24  1  0  0  0  0
M  END
>  <MODEL>
8

>  <REMARK>
 VINA RESULT:      -6.7      2.645      5.983
  Name = 
  1 active torsions:
  status: ('A' for Active; 'I' for Inactive)
    1  A    between atoms: C_2  and  C_3
                            x       y       z     vdW  Elec       q    Type
                         _______ _______ _______ _____ _____    ______ ____

>  <TORSDO>
F 1

$$$$
=
 OpenBabel11052418023D

 28 32  0  0  1  0  0  0  0  0999 V2000
  192.3640  175.4300  143.9630 N   0  0  0  0  0  0  0  0  0  0  0  0
  190.9630  175.7260  143.6720 C   0  0  1  0  0  3  0  0  0  0  0  0
  190.5090  175.1600  142.3100 C   0  0  1  0  0  3  0  0  0  0  0  0
  194.6530  171.7030  145.8880 O   0  0  0  0  0  0  0  0  0  0  0  0
  189.4950  172.9910  141.3700 C   0  0  2  0  0  3  0  0  0  0  0  0
  191.9670  173.1800  141.6880 C   0  0  1  0  0  3  0  0  0  0  0  0
  188.0100  174.9050  141.9800 C   0  0  0  0  0  0  0  0  0  0  0  0
  190.6000  173.6250  142.2320 C   0  0  1  0  0  3  0  0  0  0  0  0
  190.7660  171.2330  140.7230 C   0  0  0  0  0  2  0  0  0  0  0  0
  188.1180  173.4130  141.8680 C   0  0  0  0  0  2  0  0  0  0  0  0
  194.0970  173.9220  144.7800 C   0  0  0  0  0  0  0  0  0  0  0  0
  193.1850  173.6510  142.4920 C   0  0  0  0  0  2  0  0  0  0  0  0
  189.5970  171.5880  141.4220 O   0  0  0  0  0  0  0  0  0  0  0  0
  194.4890  176.3590  144.6640 C   0  0  0  0  0  3  0  0  0  0  0  0
  194.3830  172.7840  145.3490 C   0  0  0  0  0  0  0  0  0  0  0  0
  195.1300  175.0020  144.7140 C   0  0  0  0  0  2  0  0  0  0  0  0
  186.9210  175.4090  142.1930 O   0  0  0  0  0  0  0  0  0  0  0  0
  189.2080  175.7920  141.7920 C   0  0  0  0  0  2  0  0  0  0  0  0
  192.0010  171.6650  141.5140 C   0  0  0  0  0  2  0  0  0  0  0  0
  193.2170  176.5380  144.2990 C   0  0  0  0  0  3  0  0  0  0  0  0
  192.8680  174.0480  143.9340 C   0  0  2  0  0  3  0  0  0  0  0  0
  190.0670  175.4970  144.9050 C   0  0  1  0  0  3  0  0  0  0  0  0
  189.4250  176.3790  147.0750 C   0  0  1  0  0  3  0  0  0  0  0  0
  190.7800  174.6720  145.9620 C   0  0  0  0  0  2  0  0  0  0  0  0
  188.3010  177.3040  144.9710 C   0  0  0  0  0  1  0  0  0  0  0  0
  189.5720  176.7520  145.6010 C   0  0  2  0  0  3  0  0  0  0  0  0
  188.0610  175.7840  147.4100 C   0  0  0  0  0  1  0  0  0  0  0  0
  190.4780  175.3150  147.3090 C   0  0  0  0  0  2  0  0  0  0  0  0
  1 20  1  0  0  0  0
  2  1  1  1  0  0  0
  2 22  1  0  0  0  0
  3 18  1  1  0  0  0
  3  2  1  0  0  0  0
  5 13  1  0  0  0  0
  5 10  1  1  0  0  0
  5  8  1  0  0  0  0
  6 19  1  1  0  0  0
  6  8  1  0  0  0  0
  6 12  1  0  0  0  0
  7 17  2  0  0  0  0
  8  3  1  0  0  0  0
  9 13  1  0  0  0  0
  9 19  1  0  0  0  0
 10  7  1  0  0  0  0
 11 15  2  0  0  0  0
 12 21  1  0  0  0  0
 14 16  1  0  0  0  0
 15  4  2  0  0  0  0
 16 11  1  0  0  0  0
 18  7  1  0  0  0  0
 20 14  2  0  0  0  0
 21  1  1  0  0  0  0
 21 11  1  0  0  0  0
 22 26  1  0  0  0  0
 22 24  1  0  0  0  0
 23 28  1  0  0  0  0
 23 27  1  0  0  0  0
 24 28  1  0  0  0  0
 25 26  1  0  0  0  0
 26 23  1  0  0  0  0
M  END
>  <MODEL>
9

>  <REMARK>
 VINA RESULT:      -6.5      2.103      6.529
  Name = 
  1 active torsions:
  status: ('A' for Active; 'I' for Inactive)
    1  A    between atoms: C_2  and  C_3
                            x       y       z     vdW  Elec       q    Type
                         _______ _______ _______ _____ _____    ______ ____

>  <TORSDO>
F 1

$$$$
