=
 OpenBabel11052421063D

 43 48  0  0  1  0  0  0  0  0999 V2000
  187.7800  175.6320  141.1130 N   0  0  0  0  0  2  0  0  0  0  0  0
  190.1720  170.8720  135.9540 C   0  0  0  0  0  0  0  0  0  0  0  0
  188.7480  173.8160  139.7800 C   0  0  0  0  0  0  0  0  0  0  0  0
  189.6490  172.6030  142.0860 C   0  0  0  0  0  0  0  0  0  0  0  0
  189.2360  172.6480  137.3070 C   0  0  0  0  0  0  0  0  0  0  0  0
  190.6390  170.2350  137.1070 C   0  0  0  0  0  3  0  0  0  0  0  0
  190.3980  170.3200  134.7380 F   0  0  0  0  0  0  0  0  0  0  0  0
  189.7050  172.0100  138.4770 C   0  0  0  0  0  0  0  0  0  0  0  0
  189.4700  172.0770  136.0530 C   0  0  0  0  0  3  0  0  0  0  0  0
  190.4080  170.8000  138.3650 C   0  0  0  0  0  3  0  0  0  0  0  0
  189.8920  172.0230  140.8790 N   0  0  0  0  0  0  0  0  0  0  0  0
  189.4590  172.6000  139.7260 C   0  0  0  0  0  0  0  0  0  0  0  0
  188.3090  174.4040  138.6330 N   0  0  0  0  0  0  0  0  0  0  0  0
  188.5050  174.3950  141.0310 C   0  0  0  0  0  0  0  0  0  0  0  0
  188.9620  173.7740  142.1510 N   0  0  0  0  0  0  0  0  0  0  0  0
  188.5360  173.8510  137.4120 C   0  0  0  0  0  3  0  0  0  0  0  0
  185.8710  176.7090  144.1270 C   0  0  0  0  0  3  0  0  0  0  0  0
  186.6770  177.7390  144.6260 C   0  0  0  0  0  0  0  0  0  0  0  0
  188.2370  177.3900  142.8070 C   0  0  0  0  0  3  0  0  0  0  0  0
  186.2480  176.0250  142.9680 C   0  0  0  0  0  3  0  0  0  0  0  0
  187.4300  176.3600  142.2990 C   0  0  0  0  0  0  0  0  0  0  0  0
  187.8630  178.0750  143.9670 C   0  0  0  0  0  3  0  0  0  0  0  0
  186.2850  178.4560  145.8710 C   0  0  0  0  0  2  0  0  0  0  0  0
  184.8440  178.1410  146.2250 C   0  0  0  0  0  1  0  0  0  0  0  0
  190.1180  171.9580  143.3460 C   0  0  2  0  0  3  0  0  0  0  0  0
  190.0250  172.9300  144.5090 C   0  0  0  0  0  1  0  0  0  0  0  0
  191.8290  171.3700  143.1530 S   0  0  0  0  0  0  0  0  0  0  0  0
  192.4620  172.5440  144.3880 C   0  0  1  0  0  3  0  0  0  0  0  0
  193.0820  171.8440  145.4050 F   0  0  0  0  0  0  0  0  0  0  0  0
  193.4690  173.4950  143.7390 C   0  0  0  0  0  2  0  0  0  0  0  0
  194.2400  174.2950  144.7030 N   0  0  0  0  0  0  0  0  0  0  0  0
  196.1670  172.8630  145.1220 C   0  0  0  0  0  2  0  0  0  0  0  0
  195.6770  174.1470  144.4780 C   0  0  0  0  0  3  0  0  0  0  0  0
  196.4090  174.1880  145.8070 C   0  0  0  0  0  2  0  0  0  0  0  0
  193.8020  175.9790  144.5800 S   0  0  0  0  0  0  0  0  0  0  0  0
  195.0120  176.8490  144.7860 O   0  0  0  0  0  0  0  0  0  0  0  0
  193.2210  176.2550  143.2200 O   0  0  0  0  0  0  0  0  0  0  0  0
  192.5850  176.3680  145.8240 C   0  0  1  0  0  3  0  0  0  0  0  0
  191.3480  175.3950  147.7830 C   0  0  0  0  0  3  0  0  0  0  0  0
  190.2260  176.9320  146.2790 C   0  0  0  0  0  2  0  0  0  0  0  0
  190.3100  176.0960  147.4650 N   0  0  0  0  0  0  0  0  0  0  0  0
  191.2060  176.4930  145.1950 C   0  0  0  0  0  2  0  0  0  0  0  0
  192.5560  175.2760  146.8870 C   0  0  0  0  0  2  0  0  0  0  0  0
  1 21  1  0  0  0  0
  2  9  2  0  0  0  0
  2  6  1  0  0  0  0
  3 14  1  0  0  0  0
  4 15  1  0  0  0  0
  4 25  1  0  0  0  0
  5 16  2  0  0  0  0
  5  8  1  0  0  0  0
  6 10  2  0  0  0  0
  7  2  1  0  0  0  0
  8 12  2  0  0  0  0
  9  5  1  0  0  0  0
 10  8  1  0  0  0  0
 11  4  2  0  0  0  0
 12  3  1  0  0  0  0
 12 11  1  0  0  0  0
 13  3  2  0  0  0  0
 14  1  1  0  0  0  0
 14 15  2  0  0  0  0
 16 13  1  0  0  0  0
 17 18  1  0  0  0  0
 18 23  1  0  0  0  0
 19 22  1  0  0  0  0
 20 17  2  0  0  0  0
 21 19  2  0  0  0  0
 21 20  1  0  0  0  0
 22 18  2  0  0  0  0
 23 24  1  0  0  0  0
 25 26  1  1  0  0  0
 27 25  1  0  0  0  0
 27 28  1  0  0  0  0
 28 29  1  1  0  0  0
 30 28  1  0  0  0  0
 30 31  1  0  0  0  0
 32 34  1  0  0  0  0
 33 31  1  0  0  0  0
 33 32  1  0  0  0  0
 33 34  1  0  0  0  0
 35 31  1  0  0  0  0
 35 36  2  0  0  0  0
 37 35  2  0  0  0  0
 38 35  1  6  0  0  0
 38 43  1  0  0  0  0
 40 41  1  0  0  0  0
 41 39  2  0  0  0  0
 42 38  1  0  0  0  0
 42 40  1  0  0  0  0
 43 39  1  0  0  0  0
M  END
>  <MODEL>
1

>  <REMARK>
 VINA RESULT:      -7.8      0.000      0.000
  Name = 
  10 active torsions:
  status: ('A' for Active; 'I' for Inactive)
    1  A    between atoms: N_1  and  C_35
    2  A    between atoms: C_2  and  S_6
    3  A    between atoms: C_2  and  C_13
    4  A    between atoms: C_3  and  N_4
    5  A    between atoms: C_3  and  C_12
    6  A    between atoms: N_4  and  S_14
    7  A    between atoms: N_4  and  C_15
    8  A    between atoms: S_6  and  C_12
    9  A    between atoms: C_11  and  S_14
   10  A    between atoms: C_19  and  C_25
                            x       y       z     vdW  Elec       q    Type
                         _______ _______ _______ _____ _____    ______ ____

>  <TORSDO>
F 10

$$$$
=
 OpenBabel11052421063D

 43 48  0  0  1  0  0  0  0  0999 V2000
  191.6160  175.6520  146.0870 N   0  0  0  0  0  2  0  0  0  0  0  0
  184.7090  178.2450  145.3280 C   0  0  0  0  0  0  0  0  0  0  0  0
  189.3560  176.3130  145.4000 C   0  0  0  0  0  0  0  0  0  0  0  0
  189.7380  175.0860  142.9610 C   0  0  0  0  0  0  0  0  0  0  0  0
  186.9480  177.5780  145.9640 C   0  0  0  0  0  0  0  0  0  0  0  0
  184.8750  177.6290  144.0840 C   0  0  0  0  0  3  0  0  0  0  0  0
  183.5430  178.8660  145.6250 F   0  0  0  0  0  0  0  0  0  0  0  0
  187.1230  176.9540  144.7090 C   0  0  0  0  0  0  0  0  0  0  0  0
  185.7440  178.2190  146.2680 C   0  0  0  0  0  3  0  0  0  0  0  0
  186.0770  176.9870  143.7740 C   0  0  0  0  0  3  0  0  0  0  0  0
  188.5550  175.7020  143.2290 N   0  0  0  0  0  0  0  0  0  0  0  0
  188.3400  176.3150  144.4240 C   0  0  0  0  0  0  0  0  0  0  0  0
  189.1550  176.9230  146.6000 N   0  0  0  0  0  0  0  0  0  0  0  0
  190.5650  175.6720  145.1080 C   0  0  0  0  0  0  0  0  0  0  0  0
  190.7240  175.0750  143.8960 N   0  0  0  0  0  0  0  0  0  0  0  0
  187.9840  177.5480  146.8980 C   0  0  0  0  0  3  0  0  0  0  0  0
  195.3230  175.2730  146.0320 C   0  0  0  0  0  3  0  0  0  0  0  0
  195.4690  173.9100  145.7490 C   0  0  0  0  0  0  0  0  0  0  0  0
  193.0600  173.6710  145.6890 C   0  0  0  0  0  3  0  0  0  0  0  0
  194.0460  175.8320  146.1390 C   0  0  0  0  0  3  0  0  0  0  0  0
  192.9070  175.0380  145.9670 C   0  0  0  0  0  0  0  0  0  0  0  0
  194.3350  173.1090  145.5810 C   0  0  0  0  0  3  0  0  0  0  0  0
  196.8290  173.3100  145.6510 C   0  0  0  0  0  2  0  0  0  0  0  0
  196.7670  171.8230  145.9440 C   0  0  0  0  0  1  0  0  0  0  0  0
  189.9610  174.4080  141.6520 C   0  0  2  0  0  3  0  0  0  0  0  0
  188.6710  174.3500  140.8550 C   0  0  0  0  0  1  0  0  0  0  0  0
  190.6130  172.7300  141.9150 S   0  0  0  0  0  0  0  0  0  0  0  0
  192.0960  173.0580  140.9170 C   0  0  1  0  0  3  0  0  0  0  0  0
  191.9650  174.2860  140.2970 F   0  0  0  0  0  0  0  0  0  0  0  0
  193.3380  173.0720  141.8100 C   0  0  0  0  0  2  0  0  0  0  0  0
  194.3880  173.9980  141.3580 N   0  0  0  0  0  0  0  0  0  0  0  0
  193.7830  176.1180  142.3970 C   0  0  0  0  0  2  0  0  0  0  0  0
  194.7440  174.9430  142.4140 C   0  0  0  0  0  3  0  0  0  0  0  0
  195.1620  176.2650  141.7980 C   0  0  0  0  0  2  0  0  0  0  0  0
  195.8070  173.1110  140.8660 S   0  0  0  0  0  0  0  0  0  0  0  0
  196.9060  173.2830  141.8790 O   0  0  0  0  0  0  0  0  0  0  0  0
  195.4750  171.6490  140.7420 O   0  0  0  0  0  0  0  0  0  0  0  0
  196.3690  173.7180  139.2860 C   0  0  1  0  0  3  0  0  0  0  0  0
  197.9370  175.3680  138.2240 C   0  0  0  0  0  3  0  0  0  0  0  0
  195.7680  174.9380  137.2280 C   0  0  0  0  0  2  0  0  0  0  0  0
  197.0860  175.5490  137.2680 N   0  0  0  0  0  0  0  0  0  0  0  0
  195.2780  174.5370  138.6160 C   0  0  0  0  0  2  0  0  0  0  0  0
  197.6070  174.5880  139.4710 C   0  0  0  0  0  2  0  0  0  0  0  0
  2  7  1  0  0  0  0
  2  9  1  0  0  0  0
  3 13  1  0  0  0  0
  4 11  2  0  0  0  0
  4 15  1  0  0  0  0
  5  9  2  0  0  0  0
  5 16  1  0  0  0  0
  6  2  2  0  0  0  0
  8  5  1  0  0  0  0
 10  6  1  0  0  0  0
 10  8  2  0  0  0  0
 11 12  1  0  0  0  0
 12  8  1  0  0  0  0
 12  3  2  0  0  0  0
 13 16  2  0  0  0  0
 14  3  1  0  0  0  0
 14  1  1  0  0  0  0
 15 14  2  0  0  0  0
 17 20  1  0  0  0  0
 18 17  2  0  0  0  0
 19 21  1  0  0  0  0
 21  1  1  0  0  0  0
 21 20  2  0  0  0  0
 22 19  2  0  0  0  0
 22 18  1  0  0  0  0
 23 18  1  0  0  0  0
 23 24  1  0  0  0  0
 25 26  1  1  0  0  0
 25 27  1  0  0  0  0
 25  4  1  0  0  0  0
 28 29  1  1  0  0  0
 28 30  1  0  0  0  0
 28 27  1  0  0  0  0
 31 30  1  0  0  0  0
 31 33  1  0  0  0  0
 32 33  1  0  0  0  0
 34 32  1  0  0  0  0
 34 33  1  0  0  0  0
 35 31  1  0  0  0  0
 35 36  2  0  0  0  0
 37 35  2  0  0  0  0
 38 43  1  0  0  0  0
 38 35  1  1  0  0  0
 39 43  1  0  0  0  0
 40 41  1  0  0  0  0
 40 42  1  0  0  0  0
 41 39  2  0  0  0  0
 42 38  1  0  0  0  0
M  END
>  <MODEL>
2

>  <REMARK>
 VINA RESULT:      -7.8      3.780      8.194
  Name = 
  10 active torsions:
  status: ('A' for Active; 'I' for Inactive)
    1  A    between atoms: N_1  and  C_35
    2  A    between atoms: C_2  and  S_6
    3  A    between atoms: C_2  and  C_13
    4  A    between atoms: C_3  and  N_4
    5  A    between atoms: C_3  and  C_12
    6  A    between atoms: N_4  and  S_14
    7  A    between atoms: N_4  and  C_15
    8  A    between atoms: S_6  and  C_12
    9  A    between atoms: C_11  and  S_14
   10  A    between atoms: C_19  and  C_25
                            x       y       z     vdW  Elec       q    Type
                         _______ _______ _______ _____ _____    ______ ____

>  <TORSDO>
F 10

$$$$
=
 OpenBabel11052421063D

 43 48  0  0  1  0  0  0  0  0999 V2000
  192.3080  176.3090  145.9930 N   0  0  0  0  0  2  0  0  0  0  0  0
  185.1570  177.9990  146.9920 C   0  0  0  0  0  0  0  0  0  0  0  0
  189.8760  176.6140  145.9240 C   0  0  0  0  0  0  0  0  0  0  0  0
  189.7510  175.0910  143.6290 C   0  0  0  0  0  0  0  0  0  0  0  0
  187.5560  177.6790  147.0200 C   0  0  0  0  0  0  0  0  0  0  0  0
  185.0650  177.2300  145.8290 C   0  0  0  0  0  3  0  0  0  0  0  0
  184.0390  178.5280  147.5440 F   0  0  0  0  0  0  0  0  0  0  0  0
  187.4700  176.9010  145.8440 C   0  0  0  0  0  0  0  0  0  0  0  0
  186.4020  178.2230  147.5880 C   0  0  0  0  0  3  0  0  0  0  0  0
  186.2160  176.6830  145.2550 C   0  0  0  0  0  3  0  0  0  0  0  0
  188.6090  175.6080  144.1590 N   0  0  0  0  0  0  0  0  0  0  0  0
  188.6430  176.3630  145.2900 C   0  0  0  0  0  0  0  0  0  0  0  0
  189.9240  177.3670  147.0570 N   0  0  0  0  0  0  0  0  0  0  0  0
  191.0390  176.0700  145.3650 C   0  0  0  0  0  0  0  0  0  0  0  0
  190.9460  175.3240  144.2320 N   0  0  0  0  0  0  0  0  0  0  0  0
  188.8010  177.8980  147.6110 C   0  0  0  0  0  3  0  0  0  0  0  0
  195.5670  176.1350  144.1940 C   0  0  0  0  0  3  0  0  0  0  0  0
  196.1130  174.9490  144.6990 C   0  0  0  0  0  0  0  0  0  0  0  0
  194.1480  174.6420  146.0790 C   0  0  0  0  0  3  0  0  0  0  0  0
  194.3120  176.5690  144.6290 C   0  0  0  0  0  3  0  0  0  0  0  0
  193.5920  175.8270  145.5730 C   0  0  0  0  0  0  0  0  0  0  0  0
  195.4030  174.2060  145.6460 C   0  0  0  0  0  3  0  0  0  0  0  0
  197.4580  174.4960  144.2470 C   0  0  0  0  0  2  0  0  0  0  0  0
  197.9410  175.3570  143.0960 C   0  0  0  0  0  1  0  0  0  0  0  0
  189.7040  174.2570  142.3940 C   0  0  2  0  0  3  0  0  0  0  0  0
  188.8970  174.9510  141.3120 C   0  0  0  0  0  1  0  0  0  0  0  0
  188.9880  172.6260  142.7620 S   0  0  0  0  0  0  0  0  0  0  0  0
  190.4030  171.7460  142.0370 C   0  0  1  0  0  3  0  0  0  0  0  0
  190.7040  172.3040  140.8090 F   0  0  0  0  0  0  0  0  0  0  0  0
  191.6190  171.8610  142.9570 C   0  0  0  0  0  2  0  0  0  0  0  0
  192.8970  171.9970  142.2410 N   0  0  0  0  0  0  0  0  0  0  0  0
  193.2890  174.3330  141.6620 C   0  0  0  0  0  2  0  0  0  0  0  0
  193.5960  173.2170  142.6440 C   0  0  0  0  0  3  0  0  0  0  0  0
  194.6080  173.6010  141.5800 C   0  0  0  0  0  2  0  0  0  0  0  0
  193.9150  170.6150  142.5480 S   0  0  0  0  0  0  0  0  0  0  0  0
  193.0760  169.3780  142.7230 O   0  0  0  0  0  0  0  0  0  0  0  0
  194.8590  170.4120  141.3940 O   0  0  0  0  0  0  0  0  0  0  0  0
  194.8620  170.8920  144.0340 C   0  0  1  0  0  3  0  0  0  0  0  0
  197.2030  170.8720  144.9440 C   0  0  0  0  0  3  0  0  0  0  0  0
  195.3570  170.1180  146.3240 C   0  0  0  0  0  2  0  0  0  0  0  0
  196.7500  170.4530  146.0790 N   0  0  0  0  0  0  0  0  0  0  0  0
  194.6130  169.7770  145.0360 C   0  0  0  0  0  2  0  0  0  0  0  0
  196.3480  170.9480  143.7030 C   0  0  0  0  0  2  0  0  0  0  0  0
  2  7  1  0  0  0  0
  2  9  1  0  0  0  0
  3 13  1  0  0  0  0
  4 11  2  0  0  0  0
  4 15  1  0  0  0  0
  5  9  2  0  0  0  0
  5 16  1  0  0  0  0
  6  2  2  0  0  0  0
  8  5  1  0  0  0  0
 10  6  1  0  0  0  0
 10  8  2  0  0  0  0
 11 12  1  0  0  0  0
 12  8  1  0  0  0  0
 12  3  2  0  0  0  0
 13 16  2  0  0  0  0
 14  3  1  0  0  0  0
 14  1  1  0  0  0  0
 15 14  2  0  0  0  0
 17 20  2  0  0  0  0
 17 18  1  0  0  0  0
 18 22  2  0  0  0  0
 20 21  1  0  0  0  0
 21  1  1  0  0  0  0
 21 19  2  0  0  0  0
 22 19  1  0  0  0  0
 23 18  1  0  0  0  0
 24 23  1  0  0  0  0
 25 26  1  6  0  0  0
 25 27  1  0  0  0  0
 25  4  1  0  0  0  0
 28 29  1  6  0  0  0
 28 27  1  0  0  0  0
 28 30  1  0  0  0  0
 31 35  1  0  0  0  0
 31 33  1  0  0  0  0
 31 30  1  0  0  0  0
 32 33  1  0  0  0  0
 34 32  1  0  0  0  0
 34 33  1  0  0  0  0
 35 36  2  0  0  0  0
 37 35  2  0  0  0  0
 38 35  1  6  0  0  0
 38 42  1  0  0  0  0
 39 41  2  0  0  0  0
 41 40  1  0  0  0  0
 42 40  1  0  0  0  0
 43 38  1  0  0  0  0
 43 39  1  0  0  0  0
M  END
>  <MODEL>
3

>  <REMARK>
 VINA RESULT:      -7.8      3.435      8.240
  Name = 
  10 active torsions:
  status: ('A' for Active; 'I' for Inactive)
    1  A    between atoms: N_1  and  C_35
    2  A    between atoms: C_2  and  S_6
    3  A    between atoms: C_2  and  C_13
    4  A    between atoms: C_3  and  N_4
    5  A    between atoms: C_3  and  C_12
    6  A    between atoms: N_4  and  S_14
    7  A    between atoms: N_4  and  C_15
    8  A    between atoms: S_6  and  C_12
    9  A    between atoms: C_11  and  S_14
   10  A    between atoms: C_19  and  C_25
                            x       y       z     vdW  Elec       q    Type
                         _______ _______ _______ _____ _____    ______ ____

>  <TORSDO>
F 10

$$$$
=
 OpenBabel11052421063D

 43 48  0  0  1  0  0  0  0  0999 V2000
  188.8030  174.2040  139.3330 N   0  0  0  0  0  2  0  0  0  0  0  0
  185.9410  179.0810  144.1310 C   0  0  0  0  0  0  0  0  0  0  0  0
  188.0510  175.5330  141.2520 C   0  0  0  0  0  0  0  0  0  0  0  0
  189.2780  173.7540  142.9640 C   0  0  0  0  0  0  0  0  0  0  0  0
  186.6980  177.7380  142.2650 C   0  0  0  0  0  0  0  0  0  0  0  0
  186.5550  178.1960  145.0210 C   0  0  0  0  0  3  0  0  0  0  0  0
  185.2770  180.1630  144.6030 F   0  0  0  0  0  0  0  0  0  0  0  0
  187.3210  176.8390  143.1590 C   0  0  0  0  0  0  0  0  0  0  0  0
  186.0130  178.8530  142.7530 C   0  0  0  0  0  3  0  0  0  0  0  0
  187.2420  177.0780  144.5400 C   0  0  0  0  0  3  0  0  0  0  0  0
  188.6180  174.8320  143.4700 N   0  0  0  0  0  0  0  0  0  0  0  0
  188.0040  175.7250  142.6470 C   0  0  0  0  0  0  0  0  0  0  0  0
  187.4410  176.4190  140.4180 N   0  0  0  0  0  0  0  0  0  0  0  0
  188.7370  174.4210  140.7510 C   0  0  0  0  0  0  0  0  0  0  0  0
  189.3330  173.5600  141.6210 N   0  0  0  0  0  0  0  0  0  0  0  0
  186.7730  177.5050  140.8910 C   0  0  0  0  0  3  0  0  0  0  0  0
  191.3250  172.4000  137.2660 C   0  0  0  0  0  3  0  0  0  0  0  0
  190.8220  171.0940  137.2720 C   0  0  0  0  0  0  0  0  0  0  0  0
  188.9700  171.8220  138.6510 C   0  0  0  0  0  3  0  0  0  0  0  0
  190.6480  173.4140  137.9490 C   0  0  0  0  0  3  0  0  0  0  0  0
  189.4660  173.1340  138.6450 C   0  0  0  0  0  0  0  0  0  0  0  0
  189.6450  170.8060  137.9690 C   0  0  0  0  0  3  0  0  0  0  0  0
  191.5530  170.0100  136.5590 C   0  0  0  0  0  2  0  0  0  0  0  0
  191.1770  168.6580  137.1350 C   0  0  0  0  0  1  0  0  0  0  0  0
  189.9560  172.7860  143.8730 C   0  0  2  0  0  3  0  0  0  0  0  0
  190.3400  173.4590  145.1790 C   0  0  0  0  0  1  0  0  0  0  0  0
  191.4320  172.0930  143.0660 S   0  0  0  0  0  0  0  0  0  0  0  0
  192.5490  172.7870  144.3200 C   0  0  1  0  0  3  0  0  0  0  0  0
  193.0200  171.7680  145.1240 F   0  0  0  0  0  0  0  0  0  0  0  0
  193.7290  173.4840  143.6420 C   0  0  0  0  0  2  0  0  0  0  0  0
  194.4950  174.3650  144.5380 N   0  0  0  0  0  0  0  0  0  0  0  0
  196.1410  172.7870  145.4000 C   0  0  0  0  0  2  0  0  0  0  0  0
  195.9140  174.0120  144.5330 C   0  0  0  0  0  3  0  0  0  0  0  0
  196.4820  174.1590  145.9330 C   0  0  0  0  0  2  0  0  0  0  0  0
  194.3080  176.0310  144.0550 S   0  0  0  0  0  0  0  0  0  0  0  0
  195.5840  176.7900  144.2980 O   0  0  0  0  0  0  0  0  0  0  0  0
  193.9620  176.1010  142.5930 O   0  0  0  0  0  0  0  0  0  0  0  0
  192.9950  176.7790  145.0020 C   0  0  1  0  0  3  0  0  0  0  0  0
  191.5270  176.4240  147.0100 C   0  0  0  0  0  3  0  0  0  0  0  0
  190.6340  177.4920  145.0240 C   0  0  0  0  0  2  0  0  0  0  0  0
  190.5600  177.0260  146.3980 N   0  0  0  0  0  0  0  0  0  0  0  0
  191.6930  176.7460  144.2190 C   0  0  0  0  0  2  0  0  0  0  0  0
  192.8100  176.0330  146.3180 C   0  0  0  0  0  2  0  0  0  0  0  0
  1 14  1  0  0  0  0
  2  7  1  0  0  0  0
  2  6  1  0  0  0  0
  3 12  1  0  0  0  0
  4 11  2  0  0  0  0
  4 25  1  0  0  0  0
  5  9  1  0  0  0  0
  5  8  1  0  0  0  0
  8 10  1  0  0  0  0
  9  2  2  0  0  0  0
 10  6  2  0  0  0  0
 12  8  2  0  0  0  0
 12 11  1  0  0  0  0
 13 16  1  0  0  0  0
 13  3  2  0  0  0  0
 14  3  1  0  0  0  0
 14 15  2  0  0  0  0
 15  4  1  0  0  0  0
 16  5  2  0  0  0  0
 17 18  2  0  0  0  0
 17 20  1  0  0  0  0
 18 22  1  0  0  0  0
 20 21  2  0  0  0  0
 21 19  1  0  0  0  0
 21  1  1  0  0  0  0
 22 19  2  0  0  0  0
 23 24  1  0  0  0  0
 23 18  1  0  0  0  0
 25 26  1  1  0  0  0
 27 25  1  0  0  0  0
 27 28  1  0  0  0  0
 28 29  1  1  0  0  0
 30 28  1  0  0  0  0
 30 31  1  0  0  0  0
 32 34  1  0  0  0  0
 33 31  1  0  0  0  0
 33 32  1  0  0  0  0
 33 34  1  0  0  0  0
 35 36  2  0  0  0  0
 35 31  1  0  0  0  0
 37 35  2  0  0  0  0
 38 35  1  6  0  0  0
 38 43  1  0  0  0  0
 40 41  1  0  0  0  0
 41 39  2  0  0  0  0
 42 38  1  0  0  0  0
 42 40  1  0  0  0  0
 43 39  1  0  0  0  0
M  END
>  <MODEL>
4

>  <REMARK>
 VINA RESULT:      -7.8      2.069      6.370
  Name = 
  10 active torsions:
  status: ('A' for Active; 'I' for Inactive)
    1  A    between atoms: N_1  and  C_35
    2  A    between atoms: C_2  and  S_6
    3  A    between atoms: C_2  and  C_13
    4  A    between atoms: C_3  and  N_4
    5  A    between atoms: C_3  and  C_12
    6  A    between atoms: N_4  and  S_14
    7  A    between atoms: N_4  and  C_15
    8  A    between atoms: S_6  and  C_12
    9  A    between atoms: C_11  and  S_14
   10  A    between atoms: C_19  and  C_25
                            x       y       z     vdW  Elec       q    Type
                         _______ _______ _______ _____ _____    ______ ____

>  <TORSDO>
F 10

$$$$
=
 OpenBabel11052421063D

 43 48  0  0  1  0  0  0  0  0999 V2000
  191.5990  175.6820  146.1100 N   0  0  0  0  0  2  0  0  0  0  0  0
  184.6890  178.2970  145.4720 C   0  0  0  0  0  0  0  0  0  0  0  0
  189.3310  176.3540  145.4620 C   0  0  0  0  0  0  0  0  0  0  0  0
  189.6760  175.1480  143.0070 C   0  0  0  0  0  0  0  0  0  0  0  0
  186.9340  177.6200  146.0710 C   0  0  0  0  0  0  0  0  0  0  0  0
  184.8360  177.6930  144.2210 C   0  0  0  0  0  3  0  0  0  0  0  0
  183.5280  178.9190  145.7910 F   0  0  0  0  0  0  0  0  0  0  0  0
  187.0900  177.0060  144.8070 C   0  0  0  0  0  0  0  0  0  0  0  0
  185.7370  178.2600  146.3980 C   0  0  0  0  0  3  0  0  0  0  0  0
  186.0320  177.0500  143.8870 C   0  0  0  0  0  3  0  0  0  0  0  0
  188.4980  175.7640  143.2970 N   0  0  0  0  0  0  0  0  0  0  0  0
  188.3020  176.3670  144.5000 C   0  0  0  0  0  0  0  0  0  0  0  0
  189.1480  176.9540  146.6700 N   0  0  0  0  0  0  0  0  0  0  0  0
  190.5350  175.7120  145.1460 C   0  0  0  0  0  0  0  0  0  0  0  0
  190.6750  175.1260  143.9270 N   0  0  0  0  0  0  0  0  0  0  0  0
  187.9840  177.5790  146.9900 C   0  0  0  0  0  3  0  0  0  0  0  0
  195.3030  175.2710  146.0920 C   0  0  0  0  0  3  0  0  0  0  0  0
  195.4420  173.9320  145.7090 C   0  0  0  0  0  0  0  0  0  0  0  0
  193.0330  173.7220  145.5890 C   0  0  0  0  0  3  0  0  0  0  0  0
  194.0290  175.8330  146.2180 C   0  0  0  0  0  3  0  0  0  0  0  0
  192.8860  175.0650  145.9670 C   0  0  0  0  0  0  0  0  0  0  0  0
  194.3050  173.1570  145.4620 C   0  0  0  0  0  3  0  0  0  0  0  0
  196.7990  173.3270  145.5900 C   0  0  0  0  0  2  0  0  0  0  0  0
  196.7460  171.8520  145.9370 C   0  0  0  0  0  1  0  0  0  0  0  0
  189.8790  174.4810  141.6890 C   0  0  2  0  0  3  0  0  0  0  0  0
  188.5630  174.3650  140.9410 C   0  0  0  0  0  1  0  0  0  0  0  0
  190.6150  172.8340  141.9230 S   0  0  0  0  0  0  0  0  0  0  0  0
  191.1300  172.7230  140.1830 C   0  0  1  0  0  3  0  0  0  0  0  0
  191.5780  173.9600  139.7620 F   0  0  0  0  0  0  0  0  0  0  0  0
  192.2560  171.6990  140.0340 C   0  0  0  0  0  2  0  0  0  0  0  0
  193.3860  171.9180  140.9500 N   0  0  0  0  0  0  0  0  0  0  0  0
  193.2460  170.4240  142.8710 C   0  0  0  0  0  2  0  0  0  0  0  0
  193.8650  170.6520  141.5040 C   0  0  0  0  0  3  0  0  0  0  0  0
  194.6700  170.9180  142.7630 C   0  0  0  0  0  2  0  0  0  0  0  0
  194.6930  172.7210  140.1180 S   0  0  0  0  0  0  0  0  0  0  0  0
  195.9500  171.8990  140.2080 O   0  0  0  0  0  0  0  0  0  0  0  0
  194.3320  172.9140  138.6710 O   0  0  0  0  0  0  0  0  0  0  0  0
  194.9820  174.3140  140.8660 C   0  0  1  0  0  3  0  0  0  0  0  0
  196.5910  175.5710  142.3300 C   0  0  0  0  0  3  0  0  0  0  0  0
  194.2060  175.9740  142.5180 C   0  0  0  0  0  2  0  0  0  0  0  0
  195.6010  176.2290  142.8390 N   0  0  0  0  0  0  0  0  0  0  0  0
  193.9870  174.5600  141.9880 C   0  0  0  0  0  2  0  0  0  0  0  0
  196.3980  174.3790  141.4260 C   0  0  0  0  0  2  0  0  0  0  0  0
  2  7  1  0  0  0  0
  2  9  1  0  0  0  0
  3 13  1  0  0  0  0
  4 11  2  0  0  0  0
  4 15  1  0  0  0  0
  5  9  2  0  0  0  0
  5 16  1  0  0  0  0
  6  2  2  0  0  0  0
  8  5  1  0  0  0  0
 10  6  1  0  0  0  0
 10  8  2  0  0  0  0
 11 12  1  0  0  0  0
 12  8  1  0  0  0  0
 12  3  2  0  0  0  0
 13 16  2  0  0  0  0
 14  3  1  0  0  0  0
 14  1  1  0  0  0  0
 15 14  2  0  0  0  0
 17 20  1  0  0  0  0
 18 17  2  0  0  0  0
 19 21  1  0  0  0  0
 21  1  1  0  0  0  0
 21 20  2  0  0  0  0
 22 19  2  0  0  0  0
 22 18  1  0  0  0  0
 23 18  1  0  0  0  0
 23 24  1  0  0  0  0
 25 26  1  1  0  0  0
 25 27  1  0  0  0  0
 25  4  1  0  0  0  0
 28 29  1  1  0  0  0
 28 27  1  0  0  0  0
 30 28  1  0  0  0  0
 30 31  1  0  0  0  0
 31 33  1  0  0  0  0
 33 34  1  0  0  0  0
 33 32  1  0  0  0  0
 34 32  1  0  0  0  0
 35 36  2  0  0  0  0
 35 31  1  0  0  0  0
 37 35  2  0  0  0  0
 38 35  1  1  0  0  0
 38 43  1  0  0  0  0
 38 42  1  0  0  0  0
 39 41  2  0  0  0  0
 40 41  1  0  0  0  0
 42 40  1  0  0  0  0
 43 39  1  0  0  0  0
M  END
>  <MODEL>
5

>  <REMARK>
 VINA RESULT:      -7.7      3.185      7.804
  Name = 
  10 active torsions:
  status: ('A' for Active; 'I' for Inactive)
    1  A    between atoms: N_1  and  C_35
    2  A    between atoms: C_2  and  S_6
    3  A    between atoms: C_2  and  C_13
    4  A    between atoms: C_3  and  N_4
    5  A    between atoms: C_3  and  C_12
    6  A    between atoms: N_4  and  S_14
    7  A    between atoms: N_4  and  C_15
    8  A    between atoms: S_6  and  C_12
    9  A    between atoms: C_11  and  S_14
   10  A    between atoms: C_19  and  C_25
                            x       y       z     vdW  Elec       q    Type
                         _______ _______ _______ _____ _____    ______ ____

>  <TORSDO>
F 10

$$$$
=
 OpenBabel11052421063D

 43 48  0  0  1  0  0  0  0  0999 V2000
  189.0310  174.1310  139.9780 N   0  0  0  0  0  2  0  0  0  0  0  0
  185.7370  179.4550  143.9520 C   0  0  0  0  0  0  0  0  0  0  0  0
  188.1250  175.6600  141.6680 C   0  0  0  0  0  0  0  0  0  0  0  0
  189.3060  174.1590  143.6570 C   0  0  0  0  0  0  0  0  0  0  0  0
  186.6440  177.9190  142.3160 C   0  0  0  0  0  0  0  0  0  0  0  0
  186.3250  178.7140  144.9810 C   0  0  0  0  0  3  0  0  0  0  0  0
  185.0110  180.5610  144.2460 F   0  0  0  0  0  0  0  0  0  0  0  0
  187.2420  177.1650  143.3510 C   0  0  0  0  0  0  0  0  0  0  0  0
  185.8960  179.0590  142.6210 C   0  0  0  0  0  3  0  0  0  0  0  0
  187.0750  177.5720  144.6830 C   0  0  0  0  0  3  0  0  0  0  0  0
  188.5830  175.2650  143.9840 N   0  0  0  0  0  0  0  0  0  0  0  0
  187.9900  176.0230  143.0230 C   0  0  0  0  0  0  0  0  0  0  0  0
  187.5370  176.4090  140.6960 N   0  0  0  0  0  0  0  0  0  0  0  0
  188.8750  174.5210  141.3510 C   0  0  0  0  0  0  0  0  0  0  0  0
  189.4460  173.8010  142.3540 N   0  0  0  0  0  0  0  0  0  0  0  0
  186.8080  177.5190  140.9900 C   0  0  0  0  0  3  0  0  0  0  0  0
  189.7370  170.8100  138.4410 C   0  0  0  0  0  3  0  0  0  0  0  0
  191.1370  170.7780  138.4540 C   0  0  0  0  0  0  0  0  0  0  0  0
  191.1700  172.9740  139.4730 C   0  0  0  0  0  3  0  0  0  0  0  0
  189.0580  171.9220  138.9480 C   0  0  0  0  0  3  0  0  0  0  0  0
  189.7670  173.0100  139.4690 C   0  0  0  0  0  0  0  0  0  0  0  0
  191.8520  171.8640  138.9670 C   0  0  0  0  0  3  0  0  0  0  0  0
  191.8610  169.6010  137.8980 C   0  0  0  0  0  2  0  0  0  0  0  0
  190.8710  168.5680  137.3940 C   0  0  0  0  0  1  0  0  0  0  0  0
  189.9610  173.3400  144.7170 C   0  0  2  0  0  3  0  0  0  0  0  0
  189.5740  173.8440  146.0960 C   0  0  0  0  0  1  0  0  0  0  0  0
  191.7680  173.3810  144.5180 S   0  0  0  0  0  0  0  0  0  0  0  0
  191.9240  174.9230  145.4670 C   0  0  1  0  0  3  0  0  0  0  0  0
  192.6690  174.6840  146.6050 F   0  0  0  0  0  0  0  0  0  0  0  0
  192.6200  175.9910  144.6220 C   0  0  0  0  0  2  0  0  0  0  0  0
  193.8260  175.5110  143.9290 N   0  0  0  0  0  0  0  0  0  0  0  0
  193.0500  175.1050  141.6540 C   0  0  0  0  0  2  0  0  0  0  0  0
  193.8740  176.0070  142.5550 C   0  0  0  0  0  3  0  0  0  0  0  0
  194.5560  174.9840  141.6660 C   0  0  0  0  0  2  0  0  0  0  0  0
  195.2590  176.0200  144.7830 S   0  0  0  0  0  0  0  0  0  0  0  0
  196.0720  176.9530  143.9270 O   0  0  0  0  0  0  0  0  0  0  0  0
  194.8690  176.7290  146.0520 O   0  0  0  0  0  0  0  0  0  0  0  0
  196.2460  174.5930  145.1920 C   0  0  1  0  0  3  0  0  0  0  0  0
  197.9370  172.9960  144.2430 C   0  0  0  0  0  3  0  0  0  0  0  0
  196.2400  172.1960  145.7790 C   0  0  0  0  0  2  0  0  0  0  0  0
  197.4240  172.0440  144.9510 N   0  0  0  0  0  0  0  0  0  0  0  0
  195.3650  173.3610  145.3240 C   0  0  0  0  0  2  0  0  0  0  0  0
  197.2880  174.3510  144.1060 C   0  0  0  0  0  2  0  0  0  0  0  0
  1 14  1  0  0  0  0
  2  7  1  0  0  0  0
  2  6  1  0  0  0  0
  3 12  1  0  0  0  0
  4 11  2  0  0  0  0
  4 25  1  0  0  0  0
  5  9  1  0  0  0  0
  5  8  1  0  0  0  0
  8 10  1  0  0  0  0
  9  2  2  0  0  0  0
 10  6  2  0  0  0  0
 12  8  2  0  0  0  0
 12 11  1  0  0  0  0
 13 16  1  0  0  0  0
 13  3  2  0  0  0  0
 14  3  1  0  0  0  0
 14 15  2  0  0  0  0
 15  4  1  0  0  0  0
 16  5  2  0  0  0  0
 17 18  2  0  0  0  0
 17 20  1  0  0  0  0
 18 22  1  0  0  0  0
 20 21  2  0  0  0  0
 21 19  1  0  0  0  0
 21  1  1  0  0  0  0
 22 19  2  0  0  0  0
 23 18  1  0  0  0  0
 24 23  1  0  0  0  0
 25 26  1  1  0  0  0
 27 25  1  0  0  0  0
 27 28  1  0  0  0  0
 28 29  1  1  0  0  0
 30 28  1  0  0  0  0
 31 30  1  0  0  0  0
 31 35  1  0  0  0  0
 32 34  1  0  0  0  0
 32 33  1  0  0  0  0
 33 31  1  0  0  0  0
 34 33  1  0  0  0  0
 35 37  2  0  0  0  0
 36 35  2  0  0  0  0
 38 35  1  6  0  0  0
 38 42  1  0  0  0  0
 39 41  2  0  0  0  0
 41 40  1  0  0  0  0
 42 40  1  0  0  0  0
 43 39  1  0  0  0  0
 43 38  1  0  0  0  0
M  END
>  <MODEL>
6

>  <REMARK>
 VINA RESULT:      -7.6      2.677      6.969
  Name = 
  10 active torsions:
  status: ('A' for Active; 'I' for Inactive)
    1  A    between atoms: N_1  and  C_35
    2  A    between atoms: C_2  and  S_6
    3  A    between atoms: C_2  and  C_13
    4  A    between atoms: C_3  and  N_4
    5  A    between atoms: C_3  and  C_12
    6  A    between atoms: N_4  and  S_14
    7  A    between atoms: N_4  and  C_15
    8  A    between atoms: S_6  and  C_12
    9  A    between atoms: C_11  and  S_14
   10  A    between atoms: C_19  and  C_25
                            x       y       z     vdW  Elec       q    Type
                         _______ _______ _______ _____ _____    ______ ____

>  <TORSDO>
F 10

$$$$
=
 OpenBabel11052421063D

 43 48  0  0  1  0  0  0  0  0999 V2000
  191.5140  176.1010  146.2700 N   0  0  0  0  0  2  0  0  0  0  0  0
  184.5020  178.4640  145.7790 C   0  0  0  0  0  0  0  0  0  0  0  0
  189.2070  176.6820  145.6740 C   0  0  0  0  0  0  0  0  0  0  0  0
  189.5270  175.4400  143.2330 C   0  0  0  0  0  0  0  0  0  0  0  0
  186.7850  177.8760  146.3260 C   0  0  0  0  0  0  0  0  0  0  0  0
  184.6360  177.8400  144.5350 C   0  0  0  0  0  3  0  0  0  0  0  0
  183.3300  179.0510  146.1180 F   0  0  0  0  0  0  0  0  0  0  0  0
  186.9280  177.2430  145.0710 C   0  0  0  0  0  0  0  0  0  0  0  0
  185.5760  178.4810  146.6750 C   0  0  0  0  0  3  0  0  0  0  0  0
  185.8440  177.2320  144.1800 C   0  0  0  0  0  3  0  0  0  0  0  0
  188.3360  176.0210  143.5440 N   0  0  0  0  0  0  0  0  0  0  0  0
  188.1520  176.6410  144.7410 C   0  0  0  0  0  0  0  0  0  0  0  0
  189.0370  177.2990  146.8750 N   0  0  0  0  0  0  0  0  0  0  0  0
  190.4240  176.0760  145.3370 C   0  0  0  0  0  0  0  0  0  0  0  0
  190.5510  175.4710  144.1250 N   0  0  0  0  0  0  0  0  0  0  0  0
  187.8600  177.8890  147.2160 C   0  0  0  0  0  3  0  0  0  0  0  0
  195.2260  175.8370  146.0720 C   0  0  0  0  0  3  0  0  0  0  0  0
  195.4040  174.4790  145.7880 C   0  0  0  0  0  0  0  0  0  0  0  0
  193.0040  174.1640  145.8240 C   0  0  0  0  0  3  0  0  0  0  0  0
  193.9380  176.3570  146.2270 C   0  0  0  0  0  3  0  0  0  0  0  0
  192.8180  175.5270  146.1030 C   0  0  0  0  0  0  0  0  0  0  0  0
  194.2910  173.6420  145.6680 C   0  0  0  0  0  3  0  0  0  0  0  0
  196.7780  173.9210  145.6390 C   0  0  0  0  0  2  0  0  0  0  0  0
  196.8100  172.4790  146.1080 C   0  0  0  0  0  1  0  0  0  0  0  0
  189.7170  174.7550  141.9220 C   0  0  2  0  0  3  0  0  0  0  0  0
  188.5150  174.9810  141.0230 C   0  0  0  0  0  1  0  0  0  0  0  0
  189.9860  172.9740  142.1760 S   0  0  0  0  0  0  0  0  0  0  0  0
  191.7930  173.1500  142.1030 C   0  0  1  0  0  3  0  0  0  0  0  0
  192.3740  171.8970  142.1600 F   0  0  0  0  0  0  0  0  0  0  0  0
  192.2010  173.8370  140.7990 C   0  0  0  0  0  2  0  0  0  0  0  0
  193.4440  174.6170  140.8990 N   0  0  0  0  0  0  0  0  0  0  0  0
  193.3640  176.4310  142.5260 C   0  0  0  0  0  2  0  0  0  0  0  0
  193.7270  174.9760  142.2880 C   0  0  0  0  0  3  0  0  0  0  0  0
  194.8100  176.0380  142.3310 C   0  0  0  0  0  2  0  0  0  0  0  0
  194.7840  173.7100  140.2480 S   0  0  0  0  0  0  0  0  0  0  0  0
  194.2890  172.6820  139.2670 O   0  0  0  0  0  0  0  0  0  0  0  0
  195.7360  174.6420  139.5480 O   0  0  0  0  0  0  0  0  0  0  0  0
  195.6430  172.8850  141.5750 C   0  0  1  0  0  3  0  0  0  0  0  0
  197.9410  172.3520  142.4390 C   0  0  0  0  0  3  0  0  0  0  0  0
  196.1530  170.7280  142.6580 C   0  0  0  0  0  2  0  0  0  0  0  0
  197.5040  171.2170  142.8770 N   0  0  0  0  0  0  0  0  0  0  0  0
  195.4950  171.3780  141.4440 C   0  0  0  0  0  2  0  0  0  0  0  0
  197.1230  173.2500  141.5450 C   0  0  0  0  0  2  0  0  0  0  0  0
  2  7  1  0  0  0  0
  2  9  1  0  0  0  0
  3 13  1  0  0  0  0
  4 11  2  0  0  0  0
  4 15  1  0  0  0  0
  5  9  2  0  0  0  0
  5 16  1  0  0  0  0
  6  2  2  0  0  0  0
  8  5  1  0  0  0  0
 10  6  1  0  0  0  0
 10  8  2  0  0  0  0
 11 12  1  0  0  0  0
 12  8  1  0  0  0  0
 12  3  2  0  0  0  0
 13 16  2  0  0  0  0
 14  3  1  0  0  0  0
 14  1  1  0  0  0  0
 15 14  2  0  0  0  0
 17 20  1  0  0  0  0
 18 17  2  0  0  0  0
 19 21  1  0  0  0  0
 21 20  2  0  0  0  0
 21  1  1  0  0  0  0
 22 18  1  0  0  0  0
 22 19  2  0  0  0  0
 23 18  1  0  0  0  0
 23 24  1  0  0  0  0
 25 26  1  6  0  0  0
 25 27  1  0  0  0  0
 25  4  1  0  0  0  0
 28 29  1  6  0  0  0
 28 27  1  0  0  0  0
 30 31  1  0  0  0  0
 30 28  1  0  0  0  0
 31 33  1  0  0  0  0
 33 34  1  0  0  0  0
 33 32  1  0  0  0  0
 34 32  1  0  0  0  0
 35 31  1  0  0  0  0
 36 35  2  0  0  0  0
 37 35  2  0  0  0  0
 38 35  1  6  0  0  0
 39 41  2  0  0  0  0
 40 41  1  0  0  0  0
 42 38  1  0  0  0  0
 42 40  1  0  0  0  0
 43 38  1  0  0  0  0
 43 39  1  0  0  0  0
M  END
>  <MODEL>
7

>  <REMARK>
 VINA RESULT:      -7.6      3.307      8.050
  Name = 
  10 active torsions:
  status: ('A' for Active; 'I' for Inactive)
    1  A    between atoms: N_1  and  C_35
    2  A    between atoms: C_2  and  S_6
    3  A    between atoms: C_2  and  C_13
    4  A    between atoms: C_3  and  N_4
    5  A    between atoms: C_3  and  C_12
    6  A    between atoms: N_4  and  S_14
    7  A    between atoms: N_4  and  C_15
    8  A    between atoms: S_6  and  C_12
    9  A    between atoms: C_11  and  S_14
   10  A    between atoms: C_19  and  C_25
                            x       y       z     vdW  Elec       q    Type
                         _______ _______ _______ _____ _____    ______ ____

>  <TORSDO>
F 10

$$$$
=
 OpenBabel11052421063D

 43 48  0  0  1  0  0  0  0  0999 V2000
  187.6510  175.7200  141.7280 N   0  0  0  0  0  2  0  0  0  0  0  0
  190.2060  171.0040  136.6070 C   0  0  0  0  0  0  0  0  0  0  0  0
  188.7020  173.9410  140.4060 C   0  0  0  0  0  0  0  0  0  0  0  0
  189.7620  172.8570  142.7090 C   0  0  0  0  0  0  0  0  0  0  0  0
  189.1910  172.7450  137.9470 C   0  0  0  0  0  0  0  0  0  0  0  0
  190.7550  170.4330  137.7580 C   0  0  0  0  0  3  0  0  0  0  0  0
  190.4310  170.4370  135.3970 F   0  0  0  0  0  0  0  0  0  0  0  0
  189.7420  172.1730  139.1150 C   0  0  0  0  0  0  0  0  0  0  0  0
  189.4240  172.1590  136.7000 C   0  0  0  0  0  3  0  0  0  0  0  0
  190.5260  171.0140  139.0080 C   0  0  0  0  0  3  0  0  0  0  0  0
  190.0060  172.2640  141.5090 N   0  0  0  0  0  0  0  0  0  0  0  0
  189.4950  172.7780  140.3580 C   0  0  0  0  0  0  0  0  0  0  0  0
  188.1850  174.4660  139.2620 N   0  0  0  0  0  0  0  0  0  0  0  0
  188.4590  174.5350  141.6510 C   0  0  0  0  0  0  0  0  0  0  0  0
  188.9950  173.9770  142.7690 N   0  0  0  0  0  0  0  0  0  0  0  0
  188.4100  173.8980  138.0470 C   0  0  0  0  0  3  0  0  0  0  0  0
  185.5540  177.1640  144.4490 C   0  0  0  0  0  3  0  0  0  0  0  0
  186.5030  177.8640  145.2040 C   0  0  0  0  0  0  0  0  0  0  0  0
  188.2360  177.1510  143.6710 C   0  0  0  0  0  3  0  0  0  0  0  0
  185.9480  176.4640  143.3060 C   0  0  0  0  0  3  0  0  0  0  0  0
  187.2890  176.4520  142.9070 C   0  0  0  0  0  0  0  0  0  0  0  0
  187.8450  177.8530  144.8150 C   0  0  0  0  0  3  0  0  0  0  0  0
  186.0860  178.5970  146.4320 C   0  0  0  0  0  2  0  0  0  0  0  0
  184.6260  178.3190  146.7370 C   0  0  0  0  0  1  0  0  0  0  0  0
  190.3170  172.2810  143.9670 C   0  0  2  0  0  3  0  0  0  0  0  0
  189.6910  172.9450  145.1800 C   0  0  0  0  0  1  0  0  0  0  0  0
  192.1250  172.4780  144.0060 S   0  0  0  0  0  0  0  0  0  0  0  0
  192.0160  174.1000  144.8180 C   0  0  1  0  0  3  0  0  0  0  0  0
  192.8750  174.1260  145.9000 F   0  0  0  0  0  0  0  0  0  0  0  0
  192.4060  175.2060  143.8350 C   0  0  0  0  0  2  0  0  0  0  0  0
  193.5940  174.8920  143.0270 N   0  0  0  0  0  0  0  0  0  0  0  0
  192.8840  174.1420  140.8190 C   0  0  0  0  0  2  0  0  0  0  0  0
  193.4080  175.3080  141.6380 C   0  0  0  0  0  3  0  0  0  0  0  0
  194.3440  174.5210  140.7390 C   0  0  0  0  0  2  0  0  0  0  0  0
  195.0020  175.6830  143.6870 S   0  0  0  0  0  0  0  0  0  0  0  0
  195.6790  176.5120  142.6290 O   0  0  0  0  0  0  0  0  0  0  0  0
  194.5960  176.5740  144.8290 O   0  0  0  0  0  0  0  0  0  0  0  0
  196.1470  174.4530  144.2850 C   0  0  1  0  0  3  0  0  0  0  0  0
  196.5160  171.9730  144.4380 C   0  0  0  0  0  3  0  0  0  0  0  0
  197.1910  173.4160  146.2660 C   0  0  0  0  0  2  0  0  0  0  0  0
  197.0890  172.1370  145.5840 N   0  0  0  0  0  0  0  0  0  0  0  0
  196.1210  174.4010  145.8040 C   0  0  0  0  0  2  0  0  0  0  0  0
  195.7800  173.0830  143.7290 C   0  0  0  0  0  2  0  0  0  0  0  0
  1 21  1  0  0  0  0
  2  9  2  0  0  0  0
  2  6  1  0  0  0  0
  3 14  1  0  0  0  0
  4 15  1  0  0  0  0
  4 25  1  0  0  0  0
  5 16  2  0  0  0  0
  5  8  1  0  0  0  0
  6 10  2  0  0  0  0
  7  2  1  0  0  0  0
  8 12  2  0  0  0  0
  9  5  1  0  0  0  0
 10  8  1  0  0  0  0
 11  4  2  0  0  0  0
 12  3  1  0  0  0  0
 12 11  1  0  0  0  0
 13  3  2  0  0  0  0
 14  1  1  0  0  0  0
 14 15  2  0  0  0  0
 16 13  1  0  0  0  0
 17 18  1  0  0  0  0
 18 23  1  0  0  0  0
 19 22  1  0  0  0  0
 20 17  2  0  0  0  0
 21 20  1  0  0  0  0
 21 19  2  0  0  0  0
 22 18  2  0  0  0  0
 23 24  1  0  0  0  0
 25 27  1  0  0  0  0
 25 26  1  1  0  0  0
 27 28  1  0  0  0  0
 28 29  1  1  0  0  0
 30 28  1  0  0  0  0
 31 35  1  0  0  0  0
 31 30  1  0  0  0  0
 32 33  1  0  0  0  0
 33 31  1  0  0  0  0
 34 32  1  0  0  0  0
 34 33  1  0  0  0  0
 35 37  2  0  0  0  0
 36 35  2  0  0  0  0
 38 35  1  6  0  0  0
 38 42  1  0  0  0  0
 39 41  2  0  0  0  0
 41 40  1  0  0  0  0
 42 40  1  0  0  0  0
 43 38  1  0  0  0  0
 43 39  1  0  0  0  0
M  END
>  <MODEL>
8

>  <REMARK>
 VINA RESULT:      -7.5      1.545      2.918
  Name = 
  10 active torsions:
  status: ('A' for Active; 'I' for Inactive)
    1  A    between atoms: N_1  and  C_35
    2  A    between atoms: C_2  and  S_6
    3  A    between atoms: C_2  and  C_13
    4  A    between atoms: C_3  and  N_4
    5  A    between atoms: C_3  and  C_12
    6  A    between atoms: N_4  and  S_14
    7  A    between atoms: N_4  and  C_15
    8  A    between atoms: S_6  and  C_12
    9  A    between atoms: C_11  and  S_14
   10  A    between atoms: C_19  and  C_25
                            x       y       z     vdW  Elec       q    Type
                         _______ _______ _______ _____ _____    ______ ____

>  <TORSDO>
F 10

$$$$
=
 OpenBabel11052421063D

 43 48  0  0  1  0  0  0  0  0999 V2000
  187.8710  175.3220  140.5700 N   0  0  0  0  0  2  0  0  0  0  0  0
  191.0000  170.1200  136.3110 C   0  0  0  0  0  0  0  0  0  0  0  0
  189.1470  173.4870  139.5590 C   0  0  0  0  0  0  0  0  0  0  0  0
  190.3860  173.0170  141.9760 C   0  0  0  0  0  0  0  0  0  0  0  0
  189.7660  171.9260  137.3460 C   0  0  0  0  0  0  0  0  0  0  0  0
  191.6430  169.8580  137.5240 C   0  0  0  0  0  3  0  0  0  0  0  0
  191.2860  169.3700  135.2190 F   0  0  0  0  0  0  0  0  0  0  0  0
  190.4110  171.6680  138.5760 C   0  0  0  0  0  0  0  0  0  0  0  0
  190.0620  171.1520  136.2210 C   0  0  0  0  0  3  0  0  0  0  0  0
  191.3510  170.6290  138.6530 C   0  0  0  0  0  3  0  0  0  0  0  0
  190.6950  172.2460  140.8980 N   0  0  0  0  0  0  0  0  0  0  0  0
  190.0980  172.4570  139.6940 C   0  0  0  0  0  0  0  0  0  0  0  0
  188.5420  173.7090  138.3590 N   0  0  0  0  0  0  0  0  0  0  0  0
  188.8400  174.2670  140.6800 C   0  0  0  0  0  0  0  0  0  0  0  0
  189.4680  174.0110  141.8590 N   0  0  0  0  0  0  0  0  0  0  0  0
  188.8290  172.9580  137.2630 C   0  0  0  0  0  3  0  0  0  0  0  0
  187.3630  178.4570  142.5200 C   0  0  0  0  0  3  0  0  0  0  0  0
  186.5940  178.0040  143.5980 C   0  0  0  0  0  0  0  0  0  0  0  0
  186.6490  175.7620  142.6870 C   0  0  0  0  0  3  0  0  0  0  0  0
  187.7770  177.5600  141.5310 C   0  0  0  0  0  3  0  0  0  0  0  0
  187.4260  176.2070  141.6070 C   0  0  0  0  0  0  0  0  0  0  0  0
  186.2340  176.6560  143.6780 C   0  0  0  0  0  3  0  0  0  0  0  0
  186.1380  178.9630  144.6430 C   0  0  0  0  0  2  0  0  0  0  0  0
  184.6370  178.8530  144.8350 C   0  0  0  0  0  1  0  0  0  0  0  0
  191.0370  172.7720  143.2950 C   0  0  2  0  0  3  0  0  0  0  0  0
  192.0930  171.6880  143.1750 C   0  0  0  0  0  1  0  0  0  0  0  0
  189.7920  172.3040  144.5360 S   0  0  0  0  0  0  0  0  0  0  0  0
  189.8380  173.9400  145.3240 C   0  0  1  0  0  3  0  0  0  0  0  0
  189.4010  173.8280  146.6310 F   0  0  0  0  0  0  0  0  0  0  0  0
  191.2660  174.4880  145.3130 C   0  0  0  0  0  2  0  0  0  0  0  0
  191.3940  175.8050  144.6690 N   0  0  0  0  0  0  0  0  0  0  0  0
  189.4280  177.0550  145.3860 C   0  0  0  0  0  2  0  0  0  0  0  0
  190.9260  176.8700  145.5540 C   0  0  0  0  0  3  0  0  0  0  0  0
  190.3850  178.0210  144.7270 C   0  0  0  0  0  2  0  0  0  0  0  0
  193.0550  176.1040  144.2270 S   0  0  0  0  0  0  0  0  0  0  0  0
  193.1530  176.4310  142.7620 O   0  0  0  0  0  0  0  0  0  0  0  0
  193.5940  177.2570  145.0280 O   0  0  0  0  0  0  0  0  0  0  0  0
  194.0310  174.6500  144.5670 C   0  0  1  0  0  3  0  0  0  0  0  0
  196.0530  173.8520  145.8260 C   0  0  0  0  0  3  0  0  0  0  0  0
  195.5390  172.9310  143.6420 C   0  0  0  0  0  2  0  0  0  0  0  0
  196.3020  173.0110  144.8760 N   0  0  0  0  0  0  0  0  0  0  0  0
  194.8100  174.2350  143.3300 C   0  0  0  0  0  2  0  0  0  0  0  0
  195.0060  174.9310  145.7050 C   0  0  0  0  0  2  0  0  0  0  0  0
  1 14  1  0  0  0  0
  1 21  1  0  0  0  0
  2  6  1  0  0  0  0
  3 12  1  0  0  0  0
  3 14  1  0  0  0  0
  4 25  1  0  0  0  0
  5  8  1  0  0  0  0
  6 10  2  0  0  0  0
  7  2  1  0  0  0  0
  8 10  1  0  0  0  0
  8 12  2  0  0  0  0
  9  2  2  0  0  0  0
  9  5  1  0  0  0  0
 11  4  2  0  0  0  0
 12 11  1  0  0  0  0
 13  3  2  0  0  0  0
 14 15  2  0  0  0  0
 15  4  1  0  0  0  0
 16  5  2  0  0  0  0
 16 13  1  0  0  0  0
 17 18  1  0  0  0  0
 18 22  2  0  0  0  0
 18 23  1  0  0  0  0
 19 22  1  0  0  0  0
 20 21  1  0  0  0  0
 20 17  2  0  0  0  0
 21 19  2  0  0  0  0
 23 24  1  0  0  0  0
 25 26  1  6  0  0  0
 25 27  1  0  0  0  0
 27 28  1  0  0  0  0
 28 29  1  1  0  0  0
 30 28  1  0  0  0  0
 31 30  1  0  0  0  0
 31 33  1  0  0  0  0
 32 33  1  0  0  0  0
 34 32  1  0  0  0  0
 34 33  1  0  0  0  0
 35 31  1  0  0  0  0
 35 37  2  0  0  0  0
 36 35  2  0  0  0  0
 38 35  1  6  0  0  0
 38 43  1  0  0  0  0
 40 41  1  0  0  0  0
 41 39  2  0  0  0  0
 42 40  1  0  0  0  0
 42 38  1  0  0  0  0
 43 39  1  0  0  0  0
M  END
>  <MODEL>
9

>  <REMARK>
 VINA RESULT:      -7.5      1.468      3.175
  Name = 
  10 active torsions:
  status: ('A' for Active; 'I' for Inactive)
    1  A    between atoms: N_1  and  C_35
    2  A    between atoms: C_2  and  S_6
    3  A    between atoms: C_2  and  C_13
    4  A    between atoms: C_3  and  N_4
    5  A    between atoms: C_3  and  C_12
    6  A    between atoms: N_4  and  S_14
    7  A    between atoms: N_4  and  C_15
    8  A    between atoms: S_6  and  C_12
    9  A    between atoms: C_11  and  S_14
   10  A    between atoms: C_19  and  C_25
                            x       y       z     vdW  Elec       q    Type
                         _______ _______ _______ _____ _____    ______ ____

>  <TORSDO>
F 10

$$$$
