=
 OpenBabel11052417343D

 25 28  0  0  1  0  0  0  0  0999 V2000
  186.3310  177.7670  143.6740 C   0  0  0  0  0  0  0  0  0  0  0  0
  185.7030  177.8080  142.4110 C   0  0  0  0  0  0  0  0  0  0  0  0
  188.4550  177.1520  142.6370 C   0  0  0  0  0  3  0  0  0  0  0  0
  185.7730  178.0190  144.9420 C   0  0  0  0  0  0  0  0  0  0  0  0
  185.0310  178.4430  147.6050 C   0  0  0  0  0  3  0  0  0  0  0  0
  187.8400  177.1910  141.3810 C   0  0  0  0  0  3  0  0  0  0  0  0
  186.6990  177.8850  145.9760 C   0  0  0  0  0  0  0  0  0  0  0  0
  186.3550  178.0900  147.3100 C   0  0  0  0  0  3  0  0  0  0  0  0
  185.8540  177.5580  139.9940 C   0  0  0  0  0  0  0  0  0  0  0  0
  186.7450  177.2150  138.5170 Cl  0  0  0  0  0  0  0  0  0  0  0  0
  184.3490  178.1270  142.2640 C   0  0  0  0  0  3  0  0  0  0  0  0
  184.0830  178.5820  146.5740 C   0  0  0  0  0  3  0  0  0  0  0  0
  187.6860  177.4410  143.7590 C   0  0  0  0  0  0  0  0  0  0  0  0
  188.2070  177.4580  145.3630 S   0  0  0  0  0  0  0  0  0  0  0  0
  184.5350  177.8740  139.8980 N   0  0  0  0  0  0  0  0  0  0  0  0
  184.4500  178.3710  145.2360 C   0  0  0  0  0  3  0  0  0  0  0  0
  183.7770  178.1480  140.9930 C   0  0  0  0  0  0  0  0  0  0  0  0
  186.4740  177.5150  141.2550 C   0  0  0  0  0  0  0  0  0  0  0  0
  182.3440  178.5150  140.8330 C   0  0  0  0  0  2  0  0  0  0  0  0
  181.7090  178.5880  142.1370 N   0  0  0  0  0  2  0  0  0  0  0  0
  180.4830  179.3510  141.9750 C   0  0  1  0  0  3  0  0  0  0  0  0
  180.3590  179.8360  140.5400 C   0  0  0  0  0  1  0  0  0  0  0  0
  179.3040  178.5110  142.3380 C   0  0  0  0  0  0  0  0  0  0  0  0
  179.0680  177.4370  141.7230 O   0  0  0  0  0  0  0  0  0  0  0  0
  178.4340  178.9330  143.3810 N   0  0  0  0  0  1  0  0  0  0  0  0
  1 13  2  0  0  0  0
  1  4  1  0  0  0  0
  2  1  1  0  0  0  0
  3 13  1  0  0  0  0
  4 16  2  0  0  0  0
  4  7  1  0  0  0  0
  6  3  2  0  0  0  0
  7  8  2  0  0  0  0
  8  5  1  0  0  0  0
  9 18  1  0  0  0  0
 10  9  1  0  0  0  0
 11  2  1  0  0  0  0
 12  5  2  0  0  0  0
 13 14  1  0  0  0  0
 14  7  1  0  0  0  0
 15  9  2  0  0  0  0
 15 17  1  0  0  0  0
 16 12  1  0  0  0  0
 17 11  2  0  0  0  0
 18  6  1  0  0  0  0
 18  2  2  0  0  0  0
 19 17  1  0  0  0  0
 19 20  1  0  0  0  0
 21 22  1  6  0  0  0
 21 20  1  0  0  0  0
 21 23  1  0  0  0  0
 23 25  1  0  0  0  0
 24 23  2  0  0  0  0
M  END
>  <MODEL>
1

>  <REMARK>
 VINA RESULT:      -7.6      0.000      0.000
  Name = 
  4 active torsions:
  status: ('A' for Active; 'I' for Inactive)
    1  A    between atoms: C_2  and  C_21
    2  A    between atoms: C_6  and  N_15
    3  A    between atoms: C_6  and  C_23
    4  A    between atoms: N_15  and  C_21
                            x       y       z     vdW  Elec       q    Type
                         _______ _______ _______ _____ _____    ______ ____

>  <TORSDO>
F 4

$$$$
=
 OpenBabel11052417343D

 25 28  0  0  1  0  0  0  0  0999 V2000
  186.7050  176.8590  143.9370 C   0  0  0  0  0  0  0  0  0  0  0  0
  187.8530  176.0530  143.7840 C   0  0  0  0  0  0  0  0  0  0  0  0
  186.3810  176.9220  141.5180 C   0  0  0  0  0  3  0  0  0  0  0  0
  186.1220  177.3420  145.1250 C   0  0  0  0  0  0  0  0  0  0  0  0
  184.6920  178.4720  147.2450 C   0  0  0  0  0  3  0  0  0  0  0  0
  187.5180  176.1220  141.3560 C   0  0  0  0  0  3  0  0  0  0  0  0
  184.9850  178.1150  144.8940 C   0  0  0  0  0  0  0  0  0  0  0  0
  184.2550  178.6890  145.9310 C   0  0  0  0  0  3  0  0  0  0  0  0
  189.3990  174.8780  142.3140 C   0  0  0  0  0  0  0  0  0  0  0  0
  189.9570  174.3740  140.7240 Cl  0  0  0  0  0  0  0  0  0  0  0  0
  188.6010  175.6080  144.8780 C   0  0  0  0  0  3  0  0  0  0  0  0
  185.8380  177.6960  147.4980 C   0  0  0  0  0  3  0  0  0  0  0  0
  185.9980  177.2750  142.8070 C   0  0  0  0  0  0  0  0  0  0  0  0
  184.6730  178.2220  143.2430 S   0  0  0  0  0  0  0  0  0  0  0  0
  190.0950  174.4670  143.4080 N   0  0  0  0  0  0  0  0  0  0  0  0
  186.5590  177.1260  146.4370 C   0  0  0  0  0  3  0  0  0  0  0  0
  189.7300  174.8170  144.6700 C   0  0  0  0  0  0  0  0  0  0  0  0
  188.2580  175.6840  142.4730 C   0  0  0  0  0  0  0  0  0  0  0  0
  190.5100  174.3190  145.8340 C   0  0  0  0  0  2  0  0  0  0  0  0
  189.9880  174.9030  147.0580 N   0  0  0  0  0  2  0  0  0  0  0  0
  191.1150  175.4830  147.7700 C   0  0  1  0  0  3  0  0  0  0  0  0
  192.3900  175.2920  146.9680 C   0  0  0  0  0  1  0  0  0  0  0  0
  190.8730  176.9360  148.0160 C   0  0  0  0  0  0  0  0  0  0  0  0
  190.0310  177.5710  147.3270 O   0  0  0  0  0  0  0  0  0  0  0  0
  191.6090  177.6100  149.0300 N   0  0  0  0  0  1  0  0  0  0  0  0
  1  4  1  0  0  0  0
  2  1  1  0  0  0  0
  2 11  1  0  0  0  0
  3 13  1  0  0  0  0
  4 16  1  0  0  0  0
  5 12  1  0  0  0  0
  6  3  2  0  0  0  0
  6 18  1  0  0  0  0
  7  4  2  0  0  0  0
  7  8  1  0  0  0  0
  8  5  2  0  0  0  0
  9 18  1  0  0  0  0
  9 15  2  0  0  0  0
 10  9  1  0  0  0  0
 13 14  1  0  0  0  0
 13  1  2  0  0  0  0
 14  7  1  0  0  0  0
 15 17  1  0  0  0  0
 16 12  2  0  0  0  0
 17 11  2  0  0  0  0
 17 19  1  0  0  0  0
 18  2  2  0  0  0  0
 19 20  1  0  0  0  0
 20 21  1  0  0  0  0
 21 22  1  6  0  0  0
 21 23  1  0  0  0  0
 23 25  1  0  0  0  0
 24 23  2  0  0  0  0
M  END
>  <MODEL>
2

>  <REMARK>
 VINA RESULT:      -7.6      5.088      7.420
  Name = 
  4 active torsions:
  status: ('A' for Active; 'I' for Inactive)
    1  A    between atoms: C_2  and  C_21
    2  A    between atoms: C_6  and  N_15
    3  A    between atoms: C_6  and  C_23
    4  A    between atoms: N_15  and  C_21
                            x       y       z     vdW  Elec       q    Type
                         _______ _______ _______ _____ _____    ______ ____

>  <TORSDO>
F 4

$$$$
=
 OpenBabel11052417343D

 25 28  0  0  1  0  0  0  0  0999 V2000
  186.8800  176.7860  144.0830 C   0  0  0  0  0  0  0  0  0  0  0  0
  188.0780  176.0440  144.0210 C   0  0  0  0  0  0  0  0  0  0  0  0
  186.6440  176.6750  141.6550 C   0  0  0  0  0  3  0  0  0  0  0  0
  186.2260  177.3070  145.2170 C   0  0  0  0  0  0  0  0  0  0  0  0
  184.6530  178.4800  147.2090 C   0  0  0  0  0  3  0  0  0  0  0  0
  187.8310  175.9380  141.5850 C   0  0  0  0  0  3  0  0  0  0  0  0
  185.0540  177.9920  144.8970 C   0  0  0  0  0  0  0  0  0  0  0  0
  184.2540  178.5850  145.8690 C   0  0  0  0  0  3  0  0  0  0  0  0
  189.7450  174.8750  142.6850 C   0  0  0  0  0  0  0  0  0  0  0  0
  190.3910  174.3060  141.1510 Cl  0  0  0  0  0  0  0  0  0  0  0  0
  188.8100  175.7160  145.1670 C   0  0  0  0  0  3  0  0  0  0  0  0
  185.8330  177.7930  147.5500 C   0  0  0  0  0  3  0  0  0  0  0  0
  186.1920  177.0840  142.9050 C   0  0  0  0  0  0  0  0  0  0  0  0
  184.7980  177.9740  143.2330 S   0  0  0  0  0  0  0  0  0  0  0  0
  190.4230  174.5780  143.8250 N   0  0  0  0  0  0  0  0  0  0  0  0
  186.6250  177.2020  146.5540 C   0  0  0  0  0  3  0  0  0  0  0  0
  189.9910  174.9850  145.0490 C   0  0  0  0  0  0  0  0  0  0  0  0
  188.5530  175.6180  142.7520 C   0  0  0  0  0  0  0  0  0  0  0  0
  190.7550  174.6110  146.2690 C   0  0  0  0  0  2  0  0  0  0  0  0
  192.1740  174.8210  146.0400 N   0  0  0  0  0  2  0  0  0  0  0  0
  192.4690  176.1970  146.4060 C   0  0  1  0  0  3  0  0  0  0  0  0
  191.8040  176.5350  147.7310 C   0  0  0  0  0  1  0  0  0  0  0  0
  193.9440  176.3960  146.5050 C   0  0  0  0  0  0  0  0  0  0  0  0
  194.4190  177.5020  146.8810 O   0  0  0  0  0  0  0  0  0  0  0  0
  194.8230  175.3310  146.1600 N   0  0  0  0  0  1  0  0  0  0  0  0
  1  4  1  0  0  0  0
  2  1  1  0  0  0  0
  2 11  1  0  0  0  0
  3 13  1  0  0  0  0
  4 16  1  0  0  0  0
  5 12  1  0  0  0  0
  6  3  2  0  0  0  0
  6 18  1  0  0  0  0
  7  4  2  0  0  0  0
  7  8  1  0  0  0  0
  8  5  2  0  0  0  0
  9 18  1  0  0  0  0
  9 15  2  0  0  0  0
 10  9  1  0  0  0  0
 13 14  1  0  0  0  0
 13  1  2  0  0  0  0
 14  7  1  0  0  0  0
 15 17  1  0  0  0  0
 16 12  2  0  0  0  0
 17 11  2  0  0  0  0
 17 19  1  0  0  0  0
 18  2  2  0  0  0  0
 20 19  1  0  0  0  0
 20 21  1  0  0  0  0
 21 23  1  0  0  0  0
 21 22  1  1  0  0  0
 23 24  2  0  0  0  0
 25 23  1  0  0  0  0
M  END
>  <MODEL>
3

>  <REMARK>
 VINA RESULT:      -7.5      5.640      8.247
  Name = 
  4 active torsions:
  status: ('A' for Active; 'I' for Inactive)
    1  A    between atoms: C_2  and  C_21
    2  A    between atoms: C_6  and  N_15
    3  A    between atoms: C_6  and  C_23
    4  A    between atoms: N_15  and  C_21
                            x       y       z     vdW  Elec       q    Type
                         _______ _______ _______ _____ _____    ______ ____

>  <TORSDO>
F 4

$$$$
=
 OpenBabel11052417343D

 25 28  0  0  1  0  0  0  0  0999 V2000
  188.5440  175.5790  143.4460 C   0  0  0  0  0  0  0  0  0  0  0  0
  187.6590  176.5040  142.8520 C   0  0  0  0  0  0  0  0  0  0  0  0
  188.9690  174.5380  141.2790 C   0  0  0  0  0  3  0  0  0  0  0  0
  188.9140  175.4620  144.8000 C   0  0  0  0  0  0  0  0  0  0  0  0
  189.8800  174.9240  147.3690 C   0  0  0  0  0  3  0  0  0  0  0  0
  188.0940  175.4510  140.6810 C   0  0  0  0  0  3  0  0  0  0  0  0
  189.8180  174.4250  145.0250 C   0  0  0  0  0  0  0  0  0  0  0  0
  190.3140  174.1360  146.2940 C   0  0  0  0  0  3  0  0  0  0  0  0
  186.5600  177.3530  140.8520 C   0  0  0  0  0  0  0  0  0  0  0  0
  186.2400  177.3320  139.1230 Cl  0  0  0  0  0  0  0  0  0  0  0  0
  186.9980  177.4840  143.5970 C   0  0  0  0  0  3  0  0  0  0  0  0
  188.9670  175.9750  147.1600 C   0  0  0  0  0  3  0  0  0  0  0  0
  189.1760  174.6210  142.6510 C   0  0  0  0  0  0  0  0  0  0  0  0
  190.1790  173.6360  143.5830 S   0  0  0  0  0  0  0  0  0  0  0  0
  185.9380  178.2910  141.6160 N   0  0  0  0  0  0  0  0  0  0  0  0
  188.4800  176.2500  145.8730 C   0  0  0  0  0  3  0  0  0  0  0  0
  186.1300  178.3710  142.9600 C   0  0  0  0  0  0  0  0  0  0  0  0
  187.4370  176.4320  141.4500 C   0  0  0  0  0  0  0  0  0  0  0  0
  185.4470  179.4320  143.7470 C   0  0  0  0  0  2  0  0  0  0  0  0
  186.0020  179.4790  145.0880 N   0  0  0  0  0  2  0  0  0  0  0  0
  184.9270  179.1440  146.0090 C   0  0  1  0  0  3  0  0  0  0  0  0
  183.6340  178.9320  145.2410 C   0  0  0  0  0  1  0  0  0  0  0  0
  185.2770  177.9140  146.7790 C   0  0  0  0  0  0  0  0  0  0  0  0
  184.9340  176.7760  146.3600 O   0  0  0  0  0  0  0  0  0  0  0  0
  185.9940  178.0300  148.0020 N   0  0  0  0  0  1  0  0  0  0  0  0
  1  4  1  0  0  0  0
  2  1  1  0  0  0  0
  2 11  1  0  0  0  0
  3 13  1  0  0  0  0
  4  7  2  0  0  0  0
  4 16  1  0  0  0  0
  6  3  2  0  0  0  0
  6 18  1  0  0  0  0
  7  8  1  0  0  0  0
  8  5  2  0  0  0  0
  9 18  1  0  0  0  0
  9 15  2  0  0  0  0
 10  9  1  0  0  0  0
 12  5  1  0  0  0  0
 13  1  2  0  0  0  0
 13 14  1  0  0  0  0
 14  7  1  0  0  0  0
 15 17  1  0  0  0  0
 16 12  2  0  0  0  0
 17 11  2  0  0  0  0
 17 19  1  0  0  0  0
 18  2  2  0  0  0  0
 19 20  1  0  0  0  0
 20 21  1  0  0  0  0
 21 22  1  6  0  0  0
 21 23  1  0  0  0  0
 23 25  1  0  0  0  0
 24 23  2  0  0  0  0
M  END
>  <MODEL>
4

>  <REMARK>
 VINA RESULT:      -7.2      3.408      4.717
  Name = 
  4 active torsions:
  status: ('A' for Active; 'I' for Inactive)
    1  A    between atoms: C_2  and  C_21
    2  A    between atoms: C_6  and  N_15
    3  A    between atoms: C_6  and  C_23
    4  A    between atoms: N_15  and  C_21
                            x       y       z     vdW  Elec       q    Type
                         _______ _______ _______ _____ _____    ______ ____

>  <TORSDO>
F 4

$$$$
=
 OpenBabel11052417343D

 25 28  0  0  1  0  0  0  0  0999 V2000
  185.8310  177.6270  143.8180 C   0  0  0  0  0  0  0  0  0  0  0  0
  186.6230  177.0060  142.8300 C   0  0  0  0  0  0  0  0  0  0  0  0
  184.3920  178.6020  142.1040 C   0  0  0  0  0  3  0  0  0  0  0  0
  185.9770  177.5820  145.2190 C   0  0  0  0  0  0  0  0  0  0  0  0
  185.9410  177.7260  148.0110 C   0  0  0  0  0  3  0  0  0  0  0  0
  185.1720  177.9890  141.1170 C   0  0  0  0  0  3  0  0  0  0  0  0
  185.0020  178.3210  145.8870 C   0  0  0  0  0  0  0  0  0  0  0  0
  184.9620  178.4100  147.2760 C   0  0  0  0  0  3  0  0  0  0  0  0
  187.0660  176.5750  140.4740 C   0  0  0  0  0  0  0  0  0  0  0  0
  186.7020  176.7550  138.7630 Cl  0  0  0  0  0  0  0  0  0  0  0  0
  187.7290  176.2140  143.1530 C   0  0  0  0  0  3  0  0  0  0  0  0
  186.9330  176.9750  147.3530 C   0  0  0  0  0  3  0  0  0  0  0  0
  184.7380  178.4080  143.4360 C   0  0  0  0  0  0  0  0  0  0  0  0
  183.9520  179.0410  144.7860 S   0  0  0  0  0  0  0  0  0  0  0  0
  188.1330  175.8120  140.8350 N   0  0  0  0  0  0  0  0  0  0  0  0
  186.9550  176.8990  145.9510 C   0  0  0  0  0  3  0  0  0  0  0  0
  188.4820  175.6270  142.1360 C   0  0  0  0  0  0  0  0  0  0  0  0
  186.2820  177.1950  141.4640 C   0  0  0  0  0  0  0  0  0  0  0  0
  189.6410  174.7610  142.4790 C   0  0  0  0  0  2  0  0  0  0  0  0
  189.4480  174.1850  143.7990 N   0  0  0  0  0  2  0  0  0  0  0  0
  190.6660  174.4270  144.5540 C   0  0  1  0  0  3  0  0  0  0  0  0
  191.7330  175.0140  143.6450 C   0  0  0  0  0  1  0  0  0  0  0  0
  190.3900  175.3550  145.6900 C   0  0  0  0  0  0  0  0  0  0  0  0
  189.9670  174.9130  146.7910 O   0  0  0  0  0  0  0  0  0  0  0  0
  190.5950  176.7530  145.5210 N   0  0  0  0  0  1  0  0  0  0  0  0
  1  4  1  0  0  0  0
  2 11  1  0  0  0  0
  2  1  1  0  0  0  0
  3 13  1  0  0  0  0
  4  7  2  0  0  0  0
  4 16  1  0  0  0  0
  6 18  1  0  0  0  0
  6  3  2  0  0  0  0
  7  8  1  0  0  0  0
  8  5  2  0  0  0  0
  9 15  2  0  0  0  0
  9 18  1  0  0  0  0
 10  9  1  0  0  0  0
 12  5  1  0  0  0  0
 13  1  2  0  0  0  0
 13 14  1  0  0  0  0
 14  7  1  0  0  0  0
 15 17  1  0  0  0  0
 16 12  2  0  0  0  0
 17 19  1  0  0  0  0
 17 11  2  0  0  0  0
 18  2  2  0  0  0  0
 19 20  1  0  0  0  0
 20 21  1  0  0  0  0
 21 22  1  6  0  0  0
 21 23  1  0  0  0  0
 23 24  2  0  0  0  0
 25 23  1  0  0  0  0
M  END
>  <MODEL>
5

>  <REMARK>
 VINA RESULT:      -7.1      4.170      6.495
  Name = 
  4 active torsions:
  status: ('A' for Active; 'I' for Inactive)
    1  A    between atoms: C_2  and  C_21
    2  A    between atoms: C_6  and  N_15
    3  A    between atoms: C_6  and  C_23
    4  A    between atoms: N_15  and  C_21
                            x       y       z     vdW  Elec       q    Type
                         _______ _______ _______ _____ _____    ______ ____

>  <TORSDO>
F 4

$$$$
=
 OpenBabel11052417343D

 25 28  0  0  1  0  0  0  0  0999 V2000
  186.8070  177.0050  144.2540 C   0  0  0  0  0  0  0  0  0  0  0  0
  188.0260  176.3280  144.4670 C   0  0  0  0  0  0  0  0  0  0  0  0
  186.4100  177.1230  146.6600 C   0  0  0  0  0  3  0  0  0  0  0  0
  186.2120  177.3810  143.0330 C   0  0  0  0  0  0  0  0  0  0  0  0
  184.7370  178.2820  140.8350 C   0  0  0  0  0  3  0  0  0  0  0  0
  187.6180  176.4530  146.8810 C   0  0  0  0  0  3  0  0  0  0  0  0
  184.9960  178.0410  143.2060 C   0  0  0  0  0  0  0  0  0  0  0  0
  184.2420  178.4990  142.1290 C   0  0  0  0  0  3  0  0  0  0  0  0
  189.6460  175.3820  146.0200 C   0  0  0  0  0  0  0  0  0  0  0  0
  190.2160  175.0130  147.6420 Cl  0  0  0  0  0  0  0  0  0  0  0  0
  188.8460  175.9220  143.4090 C   0  0  0  0  0  3  0  0  0  0  0  0
  185.9620  177.6180  140.6420 C   0  0  0  0  0  3  0  0  0  0  0  0
  186.0280  177.3850  145.3480 C   0  0  0  0  0  0  0  0  0  0  0  0
  184.6270  178.1740  144.8430 S   0  0  0  0  0  0  0  0  0  0  0  0
  190.4120  175.0060  144.9610 N   0  0  0  0  0  0  0  0  0  0  0  0
  186.7070  177.1640  141.7420 C   0  0  0  0  0  3  0  0  0  0  0  0
  190.0390  175.2510  143.6760 C   0  0  0  0  0  0  0  0  0  0  0  0
  188.4300  176.0520  145.8010 C   0  0  0  0  0  0  0  0  0  0  0  0
  190.9260  174.8440  142.5540 C   0  0  0  0  0  2  0  0  0  0  0  0
  190.4820  173.5690  142.0180 N   0  0  0  0  0  2  0  0  0  0  0  0
  189.9170  173.8290  140.7040 C   0  0  1  0  0  3  0  0  0  0  0  0
  190.8740  173.3520  139.6250 C   0  0  0  0  0  1  0  0  0  0  0  0
  188.6000  173.1410  140.5660 C   0  0  0  0  0  0  0  0  0  0  0  0
  187.8540  172.9760  141.5690 O   0  0  0  0  0  0  0  0  0  0  0  0
  188.1900  172.6560  139.2930 N   0  0  0  0  0  1  0  0  0  0  0  0
  1  2  2  0  0  0  0
  1 13  1  0  0  0  0
  2 18  1  0  0  0  0
  3  6  1  0  0  0  0
  4  7  1  0  0  0  0
  4  1  1  0  0  0  0
  5  8  1  0  0  0  0
  7 14  1  0  0  0  0
  8  7  2  0  0  0  0
  9 10  1  0  0  0  0
 11 17  2  0  0  0  0
 11  2  1  0  0  0  0
 12  5  2  0  0  0  0
 12 16  1  0  0  0  0
 13  3  2  0  0  0  0
 14 13  1  0  0  0  0
 15  9  2  0  0  0  0
 16  4  2  0  0  0  0
 17 15  1  0  0  0  0
 18  9  1  0  0  0  0
 18  6  2  0  0  0  0
 19 17  1  0  0  0  0
 20 19  1  0  0  0  0
 21 22  1  6  0  0  0
 21 20  1  0  0  0  0
 23 21  1  0  0  0  0
 23 24  2  0  0  0  0
 25 23  1  0  0  0  0
M  END
>  <MODEL>
6

>  <REMARK>
 VINA RESULT:      -7.1      4.810      7.481
  Name = 
  4 active torsions:
  status: ('A' for Active; 'I' for Inactive)
    1  A    between atoms: C_2  and  C_21
    2  A    between atoms: C_6  and  N_15
    3  A    between atoms: C_6  and  C_23
    4  A    between atoms: N_15  and  C_21
                            x       y       z     vdW  Elec       q    Type
                         _______ _______ _______ _____ _____    ______ ____

>  <TORSDO>
F 4

$$$$
=
 OpenBabel11052417343D

 25 28  0  0  1  0  0  0  0  0999 V2000
  187.6790  177.5070  144.2140 C   0  0  0  0  0  0  0  0  0  0  0  0
  189.0070  177.1870  144.5660 C   0  0  0  0  0  0  0  0  0  0  0  0
  187.0670  177.7210  146.5680 C   0  0  0  0  0  3  0  0  0  0  0  0
  187.1110  177.6130  142.9290 C   0  0  0  0  0  0  0  0  0  0  0  0
  185.6440  177.9160  140.5680 C   0  0  0  0  0  3  0  0  0  0  0  0
  188.3830  177.4060  146.9270 C   0  0  0  0  0  3  0  0  0  0  0  0
  185.7590  177.9490  142.9620 C   0  0  0  0  0  0  0  0  0  0  0  0
  185.0050  178.1050  141.8020 C   0  0  0  0  0  3  0  0  0  0  0  0
  190.6790  176.8250  146.3000 C   0  0  0  0  0  0  0  0  0  0  0  0
  191.1870  176.7530  147.9820 Cl  0  0  0  0  0  0  0  0  0  0  0  0
  189.9870  176.9190  143.6060 C   0  0  0  0  0  3  0  0  0  0  0  0
  187.0080  177.5760  140.5160 C   0  0  0  0  0  3  0  0  0  0  0  0
  186.7420  177.7650  145.2170 C   0  0  0  0  0  0  0  0  0  0  0  0
  185.2340  178.1200  144.5520 S   0  0  0  0  0  0  0  0  0  0  0  0
  191.5990  176.5720  145.3320 N   0  0  0  0  0  0  0  0  0  0  0  0
  187.7500  177.4230  141.6980 C   0  0  0  0  0  3  0  0  0  0  0  0
  191.2840  176.6040  144.0090 C   0  0  0  0  0  0  0  0  0  0  0  0
  189.3550  177.1380  145.9430 C   0  0  0  0  0  0  0  0  0  0  0  0
  192.3350  176.3460  142.9890 C   0  0  0  0  0  2  0  0  0  0  0  0
  193.1930  175.2620  143.4340 N   0  0  0  0  0  2  0  0  0  0  0  0
  194.5060  175.4880  142.8520 C   0  0  1  0  0  3  0  0  0  0  0  0
  194.3910  176.4160  141.6550 C   0  0  0  0  0  1  0  0  0  0  0  0
  195.4240  176.0740  143.8720 C   0  0  0  0  0  0  0  0  0  0  0  0
  196.4010  176.7890  143.5210 O   0  0  0  0  0  0  0  0  0  0  0  0
  195.2000  175.8150  145.2530 N   0  0  0  0  0  1  0  0  0  0  0  0
  1  2  2  0  0  0  0
  1 13  1  0  0  0  0
  2 18  1  0  0  0  0
  3  6  1  0  0  0  0
  4  7  1  0  0  0  0
  4  1  1  0  0  0  0
  5  8  1  0  0  0  0
  7 14  1  0  0  0  0
  8  7  2  0  0  0  0
  9 10  1  0  0  0  0
 11 17  2  0  0  0  0
 11  2  1  0  0  0  0
 12  5  2  0  0  0  0
 12 16  1  0  0  0  0
 13  3  2  0  0  0  0
 14 13  1  0  0  0  0
 15  9  2  0  0  0  0
 16  4  2  0  0  0  0
 17 15  1  0  0  0  0
 18  9  1  0  0  0  0
 18  6  2  0  0  0  0
 19 20  1  0  0  0  0
 19 17  1  0  0  0  0
 21 22  1  6  0  0  0
 21 20  1  0  0  0  0
 21 23  1  0  0  0  0
 23 25  1  0  0  0  0
 24 23  2  0  0  0  0
M  END
>  <MODEL>
7

>  <REMARK>
 VINA RESULT:      -7.0      6.122      9.336
  Name = 
  4 active torsions:
  status: ('A' for Active; 'I' for Inactive)
    1  A    between atoms: C_2  and  C_21
    2  A    between atoms: C_6  and  N_15
    3  A    between atoms: C_6  and  C_23
    4  A    between atoms: N_15  and  C_21
                            x       y       z     vdW  Elec       q    Type
                         _______ _______ _______ _____ _____    ______ ____

>  <TORSDO>
F 4

$$$$
=
 OpenBabel11052417343D

 25 28  0  0  1  0  0  0  0  0999 V2000
  192.0560  176.3060  145.0800 C   0  0  0  0  0  0  0  0  0  0  0  0
  190.6700  176.3580  144.8260 C   0  0  0  0  0  0  0  0  0  0  0  0
  191.6570  176.4370  147.4850 C   0  0  0  0  0  3  0  0  0  0  0  0
  193.1160  176.2130  144.1570 C   0  0  0  0  0  0  0  0  0  0  0  0
  195.4620  176.0320  142.6460 C   0  0  0  0  0  3  0  0  0  0  0  0
  190.2800  176.4880  147.2430 C   0  0  0  0  0  3  0  0  0  0  0  0
  194.3670  176.1840  144.7720 C   0  0  0  0  0  0  0  0  0  0  0  0
  195.5500  176.0950  144.0430 C   0  0  0  0  0  3  0  0  0  0  0  0
  188.3930  176.4990  145.6800 C   0  0  0  0  0  0  0  0  0  0  0  0
  187.2260  176.6050  146.9910 Cl  0  0  0  0  0  0  0  0  0  0  0  0
  190.1490  176.3220  143.5280 C   0  0  0  0  0  3  0  0  0  0  0  0
  194.2080  176.0610  142.0080 C   0  0  0  0  0  3  0  0  0  0  0  0
  192.5180  176.3470  146.3970 C   0  0  0  0  0  0  0  0  0  0  0  0
  194.2020  176.2710  146.4450 S   0  0  0  0  0  0  0  0  0  0  0  0
  187.9320  176.4600  144.4010 N   0  0  0  0  0  0  0  0  0  0  0  0
  193.0280  176.1510  142.7610 C   0  0  0  0  0  3  0  0  0  0  0  0
  188.7700  176.3810  143.3330 C   0  0  0  0  0  0  0  0  0  0  0  0
  189.7770  176.4500  145.9270 C   0  0  0  0  0  0  0  0  0  0  0  0
  188.2140  176.3140  141.9560 C   0  0  0  0  0  2  0  0  0  0  0  0
  186.7680  176.4490  142.0050 N   0  0  0  0  0  2  0  0  0  0  0  0
  186.4450  177.7800  141.5170 C   0  0  1  0  0  3  0  0  0  0  0  0
  185.8240  177.6890  140.1330 C   0  0  0  0  0  1  0  0  0  0  0  0
  185.5070  178.4580  142.4590 C   0  0  0  0  0  0  0  0  0  0  0  0
  185.9140  179.3740  143.2220 O   0  0  0  0  0  0  0  0  0  0  0  0
  184.1420  178.0570  142.5010 N   0  0  0  0  0  1  0  0  0  0  0  0
  1 13  1  0  0  0  0
  2  1  2  0  0  0  0
  2 18  1  0  0  0  0
  4  7  1  0  0  0  0
  4  1  1  0  0  0  0
  5  8  1  0  0  0  0
  6  3  1  0  0  0  0
  7 14  1  0  0  0  0
  8  7  2  0  0  0  0
  9 18  1  0  0  0  0
  9 10  1  0  0  0  0
 11  2  1  0  0  0  0
 12  5  2  0  0  0  0
 12 16  1  0  0  0  0
 13 14  1  0  0  0  0
 13  3  2  0  0  0  0
 15  9  2  0  0  0  0
 16  4  2  0  0  0  0
 17 11  2  0  0  0  0
 17 15  1  0  0  0  0
 18  6  2  0  0  0  0
 19 20  1  0  0  0  0
 19 17  1  0  0  0  0
 21 22  1  6  0  0  0
 21 20  1  0  0  0  0
 21 23  1  0  0  0  0
 23 25  1  0  0  0  0
 23 24  2  0  0  0  0
M  END
>  <MODEL>
8

>  <REMARK>
 VINA RESULT:      -6.8      4.776      7.237
  Name = 
  4 active torsions:
  status: ('A' for Active; 'I' for Inactive)
    1  A    between atoms: C_2  and  C_21
    2  A    between atoms: C_6  and  N_15
    3  A    between atoms: C_6  and  C_23
    4  A    between atoms: N_15  and  C_21
                            x       y       z     vdW  Elec       q    Type
                         _______ _______ _______ _____ _____    ______ ____

>  <TORSDO>
F 4

$$$$
=
 OpenBabel11052417343D

 25 28  0  0  1  0  0  0  0  0999 V2000
  187.6720  176.5090  144.9600 C   0  0  0  0  0  0  0  0  0  0  0  0
  188.3520  175.5990  144.1250 C   0  0  0  0  0  0  0  0  0  0  0  0
  188.9040  175.7010  146.9060 C   0  0  0  0  0  3  0  0  0  0  0  0
  186.6840  177.4520  144.6120 C   0  0  0  0  0  0  0  0  0  0  0  0
  184.7220  179.4220  144.3120 C   0  0  0  0  0  3  0  0  0  0  0  0
  189.5850  174.7950  146.0850 C   0  0  0  0  0  3  0  0  0  0  0  0
  186.2320  178.1890  145.7060 C   0  0  0  0  0  0  0  0  0  0  0  0
  185.2560  179.1740  145.5840 C   0  0  0  0  0  3  0  0  0  0  0  0
  190.0040  173.8270  143.8740 C   0  0  0  0  0  0  0  0  0  0  0  0
  191.2200  172.7300  144.5160 Cl  0  0  0  0  0  0  0  0  0  0  0  0
  188.1040  175.5220  142.7500 C   0  0  0  0  0  3  0  0  0  0  0  0
  185.1660  178.6880  143.1960 C   0  0  0  0  0  3  0  0  0  0  0  0
  187.9600  176.5410  146.3260 C   0  0  0  0  0  0  0  0  0  0  0  0
  187.0250  177.7040  147.1100 S   0  0  0  0  0  0  0  0  0  0  0  0
  189.7310  173.7870  142.5430 N   0  0  0  0  0  0  0  0  0  0  0  0
  186.1510  177.6980  143.3420 C   0  0  0  0  0  3  0  0  0  0  0  0
  188.8020  174.6000  141.9710 C   0  0  0  0  0  0  0  0  0  0  0  0
  189.3200  174.7340  144.7030 C   0  0  0  0  0  0  0  0  0  0  0  0
  188.5600  174.5360  140.5050 C   0  0  0  0  0  2  0  0  0  0  0  0
  188.1940  173.1820  140.1290 N   0  0  0  0  0  2  0  0  0  0  0  0
  188.6290  172.9860  138.7550 C   0  0  1  0  0  3  0  0  0  0  0  0
  188.1960  174.1640  137.9000 C   0  0  0  0  0  1  0  0  0  0  0  0
  190.1130  172.8310  138.7050 C   0  0  0  0  0  0  0  0  0  0  0  0
  190.8090  173.5610  137.9490 O   0  0  0  0  0  0  0  0  0  0  0  0
  190.7450  171.8430  139.5110 N   0  0  0  0  0  1  0  0  0  0  0  0
  1 13  2  0  0  0  0
  2 18  1  0  0  0  0
  2  1  1  0  0  0  0
  4  1  1  0  0  0  0
  4  7  1  0  0  0  0
  5  8  1  0  0  0  0
  6  3  2  0  0  0  0
  7 14  1  0  0  0  0
  8  7  2  0  0  0  0
  9 10  1  0  0  0  0
  9 18  2  0  0  0  0
 11  2  2  0  0  0  0
 12 16  1  0  0  0  0
 12  5  2  0  0  0  0
 13  3  1  0  0  0  0
 13 14  1  0  0  0  0
 15  9  1  0  0  0  0
 16  4  2  0  0  0  0
 17 15  2  0  0  0  0
 17 11  1  0  0  0  0
 18  6  1  0  0  0  0
 19 17  1  0  0  0  0
 20 19  1  0  0  0  0
 21 22  1  6  0  0  0
 21 20  1  0  0  0  0
 23 21  1  0  0  0  0
 23 25  1  0  0  0  0
 24 23  2  0  0  0  0
M  END
>  <MODEL>
9

>  <REMARK>
 VINA RESULT:      -6.8      5.091      7.145
  Name = 
  4 active torsions:
  status: ('A' for Active; 'I' for Inactive)
    1  A    between atoms: C_2  and  C_21
    2  A    between atoms: C_6  and  N_15
    3  A    between atoms: C_6  and  C_23
    4  A    between atoms: N_15  and  C_21
                            x       y       z     vdW  Elec       q    Type
                         _______ _______ _______ _____ _____    ______ ____

>  <TORSDO>
F 4

$$$$
