=
 OpenBabel11052418593D

 34 37  0  0  1  0  0  0  0  0999 V2000
  188.4220  177.3690  143.1480 N   0  0  0  0  0  0  0  0  0  0  0  0
  186.8420  176.8310  141.3940 C   0  0  2  0  0  3  0  0  0  0  0  0
  187.2430  178.2190  143.2980 C   0  0  1  0  0  3  0  0  0  0  0  0
  186.1290  177.6140  142.4750 C   0  0  1  0  0  3  0  0  0  0  0  0
  188.1800  176.4700  142.0170 C   0  0  2  0  0  3  0  0  0  0  0  0
  187.0710  177.6280  140.2680 O   0  0  0  0  0  1  0  0  0  0  0  0
  188.6110  173.7810  140.2950 C   0  0  0  0  0  3  0  0  0  0  0  0
  190.8830  172.7060  141.7210 C   0  0  0  0  0  3  0  0  0  0  0  0
  188.1830  175.0120  142.4940 C   0  0  2  0  0  3  0  0  0  0  0  0
  190.7500  172.2900  140.2710 C   0  0  0  0  0  2  0  0  0  0  0  0
  190.0240  173.5800  142.2440 C   0  0  0  0  0  0  0  0  0  0  0  0
  188.9040  174.9050  143.7870 N   0  0  0  0  0  0  0  0  0  0  0  0
  188.9220  174.1310  141.5410 C   0  0  0  0  0  0  0  0  0  0  0  0
  189.4980  172.8240  139.6000 C   0  0  0  0  0  0  0  0  0  0  0  0
  189.2190  172.4610  138.4280 O   0  0  0  0  0  0  0  0  0  0  0  0
  190.0000  174.0430  143.5690 N   0  0  0  0  0  0  0  0  0  0  0  0
  185.3080  178.6120  141.9400 O   0  0  0  0  0  0  0  0  0  0  0  0
  184.0070  178.1430  142.1270 C   0  0  0  0  0  2  0  0  0  0  0  0
  183.2530  178.2100  140.8150 C   0  0  0  0  0  1  0  0  0  0  0  0
  189.5320  178.2320  142.7710 C   0  0  0  0  0  2  0  0  0  0  0  0
  190.5800  178.2270  143.8670 C   0  0  0  0  0  2  0  0  0  0  0  0
  192.5960  176.6270  143.1640 C   0  0  0  0  0  0  0  0  0  0  0  0
  191.6840  177.3490  143.4810 C   0  0  0  0  0  0  0  0  0  0  0  0
  194.9630  175.8700  144.8610 O   0  0  0  0  0  0  0  0  0  0  0  0
  193.7040  175.7490  142.7740 C   0  0  2  0  0  3  0  0  0  0  0  0
  194.8880  176.0120  143.6110 C   0  0  0  0  0  0  0  0  0  0  0  0
  197.1090  176.7130  143.1150 O   0  0  0  0  0  0  0  0  0  0  0  0
  195.4340  176.4010  141.3780 C   0  0  0  0  0  2  0  0  0  0  0  0
  194.0660  176.0080  141.4220 O   0  0  0  0  0  0  0  0  0  0  0  0
  195.9400  176.4110  142.7580 C   0  0  0  0  0  0  0  0  0  0  0  0
  186.8460  178.2830  144.7640 C   0  0  0  0  0  2  0  0  0  0  0  0
  185.9220  176.7900  145.2300 S   0  0  0  0  0  0  0  0  0  0  0  0
  184.9730  177.6930  146.4830 C   0  0  0  0  0  2  0  0  0  0  0  0
  184.0620  178.6920  145.8020 C   0  0  0  0  0  1  0  0  0  0  0  0
  1  3  1  0  0  0  0
  2  6  1  6  0  0  0
  2  5  1  0  0  0  0
  2  4  1  0  0  0  0
  3 31  1  1  0  0  0
  4 17  1  6  0  0  0
  4  3  1  0  0  0  0
  5  9  1  0  0  0  0
  5  1  1  1  0  0  0
  7 13  2  0  0  0  0
  8 11  2  0  0  0  0
  9 13  1  6  0  0  0
  9 12  1  0  0  0  0
 10  8  1  0  0  0  0
 11 16  1  0  0  0  0
 13 11  1  0  0  0  0
 14 10  1  0  0  0  0
 14  7  1  0  0  0  0
 15 14  2  0  0  0  0
 16 12  2  0  0  0  0
 17 18  1  0  0  0  0
 19 18  1  0  0  0  0
 20  1  1  0  0  0  0
 20 21  1  0  0  0  0
 22 23  3  0  0  0  0
 23 21  1  0  0  0  0
 25 22  1  1  0  0  0
 25 26  1  0  0  0  0
 26 24  2  0  0  0  0
 28 29  1  0  0  0  0
 28 30  1  0  0  0  0
 29 25  1  0  0  0  0
 30 27  2  0  0  0  0
 30 26  1  0  0  0  0
 31 32  1  0  0  0  0
 32 33  1  0  0  0  0
 34 33  1  0  0  0  0
M  END
>  <MODEL>
1

>  <REMARK>
 VINA RESULT:      -6.6      0.000      0.000
  Name = 
  10 active torsions:
  status: ('A' for Active; 'I' for Inactive)
    1  A    between atoms: C_3  and  C_13
    2  A    between atoms: C_4  and  C_31
    3  A    between atoms: N_5  and  C_18
    4  A    between atoms: C_7  and  O_8
    5  A    between atoms: O_8  and  C_28
    6  A    between atoms: C_12  and  S_16
    7  A    between atoms: S_16  and  C_23
    8  A    between atoms: C_17  and  C_29
    9  A    between atoms: C_18  and  C_29
   10  A    between atoms: C_23  and  C_26
                            x       y       z     vdW  Elec       q    Type
                         _______ _______ _______ _____ _____    ______ ____

>  <TORSDO>
F 10

$$$$
=
 OpenBabel11052418593D

 34 37  0  0  1  0  0  0  0  0999 V2000
  188.7700  176.4240  145.2360 N   0  0  0  0  0  0  0  0  0  0  0  0
  188.3190  176.5990  142.8640 C   0  0  2  0  0  3  0  0  0  0  0  0
  187.5100  177.1390  145.0480 C   0  0  1  0  0  3  0  0  0  0  0  0
  187.0470  176.8930  143.6290 C   0  0  1  0  0  3  0  0  0  0  0  0
  189.2630  176.0340  143.9130 C   0  0  2  0  0  3  0  0  0  0  0  0
  188.8740  177.7730  142.3460 O   0  0  0  0  0  1  0  0  0  0  0  0
  190.4660  174.2290  141.5310 C   0  0  0  0  0  3  0  0  0  0  0  0
  192.4300  172.7510  143.0500 C   0  0  0  0  0  3  0  0  0  0  0  0
  189.3400  174.5060  143.8090 C   0  0  2  0  0  3  0  0  0  0  0  0
  192.7220  172.9220  141.5740 C   0  0  0  0  0  2  0  0  0  0  0  0
  191.3590  173.3320  143.5880 C   0  0  0  0  0  0  0  0  0  0  0  0
  189.7210  173.9290  145.1230 N   0  0  0  0  0  0  0  0  0  0  0  0
  190.4050  174.0810  142.8520 C   0  0  0  0  0  0  0  0  0  0  0  0
  191.6180  173.6380  140.8180 C   0  0  0  0  0  0  0  0  0  0  0  0
  191.6920  173.7470  139.5660 O   0  0  0  0  0  0  0  0  0  0  0  0
  190.9420  173.2490  144.9260 N   0  0  0  0  0  0  0  0  0  0  0  0
  186.3820  178.0140  143.1220 O   0  0  0  0  0  0  0  0  0  0  0  0
  185.3950  177.4960  142.2820 C   0  0  0  0  0  2  0  0  0  0  0  0
  184.0960  178.2390  142.5100 C   0  0  0  0  0  1  0  0  0  0  0  0
  189.7280  177.3750  145.7800 C   0  0  0  0  0  2  0  0  0  0  0  0
  190.3280  176.8220  147.0590 C   0  0  0  0  0  2  0  0  0  0  0  0
  192.8880  176.1960  146.6450 C   0  0  0  0  0  0  0  0  0  0  0  0
  191.7310  176.4790  146.8310 C   0  0  0  0  0  0  0  0  0  0  0  0
  195.0570  178.0670  145.7220 O   0  0  0  0  0  0  0  0  0  0  0  0
  194.2960  175.8550  146.4160 C   0  0  2  0  0  3  0  0  0  0  0  0
  194.9220  176.8330  145.5080 C   0  0  0  0  0  0  0  0  0  0  0  0
  195.9770  176.6370  143.3820 O   0  0  0  0  0  0  0  0  0  0  0  0
  195.0560  174.7110  144.5500 C   0  0  0  0  0  2  0  0  0  0  0  0
  194.3830  174.5760  145.7970 O   0  0  0  0  0  0  0  0  0  0  0  0
  195.3830  176.1340  144.3710 C   0  0  0  0  0  0  0  0  0  0  0  0
  186.4790  176.6240  146.0390 C   0  0  0  0  0  2  0  0  0  0  0  0
  186.3150  177.7760  147.4320 S   0  0  0  0  0  0  0  0  0  0  0  0
  185.5190  179.0250  146.3860 C   0  0  0  0  0  2  0  0  0  0  0  0
  184.0830  178.6220  146.1250 C   0  0  0  0  0  1  0  0  0  0  0  0
  1 20  1  0  0  0  0
  2  6  1  1  0  0  0
  2  4  1  0  0  0  0
  2  5  1  0  0  0  0
  3  1  1  0  0  0  0
  3 31  1  1  0  0  0
  4 17  1  6  0  0  0
  4  3  1  0  0  0  0
  5  1  1  1  0  0  0
  7 13  2  0  0  0  0
  8 11  2  0  0  0  0
  9 13  1  6  0  0  0
  9  5  1  0  0  0  0
  9 12  1  0  0  0  0
 10  8  1  0  0  0  0
 11 16  1  0  0  0  0
 13 11  1  0  0  0  0
 14  7  1  0  0  0  0
 14 10  1  0  0  0  0
 15 14  2  0  0  0  0
 16 12  2  0  0  0  0
 18 19  1  0  0  0  0
 18 17  1  0  0  0  0
 20 21  1  0  0  0  0
 22 23  3  0  0  0  0
 23 21  1  0  0  0  0
 25 22  1  6  0  0  0
 26 24  2  0  0  0  0
 26 25  1  0  0  0  0
 27 30  2  0  0  0  0
 28 29  1  0  0  0  0
 29 25  1  0  0  0  0
 30 28  1  0  0  0  0
 30 26  1  0  0  0  0
 31 32  1  0  0  0  0
 33 32  1  0  0  0  0
 34 33  1  0  0  0  0
M  END
>  <MODEL>
2

>  <REMARK>
 VINA RESULT:      -6.5      2.010      2.474
  Name = 
  10 active torsions:
  status: ('A' for Active; 'I' for Inactive)
    1  A    between atoms: C_3  and  C_13
    2  A    between atoms: C_4  and  C_31
    3  A    between atoms: N_5  and  C_18
    4  A    between atoms: C_7  and  O_8
    5  A    between atoms: O_8  and  C_28
    6  A    between atoms: C_12  and  S_16
    7  A    between atoms: S_16  and  C_23
    8  A    between atoms: C_17  and  C_29
    9  A    between atoms: C_18  and  C_29
   10  A    between atoms: C_23  and  C_26
                            x       y       z     vdW  Elec       q    Type
                         _______ _______ _______ _____ _____    ______ ____

>  <TORSDO>
F 10

$$$$
=
 OpenBabel11052418593D

 34 37  0  0  1  0  0  0  0  0999 V2000
  188.8300  177.2160  143.8800 N   0  0  0  0  0  0  0  0  0  0  0  0
  187.7390  175.3280  142.8300 C   0  0  2  0  0  3  0  0  0  0  0  0
  187.5090  177.6340  143.4160 C   0  0  1  0  0  3  0  0  0  0  0  0
  186.7020  176.3860  143.1370 C   0  0  1  0  0  3  0  0  0  0  0  0
  188.9770  175.7900  143.5800 C   0  0  2  0  0  3  0  0  0  0  0  0
  188.0280  175.2940  141.4620 O   0  0  0  0  0  1  0  0  0  0  0  0
  191.1010  173.4610  144.2460 C   0  0  0  0  0  3  0  0  0  0  0  0
  192.3670  174.6670  146.5460 C   0  0  0  0  0  3  0  0  0  0  0  0
  189.1560  174.9940  144.8780 C   0  0  2  0  0  3  0  0  0  0  0  0
  193.2110  173.6840  145.7630 C   0  0  0  0  0  2  0  0  0  0  0  0
  191.1460  174.9860  146.1190 C   0  0  0  0  0  0  0  0  0  0  0  0
  189.0110  175.8960  146.0480 N   0  0  0  0  0  0  0  0  0  0  0  0
  190.5300  174.4170  144.9750 C   0  0  0  0  0  0  0  0  0  0  0  0
  192.4660  173.0280  144.6140 C   0  0  0  0  0  0  0  0  0  0  0  0
  193.0240  172.1140  143.9540 O   0  0  0  0  0  0  0  0  0  0  0  0
  190.2390  175.8560  146.7440 N   0  0  0  0  0  0  0  0  0  0  0  0
  185.8290  176.5880  142.0630 O   0  0  0  0  0  0  0  0  0  0  0  0
  186.2700  177.7680  141.4610 C   0  0  0  0  0  2  0  0  0  0  0  0
  185.1970  178.2910  140.5300 C   0  0  0  0  0  1  0  0  0  0  0  0
  189.8140  177.9210  143.0720 C   0  0  0  0  0  2  0  0  0  0  0  0
  191.0250  178.2590  143.9200 C   0  0  0  0  0  2  0  0  0  0  0  0
  193.0560  176.6660  143.2440 C   0  0  0  0  0  0  0  0  0  0  0  0
  192.1390  177.3870  143.5490 C   0  0  0  0  0  0  0  0  0  0  0  0
  195.4540  176.0120  144.9400 O   0  0  0  0  0  0  0  0  0  0  0  0
  194.1740  175.7910  142.8740 C   0  0  2  0  0  3  0  0  0  0  0  0
  195.3630  176.1050  143.6870 C   0  0  0  0  0  0  0  0  0  0  0  0
  197.5670  176.8210  143.1380 O   0  0  0  0  0  0  0  0  0  0  0  0
  195.8770  176.4170  141.4340 C   0  0  0  0  0  2  0  0  0  0  0  0
  194.5160  176.0040  141.5100 O   0  0  0  0  0  0  0  0  0  0  0  0
  196.3990  176.4870  142.8070 C   0  0  0  0  0  0  0  0  0  0  0  0
  186.8350  178.4720  144.4900 C   0  0  0  0  0  2  0  0  0  0  0  0
  185.7210  177.4410  145.4860 S   0  0  0  0  0  0  0  0  0  0  0  0
  184.4620  178.7450  145.5420 C   0  0  0  0  0  2  0  0  0  0  0  0
  183.9810  179.0410  144.1370 C   0  0  0  0  0  1  0  0  0  0  0  0
  2  6  1  6  0  0  0
  2  4  1  0  0  0  0
  2  5  1  0  0  0  0
  3  1  1  0  0  0  0
  3 31  1  1  0  0  0
  4 17  1  6  0  0  0
  4  3  1  0  0  0  0
  5  1  1  1  0  0  0
  5  9  1  0  0  0  0
  7 14  1  0  0  0  0
  7 13  2  0  0  0  0
  9 13  1  6  0  0  0
  9 12  1  0  0  0  0
 10  8  1  0  0  0  0
 11  8  2  0  0  0  0
 11 16  1  0  0  0  0
 12 16  2  0  0  0  0
 13 11  1  0  0  0  0
 14 10  1  0  0  0  0
 15 14  2  0  0  0  0
 18 17  1  0  0  0  0
 19 18  1  0  0  0  0
 20  1  1  0  0  0  0
 20 21  1  0  0  0  0
 22 23  3  0  0  0  0
 23 21  1  0  0  0  0
 25 22  1  1  0  0  0
 25 26  1  0  0  0  0
 26 24  2  0  0  0  0
 28 29  1  0  0  0  0
 28 30  1  0  0  0  0
 29 25  1  0  0  0  0
 30 27  2  0  0  0  0
 30 26  1  0  0  0  0
 31 32  1  0  0  0  0
 32 33  1  0  0  0  0
 34 33  1  0  0  0  0
M  END
>  <MODEL>
3

>  <REMARK>
 VINA RESULT:      -6.5      2.015      2.816
  Name = 
  10 active torsions:
  status: ('A' for Active; 'I' for Inactive)
    1  A    between atoms: C_3  and  C_13
    2  A    between atoms: C_4  and  C_31
    3  A    between atoms: N_5  and  C_18
    4  A    between atoms: C_7  and  O_8
    5  A    between atoms: O_8  and  C_28
    6  A    between atoms: C_12  and  S_16
    7  A    between atoms: S_16  and  C_23
    8  A    between atoms: C_17  and  C_29
    9  A    between atoms: C_18  and  C_29
   10  A    between atoms: C_23  and  C_26
                            x       y       z     vdW  Elec       q    Type
                         _______ _______ _______ _____ _____    ______ ____

>  <TORSDO>
F 10

$$$$
=
 OpenBabel11052418593D

 34 37  0  0  1  0  0  0  0  0999 V2000
  189.2330  176.9220  143.7320 N   0  0  0  0  0  0  0  0  0  0  0  0
  186.8840  176.5360  143.2920 C   0  0  2  0  0  3  0  0  0  0  0  0
  188.4470  177.5350  144.8000 C   0  0  1  0  0  3  0  0  0  0  0  0
  187.0510  176.9580  144.7360 C   0  0  1  0  0  3  0  0  0  0  0  0
  188.3010  176.2550  142.8200 C   0  0  2  0  0  3  0  0  0  0  0  0
  186.3530  177.5770  142.5250 O   0  0  0  0  0  1  0  0  0  0  0  0
  188.3010  174.2430  140.3030 C   0  0  0  0  0  3  0  0  0  0  0  0
  191.0000  173.2400  140.5430 C   0  0  0  0  0  3  0  0  0  0  0  0
  188.5770  174.7470  142.7940 C   0  0  2  0  0  3  0  0  0  0  0  0
  190.4000  173.2100  139.1520 C   0  0  0  0  0  2  0  0  0  0  0  0
  190.3150  173.7780  141.5520 C   0  0  0  0  0  0  0  0  0  0  0  0
  189.7100  174.4250  143.6980 N   0  0  0  0  0  0  0  0  0  0  0  0
  189.0000  174.2970  141.4340 C   0  0  0  0  0  0  0  0  0  0  0  0
  188.9570  173.6770  139.1060 C   0  0  0  0  0  0  0  0  0  0  0  0
  188.3140  173.5980  138.0270 O   0  0  0  0  0  0  0  0  0  0  0  0
  190.7210  173.8590  142.8930 N   0  0  0  0  0  0  0  0  0  0  0  0
  186.1010  177.9120  145.1130 O   0  0  0  0  0  0  0  0  0  0  0  0
  185.1580  177.2030  145.8580 C   0  0  0  0  0  2  0  0  0  0  0  0
  184.3310  178.1710  146.6790 C   0  0  0  0  0  1  0  0  0  0  0  0
  189.8590  178.0000  142.9820 C   0  0  0  0  0  2  0  0  0  0  0  0
  191.1440  178.4230  143.6680 C   0  0  0  0  0  2  0  0  0  0  0  0
  192.9230  176.4390  143.5220 C   0  0  0  0  0  0  0  0  0  0  0  0
  192.1190  177.3360  143.5890 C   0  0  0  0  0  0  0  0  0  0  0  0
  193.2190  174.1600  145.4650 O   0  0  0  0  0  0  0  0  0  0  0  0
  193.8990  175.3470  143.4440 C   0  0  2  0  0  3  0  0  0  0  0  0
  194.0980  174.7400  144.7720 C   0  0  0  0  0  0  0  0  0  0  0  0
  196.0060  174.4780  146.1730 O   0  0  0  0  0  0  0  0  0  0  0  0
  196.1350  175.5780  144.0060 C   0  0  0  0  0  2  0  0  0  0  0  0
  195.1540  175.8600  143.0120 O   0  0  0  0  0  0  0  0  0  0  0  0
  195.4610  174.8820  145.1130 C   0  0  0  0  0  0  0  0  0  0  0  0
  189.0870  177.2280  146.1440 C   0  0  0  0  0  2  0  0  0  0  0  0
  188.4540  175.6560  146.7970 S   0  0  0  0  0  0  0  0  0  0  0  0
  190.1110  175.1310  147.3120 C   0  0  0  0  0  2  0  0  0  0  0  0
  191.0450  176.3220  147.2950 C   0  0  0  0  0  1  0  0  0  0  0  0
  1  3  1  0  0  0  0
  2  6  1  6  0  0  0
  2  4  1  0  0  0  0
  3 31  1  1  0  0  0
  4  3  1  0  0  0  0
  4 17  1  6  0  0  0
  5  2  1  0  0  0  0
  5  1  1  1  0  0  0
  7 13  2  0  0  0  0
  8 11  2  0  0  0  0
  9 13  1  6  0  0  0
  9  5  1  0  0  0  0
  9 12  1  0  0  0  0
 10  8  1  0  0  0  0
 11 16  1  0  0  0  0
 13 11  1  0  0  0  0
 14 10  1  0  0  0  0
 14  7  1  0  0  0  0
 15 14  2  0  0  0  0
 16 12  2  0  0  0  0
 17 18  1  0  0  0  0
 18 19  1  0  0  0  0
 20 21  1  0  0  0  0
 20  1  1  0  0  0  0
 22 23  3  0  0  0  0
 23 21  1  0  0  0  0
 25 22  1  1  0  0  0
 25 26  1  0  0  0  0
 26 30  1  0  0  0  0
 26 24  2  0  0  0  0
 28 30  1  0  0  0  0
 29 25  1  0  0  0  0
 29 28  1  0  0  0  0
 30 27  2  0  0  0  0
 31 32  1  0  0  0  0
 32 33  1  0  0  0  0
 34 33  1  0  0  0  0
M  END
>  <MODEL>
4

>  <REMARK>
 VINA RESULT:      -6.4      1.828      2.716
  Name = 
  10 active torsions:
  status: ('A' for Active; 'I' for Inactive)
    1  A    between atoms: C_3  and  C_13
    2  A    between atoms: C_4  and  C_31
    3  A    between atoms: N_5  and  C_18
    4  A    between atoms: C_7  and  O_8
    5  A    between atoms: O_8  and  C_28
    6  A    between atoms: C_12  and  S_16
    7  A    between atoms: S_16  and  C_23
    8  A    between atoms: C_17  and  C_29
    9  A    between atoms: C_18  and  C_29
   10  A    between atoms: C_23  and  C_26
                            x       y       z     vdW  Elec       q    Type
                         _______ _______ _______ _____ _____    ______ ____

>  <TORSDO>
F 10

$$$$
=
 OpenBabel11052418593D

 34 37  0  0  1  0  0  0  0  0999 V2000
  188.1730  176.8620  144.4710 N   0  0  0  0  0  0  0  0  0  0  0  0
  187.9800  177.0970  142.0700 C   0  0  2  0  0  3  0  0  0  0  0  0
  186.9890  177.6630  144.1700 C   0  0  1  0  0  3  0  0  0  0  0  0
  186.6590  177.4680  142.7070 C   0  0  1  0  0  3  0  0  0  0  0  0
  188.7720  176.4560  143.1970 C   0  0  2  0  0  3  0  0  0  0  0  0
  188.6620  178.2370  141.6340 O   0  0  0  0  0  1  0  0  0  0  0  0
  188.3290  174.6490  140.5670 C   0  0  0  0  0  3  0  0  0  0  0  0
  190.7960  173.1460  140.6480 C   0  0  0  0  0  3  0  0  0  0  0  0
  188.7570  174.9280  143.0710 C   0  0  2  0  0  3  0  0  0  0  0  0
  190.1670  173.3200  139.2810 C   0  0  0  0  0  2  0  0  0  0  0  0
  190.2500  173.7350  141.7110 C   0  0  0  0  0  0  0  0  0  0  0  0
  189.8310  174.3420  143.9130 N   0  0  0  0  0  0  0  0  0  0  0  0
  189.0540  174.4960  141.6730 C   0  0  0  0  0  0  0  0  0  0  0  0
  188.8370  174.0500  139.3150 C   0  0  0  0  0  0  0  0  0  0  0  0
  188.1640  174.1630  138.2570 O   0  0  0  0  0  0  0  0  0  0  0  0
  190.6970  173.6500  143.0390 N   0  0  0  0  0  0  0  0  0  0  0  0
  186.1250  178.6380  142.1580 O   0  0  0  0  0  0  0  0  0  0  0  0
  185.1780  178.1990  141.2320 C   0  0  0  0  0  2  0  0  0  0  0  0
  183.8110  178.1660  141.8840 C   0  0  0  0  0  1  0  0  0  0  0  0
  189.1320  177.7380  145.1280 C   0  0  0  0  0  2  0  0  0  0  0  0
  189.4400  177.2100  146.5160 C   0  0  0  0  0  2  0  0  0  0  0  0
  191.8340  176.0320  146.5070 C   0  0  0  0  0  0  0  0  0  0  0  0
  190.7520  176.5640  146.5120 C   0  0  0  0  0  0  0  0  0  0  0  0
  194.5070  177.3960  146.7360 O   0  0  0  0  0  0  0  0  0  0  0  0
  193.1490  175.3820  146.5010 C   0  0  2  0  0  3  0  0  0  0  0  0
  194.1970  176.3450  146.1150 C   0  0  0  0  0  0  0  0  0  0  0  0
  195.7700  176.4090  144.3290 O   0  0  0  0  0  0  0  0  0  0  0  0
  194.1810  174.5840  144.5860 C   0  0  0  0  0  2  0  0  0  0  0  0
  193.1570  174.3300  145.5420 O   0  0  0  0  0  0  0  0  0  0  0  0
  194.8230  175.8570  144.9480 C   0  0  0  0  0  0  0  0  0  0  0  0
  185.8300  177.2070  145.0410 C   0  0  0  0  0  2  0  0  0  0  0  0
  184.8160  178.6300  145.5360 S   0  0  0  0  0  0  0  0  0  0  0  0
  185.8020  178.8900  147.0350 C   0  0  0  0  0  2  0  0  0  0  0  0
  185.9880  177.5690  147.7510 C   0  0  0  0  0  1  0  0  0  0  0  0
  1 20  1  0  0  0  0
  2  6  1  1  0  0  0
  2  4  1  0  0  0  0
  2  5  1  0  0  0  0
  3  1  1  0  0  0  0
  3 31  1  1  0  0  0
  4 17  1  6  0  0  0
  4  3  1  0  0  0  0
  5  1  1  1  0  0  0
  7 13  2  0  0  0  0
  8 11  2  0  0  0  0
  9 13  1  6  0  0  0
  9  5  1  0  0  0  0
  9 12  1  0  0  0  0
 10 14  1  0  0  0  0
 10  8  1  0  0  0  0
 11 16  1  0  0  0  0
 13 11  1  0  0  0  0
 14  7  1  0  0  0  0
 15 14  2  0  0  0  0
 16 12  2  0  0  0  0
 18 19  1  0  0  0  0
 18 17  1  0  0  0  0
 20 21  1  0  0  0  0
 22 23  3  0  0  0  0
 23 21  1  0  0  0  0
 25 22  1  6  0  0  0
 26 25  1  0  0  0  0
 26 24  2  0  0  0  0
 27 30  2  0  0  0  0
 28 30  1  0  0  0  0
 28 29  1  0  0  0  0
 29 25  1  0  0  0  0
 30 26  1  0  0  0  0
 31 32  1  0  0  0  0
 32 33  1  0  0  0  0
 33 34  1  0  0  0  0
M  END
>  <MODEL>
5

>  <REMARK>
 VINA RESULT:      -6.4      1.770      2.164
  Name = 
  10 active torsions:
  status: ('A' for Active; 'I' for Inactive)
    1  A    between atoms: C_3  and  C_13
    2  A    between atoms: C_4  and  C_31
    3  A    between atoms: N_5  and  C_18
    4  A    between atoms: C_7  and  O_8
    5  A    between atoms: O_8  and  C_28
    6  A    between atoms: C_12  and  S_16
    7  A    between atoms: S_16  and  C_23
    8  A    between atoms: C_17  and  C_29
    9  A    between atoms: C_18  and  C_29
   10  A    between atoms: C_23  and  C_26
                            x       y       z     vdW  Elec       q    Type
                         _______ _______ _______ _____ _____    ______ ____

>  <TORSDO>
F 10

$$$$
=
 OpenBabel11052418593D

 34 37  0  0  1  0  0  0  0  0999 V2000
  190.5940  174.2440  144.7940 N   0  0  0  0  0  0  0  0  0  0  0  0
  190.0920  173.3560  142.5980 C   0  0  2  0  0  3  0  0  0  0  0  0
  191.4320  173.0720  144.5570 C   0  0  1  0  0  3  0  0  0  0  0  0
  191.4070  172.7760  143.0750 C   0  0  1  0  0  3  0  0  0  0  0  0
  189.7980  174.4730  143.5850 C   0  0  2  0  0  3  0  0  0  0  0  0
  189.0690  172.4060  142.6770 O   0  0  0  0  0  1  0  0  0  0  0  0
  188.2450  176.1130  141.2870 C   0  0  0  0  0  3  0  0  0  0  0  0
  187.7270  178.5450  142.7590 C   0  0  0  0  0  3  0  0  0  0  0  0
  190.1420  175.8390  142.9790 C   0  0  2  0  0  3  0  0  0  0  0  0
  186.7610  178.2290  141.6360 C   0  0  0  0  0  2  0  0  0  0  0  0
  188.6970  177.6850  143.0650 C   0  0  0  0  0  0  0  0  0  0  0  0
  190.5900  176.7680  144.0470 N   0  0  0  0  0  0  0  0  0  0  0  0
  188.9400  176.4770  142.3630 C   0  0  0  0  0  0  0  0  0  0  0  0
  187.1300  176.9820  140.8540 C   0  0  0  0  0  0  0  0  0  0  0  0
  186.4670  176.6720  139.8300 O   0  0  0  0  0  0  0  0  0  0  0  0
  189.6800  177.8460  144.0540 N   0  0  0  0  0  0  0  0  0  0  0  0
  191.4850  171.4000  142.8400 O   0  0  0  0  0  0  0  0  0  0  0  0
  192.3500  171.2700  141.7530 C   0  0  0  0  0  2  0  0  0  0  0  0
  193.7240  170.8670  142.2460 C   0  0  0  0  0  1  0  0  0  0  0  0
  189.6590  173.9010  145.8550 C   0  0  0  0  0  2  0  0  0  0  0  0
  189.6870  174.9710  146.9290 C   0  0  0  0  0  2  0  0  0  0  0  0
  187.3290  176.2180  147.0020 C   0  0  0  0  0  0  0  0  0  0  0  0
  188.3950  175.6550  146.9690 C   0  0  0  0  0  0  0  0  0  0  0  0
  185.5370  176.7960  144.6550 O   0  0  0  0  0  0  0  0  0  0  0  0
  186.0340  176.9050  147.0410 C   0  0  2  0  0  3  0  0  0  0  0  0
  185.7040  177.4570  145.7140 C   0  0  0  0  0  0  0  0  0  0  0  0
  185.2780  179.6640  144.9290 O   0  0  0  0  0  0  0  0  0  0  0  0
  185.8020  179.2000  147.2590 C   0  0  0  0  0  2  0  0  0  0  0  0
  186.1000  177.9940  147.9560 O   0  0  0  0  0  0  0  0  0  0  0  0
  185.5640  178.8550  145.8500 C   0  0  0  0  0  0  0  0  0  0  0  0
  192.8520  173.3610  145.0160 C   0  0  0  0  0  2  0  0  0  0  0  0
  193.6820  174.4630  143.8350 S   0  0  0  0  0  0  0  0  0  0  0  0
  193.9220  175.7400  145.0990 C   0  0  0  0  0  2  0  0  0  0  0  0
  195.0110  175.3030  146.0560 C   0  0  0  0  0  1  0  0  0  0  0  0
  1 20  1  0  0  0  0
  2  6  1  1  0  0  0
  2  4  1  0  0  0  0
  2  5  1  0  0  0  0
  3  1  1  0  0  0  0
  3 31  1  6  0  0  0
  4 17  1  1  0  0  0
  4  3  1  0  0  0  0
  5  1  1  1  0  0  0
  7 13  2  0  0  0  0
  8 11  2  0  0  0  0
  9 13  1  1  0  0  0
  9  5  1  0  0  0  0
  9 12  1  0  0  0  0
 10  8  1  0  0  0  0
 11 16  1  0  0  0  0
 12 16  2  0  0  0  0
 13 11  1  0  0  0  0
 14  7  1  0  0  0  0
 14 10  1  0  0  0  0
 15 14  2  0  0  0  0
 18 19  1  0  0  0  0
 18 17  1  0  0  0  0
 20 21  1  0  0  0  0
 21 23  1  0  0  0  0
 23 22  3  0  0  0  0
 24 26  2  0  0  0  0
 25 22  1  6  0  0  0
 25 29  1  0  0  0  0
 26 30  1  0  0  0  0
 26 25  1  0  0  0  0
 27 30  2  0  0  0  0
 28 29  1  0  0  0  0
 30 28  1  0  0  0  0
 32 31  1  0  0  0  0
 32 33  1  0  0  0  0
 33 34  1  0  0  0  0
M  END
>  <MODEL>
6

>  <REMARK>
 VINA RESULT:      -6.3      3.179      7.686
  Name = 
  10 active torsions:
  status: ('A' for Active; 'I' for Inactive)
    1  A    between atoms: C_3  and  C_13
    2  A    between atoms: C_4  and  C_31
    3  A    between atoms: N_5  and  C_18
    4  A    between atoms: C_7  and  O_8
    5  A    between atoms: O_8  and  C_28
    6  A    between atoms: C_12  and  S_16
    7  A    between atoms: S_16  and  C_23
    8  A    between atoms: C_17  and  C_29
    9  A    between atoms: C_18  and  C_29
   10  A    between atoms: C_23  and  C_26
                            x       y       z     vdW  Elec       q    Type
                         _______ _______ _______ _____ _____    ______ ____

>  <TORSDO>
F 10

$$$$
=
 OpenBabel11052418593D

 34 37  0  0  1  0  0  0  0  0999 V2000
  190.3460  175.2720  144.0720 N   0  0  0  0  0  0  0  0  0  0  0  0
  191.9210  177.1030  144.2390 C   0  0  2  0  0  3  0  0  0  0  0  0
  191.6660  174.7950  143.6680 C   0  0  1  0  0  3  0  0  0  0  0  0
  192.6880  175.8010  144.1500 C   0  0  1  0  0  3  0  0  0  0  0  0
  190.4830  176.6730  144.4780 C   0  0  2  0  0  3  0  0  0  0  0  0
  191.9850  177.8050  143.0320 O   0  0  0  0  0  1  0  0  0  0  0  0
  187.9840  178.2450  145.7690 C   0  0  0  0  0  3  0  0  0  0  0  0
  186.7920  176.0520  147.2250 C   0  0  0  0  0  3  0  0  0  0  0  0
  190.1060  176.8320  145.9560 C   0  0  2  0  0  3  0  0  0  0  0  0
  185.8510  177.1630  146.8080 C   0  0  0  0  0  2  0  0  0  0  0  0
  188.0700  176.0870  146.8520 C   0  0  0  0  0  0  0  0  0  0  0  0
  190.3220  175.5500  146.6740 N   0  0  0  0  0  0  0  0  0  0  0  0
  188.6550  177.1480  146.1150 C   0  0  0  0  0  0  0  0  0  0  0  0
  186.5500  178.3200  146.1170 C   0  0  0  0  0  0  0  0  0  0  0  0
  185.8940  179.3520  145.8180 O   0  0  0  0  0  0  0  0  0  0  0  0
  189.0650  175.1520  147.1770 N   0  0  0  0  0  0  0  0  0  0  0  0
  193.7600  175.8880  143.2560 O   0  0  0  0  0  0  0  0  0  0  0  0
  194.8970  175.9370  144.0640 C   0  0  0  0  0  2  0  0  0  0  0  0
  196.1020  175.4830  143.2670 C   0  0  0  0  0  1  0  0  0  0  0  0
  189.5010  175.2570  142.8870 C   0  0  0  0  0  2  0  0  0  0  0  0
  188.0520  175.0700  143.2940 C   0  0  0  0  0  2  0  0  0  0  0  0
  186.6180  177.1630  142.4670 C   0  0  0  0  0  0  0  0  0  0  0  0
  187.2660  176.2180  142.8400 C   0  0  0  0  0  0  0  0  0  0  0  0
  184.0610  178.1750  143.6890 O   0  0  0  0  0  0  0  0  0  0  0  0
  185.8280  178.3120  142.0120 C   0  0  2  0  0  3  0  0  0  0  0  0
  184.4370  178.2000  142.4870 C   0  0  0  0  0  0  0  0  0  0  0  0
  182.3390  178.0880  141.3660 O   0  0  0  0  0  0  0  0  0  0  0  0
  184.4420  178.2660  140.1560 C   0  0  0  0  0  2  0  0  0  0  0  0
  185.7970  178.3360  140.5890 O   0  0  0  0  0  0  0  0  0  0  0  0
  183.5950  178.1720  141.3540 C   0  0  0  0  0  0  0  0  0  0  0  0
  191.9280  173.4340  144.2910 C   0  0  0  0  0  2  0  0  0  0  0  0
  192.4360  172.2460  143.0150 S   0  0  0  0  0  0  0  0  0  0  0  0
  194.1510  172.2510  143.6040 C   0  0  0  0  0  2  0  0  0  0  0  0
  194.1640  172.3350  145.1160 C   0  0  0  0  0  1  0  0  0  0  0  0
  2  6  1  6  0  0  0
  2  5  1  0  0  0  0
  3  1  1  0  0  0  0
  3  4  1  0  0  0  0
  3 31  1  1  0  0  0
  4 17  1  6  0  0  0
  4  2  1  0  0  0  0
  5  1  1  1  0  0  0
  5  9  1  0  0  0  0
  7 13  2  0  0  0  0
  7 14  1  0  0  0  0
  9 13  1  6  0  0  0
  9 12  1  0  0  0  0
 10  8  1  0  0  0  0
 11 16  1  0  0  0  0
 11  8  2  0  0  0  0
 12 16  2  0  0  0  0
 13 11  1  0  0  0  0
 14 10  1  0  0  0  0
 15 14  2  0  0  0  0
 17 18  1  0  0  0  0
 19 18  1  0  0  0  0
 20 21  1  0  0  0  0
 20  1  1  0  0  0  0
 22 23  3  0  0  0  0
 23 21  1  0  0  0  0
 25 22  1  6  0  0  0
 25 26  1  0  0  0  0
 26 24  2  0  0  0  0
 28 29  1  0  0  0  0
 28 30  1  0  0  0  0
 29 25  1  0  0  0  0
 30 27  2  0  0  0  0
 30 26  1  0  0  0  0
 32 33  1  0  0  0  0
 32 31  1  0  0  0  0
 33 34  1  0  0  0  0
M  END
>  <MODEL>
7

>  <REMARK>
 VINA RESULT:      -6.2      2.720      8.419
  Name = 
  10 active torsions:
  status: ('A' for Active; 'I' for Inactive)
    1  A    between atoms: C_3  and  C_13
    2  A    between atoms: C_4  and  C_31
    3  A    between atoms: N_5  and  C_18
    4  A    between atoms: C_7  and  O_8
    5  A    between atoms: O_8  and  C_28
    6  A    between atoms: C_12  and  S_16
    7  A    between atoms: S_16  and  C_23
    8  A    between atoms: C_17  and  C_29
    9  A    between atoms: C_18  and  C_29
   10  A    between atoms: C_23  and  C_26
                            x       y       z     vdW  Elec       q    Type
                         _______ _______ _______ _____ _____    ______ ____

>  <TORSDO>
F 10

$$$$
=
 OpenBabel11052418593D

 34 37  0  0  1  0  0  0  0  0999 V2000
  188.8530  176.1590  143.9800 N   0  0  0  0  0  0  0  0  0  0  0  0
  188.9730  176.2870  146.3940 C   0  0  2  0  0  3  0  0  0  0  0  0
  187.5700  176.6370  144.4910 C   0  0  1  0  0  3  0  0  0  0  0  0
  187.7810  177.0880  145.9180 C   0  0  1  0  0  3  0  0  0  0  0  0
  189.7510  175.9860  145.1240 C   0  0  2  0  0  3  0  0  0  0  0  0
  188.5660  175.0790  146.9690 O   0  0  0  0  0  1  0  0  0  0  0  0
  192.8780  175.3170  145.5240 C   0  0  0  0  0  3  0  0  0  0  0  0
  193.8340  176.1210  142.9190 C   0  0  0  0  0  3  0  0  0  0  0  0
  190.9590  176.9210  144.9920 C   0  0  2  0  0  3  0  0  0  0  0  0
  194.6570  175.0690  143.6330 C   0  0  0  0  0  2  0  0  0  0  0  0
  192.7010  176.5640  143.4620 C   0  0  0  0  0  0  0  0  0  0  0  0
  190.7790  177.8160  143.8210 N   0  0  0  0  0  0  0  0  0  0  0  0
  192.2130  176.1530  144.7290 C   0  0  0  0  0  0  0  0  0  0  0  0
  194.1470  174.7470  145.0260 C   0  0  0  0  0  0  0  0  0  0  0  0
  194.8060  173.9680  145.7630 O   0  0  0  0  0  0  0  0  0  0  0  0
  191.8470  177.5470  142.9380 N   0  0  0  0  0  0  0  0  0  0  0  0
  186.6430  176.8380  146.6920 O   0  0  0  0  0  0  0  0  0  0  0  0
  186.4930  177.9750  147.4870 C   0  0  0  0  0  2  0  0  0  0  0  0
  185.1030  178.5450  147.2960 C   0  0  0  0  0  1  0  0  0  0  0  0
  188.6280  174.8360  143.4160 C   0  0  0  0  0  2  0  0  0  0  0  0
  189.7580  174.4840  142.4690 C   0  0  0  0  0  2  0  0  0  0  0  0
  188.7470  173.7760  140.1030 C   0  0  0  0  0  0  0  0  0  0  0  0
  189.2050  174.0960  141.1720 C   0  0  0  0  0  0  0  0  0  0  0  0
  189.7090  171.5280  138.3490 O   0  0  0  0  0  0  0  0  0  0  0  0
  188.1920  173.3840  138.8040 C   0  0  2  0  0  3  0  0  0  0  0  0
  189.1900  172.6290  138.0250 C   0  0  0  0  0  0  0  0  0  0  0  0
  190.2160  172.9930  135.9070 O   0  0  0  0  0  0  0  0  0  0  0  0
  188.5840  174.5410  136.8350 C   0  0  0  0  0  2  0  0  0  0  0  0
  187.8540  174.5480  138.0580 O   0  0  0  0  0  0  0  0  0  0  0  0
  189.4270  173.3360  136.8260 C   0  0  0  0  0  0  0  0  0  0  0  0
  187.0820  177.7950  143.6360 C   0  0  0  0  0  2  0  0  0  0  0  0
  185.5660  177.3270  142.7510 S   0  0  0  0  0  0  0  0  0  0  0  0
  184.6240  178.6660  143.5290 C   0  0  0  0  0  2  0  0  0  0  0  0
  185.5660  179.7860  143.9160 C   0  0  0  0  0  1  0  0  0  0  0  0
  1  3  1  0  0  0  0
  2  6  1  6  0  0  0
  3 31  1  6  0  0  0
  3  4  1  0  0  0  0
  4  2  1  0  0  0  0
  4 17  1  1  0  0  0
  5  1  1  6  0  0  0
  5  2  1  0  0  0  0
  8 11  2  0  0  0  0
  8 10  1  0  0  0  0
  9 12  1  6  0  0  0
  9  5  1  0  0  0  0
 10 14  1  0  0  0  0
 11 13  1  0  0  0  0
 13  9  1  0  0  0  0
 13  7  2  0  0  0  0
 14  7  1  0  0  0  0
 14 15  2  0  0  0  0
 16 11  1  0  0  0  0
 16 12  2  0  0  0  0
 17 18  1  0  0  0  0
 19 18  1  0  0  0  0
 20  1  1  0  0  0  0
 21 20  1  0  0  0  0
 22 23  3  0  0  0  0
 23 21  1  0  0  0  0
 25 22  1  1  0  0  0
 26 24  2  0  0  0  0
 26 25  1  0  0  0  0
 27 30  2  0  0  0  0
 28 29  1  0  0  0  0
 29 25  1  0  0  0  0
 30 28  1  0  0  0  0
 30 26  1  0  0  0  0
 32 33  1  0  0  0  0
 32 31  1  0  0  0  0
 33 34  1  0  0  0  0
M  END
>  <MODEL>
8

>  <REMARK>
 VINA RESULT:      -6.1      2.440      5.959
  Name = 
  10 active torsions:
  status: ('A' for Active; 'I' for Inactive)
    1  A    between atoms: C_3  and  C_13
    2  A    between atoms: C_4  and  C_31
    3  A    between atoms: N_5  and  C_18
    4  A    between atoms: C_7  and  O_8
    5  A    between atoms: O_8  and  C_28
    6  A    between atoms: C_12  and  S_16
    7  A    between atoms: S_16  and  C_23
    8  A    between atoms: C_17  and  C_29
    9  A    between atoms: C_18  and  C_29
   10  A    between atoms: C_23  and  C_26
                            x       y       z     vdW  Elec       q    Type
                         _______ _______ _______ _____ _____    ______ ____

>  <TORSDO>
F 10

$$$$
=
 OpenBabel11052418593D

 34 37  0  0  1  0  0  0  0  0999 V2000
  190.4620  175.6750  142.8940 N   0  0  0  0  0  0  0  0  0  0  0  0
  191.7140  173.8800  141.8590 C   0  0  2  0  0  3  0  0  0  0  0  0
  189.7420  175.2210  141.7060 C   0  0  1  0  0  3  0  0  0  0  0  0
  190.3040  173.8740  141.3120 C   0  0  1  0  0  3  0  0  0  0  0  0
  191.6520  174.8330  143.0410 C   0  0  2  0  0  3  0  0  0  0  0  0
  192.6140  174.3900  140.9180 O   0  0  0  0  0  1  0  0  0  0  0  0
  192.7190  175.7080  145.9530 C   0  0  0  0  0  3  0  0  0  0  0  0
  190.2340  175.4970  147.4120 C   0  0  0  0  0  3  0  0  0  0  0  0
  191.5880  174.0580  144.3630 C   0  0  2  0  0  3  0  0  0  0  0  0
  191.2520  176.4710  147.9690 C   0  0  0  0  0  2  0  0  0  0  0  0
  190.4810  174.8560  146.2710 C   0  0  0  0  0  0  0  0  0  0  0  0
  190.2710  173.3830  144.4890 N   0  0  0  0  0  0  0  0  0  0  0  0
  191.6880  174.9760  145.5360 C   0  0  0  0  0  0  0  0  0  0  0  0
  192.5630  176.4790  147.2040 C   0  0  0  0  0  0  0  0  0  0  0  0
  193.5260  177.1660  147.6320 O   0  0  0  0  0  0  0  0  0  0  0  0
  189.6550  173.9110  145.6430 N   0  0  0  0  0  0  0  0  0  0  0  0
  190.2850  173.7150  139.9230 O   0  0  0  0  0  0  0  0  0  0  0  0
  189.5220  172.5670  139.7040 C   0  0  0  0  0  2  0  0  0  0  0  0
  190.4410  171.3770  139.5250 C   0  0  0  0  0  1  0  0  0  0  0  0
  190.9320  177.0260  142.6230 C   0  0  0  0  0  2  0  0  0  0  0  0
  190.6860  177.9050  143.8340 C   0  0  0  0  0  2  0  0  0  0  0  0
  188.2300  177.4540  144.7750 C   0  0  0  0  0  0  0  0  0  0  0  0
  189.3400  177.6580  144.3500 C   0  0  0  0  0  0  0  0  0  0  0  0
  185.9440  179.4120  144.8150 O   0  0  0  0  0  0  0  0  0  0  0  0
  186.8800  177.2090  145.2930 C   0  0  2  0  0  3  0  0  0  0  0  0
  186.2160  178.4830  145.6230 C   0  0  0  0  0  0  0  0  0  0  0  0
  185.3180  179.3770  147.6390 O   0  0  0  0  0  0  0  0  0  0  0  0
  186.3540  177.1770  147.5490 C   0  0  0  0  0  2  0  0  0  0  0  0
  186.9600  176.4430  146.4900 O   0  0  0  0  0  0  0  0  0  0  0  0
  185.8970  178.4620  146.9980 C   0  0  0  0  0  0  0  0  0  0  0  0
  188.2600  175.1050  142.0240 C   0  0  0  0  0  2  0  0  0  0  0  0
  187.2700  175.7930  140.6660 S   0  0  0  0  0  0  0  0  0  0  0  0
  187.4950  177.4850  141.2760 C   0  0  0  0  0  2  0  0  0  0  0  0
  186.1430  178.0930  141.5850 C   0  0  0  0  0  1  0  0  0  0  0  0
  2  6  1  6  0  0  0
  2  5  1  0  0  0  0
  3 31  1  1  0  0  0
  3  1  1  0  0  0  0
  4 17  1  6  0  0  0
  4  3  1  0  0  0  0
  4  2  1  0  0  0  0
  5  1  1  6  0  0  0
  5  9  1  0  0  0  0
  7 14  1  0  0  0  0
  8 10  1  0  0  0  0
  9 12  1  1  0  0  0
  9 13  1  0  0  0  0
 11  8  2  0  0  0  0
 12 16  2  0  0  0  0
 13  7  2  0  0  0  0
 13 11  1  0  0  0  0
 14 15  2  0  0  0  0
 14 10  1  0  0  0  0
 16 11  1  0  0  0  0
 18 17  1  0  0  0  0
 19 18  1  0  0  0  0
 20  1  1  0  0  0  0
 20 21  1  0  0  0  0
 21 23  1  0  0  0  0
 23 22  3  0  0  0  0
 24 26  2  0  0  0  0
 25 22  1  1  0  0  0
 25 26  1  0  0  0  0
 25 29  1  0  0  0  0
 26 30  1  0  0  0  0
 29 28  1  0  0  0  0
 30 28  1  0  0  0  0
 30 27  2  0  0  0  0
 32 33  1  0  0  0  0
 32 31  1  0  0  0  0
 33 34  1  0  0  0  0
M  END
>  <MODEL>
9

>  <REMARK>
 VINA RESULT:      -6.1      2.699      6.997
  Name = 
  10 active torsions:
  status: ('A' for Active; 'I' for Inactive)
    1  A    between atoms: C_3  and  C_13
    2  A    between atoms: C_4  and  C_31
    3  A    between atoms: N_5  and  C_18
    4  A    between atoms: C_7  and  O_8
    5  A    between atoms: O_8  and  C_28
    6  A    between atoms: C_12  and  S_16
    7  A    between atoms: S_16  and  C_23
    8  A    between atoms: C_17  and  C_29
    9  A    between atoms: C_18  and  C_29
   10  A    between atoms: C_23  and  C_26
                            x       y       z     vdW  Elec       q    Type
                         _______ _______ _______ _____ _____    ______ ____

>  <TORSDO>
F 10

$$$$
