=
 OpenBabel11052418243D

 27 31  0  0  1  0  0  0  0  0999 V2000
  190.1010  173.1970  143.5800 C   0  0  0  0  0  3  0  0  0  0  0  0
  189.0160  175.3300  142.9640 C   0  0  1  0  0  3  0  0  0  0  0  0
  190.1520  176.2860  144.9830 N   0  0  0  0  0  0  0  0  0  0  0  0
  186.6890  178.4920  144.0350 N   0  0  0  0  0  0  0  0  0  0  0  0
  185.4810  179.0270  146.3890 S   0  0  0  0  0  0  0  0  0  0  0  0
  188.9720  176.5700  142.0820 C   0  0  0  0  0  3  0  0  0  0  0  0
  187.1110  176.9020  145.7400 C   0  0  0  0  0  0  0  0  0  0  0  0
  193.6780  176.3560  145.9470 C   0  0  0  0  0  3  0  0  0  0  0  0
  187.2280  176.2750  147.0880 C   0  0  0  0  0  1  0  0  0  0  0  0
  194.0130  175.0660  145.9510 C   0  0  0  0  0  2  0  0  0  0  0  0
  187.8060  176.5860  144.6620 C   0  0  0  0  0  0  0  0  0  0  0  0
  190.0450  174.2780  142.5420 C   0  0  2  0  0  3  0  0  0  0  0  0
  186.3520  178.0950  145.3660 C   0  0  0  0  0  0  0  0  0  0  0  0
  187.5190  177.5810  143.6470 C   0  0  0  0  0  0  0  0  0  0  0  0
  190.8920  173.3140  144.6500 C   0  0  0  0  0  3  0  0  0  0  0  0
  188.9420  175.6310  144.4880 C   0  0  1  0  0  3  0  0  0  0  0  0
  192.3300  176.7560  145.6800 N   0  0  0  0  0  0  0  0  0  0  0  0
  188.2230  177.5910  142.4020 N   0  0  0  0  0  0  0  0  0  0  0  0
  192.9660  174.0030  145.7750 C   0  0  0  0  0  2  0  0  0  0  0  0
  191.8690  174.4430  144.8060 C   0  0  2  0  0  3  0  0  0  0  0  0
  191.3560  175.8280  145.1890 C   0  0  0  0  0  0  0  0  0  0  0  0
  189.1740  172.6030  138.6780 C   0  0  0  0  0  3  0  0  0  0  0  0
  189.7210  173.6970  141.1990 C   0  0  0  0  0  0  0  0  0  0  0  0
  190.7300  173.6190  140.2320 C   0  0  0  0  0  3  0  0  0  0  0  0
  190.4560  173.0740  138.9740 C   0  0  0  0  0  3  0  0  0  0  0  0
  188.1640  172.6760  139.6410 C   0  0  0  0  0  3  0  0  0  0  0  0
  188.4340  173.2210  140.8990 C   0  0  0  0  0  3  0  0  0  0  0  0
  1 15  2  0  0  0  0
  2  6  1  6  0  0  0
  2 16  1  0  0  0  0
  3 21  2  0  0  0  0
  4 13  1  0  0  0  0
  6 18  2  0  0  0  0
  7  9  1  0  0  0  0
  8 10  1  0  0  0  0
 11  7  2  0  0  0  0
 12 23  1  6  0  0  0
 12  2  1  0  0  0  0
 12  1  1  0  0  0  0
 13  7  1  0  0  0  0
 13  5  2  0  0  0  0
 14  4  2  0  0  0  0
 14 11  1  0  0  0  0
 16 11  1  6  0  0  0
 16  3  1  0  0  0  0
 17  8  2  0  0  0  0
 18 14  1  0  0  0  0
 19 10  1  0  0  0  0
 20 15  1  1  0  0  0
 20 21  1  0  0  0  0
 20 19  1  0  0  0  0
 21 17  1  0  0  0  0
 22 25  2  0  0  0  0
 22 26  1  0  0  0  0
 24 23  2  0  0  0  0
 25 24  1  0  0  0  0
 26 27  2  0  0  0  0
 27 23  1  0  0  0  0
M  END
>  <MODEL>
1

>  <REMARK>
 VINA RESULT:      -7.5      0.000      0.000
  Name = 
  1 active torsions:
  status: ('A' for Active; 'I' for Inactive)
    1  A    between atoms: C_9  and  C_15
                            x       y       z     vdW  Elec       q    Type
                         _______ _______ _______ _____ _____    ______ ____

>  <TORSDO>
F 1

$$$$
=
 OpenBabel11052418243D

 27 31  0  0  1  0  0  0  0  0999 V2000
  190.6230  177.8820  143.2140 C   0  0  0  0  0  3  0  0  0  0  0  0
  189.5280  175.7250  142.7060 C   0  0  1  0  0  3  0  0  0  0  0  0
  191.7130  174.6710  143.3300 N   0  0  0  0  0  0  0  0  0  0  0  0
  189.5600  172.1910  140.6890 N   0  0  0  0  0  0  0  0  0  0  0  0
  191.3710  171.2190  138.9390 S   0  0  0  0  0  0  0  0  0  0  0  0
  188.5770  174.6100  143.1180 C   0  0  0  0  0  3  0  0  0  0  0  0
  191.4370  173.5940  140.3360 C   0  0  0  0  0  0  0  0  0  0  0  0
  193.7140  174.9160  146.3810 C   0  0  0  0  0  3  0  0  0  0  0  0
  192.8020  174.0560  139.9500 C   0  0  0  0  0  1  0  0  0  0  0  0
  193.9270  176.2270  146.4930 C   0  0  0  0  0  2  0  0  0  0  0  0
  190.6580  174.1260  141.2600 C   0  0  0  0  0  0  0  0  0  0  0  0
  189.5340  176.9410  143.6360 C   0  0  2  0  0  3  0  0  0  0  0  0
  190.7500  172.3730  139.9160 C   0  0  0  0  0  0  0  0  0  0  0  0
  189.5250  173.2390  141.4440 C   0  0  0  0  0  0  0  0  0  0  0  0
  191.8710  177.7300  143.6620 C   0  0  0  0  0  3  0  0  0  0  0  0
  190.9230  175.2290  142.2330 C   0  0  1  0  0  3  0  0  0  0  0  0
  193.0110  174.3890  145.2500 N   0  0  0  0  0  0  0  0  0  0  0  0
  188.5640  173.4730  142.4770 N   0  0  0  0  0  0  0  0  0  0  0  0
  193.5240  177.1660  145.3930 C   0  0  0  0  0  2  0  0  0  0  0  0
  192.2290  176.7190  144.7130 C   0  0  2  0  0  3  0  0  0  0  0  0
  192.3200  175.2440  144.3320 C   0  0  0  0  0  0  0  0  0  0  0  0
  185.7250  178.9380  143.5810 C   0  0  0  0  0  3  0  0  0  0  0  0
  188.2090  177.6420  143.6370 C   0  0  0  0  0  0  0  0  0  0  0  0
  187.6390  178.0180  142.4150 C   0  0  0  0  0  3  0  0  0  0  0  0
  186.4000  178.6660  142.3880 C   0  0  0  0  0  3  0  0  0  0  0  0
  186.2880  178.5630  144.8040 C   0  0  0  0  0  3  0  0  0  0  0  0
  187.5270  177.9160  144.8340 C   0  0  0  0  0  3  0  0  0  0  0  0
  1 12  1  0  0  0  0
  1 15  2  0  0  0  0
  2  6  1  1  0  0  0
  2 12  1  0  0  0  0
  3 21  2  0  0  0  0
  4 14  2  0  0  0  0
  5 13  2  0  0  0  0
  7 11  2  0  0  0  0
  8 10  1  0  0  0  0
  9  7  1  0  0  0  0
 11 14  1  0  0  0  0
 12 23  1  6  0  0  0
 13  7  1  0  0  0  0
 13  4  1  0  0  0  0
 14 18  1  0  0  0  0
 16 11  1  6  0  0  0
 16  2  1  0  0  0  0
 16  3  1  0  0  0  0
 17  8  2  0  0  0  0
 18  6  2  0  0  0  0
 19 10  1  0  0  0  0
 20 15  1  6  0  0  0
 20 19  1  0  0  0  0
 21 20  1  0  0  0  0
 21 17  1  0  0  0  0
 22 26  1  0  0  0  0
 23 27  1  0  0  0  0
 24 23  2  0  0  0  0
 25 24  1  0  0  0  0
 25 22  2  0  0  0  0
 26 27  2  0  0  0  0
M  END
>  <MODEL>
2

>  <REMARK>
 VINA RESULT:      -7.5      3.113      5.797
  Name = 
  1 active torsions:
  status: ('A' for Active; 'I' for Inactive)
    1  A    between atoms: C_9  and  C_15
                            x       y       z     vdW  Elec       q    Type
                         _______ _______ _______ _____ _____    ______ ____

>  <TORSDO>
F 1

$$$$
=
 OpenBabel11052418243D

 27 31  0  0  1  0  0  0  0  0999 V2000
  188.8270  177.7900  142.9590 C   0  0  0  0  0  3  0  0  0  0  0  0
  188.3910  175.5310  142.0590 C   0  0  1  0  0  3  0  0  0  0  0  0
  190.1360  174.7430  143.6750 N   0  0  0  0  0  0  0  0  0  0  0  0
  189.8290  172.1010  140.4060 N   0  0  0  0  0  0  0  0  0  0  0  0
  192.3600  171.4280  139.7540 S   0  0  0  0  0  0  0  0  0  0  0  0
  187.5110  174.2900  142.0050 C   0  0  0  0  0  3  0  0  0  0  0  0
  191.4510  173.7430  140.9420 C   0  0  0  0  0  0  0  0  0  0  0  0
  190.4030  175.1350  147.3010 C   0  0  0  0  0  3  0  0  0  0  0  0
  192.7630  174.3880  141.2350 C   0  0  0  0  0  1  0  0  0  0  0  0
  190.3670  176.4580  147.4610 C   0  0  0  0  0  2  0  0  0  0  0  0
  190.2660  174.1390  141.3700 C   0  0  0  0  0  0  0  0  0  0  0  0
  187.7990  176.7050  142.8430 C   0  0  2  0  0  3  0  0  0  0  0  0
  191.2080  172.4590  140.2840 C   0  0  0  0  0  0  0  0  0  0  0  0
  189.3060  173.1090  141.0230 C   0  0  0  0  0  0  0  0  0  0  0  0
  189.7230  177.7830  143.9500 C   0  0  0  0  0  3  0  0  0  0  0  0
  189.8950  175.2320  142.3190 C   0  0  1  0  0  3  0  0  0  0  0  0
  190.3930  174.5620  145.9890 N   0  0  0  0  0  0  0  0  0  0  0  0
  187.9490  173.1830  141.4690 N   0  0  0  0  0  0  0  0  0  0  0  0
  190.4150  177.3750  146.2730 C   0  0  0  0  0  2  0  0  0  0  0  0
  189.6670  176.7910  145.0750 C   0  0  2  0  0  3  0  0  0  0  0  0
  190.1160  175.3540  144.8270 C   0  0  0  0  0  0  0  0  0  0  0  0
  184.2060  178.2280  141.0360 C   0  0  0  0  0  3  0  0  0  0  0  0
  186.5550  177.2300  142.1950 C   0  0  0  0  0  0  0  0  0  0  0  0
  185.4120  177.4250  142.9780 C   0  0  0  0  0  3  0  0  0  0  0  0
  184.2390  177.9220  142.3990 C   0  0  0  0  0  3  0  0  0  0  0  0
  185.3450  178.0370  140.2490 C   0  0  0  0  0  3  0  0  0  0  0  0
  186.5180  177.5400  140.8250 C   0  0  0  0  0  3  0  0  0  0  0  0
  1 15  2  0  0  0  0
  2  6  1  1  0  0  0
  2 16  1  0  0  0  0
  2 12  1  0  0  0  0
  3 21  2  0  0  0  0
  4 14  2  0  0  0  0
  5 13  2  0  0  0  0
  7  9  1  0  0  0  0
  7 11  2  0  0  0  0
  8 10  1  0  0  0  0
 12 23  1  6  0  0  0
 12  1  1  0  0  0  0
 13  4  1  0  0  0  0
 13  7  1  0  0  0  0
 14 11  1  0  0  0  0
 14 18  1  0  0  0  0
 16 11  1  6  0  0  0
 16  3  1  0  0  0  0
 17  8  2  0  0  0  0
 18  6  2  0  0  0  0
 19 10  1  0  0  0  0
 20 15  1  6  0  0  0
 20 19  1  0  0  0  0
 21 20  1  0  0  0  0
 21 17  1  0  0  0  0
 22 25  1  0  0  0  0
 23 24  1  0  0  0  0
 25 24  2  0  0  0  0
 26 27  1  0  0  0  0
 26 22  2  0  0  0  0
 27 23  2  0  0  0  0
M  END
>  <MODEL>
3

>  <REMARK>
 VINA RESULT:      -7.5      3.455      5.779
  Name = 
  1 active torsions:
  status: ('A' for Active; 'I' for Inactive)
    1  A    between atoms: C_9  and  C_15
                            x       y       z     vdW  Elec       q    Type
                         _______ _______ _______ _____ _____    ______ ____

>  <TORSDO>
F 1

$$$$
=
 OpenBabel11052418243D

 27 31  0  0  1  0  0  0  0  0999 V2000
  190.3480  177.1110  144.1570 C   0  0  0  0  0  3  0  0  0  0  0  0
  189.7620  174.7210  143.9350 C   0  0  1  0  0  3  0  0  0  0  0  0
  192.2300  174.3120  143.7910 N   0  0  0  0  0  0  0  0  0  0  0  0
  190.0920  171.2290  141.8700 N   0  0  0  0  0  0  0  0  0  0  0  0
  191.4460  170.6890  139.5990 S   0  0  0  0  0  0  0  0  0  0  0  0
  189.3220  173.4150  144.5820 C   0  0  0  0  0  3  0  0  0  0  0  0
  191.3180  173.0600  140.9980 C   0  0  0  0  0  0  0  0  0  0  0  0
  194.9510  175.2200  146.0580 C   0  0  0  0  0  3  0  0  0  0  0  0
  192.3160  173.8470  140.2190 C   0  0  0  0  0  1  0  0  0  0  0  0
  194.8340  176.5450  146.1500 C   0  0  0  0  0  2  0  0  0  0  0  0
  190.7590  173.4100  142.1420 C   0  0  0  0  0  0  0  0  0  0  0  0
  189.7390  175.9370  144.8640 C   0  0  2  0  0  3  0  0  0  0  0  0
  190.8830  171.6830  140.7690 C   0  0  0  0  0  0  0  0  0  0  0  0
  190.0200  172.2650  142.6400 C   0  0  0  0  0  0  0  0  0  0  0  0
  191.6670  177.3160  144.1800 C   0  0  0  0  0  3  0  0  0  0  0  0
  191.0150  174.5890  143.0250 C   0  0  1  0  0  3  0  0  0  0  0  0
  194.0930  174.4730  145.1880 N   0  0  0  0  0  0  0  0  0  0  0  0
  189.4090  172.2850  143.9330 N   0  0  0  0  0  0  0  0  0  0  0  0
  193.8690  177.2900  145.2740 C   0  0  0  0  0  2  0  0  0  0  0  0
  192.5940  176.4860  145.0220 C   0  0  2  0  0  3  0  0  0  0  0  0
  192.9470  175.0710  144.5720 C   0  0  0  0  0  0  0  0  0  0  0  0
  185.7230  176.8580  146.0990 C   0  0  0  0  0  3  0  0  0  0  0  0
  188.3460  176.2620  145.3130 C   0  0  0  0  0  0  0  0  0  0  0  0
  187.3700  176.5430  144.3510 C   0  0  0  0  0  3  0  0  0  0  0  0
  186.0620  176.8420  144.7430 C   0  0  0  0  0  3  0  0  0  0  0  0
  186.6930  176.5750  147.0640 C   0  0  0  0  0  3  0  0  0  0  0  0
  188.0020  176.2770  146.6750 C   0  0  0  0  0  3  0  0  0  0  0  0
  1 15  2  0  0  0  0
  1 12  1  0  0  0  0
  2  6  1  1  0  0  0
  2 12  1  0  0  0  0
  3 21  2  0  0  0  0
  4 14  2  0  0  0  0
  5 13  2  0  0  0  0
  7 11  2  0  0  0  0
  8 10  1  0  0  0  0
  9  7  1  0  0  0  0
 11 14  1  0  0  0  0
 12 23  1  6  0  0  0
 13  7  1  0  0  0  0
 13  4  1  0  0  0  0
 14 18  1  0  0  0  0
 16 11  1  6  0  0  0
 16  3  1  0  0  0  0
 16  2  1  0  0  0  0
 17  8  2  0  0  0  0
 18  6  2  0  0  0  0
 19 10  1  0  0  0  0
 20 15  1  6  0  0  0
 20 19  1  0  0  0  0
 21 20  1  0  0  0  0
 21 17  1  0  0  0  0
 22 26  1  0  0  0  0
 23 27  1  0  0  0  0
 24 25  1  0  0  0  0
 24 23  2  0  0  0  0
 25 22  2  0  0  0  0
 27 26  2  0  0  0  0
M  END
>  <MODEL>
4

>  <REMARK>
 VINA RESULT:      -7.4      3.366      5.993
  Name = 
  1 active torsions:
  status: ('A' for Active; 'I' for Inactive)
    1  A    between atoms: C_9  and  C_15
                            x       y       z     vdW  Elec       q    Type
                         _______ _______ _______ _____ _____    ______ ____

>  <TORSDO>
F 1

$$$$
=
 OpenBabel11052418243D

 27 31  0  0  1  0  0  0  0  0999 V2000
  189.7290  173.9630  144.4060 C   0  0  0  0  0  3  0  0  0  0  0  0
  188.9340  175.9990  143.2520 C   0  0  1  0  0  3  0  0  0  0  0  0
  188.7540  177.0090  145.5380 N   0  0  0  0  0  0  0  0  0  0  0  0
  186.1080  178.9010  142.8580 N   0  0  0  0  0  0  0  0  0  0  0  0
  183.8050  179.2640  144.2190 S   0  0  0  0  0  0  0  0  0  0  0  0
  189.2420  177.2490  142.4410 C   0  0  0  0  0  3  0  0  0  0  0  0
  185.7230  177.3180  144.5790 C   0  0  0  0  0  0  0  0  0  0  0  0
  191.2340  177.3900  148.1980 C   0  0  0  0  0  3  0  0  0  0  0  0
  185.1760  176.6730  145.8070 C   0  0  0  0  0  1  0  0  0  0  0  0
  191.6350  176.1370  148.4140 C   0  0  0  0  0  2  0  0  0  0  0  0
  186.9040  177.0950  144.0320 C   0  0  0  0  0  0  0  0  0  0  0  0
  190.1230  175.0580  143.4610 C   0  0  2  0  0  3  0  0  0  0  0  0
  185.1640  178.4420  143.8290 C   0  0  0  0  0  0  0  0  0  0  0  0
  187.0990  178.0820  142.9870 C   0  0  0  0  0  0  0  0  0  0  0  0
  189.8310  174.1290  145.7270 C   0  0  0  0  0  3  0  0  0  0  0  0
  188.0470  176.2550  144.5040 C   0  0  1  0  0  3  0  0  0  0  0  0
  190.1920  177.6670  147.2550 N   0  0  0  0  0  0  0  0  0  0  0  0
  188.3450  178.1870  142.2930 N   0  0  0  0  0  0  0  0  0  0  0  0
  190.9380  174.9850  147.7490 C   0  0  0  0  0  2  0  0  0  0  0  0
  190.4730  175.3420  146.3370 C   0  0  2  0  0  3  0  0  0  0  0  0
  189.7090  176.6630  146.3560 C   0  0  0  0  0  0  0  0  0  0  0  0
  191.4480  173.4030  139.7190 C   0  0  0  0  0  3  0  0  0  0  0  0
  190.6040  174.4810  142.1640 C   0  0  0  0  0  0  0  0  0  0  0  0
  189.6830  173.8620  141.3130 C   0  0  0  0  0  3  0  0  0  0  0  0
  190.1040  173.3220  140.0930 C   0  0  0  0  0  3  0  0  0  0  0  0
  192.3730  174.0230  140.5630 C   0  0  0  0  0  3  0  0  0  0  0  0
  191.9540  174.5620  141.7830 C   0  0  0  0  0  3  0  0  0  0  0  0
  1 15  2  0  0  0  0
  2  6  1  1  0  0  0
  2 12  1  0  0  0  0
  2 16  1  0  0  0  0
  3 21  2  0  0  0  0
  4 14  2  0  0  0  0
  4 13  1  0  0  0  0
  7  9  1  0  0  0  0
  8 10  1  0  0  0  0
 11  7  2  0  0  0  0
 12 23  1  6  0  0  0
 12  1  1  0  0  0  0
 13  5  2  0  0  0  0
 13  7  1  0  0  0  0
 14 11  1  0  0  0  0
 16 11  1  6  0  0  0
 16  3  1  0  0  0  0
 17  8  2  0  0  0  0
 18  6  2  0  0  0  0
 18 14  1  0  0  0  0
 19 10  1  0  0  0  0
 20 15  1  1  0  0  0
 20 21  1  0  0  0  0
 20 19  1  0  0  0  0
 21 17  1  0  0  0  0
 22 25  2  0  0  0  0
 22 26  1  0  0  0  0
 24 23  2  0  0  0  0
 25 24  1  0  0  0  0
 26 27  2  0  0  0  0
 27 23  1  0  0  0  0
M  END
>  <MODEL>
5

>  <REMARK>
 VINA RESULT:      -7.3      1.811      2.249
  Name = 
  1 active torsions:
  status: ('A' for Active; 'I' for Inactive)
    1  A    between atoms: C_9  and  C_15
                            x       y       z     vdW  Elec       q    Type
                         _______ _______ _______ _____ _____    ______ ____

>  <TORSDO>
F 1

$$$$
=
 OpenBabel11052418243D

 27 31  0  0  1  0  0  0  0  0999 V2000
  191.4020  176.0690  143.0060 C   0  0  0  0  0  3  0  0  0  0  0  0
  190.1040  175.8080  145.0930 C   0  0  1  0  0  3  0  0  0  0  0  0
  188.1860  175.1740  143.6110 N   0  0  0  0  0  0  0  0  0  0  0  0
  186.7930  176.7240  147.2740 N   0  0  0  0  0  0  0  0  0  0  0  0
  184.7090  178.3260  146.6590 S   0  0  0  0  0  0  0  0  0  0  0  0
  189.7600  174.9860  146.3270 C   0  0  0  0  0  3  0  0  0  0  0  0
  186.8960  177.6820  145.1090 C   0  0  0  0  0  0  0  0  0  0  0  0
  187.8830  172.5790  141.0530 C   0  0  0  0  0  3  0  0  0  0  0  0
  186.4850  178.3420  143.8370 C   0  0  0  0  0  1  0  0  0  0  0  0
  188.8760  172.8700  140.2130 C   0  0  0  0  0  3  0  0  0  0  0  0
  187.9170  176.8620  145.2770 C   0  0  0  0  0  0  0  0  0  0  0  0
  191.2770  175.2700  144.2690 C   0  0  2  0  0  3  0  0  0  0  0  0
  186.1730  177.6520  146.3800 C   0  0  0  0  0  0  0  0  0  0  0  0
  187.8170  176.3000  146.6100 C   0  0  0  0  0  0  0  0  0  0  0  0
  190.6960  175.7470  141.9200 C   0  0  0  0  0  3  0  0  0  0  0  0
  188.8670  176.2820  144.2790 C   0  0  1  0  0  3  0  0  0  0  0  0
  187.6140  173.4210  142.1800 N   0  0  0  0  0  2  0  0  0  0  0  0
  188.7080  175.2700  147.0470 N   0  0  0  0  0  0  0  0  0  0  0  0
  189.6680  174.1360  140.3730 C   0  0  0  0  0  2  0  0  0  0  0  0
  189.8600  174.5020  141.8450 C   0  0  2  0  0  3  0  0  0  0  0  0
  188.5220  174.4550  142.5760 C   0  0  0  0  0  0  0  0  0  0  0  0
  194.9780  175.3450  146.4590 C   0  0  0  0  0  3  0  0  0  0  0  0
  192.5600  175.3120  145.0430 C   0  0  0  0  0  0  0  0  0  0  0  0
  193.4040  174.1960  145.0200 C   0  0  0  0  0  3  0  0  0  0  0  0
  194.6100  174.2120  145.7280 C   0  0  0  0  0  3  0  0  0  0  0  0
  194.1410  176.4630  146.4830 C   0  0  0  0  0  3  0  0  0  0  0  0
  192.9340  176.4490  145.7780 C   0  0  0  0  0  3  0  0  0  0  0  0
  1 12  1  0  0  0  0
  2  6  1  1  0  0  0
  6 18  2  0  0  0  0
  7 11  2  0  0  0  0
  7 13  1  0  0  0  0
  8 17  1  0  0  0  0
  9  7  1  0  0  0  0
 10 19  1  0  0  0  0
 10  8  2  0  0  0  0
 11 14  1  0  0  0  0
 12 23  1  1  0  0  0
 12  2  1  0  0  0  0
 13  5  2  0  0  0  0
 13  4  1  0  0  0  0
 14 18  1  0  0  0  0
 14  4  2  0  0  0  0
 15  1  2  0  0  0  0
 16  3  1  1  0  0  0
 16  2  1  0  0  0  0
 16 11  1  0  0  0  0
 17 21  1  0  0  0  0
 20 19  1  6  0  0  0
 20 15  1  0  0  0  0
 20 21  1  0  0  0  0
 21  3  2  0  0  0  0
 22 26  1  0  0  0  0
 23 27  1  0  0  0  0
 24 23  2  0  0  0  0
 24 25  1  0  0  0  0
 25 22  2  0  0  0  0
 27 26  2  0  0  0  0
M  END
>  <MODEL>
6

>  <REMARK>
 VINA RESULT:      -7.2      1.721      5.301
  Name = 
  1 active torsions:
  status: ('A' for Active; 'I' for Inactive)
    1  A    between atoms: C_9  and  C_15
                            x       y       z     vdW  Elec       q    Type
                         _______ _______ _______ _____ _____    ______ ____

>  <TORSDO>
F 1

$$$$
=
 OpenBabel11052418243D

 27 31  0  0  1  0  0  0  0  0999 V2000
  187.6990  176.3370  146.5460 C   0  0  0  0  0  3  0  0  0  0  0  0
  189.5900  176.3170  144.9550 C   0  0  1  0  0  3  0  0  0  0  0  0
  187.8540  176.5510  143.1640 N   0  0  0  0  0  0  0  0  0  0  0  0
  191.3360  174.7310  141.6390 N   0  0  0  0  0  0  0  0  0  0  0  0
  190.4890  172.7380  140.0280 S   0  0  0  0  0  0  0  0  0  0  0  0
  190.7480  177.0450  144.2890 C   0  0  0  0  0  3  0  0  0  0  0  0
  189.2260  173.8250  142.2240 C   0  0  0  0  0  0  0  0  0  0  0  0
  185.2200  179.0410  142.6830 C   0  0  0  0  0  3  0  0  0  0  0  0
  187.9260  173.1000  142.1300 C   0  0  0  0  0  1  0  0  0  0  0  0
  184.5240  178.9630  143.8180 C   0  0  0  0  0  2  0  0  0  0  0  0
  189.5080  174.8360  143.0250 C   0  0  0  0  0  0  0  0  0  0  0  0
  188.9160  177.0880  146.0930 C   0  0  2  0  0  3  0  0  0  0  0  0
  190.3900  173.7000  141.3460 C   0  0  0  0  0  0  0  0  0  0  0  0
  190.8030  175.3590  142.6350 C   0  0  0  0  0  0  0  0  0  0  0  0
  186.5220  176.5120  145.9410 C   0  0  0  0  0  3  0  0  0  0  0  0
  188.6310  175.6030  143.9610 C   0  0  1  0  0  3  0  0  0  0  0  0
  186.3200  178.1560  142.4430 N   0  0  0  0  0  0  0  0  0  0  0  0
  191.3300  176.5480  143.2310 N   0  0  0  0  0  0  0  0  0  0  0  0
  184.8160  177.8860  144.8220 C   0  0  0  0  0  2  0  0  0  0  0  0
  186.3090  177.5600  144.8870 C   0  0  2  0  0  3  0  0  0  0  0  0
  186.8560  177.3280  143.4810 C   0  0  0  0  0  0  0  0  0  0  0  0
  191.5660  177.7530  149.4150 C   0  0  0  0  0  3  0  0  0  0  0  0
  189.8530  177.3060  147.2430 C   0  0  0  0  0  0  0  0  0  0  0  0
  189.6910  178.4420  148.0440 C   0  0  0  0  0  3  0  0  0  0  0  0
  190.5470  178.6660  149.1270 C   0  0  0  0  0  3  0  0  0  0  0  0
  191.7310  176.6160  148.6200 C   0  0  0  0  0  3  0  0  0  0  0  0
  190.8770  176.3910  147.5360 C   0  0  0  0  0  3  0  0  0  0  0  0
  2  6  1  6  0  0  0
  2 12  1  0  0  0  0
  3 21  2  0  0  0  0
  3 16  1  0  0  0  0
  4 14  2  0  0  0  0
  5 13  2  0  0  0  0
  7 11  2  0  0  0  0
  8 10  1  0  0  0  0
  9  7  1  0  0  0  0
 10 19  1  0  0  0  0
 12  1  1  0  0  0  0
 12 23  1  1  0  0  0
 13  4  1  0  0  0  0
 13  7  1  0  0  0  0
 14 11  1  0  0  0  0
 14 18  1  0  0  0  0
 15  1  2  0  0  0  0
 16 11  1  6  0  0  0
 16  2  1  0  0  0  0
 17  8  2  0  0  0  0
 17 21  1  0  0  0  0
 18  6  2  0  0  0  0
 20 19  1  6  0  0  0
 20 15  1  0  0  0  0
 21 20  1  0  0  0  0
 23 27  2  0  0  0  0
 23 24  1  0  0  0  0
 24 25  2  0  0  0  0
 25 22  1  0  0  0  0
 26 22  2  0  0  0  0
 27 26  1  0  0  0  0
M  END
>  <MODEL>
7

>  <REMARK>
 VINA RESULT:      -7.2      2.969      7.145
  Name = 
  1 active torsions:
  status: ('A' for Active; 'I' for Inactive)
    1  A    between atoms: C_9  and  C_15
                            x       y       z     vdW  Elec       q    Type
                         _______ _______ _______ _____ _____    ______ ____

>  <TORSDO>
F 1

$$$$
=
 OpenBabel11052418243D

 27 31  0  0  1  0  0  0  0  0999 V2000
  187.5600  174.8580  142.7850 C   0  0  0  0  0  3  0  0  0  0  0  0
  189.5560  176.2660  143.1580 C   0  0  1  0  0  3  0  0  0  0  0  0
  190.7970  174.5520  141.8170 N   0  0  0  0  0  0  0  0  0  0  0  0
  193.4100  176.5820  144.4280 N   0  0  0  0  0  0  0  0  0  0  0  0
  195.0490  174.6980  145.4520 S   0  0  0  0  0  0  0  0  0  0  0  0
  190.3690  177.5050  142.8080 C   0  0  0  0  0  3  0  0  0  0  0  0
  192.4650  174.4110  144.5370 C   0  0  0  0  0  0  0  0  0  0  0  0
  190.2080  173.2470  138.4520 C   0  0  0  0  0  3  0  0  0  0  0  0
  192.3430  172.9280  144.6380 C   0  0  0  0  0  1  0  0  0  0  0  0
  188.9620  172.7800  138.5270 C   0  0  0  0  0  3  0  0  0  0  0  0
  191.6120  175.2330  143.9540 C   0  0  0  0  0  0  0  0  0  0  0  0
  188.1800  176.1920  142.4920 C   0  0  2  0  0  3  0  0  0  0  0  0
  193.6140  175.2440  144.8900 C   0  0  0  0  0  0  0  0  0  0  0  0
  192.2270  176.5460  143.9080 C   0  0  0  0  0  0  0  0  0  0  0  0
  187.8160  173.7990  142.0130 C   0  0  0  0  0  3  0  0  0  0  0  0
  190.3780  174.9460  143.1610 C   0  0  1  0  0  3  0  0  0  0  0  0
  190.8510  173.7910  139.6110 N   0  0  0  0  0  2  0  0  0  0  0  0
  191.6030  177.6310  143.2150 N   0  0  0  0  0  0  0  0  0  0  0  0
  188.2440  172.7220  139.8440 C   0  0  0  0  0  2  0  0  0  0  0  0
  188.6060  173.9060  140.7400 C   0  0  2  0  0  3  0  0  0  0  0  0
  190.1230  174.0630  140.8130 C   0  0  0  0  0  0  0  0  0  0  0  0
  185.5740  179.3650  143.7730 C   0  0  0  0  0  3  0  0  0  0  0  0
  187.2820  177.2990  142.9560 C   0  0  0  0  0  0  0  0  0  0  0  0
  186.5340  178.0080  142.0110 C   0  0  0  0  0  3  0  0  0  0  0  0
  185.6830  179.0410  142.4180 C   0  0  0  0  0  3  0  0  0  0  0  0
  186.3160  178.6580  144.7230 C   0  0  0  0  0  3  0  0  0  0  0  0
  187.1690  177.6260  144.3180 C   0  0  0  0  0  3  0  0  0  0  0  0
  2  6  1  6  0  0  0
  2 16  1  0  0  0  0
  4 13  1  0  0  0  0
  6 18  2  0  0  0  0
  7  9  1  0  0  0  0
  7 13  1  0  0  0  0
  8 10  2  0  0  0  0
  8 17  1  0  0  0  0
 10 19  1  0  0  0  0
 11  7  2  0  0  0  0
 12  1  1  0  0  0  0
 12 23  1  1  0  0  0
 12  2  1  0  0  0  0
 13  5  2  0  0  0  0
 14 11  1  0  0  0  0
 14  4  2  0  0  0  0
 15  1  2  0  0  0  0
 16  3  1  6  0  0  0
 16 11  1  0  0  0  0
 17 21  1  0  0  0  0
 18 14  1  0  0  0  0
 20 19  1  6  0  0  0
 20 21  1  0  0  0  0
 20 15  1  0  0  0  0
 21  3  2  0  0  0  0
 22 26  1  0  0  0  0
 23 27  1  0  0  0  0
 24 25  1  0  0  0  0
 24 23  2  0  0  0  0
 25 22  2  0  0  0  0
 27 26  2  0  0  0  0
M  END
>  <MODEL>
8

>  <REMARK>
 VINA RESULT:      -7.2      2.733      6.223
  Name = 
  1 active torsions:
  status: ('A' for Active; 'I' for Inactive)
    1  A    between atoms: C_9  and  C_15
                            x       y       z     vdW  Elec       q    Type
                         _______ _______ _______ _____ _____    ______ ____

>  <TORSDO>
F 1

$$$$
=
 OpenBabel11052418243D

 27 31  0  0  1  0  0  0  0  0999 V2000
  189.3130  173.7030  144.0470 C   0  0  0  0  0  3  0  0  0  0  0  0
  191.1950  175.2060  144.6000 C   0  0  1  0  0  3  0  0  0  0  0  0
  192.4610  173.9880  142.8140 N   0  0  0  0  0  0  0  0  0  0  0  0
  195.1030  175.6590  145.6400 N   0  0  0  0  0  0  0  0  0  0  0  0
  196.9990  173.7890  146.0810 S   0  0  0  0  0  0  0  0  0  0  0  0
  191.8520  176.5750  144.4940 C   0  0  0  0  0  3  0  0  0  0  0  0
  194.3800  173.4280  145.3040 C   0  0  0  0  0  0  0  0  0  0  0  0
  191.6870  173.4160  139.2860 C   0  0  0  0  0  3  0  0  0  0  0  0
  194.4070  171.9560  145.0650 C   0  0  0  0  0  1  0  0  0  0  0  0
  190.5030  172.8060  139.3350 C   0  0  0  0  0  3  0  0  0  0  0  0
  193.4030  174.2590  144.9900 C   0  0  0  0  0  0  0  0  0  0  0  0
  189.7750  175.1290  144.0310 C   0  0  2  0  0  3  0  0  0  0  0  0
  195.4740  174.2830  145.7630 C   0  0  0  0  0  0  0  0  0  0  0  0
  193.8860  175.6090  145.2100 C   0  0  0  0  0  0  0  0  0  0  0  0
  189.5950  172.8810  143.0330 C   0  0  0  0  0  3  0  0  0  0  0  0
  192.1330  174.0200  144.2380 C   0  0  1  0  0  3  0  0  0  0  0  0
  192.3810  173.7530  140.4920 N   0  0  0  0  0  2  0  0  0  0  0  0
  193.1020  176.7440  144.8330 N   0  0  0  0  0  0  0  0  0  0  0  0
  189.9190  172.3730  140.6490 C   0  0  0  0  0  2  0  0  0  0  0  0
  190.2500  173.3590  141.7690 C   0  0  2  0  0  3  0  0  0  0  0  0
  191.7450  173.6650  141.7730 C   0  0  0  0  0  0  0  0  0  0  0  0
  187.0700  177.5940  146.2910 C   0  0  0  0  0  3  0  0  0  0  0  0
  188.8250  175.9950  144.8020 C   0  0  0  0  0  0  0  0  0  0  0  0
  188.5670  175.6950  146.1430 C   0  0  0  0  0  3  0  0  0  0  0  0
  187.6900  176.4910  146.8870 C   0  0  0  0  0  3  0  0  0  0  0  0
  187.3260  177.9000  144.9520 C   0  0  0  0  0  3  0  0  0  0  0  0
  188.2010  177.1050  144.2070 C   0  0  0  0  0  3  0  0  0  0  0  0
  2  6  1  6  0  0  0
  4 13  1  0  0  0  0
  6 18  2  0  0  0  0
  7 13  1  0  0  0  0
  8 10  2  0  0  0  0
  8 17  1  0  0  0  0
  9  7  1  0  0  0  0
 10 19  1  0  0  0  0
 11 14  1  0  0  0  0
 11  7  2  0  0  0  0
 12  1  1  0  0  0  0
 12  2  1  0  0  0  0
 12 23  1  1  0  0  0
 13  5  2  0  0  0  0
 14  4  2  0  0  0  0
 15  1  2  0  0  0  0
 16  3  1  6  0  0  0
 16  2  1  0  0  0  0
 16 11  1  0  0  0  0
 17 21  1  0  0  0  0
 18 14  1  0  0  0  0
 20 19  1  6  0  0  0
 20 21  1  0  0  0  0
 20 15  1  0  0  0  0
 21  3  2  0  0  0  0
 22 25  1  0  0  0  0
 23 24  1  0  0  0  0
 24 25  2  0  0  0  0
 26 22  2  0  0  0  0
 27 23  2  0  0  0  0
 27 26  1  0  0  0  0
M  END
>  <MODEL>
9

>  <REMARK>
 VINA RESULT:      -7.0      3.205      6.632
  Name = 
  1 active torsions:
  status: ('A' for Active; 'I' for Inactive)
    1  A    between atoms: C_9  and  C_15
                            x       y       z     vdW  Elec       q    Type
                         _______ _______ _______ _____ _____    ______ ____

>  <TORSDO>
F 1

$$$$
