=
 OpenBabel11052417333D

 25 28  0  0  0  0  0  0  0  0999 V2000
  186.7690  176.8060  143.8340 C   0  0  0  0  0  0  0  0  0  0  0  0
  187.9140  175.9960  143.8190 C   0  0  0  0  0  0  0  0  0  0  0  0
  186.7250  176.7990  141.4090 C   0  0  0  0  0  3  0  0  0  0  0  0
  186.0740  177.3150  144.9430 C   0  0  0  0  0  0  0  0  0  0  0  0
  184.4460  178.4970  146.8790 C   0  0  0  0  0  3  0  0  0  0  0  0
  187.8370  176.0130  141.4050 N   0  0  0  0  0  0  0  0  0  0  0  0
  184.9730  178.0890  144.5770 C   0  0  0  0  0  0  0  0  0  0  0  0
  184.1450  178.6890  145.5220 C   0  0  0  0  0  3  0  0  0  0  0  0
  189.5850  174.7930  142.5330 C   0  0  0  0  0  0  0  0  0  0  0  0
  190.1880  174.3470  141.2450 C   0  0  0  0  0  1  0  0  0  0  0  0
  188.5180  175.5870  144.9680 N   0  0  0  0  0  0  0  0  0  0  0  0
  185.5530  177.7200  147.2640 C   0  0  0  0  0  3  0  0  0  0  0  0
  186.1910  177.1960  142.6300 C   0  0  0  0  0  0  0  0  0  0  0  0
  184.8340  178.1600  142.8980 S   0  0  0  0  0  0  0  0  0  0  0  0
  190.1770  174.3930  143.7320 C   0  0  0  0  0  3  0  0  0  0  0  0
  186.3750  177.1230  146.2940 C   0  0  0  0  0  3  0  0  0  0  0  0
  189.6280  174.8010  144.9570 C   0  0  0  0  0  0  0  0  0  0  0  0
  188.4420  175.6040  142.5630 C   0  0  0  0  0  0  0  0  0  0  0  0
  190.1980  174.4170  146.1740 O   0  0  0  0  0  0  0  0  0  0  0  0
  190.0520  175.1800  147.3640 C   0  0  0  0  0  2  0  0  0  0  0  0
  191.2910  176.0230  147.5770 C   0  0  0  0  0  2  0  0  0  0  0  0
  192.4850  175.3320  146.9470 C   0  0  0  0  0  2  0  0  0  0  0  0
  193.4120  176.3240  146.4300 N   0  0  0  0  0  0  0  0  0  0  0  0
  194.6680  175.6360  146.1960 C   0  0  0  0  0  1  0  0  0  0  0  0
  192.9160  176.7320  145.1270 C   0  0  0  0  0  1  0  0  0  0  0  0
  1  4  1  0  0  0  0
  2  1  1  0  0  0  0
  2 11  1  0  0  0  0
  3 13  1  0  0  0  0
  4 16  1  0  0  0  0
  5 12  1  0  0  0  0
  6  3  2  0  0  0  0
  6 18  1  0  0  0  0
  7  4  2  0  0  0  0
  7  8  1  0  0  0  0
  8  5  2  0  0  0  0
  9 18  1  0  0  0  0
  9 15  2  0  0  0  0
 10  9  1  0  0  0  0
 13 14  1  0  0  0  0
 13  1  2  0  0  0  0
 14  7  1  0  0  0  0
 15 17  1  0  0  0  0
 16 12  2  0  0  0  0
 17 11  2  0  0  0  0
 17 19  1  0  0  0  0
 18  2  2  0  0  0  0
 19 20  1  0  0  0  0
 20 21  1  0  0  0  0
 22 21  1  0  0  0  0
 23 22  1  0  0  0  0
 24 23  1  0  0  0  0
 25 23  1  0  0  0  0
M  END
>  <MODEL>
1

>  <REMARK>
 VINA RESULT:      -7.1      0.000      0.000
  Name = 
  5 active torsions:
  status: ('A' for Active; 'I' for Inactive)
    1  A    between atoms: N_2  and  C_25
    2  A    between atoms: O_6  and  C_15
    3  A    between atoms: O_6  and  C_23
    4  A    between atoms: C_15  and  C_21
    5  A    between atoms: C_21  and  C_25
                            x       y       z     vdW  Elec       q    Type
                         _______ _______ _______ _____ _____    ______ ____

>  <TORSDO>
F 5

$$$$
=
 OpenBabel11052417333D

 25 28  0  0  0  0  0  0  0  0999 V2000
  186.5900  177.6160  143.7480 C   0  0  0  0  0  0  0  0  0  0  0  0
  185.8940  177.7200  142.5350 C   0  0  0  0  0  0  0  0  0  0  0  0
  188.5960  176.9680  142.5480 C   0  0  0  0  0  3  0  0  0  0  0  0
  186.1160  177.8450  145.0490 C   0  0  0  0  0  0  0  0  0  0  0  0
  185.5440  178.2060  147.7590 C   0  0  0  0  0  3  0  0  0  0  0  0
  187.9110  177.0710  141.3750 N   0  0  0  0  0  0  0  0  0  0  0  0
  187.0960  177.6440  146.0210 C   0  0  0  0  0  0  0  0  0  0  0  0
  186.8370  177.8180  147.3780 C   0  0  0  0  0  3  0  0  0  0  0  0
  185.9080  177.5360  140.1140 C   0  0  0  0  0  0  0  0  0  0  0  0
  186.5870  177.2500  138.8180 C   0  0  0  0  0  1  0  0  0  0  0  0
  184.5820  178.0820  142.4890 N   0  0  0  0  0  0  0  0  0  0  0  0
  184.5440  178.4120  146.7900 C   0  0  0  0  0  3  0  0  0  0  0  0
  187.9300  177.2420  143.7370 C   0  0  0  0  0  0  0  0  0  0  0  0
  188.5510  177.1860  145.3040 S   0  0  0  0  0  0  0  0  0  0  0  0
  184.5640  177.9100  140.1070 C   0  0  0  0  0  3  0  0  0  0  0  0
  184.8270  178.2320  145.4270 C   0  0  0  0  0  3  0  0  0  0  0  0
  183.9040  178.1830  141.3140 C   0  0  0  0  0  0  0  0  0  0  0  0
  186.5920  177.4360  141.3340 C   0  0  0  0  0  0  0  0  0  0  0  0
  182.5590  178.5610  141.3400 O   0  0  0  0  0  0  0  0  0  0  0  0
  181.6020  178.0530  140.4200 C   0  0  0  0  0  2  0  0  0  0  0  0
  180.2310  178.5890  140.7730 C   0  0  0  0  0  2  0  0  0  0  0  0
  180.2630  180.1050  140.7610 C   0  0  0  0  0  2  0  0  0  0  0  0
  178.9630  180.6230  140.3710 N   0  0  0  0  0  0  0  0  0  0  0  0
  179.1750  181.4220  139.1790 C   0  0  0  0  0  1  0  0  0  0  0  0
  178.1550  179.4850  139.9680 C   0  0  0  0  0  1  0  0  0  0  0  0
  1  4  1  0  0  0  0
  2  1  1  0  0  0  0
  3 13  1  0  0  0  0
  4 16  2  0  0  0  0
  4  7  1  0  0  0  0
  6  3  2  0  0  0  0
  7  8  2  0  0  0  0
  8  5  1  0  0  0  0
  9 18  1  0  0  0  0
 10  9  1  0  0  0  0
 11  2  1  0  0  0  0
 12  5  2  0  0  0  0
 13  1  2  0  0  0  0
 13 14  1  0  0  0  0
 14  7  1  0  0  0  0
 15  9  2  0  0  0  0
 15 17  1  0  0  0  0
 16 12  1  0  0  0  0
 17 19  1  0  0  0  0
 17 11  2  0  0  0  0
 18  6  1  0  0  0  0
 18  2  2  0  0  0  0
 20 21  1  0  0  0  0
 20 19  1  0  0  0  0
 22 21  1  0  0  0  0
 23 22  1  0  0  0  0
 24 23  1  0  0  0  0
 25 23  1  0  0  0  0
M  END
>  <MODEL>
2

>  <REMARK>
 VINA RESULT:      -6.8      4.541      8.302
  Name = 
  5 active torsions:
  status: ('A' for Active; 'I' for Inactive)
    1  A    between atoms: N_2  and  C_25
    2  A    between atoms: O_6  and  C_15
    3  A    between atoms: O_6  and  C_23
    4  A    between atoms: C_15  and  C_21
    5  A    between atoms: C_21  and  C_25
                            x       y       z     vdW  Elec       q    Type
                         _______ _______ _______ _____ _____    ______ ____

>  <TORSDO>
F 5

$$$$
=
 OpenBabel11052417333D

 25 28  0  0  0  0  0  0  0  0999 V2000
  187.3000  176.7170  143.0500 C   0  0  0  0  0  0  0  0  0  0  0  0
  187.2250  176.8950  144.4400 C   0  0  0  0  0  0  0  0  0  0  0  0
  185.9850  178.7280  142.7150 C   0  0  0  0  0  3  0  0  0  0  0  0
  187.9430  175.6950  142.3350 C   0  0  0  0  0  0  0  0  0  0  0  0
  189.0900  173.8480  140.5810 C   0  0  0  0  0  3  0  0  0  0  0  0
  185.9180  178.8910  144.0660 N   0  0  0  0  0  0  0  0  0  0  0  0
  187.8090  175.8390  140.9540 C   0  0  0  0  0  0  0  0  0  0  0  0
  188.3710  174.9330  140.0590 C   0  0  0  0  0  3  0  0  0  0  0  0
  186.4290  178.2070  146.3210 C   0  0  0  0  0  0  0  0  0  0  0  0
  185.6930  179.3650  146.9030 C   0  0  0  0  0  1  0  0  0  0  0  0
  187.8140  176.0270  145.3070 N   0  0  0  0  0  0  0  0  0  0  0  0
  189.2340  173.6890  141.9720 C   0  0  0  0  0  3  0  0  0  0  0  0
  186.6800  177.6350  142.2080 C   0  0  0  0  0  0  0  0  0  0  0  0
  186.9050  177.2150  140.5910 S   0  0  0  0  0  0  0  0  0  0  0  0
  187.0450  177.2960  147.1790 C   0  0  0  0  0  3  0  0  0  0  0  0
  188.6600  174.6140  142.8580 C   0  0  0  0  0  3  0  0  0  0  0  0
  187.7420  176.1980  146.6550 C   0  0  0  0  0  0  0  0  0  0  0  0
  186.5110  178.0160  144.9340 C   0  0  0  0  0  0  0  0  0  0  0  0
  188.3710  175.2680  147.4880 O   0  0  0  0  0  0  0  0  0  0  0  0
  189.6150  174.6640  147.1630 C   0  0  0  0  0  2  0  0  0  0  0  0
  190.7450  175.5600  147.6210 C   0  0  0  0  0  2  0  0  0  0  0  0
  191.8530  175.5460  146.5850 C   0  0  0  0  0  2  0  0  0  0  0  0
  191.2800  175.5010  145.2510 N   0  0  0  0  0  0  0  0  0  0  0  0
  191.3360  176.8540  144.7300 C   0  0  0  0  0  1  0  0  0  0  0  0
  192.1760  174.7060  144.4290 C   0  0  0  0  0  1  0  0  0  0  0  0
  1  2  2  0  0  0  0
  2 18  1  0  0  0  0
  2 11  1  0  0  0  0
  3  6  1  0  0  0  0
  4 16  1  0  0  0  0
  4  1  1  0  0  0  0
  5 12  1  0  0  0  0
  6 18  2  0  0  0  0
  7  4  2  0  0  0  0
  8  5  2  0  0  0  0
  8  7  1  0  0  0  0
  9 10  1  0  0  0  0
  9 15  2  0  0  0  0
 11 17  2  0  0  0  0
 12 16  2  0  0  0  0
 13  3  2  0  0  0  0
 13  1  1  0  0  0  0
 14  7  1  0  0  0  0
 14 13  1  0  0  0  0
 17 15  1  0  0  0  0
 17 19  1  0  0  0  0
 18  9  1  0  0  0  0
 20 19  1  0  0  0  0
 20 21  1  0  0  0  0
 22 21  1  0  0  0  0
 23 22  1  0  0  0  0
 24 23  1  0  0  0  0
 25 23  1  0  0  0  0
M  END
>  <MODEL>
3

>  <REMARK>
 VINA RESULT:      -6.7      1.787      4.496
  Name = 
  5 active torsions:
  status: ('A' for Active; 'I' for Inactive)
    1  A    between atoms: N_2  and  C_25
    2  A    between atoms: O_6  and  C_15
    3  A    between atoms: O_6  and  C_23
    4  A    between atoms: C_15  and  C_21
    5  A    between atoms: C_21  and  C_25
                            x       y       z     vdW  Elec       q    Type
                         _______ _______ _______ _____ _____    ______ ____

>  <TORSDO>
F 5

$$$$
=
 OpenBabel11052417333D

 25 28  0  0  0  0  0  0  0  0999 V2000
  185.7360  177.5860  143.7250 C   0  0  0  0  0  0  0  0  0  0  0  0
  186.5390  176.9220  142.7860 C   0  0  0  0  0  0  0  0  0  0  0  0
  184.4750  178.6170  141.9280 C   0  0  0  0  0  3  0  0  0  0  0  0
  185.8060  177.5320  145.1270 C   0  0  0  0  0  0  0  0  0  0  0  0
  185.6350  177.6820  147.9100 C   0  0  0  0  0  3  0  0  0  0  0  0
  185.2610  177.9690  141.0240 N   0  0  0  0  0  0  0  0  0  0  0  0
  184.8410  178.3280  145.7430 C   0  0  0  0  0  0  0  0  0  0  0  0
  184.7340  178.4200  147.1280 C   0  0  0  0  0  3  0  0  0  0  0  0
  187.0710  176.4790  140.4600 C   0  0  0  0  0  0  0  0  0  0  0  0
  186.8440  176.6610  138.9970 C   0  0  0  0  0  1  0  0  0  0  0  0
  187.5500  176.0930  143.1650 N   0  0  0  0  0  0  0  0  0  0  0  0
  186.6140  176.8750  147.3030 C   0  0  0  0  0  3  0  0  0  0  0  0
  184.7160  178.4230  143.2830 C   0  0  0  0  0  0  0  0  0  0  0  0
  183.8910  179.1050  144.5870 S   0  0  0  0  0  0  0  0  0  0  0  0
  188.0980  175.6360  140.8850 C   0  0  0  0  0  3  0  0  0  0  0  0
  186.7050  176.7960  145.9040 C   0  0  0  0  0  3  0  0  0  0  0  0
  188.3310  175.4490  142.2560 C   0  0  0  0  0  0  0  0  0  0  0  0
  186.2760  177.1360  141.4100 C   0  0  0  0  0  0  0  0  0  0  0  0
  189.3520  174.6110  142.7150 O   0  0  0  0  0  0  0  0  0  0  0  0
  190.4380  175.0840  143.4990 C   0  0  0  0  0  2  0  0  0  0  0  0
  190.1880  174.7540  144.9550 C   0  0  0  0  0  2  0  0  0  0  0  0
  190.5300  175.9580  145.8110 C   0  0  0  0  0  2  0  0  0  0  0  0
  190.0860  175.7350  147.1760 N   0  0  0  0  0  0  0  0  0  0  0  0
  189.3260  174.5000  147.1700 C   0  0  0  0  0  1  0  0  0  0  0  0
  191.2740  175.4840  147.9740 C   0  0  0  0  0  1  0  0  0  0  0  0
  1  4  1  0  0  0  0
  2 11  1  0  0  0  0
  2  1  1  0  0  0  0
  3 13  1  0  0  0  0
  4  7  2  0  0  0  0
  4 16  1  0  0  0  0
  6 18  1  0  0  0  0
  6  3  2  0  0  0  0
  7  8  1  0  0  0  0
  8  5  2  0  0  0  0
  9 15  2  0  0  0  0
  9 18  1  0  0  0  0
 10  9  1  0  0  0  0
 12  5  1  0  0  0  0
 13  1  2  0  0  0  0
 13 14  1  0  0  0  0
 14  7  1  0  0  0  0
 15 17  1  0  0  0  0
 16 12  2  0  0  0  0
 17 19  1  0  0  0  0
 17 11  2  0  0  0  0
 18  2  2  0  0  0  0
 19 20  1  0  0  0  0
 20 21  1  0  0  0  0
 21 22  1  0  0  0  0
 22 23  1  0  0  0  0
 23 25  1  0  0  0  0
 24 23  1  0  0  0  0
M  END
>  <MODEL>
4

>  <REMARK>
 VINA RESULT:      -6.6      1.773      2.917
  Name = 
  5 active torsions:
  status: ('A' for Active; 'I' for Inactive)
    1  A    between atoms: N_2  and  C_25
    2  A    between atoms: O_6  and  C_15
    3  A    between atoms: O_6  and  C_23
    4  A    between atoms: C_15  and  C_21
    5  A    between atoms: C_21  and  C_25
                            x       y       z     vdW  Elec       q    Type
                         _______ _______ _______ _____ _____    ______ ____

>  <TORSDO>
F 5

$$$$
=
 OpenBabel11052417333D

 25 28  0  0  0  0  0  0  0  0999 V2000
  186.8290  177.7330  144.6830 C   0  0  0  0  0  0  0  0  0  0  0  0
  188.1800  177.3730  144.7930 C   0  0  0  0  0  0  0  0  0  0  0  0
  186.6790  177.9390  147.0950 C   0  0  0  0  0  3  0  0  0  0  0  0
  186.0530  177.8640  143.5200 C   0  0  0  0  0  0  0  0  0  0  0  0
  184.2080  178.2240  141.4550 C   0  0  0  0  0  3  0  0  0  0  0  0
  187.9920  177.5880  147.1920 N   0  0  0  0  0  0  0  0  0  0  0  0
  184.7380  178.2400  143.7920 C   0  0  0  0  0  0  0  0  0  0  0  0
  183.7990  178.4270  142.7820 C   0  0  0  0  0  3  0  0  0  0  0  0
  190.1020  176.9470  146.2140 C   0  0  0  0  0  0  0  0  0  0  0  0
  190.7610  176.8590  147.5480 C   0  0  0  0  0  1  0  0  0  0  0  0
  188.9390  177.0910  143.6990 N   0  0  0  0  0  0  0  0  0  0  0  0
  185.5310  177.8440  141.1650 C   0  0  0  0  0  3  0  0  0  0  0  0
  186.0980  178.0100  145.8340 C   0  0  0  0  0  0  0  0  0  0  0  0
  184.5070  178.4170  145.4530 S   0  0  0  0  0  0  0  0  0  0  0  0
  190.8490  176.6650  145.0700 C   0  0  0  0  0  3  0  0  0  0  0  0
  186.4620  177.6620  142.1990 C   0  0  0  0  0  3  0  0  0  0  0  0
  190.2500  176.7410  143.8040 C   0  0  0  0  0  0  0  0  0  0  0  0
  188.7520  177.3050  146.0890 C   0  0  0  0  0  0  0  0  0  0  0  0
  190.9710  176.4650  142.6390 O   0  0  0  0  0  0  0  0  0  0  0  0
  191.5810  175.2050  142.3940 C   0  0  0  0  0  2  0  0  0  0  0  0
  190.5120  174.1390  142.2930 C   0  0  0  0  0  2  0  0  0  0  0  0
  190.2080  173.8660  140.8330 C   0  0  0  0  0  2  0  0  0  0  0  0
  188.7900  174.0560  140.5800 N   0  0  0  0  0  0  0  0  0  0  0  0
  188.3430  172.8980  139.8290 C   0  0  0  0  0  1  0  0  0  0  0  0
  188.1170  173.9980  141.8670 C   0  0  0  0  0  1  0  0  0  0  0  0
  1  2  2  0  0  0  0
  1 13  1  0  0  0  0
  2 18  1  0  0  0  0
  3  6  1  0  0  0  0
  4  7  1  0  0  0  0
  4  1  1  0  0  0  0
  5  8  1  0  0  0  0
  7 14  1  0  0  0  0
  8  7  2  0  0  0  0
  9 10  1  0  0  0  0
 11 17  2  0  0  0  0
 11  2  1  0  0  0  0
 12  5  2  0  0  0  0
 12 16  1  0  0  0  0
 13  3  2  0  0  0  0
 14 13  1  0  0  0  0
 15  9  2  0  0  0  0
 16  4  2  0  0  0  0
 17 15  1  0  0  0  0
 18  9  1  0  0  0  0
 18  6  2  0  0  0  0
 19 17  1  0  0  0  0
 20 19  1  0  0  0  0
 21 20  1  0  0  0  0
 22 21  1  0  0  0  0
 23 22  1  0  0  0  0
 23 25  1  0  0  0  0
 24 23  1  0  0  0  0
M  END
>  <MODEL>
5

>  <REMARK>
 VINA RESULT:      -6.6      2.216      4.877
  Name = 
  5 active torsions:
  status: ('A' for Active; 'I' for Inactive)
    1  A    between atoms: N_2  and  C_25
    2  A    between atoms: O_6  and  C_15
    3  A    between atoms: O_6  and  C_23
    4  A    between atoms: C_15  and  C_21
    5  A    between atoms: C_21  and  C_25
                            x       y       z     vdW  Elec       q    Type
                         _______ _______ _______ _____ _____    ______ ____

>  <TORSDO>
F 5

$$$$
=
 OpenBabel11052417333D

 25 28  0  0  0  0  0  0  0  0999 V2000
  187.2230  177.6800  144.2540 C   0  0  0  0  0  0  0  0  0  0  0  0
  188.5570  177.3790  144.5630 C   0  0  0  0  0  0  0  0  0  0  0  0
  186.6960  177.8010  146.6190 C   0  0  0  0  0  3  0  0  0  0  0  0
  186.6280  177.8130  142.9890 C   0  0  0  0  0  0  0  0  0  0  0  0
  185.1050  178.1550  140.6730 C   0  0  0  0  0  3  0  0  0  0  0  0
  187.9940  177.5080  146.9080 N   0  0  0  0  0  0  0  0  0  0  0  0
  185.2700  178.1200  143.0640 C   0  0  0  0  0  0  0  0  0  0  0  0
  184.4880  178.2960  141.9250 C   0  0  0  0  0  3  0  0  0  0  0  0
  190.2580  176.9960  146.2530 C   0  0  0  0  0  0  0  0  0  0  0  0
  190.7090  176.8950  147.6700 C   0  0  0  0  0  1  0  0  0  0  0  0
  189.4880  177.1680  143.5930 N   0  0  0  0  0  0  0  0  0  0  0  0
  186.4750  177.8450  140.5810 C   0  0  0  0  0  3  0  0  0  0  0  0
  186.3120  177.8870  145.2850 C   0  0  0  0  0  0  0  0  0  0  0  0
  184.7780  178.2330  144.6730 S   0  0  0  0  0  0  0  0  0  0  0  0
  191.1840  176.7860  145.2310 C   0  0  0  0  0  3  0  0  0  0  0  0
  187.2450  177.6730  141.7430 C   0  0  0  0  0  3  0  0  0  0  0  0
  190.7830  176.8750  143.8900 C   0  0  0  0  0  0  0  0  0  0  0  0
  188.9270  177.2960  145.9290 C   0  0  0  0  0  0  0  0  0  0  0  0
  191.6870  176.6700  142.8430 O   0  0  0  0  0  0  0  0  0  0  0  0
  192.0720  175.3750  142.4040 C   0  0  0  0  0  2  0  0  0  0  0  0
  193.3530  174.9680  143.1000 C   0  0  0  0  0  2  0  0  0  0  0  0
  194.3990  176.0480  142.9030 C   0  0  0  0  0  2  0  0  0  0  0  0
  195.3530  176.0170  143.9990 N   0  0  0  0  0  0  0  0  0  0  0  0
  196.5780  176.6140  143.5000 C   0  0  0  0  0  1  0  0  0  0  0  0
  194.8470  176.9110  145.0270 C   0  0  0  0  0  1  0  0  0  0  0  0
  1  2  2  0  0  0  0
  1 13  1  0  0  0  0
  2 18  1  0  0  0  0
  3  6  1  0  0  0  0
  4  7  1  0  0  0  0
  4  1  1  0  0  0  0
  5  8  1  0  0  0  0
  7 14  1  0  0  0  0
  8  7  2  0  0  0  0
  9 10  1  0  0  0  0
 11 17  2  0  0  0  0
 11  2  1  0  0  0  0
 12  5  2  0  0  0  0
 12 16  1  0  0  0  0
 13  3  2  0  0  0  0
 14 13  1  0  0  0  0
 15  9  2  0  0  0  0
 16  4  2  0  0  0  0
 17 15  1  0  0  0  0
 18  9  1  0  0  0  0
 18  6  2  0  0  0  0
 19 17  1  0  0  0  0
 20 19  1  0  0  0  0
 20 21  1  0  0  0  0
 22 21  1  0  0  0  0
 22 23  1  0  0  0  0
 23 25  1  0  0  0  0
 24 23  1  0  0  0  0
M  END
>  <MODEL>
6

>  <REMARK>
 VINA RESULT:      -6.5      2.203      4.113
  Name = 
  5 active torsions:
  status: ('A' for Active; 'I' for Inactive)
    1  A    between atoms: N_2  and  C_25
    2  A    between atoms: O_6  and  C_15
    3  A    between atoms: O_6  and  C_23
    4  A    between atoms: C_15  and  C_21
    5  A    between atoms: C_21  and  C_25
                            x       y       z     vdW  Elec       q    Type
                         _______ _______ _______ _____ _____    ______ ____

>  <TORSDO>
F 5

$$$$
=
 OpenBabel11052417333D

 25 28  0  0  0  0  0  0  0  0999 V2000
  187.5820  177.4740  144.2030 C   0  0  0  0  0  0  0  0  0  0  0  0
  188.9330  177.2260  144.4910 C   0  0  0  0  0  0  0  0  0  0  0  0
  187.0640  177.4460  146.5720 C   0  0  0  0  0  3  0  0  0  0  0  0
  186.9740  177.6420  142.9480 C   0  0  0  0  0  0  0  0  0  0  0  0
  185.4220  178.0250  140.6590 C   0  0  0  0  0  3  0  0  0  0  0  0
  188.3780  177.2050  146.8420 N   0  0  0  0  0  0  0  0  0  0  0  0
  185.6020  177.8750  143.0440 C   0  0  0  0  0  0  0  0  0  0  0  0
  184.8060  178.0690  141.9190 C   0  0  0  0  0  3  0  0  0  0  0  0
  190.6600  176.8440  146.1520 C   0  0  0  0  0  0  0  0  0  0  0  0
  191.1250  176.6930  147.5610 C   0  0  0  0  0  1  0  0  0  0  0  0
  189.8670  177.1130  143.5080 N   0  0  0  0  0  0  0  0  0  0  0  0
  186.8040  177.7910  140.5460 C   0  0  0  0  0  3  0  0  0  0  0  0
  186.6680  177.5810  145.2460 C   0  0  0  0  0  0  0  0  0  0  0  0
  185.1160  177.8790  144.6580 S   0  0  0  0  0  0  0  0  0  0  0  0
  191.5900  176.7350  145.1180 C   0  0  0  0  0  3  0  0  0  0  0  0
  187.5890  177.5980  141.6940 C   0  0  0  0  0  3  0  0  0  0  0  0
  191.1770  176.8720  143.7850 C   0  0  0  0  0  0  0  0  0  0  0  0
  189.3140  177.0920  145.8500 C   0  0  0  0  0  0  0  0  0  0  0  0
  192.0840  176.7680  142.7260 O   0  0  0  0  0  0  0  0  0  0  0  0
  192.8360  175.5900  142.4730 C   0  0  0  0  0  2  0  0  0  0  0  0
  194.3130  175.8980  142.5970 C   0  0  0  0  0  2  0  0  0  0  0  0
  194.8350  176.4070  141.2680 C   0  0  0  0  0  2  0  0  0  0  0  0
  196.2710  176.6130  141.3480 N   0  0  0  0  0  0  0  0  0  0  0  0
  196.6020  176.6860  142.7580 C   0  0  0  0  0  1  0  0  0  0  0  0
  196.9020  175.4070  140.8380 C   0  0  0  0  0  1  0  0  0  0  0  0
  1  2  2  0  0  0  0
  1 13  1  0  0  0  0
  2 18  1  0  0  0  0
  3  6  1  0  0  0  0
  4  7  1  0  0  0  0
  4  1  1  0  0  0  0
  5  8  1  0  0  0  0
  7 14  1  0  0  0  0
  8  7  2  0  0  0  0
  9 10  1  0  0  0  0
 11 17  2  0  0  0  0
 11  2  1  0  0  0  0
 12  5  2  0  0  0  0
 12 16  1  0  0  0  0
 13  3  2  0  0  0  0
 14 13  1  0  0  0  0
 15  9  2  0  0  0  0
 16  4  2  0  0  0  0
 17 15  1  0  0  0  0
 18  9  1  0  0  0  0
 18  6  2  0  0  0  0
 19 17  1  0  0  0  0
 20 21  1  0  0  0  0
 20 19  1  0  0  0  0
 22 23  1  0  0  0  0
 22 21  1  0  0  0  0
 23 24  1  0  0  0  0
 25 23  1  0  0  0  0
M  END
>  <MODEL>
7

>  <REMARK>
 VINA RESULT:      -6.3      2.764      4.556
  Name = 
  5 active torsions:
  status: ('A' for Active; 'I' for Inactive)
    1  A    between atoms: N_2  and  C_25
    2  A    between atoms: O_6  and  C_15
    3  A    between atoms: O_6  and  C_23
    4  A    between atoms: C_15  and  C_21
    5  A    between atoms: C_21  and  C_25
                            x       y       z     vdW  Elec       q    Type
                         _______ _______ _______ _____ _____    ______ ____

>  <TORSDO>
F 5

$$$$
=
 OpenBabel11052417333D

 25 28  0  0  0  0  0  0  0  0999 V2000
  192.0540  176.2730  145.1870 C   0  0  0  0  0  0  0  0  0  0  0  0
  190.6720  176.3630  144.9660 C   0  0  0  0  0  0  0  0  0  0  0  0
  191.6810  176.3260  147.5830 C   0  0  0  0  0  3  0  0  0  0  0  0
  193.0860  176.1920  144.2390 C   0  0  0  0  0  0  0  0  0  0  0  0
  195.3890  176.0190  142.6680 C   0  0  0  0  0  3  0  0  0  0  0  0
  190.3410  176.4140  147.3580 N   0  0  0  0  0  0  0  0  0  0  0  0
  194.3490  176.1140  144.8250 C   0  0  0  0  0  0  0  0  0  0  0  0
  195.5120  176.0270  144.0650 C   0  0  0  0  0  3  0  0  0  0  0  0
  188.4320  176.5240  145.8880 C   0  0  0  0  0  0  0  0  0  0  0  0
  187.4800  176.6020  147.0330 C   0  0  0  0  0  1  0  0  0  0  0  0
  190.1460  176.3840  143.7110 N   0  0  0  0  0  0  0  0  0  0  0  0
  194.1220  176.0980  142.0610 C   0  0  0  0  0  3  0  0  0  0  0  0
  192.5390  176.2550  146.4910 C   0  0  0  0  0  0  0  0  0  0  0  0
  194.2220  176.1420  146.5060 S   0  0  0  0  0  0  0  0  0  0  0  0
  187.9290  176.5430  144.5860 C   0  0  0  0  0  3  0  0  0  0  0  0
  192.9610  176.1850  142.8470 C   0  0  0  0  0  3  0  0  0  0  0  0
  188.8060  176.4720  143.4940 C   0  0  0  0  0  0  0  0  0  0  0  0
  189.8160  176.4340  146.0940 C   0  0  0  0  0  0  0  0  0  0  0  0
  188.3330  176.4880  142.1780 O   0  0  0  0  0  0  0  0  0  0  0  0
  187.9100  177.6790  141.5300 C   0  0  0  0  0  2  0  0  0  0  0  0
  186.4180  177.8530  141.7200 C   0  0  0  0  0  2  0  0  0  0  0  0
  186.1600  179.0370  142.6320 C   0  0  0  0  0  2  0  0  0  0  0  0
  184.8040  178.9760  143.1480 N   0  0  0  0  0  0  0  0  0  0  0  0
  184.0140  178.2690  142.1580 C   0  0  0  0  0  1  0  0  0  0  0  0
  184.8360  178.1320  144.3300 C   0  0  0  0  0  1  0  0  0  0  0  0
  1 13  1  0  0  0  0
  2  1  2  0  0  0  0
  2 18  1  0  0  0  0
  4  7  1  0  0  0  0
  4  1  1  0  0  0  0
  5  8  1  0  0  0  0
  6  3  1  0  0  0  0
  7 14  1  0  0  0  0
  8  7  2  0  0  0  0
  9 18  1  0  0  0  0
  9 10  1  0  0  0  0
 11  2  1  0  0  0  0
 12  5  2  0  0  0  0
 12 16  1  0  0  0  0
 13 14  1  0  0  0  0
 13  3  2  0  0  0  0
 15  9  2  0  0  0  0
 16  4  2  0  0  0  0
 17 11  2  0  0  0  0
 17 15  1  0  0  0  0
 18  6  2  0  0  0  0
 19 17  1  0  0  0  0
 20 21  1  0  0  0  0
 20 19  1  0  0  0  0
 21 22  1  0  0  0  0
 22 23  1  0  0  0  0
 23 25  1  0  0  0  0
 24 23  1  0  0  0  0
M  END
>  <MODEL>
8

>  <REMARK>
 VINA RESULT:      -6.1      3.057      7.709
  Name = 
  5 active torsions:
  status: ('A' for Active; 'I' for Inactive)
    1  A    between atoms: N_2  and  C_25
    2  A    between atoms: O_6  and  C_15
    3  A    between atoms: O_6  and  C_23
    4  A    between atoms: C_15  and  C_21
    5  A    between atoms: C_21  and  C_25
                            x       y       z     vdW  Elec       q    Type
                         _______ _______ _______ _____ _____    ______ ____

>  <TORSDO>
F 5

$$$$
=
 OpenBabel11052417333D

 25 28  0  0  0  0  0  0  0  0999 V2000
  188.8600  177.4670  145.3330 C   0  0  0  0  0  0  0  0  0  0  0  0
  187.6770  177.8420  144.6790 C   0  0  0  0  0  0  0  0  0  0  0  0
  187.7410  177.6510  147.4770 C   0  0  0  0  0  3  0  0  0  0  0  0
  190.1060  177.1490  144.7700 C   0  0  0  0  0  0  0  0  0  0  0  0
  192.7080  176.4590  144.0270 C   0  0  0  0  0  3  0  0  0  0  0  0
  186.5970  178.0150  146.8330 N   0  0  0  0  0  0  0  0  0  0  0  0
  191.0620  176.8200  145.7310 C   0  0  0  0  0  0  0  0  0  0  0  0
  192.3650  176.4720  145.3870 C   0  0  0  0  0  3  0  0  0  0  0  0
  185.3440  178.4940  144.8290 C   0  0  0  0  0  0  0  0  0  0  0  0
  184.1070  178.7960  145.6040 C   0  0  0  0  0  1  0  0  0  0  0  0
  187.6090  177.9460  143.3240 N   0  0  0  0  0  0  0  0  0  0  0  0
  191.7560  176.7890  143.0460 C   0  0  0  0  0  3  0  0  0  0  0  0
  188.8750  177.3770  146.7220 C   0  0  0  0  0  0  0  0  0  0  0  0
  190.3980  176.9110  147.2780 S   0  0  0  0  0  0  0  0  0  0  0  0
  185.3110  178.5890  143.4370 C   0  0  0  0  0  3  0  0  0  0  0  0
  190.4460  177.1370  143.4140 C   0  0  0  0  0  3  0  0  0  0  0  0
  186.4630  178.3100  142.6870 C   0  0  0  0  0  0  0  0  0  0  0  0
  186.5330  178.1180  145.4690 C   0  0  0  0  0  0  0  0  0  0  0  0
  186.4630  178.3960  141.2920 O   0  0  0  0  0  0  0  0  0  0  0  0
  187.0870  177.4240  140.4630 C   0  0  0  0  0  2  0  0  0  0  0  0
  187.1270  176.0960  141.1880 C   0  0  0  0  0  2  0  0  0  0  0  0
  188.2470  175.2450  140.6200 C   0  0  0  0  0  2  0  0  0  0  0  0
  188.2130  173.9220  141.2180 N   0  0  0  0  0  0  0  0  0  0  0  0
  189.1630  173.1090  140.4810 C   0  0  0  0  0  1  0  0  0  0  0  0
  188.7390  174.0510  142.5660 C   0  0  0  0  0  1  0  0  0  0  0  0
  1 13  1  0  0  0  0
  2  1  2  0  0  0  0
  2 18  1  0  0  0  0
  4  1  1  0  0  0  0
  4  7  1  0  0  0  0
  5  8  1  0  0  0  0
  6  3  1  0  0  0  0
  7 14  1  0  0  0  0
  8  7  2  0  0  0  0
  9 18  1  0  0  0  0
  9 10  1  0  0  0  0
 11  2  1  0  0  0  0
 12 16  1  0  0  0  0
 12  5  2  0  0  0  0
 13 14  1  0  0  0  0
 13  3  2  0  0  0  0
 15  9  2  0  0  0  0
 16  4  2  0  0  0  0
 17 11  2  0  0  0  0
 17 15  1  0  0  0  0
 18  6  2  0  0  0  0
 19 17  1  0  0  0  0
 20 21  1  0  0  0  0
 20 19  1  0  0  0  0
 22 21  1  0  0  0  0
 22 23  1  0  0  0  0
 23 25  1  0  0  0  0
 24 23  1  0  0  0  0
M  END
>  <MODEL>
9

>  <REMARK>
 VINA RESULT:      -6.1      2.971      6.489
  Name = 
  5 active torsions:
  status: ('A' for Active; 'I' for Inactive)
    1  A    between atoms: N_2  and  C_25
    2  A    between atoms: O_6  and  C_15
    3  A    between atoms: O_6  and  C_23
    4  A    between atoms: C_15  and  C_21
    5  A    between atoms: C_21  and  C_25
                            x       y       z     vdW  Elec       q    Type
                         _______ _______ _______ _____ _____    ______ ____

>  <TORSDO>
F 5

$$$$
