=
 OpenBabel11052418353D

 34 38  0  0  1  0  0  0  0  0999 V2000
  191.1220  176.5200  145.3360 C   0  0  0  0  0  0  0  0  0  0  0  0
  191.2100  174.0410  145.1380 C   0  0  0  0  0  0  0  0  0  0  0  0
  189.7300  175.4470  143.6110 C   0  0  0  0  0  0  0  0  0  0  0  0
  187.4280  175.0460  141.5990 C   0  0  0  0  0  3  0  0  0  0  0  0
  192.1230  173.9020  145.9940 O   0  0  0  0  0  0  0  0  0  0  0  0
  190.0860  173.1040  143.2030 N   0  0  0  0  0  2  0  0  0  0  0  0
  190.7000  175.3800  144.7430 C   0  0  0  0  0  0  0  0  0  0  0  0
  188.6040  174.3960  141.6430 C   0  0  0  0  0  0  0  0  0  0  0  0
  189.0600  176.7530  143.2850 C   0  0  1  0  0  3  0  0  0  0  0  0
  190.6450  177.8370  144.8500 C   0  0  0  0  0  3  0  0  0  0  0  0
  190.5960  172.8190  144.5390 C   0  0  0  0  0  2  0  0  0  0  0  0
  186.8530  175.8960  142.6610 C   0  0  0  0  0  3  0  0  0  0  0  0
  187.5670  176.6580  143.4990 C   0  0  0  0  0  0  0  0  0  0  0  0
  189.4730  174.3540  142.8590 C   0  0  0  0  0  0  0  0  0  0  0  0
  189.7180  177.9560  143.9020 C   0  0  0  0  0  3  0  0  0  0  0  0
  186.1270  177.3090  146.9510 C   0  0  0  0  0  0  0  0  0  0  0  0
  185.4860  178.5360  146.7560 C   0  0  0  0  0  3  0  0  0  0  0  0
  186.8660  177.3170  144.6320 C   0  0  0  0  0  0  0  0  0  0  0  0
  185.5260  179.1520  145.5030 C   0  0  0  0  0  3  0  0  0  0  0  0
  186.8090  176.7020  145.8930 C   0  0  0  0  0  3  0  0  0  0  0  0
  186.2090  178.5440  144.4460 C   0  0  0  0  0  3  0  0  0  0  0  0
  186.0860  176.7080  148.1630 F   0  0  0  0  0  0  0  0  0  0  0  0
  191.6510  176.7460  147.7440 C   0  0  0  0  0  1  0  0  0  0  0  0
  192.0270  176.4680  146.4020 O   0  0  0  0  0  0  0  0  0  0  0  0
  188.9580  173.6280  140.4900 N   0  0  0  0  0  2  0  0  0  0  0  0
  188.1060  173.8690  138.3320 C   0  0  0  0  0  3  0  0  0  0  0  0
  189.0020  174.1860  139.2080 N   0  0  0  0  0  0  0  0  0  0  0  0
  186.6990  176.1710  137.9510 O   0  0  0  0  0  1  0  0  0  0  0  0
  188.1510  174.4630  136.9600 C   0  0  1  0  0  3  0  0  0  0  0  0
  187.1910  175.6690  136.7440 C   0  0  2  0  0  3  0  0  0  0  0  0
  188.4150  176.1660  134.8800 C   0  0  0  0  0  2  0  0  0  0  0  0
  189.4870  175.1230  135.2510 C   0  0  0  0  0  2  0  0  0  0  0  0
  189.4690  174.8270  136.6320 O   0  0  0  0  0  0  0  0  0  0  0  0
  187.8350  176.7120  136.0420 O   0  0  0  0  0  0  0  0  0  0  0  0
  1 24  1  0  0  0  0
  2  5  2  0  0  0  0
  3  7  1  0  0  0  0
  4  8  2  0  0  0  0
  4 12  1  0  0  0  0
  6 11  1  0  0  0  0
  7  2  1  0  0  0  0
  7  1  2  0  0  0  0
  8 14  1  0  0  0  0
  9 13  1  0  0  0  0
  9  3  1  0  0  0  0
  9 15  1  1  0  0  0
 10  1  1  0  0  0  0
 11  2  1  0  0  0  0
 12 13  2  0  0  0  0
 13 18  1  0  0  0  0
 14  6  1  0  0  0  0
 14  3  2  0  0  0  0
 15 10  2  0  0  0  0
 16 22  1  0  0  0  0
 17 16  1  0  0  0  0
 18 20  1  0  0  0  0
 19 17  2  0  0  0  0
 20 16  2  0  0  0  0
 21 18  2  0  0  0  0
 21 19  1  0  0  0  0
 24 23  1  0  0  0  0
 25  8  1  0  0  0  0
 26 27  2  0  0  0  0
 27 25  1  0  0  0  0
 29 26  1  1  0  0  0
 30 29  1  0  0  0  0
 30 28  1  1  0  0  0
 31 32  1  0  0  0  0
 31 34  1  0  0  0  0
 32 33  1  0  0  0  0
 33 29  1  0  0  0  0
 34 30  1  0  0  0  0
M  END
>  <MODEL>
1

>  <REMARK>
 VINA RESULT:      -7.8      0.000      0.000
  Name = 
  5 active torsions:
  status: ('A' for Active; 'I' for Inactive)
    1  A    between atoms: C_1  and  O_19
    2  A    between atoms: C_3  and  C_13
    3  A    between atoms: C_12  and  C_28
    4  A    between atoms: N_17  and  N_29
    5  A    between atoms: C_18  and  N_29
                            x       y       z     vdW  Elec       q    Type
                         _______ _______ _______ _____ _____    ______ ____

>  <TORSDO>
F 5

$$$$
=
 OpenBabel11052418353D

 34 38  0  0  1  0  0  0  0  0999 V2000
  190.5300  175.7880  145.2770 C   0  0  0  0  0  0  0  0  0  0  0  0
  190.0930  173.5360  144.3120 C   0  0  0  0  0  0  0  0  0  0  0  0
  189.0840  175.6430  143.2890 C   0  0  0  0  0  0  0  0  0  0  0  0
  186.9210  176.4160  141.2320 C   0  0  0  0  0  3  0  0  0  0  0  0
  190.8820  172.9360  145.0890 O   0  0  0  0  0  0  0  0  0  0  0  0
  188.9530  173.5180  142.1700 N   0  0  0  0  0  2  0  0  0  0  0  0
  189.9200  175.0120  144.3520 C   0  0  0  0  0  0  0  0  0  0  0  0
  187.9200  175.5300  141.0800 C   0  0  0  0  0  0  0  0  0  0  0  0
  188.7420  177.1040  143.3840 C   0  0  1  0  0  3  0  0  0  0  0  0
  190.3920  177.2640  145.2250 C   0  0  0  0  0  3  0  0  0  0  0  0
  189.2800  172.7320  143.3530 C   0  0  0  0  0  2  0  0  0  0  0  0
  186.4600  177.0130  142.5020 C   0  0  0  0  0  3  0  0  0  0  0  0
  187.2510  177.2970  143.5440 C   0  0  0  0  0  0  0  0  0  0  0  0
  188.6570  174.9200  142.2300 C   0  0  0  0  0  0  0  0  0  0  0  0
  189.5930  177.8760  144.3530 C   0  0  0  0  0  3  0  0  0  0  0  0
  185.9750  177.2550  147.1180 C   0  0  0  0  0  0  0  0  0  0  0  0
  185.3720  178.5120  147.2120 C   0  0  0  0  0  3  0  0  0  0  0  0
  186.6210  177.7240  144.8200 C   0  0  0  0  0  0  0  0  0  0  0  0
  185.3840  179.3750  146.1120 C   0  0  0  0  0  3  0  0  0  0  0  0
  186.5910  176.8630  145.9270 C   0  0  0  0  0  3  0  0  0  0  0  0
  186.0020  178.9810  144.9220 C   0  0  0  0  0  3  0  0  0  0  0  0
  185.9600  176.4160  148.1800 F   0  0  0  0  0  0  0  0  0  0  0  0
  191.1700  175.5370  147.6550 C   0  0  0  0  0  1  0  0  0  0  0  0
  191.3130  175.2070  146.2810 O   0  0  0  0  0  0  0  0  0  0  0  0
  188.1910  175.0870  139.7480 N   0  0  0  0  0  2  0  0  0  0  0  0
  189.7330  173.6470  138.7550 C   0  0  0  0  0  3  0  0  0  0  0  0
  188.6710  173.8020  139.4740 N   0  0  0  0  0  0  0  0  0  0  0  0
  191.7530  172.7320  140.3390 O   0  0  0  0  0  1  0  0  0  0  0  0
  190.2480  172.2740  138.4590 C   0  0  1  0  0  3  0  0  0  0  0  0
  191.5160  171.8680  139.2660 C   0  0  2  0  0  3  0  0  0  0  0  0
  191.0630  169.7080  138.6790 C   0  0  0  0  0  2  0  0  0  0  0  0
  189.6920  170.1050  138.1000 C   0  0  0  0  0  2  0  0  0  0  0  0
  189.2290  171.3230  138.6460 O   0  0  0  0  0  0  0  0  0  0  0  0
  191.4060  170.5480  139.7560 O   0  0  0  0  0  0  0  0  0  0  0  0
  1 24  1  0  0  0  0
  2  7  1  0  0  0  0
  2  5  2  0  0  0  0
  3  9  1  0  0  0  0
  3  7  1  0  0  0  0
  4 12  1  0  0  0  0
  6 14  1  0  0  0  0
  6 11  1  0  0  0  0
  7  1  2  0  0  0  0
  8  4  2  0  0  0  0
  8 14  1  0  0  0  0
  9 13  1  0  0  0  0
  9 15  1  1  0  0  0
 10  1  1  0  0  0  0
 11  2  1  0  0  0  0
 12 13  2  0  0  0  0
 13 18  1  0  0  0  0
 14  3  2  0  0  0  0
 15 10  2  0  0  0  0
 16 17  1  0  0  0  0
 16 22  1  0  0  0  0
 18 21  2  0  0  0  0
 18 20  1  0  0  0  0
 19 17  2  0  0  0  0
 20 16  2  0  0  0  0
 21 19  1  0  0  0  0
 24 23  1  0  0  0  0
 25  8  1  0  0  0  0
 26 27  2  0  0  0  0
 27 25  1  0  0  0  0
 29 33  1  0  0  0  0
 29 26  1  1  0  0  0
 29 30  1  0  0  0  0
 30 34  1  0  0  0  0
 30 28  1  1  0  0  0
 31 34  1  0  0  0  0
 32 33  1  0  0  0  0
 32 31  1  0  0  0  0
M  END
>  <MODEL>
2

>  <REMARK>
 VINA RESULT:      -7.7      2.226      2.998
  Name = 
  5 active torsions:
  status: ('A' for Active; 'I' for Inactive)
    1  A    between atoms: C_1  and  O_19
    2  A    between atoms: C_3  and  C_13
    3  A    between atoms: C_12  and  C_28
    4  A    between atoms: N_17  and  N_29
    5  A    between atoms: C_18  and  N_29
                            x       y       z     vdW  Elec       q    Type
                         _______ _______ _______ _____ _____    ______ ____

>  <TORSDO>
F 5

$$$$
=
 OpenBabel11052418353D

 34 38  0  0  1  0  0  0  0  0999 V2000
  191.9600  173.9840  142.0850 C   0  0  0  0  0  0  0  0  0  0  0  0
  190.3770  172.7150  143.5260 C   0  0  0  0  0  0  0  0  0  0  0  0
  191.5110  174.8450  144.3480 C   0  0  0  0  0  0  0  0  0  0  0  0
  191.9400  176.3720  146.9920 C   0  0  0  0  0  3  0  0  0  0  0  0
  190.0590  171.8900  142.6280 O   0  0  0  0  0  0  0  0  0  0  0  0
  189.7290  173.8120  145.5900 N   0  0  0  0  0  2  0  0  0  0  0  0
  191.3210  173.8330  143.2680 C   0  0  2  0  0  3  0  0  0  0  0  0
  190.7840  175.9040  146.4920 C   0  0  0  0  0  0  0  0  0  0  0  0
  192.5770  175.8950  144.2010 C   0  0  0  0  0  0  0  0  0  0  0  0
  192.8290  175.1620  141.8480 C   0  0  0  0  0  3  0  0  0  0  0  0
  189.8170  172.5330  144.8970 C   0  0  0  0  0  2  0  0  0  0  0  0
  193.3010  176.0230  146.5360 C   0  0  0  0  0  3  0  0  0  0  0  0
  193.6340  175.7400  145.2710 C   0  0  0  0  0  0  0  0  0  0  0  0
  190.7150  174.8430  145.4410 C   0  0  0  0  0  0  0  0  0  0  0  0
  193.1020  176.0500  142.8020 C   0  0  0  0  0  3  0  0  0  0  0  0
  196.7940  173.6430  145.4300 C   0  0  0  0  0  0  0  0  0  0  0  0
  197.6100  174.3030  144.5070 C   0  0  0  0  0  3  0  0  0  0  0  0
  195.0010  175.2290  144.9920 C   0  0  0  0  0  0  0  0  0  0  0  0
  197.1310  175.4270  143.8300 C   0  0  0  0  0  3  0  0  0  0  0  0
  195.4990  174.1080  145.6740 C   0  0  0  0  0  3  0  0  0  0  0  0
  195.8340  175.8900  144.0740 C   0  0  0  0  0  3  0  0  0  0  0  0
  197.2580  172.5570  146.0910 F   0  0  0  0  0  0  0  0  0  0  0  0
  191.4540  173.3940  139.7340 C   0  0  0  0  0  1  0  0  0  0  0  0
  191.7940  173.0380  141.0670 O   0  0  0  0  0  0  0  0  0  0  0  0
  189.5800  176.3850  147.0950 N   0  0  0  0  0  2  0  0  0  0  0  0
  187.3800  176.6060  146.3540 C   0  0  0  0  0  3  0  0  0  0  0  0
  188.5930  177.0490  146.3580 N   0  0  0  0  0  0  0  0  0  0  0  0
  185.4690  177.9240  147.7820 O   0  0  0  0  0  1  0  0  0  0  0  0
  186.3220  177.3120  145.5670 C   0  0  1  0  0  3  0  0  0  0  0  0
  185.1580  177.8940  146.4200 C   0  0  2  0  0  3  0  0  0  0  0  0
  184.6120  179.1690  144.6040 C   0  0  0  0  0  2  0  0  0  0  0  0
  185.9070  178.7630  143.8740 C   0  0  0  0  0  2  0  0  0  0  0  0
  186.8990  178.3230  144.7780 O   0  0  0  0  0  0  0  0  0  0  0  0
  184.8200  179.1980  145.9970 O   0  0  0  0  0  0  0  0  0  0  0  0
  2 11  1  0  0  0  0
  3 14  2  0  0  0  0
  5  2  2  0  0  0  0
  7  1  1  6  0  0  0
  7  2  1  0  0  0  0
  7  3  1  0  0  0  0
  8  4  2  0  0  0  0
  8 25  1  0  0  0  0
  9  3  1  0  0  0  0
  9 13  1  0  0  0  0
 10  1  2  0  0  0  0
 10 15  1  0  0  0  0
 11  6  1  0  0  0  0
 12  4  1  0  0  0  0
 13 12  2  0  0  0  0
 14  6  1  0  0  0  0
 14  8  1  0  0  0  0
 15  9  2  0  0  0  0
 16 20  1  0  0  0  0
 16 22  1  0  0  0  0
 17 16  2  0  0  0  0
 18 13  1  0  0  0  0
 18 20  2  0  0  0  0
 19 21  2  0  0  0  0
 19 17  1  0  0  0  0
 21 18  1  0  0  0  0
 23 24  1  0  0  0  0
 24  1  1  0  0  0  0
 26 27  2  0  0  0  0
 27 25  1  0  0  0  0
 29 26  1  1  0  0  0
 29 30  1  0  0  0  0
 30 28  1  1  0  0  0
 31 34  1  0  0  0  0
 32 31  1  0  0  0  0
 32 33  1  0  0  0  0
 33 29  1  0  0  0  0
 34 30  1  0  0  0  0
M  END
>  <MODEL>
3

>  <REMARK>
 VINA RESULT:      -7.7      4.311      7.959
  Name = 
  5 active torsions:
  status: ('A' for Active; 'I' for Inactive)
    1  A    between atoms: C_1  and  O_19
    2  A    between atoms: C_3  and  C_13
    3  A    between atoms: C_12  and  C_28
    4  A    between atoms: N_17  and  N_29
    5  A    between atoms: C_18  and  N_29
                            x       y       z     vdW  Elec       q    Type
                         _______ _______ _______ _____ _____    ______ ____

>  <TORSDO>
F 5

$$$$
=
 OpenBabel11052418353D

 34 38  0  0  1  0  0  0  0  0999 V2000
  191.9290  176.3540  144.8060 C   0  0  0  0  0  0  0  0  0  0  0  0
  192.1440  173.8750  144.7400 C   0  0  0  0  0  0  0  0  0  0  0  0
  190.4730  175.1070  143.2600 C   0  0  0  0  0  0  0  0  0  0  0  0
  188.0500  174.4650  141.4640 C   0  0  0  0  0  3  0  0  0  0  0  0
  193.1270  173.8360  145.5260 O   0  0  0  0  0  0  0  0  0  0  0  0
  190.9310  172.7660  142.9550 N   0  0  0  0  0  2  0  0  0  0  0  0
  191.5280  175.1590  144.3130 C   0  0  2  0  0  3  0  0  0  0  0  0
  189.2610  173.8830  141.4490 C   0  0  0  0  0  0  0  0  0  0  0  0
  189.7050  176.3540  142.9180 C   0  0  0  0  0  0  0  0  0  0  0  0
  191.3410  177.6120  144.2880 C   0  0  0  0  0  3  0  0  0  0  0  0
  191.5580  172.5890  144.2590 C   0  0  0  0  0  2  0  0  0  0  0  0
  187.5100  175.3450  142.5200 C   0  0  0  0  0  3  0  0  0  0  0  0
  188.2410  176.1920  143.2560 C   0  0  0  0  0  0  0  0  0  0  0  0
  190.2220  173.9590  142.5930 C   0  0  0  0  0  0  0  0  0  0  0  0
  190.3380  177.6240  143.4120 C   0  0  0  0  0  3  0  0  0  0  0  0
  186.2240  178.6880  145.2840 C   0  0  0  0  0  0  0  0  0  0  0  0
  186.4210  178.2120  146.5830 C   0  0  0  0  0  3  0  0  0  0  0  0
  187.5930  176.8790  144.4030 C   0  0  0  0  0  0  0  0  0  0  0  0
  187.2060  177.0770  146.7980 C   0  0  0  0  0  3  0  0  0  0  0  0
  186.8120  178.0280  144.2010 C   0  0  0  0  0  3  0  0  0  0  0  0
  187.7920  176.4160  145.7140 C   0  0  0  0  0  3  0  0  0  0  0  0
  185.4680  179.7910  145.0730 F   0  0  0  0  0  0  0  0  0  0  0  0
  194.1220  177.1450  145.6390 C   0  0  0  0  0  1  0  0  0  0  0  0
  192.9150  176.4130  145.7980 O   0  0  0  0  0  0  0  0  0  0  0  0
  189.5690  173.0670  140.3160 N   0  0  0  0  0  2  0  0  0  0  0  0
  189.1010  173.3430  138.0480 C   0  0  0  0  0  3  0  0  0  0  0  0
  189.8550  173.6140  139.0610 N   0  0  0  0  0  0  0  0  0  0  0  0
  187.4400  175.3160  137.1680 O   0  0  0  0  0  1  0  0  0  0  0  0
  189.4050  173.9250  136.7040 C   0  0  1  0  0  3  0  0  0  0  0  0
  188.3300  174.9150  136.1670 C   0  0  2  0  0  3  0  0  0  0  0  0
  189.8990  175.6340  134.6710 C   0  0  0  0  0  2  0  0  0  0  0  0
  191.0070  174.8280  135.3770 C   0  0  0  0  0  2  0  0  0  0  0  0
  190.6690  174.5420  136.7180 O   0  0  0  0  0  0  0  0  0  0  0  0
  188.9310  176.0600  135.6010 O   0  0  0  0  0  0  0  0  0  0  0  0
  1 24  1  0  0  0  0
  2  5  2  0  0  0  0
  4 12  1  0  0  0  0
  6 11  1  0  0  0  0
  7  3  1  6  0  0  0
  7  2  1  0  0  0  0
  7  1  1  0  0  0  0
  8  4  2  0  0  0  0
  8 14  1  0  0  0  0
  9 13  1  0  0  0  0
  9  3  1  0  0  0  0
  9 15  2  0  0  0  0
 10  1  2  0  0  0  0
 11  2  1  0  0  0  0
 12 13  2  0  0  0  0
 13 18  1  0  0  0  0
 14  6  1  0  0  0  0
 14  3  2  0  0  0  0
 15 10  1  0  0  0  0
 16 17  1  0  0  0  0
 17 19  2  0  0  0  0
 18 21  2  0  0  0  0
 20 18  1  0  0  0  0
 20 16  2  0  0  0  0
 21 19  1  0  0  0  0
 22 16  1  0  0  0  0
 23 24  1  0  0  0  0
 25  8  1  0  0  0  0
 26 27  2  0  0  0  0
 27 25  1  0  0  0  0
 29 33  1  0  0  0  0
 29 26  1  1  0  0  0
 30 29  1  0  0  0  0
 30 28  1  1  0  0  0
 31 32  1  0  0  0  0
 31 34  1  0  0  0  0
 32 33  1  0  0  0  0
 34 30  1  0  0  0  0
M  END
>  <MODEL>
4

>  <REMARK>
 VINA RESULT:      -7.5      1.354      1.629
  Name = 
  5 active torsions:
  status: ('A' for Active; 'I' for Inactive)
    1  A    between atoms: C_1  and  O_19
    2  A    between atoms: C_3  and  C_13
    3  A    between atoms: C_12  and  C_28
    4  A    between atoms: N_17  and  N_29
    5  A    between atoms: C_18  and  N_29
                            x       y       z     vdW  Elec       q    Type
                         _______ _______ _______ _____ _____    ______ ____

>  <TORSDO>
F 5

$$$$
=
 OpenBabel11052418353D

 34 38  0  0  1  0  0  0  0  0999 V2000
  193.9220  174.1220  140.8680 C   0  0  0  0  0  0  0  0  0  0  0  0
  191.4570  173.7820  140.8770 C   0  0  0  0  0  0  0  0  0  0  0  0
  192.6000  175.2890  142.5860 C   0  0  0  0  0  0  0  0  0  0  0  0
  191.9290  176.7140  145.2380 C   0  0  0  0  0  3  0  0  0  0  0  0
  191.4440  173.0960  139.8210 O   0  0  0  0  0  0  0  0  0  0  0  0
  190.2050  175.2280  142.3690 N   0  0  0  0  0  2  0  0  0  0  0  0
  192.7110  174.3640  141.4220 C   0  0  2  0  0  3  0  0  0  0  0  0
  191.2300  176.7410  144.0900 C   0  0  0  0  0  0  0  0  0  0  0  0
  193.8470  175.7670  143.2760 C   0  0  0  0  0  0  0  0  0  0  0  0
  195.1350  174.7920  141.3980 C   0  0  0  0  0  3  0  0  0  0  0  0
  190.1780  173.9780  141.6210 C   0  0  0  0  0  2  0  0  0  0  0  0
  193.0210  175.7790  145.5810 C   0  0  0  0  0  3  0  0  0  0  0  0
  193.8950  175.2720  144.7030 C   0  0  0  0  0  0  0  0  0  0  0  0
  191.3910  175.7230  143.0070 C   0  0  0  0  0  0  0  0  0  0  0  0
  195.1080  175.5590  142.4850 C   0  0  0  0  0  3  0  0  0  0  0  0
  195.3160  171.8500  145.5290 C   0  0  0  0  0  0  0  0  0  0  0  0
  196.5520  172.1900  146.0840 C   0  0  0  0  0  3  0  0  0  0  0  0
  194.8220  174.2040  145.1600 C   0  0  0  0  0  0  0  0  0  0  0  0
  196.9250  173.5330  146.1860 C   0  0  0  0  0  3  0  0  0  0  0  0
  194.4540  172.8520  145.0750 C   0  0  0  0  0  3  0  0  0  0  0  0
  196.0630  174.5340  145.7300 C   0  0  0  0  0  3  0  0  0  0  0  0
  194.9500  170.5500  145.4340 F   0  0  0  0  0  0  0  0  0  0  0  0
  194.5750  173.6550  138.5260 C   0  0  0  0  0  1  0  0  0  0  0  0
  194.0390  173.2520  139.7780 O   0  0  0  0  0  0  0  0  0  0  0  0
  190.2140  177.7410  143.9790 N   0  0  0  0  0  2  0  0  0  0  0  0
  187.9280  177.9240  144.4000 C   0  0  0  0  0  3  0  0  0  0  0  0
  189.1290  177.8000  144.8590 N   0  0  0  0  0  0  0  0  0  0  0  0
  185.8810  179.5780  143.6950 O   0  0  0  0  0  1  0  0  0  0  0  0
  186.7650  177.9890  145.3380 C   0  0  1  0  0  3  0  0  0  0  0  0
  185.7080  179.0770  144.9880 C   0  0  2  0  0  3  0  0  0  0  0  0
  184.2740  177.9760  146.3840 C   0  0  0  0  0  2  0  0  0  0  0  0
  185.2460  176.7890  146.5200 C   0  0  0  0  0  2  0  0  0  0  0  0
  186.1490  176.7280  145.4360 O   0  0  0  0  0  0  0  0  0  0  0  0
  184.3960  178.5710  145.1130 O   0  0  0  0  0  0  0  0  0  0  0  0
  1 10  2  0  0  0  0
  2  7  1  0  0  0  0
  2 11  1  0  0  0  0
  3 14  2  0  0  0  0
  3  9  1  0  0  0  0
  4 12  1  0  0  0  0
  5  2  2  0  0  0  0
  6 14  1  0  0  0  0
  7  1  1  6  0  0  0
  7  3  1  0  0  0  0
  8  4  2  0  0  0  0
  9 13  1  0  0  0  0
 10 15  1  0  0  0  0
 11  6  1  0  0  0  0
 13 18  1  0  0  0  0
 13 12  2  0  0  0  0
 14  8  1  0  0  0  0
 15  9  2  0  0  0  0
 16 17  1  0  0  0  0
 17 19  2  0  0  0  0
 18 21  2  0  0  0  0
 20 18  1  0  0  0  0
 20 16  2  0  0  0  0
 21 19  1  0  0  0  0
 22 16  1  0  0  0  0
 23 24  1  0  0  0  0
 24  1  1  0  0  0  0
 25  8  1  0  0  0  0
 25 27  1  0  0  0  0
 26 27  2  0  0  0  0
 29 26  1  6  0  0  0
 29 33  1  0  0  0  0
 30 28  1  6  0  0  0
 30 34  1  0  0  0  0
 30 29  1  0  0  0  0
 31 32  1  0  0  0  0
 33 32  1  0  0  0  0
 34 31  1  0  0  0  0
M  END
>  <MODEL>
5

>  <REMARK>
 VINA RESULT:      -7.5      4.516      8.051
  Name = 
  5 active torsions:
  status: ('A' for Active; 'I' for Inactive)
    1  A    between atoms: C_1  and  O_19
    2  A    between atoms: C_3  and  C_13
    3  A    between atoms: C_12  and  C_28
    4  A    between atoms: N_17  and  N_29
    5  A    between atoms: C_18  and  N_29
                            x       y       z     vdW  Elec       q    Type
                         _______ _______ _______ _____ _____    ______ ____

>  <TORSDO>
F 5

$$$$
=
 OpenBabel11052418353D

 34 38  0  0  1  0  0  0  0  0999 V2000
  191.3570  174.4360  144.8970 C   0  0  0  0  0  0  0  0  0  0  0  0
  191.5780  176.8300  144.2510 C   0  0  0  0  0  0  0  0  0  0  0  0
  189.8710  175.3010  143.1340 C   0  0  0  0  0  0  0  0  0  0  0  0
  188.0110  175.3070  140.6740 C   0  0  0  0  0  3  0  0  0  0  0  0
  192.4230  177.1000  145.1450 O   0  0  0  0  0  0  0  0  0  0  0  0
  189.8550  177.6780  142.7680 N   0  0  0  0  0  2  0  0  0  0  0  0
  190.9750  175.4780  144.1220 C   0  0  0  0  0  0  0  0  0  0  0  0
  188.1350  176.2600  141.6130 C   0  0  0  0  0  0  0  0  0  0  0  0
  189.3460  173.9210  142.8460 C   0  0  1  0  0  3  0  0  0  0  0  0
  190.6680  173.1290  144.7860 C   0  0  0  0  0  3  0  0  0  0  0  0
  191.2070  177.8920  143.2700 C   0  0  0  0  0  2  0  0  0  0  0  0
  188.9280  174.1710  140.4470 C   0  0  0  0  0  3  0  0  0  0  0  0
  189.6090  173.5360  141.4090 C   0  0  0  0  0  0  0  0  0  0  0  0
  189.3200  176.3710  142.5180 C   0  0  0  0  0  0  0  0  0  0  0  0
  189.7360  172.8880  143.8660 C   0  0  0  0  0  3  0  0  0  0  0  0
  191.2170  170.2810  140.2990 C   0  0  0  0  0  0  0  0  0  0  0  0
  192.5720  170.6200  140.3240 C   0  0  0  0  0  3  0  0  0  0  0  0
  190.6310  172.5330  141.0120 C   0  0  0  0  0  0  0  0  0  0  0  0
  192.9630  171.9080  140.6980 C   0  0  0  0  0  3  0  0  0  0  0  0
  190.2530  171.2320  140.6460 C   0  0  0  0  0  3  0  0  0  0  0  0
  191.9970  172.8580  141.0440 C   0  0  0  0  0  3  0  0  0  0  0  0
  190.8370  169.0320  139.9420 F   0  0  0  0  0  0  0  0  0  0  0  0
  193.6020  173.8430  145.7560 C   0  0  0  0  0  1  0  0  0  0  0  0
  192.3950  174.5900  145.8230 O   0  0  0  0  0  0  0  0  0  0  0  0
  187.1200  177.2670  141.6460 N   0  0  0  0  0  2  0  0  0  0  0  0
  186.0440  176.7320  143.6450 C   0  0  0  0  0  3  0  0  0  0  0  0
  186.4780  177.6380  142.8330 N   0  0  0  0  0  0  0  0  0  0  0  0
  187.5450  176.6710  145.9180 O   0  0  0  0  0  1  0  0  0  0  0  0
  185.3560  177.1250  144.9130 C   0  0  1  0  0  3  0  0  0  0  0  0
  186.1960  176.9010  146.2040 C   0  0  2  0  0  3  0  0  0  0  0  0
  184.7290  178.2910  147.2680 C   0  0  0  0  0  2  0  0  0  0  0  0
  184.0660  178.6860  145.9350 C   0  0  0  0  0  2  0  0  0  0  0  0
  184.9290  178.4630  144.8390 O   0  0  0  0  0  0  0  0  0  0  0  0
  186.0950  178.0070  147.0760 O   0  0  0  0  0  0  0  0  0  0  0  0
  1 24  1  0  0  0  0
  2  5  2  0  0  0  0
  3  7  1  0  0  0  0
  4  8  2  0  0  0  0
  6 11  1  0  0  0  0
  7  2  1  0  0  0  0
  7  1  2  0  0  0  0
  8 25  1  0  0  0  0
  8 14  1  0  0  0  0
  9  3  1  0  0  0  0
  9 15  1  1  0  0  0
 10  1  1  0  0  0  0
 11  2  1  0  0  0  0
 12  4  1  0  0  0  0
 12 13  2  0  0  0  0
 13  9  1  0  0  0  0
 14  6  1  0  0  0  0
 14  3  2  0  0  0  0
 15 10  2  0  0  0  0
 16 17  2  0  0  0  0
 16 20  1  0  0  0  0
 17 19  1  0  0  0  0
 18 21  1  0  0  0  0
 18 13  1  0  0  0  0
 19 21  2  0  0  0  0
 20 18  2  0  0  0  0
 22 16  1  0  0  0  0
 23 24  1  0  0  0  0
 25 27  1  0  0  0  0
 27 26  2  0  0  0  0
 29 26  1  6  0  0  0
 29 30  1  0  0  0  0
 30 28  1  6  0  0  0
 30 34  1  0  0  0  0
 32 31  1  0  0  0  0
 33 29  1  0  0  0  0
 33 32  1  0  0  0  0
 34 31  1  0  0  0  0
M  END
>  <MODEL>
6

>  <REMARK>
 VINA RESULT:      -7.4      4.115      7.318
  Name = 
  5 active torsions:
  status: ('A' for Active; 'I' for Inactive)
    1  A    between atoms: C_1  and  O_19
    2  A    between atoms: C_3  and  C_13
    3  A    between atoms: C_12  and  C_28
    4  A    between atoms: N_17  and  N_29
    5  A    between atoms: C_18  and  N_29
                            x       y       z     vdW  Elec       q    Type
                         _______ _______ _______ _____ _____    ______ ____

>  <TORSDO>
F 5

$$$$
=
 OpenBabel11052418353D

 34 38  0  0  1  0  0  0  0  0999 V2000
  188.4620  176.4480  145.8120 C   0  0  0  0  0  0  0  0  0  0  0  0
  187.5870  177.3440  143.6610 C   0  0  0  0  0  0  0  0  0  0  0  0
  188.9190  175.1720  143.7560 C   0  0  0  0  0  0  0  0  0  0  0  0
  190.3240  173.2260  141.8200 C   0  0  0  0  0  3  0  0  0  0  0  0
  186.9570  178.2960  144.1950 O   0  0  0  0  0  0  0  0  0  0  0  0
  187.7800  175.8600  141.7520 N   0  0  0  0  0  2  0  0  0  0  0  0
  188.3380  176.3480  144.4680 C   0  0  0  0  0  0  0  0  0  0  0  0
  189.0710  173.7070  141.7370 C   0  0  0  0  0  0  0  0  0  0  0  0
  189.8270  174.2300  144.4970 C   0  0  1  0  0  3  0  0  0  0  0  0
  189.1510  175.3850  146.5820 C   0  0  0  0  0  3  0  0  0  0  0  0
  187.6110  177.2450  142.1720 C   0  0  0  0  0  2  0  0  0  0  0  0
  191.4030  173.7310  142.6920 C   0  0  0  0  0  3  0  0  0  0  0  0
  191.2190  174.2540  143.9110 C   0  0  0  0  0  0  0  0  0  0  0  0
  188.6140  174.9320  142.4610 C   0  0  0  0  0  0  0  0  0  0  0  0
  189.7610  174.3580  145.9930 C   0  0  0  0  0  3  0  0  0  0  0  0
  194.5280  174.7010  145.7170 C   0  0  0  0  0  0  0  0  0  0  0  0
  194.5340  176.0790  145.9470 C   0  0  0  0  0  3  0  0  0  0  0  0
  192.3760  174.8870  144.5960 C   0  0  0  0  0  0  0  0  0  0  0  0
  193.4630  176.8640  145.5100 C   0  0  0  0  0  3  0  0  0  0  0  0
  193.4520  174.1080  145.0500 C   0  0  0  0  0  3  0  0  0  0  0  0
  192.3880  176.2700  144.8410 C   0  0  0  0  0  3  0  0  0  0  0  0
  195.5610  173.9380  146.1450 F   0  0  0  0  0  0  0  0  0  0  0  0
  186.8380  177.4390  147.3970 C   0  0  0  0  0  1  0  0  0  0  0  0
  187.9260  177.5500  146.4900 O   0  0  0  0  0  0  0  0  0  0  0  0
  188.1910  173.0550  140.8180 N   0  0  0  0  0  2  0  0  0  0  0  0
  188.1910  174.1660  138.7670 C   0  0  0  0  0  3  0  0  0  0  0  0
  188.4060  173.0820  139.4360 N   0  0  0  0  0  0  0  0  0  0  0  0
  187.0660  176.2390  137.4030 O   0  0  0  0  0  1  0  0  0  0  0  0
  188.4180  174.1970  137.2900 C   0  0  1  0  0  3  0  0  0  0  0  0
  187.6100  175.2910  136.5320 C   0  0  2  0  0  3  0  0  0  0  0  0
  189.0390  174.9760  134.7780 C   0  0  0  0  0  2  0  0  0  0  0  0
  189.9610  174.0840  135.6320 C   0  0  0  0  0  2  0  0  0  0  0  0
  189.7900  174.3290  137.0120 O   0  0  0  0  0  0  0  0  0  0  0  0
  188.4160  175.9520  135.5800 O   0  0  0  0  0  0  0  0  0  0  0  0
  1 24  1  0  0  0  0
  1 10  1  0  0  0  0
  2  5  2  0  0  0  0
  2  7  1  0  0  0  0
  3  7  1  0  0  0  0
  3  9  1  0  0  0  0
  4 12  1  0  0  0  0
  6 11  1  0  0  0  0
  6 14  1  0  0  0  0
  7  1  2  0  0  0  0
  8  4  2  0  0  0  0
  8 14  1  0  0  0  0
  9 15  1  1  0  0  0
 11  2  1  0  0  0  0
 12 13  2  0  0  0  0
 13  9  1  0  0  0  0
 13 18  1  0  0  0  0
 14  3  2  0  0  0  0
 15 10  2  0  0  0  0
 16 17  1  0  0  0  0
 16 22  1  0  0  0  0
 18 21  2  0  0  0  0
 18 20  1  0  0  0  0
 19 17  2  0  0  0  0
 20 16  2  0  0  0  0
 21 19  1  0  0  0  0
 24 23  1  0  0  0  0
 25  8  1  0  0  0  0
 26 27  2  0  0  0  0
 27 25  1  0  0  0  0
 29 26  1  1  0  0  0
 30 29  1  0  0  0  0
 30 28  1  1  0  0  0
 31 34  1  0  0  0  0
 31 32  1  0  0  0  0
 32 33  1  0  0  0  0
 33 29  1  0  0  0  0
 34 30  1  0  0  0  0
M  END
>  <MODEL>
7

>  <REMARK>
 VINA RESULT:      -7.4      2.643      4.709
  Name = 
  5 active torsions:
  status: ('A' for Active; 'I' for Inactive)
    1  A    between atoms: C_1  and  O_19
    2  A    between atoms: C_3  and  C_13
    3  A    between atoms: C_12  and  C_28
    4  A    between atoms: N_17  and  N_29
    5  A    between atoms: C_18  and  N_29
                            x       y       z     vdW  Elec       q    Type
                         _______ _______ _______ _____ _____    ______ ____

>  <TORSDO>
F 5

$$$$
=
 OpenBabel11052418353D

 34 38  0  0  1  0  0  0  0  0999 V2000
  190.5020  173.8690  143.9750 C   0  0  0  0  0  0  0  0  0  0  0  0
  191.0900  176.2830  143.8370 C   0  0  0  0  0  0  0  0  0  0  0  0
  189.2090  175.2880  142.4330 C   0  0  0  0  0  0  0  0  0  0  0  0
  187.4400  176.0740  140.0330 C   0  0  0  0  0  3  0  0  0  0  0  0
  191.9400  176.2360  144.7650 O   0  0  0  0  0  0  0  0  0  0  0  0
  189.5530  177.6640  142.5650 N   0  0  0  0  0  2  0  0  0  0  0  0
  190.2990  175.0920  143.4320 C   0  0  0  0  0  0  0  0  0  0  0  0
  187.6760  176.7860  141.1470 C   0  0  0  0  0  0  0  0  0  0  0  0
  188.4960  174.0900  141.8680 C   0  0  0  0  0  0  0  0  0  0  0  0
  189.6320  172.7290  143.5990 C   0  0  0  0  0  3  0  0  0  0  0  0
  190.9060  177.5670  143.0970 C   0  0  0  0  0  2  0  0  0  0  0  0
  188.1860  174.8850  139.5730 C   0  0  0  0  0  3  0  0  0  0  0  0
  188.7400  173.9720  140.3810 C   0  0  0  0  0  0  0  0  0  0  0  0
  188.8390  176.5310  142.0530 C   0  0  2  0  0  3  0  0  0  0  0  0
  188.7010  172.8240  142.6510 C   0  0  0  0  0  3  0  0  0  0  0  0
  189.8840  170.8680  138.5190 C   0  0  0  0  0  0  0  0  0  0  0  0
  191.2680  170.9270  138.7070 C   0  0  0  0  0  3  0  0  0  0  0  0
  189.6140  172.9300  139.7830 C   0  0  0  0  0  0  0  0  0  0  0  0
  191.8280  171.9790  139.4360 C   0  0  0  0  0  3  0  0  0  0  0  0
  189.0630  171.8620  139.0590 C   0  0  0  0  0  3  0  0  0  0  0  0
  191.0060  172.9730  139.9750 C   0  0  0  0  0  3  0  0  0  0  0  0
  189.3390  169.8470  137.8180 F   0  0  0  0  0  0  0  0  0  0  0  0
  192.6110  172.7840  144.6860 C   0  0  0  0  0  1  0  0  0  0  0  0
  191.5250  173.6730  144.9100 O   0  0  0  0  0  0  0  0  0  0  0  0
  186.8190  177.9050  141.3910 N   0  0  0  0  0  2  0  0  0  0  0  0
  186.0000  177.1490  143.4390 C   0  0  0  0  0  3  0  0  0  0  0  0
  186.2340  178.1360  142.6400 N   0  0  0  0  0  0  0  0  0  0  0  0
  187.6430  176.9870  145.6070 O   0  0  0  0  0  1  0  0  0  0  0  0
  185.3730  177.3930  144.7750 C   0  0  1  0  0  3  0  0  0  0  0  0
  186.3050  177.1120  145.9900 C   0  0  2  0  0  3  0  0  0  0  0  0
  184.8340  178.3170  147.2560 C   0  0  0  0  0  2  0  0  0  0  0  0
  184.0680  178.7830  146.0020 C   0  0  0  0  0  2  0  0  0  0  0  0
  184.8700  178.7040  144.8420 O   0  0  0  0  0  0  0  0  0  0  0  0
  186.1990  178.1330  146.9590 O   0  0  0  0  0  0  0  0  0  0  0  0
  1 24  1  0  0  0  0
  2  5  2  0  0  0  0
  3  7  1  0  0  0  0
  4  8  2  0  0  0  0
  6 11  1  0  0  0  0
  7  2  1  0  0  0  0
  7  1  2  0  0  0  0
  8 25  1  0  0  0  0
  9  3  2  0  0  0  0
  9 15  1  0  0  0  0
 10  1  1  0  0  0  0
 11  2  1  0  0  0  0
 12  4  1  0  0  0  0
 12 13  2  0  0  0  0
 13  9  1  0  0  0  0
 14  8  1  1  0  0  0
 14  3  1  0  0  0  0
 14  6  1  0  0  0  0
 15 10  2  0  0  0  0
 16 17  2  0  0  0  0
 16 20  1  0  0  0  0
 17 19  1  0  0  0  0
 18 21  1  0  0  0  0
 18 13  1  0  0  0  0
 19 21  2  0  0  0  0
 20 18  2  0  0  0  0
 22 16  1  0  0  0  0
 23 24  1  0  0  0  0
 25 27  1  0  0  0  0
 27 26  2  0  0  0  0
 29 26  1  6  0  0  0
 29 33  1  0  0  0  0
 29 30  1  0  0  0  0
 30 28  1  6  0  0  0
 30 34  1  0  0  0  0
 32 31  1  0  0  0  0
 33 32  1  0  0  0  0
 34 31  1  0  0  0  0
M  END
>  <MODEL>
8

>  <REMARK>
 VINA RESULT:      -7.3      4.089      7.436
  Name = 
  5 active torsions:
  status: ('A' for Active; 'I' for Inactive)
    1  A    between atoms: C_1  and  O_19
    2  A    between atoms: C_3  and  C_13
    3  A    between atoms: C_12  and  C_28
    4  A    between atoms: N_17  and  N_29
    5  A    between atoms: C_18  and  N_29
                            x       y       z     vdW  Elec       q    Type
                         _______ _______ _______ _____ _____    ______ ____

>  <TORSDO>
F 5

$$$$
=
 OpenBabel11052418353D

 34 38  0  0  1  0  0  0  0  0999 V2000
  191.1160  176.4810  145.1950 C   0  0  0  0  0  0  0  0  0  0  0  0
  191.1280  173.9980  145.0210 C   0  0  0  0  0  0  0  0  0  0  0  0
  189.6050  175.4290  143.5600 C   0  0  0  0  0  0  0  0  0  0  0  0
  187.1870  175.0700  141.6800 C   0  0  0  0  0  3  0  0  0  0  0  0
  192.0830  173.8430  145.8280 O   0  0  0  0  0  0  0  0  0  0  0  0
  189.8770  173.0720  143.1600 N   0  0  0  0  0  2  0  0  0  0  0  0
  190.6320  175.3460  144.6390 C   0  0  0  0  0  0  0  0  0  0  0  0
  188.3460  174.3900  141.6670 C   0  0  0  0  0  0  0  0  0  0  0  0
  188.9520  176.7490  143.2570 C   0  0  1  0  0  3  0  0  0  0  0  0
  190.6480  177.8050  144.7220 C   0  0  0  0  0  3  0  0  0  0  0  0
  190.4510  172.7880  144.4690 C   0  0  0  0  0  2  0  0  0  0  0  0
  186.6930  175.9450  142.7620 C   0  0  0  0  0  3  0  0  0  0  0  0
  187.4710  176.6960  143.5520 C   0  0  0  0  0  0  0  0  0  0  0  0
  189.2790  174.3360  142.8350 C   0  0  0  0  0  0  0  0  0  0  0  0
  189.6740  177.9390  143.8240 C   0  0  0  0  0  3  0  0  0  0  0  0
  186.2660  177.4310  147.0760 C   0  0  0  0  0  0  0  0  0  0  0  0
  185.6210  178.6580  146.8970 C   0  0  0  0  0  3  0  0  0  0  0  0
  186.8510  177.3830  144.7140 C   0  0  0  0  0  0  0  0  0  0  0  0
  185.5810  179.2470  145.6310 C   0  0  0  0  0  3  0  0  0  0  0  0
  186.8730  176.7960  145.9890 C   0  0  0  0  0  3  0  0  0  0  0  0
  186.1890  178.6110  144.5450 C   0  0  0  0  0  3  0  0  0  0  0  0
  186.3010  176.8560  148.3010 F   0  0  0  0  0  0  0  0  0  0  0  0
  191.7910  176.7530  147.5620 C   0  0  0  0  0  1  0  0  0  0  0  0
  192.0760  176.4140  146.2120 O   0  0  0  0  0  0  0  0  0  0  0  0
  188.6170  173.6010  140.5060 N   0  0  0  0  0  2  0  0  0  0  0  0
  190.5180  172.6940  139.5040 C   0  0  0  0  0  3  0  0  0  0  0  0
  189.8030  173.7350  139.7750 N   0  0  0  0  0  0  0  0  0  0  0  0
  190.6890  171.2760  137.1840 O   0  0  0  0  0  1  0  0  0  0  0  0
  191.7870  172.8340  138.7250 C   0  0  1  0  0  3  0  0  0  0  0  0
  191.9110  171.8710  137.5090 C   0  0  2  0  0  3  0  0  0  0  0  0
  193.5840  173.2270  136.7470 C   0  0  0  0  0  2  0  0  0  0  0  0
  193.2770  174.2860  137.8220 C   0  0  0  0  0  2  0  0  0  0  0  0
  191.9560  174.1660  138.3080 O   0  0  0  0  0  0  0  0  0  0  0  0
  192.4090  172.5470  136.3730 O   0  0  0  0  0  0  0  0  0  0  0  0
  1 24  1  0  0  0  0
  2  5  2  0  0  0  0
  3  7  1  0  0  0  0
  4 12  1  0  0  0  0
  6 11  1  0  0  0  0
  7  2  1  0  0  0  0
  7  1  2  0  0  0  0
  8  4  2  0  0  0  0
  8 14  1  0  0  0  0
  9 13  1  0  0  0  0
  9  3  1  0  0  0  0
  9 15  1  1  0  0  0
 10  1  1  0  0  0  0
 11  2  1  0  0  0  0
 12 13  2  0  0  0  0
 13 18  1  0  0  0  0
 14  6  1  0  0  0  0
 14  3  2  0  0  0  0
 15 10  2  0  0  0  0
 16 22  1  0  0  0  0
 17 16  1  0  0  0  0
 18 20  1  0  0  0  0
 19 17  2  0  0  0  0
 20 16  2  0  0  0  0
 21 18  2  0  0  0  0
 21 19  1  0  0  0  0
 24 23  1  0  0  0  0
 25  8  1  0  0  0  0
 26 27  2  0  0  0  0
 27 25  1  0  0  0  0
 29 26  1  6  0  0  0
 30 28  1  6  0  0  0
 30 29  1  0  0  0  0
 31 32  1  0  0  0  0
 32 33  1  0  0  0  0
 33 29  1  0  0  0  0
 34 31  1  0  0  0  0
 34 30  1  0  0  0  0
M  END
>  <MODEL>
9

>  <REMARK>
 VINA RESULT:      -7.3      2.287      2.519
  Name = 
  5 active torsions:
  status: ('A' for Active; 'I' for Inactive)
    1  A    between atoms: C_1  and  O_19
    2  A    between atoms: C_3  and  C_13
    3  A    between atoms: C_12  and  C_28
    4  A    between atoms: N_17  and  N_29
    5  A    between atoms: C_18  and  N_29
                            x       y       z     vdW  Elec       q    Type
                         _______ _______ _______ _____ _____    ______ ____

>  <TORSDO>
F 5

$$$$
