=
 OpenBabel11052418083D

 28 32  0  0  1  0  0  0  0  0999 V2000
  190.5490  176.1370  145.1710 C   0  0  1  0  0  3  0  0  0  0  0  0
  186.5300  177.0450  142.0080 C   0  0  0  0  0  2  0  0  0  0  0  0
  186.5750  176.6330  148.1300 F   0  0  0  0  0  0  0  0  0  0  0  0
  184.7470  177.6600  143.5860 C   0  0  2  0  0  3  0  0  0  0  0  0
  187.0430  177.1830  144.4900 C   0  0  0  0  0  0  0  0  0  0  0  0
  184.4530  178.2940  141.2060 C   0  0  0  0  0  0  0  0  0  0  0  0
  186.2520  177.7480  143.3340 C   0  0  1  0  0  3  0  0  0  0  0  0
  184.9730  177.4400  146.0430 C   0  0  0  0  0  2  0  0  0  0  0  0
  183.9800  178.2850  142.4590 C   0  0  0  0  0  3  0  0  0  0  0  0
  188.5970  176.2930  146.7770 C   0  0  1  0  0  3  0  0  0  0  0  0
  188.3390  176.9160  144.3300 C   0  0  0  0  0  3  0  0  0  0  0  0
  184.4020  178.2990  144.9180 C   0  0  0  0  0  2  0  0  0  0  0  0
  190.0730  174.1940  146.6730 C   0  0  0  0  0  2  0  0  0  0  0  0
  187.1520  176.6960  146.9010 C   0  0  0  0  0  0  0  0  0  0  0  0
  188.8050  174.8470  147.2460 C   0  0  0  0  0  2  0  0  0  0  0  0
  183.6710  178.8420  140.1980 O   0  0  0  0  0  1  0  0  0  0  0  0
  185.8380  177.7960  140.8630 C   0  0  0  0  0  2  0  0  0  0  0  0
  186.4360  177.1180  145.8490 C   0  0  0  0  0  0  0  0  0  0  0  0
  191.1200  175.2270  146.2630 C   0  0  0  0  0  2  0  0  0  0  0  0
  189.1520  176.4920  145.4300 N   0  0  0  0  0  0  0  0  0  0  0  0
  191.4370  177.3690  144.9240 C   0  0  0  0  0  2  0  0  0  0  0  0
  192.7430  177.1350  144.1520 C   0  0  2  0  0  3  0  0  0  0  0  0
  195.0520  175.7790  143.2270 C   0  0  0  0  0  0  0  0  0  0  0  0
  192.6230  176.0860  143.0380 C   0  0  0  0  0  2  0  0  0  0  0  0
  193.9080  176.8560  145.0660 C   0  0  0  0  0  3  0  0  0  0  0  0
  195.0050  176.2440  144.6180 C   0  0  0  0  0  3  0  0  0  0  0  0
  196.1270  175.3440  142.7380 O   0  0  0  0  0  0  0  0  0  0  0  0
  193.8960  175.8390  142.4430 O   0  0  0  0  0  0  0  0  0  0  0  0
  1 21  1  1  0  0  0
  1 20  1  0  0  0  0
  1 19  1  0  0  0  0
  4  9  1  6  0  0  0
  4 12  1  0  0  0  0
  5 18  1  0  0  0  0
  6  9  2  0  0  0  0
  7  2  1  6  0  0  0
  7  4  1  0  0  0  0
  7  5  1  0  0  0  0
 10 14  1  0  0  0  0
 10 15  1  6  0  0  0
 11  5  2  0  0  0  0
 11 20  1  0  0  0  0
 12  8  1  0  0  0  0
 13 15  1  0  0  0  0
 14  3  1  0  0  0  0
 16  6  1  0  0  0  0
 17  6  1  0  0  0  0
 17  2  1  0  0  0  0
 18  8  1  0  0  0  0
 18 14  2  0  0  0  0
 19 13  1  0  0  0  0
 20 10  1  0  0  0  0
 22 21  1  1  0  0  0
 22 25  1  0  0  0  0
 23 26  1  0  0  0  0
 24 22  1  0  0  0  0
 26 25  2  0  0  0  0
 27 23  2  0  0  0  0
 28 24  1  0  0  0  0
 28 23  1  0  0  0  0
M  END
>  <MODEL>
1

>  <REMARK>
 VINA RESULT:      -8.7      0.000      0.000
  Name = 
  2 active torsions:
  status: ('A' for Active; 'I' for Inactive)
    1  A    between atoms: C_1  and  C_2
    2  A    between atoms: C_2  and  C_3
                            x       y       z     vdW  Elec       q    Type
                         _______ _______ _______ _____ _____    ______ ____

>  <TORSDO>
F 2

$$$$
=
 OpenBabel11052418083D

 28 32  0  0  1  0  0  0  0  0999 V2000
  190.8180  174.4950  142.9030 C   0  0  1  0  0  3  0  0  0  0  0  0
  186.1260  176.7230  142.9650 C   0  0  0  0  0  2  0  0  0  0  0  0
  189.4710  174.6960  147.6930 F   0  0  0  0  0  0  0  0  0  0  0  0
  185.7640  177.1220  145.3650 C   0  0  2  0  0  3  0  0  0  0  0  0
  187.9520  176.1290  144.6260 C   0  0  0  0  0  0  0  0  0  0  0  0
  184.3700  178.3990  143.7590 C   0  0  0  0  0  0  0  0  0  0  0  0
  186.8310  177.0780  144.2710 C   0  0  1  0  0  3  0  0  0  0  0  0
  187.2560  176.2290  147.1290 C   0  0  0  0  0  2  0  0  0  0  0  0
  184.6950  178.1180  145.0280 C   0  0  0  0  0  3  0  0  0  0  0  0
  190.2190  174.4700  145.3630 C   0  0  1  0  0  3  0  0  0  0  0  0
  188.8130  175.7490  143.6810 C   0  0  0  0  0  3  0  0  0  0  0  0
  186.4040  177.4220  146.7070 C   0  0  0  0  0  2  0  0  0  0  0  0
  190.7730  172.3020  144.1040 C   0  0  0  0  0  2  0  0  0  0  0  0
  189.2560  175.0090  146.3880 C   0  0  0  0  0  0  0  0  0  0  0  0
  190.2660  172.9370  145.4080 C   0  0  0  0  0  2  0  0  0  0  0  0
  183.3350  179.2910  143.5140 O   0  0  0  0  0  1  0  0  0  0  0  0
  185.1390  177.8350  142.5850 C   0  0  0  0  0  2  0  0  0  0  0  0
  188.2150  175.7840  146.0500 C   0  0  0  0  0  0  0  0  0  0  0  0
  191.6390  173.2620  143.2920 C   0  0  0  0  0  2  0  0  0  0  0  0
  189.9560  174.9470  143.9980 N   0  0  0  0  0  0  0  0  0  0  0  0
  191.7020  175.6230  142.3430 C   0  0  0  0  0  2  0  0  0  0  0  0
  193.1940  175.5740  142.7010 C   0  0  2  0  0  3  0  0  0  0  0  0
  195.8460  176.4950  143.0790 C   0  0  0  0  0  0  0  0  0  0  0  0
  193.5540  176.3820  143.9550 C   0  0  0  0  0  2  0  0  0  0  0  0
  194.0770  175.9240  141.5310 C   0  0  0  0  0  3  0  0  0  0  0  0
  195.3340  176.3280  141.7130 C   0  0  0  0  0  3  0  0  0  0  0  0
  197.0680  176.7210  143.2760 O   0  0  0  0  0  0  0  0  0  0  0  0
  194.9670  176.3840  144.1600 O   0  0  0  0  0  0  0  0  0  0  0  0
  1 21  1  1  0  0  0
  1 19  1  0  0  0  0
  1 20  1  0  0  0  0
  4  9  1  6  0  0  0
  4 12  1  0  0  0  0
  5 18  1  0  0  0  0
  6  9  2  0  0  0  0
  7  2  1  6  0  0  0
  7  5  1  0  0  0  0
  7  4  1  0  0  0  0
 10 15  1  6  0  0  0
 10 14  1  0  0  0  0
 11 20  1  0  0  0  0
 11  5  2  0  0  0  0
 12  8  1  0  0  0  0
 13 15  1  0  0  0  0
 14  3  1  0  0  0  0
 16  6  1  0  0  0  0
 17  2  1  0  0  0  0
 17  6  1  0  0  0  0
 18 14  2  0  0  0  0
 18  8  1  0  0  0  0
 19 13  1  0  0  0  0
 20 10  1  0  0  0  0
 22 21  1  6  0  0  0
 22 24  1  0  0  0  0
 23 27  2  0  0  0  0
 23 28  1  0  0  0  0
 24 28  1  0  0  0  0
 25 26  2  0  0  0  0
 25 22  1  0  0  0  0
 26 23  1  0  0  0  0
M  END
>  <MODEL>
2

>  <REMARK>
 VINA RESULT:      -8.2      1.771      2.543
  Name = 
  2 active torsions:
  status: ('A' for Active; 'I' for Inactive)
    1  A    between atoms: C_1  and  C_2
    2  A    between atoms: C_2  and  C_3
                            x       y       z     vdW  Elec       q    Type
                         _______ _______ _______ _____ _____    ______ ____

>  <TORSDO>
F 2

$$$$
=
 OpenBabel11052418083D

 28 32  0  0  1  0  0  0  0  0999 V2000
  187.4610  177.0440  146.5780 C   0  0  1  0  0  3  0  0  0  0  0  0
  187.9560  174.4400  142.1110 C   0  0  0  0  0  2  0  0  0  0  0  0
  185.1330  179.7910  143.1370 F   0  0  0  0  0  0  0  0  0  0  0  0
  187.1340  176.0660  140.4590 C   0  0  2  0  0  3  0  0  0  0  0  0
  187.2540  176.7580  142.8720 C   0  0  0  0  0  0  0  0  0  0  0  0
  188.5170  174.1810  139.6340 C   0  0  0  0  0  0  0  0  0  0  0  0
  187.8890  175.9290  141.7810 C   0  0  1  0  0  3  0  0  0  0  0  0
  186.0360  178.1980  141.0830 C   0  0  0  0  0  2  0  0  0  0  0  0
  187.8160  175.2910  139.3720 C   0  0  0  0  0  3  0  0  0  0  0  0
  186.1830  178.4930  144.9400 C   0  0  1  0  0  3  0  0  0  0  0  0
  187.5980  176.5430  144.1430 C   0  0  0  0  0  3  0  0  0  0  0  0
  186.9860  177.5310  140.0920 C   0  0  0  0  0  2  0  0  0  0  0  0
  185.0560  177.5500  147.0460 C   0  0  0  0  0  2  0  0  0  0  0  0
  185.9090  178.7290  143.4780 C   0  0  0  0  0  0  0  0  0  0  0  0
  184.8740  178.3040  145.7190 C   0  0  0  0  0  2  0  0  0  0  0  0
  189.0810  173.4780  138.5770 O   0  0  0  0  0  1  0  0  0  0  0  0
  188.7790  173.7050  141.0450 C   0  0  0  0  0  2  0  0  0  0  0  0
  186.4120  177.9350  142.5220 C   0  0  0  0  0  0  0  0  0  0  0  0
  186.4820  177.6600  147.5830 C   0  0  0  0  0  2  0  0  0  0  0  0
  187.1110  177.3820  145.1960 N   0  0  0  0  0  0  0  0  0  0  0  0
  188.9230  177.3810  146.9170 C   0  0  0  0  0  2  0  0  0  0  0  0
  189.9580  176.2710  146.6870 C   0  0  2  0  0  3  0  0  0  0  0  0
  191.3250  174.1750  145.3580 C   0  0  0  0  0  0  0  0  0  0  0  0
  190.9780  176.5950  145.5880 C   0  0  0  0  0  2  0  0  0  0  0  0
  189.3170  174.9220  146.4810 C   0  0  0  0  0  3  0  0  0  0  0  0
  189.9750  173.9300  145.8820 C   0  0  0  0  0  3  0  0  0  0  0  0
  192.0240  173.2200  144.9330 O   0  0  0  0  0  0  0  0  0  0  0  0
  191.8330  175.4770  145.3520 O   0  0  0  0  0  0  0  0  0  0  0  0
  1 21  1  1  0  0  0
  1 19  1  0  0  0  0
  3 14  1  0  0  0  0
  4  9  1  6  0  0  0
  4  7  1  0  0  0  0
  5 11  2  0  0  0  0
  6 17  1  0  0  0  0
  7  2  1  1  0  0  0
  7  5  1  0  0  0  0
  8 18  1  0  0  0  0
  9  6  2  0  0  0  0
 10 20  1  0  0  0  0
 10 15  1  1  0  0  0
 11 20  1  0  0  0  0
 12  4  1  0  0  0  0
 12  8  1  0  0  0  0
 13 19  1  0  0  0  0
 14 10  1  0  0  0  0
 15 13  1  0  0  0  0
 16  6  1  0  0  0  0
 17  2  1  0  0  0  0
 18  5  1  0  0  0  0
 18 14  2  0  0  0  0
 20  1  1  0  0  0  0
 22 21  1  6  0  0  0
 23 26  1  0  0  0  0
 24 22  1  0  0  0  0
 25 22  1  0  0  0  0
 26 25  2  0  0  0  0
 27 23  2  0  0  0  0
 28 23  1  0  0  0  0
 28 24  1  0  0  0  0
M  END
>  <MODEL>
3

>  <REMARK>
 VINA RESULT:      -8.1      2.846      4.620
  Name = 
  2 active torsions:
  status: ('A' for Active; 'I' for Inactive)
    1  A    between atoms: C_1  and  C_2
    2  A    between atoms: C_2  and  C_3
                            x       y       z     vdW  Elec       q    Type
                         _______ _______ _______ _____ _____    ______ ____

>  <TORSDO>
F 2

$$$$
=
 OpenBabel11052418083D

 28 32  0  0  1  0  0  0  0  0999 V2000
  187.7530  177.1630  141.8040 C   0  0  1  0  0  3  0  0  0  0  0  0
  192.3150  176.8450  144.2680 C   0  0  0  0  0  2  0  0  0  0  0  0
  186.6560  176.4430  146.6080 F   0  0  0  0  0  0  0  0  0  0  0  0
  191.6490  176.1010  146.5160 C   0  0  2  0  0  3  0  0  0  0  0  0
  189.8720  176.3590  144.7570 C   0  0  0  0  0  0  0  0  0  0  0  0
  194.0200  175.7990  145.8550 C   0  0  0  0  0  0  0  0  0  0  0  0
  191.3090  175.9860  145.0300 C   0  0  1  0  0  3  0  0  0  0  0  0
  189.2900  175.9850  147.2630 C   0  0  0  0  0  2  0  0  0  0  0  0
  193.0580  175.6610  146.7770 C   0  0  0  0  0  3  0  0  0  0  0  0
  187.0630  176.8760  144.2240 C   0  0  1  0  0  3  0  0  0  0  0  0
  189.4810  176.5920  143.5040 C   0  0  0  0  0  3  0  0  0  0  0  0
  190.6540  175.3060  147.3410 C   0  0  0  0  0  2  0  0  0  0  0  0
  186.3000  178.9080  142.8520 C   0  0  0  0  0  2  0  0  0  0  0  0
  187.5640  176.5190  145.5990 C   0  0  0  0  0  0  0  0  0  0  0  0
  186.3560  178.2370  144.2340 C   0  0  0  0  0  2  0  0  0  0  0  0
  195.3170  175.4220  146.1770 O   0  0  0  0  0  1  0  0  0  0  0  0
  193.7300  176.2810  144.4510 C   0  0  0  0  0  2  0  0  0  0  0  0
  188.8580  176.2690  145.8440 C   0  0  0  0  0  0  0  0  0  0  0  0
  186.4110  177.8960  141.7140 C   0  0  0  0  0  2  0  0  0  0  0  0
  188.1050  176.8340  143.1870 N   0  0  0  0  0  0  0  0  0  0  0  0
  187.8050  175.9390  140.8730 C   0  0  0  0  0  2  0  0  0  0  0  0
  188.6490  174.7470  141.3460 C   0  0  2  0  0  3  0  0  0  0  0  0
  189.5560  172.0700  141.5390 C   0  0  0  0  0  0  0  0  0  0  0  0
  189.5610  174.1650  140.2580 C   0  0  0  0  0  2  0  0  0  0  0  0
  187.8160  173.6830  142.0130 C   0  0  0  0  0  3  0  0  0  0  0  0
  188.2610  172.4310  142.1280 C   0  0  0  0  0  3  0  0  0  0  0  0
  190.0670  170.9440  141.7700 O   0  0  0  0  0  0  0  0  0  0  0  0
  190.2270  172.9960  140.7340 O   0  0  0  0  0  0  0  0  0  0  0  0
  1 21  1  6  0  0  0
  1 20  1  0  0  0  0
  2 17  1  0  0  0  0
  4  9  1  6  0  0  0
  4 12  1  0  0  0  0
  5  7  1  0  0  0  0
  5 18  1  0  0  0  0
  6 16  1  0  0  0  0
  6  9  2  0  0  0  0
  7  2  1  6  0  0  0
  7  4  1  0  0  0  0
  8 12  1  0  0  0  0
 10 15  1  1  0  0  0
 10 14  1  0  0  0  0
 11  5  2  0  0  0  0
 13 15  1  0  0  0  0
 14 18  2  0  0  0  0
 14  3  1  0  0  0  0
 17  6  1  0  0  0  0
 18  8  1  0  0  0  0
 19  1  1  0  0  0  0
 19 13  1  0  0  0  0
 20 11  1  0  0  0  0
 20 10  1  0  0  0  0
 22 21  1  6  0  0  0
 22 25  1  0  0  0  0
 23 27  2  0  0  0  0
 23 26  1  0  0  0  0
 24 28  1  0  0  0  0
 24 22  1  0  0  0  0
 25 26  2  0  0  0  0
 28 23  1  0  0  0  0
M  END
>  <MODEL>
4

>  <REMARK>
 VINA RESULT:      -7.9      2.713      6.578
  Name = 
  2 active torsions:
  status: ('A' for Active; 'I' for Inactive)
    1  A    between atoms: C_1  and  C_2
    2  A    between atoms: C_2  and  C_3
                            x       y       z     vdW  Elec       q    Type
                         _______ _______ _______ _____ _____    ______ ____

>  <TORSDO>
F 2

$$$$
=
 OpenBabel11052418083D

 28 32  0  0  1  0  0  0  0  0999 V2000
  189.3850  176.8920  145.5710 C   0  0  1  0  0  3  0  0  0  0  0  0
  194.4980  176.4270  144.7850 C   0  0  0  0  0  2  0  0  0  0  0  0
  190.2370  172.0180  145.0120 F   0  0  0  0  0  0  0  0  0  0  0  0
  194.7190  174.0660  144.1350 C   0  0  2  0  0  3  0  0  0  0  0  0
  192.4200  174.9850  144.5680 C   0  0  0  0  0  0  0  0  0  0  0  0
  196.5870  175.5970  143.5740 C   0  0  0  0  0  0  0  0  0  0  0  0
  193.8040  175.2870  144.0440 C   0  0  1  0  0  3  0  0  0  0  0  0
  192.8560  172.4390  144.2790 C   0  0  0  0  0  2  0  0  0  0  0  0
  196.0660  174.3630  143.5480 C   0  0  0  0  0  3  0  0  0  0  0  0
  189.6960  174.3860  145.3790 C   0  0  1  0  0  3  0  0  0  0  0  0
  191.5850  175.9910  144.8320 C   0  0  0  0  0  3  0  0  0  0  0  0
  194.0670  172.8740  143.4580 C   0  0  0  0  0  2  0  0  0  0  0  0
  188.6450  175.4430  147.4700 C   0  0  0  0  0  2  0  0  0  0  0  0
  190.6680  173.3060  144.9820 C   0  0  0  0  0  0  0  0  0  0  0  0
  189.1850  174.1650  146.8090 C   0  0  0  0  0  2  0  0  0  0  0  0
  197.8620  175.7970  143.0620 O   0  0  0  0  0  1  0  0  0  0  0  0
  195.8080  176.7920  144.0730 C   0  0  0  0  0  2  0  0  0  0  0  0
  191.9220  173.5820  144.5970 C   0  0  0  0  0  0  0  0  0  0  0  0
  188.1950  176.4790  146.4430 C   0  0  0  0  0  2  0  0  0  0  0  0
  190.2270  175.7470  145.2170 N   0  0  0  0  0  0  0  0  0  0  0  0
  188.9430  177.7040  144.3400 C   0  0  0  0  0  2  0  0  0  0  0  0
  187.4940  177.5150  143.8730 C   0  0  2  0  0  3  0  0  0  0  0  0
  185.0730  178.0570  142.5030 C   0  0  0  0  0  0  0  0  0  0  0  0
  187.3650  177.1820  142.3810 C   0  0  0  0  0  2  0  0  0  0  0  0
  186.6070  178.6670  144.2720 C   0  0  0  0  0  3  0  0  0  0  0  0
  185.4540  178.9000  143.6440 C   0  0  0  0  0  3  0  0  0  0  0  0
  183.9260  178.1540  141.9970 O   0  0  0  0  0  0  0  0  0  0  0  0
  185.9910  177.1330  141.9950 O   0  0  0  0  0  0  0  0  0  0  0  0
  1 21  1  6  0  0  0
  1 19  1  0  0  0  0
  4 12  1  6  0  0  0
  5 18  1  0  0  0  0
  5 11  2  0  0  0  0
  6 17  1  0  0  0  0
  7  4  1  0  0  0  0
  7  5  1  0  0  0  0
  7  2  1  1  0  0  0
  8 18  1  0  0  0  0
  9  6  2  0  0  0  0
  9  4  1  0  0  0  0
 10 15  1  1  0  0  0
 11 20  1  0  0  0  0
 12  8  1  0  0  0  0
 14  3  1  0  0  0  0
 14 10  1  0  0  0  0
 15 13  1  0  0  0  0
 16  6  1  0  0  0  0
 17  2  1  0  0  0  0
 18 14  2  0  0  0  0
 19 13  1  0  0  0  0
 20 10  1  0  0  0  0
 20  1  1  0  0  0  0
 22 25  1  0  0  0  0
 22 21  1  6  0  0  0
 23 26  1  0  0  0  0
 24 22  1  0  0  0  0
 26 25  2  0  0  0  0
 27 23  2  0  0  0  0
 28 24  1  0  0  0  0
 28 23  1  0  0  0  0
M  END
>  <MODEL>
5

>  <REMARK>
 VINA RESULT:      -7.8      2.160      8.128
  Name = 
  2 active torsions:
  status: ('A' for Active; 'I' for Inactive)
    1  A    between atoms: C_1  and  C_2
    2  A    between atoms: C_2  and  C_3
                            x       y       z     vdW  Elec       q    Type
                         _______ _______ _______ _____ _____    ______ ____

>  <TORSDO>
F 2

$$$$
=
 OpenBabel11052418083D

 28 32  0  0  1  0  0  0  0  0999 V2000
  192.4650  176.3050  145.8160 C   0  0  1  0  0  3  0  0  0  0  0  0
  190.6760  173.6200  141.7460 C   0  0  0  0  0  2  0  0  0  0  0  0
  187.8060  177.9000  145.0780 F   0  0  0  0  0  0  0  0  0  0  0  0
  188.5590  174.7680  141.2470 C   0  0  2  0  0  3  0  0  0  0  0  0
  190.0060  175.6620  143.0980 C   0  0  0  0  0  0  0  0  0  0  0  0
  189.5450  173.3420  139.4730 C   0  0  0  0  0  0  0  0  0  0  0  0
  189.9870  174.9820  141.7490 C   0  0  1  0  0  3  0  0  0  0  0  0
  187.5740  176.5000  142.7200 C   0  0  0  0  0  2  0  0  0  0  0  0
  188.5610  174.1550  139.8780 C   0  0  0  0  0  3  0  0  0  0  0  0
  190.0870  177.1460  145.5930 C   0  0  1  0  0  3  0  0  0  0  0  0
  191.1320  175.6700  143.8120 C   0  0  0  0  0  3  0  0  0  0  0  0
  187.7960  176.0800  141.2700 C   0  0  0  0  0  2  0  0  0  0  0  0
  190.9240  176.0790  147.7730 C   0  0  0  0  0  2  0  0  0  0  0  0
  188.8800  177.1620  144.6920 C   0  0  0  0  0  0  0  0  0  0  0  0
  189.7210  176.6260  146.9900 C   0  0  0  0  0  2  0  0  0  0  0  0
  189.4610  172.7630  138.2140 O   0  0  0  0  0  1  0  0  0  0  0  0
  190.7790  173.0900  140.3100 C   0  0  0  0  0  2  0  0  0  0  0  0
  188.8460  176.4870  143.5340 C   0  0  0  0  0  0  0  0  0  0  0  0
  192.2470  176.6690  147.2880 C   0  0  0  0  0  2  0  0  0  0  0  0
  191.2270  176.4020  145.0390 N   0  0  0  0  0  0  0  0  0  0  0  0
  193.6210  177.1050  145.1900 C   0  0  0  0  0  2  0  0  0  0  0  0
  194.9990  176.4300  145.1760 C   0  0  2  0  0  3  0  0  0  0  0  0
  196.9560  174.4420  144.6800 C   0  0  0  0  0  0  0  0  0  0  0  0
  195.5960  176.2740  143.7720 C   0  0  0  0  0  2  0  0  0  0  0  0
  195.0100  175.1310  145.9410 C   0  0  0  0  0  3  0  0  0  0  0  0
  195.9510  174.2110  145.7250 C   0  0  0  0  0  3  0  0  0  0  0  0
  197.9410  173.6680  144.5660 O   0  0  0  0  0  0  0  0  0  0  0  0
  196.8190  175.5390  143.8250 O   0  0  0  0  0  0  0  0  0  0  0  0
  1 21  1  6  0  0  0
  1 19  1  0  0  0  0
  4  9  1  6  0  0  0
  4 12  1  0  0  0  0
  4  7  1  0  0  0  0
  5 18  1  0  0  0  0
  5 11  2  0  0  0  0
  6  9  2  0  0  0  0
  6 17  1  0  0  0  0
  7  2  1  1  0  0  0
  7  5  1  0  0  0  0
  8 18  1  0  0  0  0
 10 15  1  1  0  0  0
 11 20  1  0  0  0  0
 12  8  1  0  0  0  0
 14  3  1  0  0  0  0
 14 10  1  0  0  0  0
 15 13  1  0  0  0  0
 16  6  1  0  0  0  0
 17  2  1  0  0  0  0
 18 14  2  0  0  0  0
 19 13  1  0  0  0  0
 20 10  1  0  0  0  0
 20  1  1  0  0  0  0
 22 21  1  6  0  0  0
 22 25  1  0  0  0  0
 23 26  1  0  0  0  0
 24 28  1  0  0  0  0
 24 22  1  0  0  0  0
 26 25  2  0  0  0  0
 27 23  2  0  0  0  0
 28 23  1  0  0  0  0
M  END
>  <MODEL>
6

>  <REMARK>
 VINA RESULT:      -7.7      2.895      4.186
  Name = 
  2 active torsions:
  status: ('A' for Active; 'I' for Inactive)
    1  A    between atoms: C_1  and  C_2
    2  A    between atoms: C_2  and  C_3
                            x       y       z     vdW  Elec       q    Type
                         _______ _______ _______ _____ _____    ______ ____

>  <TORSDO>
F 2

$$$$
=
 OpenBabel11052418083D

 28 32  0  0  1  0  0  0  0  0999 V2000
  189.8510  176.0190  146.2920 C   0  0  1  0  0  3  0  0  0  0  0  0
  189.1550  174.9470  141.2580 C   0  0  0  0  0  2  0  0  0  0  0  0
  193.0270  172.3320  145.2350 F   0  0  0  0  0  0  0  0  0  0  0  0
  190.4630  172.8850  140.9720 C   0  0  2  0  0  3  0  0  0  0  0  0
  190.3000  173.8990  143.2660 C   0  0  0  0  0  0  0  0  0  0  0  0
  188.7610  173.4200  139.2500 C   0  0  0  0  0  0  0  0  0  0  0  0
  189.5880  173.6610  141.9550 C   0  0  1  0  0  3  0  0  0  0  0  0
  191.9620  171.9750  142.7230 C   0  0  0  0  0  2  0  0  0  0  0  0
  189.7170  172.5990  139.7040 C   0  0  0  0  0  3  0  0  0  0  0  0
  191.5600  174.1990  145.8660 C   0  0  1  0  0  3  0  0  0  0  0  0
  189.8100  174.7920  144.1260 C   0  0  0  0  0  3  0  0  0  0  0  0
  190.9720  171.6100  141.6200 C   0  0  0  0  0  2  0  0  0  0  0  0
  192.2590  176.4980  146.7710 C   0  0  0  0  0  2  0  0  0  0  0  0
  192.0030  173.1510  144.8790 C   0  0  0  0  0  0  0  0  0  0  0  0
  192.7200  175.1360  146.2280 C   0  0  0  0  0  2  0  0  0  0  0  0
  188.1440  173.1270  138.0410 O   0  0  0  0  0  1  0  0  0  0  0  0
  188.2800  174.6140  140.0420 C   0  0  0  0  0  2  0  0  0  0  0  0
  191.4150  173.0040  143.6830 C   0  0  0  0  0  0  0  0  0  0  0  0
  190.8560  176.4360  147.3710 C   0  0  0  0  0  2  0  0  0  0  0  0
  190.3850  174.9640  145.4260 N   0  0  0  0  0  0  0  0  0  0  0  0
  188.4810  175.6560  146.8900 C   0  0  0  0  0  2  0  0  0  0  0  0
  187.2630  176.4010  146.3270 C   0  0  2  0  0  3  0  0  0  0  0  0
  185.4460  178.5300  145.8880 C   0  0  0  0  0  0  0  0  0  0  0  0
  187.6260  177.5320  145.3560 C   0  0  0  0  0  2  0  0  0  0  0  0
  186.3240  176.8670  147.4100 C   0  0  0  0  0  3  0  0  0  0  0  0
  185.4490  177.8490  147.1890 C   0  0  0  0  0  3  0  0  0  0  0  0
  184.5320  179.3460  145.6010 O   0  0  0  0  0  0  0  0  0  0  0  0
  186.4560  178.2500  144.9640 O   0  0  0  0  0  0  0  0  0  0  0  0
  1 21  1  1  0  0  0
  1 19  1  0  0  0  0
  4  9  1  6  0  0  0
  4 12  1  0  0  0  0
  4  7  1  0  0  0  0
  5 18  1  0  0  0  0
  5 11  2  0  0  0  0
  6  9  2  0  0  0  0
  6 17  1  0  0  0  0
  7  2  1  6  0  0  0
  7  5  1  0  0  0  0
  8 18  1  0  0  0  0
 10 15  1  6  0  0  0
 11 20  1  0  0  0  0
 12  8  1  0  0  0  0
 13 19  1  0  0  0  0
 14  3  1  0  0  0  0
 14 10  1  0  0  0  0
 15 13  1  0  0  0  0
 16  6  1  0  0  0  0
 17  2  1  0  0  0  0
 18 14  2  0  0  0  0
 20 10  1  0  0  0  0
 20  1  1  0  0  0  0
 22 21  1  1  0  0  0
 22 25  1  0  0  0  0
 23 26  1  0  0  0  0
 24 22  1  0  0  0  0
 26 25  2  0  0  0  0
 27 23  2  0  0  0  0
 28 24  1  0  0  0  0
 28 23  1  0  0  0  0
M  END
>  <MODEL>
7

>  <REMARK>
 VINA RESULT:      -7.5      3.776      6.811
  Name = 
  2 active torsions:
  status: ('A' for Active; 'I' for Inactive)
    1  A    between atoms: C_1  and  C_2
    2  A    between atoms: C_2  and  C_3
                            x       y       z     vdW  Elec       q    Type
                         _______ _______ _______ _____ _____    ______ ____

>  <TORSDO>
F 2

$$$$
=
 OpenBabel11052418083D

 28 32  0  0  1  0  0  0  0  0999 V2000
  190.5030  175.2280  145.5480 C   0  0  1  0  0  3  0  0  0  0  0  0
  188.0020  175.2450  140.9950 C   0  0  0  0  0  2  0  0  0  0  0  0
  186.7840  178.5010  146.0520 F   0  0  0  0  0  0  0  0  0  0  0  0
  186.4740  177.1570  141.2400 C   0  0  2  0  0  3  0  0  0  0  0  0
  188.0790  176.6510  143.1070 C   0  0  0  0  0  0  0  0  0  0  0  0
  186.9320  176.3320  138.9470 C   0  0  0  0  0  0  0  0  0  0  0  0
  187.8610  176.6340  141.6130 C   0  0  1  0  0  3  0  0  0  0  0  0
  186.1400  178.3610  143.3790 C   0  0  0  0  0  2  0  0  0  0  0  0
  186.3010  177.1960  139.7520 C   0  0  0  0  0  3  0  0  0  0  0  0
  188.6090  176.8590  145.9560 C   0  0  1  0  0  3  0  0  0  0  0  0
  189.1030  175.9750  143.6280 C   0  0  0  0  0  3  0  0  0  0  0  0
  186.2450  178.5200  141.8650 C   0  0  0  0  0  2  0  0  0  0  0  0
  188.9160  174.7780  147.4280 C   0  0  0  0  0  2  0  0  0  0  0  0
  187.5260  177.6610  145.2830 C   0  0  0  0  0  0  0  0  0  0  0  0
  188.0270  175.9790  147.0700 C   0  0  0  0  0  2  0  0  0  0  0  0
  186.6870  176.3860  137.5810 O   0  0  0  0  0  1  0  0  0  0  0  0
  187.9560  175.3470  139.4640 C   0  0  0  0  0  2  0  0  0  0  0  0
  187.2880  177.5750  143.9660 C   0  0  0  0  0  0  0  0  0  0  0  0
  190.3800  175.0120  147.0590 C   0  0  0  0  0  2  0  0  0  0  0  0
  189.4160  176.0590  145.0230 N   0  0  0  0  0  0  0  0  0  0  0  0
  191.8940  175.7550  145.1520 C   0  0  0  0  0  2  0  0  0  0  0  0
  193.1040  174.9910  145.7060 C   0  0  2  0  0  3  0  0  0  0  0  0
  195.5670  173.5900  145.6970 C   0  0  0  0  0  0  0  0  0  0  0  0
  194.4260  175.7620  145.5940 C   0  0  0  0  0  2  0  0  0  0  0  0
  193.2130  173.5990  145.1370 C   0  0  0  0  0  3  0  0  0  0  0  0
  194.3680  172.9320  145.1630 C   0  0  0  0  0  3  0  0  0  0  0  0
  196.6240  172.9330  145.8780 O   0  0  0  0  0  0  0  0  0  0  0  0
  195.5180  174.9490  146.0210 O   0  0  0  0  0  0  0  0  0  0  0  0
  1 21  1  1  0  0  0
  1 19  1  0  0  0  0
  4  9  1  6  0  0  0
  4  7  1  0  0  0  0
  4 12  1  0  0  0  0
  5 11  2  0  0  0  0
  5 18  1  0  0  0  0
  6 17  1  0  0  0  0
  6  9  2  0  0  0  0
  7  2  1  1  0  0  0
  7  5  1  0  0  0  0
  8 18  1  0  0  0  0
 10 15  1  1  0  0  0
 11 20  1  0  0  0  0
 12  8  1  0  0  0  0
 14 10  1  0  0  0  0
 14  3  1  0  0  0  0
 15 13  1  0  0  0  0
 16  6  1  0  0  0  0
 17  2  1  0  0  0  0
 18 14  2  0  0  0  0
 19 13  1  0  0  0  0
 20  1  1  0  0  0  0
 20 10  1  0  0  0  0
 22 21  1  6  0  0  0
 23 27  2  0  0  0  0
 23 28  1  0  0  0  0
 24 22  1  0  0  0  0
 24 28  1  0  0  0  0
 25 26  2  0  0  0  0
 25 22  1  0  0  0  0
 26 23  1  0  0  0  0
M  END
>  <MODEL>
8

>  <REMARK>
 VINA RESULT:      -7.5      2.185      2.819
  Name = 
  2 active torsions:
  status: ('A' for Active; 'I' for Inactive)
    1  A    between atoms: C_1  and  C_2
    2  A    between atoms: C_2  and  C_3
                            x       y       z     vdW  Elec       q    Type
                         _______ _______ _______ _____ _____    ______ ____

>  <TORSDO>
F 2

$$$$
=
 OpenBabel11052418083D

 28 32  0  0  1  0  0  0  0  0999 V2000
  192.9170  175.0350  143.5420 C   0  0  1  0  0  3  0  0  0  0  0  0
  187.8210  175.8320  142.9220 C   0  0  0  0  0  2  0  0  0  0  0  0
  191.2780  176.8050  147.8990 F   0  0  0  0  0  0  0  0  0  0  0  0
  187.2270  177.0590  144.9690 C   0  0  2  0  0  3  0  0  0  0  0  0
  189.6340  176.4420  144.5910 C   0  0  0  0  0  0  0  0  0  0  0  0
  185.6570  177.1810  143.0530 C   0  0  0  0  0  0  0  0  0  0  0  0
  188.3350  176.8490  143.9370 C   0  0  1  0  0  3  0  0  0  0  0  0
  188.7870  177.3650  146.8690 C   0  0  0  0  0  2  0  0  0  0  0  0
  185.9650  177.5290  144.3090 C   0  0  0  0  0  3  0  0  0  0  0  0
  192.1960  175.8550  145.8280 C   0  0  1  0  0  3  0  0  0  0  0  0
  190.6180  175.9440  143.8420 C   0  0  0  0  0  3  0  0  0  0  0  0
  187.6900  178.0280  146.0420 C   0  0  0  0  0  2  0  0  0  0  0  0
  193.3500  173.5800  145.5300 C   0  0  0  0  0  2  0  0  0  0  0  0
  191.0690  176.4990  146.5910 C   0  0  0  0  0  0  0  0  0  0  0  0
  192.6230  174.5370  146.4880 C   0  0  0  0  0  2  0  0  0  0  0  0
  184.4490  177.6040  142.5180 O   0  0  0  0  0  1  0  0  0  0  0  0
  186.6120  176.4060  142.1730 C   0  0  0  0  0  2  0  0  0  0  0  0
  189.8890  176.7810  146.0190 C   0  0  0  0  0  0  0  0  0  0  0  0
  193.9960  174.3160  144.3580 C   0  0  0  0  0  2  0  0  0  0  0  0
  191.9050  175.6560  144.4010 N   0  0  0  0  0  0  0  0  0  0  0  0
  193.5220  176.0240  142.5310 C   0  0  0  0  0  2  0  0  0  0  0  0
  194.8070  175.5820  141.8180 C   0  0  2  0  0  3  0  0  0  0  0  0
  196.9380  175.6350  139.9510 C   0  0  0  0  0  0  0  0  0  0  0  0
  195.9900  176.5360  142.0300 C   0  0  0  0  0  2  0  0  0  0  0  0
  194.5790  175.2810  140.3590 C   0  0  0  0  0  3  0  0  0  0  0  0
  195.5910  175.2770  139.4890 C   0  0  0  0  0  3  0  0  0  0  0  0
  197.9290  175.4860  139.1920 O   0  0  0  0  0  0  0  0  0  0  0  0
  197.1120  176.1250  141.2490 O   0  0  0  0  0  0  0  0  0  0  0  0
  1 21  1  1  0  0  0
  1 19  1  0  0  0  0
  1 20  1  0  0  0  0
  4  9  1  6  0  0  0
  4 12  1  0  0  0  0
  5 18  1  0  0  0  0
  6  9  2  0  0  0  0
  7  2  1  6  0  0  0
  7  5  1  0  0  0  0
  7  4  1  0  0  0  0
 10 15  1  1  0  0  0
 10 14  1  0  0  0  0
 11 20  1  0  0  0  0
 11  5  2  0  0  0  0
 12  8  1  0  0  0  0
 13 15  1  0  0  0  0
 14  3  1  0  0  0  0
 16  6  1  0  0  0  0
 17  2  1  0  0  0  0
 17  6  1  0  0  0  0
 18 14  2  0  0  0  0
 18  8  1  0  0  0  0
 19 13  1  0  0  0  0
 20 10  1  0  0  0  0
 22 24  1  0  0  0  0
 22 21  1  6  0  0  0
 23 28  1  0  0  0  0
 25 22  1  0  0  0  0
 26 23  1  0  0  0  0
 26 25  2  0  0  0  0
 27 23  2  0  0  0  0
 28 24  1  0  0  0  0
M  END
>  <MODEL>
9

>  <REMARK>
 VINA RESULT:      -7.5      2.213      3.479
  Name = 
  2 active torsions:
  status: ('A' for Active; 'I' for Inactive)
    1  A    between atoms: C_1  and  C_2
    2  A    between atoms: C_2  and  C_3
                            x       y       z     vdW  Elec       q    Type
                         _______ _______ _______ _____ _____    ______ ____

>  <TORSDO>
F 2

$$$$
