=
 OpenBabel11052418503D

 34 38  0  0  1  0  0  0  0  0999 V2000
  192.3360  176.3860  144.9140 C   0  0  1  0  0  3  0  0  0  0  0  0
  193.5230  172.9290  145.3870 N   0  0  0  0  0  2  0  0  0  0  0  0
  191.1790  174.1090  144.1770 C   0  0  0  0  0  2  0  0  0  0  0  0
  192.6400  172.1190  144.5910 C   0  0  0  0  0  3  0  0  0  0  0  0
  193.6060  176.6350  145.7420 C   0  0  0  0  0  2  0  0  0  0  0  0
  193.0900  174.2740  145.7470 C   0  0  1  0  0  3  0  0  0  0  0  0
  194.1840  175.2620  146.1280 C   0  0  1  0  0  3  0  0  0  0  0  0
  191.5370  172.6440  144.0200 C   0  0  0  0  0  0  0  0  0  0  0  0
  192.4190  174.9070  144.5690 C   0  0  2  0  0  3  0  0  0  0  0  0
  191.0370  176.2810  147.0710 N   0  0  0  0  0  0  0  0  0  0  0  0
  189.8010  176.7210  144.9180 C   0  0  0  0  0  0  0  0  0  0  0  0
  188.7320  175.4000  146.7540 C   0  0  0  0  0  2  0  0  0  0  0  0
  188.7360  175.8970  145.3890 N   0  0  0  0  0  2  0  0  0  0  0  0
  191.0870  176.8340  145.7030 C   0  0  2  0  0  3  0  0  0  0  0  0
  190.1610  175.1050  147.2020 C   0  0  0  0  0  2  0  0  0  0  0  0
  189.6380  177.5000  143.4890 S   0  0  0  0  0  0  0  0  0  0  0  0
  190.6010  177.3320  147.9810 C   0  0  0  0  0  2  0  0  0  0  0  0
  191.5590  177.5180  148.9790 O   0  0  0  0  0  1  0  0  0  0  0  0
  197.0570  175.3840  143.6280 C   0  0  0  0  0  0  0  0  0  0  0  0
  197.9170  174.4980  144.1970 N   0  0  0  0  0  0  0  0  0  0  0  0
  195.4980  175.0150  145.4360 C   0  0  0  0  0  0  0  0  0  0  0  0
  197.6140  173.8590  145.3600 C   0  0  0  0  0  3  0  0  0  0  0  0
  195.8310  175.6590  144.2360 C   0  0  0  0  0  3  0  0  0  0  0  0
  196.3980  174.1070  145.9990 C   0  0  0  0  0  3  0  0  0  0  0  0
  197.4220  176.0610  142.3560 C   0  0  0  0  0  1  0  0  0  0  0  0
  190.6390  171.7760  143.2090 C   0  0  0  0  0  2  0  0  0  0  0  0
  189.2310  172.3500  143.1750 C   0  0  0  0  0  2  0  0  0  0  0  0
  187.6710  174.6870  142.1900 O   0  0  0  0  0  1  0  0  0  0  0  0
  188.7970  172.6070  141.7410 C   0  0  1  0  0  3  0  0  0  0  0  0
  188.7100  174.1130  141.4570 C   0  0  1  0  0  3  0  0  0  0  0  0
  189.5190  173.6310  139.1430 C   0  0  0  0  0  2  0  0  0  0  0  0
  189.4430  172.1970  139.4100 N   0  0  0  0  0  2  0  0  0  0  0  0
  189.8200  171.9680  140.8030 C   0  0  0  0  0  2  0  0  0  0  0  0
  188.4710  174.3680  139.9710 C   0  0  0  0  0  2  0  0  0  0  0  0
  1 14  1  0  0  0  0
  1  5  1  1  0  0  0
  4  2  1  0  0  0  0
  5  7  1  0  0  0  0
  6  2  1  6  0  0  0
  6  7  1  0  0  0  0
  7 21  1  6  0  0  0
  8  3  1  0  0  0  0
  8  4  2  0  0  0  0
  9  3  1  1  0  0  0
  9  1  1  0  0  0  0
  9  6  1  0  0  0  0
 10 15  1  0  0  0  0
 10 17  1  0  0  0  0
 11 13  1  0  0  0  0
 12 15  1  0  0  0  0
 13 12  1  0  0  0  0
 14 11  1  6  0  0  0
 14 10  1  0  0  0  0
 16 11  2  0  0  0  0
 17 18  1  0  0  0  0
 19 20  2  0  0  0  0
 19 23  1  0  0  0  0
 20 22  1  0  0  0  0
 21 24  1  0  0  0  0
 22 24  2  0  0  0  0
 23 21  2  0  0  0  0
 25 19  1  0  0  0  0
 26  8  1  0  0  0  0
 27 26  1  0  0  0  0
 29 27  1  1  0  0  0
 30 29  1  0  0  0  0
 30 28  1  1  0  0  0
 31 32  1  0  0  0  0
 31 34  1  0  0  0  0
 32 33  1  0  0  0  0
 33 29  1  0  0  0  0
 34 30  1  0  0  0  0
M  END
>  <MODEL>
1

>  <REMARK>
 VINA RESULT:      -7.3      0.000      0.000
  Name = 
  6 active torsions:
  status: ('A' for Active; 'I' for Inactive)
    1  A    between atoms: N_1  and  C_24
    2  A    between atoms: C_3  and  C_13
    3  A    between atoms: C_3  and  C_17
    4  A    between atoms: C_4  and  C_15
    5  A    between atoms: C_12  and  C_28
    6  A    between atoms: C_17  and  C_29
                            x       y       z     vdW  Elec       q    Type
                         _______ _______ _______ _____ _____    ______ ____

>  <TORSDO>
F 6

$$$$
=
 OpenBabel11052418503D

 34 38  0  0  1  0  0  0  0  0999 V2000
  189.9190  175.2650  144.8720 C   0  0  1  0  0  3  0  0  0  0  0  0
  187.9010  177.1830  142.4570 N   0  0  0  0  0  2  0  0  0  0  0  0
  189.4720  174.7630  142.3000 C   0  0  0  0  0  2  0  0  0  0  0  0
  187.8070  176.3400  141.2950 C   0  0  0  0  0  3  0  0  0  0  0  0
  189.5160  176.4700  145.7350 C   0  0  0  0  0  2  0  0  0  0  0  0
  188.9550  176.9100  143.4260 C   0  0  1  0  0  3  0  0  0  0  0  0
  188.7420  177.4470  144.8350 C   0  0  1  0  0  3  0  0  0  0  0  0
  188.5340  175.2080  141.1950 C   0  0  0  0  0  0  0  0  0  0  0  0
  189.0790  175.4300  143.6140 C   0  0  2  0  0  3  0  0  0  0  0  0
  192.0050  176.5460  144.2740 N   0  0  0  0  0  0  0  0  0  0  0  0
  191.9340  174.0600  143.8570 C   0  0  0  0  0  0  0  0  0  0  0  0
  193.1920  175.5770  142.3150 C   0  0  0  0  0  2  0  0  0  0  0  0
  192.6490  174.2690  142.6410 N   0  0  0  0  0  2  0  0  0  0  0  0
  191.4500  175.2370  144.6720 C   0  0  2  0  0  3  0  0  0  0  0  0
  192.2560  176.6670  142.8290 C   0  0  0  0  0  2  0  0  0  0  0  0
  191.5940  172.5340  144.3340 S   0  0  0  0  0  0  0  0  0  0  0  0
  193.2380  176.7720  145.0160 C   0  0  0  0  0  2  0  0  0  0  0  0
  193.0510  176.4280  146.3560 O   0  0  0  0  0  1  0  0  0  0  0  0
  185.0720  178.4520  145.0410 C   0  0  0  0  0  0  0  0  0  0  0  0
  184.6540  177.6510  146.0580 N   0  0  0  0  0  0  0  0  0  0  0  0
  187.2950  177.5280  145.2440 C   0  0  0  0  0  0  0  0  0  0  0  0
  185.5050  176.7930  146.6830 C   0  0  0  0  0  3  0  0  0  0  0  0
  186.4000  178.4060  144.6150 C   0  0  0  0  0  3  0  0  0  0  0  0
  186.8410  176.7180  146.2870 C   0  0  0  0  0  3  0  0  0  0  0  0
  184.1130  179.3770  144.3830 C   0  0  0  0  0  1  0  0  0  0  0  0
  188.4200  174.3620  139.9750 C   0  0  0  0  0  2  0  0  0  0  0  0
  189.2240  173.0810  140.1380 C   0  0  0  0  0  2  0  0  0  0  0  0
  190.3550  170.4120  139.4590 O   0  0  0  0  0  1  0  0  0  0  0  0
  189.8550  172.6780  138.8160 C   0  0  1  0  0  3  0  0  0  0  0  0
  189.6400  171.1830  138.5410 C   0  0  1  0  0  3  0  0  0  0  0  0
  189.4310  171.7510  136.1180 C   0  0  0  0  0  2  0  0  0  0  0  0
  189.7880  173.1380  136.4070 N   0  0  0  0  0  2  0  0  0  0  0  0
  189.2120  173.5000  137.7000 C   0  0  0  0  0  2  0  0  0  0  0  0
  190.0970  170.8230  137.1290 C   0  0  0  0  0  2  0  0  0  0  0  0
  1  5  1  1  0  0  0
  4  2  1  0  0  0  0
  6  2  1  6  0  0  0
  6  9  1  0  0  0  0
  6  7  1  0  0  0  0
  7 21  1  1  0  0  0
  7  5  1  0  0  0  0
  8  4  2  0  0  0  0
  8  3  1  0  0  0  0
  9  3  1  6  0  0  0
  9  1  1  0  0  0  0
 10 14  1  0  0  0  0
 10 17  1  0  0  0  0
 11 16  2  0  0  0  0
 12 13  1  0  0  0  0
 12 15  1  0  0  0  0
 13 11  1  0  0  0  0
 14 11  1  6  0  0  0
 14  1  1  0  0  0  0
 15 10  1  0  0  0  0
 17 18  1  0  0  0  0
 19 20  1  0  0  0  0
 20 22  2  0  0  0  0
 21 24  2  0  0  0  0
 23 19  2  0  0  0  0
 23 21  1  0  0  0  0
 24 22  1  0  0  0  0
 25 19  1  0  0  0  0
 26 27  1  0  0  0  0
 26  8  1  0  0  0  0
 29 27  1  1  0  0  0
 30 29  1  0  0  0  0
 30 28  1  1  0  0  0
 31 32  1  0  0  0  0
 31 34  1  0  0  0  0
 32 33  1  0  0  0  0
 33 29  1  0  0  0  0
 34 30  1  0  0  0  0
M  END
>  <MODEL>
2

>  <REMARK>
 VINA RESULT:      -7.1      2.999      6.702
  Name = 
  6 active torsions:
  status: ('A' for Active; 'I' for Inactive)
    1  A    between atoms: N_1  and  C_24
    2  A    between atoms: C_3  and  C_13
    3  A    between atoms: C_3  and  C_17
    4  A    between atoms: C_4  and  C_15
    5  A    between atoms: C_12  and  C_28
    6  A    between atoms: C_17  and  C_29
                            x       y       z     vdW  Elec       q    Type
                         _______ _______ _______ _____ _____    ______ ____

>  <TORSDO>
F 6

$$$$
=
 OpenBabel11052418503D

 34 38  0  0  1  0  0  0  0  0999 V2000
  190.3870  175.5270  145.2900 C   0  0  1  0  0  3  0  0  0  0  0  0
  187.6360  176.3660  142.9860 N   0  0  0  0  0  2  0  0  0  0  0  0
  189.5240  174.1860  143.1640 C   0  0  0  0  0  2  0  0  0  0  0  0
  187.4530  175.1900  142.1780 C   0  0  0  0  0  3  0  0  0  0  0  0
  189.9700  176.9010  145.8370 C   0  0  0  0  0  2  0  0  0  0  0  0
  188.8930  176.5200  143.7080 C   0  0  1  0  0  3  0  0  0  0  0  0
  188.8790  177.4580  144.9070 C   0  0  1  0  0  3  0  0  0  0  0  0
  188.3230  174.1610  142.2380 C   0  0  0  0  0  0  0  0  0  0  0  0
  189.2960  175.1990  144.2820 C   0  0  2  0  0  3  0  0  0  0  0  0
  192.0230  174.7580  143.5350 N   0  0  0  0  0  0  0  0  0  0  0  0
  192.8890  175.4200  145.8080 C   0  0  0  0  0  0  0  0  0  0  0  0
  193.9880  173.5850  144.5100 C   0  0  0  0  0  2  0  0  0  0  0  0
  193.8270  174.3490  145.7370 N   0  0  0  0  0  2  0  0  0  0  0  0
  191.8290  175.5840  144.7430 C   0  0  2  0  0  3  0  0  0  0  0  0
  192.6410  173.4500  143.8050 C   0  0  0  0  0  2  0  0  0  0  0  0
  192.9350  176.4390  147.0860 S   0  0  0  0  0  0  0  0  0  0  0  0
  192.8350  175.5080  142.5860 C   0  0  0  0  0  2  0  0  0  0  0  0
  192.4600  176.8530  142.6040 O   0  0  0  0  0  1  0  0  0  0  0  0
  185.2650  178.2930  145.7820 C   0  0  0  0  0  0  0  0  0  0  0  0
  185.1410  177.6380  146.9670 N   0  0  0  0  0  0  0  0  0  0  0  0
  187.5500  177.5270  145.6120 C   0  0  0  0  0  0  0  0  0  0  0  0
  186.1740  176.9310  147.5010 C   0  0  0  0  0  3  0  0  0  0  0  0
  186.4720  178.2500  145.0820 C   0  0  0  0  0  3  0  0  0  0  0  0
  187.3980  176.8640  146.8320 C   0  0  0  0  0  3  0  0  0  0  0  0
  184.1150  179.0560  145.2320 C   0  0  0  0  0  1  0  0  0  0  0  0
  188.1100  172.9610  141.3820 C   0  0  0  0  0  2  0  0  0  0  0  0
  189.3810  172.6180  140.6210 C   0  0  0  0  0  2  0  0  0  0  0  0
  191.9640  173.4600  139.4030 O   0  0  0  0  0  1  0  0  0  0  0  0
  189.5580  173.5500  139.4340 C   0  0  1  0  0  3  0  0  0  0  0  0
  190.8250  173.1930  138.6430 C   0  0  1  0  0  3  0  0  0  0  0  0
  189.5950  173.8280  136.5630 C   0  0  0  0  0  2  0  0  0  0  0  0
  188.4680  174.2960  137.3660 N   0  0  0  0  0  2  0  0  0  0  0  0
  188.3360  173.4170  138.5270 C   0  0  0  0  0  2  0  0  0  0  0  0
  190.8940  173.9960  137.3460 C   0  0  0  0  0  2  0  0  0  0  0  0
  1  5  1  6  0  0  0
  4  8  2  0  0  0  0
  4  2  1  0  0  0  0
  6  2  1  1  0  0  0
  6  9  1  0  0  0  0
  6  7  1  0  0  0  0
  7 21  1  1  0  0  0
  7  5  1  0  0  0  0
  8  3  1  0  0  0  0
  9  3  1  6  0  0  0
  9  1  1  0  0  0  0
 10 15  1  0  0  0  0
 10 14  1  0  0  0  0
 11 16  2  0  0  0  0
 12 13  1  0  0  0  0
 13 11  1  0  0  0  0
 14  1  1  0  0  0  0
 14 11  1  1  0  0  0
 15 12  1  0  0  0  0
 17 18  1  0  0  0  0
 17 10  1  0  0  0  0
 19 20  1  0  0  0  0
 20 22  2  0  0  0  0
 21 24  2  0  0  0  0
 23 21  1  0  0  0  0
 23 19  2  0  0  0  0
 24 22  1  0  0  0  0
 25 19  1  0  0  0  0
 26  8  1  0  0  0  0
 27 26  1  0  0  0  0
 29 27  1  1  0  0  0
 30 28  1  1  0  0  0
 30 29  1  0  0  0  0
 31 34  1  0  0  0  0
 31 32  1  0  0  0  0
 32 33  1  0  0  0  0
 33 29  1  0  0  0  0
 34 30  1  0  0  0  0
M  END
>  <MODEL>
3

>  <REMARK>
 VINA RESULT:      -7.0      2.786      6.537
  Name = 
  6 active torsions:
  status: ('A' for Active; 'I' for Inactive)
    1  A    between atoms: N_1  and  C_24
    2  A    between atoms: C_3  and  C_13
    3  A    between atoms: C_3  and  C_17
    4  A    between atoms: C_4  and  C_15
    5  A    between atoms: C_12  and  C_28
    6  A    between atoms: C_17  and  C_29
                            x       y       z     vdW  Elec       q    Type
                         _______ _______ _______ _____ _____    ______ ____

>  <TORSDO>
F 6

$$$$
=
 OpenBabel11052418503D

 34 38  0  0  1  0  0  0  0  0999 V2000
  190.4010  175.4420  145.2410 C   0  0  1  0  0  3  0  0  0  0  0  0
  187.6340  176.2950  142.9620 N   0  0  0  0  0  2  0  0  0  0  0  0
  189.5050  174.1000  143.1290 C   0  0  0  0  0  2  0  0  0  0  0  0
  187.4320  175.1180  142.1610 C   0  0  0  0  0  3  0  0  0  0  0  0
  190.0010  176.8220  145.7870 C   0  0  0  0  0  2  0  0  0  0  0  0
  188.8990  176.4420  143.6700 C   0  0  1  0  0  3  0  0  0  0  0  0
  188.9060  177.3850  144.8660 C   0  0  1  0  0  3  0  0  0  0  0  0
  188.2940  174.0820  142.2160 C   0  0  0  0  0  0  0  0  0  0  0  0
  189.2970  175.1190  144.2450 C   0  0  2  0  0  3  0  0  0  0  0  0
  192.7450  174.5200  145.3340 N   0  0  0  0  0  0  0  0  0  0  0  0
  192.3900  176.8840  144.5300 C   0  0  0  0  0  0  0  0  0  0  0  0
  194.4400  176.2720  145.8280 C   0  0  0  0  0  2  0  0  0  0  0  0
  193.5750  177.2710  145.2220 N   0  0  0  0  0  2  0  0  0  0  0  0
  191.8380  175.4850  144.6790 C   0  0  2  0  0  3  0  0  0  0  0  0
  193.5980  175.1210  146.3710 C   0  0  0  0  0  2  0  0  0  0  0  0
  191.6000  177.9870  143.6170 S   0  0  0  0  0  0  0  0  0  0  0  0
  193.5690  173.8910  144.3100 C   0  0  0  0  0  2  0  0  0  0  0  0
  192.8070  173.6690  143.1620 O   0  0  0  0  0  1  0  0  0  0  0  0
  185.3110  178.2600  145.7790 C   0  0  0  0  0  0  0  0  0  0  0  0
  185.1910  177.6030  146.9640 N   0  0  0  0  0  0  0  0  0  0  0  0
  187.5850  177.4670  145.5840 C   0  0  0  0  0  0  0  0  0  0  0  0
  186.2210  176.8830  147.4860 C   0  0  0  0  0  3  0  0  0  0  0  0
  186.5100  178.2050  145.0670 C   0  0  0  0  0  3  0  0  0  0  0  0
  187.4370  176.8030  146.8040 C   0  0  0  0  0  3  0  0  0  0  0  0
  184.1650  179.0380  145.2430 C   0  0  0  0  0  1  0  0  0  0  0  0
  188.0630  172.8800  141.3670 C   0  0  0  0  0  2  0  0  0  0  0  0
  189.3190  172.5300  140.5850 C   0  0  0  0  0  2  0  0  0  0  0  0
  191.9120  173.3470  139.3720 O   0  0  0  0  0  1  0  0  0  0  0  0
  189.5100  173.4940  139.4260 C   0  0  1  0  0  3  0  0  0  0  0  0
  190.7610  173.1310  138.6140 C   0  0  1  0  0  3  0  0  0  0  0  0
  189.5310  173.8590  136.5650 C   0  0  0  0  0  2  0  0  0  0  0  0
  188.4220  174.3290  137.3920 N   0  0  0  0  0  2  0  0  0  0  0  0
  188.2770  173.4190  138.5260 C   0  0  0  0  0  2  0  0  0  0  0  0
  190.8400  173.9720  137.3410 C   0  0  0  0  0  2  0  0  0  0  0  0
  1  5  1  6  0  0  0
  4  8  2  0  0  0  0
  4  2  1  0  0  0  0
  6  2  1  1  0  0  0
  6  9  1  0  0  0  0
  6  7  1  0  0  0  0
  7 21  1  1  0  0  0
  7  5  1  0  0  0  0
  8  3  1  0  0  0  0
  9  3  1  6  0  0  0
  9  1  1  0  0  0  0
 10 15  1  0  0  0  0
 11 13  1  0  0  0  0
 12 15  1  0  0  0  0
 13 12  1  0  0  0  0
 14 11  1  1  0  0  0
 14  1  1  0  0  0  0
 14 10  1  0  0  0  0
 16 11  2  0  0  0  0
 17 10  1  0  0  0  0
 18 17  1  0  0  0  0
 19 20  1  0  0  0  0
 20 22  2  0  0  0  0
 21 24  2  0  0  0  0
 23 21  1  0  0  0  0
 23 19  2  0  0  0  0
 24 22  1  0  0  0  0
 25 19  1  0  0  0  0
 26  8  1  0  0  0  0
 27 26  1  0  0  0  0
 29 27  1  1  0  0  0
 30 28  1  1  0  0  0
 30 29  1  0  0  0  0
 31 34  1  0  0  0  0
 31 32  1  0  0  0  0
 32 33  1  0  0  0  0
 33 29  1  0  0  0  0
 34 30  1  0  0  0  0
M  END
>  <MODEL>
4

>  <REMARK>
 VINA RESULT:      -6.9      2.712      6.425
  Name = 
  6 active torsions:
  status: ('A' for Active; 'I' for Inactive)
    1  A    between atoms: N_1  and  C_24
    2  A    between atoms: C_3  and  C_13
    3  A    between atoms: C_3  and  C_17
    4  A    between atoms: C_4  and  C_15
    5  A    between atoms: C_12  and  C_28
    6  A    between atoms: C_17  and  C_29
                            x       y       z     vdW  Elec       q    Type
                         _______ _______ _______ _____ _____    ______ ____

>  <TORSDO>
F 6

$$$$
=
 OpenBabel11052418503D

 34 38  0  0  1  0  0  0  0  0999 V2000
  191.4160  175.3650  142.5580 C   0  0  1  0  0  3  0  0  0  0  0  0
  188.3860  173.3490  141.9800 N   0  0  0  0  0  0  0  0  0  0  0  0
  188.8760  176.0010  143.0170 C   0  0  0  0  0  2  0  0  0  0  0  0
  187.2880  174.2600  142.1720 C   0  0  0  0  0  3  0  0  0  0  0  0
  192.0420  174.0420  142.0930 C   0  0  0  0  0  2  0  0  0  0  0  0
  189.6880  173.7110  142.5260 C   0  0  1  0  0  3  0  0  0  0  0  0
  190.9000  173.0290  141.9060 C   0  0  1  0  0  3  0  0  0  0  0  0
  187.4900  175.5000  142.6600 C   0  0  2  0  0  3  0  0  0  0  0  0
  189.9300  175.1690  142.2940 C   0  0  2  0  0  3  0  0  0  0  0  0
  191.7150  174.4820  144.8990 N   0  0  0  0  0  0  0  0  0  0  0  0
  191.2030  176.9290  144.5700 C   0  0  0  0  0  0  0  0  0  0  0  0
  190.3220  175.6980  146.5620 C   0  0  0  0  0  2  0  0  0  0  0  0
  190.3630  176.8830  145.7210 N   0  0  0  0  0  2  0  0  0  0  0  0
  191.8170  175.6630  144.0180 C   0  0  2  0  0  3  0  0  0  0  0  0
  190.4820  174.4480  145.7020 C   0  0  0  0  0  2  0  0  0  0  0  0
  191.4510  178.3590  143.8170 S   0  0  0  0  0  0  0  0  0  0  0  0
  192.8820  174.4520  145.7710 C   0  0  0  0  0  2  0  0  0  0  0  0
  194.0220  174.8020  145.0450 O   0  0  0  0  0  1  0  0  0  0  0  0
  190.2340  171.0990  138.6880 C   0  0  0  0  0  0  0  0  0  0  0  0
  190.4390  172.0780  137.7670 N   0  0  0  0  0  0  0  0  0  0  0  0
  190.7230  172.6740  140.4530 C   0  0  0  0  0  0  0  0  0  0  0  0
  190.7820  173.3420  138.1360 C   0  0  0  0  0  3  0  0  0  0  0  0
  190.3730  171.3780  140.0480 C   0  0  0  0  0  3  0  0  0  0  0  0
  190.9300  173.6620  139.4870 C   0  0  0  0  0  3  0  0  0  0  0  0
  189.8640  169.7300  138.2460 C   0  0  0  0  0  1  0  0  0  0  0  0
  186.3310  176.4160  142.8550 C   0  0  0  0  0  2  0  0  0  0  0  0
  186.8100  177.8440  143.0610 C   0  0  0  0  0  2  0  0  0  0  0  0
  184.0380  178.9030  143.3080 O   0  0  0  0  0  1  0  0  0  0  0  0
  186.1790  178.4410  144.3080 C   0  0  1  0  0  3  0  0  0  0  0  0
  184.6650  178.1890  144.3290 C   0  0  1  0  0  3  0  0  0  0  0  0
  184.8320  177.9450  146.8100 C   0  0  0  0  0  2  0  0  0  0  0  0
  186.2390  178.3380  146.7590 N   0  0  0  0  0  2  0  0  0  0  0  0
  186.8220  177.7940  145.5340 C   0  0  0  0  0  2  0  0  0  0  0  0
  184.0670  178.6100  145.6700 C   0  0  0  0  0  2  0  0  0  0  0  0
  1  5  1  1  0  0  0
  1 14  1  0  0  0  0
  2  4  2  0  0  0  0
  4  8  1  0  0  0  0
  6  2  1  6  0  0  0
  7 21  1  6  0  0  0
  7  5  1  0  0  0  0
  7  6  1  0  0  0  0
  8 26  1  6  0  0  0
  8  3  1  0  0  0  0
  9  6  1  0  0  0  0
  9  1  1  0  0  0  0
  9  3  1  1  0  0  0
 10 15  1  0  0  0  0
 10 17  1  0  0  0  0
 11 13  1  0  0  0  0
 13 12  1  0  0  0  0
 14 11  1  1  0  0  0
 14 10  1  0  0  0  0
 15 12  1  0  0  0  0
 16 11  2  0  0  0  0
 18 17  1  0  0  0  0
 19 23  1  0  0  0  0
 20 22  1  0  0  0  0
 20 19  2  0  0  0  0
 22 24  2  0  0  0  0
 23 21  2  0  0  0  0
 24 21  1  0  0  0  0
 25 19  1  0  0  0  0
 26 27  1  0  0  0  0
 29 27  1  6  0  0  0
 29 30  1  0  0  0  0
 29 33  1  0  0  0  0
 30 28  1  6  0  0  0
 30 34  1  0  0  0  0
 32 31  1  0  0  0  0
 33 32  1  0  0  0  0
 34 31  1  0  0  0  0
M  END
>  <MODEL>
5

>  <REMARK>
 VINA RESULT:      -6.8      2.966      6.457
  Name = 
  6 active torsions:
  status: ('A' for Active; 'I' for Inactive)
    1  A    between atoms: N_1  and  C_24
    2  A    between atoms: C_3  and  C_13
    3  A    between atoms: C_3  and  C_17
    4  A    between atoms: C_4  and  C_15
    5  A    between atoms: C_12  and  C_28
    6  A    between atoms: C_17  and  C_29
                            x       y       z     vdW  Elec       q    Type
                         _______ _______ _______ _____ _____    ______ ____

>  <TORSDO>
F 6

$$$$
=
 OpenBabel11052418503D

 34 38  0  0  1  0  0  0  0  0999 V2000
  191.7320  174.8040  142.9440 C   0  0  1  0  0  3  0  0  0  0  0  0
  188.5490  173.3010  141.8530 N   0  0  0  0  0  0  0  0  0  0  0  0
  189.2590  175.7320  143.2440 C   0  0  0  0  0  2  0  0  0  0  0  0
  187.5620  174.3280  142.0530 C   0  0  0  0  0  3  0  0  0  0  0  0
  192.2310  173.4640  142.3810 C   0  0  0  0  0  2  0  0  0  0  0  0
  189.8210  173.4180  142.5550 C   0  0  1  0  0  3  0  0  0  0  0  0
  190.9950  172.6450  141.9700 C   0  0  1  0  0  3  0  0  0  0  0  0
  187.8670  175.4700  142.7040 C   0  0  2  0  0  3  0  0  0  0  0  0
  190.2700  174.8450  142.5240 C   0  0  2  0  0  3  0  0  0  0  0  0
  192.0440  176.2700  144.9700 N   0  0  0  0  0  0  0  0  0  0  0  0
  193.1520  174.0050  144.9150 C   0  0  0  0  0  0  0  0  0  0  0  0
  194.2580  175.9390  146.0550 C   0  0  0  0  0  2  0  0  0  0  0  0
  194.2930  174.5750  145.5540 N   0  0  0  0  0  2  0  0  0  0  0  0
  192.0100  174.8840  144.4600 C   0  0  2  0  0  3  0  0  0  0  0  0
  193.4050  176.8060  145.1340 C   0  0  0  0  0  2  0  0  0  0  0  0
  193.1170  172.3960  144.6280 S   0  0  0  0  0  0  0  0  0  0  0  0
  191.3330  176.3140  146.2410 C   0  0  0  0  0  2  0  0  0  0  0  0
  190.2690  177.2140  146.1560 O   0  0  0  0  0  1  0  0  0  0  0  0
  190.3170  171.2380  138.4940 C   0  0  0  0  0  0  0  0  0  0  0  0
  190.8660  172.2130  137.7220 N   0  0  0  0  0  0  0  0  0  0  0  0
  190.9310  172.4770  140.4750 C   0  0  0  0  0  0  0  0  0  0  0  0
  191.4470  173.3140  138.2720 C   0  0  0  0  0  3  0  0  0  0  0  0
  190.3390  171.3510  139.8850 C   0  0  0  0  0  3  0  0  0  0  0  0
  191.4900  173.4640  139.6600 C   0  0  0  0  0  3  0  0  0  0  0  0
  189.6930  170.0490  137.8570 C   0  0  0  0  0  1  0  0  0  0  0  0
  186.8200  176.5100  142.9020 C   0  0  0  0  0  2  0  0  0  0  0  0
  187.4270  177.7690  143.5030 C   0  0  0  0  0  2  0  0  0  0  0  0
  185.5700  180.0640  143.8880 O   0  0  0  0  0  1  0  0  0  0  0  0
  186.7090  178.1430  144.7880 C   0  0  1  0  0  3  0  0  0  0  0  0
  185.3650  178.8210  144.4870 C   0  0  1  0  0  3  0  0  0  0  0  0
  184.4420  177.6880  146.5130 C   0  0  0  0  0  2  0  0  0  0  0  0
  185.7730  177.1850  146.8440 N   0  0  0  0  0  2  0  0  0  0  0  0
  186.4680  176.8700  145.5980 C   0  0  0  0  0  2  0  0  0  0  0  0
  184.5590  179.0150  145.7700 C   0  0  0  0  0  2  0  0  0  0  0  0
  1  5  1  1  0  0  0
  1 14  1  0  0  0  0
  2  4  2  0  0  0  0
  4  8  1  0  0  0  0
  6  2  1  6  0  0  0
  7 21  1  6  0  0  0
  7  5  1  0  0  0  0
  7  6  1  0  0  0  0
  8 26  1  6  0  0  0
  8  3  1  0  0  0  0
  9  6  1  0  0  0  0
  9  1  1  0  0  0  0
  9  3  1  1  0  0  0
 10 15  1  0  0  0  0
 10 17  1  0  0  0  0
 11 13  1  0  0  0  0
 13 12  1  0  0  0  0
 14 11  1  6  0  0  0
 14 10  1  0  0  0  0
 15 12  1  0  0  0  0
 16 11  2  0  0  0  0
 18 17  1  0  0  0  0
 19 23  1  0  0  0  0
 20 22  1  0  0  0  0
 20 19  2  0  0  0  0
 22 24  2  0  0  0  0
 23 21  2  0  0  0  0
 24 21  1  0  0  0  0
 25 19  1  0  0  0  0
 26 27  1  0  0  0  0
 29 27  1  6  0  0  0
 29 33  1  0  0  0  0
 30 28  1  1  0  0  0
 30 29  1  0  0  0  0
 30 34  1  0  0  0  0
 31 32  1  0  0  0  0
 33 32  1  0  0  0  0
 34 31  1  0  0  0  0
M  END
>  <MODEL>
6

>  <REMARK>
 VINA RESULT:      -6.8      2.954      6.534
  Name = 
  6 active torsions:
  status: ('A' for Active; 'I' for Inactive)
    1  A    between atoms: N_1  and  C_24
    2  A    between atoms: C_3  and  C_13
    3  A    between atoms: C_3  and  C_17
    4  A    between atoms: C_4  and  C_15
    5  A    between atoms: C_12  and  C_28
    6  A    between atoms: C_17  and  C_29
                            x       y       z     vdW  Elec       q    Type
                         _______ _______ _______ _____ _____    ______ ____

>  <TORSDO>
F 6

$$$$
=
 OpenBabel11052418503D

 34 38  0  0  1  0  0  0  0  0999 V2000
  189.2840  175.4430  142.0060 C   0  0  1  0  0  3  0  0  0  0  0  0
  188.7600  176.3290  145.5440 N   0  0  0  0  0  2  0  0  0  0  0  0
  191.0940  175.8520  143.9090 C   0  0  0  0  0  2  0  0  0  0  0  0
  190.0670  176.6620  146.0440 C   0  0  0  0  0  3  0  0  0  0  0  0
  187.7510  175.3960  142.0840 C   0  0  0  0  0  2  0  0  0  0  0  0
  188.6670  175.5520  144.3150 C   0  0  1  0  0  3  0  0  0  0  0  0
  187.3540  175.6420  143.5500 C   0  0  1  0  0  3  0  0  0  0  0  0
  191.1730  176.4440  145.3030 C   0  0  0  0  0  0  0  0  0  0  0  0
  189.6910  176.0460  143.3420 C   0  0  2  0  0  3  0  0  0  0  0  0
  191.0900  173.7360  142.4260 N   0  0  0  0  0  0  0  0  0  0  0  0
  189.8830  173.7220  140.2120 C   0  0  0  0  0  0  0  0  0  0  0  0
  192.3030  173.1000  140.3500 C   0  0  0  0  0  2  0  0  0  0  0  0
  191.1180  173.4140  139.5690 N   0  0  0  0  0  2  0  0  0  0  0  0
  189.8470  174.0420  141.6890 C   0  0  2  0  0  3  0  0  0  0  0  0
  192.3130  173.9300  141.6300 C   0  0  0  0  0  2  0  0  0  0  0  0
  188.5120  173.7820  139.3240 S   0  0  0  0  0  0  0  0  0  0  0  0
  191.0180  172.3620  142.9060 C   0  0  0  0  0  2  0  0  0  0  0  0
  189.7340  172.0970  143.3840 O   0  0  0  0  0  1  0  0  0  0  0  0
  185.0750  178.4200  144.8190 C   0  0  0  0  0  0  0  0  0  0  0  0
  185.3600  179.4020  143.9220 N   0  0  0  0  0  0  0  0  0  0  0  0
  186.6470  176.9620  143.7050 C   0  0  0  0  0  0  0  0  0  0  0  0
  186.2620  179.2100  142.9210 C   0  0  0  0  0  3  0  0  0  0  0  0
  185.7120  177.1810  144.7280 C   0  0  0  0  0  3  0  0  0  0  0  0
  186.9200  177.9860  142.7950 C   0  0  0  0  0  3  0  0  0  0  0  0
  184.0830  178.6650  145.8980 C   0  0  0  0  0  1  0  0  0  0  0  0
  192.5130  176.7910  145.8530 C   0  0  0  0  0  2  0  0  0  0  0  0
  193.1390  175.5830  146.5320 C   0  0  0  0  0  2  0  0  0  0  0  0
  193.8170  172.8070  145.6980 O   0  0  0  0  0  1  0  0  0  0  0  0
  194.3890  175.1440  145.7880 C   0  0  1  0  0  3  0  0  0  0  0  0
  194.0980  173.9210  144.9060 C   0  0  1  0  0  3  0  0  0  0  0  0
  195.7080  174.8530  143.2390 C   0  0  0  0  0  2  0  0  0  0  0  0
  196.0650  175.9190  144.1720 N   0  0  0  0  0  2  0  0  0  0  0  0
  194.8640  176.3020  144.9130 C   0  0  0  0  0  2  0  0  0  0  0  0
  195.2950  173.6050  144.0120 C   0  0  0  0  0  2  0  0  0  0  0  0
  1  5  1  1  0  0  0
  1  9  1  0  0  0  0
  2  4  1  0  0  0  0
  3  8  1  0  0  0  0
  5  7  1  0  0  0  0
  6  2  1  1  0  0  0
  7 21  1  6  0  0  0
  7  6  1  0  0  0  0
  8 26  1  0  0  0  0
  8  4  2  0  0  0  0
  9  3  1  1  0  0  0
  9  6  1  0  0  0  0
 10 17  1  0  0  0  0
 12 15  1  0  0  0  0
 13 11  1  0  0  0  0
 13 12  1  0  0  0  0
 14 11  1  6  0  0  0
 14  1  1  0  0  0  0
 14 10  1  0  0  0  0
 15 10  1  0  0  0  0
 16 11  2  0  0  0  0
 17 18  1  0  0  0  0
 19 25  1  0  0  0  0
 20 19  2  0  0  0  0
 21 23  2  0  0  0  0
 22 20  1  0  0  0  0
 23 19  1  0  0  0  0
 24 22  2  0  0  0  0
 24 21  1  0  0  0  0
 26 27  1  0  0  0  0
 29 27  1  6  0  0  0
 30 28  1  1  0  0  0
 30 29  1  0  0  0  0
 31 34  1  0  0  0  0
 31 32  1  0  0  0  0
 32 33  1  0  0  0  0
 33 29  1  0  0  0  0
 34 30  1  0  0  0  0
M  END
>  <MODEL>
7

>  <REMARK>
 VINA RESULT:      -6.8      3.024      7.852
  Name = 
  6 active torsions:
  status: ('A' for Active; 'I' for Inactive)
    1  A    between atoms: N_1  and  C_24
    2  A    between atoms: C_3  and  C_13
    3  A    between atoms: C_3  and  C_17
    4  A    between atoms: C_4  and  C_15
    5  A    between atoms: C_12  and  C_28
    6  A    between atoms: C_17  and  C_29
                            x       y       z     vdW  Elec       q    Type
                         _______ _______ _______ _____ _____    ______ ____

>  <TORSDO>
F 6

$$$$
=
 OpenBabel11052418503D

 34 38  0  0  1  0  0  0  0  0999 V2000
  191.3300  173.5410  143.0220 C   0  0  1  0  0  3  0  0  0  0  0  0
  192.8460  175.9500  145.3620 N   0  0  0  0  0  0  0  0  0  0  0  0
  190.1530  175.0140  144.8940 C   0  0  0  0  0  2  0  0  0  0  0  0
  191.8030  176.2670  146.3000 C   0  0  0  0  0  3  0  0  0  0  0  0
  192.7870  173.5290  142.5340 C   0  0  0  0  0  2  0  0  0  0  0  0
  192.4710  175.3540  144.0860 C   0  0  1  0  0  3  0  0  0  0  0  0
  193.5570  174.5820  143.3490 C   0  0  1  0  0  3  0  0  0  0  0  0
  190.5370  175.8480  146.1010 C   0  0  2  0  0  3  0  0  0  0  0  0
  191.3930  174.3420  144.3130 C   0  0  2  0  0  3  0  0  0  0  0  0
  188.9770  174.0920  142.3080 N   0  0  0  0  0  0  0  0  0  0  0  0
  190.6920  173.5340  140.5450 C   0  0  0  0  0  0  0  0  0  0  0  0
  188.2960  172.8760  140.2470 C   0  0  0  0  0  2  0  0  0  0  0  0
  189.6860  172.8210  139.8280 N   0  0  0  0  0  2  0  0  0  0  0  0
  190.4010  174.0930  141.9190 C   0  0  2  0  0  3  0  0  0  0  0  0
  188.2180  172.9510  141.7690 C   0  0  0  0  0  2  0  0  0  0  0  0
  192.1810  173.6920  139.8900 S   0  0  0  0  0  0  0  0  0  0  0  0
  188.3750  175.3450  141.8700 C   0  0  0  0  0  2  0  0  0  0  0  0
  187.0800  175.4500  142.3810 O   0  0  0  0  0  1  0  0  0  0  0  0
  195.3950  172.0410  145.5150 C   0  0  0  0  0  0  0  0  0  0  0  0
  196.4380  172.7980  145.9510 N   0  0  0  0  0  0  0  0  0  0  0  0
  194.5660  173.9310  144.2580 C   0  0  0  0  0  0  0  0  0  0  0  0
  196.5800  174.0980  145.5740 C   0  0  0  0  0  3  0  0  0  0  0  0
  194.4390  172.5940  144.6610 C   0  0  0  0  0  3  0  0  0  0  0  0
  195.6450  174.6870  144.7210 C   0  0  0  0  0  3  0  0  0  0  0  0
  195.2720  170.6260  145.9490 C   0  0  0  0  0  1  0  0  0  0  0  0
  189.4770  176.2020  147.0870 C   0  0  0  0  0  2  0  0  0  0  0  0
  188.0970  176.0020  146.4800 C   0  0  0  0  0  2  0  0  0  0  0  0
  187.9570  178.0610  144.3340 O   0  0  0  0  0  1  0  0  0  0  0  0
  187.3050  177.2990  146.5230 C   0  0  1  0  0  3  0  0  0  0  0  0
  186.8550  177.7110  145.1140 C   0  0  1  0  0  3  0  0  0  0  0  0
  184.7520  178.5850  146.1400 C   0  0  0  0  0  2  0  0  0  0  0  0
  185.2840  178.3130  147.4740 N   0  0  0  0  0  2  0  0  0  0  0  0
  186.0790  177.0890  147.4100 C   0  0  0  0  0  2  0  0  0  0  0  0
  185.8960  178.8970  145.1800 C   0  0  0  0  0  2  0  0  0  0  0  0
  1  5  1  6  0  0  0
  1  9  1  0  0  0  0
  2  4  2  0  0  0  0
  3  8  1  0  0  0  0
  5  7  1  0  0  0  0
  6  9  1  0  0  0  0
  6  2  1  1  0  0  0
  7  6  1  0  0  0  0
  7 21  1  1  0  0  0
  8  4  1  0  0  0  0
  8 26  1  1  0  0  0
  9  3  1  6  0  0  0
 12 15  1  0  0  0  0
 13 12  1  0  0  0  0
 13 11  1  0  0  0  0
 14 11  1  6  0  0  0
 14 10  1  0  0  0  0
 14  1  1  0  0  0  0
 15 10  1  0  0  0  0
 16 11  2  0  0  0  0
 17 10  1  0  0  0  0
 17 18  1  0  0  0  0
 19 25  1  0  0  0  0
 19 20  1  0  0  0  0
 21 23  1  0  0  0  0
 21 24  2  0  0  0  0
 22 20  2  0  0  0  0
 23 19  2  0  0  0  0
 24 22  1  0  0  0  0
 27 26  1  0  0  0  0
 29 27  1  6  0  0  0
 29 33  1  0  0  0  0
 30 28  1  6  0  0  0
 30 34  1  0  0  0  0
 30 29  1  0  0  0  0
 31 32  1  0  0  0  0
 33 32  1  0  0  0  0
 34 31  1  0  0  0  0
M  END
>  <MODEL>
8

>  <REMARK>
 VINA RESULT:      -6.8      2.570      5.574
  Name = 
  6 active torsions:
  status: ('A' for Active; 'I' for Inactive)
    1  A    between atoms: N_1  and  C_24
    2  A    between atoms: C_3  and  C_13
    3  A    between atoms: C_3  and  C_17
    4  A    between atoms: C_4  and  C_15
    5  A    between atoms: C_12  and  C_28
    6  A    between atoms: C_17  and  C_29
                            x       y       z     vdW  Elec       q    Type
                         _______ _______ _______ _____ _____    ______ ____

>  <TORSDO>
F 6

$$$$
=
 OpenBabel11052418503D

 34 38  0  0  1  0  0  0  0  0999 V2000
  189.7380  173.9720  141.9000 C   0  0  1  0  0  3  0  0  0  0  0  0
  190.1970  177.3690  143.2530 N   0  0  0  0  0  2  0  0  0  0  0  0
  188.2650  176.1450  141.4880 C   0  0  0  0  0  2  0  0  0  0  0  0
  188.9930  178.0750  142.9060 C   0  0  0  0  0  3  0  0  0  0  0  0
  191.0620  173.7960  142.6610 C   0  0  0  0  0  2  0  0  0  0  0  0
  190.5160  176.1460  142.5260 C   0  0  1  0  0  3  0  0  0  0  0  0
  191.4660  175.1740  143.2110 C   0  0  1  0  0  3  0  0  0  0  0  0
  188.0780  177.5290  142.0800 C   0  0  0  0  0  0  0  0  0  0  0  0
  189.2630  175.3530  142.3260 C   0  0  2  0  0  3  0  0  0  0  0  0
  188.7190  173.4160  139.6630 N   0  0  0  0  0  0  0  0  0  0  0  0
  191.1540  172.8950  140.0620 C   0  0  0  0  0  0  0  0  0  0  0  0
  189.7530  171.4100  138.6170 C   0  0  0  0  0  2  0  0  0  0  0  0
  190.9910  171.6850  139.3270 N   0  0  0  0  0  2  0  0  0  0  0  0
  189.9590  173.7620  140.3870 C   0  0  2  0  0  3  0  0  0  0  0  0
  188.5710  171.9750  139.3990 C   0  0  0  0  0  2  0  0  0  0  0  0
  192.6410  173.3090  140.6020 S   0  0  0  0  0  0  0  0  0  0  0  0
  188.6900  174.1600  138.4100 C   0  0  0  0  0  2  0  0  0  0  0  0
  187.5340  174.9390  138.3520 O   0  0  0  0  0  1  0  0  0  0  0  0
  190.1870  174.9100  146.7910 C   0  0  0  0  0  0  0  0  0  0  0  0
  191.2950  175.2950  147.4780 N   0  0  0  0  0  0  0  0  0  0  0  0
  191.3870  175.2010  144.7140 C   0  0  0  0  0  0  0  0  0  0  0  0
  192.4460  175.6360  146.8370 C   0  0  0  0  0  3  0  0  0  0  0  0
  190.2110  174.8560  145.3960 C   0  0  0  0  0  3  0  0  0  0  0  0
  192.5120  175.5950  145.4430 C   0  0  0  0  0  3  0  0  0  0  0  0
  188.9470  174.5470  147.5250 C   0  0  0  0  0  1  0  0  0  0  0  0
  186.8460  178.2900  141.7330 C   0  0  0  0  0  2  0  0  0  0  0  0
  185.6590  177.7740  142.5300 C   0  0  0  0  0  2  0  0  0  0  0  0
  185.1950  180.2660  144.0920 O   0  0  0  0  0  1  0  0  0  0  0  0
  185.8960  177.9640  144.0190 C   0  0  1  0  0  3  0  0  0  0  0  0
  184.9200  178.9970  144.6010 C   0  0  1  0  0  3  0  0  0  0  0  0
  184.8640  177.6320  146.6920 C   0  0  0  0  0  2  0  0  0  0  0  0
  185.9060  176.7590  146.1560 N   0  0  0  0  0  2  0  0  0  0  0  0
  185.6930  176.6200  144.7170 C   0  0  0  0  0  2  0  0  0  0  0  0
  185.0240  179.0380  146.1230 C   0  0  0  0  0  2  0  0  0  0  0  0
  1  9  1  0  0  0  0
  1  5  1  1  0  0  0
  3  8  1  0  0  0  0
  4  2  1  0  0  0  0
  5  7  1  0  0  0  0
  6  7  1  0  0  0  0
  6  2  1  1  0  0  0
  7 21  1  1  0  0  0
  8  4  2  0  0  0  0
  9  3  1  6  0  0  0
  9  6  1  0  0  0  0
 10 14  1  0  0  0  0
 11 16  2  0  0  0  0
 12 13  1  0  0  0  0
 12 15  1  0  0  0  0
 13 11  1  0  0  0  0
 14 11  1  1  0  0  0
 14  1  1  0  0  0  0
 15 10  1  0  0  0  0
 17 10  1  0  0  0  0
 18 17  1  0  0  0  0
 19 20  1  0  0  0  0
 19 25  1  0  0  0  0
 21 23  1  0  0  0  0
 21 24  2  0  0  0  0
 22 20  2  0  0  0  0
 23 19  2  0  0  0  0
 24 22  1  0  0  0  0
 26  8  1  0  0  0  0
 26 27  1  0  0  0  0
 29 27  1  6  0  0  0
 29 30  1  0  0  0  0
 29 33  1  0  0  0  0
 30 28  1  6  0  0  0
 30 34  1  0  0  0  0
 32 31  1  0  0  0  0
 33 32  1  0  0  0  0
 34 31  1  0  0  0  0
M  END
>  <MODEL>
9

>  <REMARK>
 VINA RESULT:      -6.8      3.392      7.132
  Name = 
  6 active torsions:
  status: ('A' for Active; 'I' for Inactive)
    1  A    between atoms: N_1  and  C_24
    2  A    between atoms: C_3  and  C_13
    3  A    between atoms: C_3  and  C_17
    4  A    between atoms: C_4  and  C_15
    5  A    between atoms: C_12  and  C_28
    6  A    between atoms: C_17  and  C_29
                            x       y       z     vdW  Elec       q    Type
                         _______ _______ _______ _____ _____    ______ ____

>  <TORSDO>
F 6

$$$$
