=
 OpenBabel11052418313D

 27 30  0  0  1  0  0  0  0  0999 V2000
  187.5200  176.5000  142.8680 N   0  0  0  0  0  2  0  0  0  0  0  0
  188.8730  176.8370  144.9480 C   0  0  2  0  0  3  0  0  0  0  0  0
  189.7420  174.7890  143.8910 C   0  0  0  0  0  2  0  0  0  0  0  0
  189.3890  173.7160  140.2820 C   0  0  0  0  0  3  0  0  0  0  0  0
  188.3780  174.5580  139.8160 C   0  0  0  0  0  0  0  0  0  0  0  0
  187.5020  176.4480  144.3260 C   0  0  1  0  0  3  0  0  0  0  0  0
  188.1700  175.5460  142.0230 C   0  0  0  0  0  0  0  0  0  0  0  0
  190.0370  176.1620  144.3490 N   0  0  1  0  0  0  0  0  0  0  0  0
  189.8050  173.7960  141.6130 C   0  0  0  0  0  3  0  0  0  0  0  0
  187.9810  174.4880  138.5220 F   0  0  0  0  0  0  0  0  0  0  0  0
  187.7750  175.4700  140.6830 C   0  0  0  0  0  3  0  0  0  0  0  0
  189.2090  174.7110  142.4880 C   0  0  0  0  0  0  0  0  0  0  0  0
  184.4990  177.7000  146.2970 C   0  0  0  0  0  3  0  0  0  0  0  0
  186.3840  177.3120  144.8200 C   0  0  0  0  0  0  0  0  0  0  0  0
  186.2180  178.5930  144.2790 C   0  0  0  0  0  3  0  0  0  0  0  0
  185.1900  179.4200  144.7400 C   0  0  0  0  0  3  0  0  0  0  0  0
  184.3300  178.9750  145.7470 C   0  0  0  0  0  3  0  0  0  0  0  0
  185.5250  176.8710  145.8380 C   0  0  0  0  0  3  0  0  0  0  0  0
  191.7030  177.8980  143.9520 C   0  0  0  0  0  2  0  0  0  0  0  0
  192.1170  176.6670  143.1790 C   0  0  0  0  0  2  0  0  0  0  0  0
  190.6450  177.0100  143.3210 C   0  0  0  0  0  3  0  0  0  0  0  0
  188.9460  176.6670  146.4760 C   0  0  2  0  0  3  0  0  0  0  0  0
  189.0040  177.9880  147.2370 C   0  0  0  0  0  1  0  0  0  0  0  0
  189.6560  174.5080  147.2440 O   0  0  0  0  0  0  0  0  0  0  0  0
  189.9910  175.6800  146.9240 C   0  0  0  0  0  0  0  0  0  0  0  0
  192.3890  175.1070  146.8090 C   0  0  0  0  0  1  0  0  0  0  0  0
  191.3380  176.0390  147.0100 O   0  0  0  0  0  0  0  0  0  0  0  0
  1  6  1  0  0  0  0
  2 22  1  1  0  0  0
  3  8  1  0  0  0  0
  4  9  1  0  0  0  0
  5  4  2  0  0  0  0
  5 11  1  0  0  0  0
  6 14  1  1  0  0  0
  6  2  1  0  0  0  0
  7 12  1  0  0  0  0
  7  1  1  0  0  0  0
  8 21  1  6  0  0  0
  8  2  1  0  0  0  0
  9 12  2  0  0  0  0
 10  5  1  0  0  0  0
 11  7  2  0  0  0  0
 12  3  1  0  0  0  0
 14 18  2  0  0  0  0
 15 16  2  0  0  0  0
 15 14  1  0  0  0  0
 16 17  1  0  0  0  0
 17 13  2  0  0  0  0
 18 13  1  0  0  0  0
 20 21  1  0  0  0  0
 20 19  1  0  0  0  0
 21 19  1  0  0  0  0
 22 25  1  0  0  0  0
 22 23  1  1  0  0  0
 25 27  1  0  0  0  0
 25 24  2  0  0  0  0
 26 27  1  0  0  0  0
M  END
>  <MODEL>
1

>  <REMARK>
 VINA RESULT:      -7.1      0.000      0.000
  Name = 
  5 active torsions:
  status: ('A' for Active; 'I' for Inactive)
    1  A    between atoms: C_2  and  C_6
    2  A    between atoms: C_6  and  C_17
    3  A    between atoms: C_9  and  C_15
    4  A    between atoms: C_14  and  N_19
    5  A    between atoms: O_16  and  C_17
                            x       y       z     vdW  Elec       q    Type
                         _______ _______ _______ _____ _____    ______ ____

>  <TORSDO>
F 5

$$$$
=
 OpenBabel11052418313D

 27 30  0  0  1  0  0  0  0  0999 V2000
  189.3750  176.6920  145.5390 N   0  0  0  0  0  2  0  0  0  0  0  0
  188.2440  175.9630  143.4260 C   0  0  2  0  0  3  0  0  0  0  0  0
  190.5980  176.3790  142.8330 C   0  0  0  0  0  2  0  0  0  0  0  0
  193.5860  176.4860  145.1480 C   0  0  0  0  0  3  0  0  0  0  0  0
  192.9890  176.5870  146.4050 C   0  0  0  0  0  0  0  0  0  0  0  0
  188.4280  177.0760  144.4970 C   0  0  1  0  0  3  0  0  0  0  0  0
  190.7940  176.6240  145.3700 C   0  0  0  0  0  0  0  0  0  0  0  0
  189.4980  175.3960  142.9030 N   0  0  1  0  0  0  0  0  0  0  0  0
  192.7920  176.4370  144.0010 C   0  0  0  0  0  3  0  0  0  0  0  0
  193.7580  176.6250  147.5200 F   0  0  0  0  0  0  0  0  0  0  0  0
  191.5980  176.6530  146.5140 C   0  0  0  0  0  3  0  0  0  0  0  0
  191.3970  176.4970  144.1010 C   0  0  0  0  0  0  0  0  0  0  0  0
  185.4740  179.1340  145.7250 C   0  0  0  0  0  3  0  0  0  0  0  0
  187.1370  177.4650  145.1460 C   0  0  0  0  0  0  0  0  0  0  0  0
  186.3480  176.4770  145.7480 C   0  0  0  0  0  3  0  0  0  0  0  0
  185.1300  176.8190  146.3430 C   0  0  0  0  0  3  0  0  0  0  0  0
  184.6940  178.1470  146.3340 C   0  0  0  0  0  3  0  0  0  0  0  0
  186.6910  178.7950  145.1280 C   0  0  0  0  0  3  0  0  0  0  0  0
  189.3290  172.9640  142.8650 C   0  0  0  0  0  2  0  0  0  0  0  0
  190.7930  173.3330  142.7890 C   0  0  0  0  0  2  0  0  0  0  0  0
  189.8450  174.1710  143.6270 C   0  0  0  0  0  3  0  0  0  0  0  0
  187.3590  176.3720  142.2340 C   0  0  2  0  0  3  0  0  0  0  0  0
  187.5100  175.4620  141.0200 C   0  0  0  0  0  1  0  0  0  0  0  0
  188.5560  178.3410  141.5660 O   0  0  0  0  0  0  0  0  0  0  0  0
  187.4490  177.8350  141.8910 C   0  0  0  0  0  0  0  0  0  0  0  0
  185.0000  178.1490  141.8870 C   0  0  0  0  0  1  0  0  0  0  0  0
  186.3230  178.6610  141.9390 O   0  0  0  0  0  0  0  0  0  0  0  0
  2 22  1  6  0  0  0
  2  6  1  0  0  0  0
  3  8  1  0  0  0  0
  3 12  1  0  0  0  0
  4  5  1  0  0  0  0
  5 11  2  0  0  0  0
  5 10  1  0  0  0  0
  6 14  1  1  0  0  0
  6  1  1  0  0  0  0
  7  1  1  0  0  0  0
  7 11  1  0  0  0  0
  8  2  1  0  0  0  0
  8 21  1  1  0  0  0
  9 12  1  0  0  0  0
  9  4  2  0  0  0  0
 12  7  2  0  0  0  0
 13 17  1  0  0  0  0
 14 15  2  0  0  0  0
 15 16  1  0  0  0  0
 17 16  2  0  0  0  0
 18 14  1  0  0  0  0
 18 13  2  0  0  0  0
 19 21  1  0  0  0  0
 20 19  1  0  0  0  0
 20 21  1  0  0  0  0
 22 23  1  6  0  0  0
 24 25  2  0  0  0  0
 25 27  1  0  0  0  0
 25 22  1  0  0  0  0
 26 27  1  0  0  0  0
M  END
>  <MODEL>
2

>  <REMARK>
 VINA RESULT:      -6.8      3.155      5.231
  Name = 
  5 active torsions:
  status: ('A' for Active; 'I' for Inactive)
    1  A    between atoms: C_2  and  C_6
    2  A    between atoms: C_6  and  C_17
    3  A    between atoms: C_9  and  C_15
    4  A    between atoms: C_14  and  N_19
    5  A    between atoms: O_16  and  C_17
                            x       y       z     vdW  Elec       q    Type
                         _______ _______ _______ _____ _____    ______ ____

>  <TORSDO>
F 5

$$$$
=
 OpenBabel11052418313D

 27 30  0  0  1  0  0  0  0  0999 V2000
  188.9300  177.1840  145.6300 N   0  0  0  0  0  2  0  0  0  0  0  0
  189.2150  176.0700  143.4050 C   0  0  2  0  0  3  0  0  0  0  0  0
  186.8100  175.9590  143.9230 C   0  0  0  0  0  2  0  0  0  0  0  0
  184.8610  178.1060  146.3490 C   0  0  0  0  0  3  0  0  0  0  0  0
  185.8730  178.7000  147.1050 C   0  0  0  0  0  0  0  0  0  0  0  0
  189.4400  176.0030  144.9420 C   0  0  1  0  0  3  0  0  0  0  0  0
  187.5460  177.4700  145.8490 C   0  0  0  0  0  0  0  0  0  0  0  0
  187.8520  176.4460  142.9960 N   0  0  1  0  0  0  0  0  0  0  0  0
  185.1870  177.2060  145.3320 C   0  0  0  0  0  3  0  0  0  0  0  0
  185.5580  179.5810  148.0850 F   0  0  0  0  0  0  0  0  0  0  0  0
  187.2090  178.3850  146.8520 C   0  0  0  0  0  3  0  0  0  0  0  0
  186.5230  176.8880  145.0690 C   0  0  0  0  0  0  0  0  0  0  0  0
  192.6880  174.5000  146.2340 C   0  0  0  0  0  3  0  0  0  0  0  0
  190.8820  175.8260  145.3030 C   0  0  0  0  0  0  0  0  0  0  0  0
  191.7960  176.8380  144.9830 C   0  0  0  0  0  3  0  0  0  0  0  0
  193.1500  176.6830  145.2960 C   0  0  0  0  0  3  0  0  0  0  0  0
  193.5960  175.5170  145.9220 C   0  0  0  0  0  3  0  0  0  0  0  0
  191.3340  174.6520  145.9220 C   0  0  0  0  0  3  0  0  0  0  0  0
  187.9150  178.1350  141.2380 C   0  0  0  0  0  2  0  0  0  0  0  0
  186.5510  178.1870  141.8880 C   0  0  0  0  0  2  0  0  0  0  0  0
  187.7790  177.8850  142.7290 C   0  0  0  0  0  3  0  0  0  0  0  0
  189.6130  174.7890  142.6500 C   0  0  2  0  0  3  0  0  0  0  0  0
  191.0040  174.8520  142.0270 C   0  0  0  0  0  1  0  0  0  0  0  0
  187.7920  173.3570  142.0260 O   0  0  0  0  0  0  0  0  0  0  0  0
  188.5580  174.3000  141.6940 C   0  0  0  0  0  0  0  0  0  0  0  0
  188.5300  174.1010  139.2330 C   0  0  0  0  0  1  0  0  0  0  0  0
  188.4140  174.8640  140.4240 O   0  0  0  0  0  0  0  0  0  0  0  0
  1  7  1  0  0  0  0
  2 22  1  6  0  0  0
  2  6  1  0  0  0  0
  3 12  1  0  0  0  0
  4  5  1  0  0  0  0
  5 10  1  0  0  0  0
  6 14  1  6  0  0  0
  6  1  1  0  0  0  0
  7 11  1  0  0  0  0
  8 21  1  1  0  0  0
  8  2  1  0  0  0  0
  8  3  1  0  0  0  0
  9  4  2  0  0  0  0
 11  5  2  0  0  0  0
 12  9  1  0  0  0  0
 12  7  2  0  0  0  0
 14 18  2  0  0  0  0
 15 16  2  0  0  0  0
 15 14  1  0  0  0  0
 16 17  1  0  0  0  0
 17 13  2  0  0  0  0
 18 13  1  0  0  0  0
 19 20  1  0  0  0  0
 19 21  1  0  0  0  0
 20 21  1  0  0  0  0
 22 23  1  6  0  0  0
 25 24  2  0  0  0  0
 25 22  1  0  0  0  0
 26 27  1  0  0  0  0
 27 25  1  0  0  0  0
M  END
>  <MODEL>
3

>  <REMARK>
 VINA RESULT:      -6.5      3.110      6.381
  Name = 
  5 active torsions:
  status: ('A' for Active; 'I' for Inactive)
    1  A    between atoms: C_2  and  C_6
    2  A    between atoms: C_6  and  C_17
    3  A    between atoms: C_9  and  C_15
    4  A    between atoms: C_14  and  N_19
    5  A    between atoms: O_16  and  C_17
                            x       y       z     vdW  Elec       q    Type
                         _______ _______ _______ _____ _____    ______ ____

>  <TORSDO>
F 5

$$$$
=
 OpenBabel11052418313D

 27 30  0  0  1  0  0  0  0  0999 V2000
  188.7050  175.1350  142.8380 N   0  0  0  0  0  2  0  0  0  0  0  0
  189.3760  176.4870  144.8370 C   0  0  2  0  0  3  0  0  0  0  0  0
  190.0860  174.1760  145.3050 C   0  0  0  0  0  2  0  0  0  0  0  0
  190.6680  171.3840  142.8220 C   0  0  0  0  0  3  0  0  0  0  0  0
  190.0540  171.8740  141.6690 C   0  0  0  0  0  0  0  0  0  0  0  0
  188.2200  175.8520  144.0130 C   0  0  1  0  0  3  0  0  0  0  0  0
  189.3740  173.8710  142.8680 C   0  0  0  0  0  0  0  0  0  0  0  0
  190.5010  175.5820  145.1220 N   0  0  1  0  0  0  0  0  0  0  0  0
  190.6520  172.1400  143.9960 C   0  0  0  0  0  3  0  0  0  0  0  0
  190.0770  171.1460  140.5260 F   0  0  0  0  0  0  0  0  0  0  0  0
  189.4120  173.1140  141.6930 C   0  0  0  0  0  3  0  0  0  0  0  0
  190.0160  173.3860  144.0280 C   0  0  0  0  0  0  0  0  0  0  0  0
  186.6390  178.9560  142.4830 C   0  0  0  0  0  3  0  0  0  0  0  0
  187.2090  176.8630  143.5710 C   0  0  0  0  0  0  0  0  0  0  0  0
  185.8500  176.6160  143.7990 C   0  0  0  0  0  3  0  0  0  0  0  0
  184.8890  177.5410  143.3770 C   0  0  0  0  0  3  0  0  0  0  0  0
  185.2830  178.7110  142.7220 C   0  0  0  0  0  3  0  0  0  0  0  0
  187.6010  178.0330  142.9030 C   0  0  0  0  0  3  0  0  0  0  0  0
  192.6120  176.7150  144.6710 C   0  0  0  0  0  2  0  0  0  0  0  0
  192.8740  175.2260  144.6810 C   0  0  0  0  0  2  0  0  0  0  0  0
  191.5640  175.7600  144.1300 C   0  0  0  0  0  3  0  0  0  0  0  0
  188.9280  177.1380  146.1580 C   0  0  2  0  0  3  0  0  0  0  0  0
  190.0860  177.5590  147.0560 C   0  0  0  0  0  1  0  0  0  0  0  0
  188.1660  175.2770  147.4660 O   0  0  0  0  0  0  0  0  0  0  0  0
  187.8680  176.3550  146.8870 C   0  0  0  0  0  0  0  0  0  0  0  0
  186.1890  178.1270  147.2530 C   0  0  0  0  0  1  0  0  0  0  0  0
  186.5420  176.7920  146.9250 O   0  0  0  0  0  0  0  0  0  0  0  0
  1  7  1  0  0  0  0
  1  6  1  0  0  0  0
  2  8  1  0  0  0  0
  2 22  1  1  0  0  0
  4  9  1  0  0  0  0
  5 11  1  0  0  0  0
  5  4  2  0  0  0  0
  6 14  1  6  0  0  0
  6  2  1  0  0  0  0
  7 12  1  0  0  0  0
  8 21  1  6  0  0  0
  8  3  1  0  0  0  0
  9 12  2  0  0  0  0
 10  5  1  0  0  0  0
 11  7  2  0  0  0  0
 12  3  1  0  0  0  0
 13 17  2  0  0  0  0
 13 18  1  0  0  0  0
 14 15  1  0  0  0  0
 16 15  2  0  0  0  0
 17 16  1  0  0  0  0
 18 14  2  0  0  0  0
 19 20  1  0  0  0  0
 21 19  1  0  0  0  0
 21 20  1  0  0  0  0
 22 25  1  0  0  0  0
 22 23  1  1  0  0  0
 25 27  1  0  0  0  0
 25 24  2  0  0  0  0
 27 26  1  0  0  0  0
M  END
>  <MODEL>
4

>  <REMARK>
 VINA RESULT:      -6.4      1.989      2.930
  Name = 
  5 active torsions:
  status: ('A' for Active; 'I' for Inactive)
    1  A    between atoms: C_2  and  C_6
    2  A    between atoms: C_6  and  C_17
    3  A    between atoms: C_9  and  C_15
    4  A    between atoms: C_14  and  N_19
    5  A    between atoms: O_16  and  C_17
                            x       y       z     vdW  Elec       q    Type
                         _______ _______ _______ _____ _____    ______ ____

>  <TORSDO>
F 5

$$$$
=
 OpenBabel11052418313D

 27 30  0  0  1  0  0  0  0  0999 V2000
  190.0420  176.5470  145.5890 N   0  0  0  0  0  2  0  0  0  0  0  0
  188.7720  175.3110  143.8190 C   0  0  2  0  0  3  0  0  0  0  0  0
  191.0780  175.5260  142.9820 C   0  0  0  0  0  2  0  0  0  0  0  0
  194.2170  176.1880  144.9840 C   0  0  0  0  0  3  0  0  0  0  0  0
  193.7070  176.6200  146.2090 C   0  0  0  0  0  0  0  0  0  0  0  0
  189.0250  176.6600  144.5490 C   0  0  1  0  0  3  0  0  0  0  0  0
  191.4460  176.4180  145.3500 C   0  0  0  0  0  0  0  0  0  0  0  0
  189.9890  174.6100  143.3780 N   0  0  1  0  0  0  0  0  0  0  0  0
  193.3460  175.8540  143.9440 C   0  0  0  0  0  3  0  0  0  0  0  0
  194.5500  176.9350  147.2210 F   0  0  0  0  0  0  0  0  0  0  0  0
  192.3270  176.7310  146.3900 C   0  0  0  0  0  3  0  0  0  0  0  0
  191.9620  175.9580  144.1190 C   0  0  0  0  0  0  0  0  0  0  0  0
  185.9590  178.8270  145.1670 C   0  0  0  0  0  3  0  0  0  0  0  0
  187.7790  177.2230  145.1600 C   0  0  0  0  0  0  0  0  0  0  0  0
  187.2370  176.6090  146.2960 C   0  0  0  0  0  3  0  0  0  0  0  0
  186.0640  177.1090  146.8700 C   0  0  0  0  0  3  0  0  0  0  0  0
  185.4260  178.2180  146.3080 C   0  0  0  0  0  3  0  0  0  0  0  0
  187.1310  178.3290  144.5910 C   0  0  0  0  0  3  0  0  0  0  0  0
  189.7950  172.2620  144.0060 C   0  0  0  0  0  2  0  0  0  0  0  0
  191.2500  172.5480  143.7080 C   0  0  0  0  0  2  0  0  0  0  0  0
  190.3900  173.6100  144.3700 C   0  0  0  0  0  3  0  0  0  0  0  0
  187.8060  175.4080  142.6240 C   0  0  2  0  0  3  0  0  0  0  0  0
  186.3470  175.5880  143.0290 C   0  0  0  0  0  1  0  0  0  0  0  0
  187.5220  173.1780  141.7870 O   0  0  0  0  0  0  0  0  0  0  0  0
  188.0060  174.3250  141.5970 C   0  0  0  0  0  0  0  0  0  0  0  0
  189.6870  173.6300  139.9270 C   0  0  0  0  0  1  0  0  0  0  0  0
  188.7380  174.5580  140.4310 O   0  0  0  0  0  0  0  0  0  0  0  0
  2 22  1  6  0  0  0
  2  6  1  0  0  0  0
  3  8  1  0  0  0  0
  3 12  1  0  0  0  0
  4  5  1  0  0  0  0
  5 11  2  0  0  0  0
  5 10  1  0  0  0  0
  6 14  1  1  0  0  0
  6  1  1  0  0  0  0
  7  1  1  0  0  0  0
  7 11  1  0  0  0  0
  8  2  1  0  0  0  0
  8 21  1  1  0  0  0
  9 12  1  0  0  0  0
  9  4  2  0  0  0  0
 12  7  2  0  0  0  0
 13 17  1  0  0  0  0
 14 15  2  0  0  0  0
 15 16  1  0  0  0  0
 17 16  2  0  0  0  0
 18 14  1  0  0  0  0
 18 13  2  0  0  0  0
 19 21  1  0  0  0  0
 20 19  1  0  0  0  0
 20 21  1  0  0  0  0
 22 23  1  1  0  0  0
 25 24  2  0  0  0  0
 25 22  1  0  0  0  0
 26 27  1  0  0  0  0
 27 25  1  0  0  0  0
M  END
>  <MODEL>
5

>  <REMARK>
 VINA RESULT:      -6.4      3.169      5.150
  Name = 
  5 active torsions:
  status: ('A' for Active; 'I' for Inactive)
    1  A    between atoms: C_2  and  C_6
    2  A    between atoms: C_6  and  C_17
    3  A    between atoms: C_9  and  C_15
    4  A    between atoms: C_14  and  N_19
    5  A    between atoms: O_16  and  C_17
                            x       y       z     vdW  Elec       q    Type
                         _______ _______ _______ _____ _____    ______ ____

>  <TORSDO>
F 5

$$$$
=
 OpenBabel11052418313D

 27 30  0  0  1  0  0  0  0  0999 V2000
  188.3580  174.9540  142.7860 N   0  0  0  0  0  2  0  0  0  0  0  0
  190.4110  174.7230  144.2020 C   0  0  2  0  0  3  0  0  0  0  0  0
  189.6320  177.0400  144.4990 C   0  0  0  0  0  2  0  0  0  0  0  0
  186.1760  178.4250  143.8410 C   0  0  0  0  0  3  0  0  0  0  0  0
  185.5880  177.4150  143.0780 C   0  0  0  0  0  0  0  0  0  0  0  0
  189.8110  174.8170  142.7700 C   0  0  1  0  0  3  0  0  0  0  0  0
  187.6510  176.1400  143.1570 C   0  0  0  0  0  0  0  0  0  0  0  0
  189.9250  175.7440  145.1440 N   0  0  1  0  0  0  0  0  0  0  0  0
  187.4960  178.2910  144.2770 C   0  0  0  0  0  3  0  0  0  0  0  0
  184.3040  177.5400  142.6630 F   0  0  0  0  0  0  0  0  0  0  0  0
  186.3230  176.2770  142.7410 C   0  0  0  0  0  3  0  0  0  0  0  0
  188.2380  177.1510  143.9480 C   0  0  0  0  0  0  0  0  0  0  0  0
  191.2180  172.6890  139.9480 C   0  0  0  0  0  3  0  0  0  0  0  0
  190.1700  173.6390  141.9200 C   0  0  0  0  0  0  0  0  0  0  0  0
  189.8250  172.3530  142.3510 C   0  0  0  0  0  3  0  0  0  0  0  0
  190.1680  171.2390  141.5790 C   0  0  0  0  0  3  0  0  0  0  0  0
  190.8620  171.4060  140.3770 C   0  0  0  0  0  3  0  0  0  0  0  0
  190.8760  173.8040  140.7190 C   0  0  0  0  0  3  0  0  0  0  0  0
  189.3300  174.7560  147.2920 C   0  0  0  0  0  2  0  0  0  0  0  0
  188.6130  176.0810  147.1720 C   0  0  0  0  0  2  0  0  0  0  0  0
  188.8150  175.2170  145.9400 C   0  0  0  0  0  3  0  0  0  0  0  0
  191.9500  174.7140  144.2440 C   0  0  2  0  0  3  0  0  0  0  0  0
  192.5260  173.9150  145.4080 C   0  0  0  0  0  1  0  0  0  0  0  0
  192.6750  176.6110  142.9660 O   0  0  0  0  0  0  0  0  0  0  0  0
  192.5640  176.0820  144.1040 C   0  0  0  0  0  0  0  0  0  0  0  0
  194.4040  177.1140  145.3870 C   0  0  0  0  0  1  0  0  0  0  0  0
  193.0340  176.7820  145.2170 O   0  0  0  0  0  0  0  0  0  0  0  0
  1  7  1  0  0  0  0
  2 22  1  6  0  0  0
  2  8  1  0  0  0  0
  3  8  1  0  0  0  0
  4  9  1  0  0  0  0
  5  4  2  0  0  0  0
  6 14  1  6  0  0  0
  6  1  1  0  0  0  0
  6  2  1  0  0  0  0
  7 12  1  0  0  0  0
  8 21  1  6  0  0  0
 10  5  1  0  0  0  0
 11  5  1  0  0  0  0
 11  7  2  0  0  0  0
 12  9  2  0  0  0  0
 12  3  1  0  0  0  0
 13 17  2  0  0  0  0
 13 18  1  0  0  0  0
 14 15  1  0  0  0  0
 16 15  2  0  0  0  0
 17 16  1  0  0  0  0
 18 14  2  0  0  0  0
 20 19  1  0  0  0  0
 21 20  1  0  0  0  0
 21 19  1  0  0  0  0
 22 23  1  1  0  0  0
 24 25  2  0  0  0  0
 25 22  1  0  0  0  0
 25 27  1  0  0  0  0
 27 26  1  0  0  0  0
M  END
>  <MODEL>
6

>  <REMARK>
 VINA RESULT:      -6.2      2.271      5.673
  Name = 
  5 active torsions:
  status: ('A' for Active; 'I' for Inactive)
    1  A    between atoms: C_2  and  C_6
    2  A    between atoms: C_6  and  C_17
    3  A    between atoms: C_9  and  C_15
    4  A    between atoms: C_14  and  N_19
    5  A    between atoms: O_16  and  C_17
                            x       y       z     vdW  Elec       q    Type
                         _______ _______ _______ _____ _____    ______ ____

>  <TORSDO>
F 5

$$$$
=
 OpenBabel11052418313D

 27 30  0  0  1  0  0  0  0  0999 V2000
  187.6840  176.4440  143.0610 N   0  0  0  0  0  2  0  0  0  0  0  0
  189.0520  176.7020  145.1430 C   0  0  2  0  0  3  0  0  0  0  0  0
  189.8730  174.6620  144.0330 C   0  0  0  0  0  2  0  0  0  0  0  0
  189.4830  173.6840  140.4010 C   0  0  0  0  0  3  0  0  0  0  0  0
  188.4880  174.5570  139.9600 C   0  0  0  0  0  0  0  0  0  0  0  0
  187.6710  176.3570  144.5170 C   0  0  1  0  0  3  0  0  0  0  0  0
  188.3100  175.4970  142.1910 C   0  0  0  0  0  0  0  0  0  0  0  0
  190.1990  176.0170  144.5230 N   0  0  1  0  0  0  0  0  0  0  0  0
  189.9060  173.7230  141.7320 C   0  0  0  0  0  3  0  0  0  0  0  0
  188.0850  174.5270  138.6670 F   0  0  0  0  0  0  0  0  0  0  0  0
  187.9080  175.4620  140.8510 C   0  0  0  0  0  3  0  0  0  0  0  0
  189.3320  174.6290  142.6310 C   0  0  0  0  0  0  0  0  0  0  0  0
  185.4640  179.3860  145.1770 C   0  0  0  0  0  3  0  0  0  0  0  0
  186.5730  177.2320  145.0370 C   0  0  0  0  0  0  0  0  0  0  0  0
  185.5780  176.6720  145.8480 C   0  0  0  0  0  3  0  0  0  0  0  0
  184.5350  177.4700  146.3290 C   0  0  0  0  0  3  0  0  0  0  0  0
  184.4780  178.8260  145.9960 C   0  0  0  0  0  3  0  0  0  0  0  0
  186.5080  178.5910  144.6950 C   0  0  0  0  0  3  0  0  0  0  0  0
  192.0070  177.6030  144.1200 C   0  0  0  0  0  2  0  0  0  0  0  0
  192.2340  176.3990  143.2340 C   0  0  0  0  0  2  0  0  0  0  0  0
  190.8200  176.8770  143.5130 C   0  0  0  0  0  3  0  0  0  0  0  0
  189.1270  176.4940  146.6660 C   0  0  2  0  0  3  0  0  0  0  0  0
  188.3350  175.2870  147.1590 C   0  0  0  0  0  1  0  0  0  0  0  0
  189.7960  178.5320  147.7400 O   0  0  0  0  0  0  0  0  0  0  0  0
  188.8540  177.7440  147.4600 C   0  0  0  0  0  0  0  0  0  0  0  0
  187.2410  179.3040  148.4900 C   0  0  0  0  0  1  0  0  0  0  0  0
  187.5680  178.0500  147.9110 O   0  0  0  0  0  0  0  0  0  0  0  0
  1  6  1  0  0  0  0
  2 22  1  1  0  0  0
  3  8  1  0  0  0  0
  4  9  1  0  0  0  0
  5  4  2  0  0  0  0
  5 11  1  0  0  0  0
  6 14  1  1  0  0  0
  6  2  1  0  0  0  0
  7 12  1  0  0  0  0
  7  1  1  0  0  0  0
  8 21  1  6  0  0  0
  8  2  1  0  0  0  0
  9 12  2  0  0  0  0
 10  5  1  0  0  0  0
 11  7  2  0  0  0  0
 12  3  1  0  0  0  0
 13 17  1  0  0  0  0
 14 15  2  0  0  0  0
 15 16  1  0  0  0  0
 17 16  2  0  0  0  0
 18 14  1  0  0  0  0
 18 13  2  0  0  0  0
 20 21  1  0  0  0  0
 20 19  1  0  0  0  0
 21 19  1  0  0  0  0
 22 23  1  1  0  0  0
 22 25  1  0  0  0  0
 25 24  2  0  0  0  0
 25 27  1  0  0  0  0
 27 26  1  0  0  0  0
M  END
>  <MODEL>
7

>  <REMARK>
 VINA RESULT:      -6.2      1.243      2.116
  Name = 
  5 active torsions:
  status: ('A' for Active; 'I' for Inactive)
    1  A    between atoms: C_2  and  C_6
    2  A    between atoms: C_6  and  C_17
    3  A    between atoms: C_9  and  C_15
    4  A    between atoms: C_14  and  N_19
    5  A    between atoms: O_16  and  C_17
                            x       y       z     vdW  Elec       q    Type
                         _______ _______ _______ _____ _____    ______ ____

>  <TORSDO>
F 5

$$$$
=
 OpenBabel11052418313D

 27 30  0  0  1  0  0  0  0  0999 V2000
  190.2170  176.9930  145.9040 N   0  0  0  0  0  2  0  0  0  0  0  0
  190.3380  175.9510  143.6300 C   0  0  2  0  0  3  0  0  0  0  0  0
  188.0090  175.6810  144.3830 C   0  0  0  0  0  2  0  0  0  0  0  0
  186.1950  177.6480  147.0550 C   0  0  0  0  0  3  0  0  0  0  0  0
  187.2420  178.2840  147.7220 C   0  0  0  0  0  0  0  0  0  0  0  0
  190.7220  175.8620  145.1340 C   0  0  1  0  0  3  0  0  0  0  0  0
  188.8480  177.1890  146.2690 C   0  0  0  0  0  0  0  0  0  0  0  0
  188.9210  176.2530  143.3710 N   0  0  1  0  0  0  0  0  0  0  0  0
  186.4670  176.7930  145.9840 C   0  0  0  0  0  3  0  0  0  0  0  0
  186.9780  179.1210  148.7540 F   0  0  0  0  0  0  0  0  0  0  0  0
  188.5620  178.0570  147.3270 C   0  0  0  0  0  3  0  0  0  0  0  0
  187.7870  176.5630  145.5790 C   0  0  0  0  0  0  0  0  0  0  0  0
  194.4090  176.7730  145.3680 C   0  0  0  0  0  3  0  0  0  0  0  0
  192.2010  175.7660  145.3420 C   0  0  0  0  0  0  0  0  0  0  0  0
  192.7550  174.5520  145.7700 C   0  0  0  0  0  3  0  0  0  0  0  0
  194.1320  174.4480  145.9870 C   0  0  0  0  0  3  0  0  0  0  0  0
  194.9590  175.5560  145.7840 C   0  0  0  0  0  3  0  0  0  0  0  0
  193.0320  176.8790  145.1510 C   0  0  0  0  0  3  0  0  0  0  0  0
  188.5660  177.9660  141.6720 C   0  0  0  0  0  2  0  0  0  0  0  0
  187.3560  177.9480  142.5780 C   0  0  0  0  0  2  0  0  0  0  0  0
  188.7360  177.6900  143.1550 C   0  0  0  0  0  3  0  0  0  0  0  0
  190.7310  174.7140  142.8010 C   0  0  2  0  0  3  0  0  0  0  0  0
  192.0000  174.9080  141.9770 C   0  0  0  0  0  1  0  0  0  0  0  0
  189.3330  174.5800  140.8570 O   0  0  0  0  0  0  0  0  0  0  0  0
  189.5920  174.1340  142.0060 C   0  0  0  0  0  0  0  0  0  0  0  0
  187.6130  172.6640  141.8750 C   0  0  0  0  0  1  0  0  0  0  0  0
  188.7940  173.1110  142.5230 O   0  0  0  0  0  0  0  0  0  0  0  0
  1  7  1  0  0  0  0
  2 22  1  6  0  0  0
  2  6  1  0  0  0  0
  3 12  1  0  0  0  0
  4  5  1  0  0  0  0
  5 10  1  0  0  0  0
  6 14  1  6  0  0  0
  6  1  1  0  0  0  0
  7 11  1  0  0  0  0
  8 21  1  1  0  0  0
  8  2  1  0  0  0  0
  8  3  1  0  0  0  0
  9  4  2  0  0  0  0
 11  5  2  0  0  0  0
 12  9  1  0  0  0  0
 12  7  2  0  0  0  0
 13 17  1  0  0  0  0
 14 15  2  0  0  0  0
 15 16  1  0  0  0  0
 17 16  2  0  0  0  0
 18 14  1  0  0  0  0
 18 13  2  0  0  0  0
 19 20  1  0  0  0  0
 19 21  1  0  0  0  0
 20 21  1  0  0  0  0
 22 23  1  6  0  0  0
 24 25  2  0  0  0  0
 25 27  1  0  0  0  0
 25 22  1  0  0  0  0
 26 27  1  0  0  0  0
M  END
>  <MODEL>
8

>  <REMARK>
 VINA RESULT:      -6.2      3.165      6.650
  Name = 
  5 active torsions:
  status: ('A' for Active; 'I' for Inactive)
    1  A    between atoms: C_2  and  C_6
    2  A    between atoms: C_6  and  C_17
    3  A    between atoms: C_9  and  C_15
    4  A    between atoms: C_14  and  N_19
    5  A    between atoms: O_16  and  C_17
                            x       y       z     vdW  Elec       q    Type
                         _______ _______ _______ _____ _____    ______ ____

>  <TORSDO>
F 5

$$$$
=
 OpenBabel11052418313D

 27 30  0  0  1  0  0  0  0  0999 V2000
  189.8120  176.9210  145.9160 N   0  0  0  0  0  2  0  0  0  0  0  0
  190.1450  176.0660  143.5860 C   0  0  2  0  0  3  0  0  0  0  0  0
  187.7440  175.8080  144.0730 C   0  0  0  0  0  2  0  0  0  0  0  0
  185.7080  177.6040  146.7050 C   0  0  0  0  0  3  0  0  0  0  0  0
  186.6940  178.1500  147.5270 C   0  0  0  0  0  0  0  0  0  0  0  0
  190.3680  175.8410  145.1080 C   0  0  1  0  0  3  0  0  0  0  0  0
  188.4170  177.1290  146.1560 C   0  0  0  0  0  0  0  0  0  0  0  0
  188.7680  176.4320  143.2120 N   0  0  1  0  0  0  0  0  0  0  0  0
  186.0710  176.8320  145.5990 C   0  0  0  0  0  3  0  0  0  0  0  0
  186.3440  178.9070  148.5950 F   0  0  0  0  0  0  0  0  0  0  0  0
  188.0430  177.9160  147.2500 C   0  0  0  0  0  3  0  0  0  0  0  0
  187.4190  176.5950  145.3120 C   0  0  0  0  0  0  0  0  0  0  0  0
  193.6930  174.3050  146.1380 C   0  0  0  0  0  3  0  0  0  0  0  0
  191.8160  175.6820  145.4570 C   0  0  0  0  0  0  0  0  0  0  0  0
  192.6660  176.7910  145.3690 C   0  0  0  0  0  3  0  0  0  0  0  0
  194.0240  176.6580  145.6730 C   0  0  0  0  0  3  0  0  0  0  0  0
  194.5380  175.4170  146.0590 C   0  0  0  0  0  3  0  0  0  0  0  0
  192.3360  174.4350  145.8340 C   0  0  0  0  0  3  0  0  0  0  0  0
  188.6460  178.2910  141.6380 C   0  0  0  0  0  2  0  0  0  0  0  0
  187.3400  178.2340  142.3980 C   0  0  0  0  0  2  0  0  0  0  0  0
  188.6400  177.8870  143.1010 C   0  0  0  0  0  3  0  0  0  0  0  0
  190.5930  174.8900  142.7000 C   0  0  2  0  0  3  0  0  0  0  0  0
  190.1100  173.5310  143.1950 C   0  0  0  0  0  1  0  0  0  0  0  0
  192.7210  173.8380  142.3510 O   0  0  0  0  0  0  0  0  0  0  0  0
  192.0620  174.9110  142.3680 C   0  0  0  0  0  0  0  0  0  0  0  0
  194.1290  176.1740  141.8880 C   0  0  0  0  0  1  0  0  0  0  0  0
  192.7250  176.1090  142.0900 O   0  0  0  0  0  0  0  0  0  0  0  0
  1  7  1  0  0  0  0
  2 22  1  6  0  0  0
  2  6  1  0  0  0  0
  3 12  1  0  0  0  0
  4  5  1  0  0  0  0
  5 10  1  0  0  0  0
  6 14  1  6  0  0  0
  6  1  1  0  0  0  0
  7 11  1  0  0  0  0
  8 21  1  1  0  0  0
  8  2  1  0  0  0  0
  8  3  1  0  0  0  0
  9  4  2  0  0  0  0
 11  5  2  0  0  0  0
 12  9  1  0  0  0  0
 12  7  2  0  0  0  0
 14 18  1  0  0  0  0
 15 14  2  0  0  0  0
 15 16  1  0  0  0  0
 16 17  2  0  0  0  0
 17 13  1  0  0  0  0
 18 13  2  0  0  0  0
 19 20  1  0  0  0  0
 19 21  1  0  0  0  0
 20 21  1  0  0  0  0
 22 23  1  1  0  0  0
 24 25  2  0  0  0  0
 25 22  1  0  0  0  0
 26 27  1  0  0  0  0
 27 25  1  0  0  0  0
M  END
>  <MODEL>
9

>  <REMARK>
 VINA RESULT:      -6.1      3.154      6.310
  Name = 
  5 active torsions:
  status: ('A' for Active; 'I' for Inactive)
    1  A    between atoms: C_2  and  C_6
    2  A    between atoms: C_6  and  C_17
    3  A    between atoms: C_9  and  C_15
    4  A    between atoms: C_14  and  N_19
    5  A    between atoms: O_16  and  C_17
                            x       y       z     vdW  Elec       q    Type
                         _______ _______ _______ _____ _____    ______ ____

>  <TORSDO>
F 5

$$$$
