=
 OpenBabel11052417133D

 30 34  0  0  1  0  0  0  0  0999 V2000
  187.6140  176.6330  145.3170 C   0  0  0  0  0  0  0  0  0  0  0  0
  185.9710  177.9700  146.7380 C   0  0  0  0  0  0  0  0  0  0  0  0
  185.2330  177.4900  141.9340 O   0  0  0  0  0  0  0  0  0  0  0  0
  187.9960  176.1300  144.0510 C   0  0  0  0  0  0  0  0  0  0  0  0
  188.3490  176.1810  146.5520 C   0  0  0  0  0  2  0  0  0  0  0  0
  191.1070  174.2490  144.9700 O   0  0  0  0  0  1  0  0  0  0  0  0
  187.8950  174.3700  141.8140 C   0  0  2  0  0  3  0  0  0  0  0  0
  189.7960  174.6810  145.1910 C   0  0  1  0  0  3  0  0  0  0  0  0
  187.0150  176.3450  140.3290 C   0  0  2  0  0  3  0  0  0  0  0  0
  185.6400  178.0770  140.6970 C   0  0  0  0  0  2  0  0  0  0  0  0
  189.7820  175.7610  146.2690 C   0  0  2  0  0  3  0  0  0  0  0  0
  189.2140  175.2250  143.8830 C   0  0  1  0  0  3  0  0  0  0  0  0
  184.6100  178.5090  146.8360 C   0  0  0  0  0  3  0  0  0  0  0  0
  188.0680  173.5250  140.5570 C   0  0  0  0  0  1  0  0  0  0  0  0
  186.6870  177.9530  147.7730 O   0  0  0  0  0  0  0  0  0  0  0  0
  186.0850  177.2490  143.0220 C   0  0  0  0  0  0  0  0  0  0  0  0
  183.8980  178.7610  145.7420 C   0  0  0  0  0  3  0  0  0  0  0  0
  186.4610  177.4450  145.4310 C   0  0  0  0  0  0  0  0  0  0  0  0
  187.2750  176.4890  142.8930 C   0  0  0  0  0  0  0  0  0  0  0  0
  186.9540  177.7420  140.3530 O   0  0  0  0  0  0  0  0  0  0  0  0
  187.7660  175.8850  141.5860 C   0  0  1  0  0  3  0  0  0  0  0  0
  190.2110  173.7850  142.2500 O   0  0  0  0  0  1  0  0  0  0  0  0
  184.4670  178.6080  144.3600 C   0  0  0  0  0  2  0  0  0  0  0  0
  185.6880  177.7190  144.2830 C   0  0  0  0  0  0  0  0  0  0  0  0
  188.9910  174.0770  142.8670 C   0  0  2  0  0  3  0  0  0  0  0  0
  187.7000  175.9500  139.1770 O   0  0  0  0  0  0  0  0  0  0  0  0
  186.7730  176.0850  138.1430 C   0  0  0  0  0  1  0  0  0  0  0  0
  190.4890  175.3190  147.5560 C   0  0  0  0  0  2  0  0  0  0  0  0
  192.6710  176.4510  147.0970 C   0  0  0  0  0  1  0  0  0  0  0  0
  191.5120  176.3290  148.0680 C   0  0  0  0  0  2  0  0  0  0  0  0
  1 18  1  0  0  0  0
  1  5  1  0  0  0  0
  2 13  1  0  0  0  0
  2 15  2  0  0  0  0
  3 16  1  0  0  0  0
  4  1  2  0  0  0  0
  7 14  1  6  0  0  0
  7 25  1  0  0  0  0
  8  6  1  6  0  0  0
  8 11  1  0  0  0  0
  9 26  1  6  0  0  0
  9 20  1  0  0  0  0
  9 21  1  0  0  0  0
 10  3  1  0  0  0  0
 11  5  1  0  0  0  0
 11 28  1  1  0  0  0
 12  4  1  1  0  0  0
 12  8  1  0  0  0  0
 16 24  1  0  0  0  0
 17 13  2  0  0  0  0
 18  2  1  0  0  0  0
 19 16  2  0  0  0  0
 19  4  1  0  0  0  0
 20 10  1  0  0  0  0
 21  7  1  0  0  0  0
 21 19  1  1  0  0  0
 23 17  1  0  0  0  0
 24 23  1  0  0  0  0
 24 18  2  0  0  0  0
 25 22  1  6  0  0  0
 25 12  1  0  0  0  0
 27 26  1  0  0  0  0
 28 30  1  0  0  0  0
 29 30  1  0  0  0  0
M  END
>  <MODEL>
1

>  <REMARK>
 VINA RESULT:      -8.6      0.000      0.000
  Name = 
  3 active torsions:
  status: ('A' for Active; 'I' for Inactive)
    1  A    between atoms: C_9  and  C_12
    2  A    between atoms: C_9  and  C_21
    3  A    between atoms: C_10  and  O_15
                            x       y       z     vdW  Elec       q    Type
                         _______ _______ _______ _____ _____    ______ ____

>  <TORSDO>
F 3

$$$$
=
 OpenBabel11052417133D

 30 34  0  0  1  0  0  0  0  0999 V2000
  186.6970  177.4110  143.8400 C   0  0  0  0  0  0  0  0  0  0  0  0
  185.4270  178.8660  145.5080 C   0  0  0  0  0  0  0  0  0  0  0  0
  189.0470  175.9670  147.0400 O   0  0  0  0  0  0  0  0  0  0  0  0
  187.7170  176.4650  143.5830 C   0  0  0  0  0  0  0  0  0  0  0  0
  185.9820  178.0690  142.6880 C   0  0  0  0  0  2  0  0  0  0  0  0
  187.3870  176.0930  139.8670 O   0  0  0  0  0  1  0  0  0  0  0  0
  190.3900  175.5680  143.1830 C   0  0  2  0  0  3  0  0  0  0  0  0
  187.3930  176.8310  141.0540 C   0  0  1  0  0  3  0  0  0  0  0  0
  190.2520  174.2270  145.4330 C   0  0  2  0  0  3  0  0  0  0  0  0
  189.2810  174.6100  147.4170 C   0  0  0  0  0  2  0  0  0  0  0  0
  185.9650  177.2110  141.4340 C   0  0  2  0  0  3  0  0  0  0  0  0
  188.0390  175.9990  142.1660 C   0  0  1  0  0  3  0  0  0  0  0  0
  185.4540  179.5020  146.8290 C   0  0  0  0  0  3  0  0  0  0  0  0
  191.7140  174.8770  142.8740 C   0  0  0  0  0  1  0  0  0  0  0  0
  184.5410  179.2210  144.6860 O   0  0  0  0  0  0  0  0  0  0  0  0
  188.2380  176.3700  145.9670 C   0  0  0  0  0  0  0  0  0  0  0  0
  186.2110  179.0130  147.8050 C   0  0  0  0  0  3  0  0  0  0  0  0
  186.4520  177.8370  145.1670 C   0  0  0  0  0  0  0  0  0  0  0  0
  188.4430  175.8930  144.6480 C   0  0  0  0  0  0  0  0  0  0  0  0
  189.2840  173.7420  146.3200 O   0  0  0  0  0  0  0  0  0  0  0  0
  189.5220  174.8940  144.2600 C   0  0  1  0  0  3  0  0  0  0  0  0
  189.7340  174.7960  140.9760 O   0  0  0  0  0  1  0  0  0  0  0  0
  186.9970  177.7410  147.6510 C   0  0  0  0  0  2  0  0  0  0  0  0
  187.2500  177.3340  146.2170 C   0  0  0  0  0  0  0  0  0  0  0  0
  189.5550  175.8260  141.9050 C   0  0  2  0  0  3  0  0  0  0  0  0
  191.0220  173.1500  144.9850 O   0  0  0  0  0  0  0  0  0  0  0  0
  190.0960  172.1630  144.6450 C   0  0  0  0  0  1  0  0  0  0  0  0
  185.2190  177.9170  140.2950 C   0  0  0  0  0  2  0  0  0  0  0  0
  182.7190  177.8360  140.3100 C   0  0  0  0  0  1  0  0  0  0  0  0
  183.9420  178.6200  140.7460 C   0  0  0  0  0  2  0  0  0  0  0  0
  1 18  1  0  0  0  0
  2 13  1  0  0  0  0
  3 10  1  0  0  0  0
  4  1  2  0  0  0  0
  4 19  1  0  0  0  0
  5  1  1  0  0  0  0
  7 14  1  6  0  0  0
  7 21  1  0  0  0  0
  8  6  1  6  0  0  0
  8 11  1  0  0  0  0
  8 12  1  0  0  0  0
  9 26  1  6  0  0  0
  9 20  1  0  0  0  0
 11 28  1  6  0  0  0
 11  5  1  0  0  0  0
 12  4  1  1  0  0  0
 13 17  2  0  0  0  0
 15  2  2  0  0  0  0
 16 24  1  0  0  0  0
 16  3  1  0  0  0  0
 18  2  1  0  0  0  0
 18 24  2  0  0  0  0
 19 16  2  0  0  0  0
 20 10  1  0  0  0  0
 21 19  1  1  0  0  0
 21  9  1  0  0  0  0
 23 17  1  0  0  0  0
 24 23  1  0  0  0  0
 25 22  1  6  0  0  0
 25 12  1  0  0  0  0
 25  7  1  0  0  0  0
 27 26  1  0  0  0  0
 28 30  1  0  0  0  0
 29 30  1  0  0  0  0
M  END
>  <MODEL>
2

>  <REMARK>
 VINA RESULT:      -8.1      1.778      5.623
  Name = 
  3 active torsions:
  status: ('A' for Active; 'I' for Inactive)
    1  A    between atoms: C_9  and  C_12
    2  A    between atoms: C_9  and  C_21
    3  A    between atoms: C_10  and  O_15
                            x       y       z     vdW  Elec       q    Type
                         _______ _______ _______ _____ _____    ______ ____

>  <TORSDO>
F 3

$$$$
=
 OpenBabel11052417133D

 30 34  0  0  1  0  0  0  0  0999 V2000
  188.7570  175.9240  145.2880 C   0  0  0  0  0  0  0  0  0  0  0  0
  190.8270  175.3320  146.6580 C   0  0  0  0  0  0  0  0  0  0  0  0
  190.7480  174.4940  141.8470 O   0  0  0  0  0  0  0  0  0  0  0  0
  188.1020  175.9690  144.0350 C   0  0  0  0  0  0  0  0  0  0  0  0
  188.1330  176.5980  146.4820 C   0  0  0  0  0  2  0  0  0  0  0  0
  184.8400  177.5310  145.0240 O   0  0  0  0  0  1  0  0  0  0  0  0
  187.5170  176.9910  141.4420 C   0  0  2  0  0  3  0  0  0  0  0  0
  186.2290  177.3900  145.0880 C   0  0  1  0  0  3  0  0  0  0  0  0
  188.5570  174.8290  140.3810 C   0  0  2  0  0  3  0  0  0  0  0  0
  190.2940  173.5160  140.9110 C   0  0  0  0  0  2  0  0  0  0  0  0
  186.6180  176.6890  146.3870 C   0  0  2  0  0  3  0  0  0  0  0  0
  186.7140  176.5850  143.8790 C   0  0  1  0  0  3  0  0  0  0  0  0
  192.2680  175.0640  146.6240 C   0  0  0  0  0  3  0  0  0  0  0  0
  186.9960  177.3930  140.0670 C   0  0  0  0  0  1  0  0  0  0  0  0
  190.2800  175.5410  147.7730 O   0  0  0  0  0  0  0  0  0  0  0  0
  190.0310  174.9080  142.9800 C   0  0  0  0  0  0  0  0  0  0  0  0
  192.8510  174.6160  145.5170 C   0  0  0  0  0  3  0  0  0  0  0  0
  190.0560  175.3700  145.3820 C   0  0  0  0  0  0  0  0  0  0  0  0
  188.7060  175.4030  142.8940 C   0  0  0  0  0  0  0  0  0  0  0  0
  188.9040  173.5270  140.7570 O   0  0  0  0  0  0  0  0  0  0  0  0
  187.9180  175.5140  141.5970 C   0  0  1  0  0  3  0  0  0  0  0  0
  185.2180  177.3120  142.1560 O   0  0  0  0  0  1  0  0  0  0  0  0
  192.0690  174.2680  144.2820 C   0  0  0  0  0  2  0  0  0  0  0  0
  190.6940  174.8950  144.2160 C   0  0  0  0  0  0  0  0  0  0  0  0
  186.5480  177.4050  142.5770 C   0  0  2  0  0  3  0  0  0  0  0  0
  187.6470  174.7590  139.3240 O   0  0  0  0  0  0  0  0  0  0  0  0
  188.3730  174.2240  138.2590 C   0  0  0  0  0  1  0  0  0  0  0  0
  186.0300  177.3730  147.6270 C   0  0  0  0  0  2  0  0  0  0  0  0
  187.1630  179.3450  148.6660 C   0  0  0  0  0  1  0  0  0  0  0  0
  186.1720  178.8920  147.6110 C   0  0  0  0  0  2  0  0  0  0  0  0
  1 18  1  0  0  0  0
  1  5  1  0  0  0  0
  2 15  2  0  0  0  0
  3 16  1  0  0  0  0
  4  1  2  0  0  0  0
  7 14  1  6  0  0  0
  7 21  1  0  0  0  0
  7 25  1  0  0  0  0
  8  6  1  6  0  0  0
  8 11  1  0  0  0  0
  9 26  1  6  0  0  0
  9 20  1  0  0  0  0
  9 21  1  0  0  0  0
 10  3  1  0  0  0  0
 11  5  1  0  0  0  0
 11 28  1  1  0  0  0
 12  4  1  1  0  0  0
 12  8  1  0  0  0  0
 13  2  1  0  0  0  0
 16 24  1  0  0  0  0
 17 13  2  0  0  0  0
 18  2  1  0  0  0  0
 19 16  2  0  0  0  0
 19  4  1  0  0  0  0
 20 10  1  0  0  0  0
 21 19  1  1  0  0  0
 23 17  1  0  0  0  0
 24 23  1  0  0  0  0
 24 18  2  0  0  0  0
 25 22  1  6  0  0  0
 25 12  1  0  0  0  0
 27 26  1  0  0  0  0
 30 28  1  0  0  0  0
 30 29  1  0  0  0  0
M  END
>  <MODEL>
3

>  <REMARK>
 VINA RESULT:      -8.0      1.610      5.014
  Name = 
  3 active torsions:
  status: ('A' for Active; 'I' for Inactive)
    1  A    between atoms: C_9  and  C_12
    2  A    between atoms: C_9  and  C_21
    3  A    between atoms: C_10  and  O_15
                            x       y       z     vdW  Elec       q    Type
                         _______ _______ _______ _____ _____    ______ ____

>  <TORSDO>
F 3

$$$$
=
 OpenBabel11052417133D

 30 34  0  0  1  0  0  0  0  0999 V2000
  188.3260  175.6640  142.1200 C   0  0  0  0  0  0  0  0  0  0  0  0
  188.3440  174.5100  139.8440 C   0  0  0  0  0  0  0  0  0  0  0  0
  191.5160  173.1590  143.3040 O   0  0  0  0  0  0  0  0  0  0  0  0
  188.8620  175.7870  143.4230 C   0  0  0  0  0  0  0  0  0  0  0  0
  187.0740  176.4170  141.7520 C   0  0  0  0  0  2  0  0  0  0  0  0
  186.6840  178.5090  144.8030 O   0  0  0  0  0  1  0  0  0  0  0  0
  189.2580  175.0670  146.1500 C   0  0  2  0  0  3  0  0  0  0  0  0
  186.9150  177.3530  144.0530 C   0  0  1  0  0  3  0  0  0  0  0  0
  191.7530  174.4680  145.6050 C   0  0  2  0  0  3  0  0  0  0  0  0
  192.7830  173.5420  143.8420 C   0  0  0  0  0  2  0  0  0  0  0  0
  186.8880  177.6880  142.5650 C   0  0  2  0  0  3  0  0  0  0  0  0
  188.2720  176.7580  144.4430 C   0  0  1  0  0  3  0  0  0  0  0  0
  188.7410  173.3140  139.0930 C   0  0  0  0  0  3  0  0  0  0  0  0
  189.5660  174.9160  147.6350 C   0  0  0  0  0  1  0  0  0  0  0  0
  187.5380  175.3160  139.3090 O   0  0  0  0  0  0  0  0  0  0  0  0
  190.5080  174.0560  142.9190 C   0  0  0  0  0  0  0  0  0  0  0  0
  189.7510  172.5550  139.5070 C   0  0  0  0  0  3  0  0  0  0  0  0
  188.8860  174.7290  141.2160 C   0  0  0  0  0  0  0  0  0  0  0  0
  189.9920  175.0350  143.8050 C   0  0  0  0  0  0  0  0  0  0  0  0
  192.7070  174.7090  144.6100 O   0  0  0  0  0  0  0  0  0  0  0  0
  190.4800  175.2380  145.2310 C   0  0  1  0  0  3  0  0  0  0  0  0
  188.3790  177.2390  146.7860 O   0  0  0  0  0  1  0  0  0  0  0  0
  190.5990  172.9210  140.6910 C   0  0  0  0  0  2  0  0  0  0  0  0
  189.9540  173.9090  141.6380 C   0  0  0  0  0  0  0  0  0  0  0  0
  188.2230  176.1860  145.8800 C   0  0  2  0  0  3  0  0  0  0  0  0
  192.2600  174.9210  146.8250 O   0  0  0  0  0  0  0  0  0  0  0  0
  192.9670  176.0830  146.5130 C   0  0  0  0  0  1  0  0  0  0  0  0
  185.6080  178.4230  142.1480 C   0  0  0  0  0  2  0  0  0  0  0  0
  183.7210  178.2910  140.5140 C   0  0  0  0  0  1  0  0  0  0  0  0
  185.2250  178.2010  140.6890 C   0  0  0  0  0  2  0  0  0  0  0  0
  1  4  1  0  0  0  0
  2 18  1  0  0  0  0
  3 10  1  0  0  0  0
  4 19  2  0  0  0  0
  5  1  1  0  0  0  0
  5 11  1  0  0  0  0
  7 14  1  1  0  0  0
  8 12  1  0  0  0  0
  8  6  1  1  0  0  0
  9 26  1  1  0  0  0
 10 20  1  0  0  0  0
 11 28  1  6  0  0  0
 11  8  1  0  0  0  0
 12  4  1  6  0  0  0
 12 25  1  0  0  0  0
 13 17  2  0  0  0  0
 13  2  1  0  0  0  0
 15  2  2  0  0  0  0
 16  3  1  0  0  0  0
 16 19  1  0  0  0  0
 17 23  1  0  0  0  0
 18 24  1  0  0  0  0
 18  1  2  0  0  0  0
 20  9  1  0  0  0  0
 21 19  1  6  0  0  0
 21  9  1  0  0  0  0
 21  7  1  0  0  0  0
 23 24  1  0  0  0  0
 24 16  2  0  0  0  0
 25  7  1  0  0  0  0
 25 22  1  1  0  0  0
 27 26  1  0  0  0  0
 29 30  1  0  0  0  0
 30 28  1  0  0  0  0
M  END
>  <MODEL>
4

>  <REMARK>
 VINA RESULT:      -7.6      1.873      7.197
  Name = 
  3 active torsions:
  status: ('A' for Active; 'I' for Inactive)
    1  A    between atoms: C_9  and  C_12
    2  A    between atoms: C_9  and  C_21
    3  A    between atoms: C_10  and  O_15
                            x       y       z     vdW  Elec       q    Type
                         _______ _______ _______ _____ _____    ______ ____

>  <TORSDO>
F 3

$$$$
=
 OpenBabel11052417133D

 30 34  0  0  1  0  0  0  0  0999 V2000
  189.8140  175.4770  143.7670 C   0  0  0  0  0  0  0  0  0  0  0  0
  188.3880  174.3880  141.9520 C   0  0  0  0  0  0  0  0  0  0  0  0
  193.2570  174.4140  141.5610 O   0  0  0  0  0  0  0  0  0  0  0  0
  191.0940  175.8150  144.2670 C   0  0  0  0  0  0  0  0  0  0  0  0
  188.5960  175.6840  144.6300 C   0  0  0  0  0  2  0  0  0  0  0  0
  190.1490  177.5050  147.4780 O   0  0  0  0  0  1  0  0  0  0  0  0
  193.5950  175.3420  145.5440 C   0  0  2  0  0  3  0  0  0  0  0  0
  190.0140  176.5180  146.4990 C   0  0  1  0  0  3  0  0  0  0  0  0
  194.8130  175.7440  143.2560 C   0  0  2  0  0  3  0  0  0  0  0  0
  194.3180  175.2630  141.1230 C   0  0  0  0  0  2  0  0  0  0  0  0
  188.7760  176.7960  145.6510 C   0  0  2  0  0  3  0  0  0  0  0  0
  191.2690  176.4980  145.6210 C   0  0  1  0  0  3  0  0  0  0  0  0
  188.3610  173.4280  140.8450 C   0  0  0  0  0  3  0  0  0  0  0  0
  194.9490  175.3420  146.2440 C   0  0  0  0  0  1  0  0  0  0  0  0
  187.2940  174.8130  142.4070 O   0  0  0  0  0  0  0  0  0  0  0  0
  192.1330  174.8460  142.2820 C   0  0  0  0  0  0  0  0  0  0  0  0
  189.4710  173.1230  140.1810 C   0  0  0  0  0  3  0  0  0  0  0  0
  189.6990  174.8180  142.5200 C   0  0  0  0  0  0  0  0  0  0  0  0
  192.2490  175.5630  143.4990 C   0  0  0  0  0  0  0  0  0  0  0  0
  194.5570  176.3210  142.0070 O   0  0  0  0  0  0  0  0  0  0  0  0
  193.5730  175.9580  144.1350 C   0  0  1  0  0  3  0  0  0  0  0  0
  192.9950  177.0160  147.1980 O   0  0  0  0  0  1  0  0  0  0  0  0
  190.7820  173.8040  140.4520 C   0  0  0  0  0  2  0  0  0  0  0  0
  190.8670  174.4800  141.8030 C   0  0  0  0  0  0  0  0  0  0  0  0
  192.4850  175.9710  146.4220 C   0  0  2  0  0  3  0  0  0  0  0  0
  195.9260  176.3750  143.8160 O   0  0  0  0  0  0  0  0  0  0  0  0
  197.0270  175.7070  143.2780 C   0  0  0  0  0  1  0  0  0  0  0  0
  187.5090  176.9740  146.4970 C   0  0  0  0  0  2  0  0  0  0  0  0
  185.0320  177.3140  146.4780 C   0  0  0  0  0  1  0  0  0  0  0  0
  186.2180  176.7570  145.7150 C   0  0  0  0  0  2  0  0  0  0  0  0
  1  4  1  0  0  0  0
  1  5  1  0  0  0  0
  2 15  2  0  0  0  0
  2 18  1  0  0  0  0
  3 16  1  0  0  0  0
  5 11  1  0  0  0  0
  7 14  1  1  0  0  0
  7 25  1  0  0  0  0
  8  6  1  1  0  0  0
  9 26  1  1  0  0  0
  9 21  1  0  0  0  0
 10  3  1  0  0  0  0
 10 20  1  0  0  0  0
 11 28  1  1  0  0  0
 11  8  1  0  0  0  0
 12  4  1  6  0  0  0
 12 25  1  0  0  0  0
 12  8  1  0  0  0  0
 13  2  1  0  0  0  0
 16 19  1  0  0  0  0
 17 23  1  0  0  0  0
 17 13  2  0  0  0  0
 18  1  2  0  0  0  0
 19  4  2  0  0  0  0
 20  9  1  0  0  0  0
 21 19  1  6  0  0  0
 21  7  1  0  0  0  0
 23 24  1  0  0  0  0
 24 16  2  0  0  0  0
 24 18  1  0  0  0  0
 25 22  1  6  0  0  0
 27 26  1  0  0  0  0
 30 29  1  0  0  0  0
 30 28  1  0  0  0  0
M  END
>  <MODEL>
5

>  <REMARK>
 VINA RESULT:      -7.5      2.952      6.786
  Name = 
  3 active torsions:
  status: ('A' for Active; 'I' for Inactive)
    1  A    between atoms: C_9  and  C_12
    2  A    between atoms: C_9  and  C_21
    3  A    between atoms: C_10  and  O_15
                            x       y       z     vdW  Elec       q    Type
                         _______ _______ _______ _____ _____    ______ ____

>  <TORSDO>
F 3

$$$$
=
 OpenBabel11052417133D

 30 34  0  0  1  0  0  0  0  0999 V2000
  189.0250  175.5740  142.8230 C   0  0  0  0  0  0  0  0  0  0  0  0
  188.9250  174.4110  140.5540 C   0  0  0  0  0  0  0  0  0  0  0  0
  192.9660  174.1230  143.2820 O   0  0  0  0  0  0  0  0  0  0  0  0
  189.7480  175.8820  144.0000 C   0  0  0  0  0  0  0  0  0  0  0  0
  187.5630  175.9260  142.7320 C   0  0  0  0  0  2  0  0  0  0  0  0
  187.1960  177.9010  145.8630 O   0  0  0  0  0  1  0  0  0  0  0  0
  190.8620  175.3810  146.5720 C   0  0  2  0  0  3  0  0  0  0  0  0
  187.5980  176.8400  145.0470 C   0  0  1  0  0  3  0  0  0  0  0  0
  193.2660  175.5080  145.5310 C   0  0  2  0  0  3  0  0  0  0  0  0
  194.1500  174.8680  143.5720 C   0  0  0  0  0  2  0  0  0  0  0  0
  187.1830  177.1120  143.6030 C   0  0  2  0  0  3  0  0  0  0  0  0
  189.1160  176.6700  145.1440 C   0  0  1  0  0  3  0  0  0  0  0  0
  189.4920  173.3600  139.7040 C   0  0  0  0  0  3  0  0  0  0  0  0
  191.4860  175.3650  147.9630 C   0  0  0  0  0  1  0  0  0  0  0  0
  187.8330  174.9370  140.2130 O   0  0  0  0  0  0  0  0  0  0  0  0
  191.6880  174.6820  143.1300 C   0  0  0  0  0  0  0  0  0  0  0  0
  190.7380  172.9340  139.8880 C   0  0  0  0  0  3  0  0  0  0  0  0
  189.6400  174.8140  141.7990 C   0  0  0  0  0  0  0  0  0  0  0  0
  191.0980  175.4960  144.1290 C   0  0  0  0  0  0  0  0  0  0  0  0
  193.8950  175.9850  144.3760 O   0  0  0  0  0  0  0  0  0  0  0  0
  191.7770  175.8700  145.4370 C   0  0  1  0  0  3  0  0  0  0  0  0
  189.5400  177.2260  147.4350 O   0  0  0  0  0  1  0  0  0  0  0  0
  191.6610  173.5610  140.8940 C   0  0  0  0  0  2  0  0  0  0  0  0
  190.9600  174.3480  141.9780 C   0  0  0  0  0  0  0  0  0  0  0  0
  189.5170  176.1480  146.5460 C   0  0  2  0  0  3  0  0  0  0  0  0
  193.8510  176.1210  146.6410 O   0  0  0  0  0  0  0  0  0  0  0  0
  194.4630  177.2700  146.1380 C   0  0  0  0  0  1  0  0  0  0  0  0
  185.6910  177.4370  143.4690 C   0  0  0  0  0  2  0  0  0  0  0  0
  185.3690  179.8540  144.0250 C   0  0  0  0  0  1  0  0  0  0  0  0
  185.4180  178.8290  142.9070 C   0  0  0  0  0  2  0  0  0  0  0  0
  1  4  1  0  0  0  0
  2 18  1  0  0  0  0
  3 10  1  0  0  0  0
  4 19  2  0  0  0  0
  5  1  1  0  0  0  0
  5 11  1  0  0  0  0
  7 14  1  1  0  0  0
  8 12  1  0  0  0  0
  8  6  1  1  0  0  0
  9 26  1  1  0  0  0
 10 20  1  0  0  0  0
 11 28  1  1  0  0  0
 11  8  1  0  0  0  0
 12  4  1  6  0  0  0
 12 25  1  0  0  0  0
 13 17  2  0  0  0  0
 13  2  1  0  0  0  0
 15  2  2  0  0  0  0
 16  3  1  0  0  0  0
 16 19  1  0  0  0  0
 17 23  1  0  0  0  0
 18 24  1  0  0  0  0
 18  1  2  0  0  0  0
 20  9  1  0  0  0  0
 21 19  1  6  0  0  0
 21  9  1  0  0  0  0
 21  7  1  0  0  0  0
 23 24  1  0  0  0  0
 24 16  2  0  0  0  0
 25  7  1  0  0  0  0
 25 22  1  1  0  0  0
 27 26  1  0  0  0  0
 30 28  1  0  0  0  0
 30 29  1  0  0  0  0
M  END
>  <MODEL>
6

>  <REMARK>
 VINA RESULT:      -7.5      2.085      7.174
  Name = 
  3 active torsions:
  status: ('A' for Active; 'I' for Inactive)
    1  A    between atoms: C_9  and  C_12
    2  A    between atoms: C_9  and  C_21
    3  A    between atoms: C_10  and  O_15
                            x       y       z     vdW  Elec       q    Type
                         _______ _______ _______ _____ _____    ______ ____

>  <TORSDO>
F 3

$$$$
=
 OpenBabel11052417133D

 30 34  0  0  1  0  0  0  0  0999 V2000
  188.8490  176.3750  144.7430 C   0  0  0  0  0  0  0  0  0  0  0  0
  189.9230  177.0140  146.9680 C   0  0  0  0  0  0  0  0  0  0  0  0
  191.5740  173.1590  144.4650 O   0  0  0  0  0  0  0  0  0  0  0  0
  188.8020  175.5180  143.6190 C   0  0  0  0  0  0  0  0  0  0  0  0
  188.0110  177.6270  144.7630 C   0  0  0  0  0  2  0  0  0  0  0  0
  186.0070  177.0890  141.6760 O   0  0  0  0  0  1  0  0  0  0  0  0
  189.6370  174.4860  141.1000 C   0  0  2  0  0  3  0  0  0  0  0  0
  187.1480  177.1330  142.4810 C   0  0  1  0  0  3  0  0  0  0  0  0
  190.3620  172.2580  142.2780 C   0  0  2  0  0  3  0  0  0  0  0  0
  191.2850  171.7750  144.2630 C   0  0  0  0  0  2  0  0  0  0  0  0
  186.7600  177.5170  143.9070 C   0  0  2  0  0  3  0  0  0  0  0  0
  187.8340  175.7640  142.4650 C   0  0  1  0  0  3  0  0  0  0  0  0
  191.1130  176.9000  147.8170 C   0  0  0  0  0  3  0  0  0  0  0  0
  189.8580  173.8200  139.7460 C   0  0  0  0  0  1  0  0  0  0  0  0
  189.0530  177.8750  147.2630 O   0  0  0  0  0  0  0  0  0  0  0  0
  190.6080  174.1710  144.5610 C   0  0  0  0  0  0  0  0  0  0  0  0
  191.9430  175.8710  147.6910 C   0  0  0  0  0  3  0  0  0  0  0  0
  189.7830  176.1270  145.7780 C   0  0  0  0  0  0  0  0  0  0  0  0
  189.6320  174.3790  143.5550 C   0  0  0  0  0  0  0  0  0  0  0  0
  190.1430  171.5760  143.4800 O   0  0  0  0  0  0  0  0  0  0  0  0
  189.5060  173.5310  142.2980 C   0  0  1  0  0  3  0  0  0  0  0  0
  187.4410  175.0300  140.2190 O   0  0  0  0  0  1  0  0  0  0  0  0
  191.6680  174.7260  146.7580 C   0  0  0  0  0  2  0  0  0  0  0  0
  190.6780  175.0420  145.6590 C   0  0  0  0  0  0  0  0  0  0  0  0
  188.4520  175.4810  141.0730 C   0  0  2  0  0  3  0  0  0  0  0  0
  189.9820  171.4280  141.2210 O   0  0  0  0  0  0  0  0  0  0  0  0
  191.0400  170.5300  141.0690 C   0  0  0  0  0  1  0  0  0  0  0  0
  185.9380  178.8100  143.9670 C   0  0  0  0  0  2  0  0  0  0  0  0
  184.2140  178.6670  145.7730 C   0  0  0  0  0  1  0  0  0  0  0  0
  185.5680  179.2320  145.3850 C   0  0  0  0  0  2  0  0  0  0  0  0
  1  5  1  0  0  0  0
  1 18  1  0  0  0  0
  2 15  2  0  0  0  0
  2 13  1  0  0  0  0
  3 16  1  0  0  0  0
  4  1  2  0  0  0  0
  7 14  1  6  0  0  0
  7 21  1  0  0  0  0
  8  6  1  6  0  0  0
  8 11  1  0  0  0  0
  9 26  1  6  0  0  0
  9 21  1  0  0  0  0
  9 20  1  0  0  0  0
 10  3  1  0  0  0  0
 11 28  1  6  0  0  0
 11  5  1  0  0  0  0
 12  8  1  0  0  0  0
 12  4  1  1  0  0  0
 16 24  1  0  0  0  0
 17 13  2  0  0  0  0
 18  2  1  0  0  0  0
 19  4  1  0  0  0  0
 19 16  2  0  0  0  0
 20 10  1  0  0  0  0
 21 19  1  1  0  0  0
 23 17  1  0  0  0  0
 24 18  2  0  0  0  0
 24 23  1  0  0  0  0
 25 22  1  6  0  0  0
 25  7  1  0  0  0  0
 25 12  1  0  0  0  0
 27 26  1  0  0  0  0
 28 30  1  0  0  0  0
 30 29  1  0  0  0  0
M  END
>  <MODEL>
7

>  <REMARK>
 VINA RESULT:      -7.3      1.703      5.599
  Name = 
  3 active torsions:
  status: ('A' for Active; 'I' for Inactive)
    1  A    between atoms: C_9  and  C_12
    2  A    between atoms: C_9  and  C_21
    3  A    between atoms: C_10  and  O_15
                            x       y       z     vdW  Elec       q    Type
                         _______ _______ _______ _____ _____    ______ ____

>  <TORSDO>
F 3

$$$$
=
 OpenBabel11052417133D

 30 34  0  0  1  0  0  0  0  0999 V2000
  187.4560  176.4560  141.7310 C   0  0  0  0  0  0  0  0  0  0  0  0
  188.2190  174.9120  139.8480 C   0  0  0  0  0  0  0  0  0  0  0  0
  190.4430  174.7630  144.1940 O   0  0  0  0  0  0  0  0  0  0  0  0
  187.5980  176.9060  143.0650 C   0  0  0  0  0  0  0  0  0  0  0  0
  186.2820  176.9160  140.9080 C   0  0  0  0  0  2  0  0  0  0  0  0
  184.8510  179.4540  143.2210 O   0  0  0  0  0  1  0  0  0  0  0  0
  187.3040  176.7850  145.8950 C   0  0  2  0  0  3  0  0  0  0  0  0
  185.4000  178.2300  142.8290 C   0  0  1  0  0  3  0  0  0  0  0  0
  189.9010  176.5020  146.1290 C   0  0  2  0  0  3  0  0  0  0  0  0
  191.4660  175.4380  144.9270 C   0  0  0  0  0  2  0  0  0  0  0  0
  185.7470  178.2710  141.3440 C   0  0  2  0  0  3  0  0  0  0  0  0
  186.6520  177.9440  143.6630 C   0  0  1  0  0  3  0  0  0  0  0  0
  188.9300  173.6770  139.5050 C   0  0  0  0  0  3  0  0  0  0  0  0
  187.2060  176.9670  147.4050 C   0  0  0  0  0  1  0  0  0  0  0  0
  187.5110  175.4640  138.9650 O   0  0  0  0  0  0  0  0  0  0  0  0
  189.4910  175.3980  143.3820 C   0  0  0  0  0  0  0  0  0  0  0  0
  189.8610  173.1810  140.3130 C   0  0  0  0  0  3  0  0  0  0  0  0
  188.3370  175.4700  141.2260 C   0  0  0  0  0  0  0  0  0  0  0  0
  188.6520  176.4300  143.8710 C   0  0  0  0  0  0  0  0  0  0  0  0
  191.0600  176.7010  145.3720 O   0  0  0  0  0  0  0  0  0  0  0  0
  188.7050  176.9740  145.2900 C   0  0  1  0  0  3  0  0  0  0  0  0
  186.0610  178.8690  145.7920 O   0  0  0  0  0  1  0  0  0  0  0  0
  190.3080  173.8940  141.5570 C   0  0  0  0  0  2  0  0  0  0  0  0
  189.3290  174.9260  142.0700 C   0  0  0  0  0  0  0  0  0  0  0  0
  186.2710  177.6520  145.1350 C   0  0  2  0  0  3  0  0  0  0  0  0
  190.0030  177.2520  147.3030 O   0  0  0  0  0  0  0  0  0  0  0  0
  191.0600  176.6750  148.0080 C   0  0  0  0  0  1  0  0  0  0  0  0
  184.5610  178.6990  140.4710 C   0  0  0  0  0  2  0  0  0  0  0  0
  182.1480  178.3280  141.0100 C   0  0  0  0  0  1  0  0  0  0  0  0
  183.4140  177.6950  140.4650 C   0  0  0  0  0  2  0  0  0  0  0  0
  1  4  1  0  0  0  0
  2 18  1  0  0  0  0
  3 10  1  0  0  0  0
  4 19  2  0  0  0  0
  5 11  1  0  0  0  0
  5  1  1  0  0  0  0
  7 14  1  1  0  0  0
  8  6  1  1  0  0  0
  8 12  1  0  0  0  0
  9 26  1  1  0  0  0
 10 20  1  0  0  0  0
 11 28  1  6  0  0  0
 11  8  1  0  0  0  0
 12  4  1  6  0  0  0
 12 25  1  0  0  0  0
 13  2  1  0  0  0  0
 13 17  2  0  0  0  0
 15  2  2  0  0  0  0
 16 19  1  0  0  0  0
 16  3  1  0  0  0  0
 17 23  1  0  0  0  0
 18  1  2  0  0  0  0
 18 24  1  0  0  0  0
 20  9  1  0  0  0  0
 21 19  1  6  0  0  0
 21  7  1  0  0  0  0
 21  9  1  0  0  0  0
 23 24  1  0  0  0  0
 24 16  2  0  0  0  0
 25 22  1  1  0  0  0
 25  7  1  0  0  0  0
 26 27  1  0  0  0  0
 30 28  1  0  0  0  0
 30 29  1  0  0  0  0
M  END
>  <MODEL>
8

>  <REMARK>
 VINA RESULT:      -7.2      1.609      7.338
  Name = 
  3 active torsions:
  status: ('A' for Active; 'I' for Inactive)
    1  A    between atoms: C_9  and  C_12
    2  A    between atoms: C_9  and  C_21
    3  A    between atoms: C_10  and  O_15
                            x       y       z     vdW  Elec       q    Type
                         _______ _______ _______ _____ _____    ______ ____

>  <TORSDO>
F 3

$$$$
=
 OpenBabel11052417133D

 30 34  0  0  1  0  0  0  0  0999 V2000
  190.3550  176.0360  145.4830 C   0  0  0  0  0  0  0  0  0  0  0  0
  192.4440  176.5080  146.8700 C   0  0  0  0  0  0  0  0  0  0  0  0
  192.6720  173.4820  143.0430 O   0  0  0  0  0  0  0  0  0  0  0  0
  189.7450  175.3740  144.3910 C   0  0  0  0  0  0  0  0  0  0  0  0
  189.5870  177.0870  146.2420 C   0  0  0  0  0  2  0  0  0  0  0  0
  186.2390  176.6720  144.6740 O   0  0  0  0  0  1  0  0  0  0  0  0
  189.0930  174.9310  141.6550 C   0  0  2  0  0  3  0  0  0  0  0  0
  187.6290  176.8040  144.7310 C   0  0  1  0  0  3  0  0  0  0  0  0
  190.5090  172.7230  141.6990 C   0  0  2  0  0  3  0  0  0  0  0  0
  192.4180  172.1180  142.7060 C   0  0  0  0  0  2  0  0  0  0  0  0
  188.0820  176.8780  146.1860 C   0  0  2  0  0  3  0  0  0  0  0  0
  188.2820  175.6100  144.0270 C   0  0  1  0  0  3  0  0  0  0  0  0
  193.9100  176.4900  146.8990 C   0  0  0  0  0  3  0  0  0  0  0  0
  188.5620  174.5410  140.2800 C   0  0  0  0  0  1  0  0  0  0  0  0
  191.8320  177.1310  147.7760 O   0  0  0  0  0  0  0  0  0  0  0  0
  191.8580  174.2640  143.8760 C   0  0  0  0  0  0  0  0  0  0  0  0
  194.5960  175.6700  146.1100 C   0  0  0  0  0  3  0  0  0  0  0  0
  191.7230  175.8100  145.7670 C   0  0  0  0  0  0  0  0  0  0  0  0
  190.4730  174.4390  143.6280 C   0  0  0  0  0  0  0  0  0  0  0  0
  191.0500  171.8310  142.6300 O   0  0  0  0  0  0  0  0  0  0  0  0
  189.7240  173.7920  142.4720 C   0  0  1  0  0  3  0  0  0  0  0  0
  186.7490  175.1800  142.2390 O   0  0  0  0  0  1  0  0  0  0  0  0
  193.9260  174.6570  145.2270 C   0  0  0  0  0  2  0  0  0  0  0  0
  192.4700  174.9470  144.9370 C   0  0  0  0  0  0  0  0  0  0  0  0
  188.0300  175.6740  142.5010 C   0  0  2  0  0  3  0  0  0  0  0  0
  189.6600  172.0140  140.8460 O   0  0  0  0  0  0  0  0  0  0  0  0
  190.4870  171.5440  139.8240 C   0  0  0  0  0  1  0  0  0  0  0  0
  187.3470  177.9650  146.9790 C   0  0  0  0  0  2  0  0  0  0  0  0
  184.9040  178.3960  147.2920 C   0  0  0  0  0  1  0  0  0  0  0  0
  186.0600  177.4760  147.6350 C   0  0  0  0  0  2  0  0  0  0  0  0
  1 18  1  0  0  0  0
  1  5  1  0  0  0  0
  2 13  1  0  0  0  0
  2 15  2  0  0  0  0
  3 16  1  0  0  0  0
  4  1  2  0  0  0  0
  7 14  1  6  0  0  0
  7 21  1  0  0  0  0
  7 25  1  0  0  0  0
  8  6  1  1  0  0  0
  8 11  1  0  0  0  0
  9 26  1  6  0  0  0
  9 21  1  0  0  0  0
  9 20  1  0  0  0  0
 10  3  1  0  0  0  0
 11  5  1  0  0  0  0
 11 28  1  6  0  0  0
 12  4  1  6  0  0  0
 12  8  1  0  0  0  0
 16 24  1  0  0  0  0
 17 13  2  0  0  0  0
 18  2  1  0  0  0  0
 19 16  2  0  0  0  0
 19  4  1  0  0  0  0
 20 10  1  0  0  0  0
 21 19  1  1  0  0  0
 23 17  1  0  0  0  0
 24 23  1  0  0  0  0
 24 18  2  0  0  0  0
 25 22  1  1  0  0  0
 25 12  1  0  0  0  0
 27 26  1  0  0  0  0
 28 30  1  0  0  0  0
 29 30  1  0  0  0  0
M  END
>  <MODEL>
9

>  <REMARK>
 VINA RESULT:      -7.1      2.070      5.878
  Name = 
  3 active torsions:
  status: ('A' for Active; 'I' for Inactive)
    1  A    between atoms: C_9  and  C_12
    2  A    between atoms: C_9  and  C_21
    3  A    between atoms: C_10  and  O_15
                            x       y       z     vdW  Elec       q    Type
                         _______ _______ _______ _____ _____    ______ ____

>  <TORSDO>
F 3

$$$$
