=
 OpenBabel11052420533D

 43 49  0  0  1  0  0  0  0  0999 V2000
  196.9480  173.4420  145.6780 C   0  0  0  0  0  2  0  0  0  0  0  0
  192.5340  174.4980  142.9310 C   0  0  2  0  0  3  0  0  0  0  0  0
  191.4040  176.8680  144.2130 C   0  0  1  0  0  3  0  0  0  0  0  0
  195.3610  173.8840  143.0110 C   0  0  0  0  0  0  0  0  0  0  0  0
  195.8670  174.4000  146.1740 C   0  0  0  0  0  2  0  0  0  0  0  0
  197.5320  173.9200  144.3520 C   0  0  0  0  0  2  0  0  0  0  0  0
  194.7960  174.9290  143.9630 C   0  0  2  0  0  3  0  0  0  0  0  0
  196.7590  173.3310  143.1770 C   0  0  0  0  0  2  0  0  0  0  0  0
  194.5970  174.2950  145.3420 C   0  0  0  0  0  2  0  0  0  0  0  0
  192.8700  176.4840  144.4820 C   0  0  0  0  0  2  0  0  0  0  0  0
  193.5030  175.5710  143.4280 C   0  0  2  0  0  3  0  0  0  0  0  0
  193.1910  173.7480  141.7690 C   0  0  0  0  0  2  0  0  0  0  0  0
  191.2600  175.1400  142.4660 C   0  0  0  0  0  0  0  0  0  0  0  0
  190.7980  176.2040  143.0570 N   0  0  0  0  0  0  0  0  0  0  0  0
  194.5960  173.3100  142.0700 C   0  0  0  0  0  3  0  0  0  0  0  0
  190.5260  176.6770  145.4490 C   0  0  2  0  0  3  0  0  0  0  0  0
  188.1940  176.6460  146.3740 C   0  0  0  0  0  0  0  0  0  0  0  0
  189.7350  174.8020  146.8370 C   0  0  0  0  0  3  0  0  0  0  0  0
  190.6730  175.2920  146.0220 C   0  0  0  0  0  3  0  0  0  0  0  0
  188.5160  175.5820  147.1200 C   0  0  0  0  0  3  0  0  0  0  0  0
  189.0520  177.0210  145.1890 C   0  0  0  0  0  2  0  0  0  0  0  0
  185.7410  177.0200  146.1530 C   0  0  2  0  0  3  0  0  0  0  0  0
  186.0470  176.7080  147.6050 C   0  0  0  0  0  2  0  0  0  0  0  0
  187.0410  177.5100  146.7820 C   0  0  1  0  0  3  0  0  0  0  0  0
  183.9610  178.3510  146.9900 O   0  0  0  0  0  0  0  0  0  0  0  0
  184.7880  178.1650  146.0560 C   0  0  0  0  0  0  0  0  0  0  0  0
  184.8470  179.0280  144.9440 O   0  0  0  0  0  0  0  0  0  0  0  0
  184.2510  178.3540  142.7070 C   0  0  0  0  0  3  0  0  0  0  0  0
  185.2420  178.6760  143.6440 C   0  0  0  0  0  0  0  0  0  0  0  0
  188.3660  178.2170  141.5410 C   0  0  0  0  0  1  0  0  0  0  0  0
  185.9380  177.9410  141.0200 C   0  0  0  0  0  3  0  0  0  0  0  0
  186.9360  178.2690  141.9440 C   0  0  0  0  0  0  0  0  0  0  0  0
  184.5950  177.9870  141.4010 C   0  0  0  0  0  3  0  0  0  0  0  0
  186.5910  178.6390  143.2480 C   0  0  0  0  0  3  0  0  0  0  0  0
  190.5520  174.5740  141.3950 O   0  0  0  0  0  0  0  0  0  0  0  0
  188.1440  174.5900  142.0340 C   0  0  0  0  0  2  0  0  0  0  0  0
  189.3340  173.8560  141.5590 C   0  0  1  0  0  0  0  0  0  0  0  0
  188.3530  174.3280  140.6640 O   0  0  0  0  0  0  0  0  0  0  0  0
  189.3600  172.3380  141.6110 C   0  0  0  0  0  2  0  0  0  0  0  0
  189.9750  171.8400  142.8790 C   0  0  0  0  0  0  0  0  0  0  0  0
  189.5890  172.3600  144.0450 C   0  0  0  0  0  2  0  0  0  0  0  0
  191.2370  171.0350  142.8110 C   0  0  0  0  0  2  0  0  0  0  0  0
  191.3780  170.4000  141.4420 C   0  0  0  0  0  1  0  0  0  0  0  0
  1  5  1  0  0  0  0
  2 12  1  6  0  0  0
  2 11  1  0  0  0  0
  3 10  1  1  0  0  0
  3 16  1  0  0  0  0
  4  8  1  0  0  0  0
  4  7  1  0  0  0  0
  6  1  1  0  0  0  0
  7  9  1  1  0  0  0
  8  6  1  0  0  0  0
  9  5  1  0  0  0  0
 11  7  1  0  0  0  0
 11 10  1  1  0  0  0
 12 15  1  0  0  0  0
 13  2  1  0  0  0  0
 13 14  2  0  0  0  0
 14  3  1  0  0  0  0
 15  4  2  0  0  0  0
 16 21  1  6  0  0  0
 16 19  1  0  0  0  0
 17 20  2  0  0  0  0
 18 20  1  0  0  0  0
 19 18  2  0  0  0  0
 21 17  1  0  0  0  0
 22 26  1  1  0  0  0
 22 24  1  0  0  0  0
 22 23  1  0  0  0  0
 24 17  1  6  0  0  0
 24 23  1  0  0  0  0
 26 25  2  0  0  0  0
 27 26  1  0  0  0  0
 28 29  1  0  0  0  0
 29 27  1  0  0  0  0
 30 32  1  0  0  0  0
 31 33  1  0  0  0  0
 31 32  2  0  0  0  0
 32 34  1  0  0  0  0
 33 28  2  0  0  0  0
 34 29  2  0  0  0  0
 35 37  1  0  0  0  0
 35 13  1  0  0  0  0
 37 39  1  1  0  0  0
 37 36  1  0  0  0  0
 38 37  1  0  0  0  0
 38 36  1  0  0  0  0
 39 40  1  0  0  0  0
 40 41  2  0  0  0  0
 42 40  1  0  0  0  0
 43 42  1  0  0  0  0
M  END
>  <MODEL>
1

>  <REMARK>
 VINA RESULT:      -8.7      0.000      0.000
  Name = 
  10 active torsions:
  status: ('A' for Active; 'I' for Inactive)
    1  A    between atoms: O_1  and  C_34
    2  A    between atoms: O_1  and  C_35
    3  A    between atoms: C_2  and  C_13
    4  A    between atoms: C_3  and  C_42
    5  A    between atoms: O_4  and  C_14
    6  A    between atoms: O_4  and  C_41
    7  A    between atoms: C_9  and  C_19
    8  A    between atoms: C_10  and  C_41
    9  A    between atoms: C_19  and  C_32
   10  A    between atoms: C_32  and  C_35
                            x       y       z     vdW  Elec       q    Type
                         _______ _______ _______ _____ _____    ______ ____

>  <TORSDO>
F 10

$$$$
=
 OpenBabel11052420533D

 43 49  0  0  1  0  0  0  0  0999 V2000
  183.7960  178.4690  143.3520 C   0  0  0  0  0  2  0  0  0  0  0  0
  188.3750  176.4290  145.0910 C   0  0  2  0  0  3  0  0  0  0  0  0
  190.0410  176.1880  142.7020 C   0  0  1  0  0  3  0  0  0  0  0  0
  186.2420  178.3730  145.3110 C   0  0  0  0  0  0  0  0  0  0  0  0
  184.8530  177.8800  142.4210 C   0  0  0  0  0  2  0  0  0  0  0  0
  184.3630  179.6450  144.1430 C   0  0  0  0  0  2  0  0  0  0  0  0
  186.8420  178.0740  143.9440 C   0  0  2  0  0  3  0  0  0  0  0  0
  184.9660  179.1690  145.4620 C   0  0  0  0  0  2  0  0  0  0  0  0
  185.9180  177.1130  143.1910 C   0  0  0  0  0  2  0  0  0  0  0  0
  188.7890  177.0820  142.6690 C   0  0  0  0  0  2  0  0  0  0  0  0
  188.2820  177.5360  144.0410 C   0  0  2  0  0  3  0  0  0  0  0  0
  188.0100  177.0180  146.4550 C   0  0  0  0  0  2  0  0  0  0  0  0
  189.7710  175.8810  145.1300 C   0  0  0  0  0  0  0  0  0  0  0  0
  190.4850  175.8040  144.0430 N   0  0  0  0  0  0  0  0  0  0  0  0
  186.7450  177.8260  146.4290 C   0  0  0  0  0  3  0  0  0  0  0  0
  189.8810  174.9460  141.8260 C   0  0  2  0  0  3  0  0  0  0  0  0
  190.4860  172.5360  141.4830 C   0  0  0  0  0  0  0  0  0  0  0  0
  188.1480  173.2530  141.3830 C   0  0  0  0  0  3  0  0  0  0  0  0
  188.4440  174.5000  141.7580 C   0  0  0  0  0  3  0  0  0  0  0  0
  189.2250  172.2840  141.1080 C   0  0  0  0  0  3  0  0  0  0  0  0
  190.8040  173.7960  142.2520 C   0  0  0  0  0  2  0  0  0  0  0  0
  192.5640  171.3570  142.1870 C   0  0  2  0  0  3  0  0  0  0  0  0
  191.5200  170.3150  141.8380 C   0  0  0  0  0  2  0  0  0  0  0  0
  191.5810  171.6110  141.0490 C   0  0  1  0  0  3  0  0  0  0  0  0
  194.2270  169.7670  141.5980 O   0  0  0  0  0  0  0  0  0  0  0  0
  193.8880  170.9810  141.6090 C   0  0  0  0  0  0  0  0  0  0  0  0
  194.7190  171.9810  141.0630 O   0  0  0  0  0  0  0  0  0  0  0  0
  194.3120  174.3220  141.4690 C   0  0  0  0  0  3  0  0  0  0  0  0
  195.0920  173.1790  141.6900 C   0  0  0  0  0  0  0  0  0  0  0  0
  197.7530  174.5870  144.0000 C   0  0  0  0  0  1  0  0  0  0  0  0
  195.7730  175.6310  142.8890 C   0  0  0  0  0  3  0  0  0  0  0  0
  196.5540  174.4950  143.1250 C   0  0  0  0  0  0  0  0  0  0  0  0
  194.6500  175.5440  142.0640 C   0  0  0  0  0  3  0  0  0  0  0  0
  196.2150  173.2730  142.5320 C   0  0  0  0  0  3  0  0  0  0  0  0
  190.3030  175.4320  146.3470 O   0  0  0  0  0  0  0  0  0  0  0  0
  191.4060  176.5710  148.2700 C   0  0  0  0  0  2  0  0  0  0  0  0
  191.4900  175.9680  146.9240 C   0  0  1  0  0  0  0  0  0  0  0  0
  191.8500  175.2460  148.0800 O   0  0  0  0  0  0  0  0  0  0  0  0
  192.6930  176.2480  146.0400 C   0  0  0  0  0  2  0  0  0  0  0  0
  193.6130  175.0720  145.9700 C   0  0  0  0  0  0  0  0  0  0  0  0
  194.8840  175.2090  146.3490 C   0  0  0  0  0  2  0  0  0  0  0  0
  193.2060  173.8740  145.1660 C   0  0  0  0  0  2  0  0  0  0  0  0
  194.1350  172.7120  145.4530 C   0  0  0  0  0  1  0  0  0  0  0  0
  1  6  1  0  0  0  0
  2 13  1  0  0  0  0
  2 12  1  1  0  0  0
  3 10  1  1  0  0  0
  3 14  1  0  0  0  0
  4  8  1  0  0  0  0
  4 15  2  0  0  0  0
  5  9  1  0  0  0  0
  5  1  1  0  0  0  0
  6  8  1  0  0  0  0
  7  9  1  1  0  0  0
  7 11  1  0  0  0  0
  7  4  1  0  0  0  0
 11 10  1  6  0  0  0
 11  2  1  0  0  0  0
 13 35  1  0  0  0  0
 14 13  2  0  0  0  0
 15 12  1  0  0  0  0
 16 19  1  1  0  0  0
 16 21  1  0  0  0  0
 16  3  1  0  0  0  0
 17 21  1  0  0  0  0
 18 19  2  0  0  0  0
 20 18  1  0  0  0  0
 20 17  2  0  0  0  0
 22 26  1  6  0  0  0
 23 22  1  0  0  0  0
 24 17  1  1  0  0  0
 24 23  1  0  0  0  0
 24 22  1  0  0  0  0
 25 26  2  0  0  0  0
 27 26  1  0  0  0  0
 27 29  1  0  0  0  0
 28 29  2  0  0  0  0
 28 33  1  0  0  0  0
 29 34  1  0  0  0  0
 31 32  1  0  0  0  0
 32 30  1  0  0  0  0
 33 31  2  0  0  0  0
 34 32  2  0  0  0  0
 35 37  1  0  0  0  0
 37 39  1  6  0  0  0
 37 38  1  0  0  0  0
 37 36  1  0  0  0  0
 38 36  1  0  0  0  0
 40 39  1  0  0  0  0
 40 41  2  0  0  0  0
 42 43  1  0  0  0  0
 42 40  1  0  0  0  0
M  END
>  <MODEL>
2

>  <REMARK>
 VINA RESULT:      -8.1      2.330      8.910
  Name = 
  10 active torsions:
  status: ('A' for Active; 'I' for Inactive)
    1  A    between atoms: O_1  and  C_34
    2  A    between atoms: O_1  and  C_35
    3  A    between atoms: C_2  and  C_13
    4  A    between atoms: C_3  and  C_42
    5  A    between atoms: O_4  and  C_14
    6  A    between atoms: O_4  and  C_41
    7  A    between atoms: C_9  and  C_19
    8  A    between atoms: C_10  and  C_41
    9  A    between atoms: C_19  and  C_32
   10  A    between atoms: C_32  and  C_35
                            x       y       z     vdW  Elec       q    Type
                         _______ _______ _______ _____ _____    ______ ____

>  <TORSDO>
F 10

$$$$
=
 OpenBabel11052420533D

 43 49  0  0  1  0  0  0  0  0999 V2000
  188.7190  173.8690  138.7040 C   0  0  0  0  0  2  0  0  0  0  0  0
  191.6850  173.0340  143.0230 C   0  0  2  0  0  3  0  0  0  0  0  0
  189.9600  173.7610  145.2670 C   0  0  1  0  0  3  0  0  0  0  0  0
  190.6350  172.1360  140.4810 C   0  0  0  0  0  0  0  0  0  0  0  0
  188.3490  174.4030  140.0860 C   0  0  0  0  0  2  0  0  0  0  0  0
  188.8030  172.3450  138.7160 C   0  0  0  0  0  2  0  0  0  0  0  0
  189.7030  172.8090  141.4780 C   0  0  2  0  0  3  0  0  0  0  0  0
  190.2190  171.8840  139.0490 C   0  0  0  0  0  2  0  0  0  0  0  0
  189.5030  174.2700  141.0690 C   0  0  0  0  0  2  0  0  0  0  0  0
  189.3400  173.5090  143.8810 C   0  0  0  0  0  2  0  0  0  0  0  0
  190.2020  172.6760  142.9290 C   0  0  2  0  0  3  0  0  0  0  0  0
  192.4810  172.0440  142.1700 C   0  0  0  0  0  2  0  0  0  0  0  0
  192.1370  172.9520  144.4520 C   0  0  0  0  0  0  0  0  0  0  0  0
  191.3310  173.2730  145.4230 N   0  0  0  0  0  0  0  0  0  0  0  0
  191.9120  171.8630  140.7920 C   0  0  0  0  0  3  0  0  0  0  0  0
  189.8760  175.2320  145.6740 C   0  0  2  0  0  3  0  0  0  0  0  0
  188.4580  177.0520  146.6580 C   0  0  0  0  0  0  0  0  0  0  0  0
  190.7250  176.6590  147.4940 C   0  0  0  0  0  3  0  0  0  0  0  0
  190.8860  175.5670  146.7400 C   0  0  0  0  0  3  0  0  0  0  0  0
  189.5220  177.4980  147.3390 C   0  0  0  0  0  3  0  0  0  0  0  0
  188.4600  175.6520  146.0930 C   0  0  0  0  0  2  0  0  0  0  0  0
  185.9920  177.2330  146.3610 C   0  0  2  0  0  3  0  0  0  0  0  0
  186.3860  178.0460  147.5790 C   0  0  0  0  0  2  0  0  0  0  0  0
  187.3190  177.9840  146.3820 C   0  0  1  0  0  3  0  0  0  0  0  0
  184.4540  179.0090  146.0090 O   0  0  0  0  0  0  0  0  0  0  0  0
  185.0180  177.9920  145.5220 C   0  0  0  0  0  0  0  0  0  0  0  0
  184.7700  177.5780  144.1980 O   0  0  0  0  0  0  0  0  0  0  0  0
  185.1430  177.7770  141.8250 C   0  0  0  0  0  3  0  0  0  0  0  0
  185.6640  177.6700  143.1210 C   0  0  0  0  0  0  0  0  0  0  0  0
  189.3850  177.7150  142.3820 C   0  0  0  0  0  1  0  0  0  0  0  0
  187.3790  177.8400  140.8980 C   0  0  0  0  0  3  0  0  0  0  0  0
  187.9110  177.7420  142.1880 C   0  0  0  0  0  0  0  0  0  0  0  0
  185.9950  177.8610  140.7170 C   0  0  0  0  0  3  0  0  0  0  0  0
  187.0600  177.6610  143.2950 C   0  0  0  0  0  3  0  0  0  0  0  0
  193.4480  172.5440  144.7390 O   0  0  0  0  0  0  0  0  0  0  0  0
  195.9070  172.9430  144.7410 C   0  0  0  0  0  2  0  0  0  0  0  0
  194.5310  173.4540  144.8990 C   0  0  1  0  0  0  0  0  0  0  0  0
  195.2380  173.6030  143.6900 O   0  0  0  0  0  0  0  0  0  0  0  0
  194.2910  174.7920  145.5770 C   0  0  0  0  0  2  0  0  0  0  0  0
  194.3010  175.9190  144.5950 C   0  0  0  0  0  0  0  0  0  0  0  0
  195.3630  176.7230  144.5300 C   0  0  0  0  0  2  0  0  0  0  0  0
  193.0130  176.3410  143.9560 C   0  0  0  0  0  2  0  0  0  0  0  0
  193.1200  176.2370  142.4480 C   0  0  0  0  0  1  0  0  0  0  0  0
  1  6  1  0  0  0  0
  1  5  1  0  0  0  0
  2 12  1  6  0  0  0
  2 13  1  0  0  0  0
  3 10  1  6  0  0  0
  3 14  1  0  0  0  0
  3 16  1  0  0  0  0
  4 15  2  0  0  0  0
  4  7  1  0  0  0  0
  5  9  1  0  0  0  0
  6  8  1  0  0  0  0
  7  9  1  6  0  0  0
  7 11  1  0  0  0  0
  8  4  1  0  0  0  0
 11  2  1  0  0  0  0
 11 10  1  1  0  0  0
 13 35  1  0  0  0  0
 13 14  2  0  0  0  0
 15 12  1  0  0  0  0
 16 21  1  1  0  0  0
 16 19  1  0  0  0  0
 17 20  2  0  0  0  0
 19 18  2  0  0  0  0
 20 18  1  0  0  0  0
 21 17  1  0  0  0  0
 22 26  1  6  0  0  0
 22 24  1  0  0  0  0
 22 23  1  0  0  0  0
 24 17  1  1  0  0  0
 24 23  1  0  0  0  0
 26 25  2  0  0  0  0
 27 26  1  0  0  0  0
 28 29  1  0  0  0  0
 29 34  2  0  0  0  0
 29 27  1  0  0  0  0
 31 32  2  0  0  0  0
 32 30  1  0  0  0  0
 32 34  1  0  0  0  0
 33 31  1  0  0  0  0
 33 28  2  0  0  0  0
 35 37  1  0  0  0  0
 36 37  1  0  0  0  0
 37 39  1  1  0  0  0
 38 36  1  0  0  0  0
 38 37  1  0  0  0  0
 40 39  1  0  0  0  0
 41 40  2  0  0  0  0
 42 40  1  0  0  0  0
 43 42  1  0  0  0  0
M  END
>  <MODEL>
3

>  <REMARK>
 VINA RESULT:      -8.0      1.882      4.878
  Name = 
  10 active torsions:
  status: ('A' for Active; 'I' for Inactive)
    1  A    between atoms: O_1  and  C_34
    2  A    between atoms: O_1  and  C_35
    3  A    between atoms: C_2  and  C_13
    4  A    between atoms: C_3  and  C_42
    5  A    between atoms: O_4  and  C_14
    6  A    between atoms: O_4  and  C_41
    7  A    between atoms: C_9  and  C_19
    8  A    between atoms: C_10  and  C_41
    9  A    between atoms: C_19  and  C_32
   10  A    between atoms: C_32  and  C_35
                            x       y       z     vdW  Elec       q    Type
                         _______ _______ _______ _____ _____    ______ ____

>  <TORSDO>
F 10

$$$$
=
 OpenBabel11052420533D

 43 49  0  0  1  0  0  0  0  0999 V2000
  190.1500  172.7510  137.2280 C   0  0  0  0  0  2  0  0  0  0  0  0
  191.6820  172.7800  142.3070 C   0  0  2  0  0  3  0  0  0  0  0  0
  189.3300  173.6750  143.7930 C   0  0  1  0  0  3  0  0  0  0  0  0
  191.4900  171.4480  139.7450 C   0  0  0  0  0  0  0  0  0  0  0  0
  189.3570  173.4440  138.3340 C   0  0  0  0  0  2  0  0  0  0  0  0
  190.2790  171.2560  137.5070 C   0  0  0  0  0  2  0  0  0  0  0  0
  190.2750  172.1780  140.3000 C   0  0  2  0  0  3  0  0  0  0  0  0
  191.5410  170.9640  138.3140 C   0  0  0  0  0  2  0  0  0  0  0  0
  190.1590  173.5460  139.6230 C   0  0  0  0  0  2  0  0  0  0  0  0
  189.1720  173.1800  142.3440 C   0  0  0  0  0  2  0  0  0  0  0  0
  190.3120  172.2930  141.8360 C   0  0  2  0  0  3  0  0  0  0  0  0
  192.7350  171.7470  141.8970 C   0  0  0  0  0  2  0  0  0  0  0  0
  191.6790  172.9380  143.7990 C   0  0  0  0  0  0  0  0  0  0  0  0
  190.6040  173.3270  144.4240 N   0  0  0  0  0  0  0  0  0  0  0  0
  192.6200  171.3280  140.4600 C   0  0  0  0  0  3  0  0  0  0  0  0
  189.0750  175.1770  143.9160 C   0  0  2  0  0  3  0  0  0  0  0  0
  188.4630  177.0770  145.4350 C   0  0  0  0  0  0  0  0  0  0  0  0
  190.4160  177.2430  143.9680 C   0  0  0  0  0  3  0  0  0  0  0  0
  190.3030  175.9750  143.5620 C   0  0  0  0  0  3  0  0  0  0  0  0
  189.3780  177.8430  144.8270 C   0  0  0  0  0  3  0  0  0  0  0  0
  188.5270  175.5750  145.2940 C   0  0  0  0  0  2  0  0  0  0  0  0
  186.0030  177.0580  145.8240 C   0  0  2  0  0  3  0  0  0  0  0  0
  186.6950  176.7410  147.1350 C   0  0  0  0  0  2  0  0  0  0  0  0
  187.3300  177.7250  146.1680 C   0  0  1  0  0  3  0  0  0  0  0  0
  184.5240  178.2830  147.2200 O   0  0  0  0  0  0  0  0  0  0  0  0
  184.8970  178.0360  146.0420 C   0  0  0  0  0  0  0  0  0  0  0  0
  184.3110  178.6830  144.9350 O   0  0  0  0  0  0  0  0  0  0  0  0
  183.6250  178.4280  142.6380 C   0  0  0  0  0  3  0  0  0  0  0  0
  184.6540  178.4910  143.5880 C   0  0  0  0  0  0  0  0  0  0  0  0
  187.6880  178.0060  141.3630 C   0  0  0  0  0  1  0  0  0  0  0  0
  185.2410  178.0890  140.8660 C   0  0  0  0  0  3  0  0  0  0  0  0
  186.2760  178.1580  141.8040 C   0  0  0  0  0  0  0  0  0  0  0  0
  183.9150  178.2280  141.2830 C   0  0  0  0  0  3  0  0  0  0  0  0
  185.9870  178.3620  143.1580 C   0  0  0  0  0  3  0  0  0  0  0  0
  192.8520  172.6830  144.5240 O   0  0  0  0  0  0  0  0  0  0  0  0
  195.0720  173.2710  145.4920 C   0  0  0  0  0  2  0  0  0  0  0  0
  193.8450  173.6730  144.7750 C   0  0  1  0  0  0  0  0  0  0  0  0
  195.0360  173.3690  144.0860 O   0  0  0  0  0  0  0  0  0  0  0  0
  193.4850  175.1430  144.6500 C   0  0  0  0  0  2  0  0  0  0  0  0
  193.1470  175.7430  145.9760 C   0  0  0  0  0  0  0  0  0  0  0  0
  194.0090  176.5790  146.5570 C   0  0  0  0  0  2  0  0  0  0  0  0
  192.0360  175.1460  146.7860 C   0  0  0  0  0  2  0  0  0  0  0  0
  191.4800  176.1750  147.7490 C   0  0  0  0  0  1  0  0  0  0  0  0
  1  6  1  0  0  0  0
  1  5  1  0  0  0  0
  2 12  1  1  0  0  0
  2 13  1  0  0  0  0
  3 10  1  6  0  0  0
  3 16  1  0  0  0  0
  3 14  1  0  0  0  0
  4  7  1  0  0  0  0
  4 15  2  0  0  0  0
  5  9  1  0  0  0  0
  6  8  1  0  0  0  0
  7  9  1  6  0  0  0
  7 11  1  0  0  0  0
  8  4  1  0  0  0  0
 11  2  1  0  0  0  0
 11 10  1  6  0  0  0
 13 14  2  0  0  0  0
 13 35  1  0  0  0  0
 15 12  1  0  0  0  0
 16 19  1  1  0  0  0
 16 21  1  0  0  0  0
 18 20  1  0  0  0  0
 19 18  2  0  0  0  0
 20 17  2  0  0  0  0
 21 17  1  0  0  0  0
 22 26  1  1  0  0  0
 22 24  1  0  0  0  0
 22 23  1  0  0  0  0
 24 17  1  6  0  0  0
 24 23  1  0  0  0  0
 26 25  2  0  0  0  0
 27 26  1  0  0  0  0
 28 29  1  0  0  0  0
 29 27  1  0  0  0  0
 30 32  1  0  0  0  0
 31 33  1  0  0  0  0
 31 32  2  0  0  0  0
 32 34  1  0  0  0  0
 33 28  2  0  0  0  0
 34 29  2  0  0  0  0
 35 37  1  0  0  0  0
 37 39  1  1  0  0  0
 37 36  1  0  0  0  0
 38 37  1  0  0  0  0
 38 36  1  0  0  0  0
 39 40  1  0  0  0  0
 40 41  2  0  0  0  0
 40 42  1  0  0  0  0
 42 43  1  0  0  0  0
M  END
>  <MODEL>
4

>  <REMARK>
 VINA RESULT:      -8.0      2.059      4.943
  Name = 
  10 active torsions:
  status: ('A' for Active; 'I' for Inactive)
    1  A    between atoms: O_1  and  C_34
    2  A    between atoms: O_1  and  C_35
    3  A    between atoms: C_2  and  C_13
    4  A    between atoms: C_3  and  C_42
    5  A    between atoms: O_4  and  C_14
    6  A    between atoms: O_4  and  C_41
    7  A    between atoms: C_9  and  C_19
    8  A    between atoms: C_10  and  C_41
    9  A    between atoms: C_19  and  C_32
   10  A    between atoms: C_32  and  C_35
                            x       y       z     vdW  Elec       q    Type
                         _______ _______ _______ _____ _____    ______ ____

>  <TORSDO>
F 10

$$$$
=
 OpenBabel11052420533D

 43 49  0  0  1  0  0  0  0  0999 V2000
  192.7530  175.1060  146.8160 C   0  0  0  0  0  2  0  0  0  0  0  0
  188.8650  176.7410  143.5970 C   0  0  2  0  0  3  0  0  0  0  0  0
  188.1660  174.3870  142.0130 C   0  0  1  0  0  3  0  0  0  0  0  0
  190.0300  176.5480  146.2400 C   0  0  0  0  0  0  0  0  0  0  0  0
  192.2880  174.3100  145.5990 C   0  0  0  0  0  2  0  0  0  0  0  0
  191.6090  175.3000  147.8080 C   0  0  0  0  0  2  0  0  0  0  0  0
  190.0000  175.3180  145.3450 C   0  0  2  0  0  3  0  0  0  0  0  0
  190.8480  176.5880  147.5110 C   0  0  0  0  0  2  0  0  0  0  0  0
  191.3770  175.1340  144.7010 C   0  0  0  0  0  2  0  0  0  0  0  0
  188.9830  174.2180  143.3070 C   0  0  0  0  0  2  0  0  0  0  0  0
  188.8740  175.3820  144.2960 C   0  0  2  0  0  3  0  0  0  0  0  0
  188.5850  177.8250  144.6420 C   0  0  0  0  0  2  0  0  0  0  0  0
  187.7980  176.7630  142.5430 C   0  0  0  0  0  0  0  0  0  0  0  0
  187.5080  175.6870  141.8690 N   0  0  0  0  0  0  0  0  0  0  0  0
  189.4420  177.6960  145.8680 C   0  0  0  0  0  3  0  0  0  0  0  0
  188.9950  174.0760  140.7680 C   0  0  2  0  0  3  0  0  0  0  0  0
  191.1650  173.2020  139.8640 C   0  0  0  0  0  0  0  0  0  0  0  0
  189.0350  172.3590  139.0020 C   0  0  0  0  0  3  0  0  0  0  0  0
  188.3230  173.0410  139.9030 C   0  0  0  0  0  3  0  0  0  0  0  0
  190.4920  172.5590  138.9000 C   0  0  0  0  0  3  0  0  0  0  0  0
  190.4390  173.6750  141.1000 C   0  0  0  0  0  2  0  0  0  0  0  0
  193.5050  172.5940  140.4650 C   0  0  2  0  0  3  0  0  0  0  0  0
  193.3230  172.3730  138.9770 C   0  0  0  0  0  2  0  0  0  0  0  0
  192.6120  173.5300  139.6580 C   0  0  1  0  0  3  0  0  0  0  0  0
  195.8320  172.9040  140.1070 O   0  0  0  0  0  0  0  0  0  0  0  0
  194.8040  173.2770  140.7360 C   0  0  0  0  0  0  0  0  0  0  0  0
  194.8540  174.3380  141.6610 O   0  0  0  0  0  0  0  0  0  0  0  0
  195.5710  175.4290  143.6880 C   0  0  0  0  0  3  0  0  0  0  0  0
  195.2560  174.2480  143.0030 C   0  0  0  0  0  0  0  0  0  0  0  0
  195.8810  171.6770  145.7210 C   0  0  0  0  0  1  0  0  0  0  0  0
  196.0880  174.1660  145.6880 C   0  0  0  0  0  3  0  0  0  0  0  0
  195.7690  172.9810  145.0170 C   0  0  0  0  0  0  0  0  0  0  0  0
  195.9860  175.3900  145.0250 C   0  0  0  0  0  3  0  0  0  0  0  0
  195.3500  173.0200  143.6830 C   0  0  0  0  0  3  0  0  0  0  0  0
  187.1200  177.9600  142.2700 O   0  0  0  0  0  0  0  0  0  0  0  0
  185.1580  178.6660  140.9060 C   0  0  0  0  0  2  0  0  0  0  0  0
  185.7060  178.0410  142.1270 C   0  0  1  0  0  0  0  0  0  0  0  0
  185.2720  177.2660  141.0330 O   0  0  0  0  0  0  0  0  0  0  0  0
  184.8170  177.8420  143.3420 C   0  0  0  0  0  2  0  0  0  0  0  0
  185.1460  178.8110  144.4310 C   0  0  0  0  0  0  0  0  0  0  0  0
  185.5650  180.0370  144.1140 C   0  0  0  0  0  2  0  0  0  0  0  0
  185.3370  178.3020  145.8280 C   0  0  0  0  0  2  0  0  0  0  0  0
  185.4400  176.7910  145.8240 C   0  0  0  0  0  1  0  0  0  0  0  0
  1  6  1  0  0  0  0
  2 11  1  0  0  0  0
  2 12  1  1  0  0  0
  3 10  1  1  0  0  0
  4  8  1  0  0  0  0
  5  1  1  0  0  0  0
  7  9  1  6  0  0  0
  7  4  1  0  0  0  0
  8  6  1  0  0  0  0
  9  5  1  0  0  0  0
 11 10  1  6  0  0  0
 11  7  1  0  0  0  0
 12 15  1  0  0  0  0
 13  2  1  0  0  0  0
 14  3  1  0  0  0  0
 14 13  2  0  0  0  0
 15  4  2  0  0  0  0
 16 19  1  1  0  0  0
 16 21  1  0  0  0  0
 16  3  1  0  0  0  0
 17 21  1  0  0  0  0
 18 19  2  0  0  0  0
 20 18  1  0  0  0  0
 20 17  2  0  0  0  0
 22 26  1  6  0  0  0
 23 24  1  0  0  0  0
 23 22  1  0  0  0  0
 24 17  1  1  0  0  0
 24 22  1  0  0  0  0
 25 26  2  0  0  0  0
 26 27  1  0  0  0  0
 27 29  1  0  0  0  0
 28 33  1  0  0  0  0
 29 34  1  0  0  0  0
 29 28  2  0  0  0  0
 32 31  1  0  0  0  0
 32 30  1  0  0  0  0
 33 31  2  0  0  0  0
 34 32  2  0  0  0  0
 35 13  1  0  0  0  0
 36 38  1  0  0  0  0
 36 37  1  0  0  0  0
 37 35  1  0  0  0  0
 37 39  1  1  0  0  0
 38 37  1  0  0  0  0
 39 40  1  0  0  0  0
 40 42  1  0  0  0  0
 41 40  2  0  0  0  0
 43 42  1  0  0  0  0
M  END
>  <MODEL>
5

>  <REMARK>
 VINA RESULT:      -7.9      2.154      8.368
  Name = 
  10 active torsions:
  status: ('A' for Active; 'I' for Inactive)
    1  A    between atoms: O_1  and  C_34
    2  A    between atoms: O_1  and  C_35
    3  A    between atoms: C_2  and  C_13
    4  A    between atoms: C_3  and  C_42
    5  A    between atoms: O_4  and  C_14
    6  A    between atoms: O_4  and  C_41
    7  A    between atoms: C_9  and  C_19
    8  A    between atoms: C_10  and  C_41
    9  A    between atoms: C_19  and  C_32
   10  A    between atoms: C_32  and  C_35
                            x       y       z     vdW  Elec       q    Type
                         _______ _______ _______ _____ _____    ______ ____

>  <TORSDO>
F 10

$$$$
=
 OpenBabel11052420533D

 43 49  0  0  1  0  0  0  0  0999 V2000
  195.5340  174.7500  137.5030 C   0  0  0  0  0  2  0  0  0  0  0  0
  194.9390  174.9370  142.7710 C   0  0  2  0  0  3  0  0  0  0  0  0
  193.5410  172.4630  143.4540 C   0  0  1  0  0  3  0  0  0  0  0  0
  196.6040  175.1840  140.4170 C   0  0  0  0  0  0  0  0  0  0  0  0
  194.5880  173.8270  138.2680 C   0  0  0  0  0  2  0  0  0  0  0  0
  196.9740  174.5610  137.9700 C   0  0  0  0  0  2  0  0  0  0  0  0
  195.6520  174.0030  140.5380 C   0  0  2  0  0  3  0  0  0  0  0  0
  197.3000  175.5140  139.1160 C   0  0  0  0  0  2  0  0  0  0  0  0
  194.3970  174.2840  139.7070 C   0  0  0  0  0  2  0  0  0  0  0  0
  194.2240  172.5970  142.0820 C   0  0  0  0  0  2  0  0  0  0  0  0
  195.3140  173.6700  142.0030 C   0  0  2  0  0  3  0  0  0  0  0  0
  196.1470  175.8770  142.7790 C   0  0  0  0  0  2  0  0  0  0  0  0
  194.5610  174.5840  144.1800 C   0  0  0  0  0  0  0  0  0  0  0  0
  193.9500  173.4640  144.4420 N   0  0  0  0  0  0  0  0  0  0  0  0
  196.7590  176.0620  141.4210 C   0  0  0  0  0  3  0  0  0  0  0  0
  192.0180  172.4320  143.3370 C   0  0  2  0  0  3  0  0  0  0  0  0
  189.9560  173.6210  142.5440 C   0  0  0  0  0  0  0  0  0  0  0  0
  190.3310  171.2720  141.9660 C   0  0  0  0  0  3  0  0  0  0  0  0
  191.5530  171.2650  142.5060 C   0  0  0  0  0  3  0  0  0  0  0  0
  189.4600  172.4530  142.1160 C   0  0  0  0  0  3  0  0  0  0  0  0
  191.4350  173.7550  142.8180 C   0  0  0  0  0  2  0  0  0  0  0  0
  188.8070  175.6210  141.6020 C   0  0  2  0  0  3  0  0  0  0  0  0
  187.7510  174.6160  142.0180 C   0  0  0  0  0  2  0  0  0  0  0  0
  189.0220  174.7540  142.8390 C   0  0  1  0  0  3  0  0  0  0  0  0
  189.3230  177.8310  142.3020 O   0  0  0  0  0  0  0  0  0  0  0  0
  188.4170  176.9950  142.0350 C   0  0  0  0  0  0  0  0  0  0  0  0
  187.0530  177.3410  142.1100 O   0  0  0  0  0  0  0  0  0  0  0  0
  186.0030  179.2060  143.2180 C   0  0  0  0  0  3  0  0  0  0  0  0
  186.3920  177.8600  143.2340 C   0  0  0  0  0  0  0  0  0  0  0  0
  185.1690  176.8210  146.6710 C   0  0  0  0  0  1  0  0  0  0  0  0
  185.0780  178.9960  145.4460 C   0  0  0  0  0  3  0  0  0  0  0  0
  185.4540  177.6490  145.4700 C   0  0  0  0  0  0  0  0  0  0  0  0
  185.3490  179.7740  144.3190 C   0  0  0  0  0  3  0  0  0  0  0  0
  186.1040  177.0810  144.3680 C   0  0  0  0  0  3  0  0  0  0  0  0
  194.8520  175.4790  145.2190 O   0  0  0  0  0  0  0  0  0  0  0  0
  194.2160  177.2210  146.8840 C   0  0  0  0  0  2  0  0  0  0  0  0
  193.9930  176.5550  145.5850 C   0  0  1  0  0  0  0  0  0  0  0  0
  194.7180  177.7590  145.6810 O   0  0  0  0  0  0  0  0  0  0  0  0
  192.6790  176.7490  144.8470 C   0  0  0  0  0  2  0  0  0  0  0  0
  191.5100  176.3520  145.6890 C   0  0  0  0  0  0  0  0  0  0  0  0
  191.4940  175.1500  146.2660 C   0  0  0  0  0  2  0  0  0  0  0  0
  190.2410  177.1440  145.5950 C   0  0  0  0  0  2  0  0  0  0  0  0
  189.1100  176.4010  146.2760 C   0  0  0  0  0  1  0  0  0  0  0  0
  1  6  1  0  0  0  0
  1  5  1  0  0  0  0
  2 12  1  1  0  0  0
  2 13  1  0  0  0  0
  3 10  1  6  0  0  0
  3 14  1  0  0  0  0
  4  7  1  0  0  0  0
  4 15  2  0  0  0  0
  5  9  1  0  0  0  0
  6  8  1  0  0  0  0
  7  9  1  6  0  0  0
  7 11  1  0  0  0  0
  8  4  1  0  0  0  0
 11 10  1  6  0  0  0
 11  2  1  0  0  0  0
 13 14  2  0  0  0  0
 13 35  1  0  0  0  0
 15 12  1  0  0  0  0
 16 19  1  6  0  0  0
 16  3  1  0  0  0  0
 17 21  1  0  0  0  0
 18 20  1  0  0  0  0
 18 19  2  0  0  0  0
 20 17  2  0  0  0  0
 21 16  1  0  0  0  0
 22 23  1  0  0  0  0
 22 26  1  1  0  0  0
 22 24  1  0  0  0  0
 23 24  1  0  0  0  0
 24 17  1  6  0  0  0
 26 27  1  0  0  0  0
 26 25  2  0  0  0  0
 27 29  1  0  0  0  0
 28 29  2  0  0  0  0
 28 33  1  0  0  0  0
 29 34  1  0  0  0  0
 31 32  1  0  0  0  0
 32 30  1  0  0  0  0
 33 31  2  0  0  0  0
 34 32  2  0  0  0  0
 35 37  1  0  0  0  0
 37 39  1  6  0  0  0
 37 38  1  0  0  0  0
 37 36  1  0  0  0  0
 38 36  1  0  0  0  0
 39 40  1  0  0  0  0
 40 41  2  0  0  0  0
 42 40  1  0  0  0  0
 42 43  1  0  0  0  0
M  END
>  <MODEL>
6

>  <REMARK>
 VINA RESULT:      -7.8      2.568      5.425
  Name = 
  10 active torsions:
  status: ('A' for Active; 'I' for Inactive)
    1  A    between atoms: O_1  and  C_34
    2  A    between atoms: O_1  and  C_35
    3  A    between atoms: C_2  and  C_13
    4  A    between atoms: C_3  and  C_42
    5  A    between atoms: O_4  and  C_14
    6  A    between atoms: O_4  and  C_41
    7  A    between atoms: C_9  and  C_19
    8  A    between atoms: C_10  and  C_41
    9  A    between atoms: C_19  and  C_32
   10  A    between atoms: C_32  and  C_35
                            x       y       z     vdW  Elec       q    Type
                         _______ _______ _______ _____ _____    ______ ____

>  <TORSDO>
F 10

$$$$
=
 OpenBabel11052420533D

 43 49  0  0  1  0  0  0  0  0999 V2000
  185.3040  179.5010  144.9990 C   0  0  0  0  0  2  0  0  0  0  0  0
  188.9490  176.1850  143.0350 C   0  0  2  0  0  3  0  0  0  0  0  0
  189.7160  174.4950  145.2920 C   0  0  1  0  0  3  0  0  0  0  0  0
  186.3600  177.4670  142.8610 C   0  0  0  0  0  0  0  0  0  0  0  0
  186.2130  178.6470  145.8790 C   0  0  0  0  0  2  0  0  0  0  0  0
  184.4470  178.6250  144.0900 C   0  0  0  0  0  2  0  0  0  0  0  0
  186.8180  176.8870  144.1910 C   0  0  2  0  0  3  0  0  0  0  0  0
  185.1530  178.3720  142.7610 C   0  0  0  0  0  2  0  0  0  0  0  0
  187.3440  178.0190  145.0770 C   0  0  0  0  0  2  0  0  0  0  0  0
  188.4200  175.3220  145.3670 C   0  0  0  0  0  2  0  0  0  0  0  0
  187.8540  175.7610  144.0140 C   0  0  2  0  0  3  0  0  0  0  0  0
  188.3090  176.4410  141.6680 C   0  0  0  0  0  2  0  0  0  0  0  0
  189.9760  175.0970  142.9190 C   0  0  0  0  0  0  0  0  0  0  0  0
  190.2780  174.3570  143.9470 N   0  0  0  0  0  0  0  0  0  0  0  0
  187.0890  177.3140  141.7440 C   0  0  0  0  0  3  0  0  0  0  0  0
  190.7820  175.0100  146.2580 C   0  0  2  0  0  3  0  0  0  0  0  0
  192.9240  176.2890  146.5200 C   0  0  0  0  0  0  0  0  0  0  0  0
  190.9920  176.8040  147.9330 C   0  0  0  0  0  3  0  0  0  0  0  0
  190.1960  175.9620  147.2680 C   0  0  0  0  0  3  0  0  0  0  0  0
  192.4340  176.8600  147.6280 C   0  0  0  0  0  3  0  0  0  0  0  0
  191.9860  175.6310  145.5360 C   0  0  0  0  0  2  0  0  0  0  0  0
  194.7510  176.0410  144.8450 C   0  0  2  0  0  3  0  0  0  0  0  0
  194.8800  177.4060  145.4920 C   0  0  0  0  0  2  0  0  0  0  0  0
  194.4070  176.2230  146.3200 C   0  0  1  0  0  3  0  0  0  0  0  0
  196.9110  175.8180  143.8820 O   0  0  0  0  0  0  0  0  0  0  0  0
  196.0890  175.3880  144.7370 C   0  0  0  0  0  0  0  0  0  0  0  0
  196.4190  174.3290  145.6060 O   0  0  0  0  0  0  0  0  0  0  0  0
  196.7130  171.9740  146.0300 C   0  0  0  0  0  3  0  0  0  0  0  0
  195.9180  173.0200  145.5420 C   0  0  0  0  0  0  0  0  0  0  0  0
  192.8650  171.0910  144.3790 C   0  0  0  0  0  1  0  0  0  0  0  0
  195.0050  170.3610  145.4400 C   0  0  0  0  0  3  0  0  0  0  0  0
  194.2000  171.3970  144.9580 C   0  0  0  0  0  0  0  0  0  0  0  0
  196.2610  170.6500  145.9790 C   0  0  0  0  0  3  0  0  0  0  0  0
  194.6500  172.7210  145.0120 C   0  0  0  0  0  3  0  0  0  0  0  0
  190.6280  174.8890  141.6950 O   0  0  0  0  0  0  0  0  0  0  0  0
  192.1090  173.4920  140.2590 C   0  0  0  0  0  2  0  0  0  0  0  0
  190.9840  173.5990  141.2100 C   0  0  1  0  0  0  0  0  0  0  0  0
  192.2800  173.2470  141.6370 O   0  0  0  0  0  0  0  0  0  0  0  0
  190.0090  172.4440  141.3670 C   0  0  0  0  0  2  0  0  0  0  0  0
  188.6560  172.7880  140.8330 C   0  0  0  0  0  0  0  0  0  0  0  0
  187.6170  172.8440  141.6660 C   0  0  0  0  0  2  0  0  0  0  0  0
  188.4170  172.7210  139.3550 C   0  0  0  0  0  2  0  0  0  0  0  0
  188.2880  174.1180  138.7830 C   0  0  0  0  0  1  0  0  0  0  0  0
  1  5  1  0  0  0  0
  2 12  1  6  0  0  0
  2 11  1  0  0  0  0
  3 10  1  6  0  0  0
  3 16  1  0  0  0  0
  4  7  1  0  0  0  0
  6  1  1  0  0  0  0
  7  9  1  1  0  0  0
  8  4  1  0  0  0  0
  8  6  1  0  0  0  0
  9  5  1  0  0  0  0
 11  7  1  0  0  0  0
 11 10  1  1  0  0  0
 12 15  1  0  0  0  0
 13  2  1  0  0  0  0
 13 14  2  0  0  0  0
 14  3  1  0  0  0  0
 15  4  2  0  0  0  0
 16 21  1  6  0  0  0
 16 19  1  0  0  0  0
 17 20  2  0  0  0  0
 19 18  2  0  0  0  0
 20 18  1  0  0  0  0
 21 17  1  0  0  0  0
 22 26  1  1  0  0  0
 22 23  1  0  0  0  0
 22 24  1  0  0  0  0
 23 24  1  0  0  0  0
 24 17  1  6  0  0  0
 25 26  2  0  0  0  0
 26 27  1  0  0  0  0
 29 27  1  0  0  0  0
 29 28  2  0  0  0  0
 30 32  1  0  0  0  0
 31 33  2  0  0  0  0
 32 34  2  0  0  0  0
 32 31  1  0  0  0  0
 33 28  1  0  0  0  0
 34 29  1  0  0  0  0
 35 13  1  0  0  0  0
 36 37  1  0  0  0  0
 36 38  1  0  0  0  0
 37 39  1  6  0  0  0
 37 38  1  0  0  0  0
 37 35  1  0  0  0  0
 40 39  1  0  0  0  0
 40 41  2  0  0  0  0
 42 40  1  0  0  0  0
 43 42  1  0  0  0  0
M  END
>  <MODEL>
7

>  <REMARK>
 VINA RESULT:      -7.8      2.543      8.279
  Name = 
  10 active torsions:
  status: ('A' for Active; 'I' for Inactive)
    1  A    between atoms: O_1  and  C_34
    2  A    between atoms: O_1  and  C_35
    3  A    between atoms: C_2  and  C_13
    4  A    between atoms: C_3  and  C_42
    5  A    between atoms: O_4  and  C_14
    6  A    between atoms: O_4  and  C_41
    7  A    between atoms: C_9  and  C_19
    8  A    between atoms: C_10  and  C_41
    9  A    between atoms: C_19  and  C_32
   10  A    between atoms: C_32  and  C_35
                            x       y       z     vdW  Elec       q    Type
                         _______ _______ _______ _____ _____    ______ ____

>  <TORSDO>
F 10

$$$$
=
 OpenBabel11052420533D

 43 49  0  0  1  0  0  0  0  0999 V2000
  185.4950  179.1730  147.2370 C   0  0  0  0  0  2  0  0  0  0  0  0
  188.5400  176.3150  143.9650 C   0  0  2  0  0  3  0  0  0  0  0  0
  189.9950  174.4780  145.7110 C   0  0  1  0  0  3  0  0  0  0  0  0
  185.9640  177.4260  144.6760 C   0  0  0  0  0  0  0  0  0  0  0  0
  186.6530  178.3050  147.7220 C   0  0  0  0  0  2  0  0  0  0  0  0
  184.4460  178.3280  146.5180 C   0  0  0  0  0  2  0  0  0  0  0  0
  186.8110  176.7570  145.7490 C   0  0  2  0  0  3  0  0  0  0  0  0
  184.7450  178.2500  145.0240 C   0  0  0  0  0  2  0  0  0  0  0  0
  187.5260  177.8340  146.5680 C   0  0  0  0  0  2  0  0  0  0  0  0
  188.7460  175.2040  146.2420 C   0  0  0  0  0  2  0  0  0  0  0  0
  187.7940  175.7270  145.1620 C   0  0  2  0  0  3  0  0  0  0  0  0
  187.5220  176.6540  142.8740 C   0  0  0  0  0  2  0  0  0  0  0  0
  189.5310  175.3160  143.4430 C   0  0  0  0  0  0  0  0  0  0  0  0
  190.1480  174.5060  144.2550 N   0  0  0  0  0  0  0  0  0  0  0  0
  186.3430  177.4290  143.3880 C   0  0  0  0  0  3  0  0  0  0  0  0
  191.2740  174.9740  146.3840 C   0  0  2  0  0  3  0  0  0  0  0  0
  193.4660  176.1600  146.0950 C   0  0  0  0  0  0  0  0  0  0  0  0
  191.9350  176.8070  147.8910 C   0  0  0  0  0  3  0  0  0  0  0  0
  190.9750  175.9830  147.4620 C   0  0  0  0  0  3  0  0  0  0  0  0
  193.2680  176.7870  147.2610 C   0  0  0  0  0  3  0  0  0  0  0  0
  192.3020  175.5160  145.3800 C   0  0  0  0  0  2  0  0  0  0  0  0
  194.9040  176.3170  144.0670 C   0  0  2  0  0  3  0  0  0  0  0  0
  195.3700  177.3600  145.0640 C   0  0  0  0  0  2  0  0  0  0  0  0
  194.8580  176.0190  145.5620 C   0  0  1  0  0  3  0  0  0  0  0  0
  197.1580  176.2380  143.3240 O   0  0  0  0  0  0  0  0  0  0  0  0
  196.0740  175.6110  143.4670 C   0  0  0  0  0  0  0  0  0  0  0  0
  195.9550  174.2560  143.0990 O   0  0  0  0  0  0  0  0  0  0  0  0
  196.9980  173.0110  144.8810 C   0  0  0  0  0  3  0  0  0  0  0  0
  195.9390  173.1590  143.9740 C   0  0  0  0  0  0  0  0  0  0  0  0
  193.8450  170.1190  144.8460 C   0  0  0  0  0  1  0  0  0  0  0  0
  196.0040  170.9840  145.7560 C   0  0  0  0  0  3  0  0  0  0  0  0
  194.9380  171.1260  144.8620 C   0  0  0  0  0  0  0  0  0  0  0  0
  197.0330  171.9280  145.7680 C   0  0  0  0  0  3  0  0  0  0  0  0
  194.9020  172.2100  143.9780 C   0  0  0  0  0  3  0  0  0  0  0  0
  189.8080  175.2700  142.0690 O   0  0  0  0  0  0  0  0  0  0  0  0
  188.2770  173.4140  141.4210 C   0  0  0  0  0  2  0  0  0  0  0  0
  189.5630  174.1220  141.2630 C   0  0  1  0  0  0  0  0  0  0  0  0
  188.4830  174.3510  140.3870 O   0  0  0  0  0  0  0  0  0  0  0  0
  190.7230  173.4420  140.5570 C   0  0  0  0  0  2  0  0  0  0  0  0
  191.8090  173.0680  141.5130 C   0  0  0  0  0  0  0  0  0  0  0  0
  191.6710  171.9780  142.2690 C   0  0  0  0  0  2  0  0  0  0  0  0
  192.8560  174.0830  141.8620 C   0  0  0  0  0  2  0  0  0  0  0  0
  193.4560  174.6690  140.6000 C   0  0  0  0  0  1  0  0  0  0  0  0
  1  5  1  0  0  0  0
  2 12  1  6  0  0  0
  2 11  1  0  0  0  0
  3 10  1  6  0  0  0
  3 16  1  0  0  0  0
  4  8  1  0  0  0  0
  4  7  1  0  0  0  0
  6  1  1  0  0  0  0
  7  9  1  6  0  0  0
  8  6  1  0  0  0  0
  9  5  1  0  0  0  0
 11  7  1  0  0  0  0
 11 10  1  1  0  0  0
 12 15  1  0  0  0  0
 13  2  1  0  0  0  0
 13 14  2  0  0  0  0
 14  3  1  0  0  0  0
 15  4  2  0  0  0  0
 16 21  1  6  0  0  0
 16 19  1  0  0  0  0
 17 20  2  0  0  0  0
 19 18  2  0  0  0  0
 20 18  1  0  0  0  0
 21 17  1  0  0  0  0
 22 26  1  6  0  0  0
 22 23  1  0  0  0  0
 22 24  1  0  0  0  0
 23 24  1  0  0  0  0
 24 17  1  1  0  0  0
 25 26  2  0  0  0  0
 27 26  1  0  0  0  0
 27 29  1  0  0  0  0
 28 33  1  0  0  0  0
 29 34  1  0  0  0  0
 29 28  2  0  0  0  0
 30 32  1  0  0  0  0
 31 33  2  0  0  0  0
 32 31  1  0  0  0  0
 34 32  2  0  0  0  0
 35 13  1  0  0  0  0
 37 39  1  6  0  0  0
 37 36  1  0  0  0  0
 37 35  1  0  0  0  0
 38 37  1  0  0  0  0
 38 36  1  0  0  0  0
 39 40  1  0  0  0  0
 40 42  1  0  0  0  0
 40 41  2  0  0  0  0
 43 42  1  0  0  0  0
M  END
>  <MODEL>
8

>  <REMARK>
 VINA RESULT:      -7.8      2.267      8.399
  Name = 
  10 active torsions:
  status: ('A' for Active; 'I' for Inactive)
    1  A    between atoms: O_1  and  C_34
    2  A    between atoms: O_1  and  C_35
    3  A    between atoms: C_2  and  C_13
    4  A    between atoms: C_3  and  C_42
    5  A    between atoms: O_4  and  C_14
    6  A    between atoms: O_4  and  C_41
    7  A    between atoms: C_9  and  C_19
    8  A    between atoms: C_10  and  C_41
    9  A    between atoms: C_19  and  C_32
   10  A    between atoms: C_32  and  C_35
                            x       y       z     vdW  Elec       q    Type
                         _______ _______ _______ _____ _____    ______ ____

>  <TORSDO>
F 10

$$$$
=
 OpenBabel11052420533D

 43 49  0  0  1  0  0  0  0  0999 V2000
  197.2720  170.4530  145.1390 C   0  0  0  0  0  2  0  0  0  0  0  0
  193.5170  173.1860  142.5730 C   0  0  2  0  0  3  0  0  0  0  0  0
  193.9620  175.9700  143.3410 C   0  0  1  0  0  3  0  0  0  0  0  0
  195.6360  171.2140  142.5750 C   0  0  0  0  0  0  0  0  0  0  0  0
  196.9170  171.8990  145.4760 C   0  0  0  0  0  2  0  0  0  0  0  0
  197.7530  170.3330  143.6950 C   0  0  0  0  0  2  0  0  0  0  0  0
  195.8480  172.5390  143.2930 C   0  0  2  0  0  3  0  0  0  0  0  0
  196.5830  170.0500  142.7570 C   0  0  0  0  0  2  0  0  0  0  0  0
  195.6280  172.3360  144.7940 C   0  0  0  0  0  2  0  0  0  0  0  0
  195.0710  174.9290  143.5780 C   0  0  0  0  0  2  0  0  0  0  0  0
  194.9620  173.6630  142.7240 C   0  0  2  0  0  3  0  0  0  0  0  0
  193.4880  172.0260  141.5750 C   0  0  0  0  0  2  0  0  0  0  0  0
  192.6610  174.3110  142.0700 C   0  0  0  0  0  0  0  0  0  0  0  0
  192.9020  175.5400  142.4270 N   0  0  0  0  0  0  0  0  0  0  0  0
  194.5240  170.9770  141.8600 C   0  0  0  0  0  3  0  0  0  0  0  0
  193.3550  176.4690  144.6520 C   0  0  2  0  0  3  0  0  0  0  0  0
  192.0390  175.8810  146.7050 C   0  0  0  0  0  0  0  0  0  0  0  0
  194.1570  177.0940  146.8960 C   0  0  0  0  0  3  0  0  0  0  0  0
  194.4160  176.9820  145.5900 C   0  0  0  0  0  3  0  0  0  0  0  0
  192.8600  176.6460  147.4370 C   0  0  0  0  0  3  0  0  0  0  0  0
  192.4670  175.4180  145.3330 C   0  0  0  0  0  2  0  0  0  0  0  0
  189.5980  176.0650  146.2440 C   0  0  2  0  0  3  0  0  0  0  0  0
  189.9640  174.5950  146.2950 C   0  0  0  0  0  2  0  0  0  0  0  0
  190.6650  175.5770  147.2180 C   0  0  1  0  0  3  0  0  0  0  0  0
  187.8010  175.3600  147.6270 O   0  0  0  0  0  0  0  0  0  0  0  0
  188.3330  176.3130  146.9960 C   0  0  0  0  0  0  0  0  0  0  0  0
  187.7740  177.6070  147.0110 O   0  0  0  0  0  0  0  0  0  0  0  0
  185.4360  178.1840  146.8910 C   0  0  0  0  0  3  0  0  0  0  0  0
  186.6760  178.0430  146.2530 C   0  0  0  0  0  0  0  0  0  0  0  0
  185.7630  179.0650  142.7160 C   0  0  0  0  0  1  0  0  0  0  0  0
  184.4150  178.8930  144.8130 C   0  0  0  0  0  3  0  0  0  0  0  0
  185.6490  178.7640  144.1680 C   0  0  0  0  0  0  0  0  0  0  0  0
  184.3090  178.6070  146.1750 C   0  0  0  0  0  3  0  0  0  0  0  0
  186.7760  178.3460  144.8840 C   0  0  0  0  0  3  0  0  0  0  0  0
  191.5790  174.0300  141.2230 O   0  0  0  0  0  0  0  0  0  0  0  0
  189.4610  172.7600  140.8980 C   0  0  0  0  0  2  0  0  0  0  0  0
  190.2830  173.6860  141.7020 C   0  0  1  0  0  0  0  0  0  0  0  0
  190.2130  172.3110  142.0030 O   0  0  0  0  0  0  0  0  0  0  0  0
  189.6350  174.5310  142.7850 C   0  0  0  0  0  2  0  0  0  0  0  0
  189.3010  175.9010  142.2910 C   0  0  0  0  0  0  0  0  0  0  0  0
  189.9740  176.9520  142.7630 C   0  0  0  0  0  2  0  0  0  0  0  0
  188.0130  176.1180  141.5550 C   0  0  0  0  0  2  0  0  0  0  0  0
  186.8510  175.5900  142.3710 C   0  0  0  0  0  1  0  0  0  0  0  0
  1  5  1  0  0  0  0
  2 12  1  6  0  0  0
  2 11  1  0  0  0  0
  3 10  1  1  0  0  0
  3 16  1  0  0  0  0
  4  8  1  0  0  0  0
  4  7  1  0  0  0  0
  6  1  1  0  0  0  0
  7  9  1  1  0  0  0
  8  6  1  0  0  0  0
  9  5  1  0  0  0  0
 11  7  1  0  0  0  0
 11 10  1  1  0  0  0
 12 15  1  0  0  0  0
 13 14  2  0  0  0  0
 13  2  1  0  0  0  0
 14  3  1  0  0  0  0
 15  4  2  0  0  0  0
 16 21  1  1  0  0  0
 16 19  1  0  0  0  0
 17 20  2  0  0  0  0
 18 20  1  0  0  0  0
 19 18  2  0  0  0  0
 21 17  1  0  0  0  0
 22 23  1  0  0  0  0
 22 26  1  1  0  0  0
 22 24  1  0  0  0  0
 23 24  1  0  0  0  0
 24 17  1  6  0  0  0
 26 27  1  0  0  0  0
 26 25  2  0  0  0  0
 29 28  1  0  0  0  0
 29 27  1  0  0  0  0
 30 32  1  0  0  0  0
 31 33  1  0  0  0  0
 32 31  2  0  0  0  0
 32 34  1  0  0  0  0
 33 28  2  0  0  0  0
 34 29  2  0  0  0  0
 35 37  1  0  0  0  0
 35 13  1  0  0  0  0
 36 37  1  0  0  0  0
 36 38  1  0  0  0  0
 37 38  1  0  0  0  0
 37 39  1  1  0  0  0
 40 41  2  0  0  0  0
 40 39  1  0  0  0  0
 42 40  1  0  0  0  0
 42 43  1  0  0  0  0
M  END
>  <MODEL>
9

>  <REMARK>
 VINA RESULT:      -7.8      1.935      3.583
  Name = 
  10 active torsions:
  status: ('A' for Active; 'I' for Inactive)
    1  A    between atoms: O_1  and  C_34
    2  A    between atoms: O_1  and  C_35
    3  A    between atoms: C_2  and  C_13
    4  A    between atoms: C_3  and  C_42
    5  A    between atoms: O_4  and  C_14
    6  A    between atoms: O_4  and  C_41
    7  A    between atoms: C_9  and  C_19
    8  A    between atoms: C_10  and  C_41
    9  A    between atoms: C_19  and  C_32
   10  A    between atoms: C_32  and  C_35
                            x       y       z     vdW  Elec       q    Type
                         _______ _______ _______ _____ _____    ______ ____

>  <TORSDO>
F 10

$$$$
