=
 OpenBabel11052418233D

 27 30  0  0  1  0  0  0  0  0999 V2000
  187.4560  177.2660  143.9070 C   0  0  2  0  0  3  0  0  0  0  0  0
  186.3930  175.9210  141.9770 O   0  0  0  0  0  1  0  0  0  0  0  0
  184.9140  178.2690  147.1370 C   0  0  0  0  0  3  0  0  0  0  0  0
  186.4120  177.4420  144.9330 N   0  0  1  0  0  0  0  0  0  0  0  0
  186.8380  176.9170  146.2370 C   0  0  0  0  0  2  0  0  0  0  0  0
  188.4550  178.1610  141.7730 C   0  0  0  0  0  1  0  0  0  0  0  0
  185.9230  179.6410  143.8340 C   0  0  0  0  0  2  0  0  0  0  0  0
  185.6620  176.9600  147.2190 C   0  0  0  0  0  2  0  0  0  0  0  0
  185.4550  178.6930  142.7440 C   0  0  0  0  0  2  0  0  0  0  0  0
  185.1350  179.1480  146.1480 C   0  0  0  0  0  3  0  0  0  0  0  0
  186.7930  177.5540  142.1930 P   0  0  0  0  0  0  0  0  0  0  0  0
  186.2170  178.8890  145.1320 C   0  0  1  0  0  3  0  0  0  0  0  0
  186.7860  176.9320  139.5820 O   0  0  0  0  0  1  0  0  0  0  0  0
  184.9040  177.9950  140.3250 O   0  0  0  0  0  1  0  0  0  0  0  0
  186.2940  177.9040  140.4570 C   0  0  0  0  0  3  0  0  0  0  0  0
  188.2010  175.9200  144.0040 C   0  0  0  0  0  2  0  0  0  0  0  0
  189.6380  176.0640  144.4070 C   0  0  0  0  0  0  0  0  0  0  0  0
  193.7950  176.2940  145.1570 C   0  0  0  0  0  3  0  0  0  0  0  0
  195.8110  175.1700  145.8610 O   0  0  0  0  0  1  0  0  0  0  0  0
  190.2400  177.4150  144.7240 C   0  0  0  0  0  2  0  0  0  0  0  0
  192.4140  173.8570  145.2570 C   0  0  0  0  0  3  0  0  0  0  0  0
  193.7730  173.9080  145.5850 C   0  0  0  0  0  3  0  0  0  0  0  0
  190.3500  174.9830  144.5490 N   0  0  0  0  0  0  0  0  0  0  0  0
  194.4620  175.1250  145.5380 C   0  0  0  0  0  0  0  0  0  0  0  0
  192.4340  176.2480  144.8440 C   0  0  0  0  0  0  0  0  0  0  0  0
  191.7420  175.0260  144.8890 C   0  0  0  0  0  0  0  0  0  0  0  0
  191.7220  177.4720  144.3530 C   0  0  0  0  0  2  0  0  0  0  0  0
  1 16  1  6  0  0  0
  1  4  1  0  0  0  0
  2 11  1  0  0  0  0
  3  8  1  0  0  0  0
  4 12  1  0  0  0  0
  4  5  1  1  0  0  0
  5  8  1  0  0  0  0
  6 11  1  0  0  0  0
  9  7  1  0  0  0  0
 10  3  2  0  0  0  0
 11  9  1  0  0  0  0
 11  1  1  0  0  0  0
 12  7  1  6  0  0  0
 12 10  1  0  0  0  0
 13 15  1  0  0  0  0
 14 15  1  0  0  0  0
 15 11  1  0  0  0  0
 16 17  1  0  0  0  0
 17 23  2  0  0  0  0
 17 20  1  0  0  0  0
 18 24  1  0  0  0  0
 21 22  1  0  0  0  0
 23 26  1  0  0  0  0
 24 22  2  0  0  0  0
 24 19  1  0  0  0  0
 25 26  1  0  0  0  0
 25 18  2  0  0  0  0
 26 21  2  0  0  0  0
 27 20  1  0  0  0  0
 27 25  1  0  0  0  0
M  END
>  <MODEL>
1

>  <REMARK>
 VINA RESULT:      -8.0      0.000      0.000
  Name = 
  3 active torsions:
  status: ('A' for Active; 'I' for Inactive)
    1  A    between atoms: C_1  and  C_15
    2  A    between atoms: C_2  and  C_15
    3  A    between atoms: C_20  and  P_26
                            x       y       z     vdW  Elec       q    Type
                         _______ _______ _______ _____ _____    ______ ____

>  <TORSDO>
F 3

$$$$
=
 OpenBabel11052418233D

 27 30  0  0  1  0  0  0  0  0999 V2000
  189.0550  175.8020  144.6880 C   0  0  2  0  0  3  0  0  0  0  0  0
  188.4160  173.7360  143.2770 O   0  0  0  0  0  1  0  0  0  0  0  0
  185.8610  177.9780  146.4080 C   0  0  0  0  0  3  0  0  0  0  0  0
  187.8000  176.3550  145.2300 N   0  0  1  0  0  0  0  0  0  0  0  0
  187.8330  176.4400  146.6950 C   0  0  0  0  0  2  0  0  0  0  0  0
  190.6380  175.7550  142.7270 C   0  0  0  0  0  1  0  0  0  0  0  0
  187.7910  177.8740  143.2350 C   0  0  0  0  0  2  0  0  0  0  0  0
  186.4520  176.8500  147.2190 C   0  0  0  0  0  2  0  0  0  0  0  0
  187.5440  176.5410  142.5520 C   0  0  0  0  0  2  0  0  0  0  0  0
  186.3990  178.3680  145.2440 C   0  0  0  0  0  3  0  0  0  0  0  0
  188.8800  175.3230  142.8990 P   0  0  0  0  0  0  0  0  0  0  0  0
  187.6800  177.7460  144.7550 C   0  0  1  0  0  3  0  0  0  0  0  0
  188.7130  173.5210  140.9160 O   0  0  0  0  0  1  0  0  0  0  0  0
  187.8770  175.5880  140.4140 O   0  0  0  0  0  1  0  0  0  0  0  0
  188.8740  174.8960  141.1090 C   0  0  0  0  0  3  0  0  0  0  0  0
  189.6370  174.6470  145.5260 C   0  0  0  0  0  2  0  0  0  0  0  0
  191.1150  174.7630  145.7520 C   0  0  0  0  0  0  0  0  0  0  0  0
  195.3290  175.0820  145.9560 C   0  0  0  0  0  3  0  0  0  0  0  0
  197.4690  173.9690  145.8930 O   0  0  0  0  0  1  0  0  0  0  0  0
  191.7140  175.9490  146.4750 C   0  0  0  0  0  2  0  0  0  0  0  0
  194.0650  172.6670  145.3060 C   0  0  0  0  0  3  0  0  0  0  0  0
  195.4560  172.7170  145.4390 C   0  0  0  0  0  3  0  0  0  0  0  0
  191.8760  173.7780  145.3710 N   0  0  0  0  0  0  0  0  0  0  0  0
  196.0880  173.9230  145.7660 C   0  0  0  0  0  0  0  0  0  0  0  0
  193.9370  175.0300  145.8390 C   0  0  0  0  0  0  0  0  0  0  0  0
  193.3030  173.8210  145.5080 C   0  0  0  0  0  0  0  0  0  0  0  0
  193.1140  176.2770  145.9550 C   0  0  0  0  0  2  0  0  0  0  0  0
  1  4  1  0  0  0  0
  1 16  1  1  0  0  0
  3  8  1  0  0  0  0
  4  5  1  1  0  0  0
  5  8  1  0  0  0  0
  6 11  1  0  0  0  0
  9 11  1  0  0  0  0
  9  7  1  0  0  0  0
 10  3  2  0  0  0  0
 11  2  1  0  0  0  0
 11  1  1  0  0  0  0
 12  7  1  6  0  0  0
 12  4  1  0  0  0  0
 12 10  1  0  0  0  0
 13 15  1  0  0  0  0
 14 15  1  0  0  0  0
 15 11  1  0  0  0  0
 16 17  1  0  0  0  0
 17 20  1  0  0  0  0
 21 22  2  0  0  0  0
 21 26  1  0  0  0  0
 22 24  1  0  0  0  0
 23 26  1  0  0  0  0
 23 17  2  0  0  0  0
 24 19  1  0  0  0  0
 24 18  2  0  0  0  0
 25 27  1  0  0  0  0
 25 18  1  0  0  0  0
 26 25  2  0  0  0  0
 27 20  1  0  0  0  0
M  END
>  <MODEL>
2

>  <REMARK>
 VINA RESULT:      -7.3      1.837      2.539
  Name = 
  3 active torsions:
  status: ('A' for Active; 'I' for Inactive)
    1  A    between atoms: C_1  and  C_15
    2  A    between atoms: C_2  and  C_15
    3  A    between atoms: C_20  and  P_26
                            x       y       z     vdW  Elec       q    Type
                         _______ _______ _______ _____ _____    ______ ____

>  <TORSDO>
F 3

$$$$
=
 OpenBabel11052418233D

 27 30  0  0  1  0  0  0  0  0999 V2000
  191.3890  175.3080  144.0940 C   0  0  2  0  0  3  0  0  0  0  0  0
  191.2920  174.9010  141.5470 O   0  0  0  0  0  1  0  0  0  0  0  0
  195.2410  175.5120  145.8310 C   0  0  0  0  0  3  0  0  0  0  0  0
  192.8140  175.4030  144.4590 N   0  0  1  0  0  0  0  0  0  0  0  0
  193.1190  176.6710  145.1330 C   0  0  0  0  0  2  0  0  0  0  0  0
  189.4390  173.7630  143.6890 C   0  0  0  0  0  1  0  0  0  0  0  0
  192.6840  172.9540  144.9800 C   0  0  0  0  0  2  0  0  0  0  0  0
  194.6330  176.8000  145.3310 C   0  0  0  0  0  2  0  0  0  0  0  0
  192.5130  172.9110  143.4720 C   0  0  0  0  0  2  0  0  0  0  0  0
  194.5490  174.3630  145.8480 C   0  0  0  0  0  3  0  0  0  0  0  0
  191.0740  173.9110  142.9070 P   0  0  0  0  0  0  0  0  0  0  0  0
  193.0960  174.3490  145.4510 C   0  0  1  0  0  3  0  0  0  0  0  0
  189.8860  171.5370  142.5080 O   0  0  0  0  0  1  0  0  0  0  0  0
  189.8670  172.9400  140.7040 O   0  0  0  0  0  1  0  0  0  0  0  0
  190.6070  172.5090  141.8100 C   0  0  0  0  0  3  0  0  0  0  0  0
  190.7900  176.6310  143.5790 C   0  0  0  0  0  2  0  0  0  0  0  0
  189.5240  177.0230  144.2800 C   0  0  0  0  0  0  0  0  0  0  0  0
  185.7510  177.8210  146.0200 C   0  0  0  0  0  3  0  0  0  0  0  0
  183.6100  178.9200  145.8450 O   0  0  0  0  0  1  0  0  0  0  0  0
  189.3870  176.9200  145.7830 C   0  0  0  0  0  2  0  0  0  0  0  0
  186.3690  178.6300  143.4090 C   0  0  0  0  0  3  0  0  0  0  0  0
  185.1400  178.9780  143.9790 C   0  0  0  0  0  3  0  0  0  0  0  0
  188.5560  177.5250  143.5690 N   0  0  0  0  0  0  0  0  0  0  0  0
  184.8320  178.5760  145.2840 C   0  0  0  0  0  0  0  0  0  0  0  0
  186.9860  177.4860  145.4580 C   0  0  0  0  0  0  0  0  0  0  0  0
  187.2940  177.8870  144.1470 C   0  0  0  0  0  0  0  0  0  0  0  0
  187.9480  176.6080  146.1970 C   0  0  0  0  0  2  0  0  0  0  0  0
  1 16  1  6  0  0  0
  1  4  1  0  0  0  0
  2 11  1  0  0  0  0
  3 10  2  0  0  0  0
  4  5  1  1  0  0  0
  4 12  1  0  0  0  0
  5  8  1  0  0  0  0
  8  3  1  0  0  0  0
  9  7  1  0  0  0  0
 11  9  1  0  0  0  0
 11  6  1  0  0  0  0
 11  1  1  0  0  0  0
 12  7  1  6  0  0  0
 12 10  1  0  0  0  0
 14 15  1  0  0  0  0
 15 13  1  0  0  0  0
 15 11  1  0  0  0  0
 16 17  1  0  0  0  0
 17 20  1  0  0  0  0
 20 27  1  0  0  0  0
 21 22  2  0  0  0  0
 21 26  1  0  0  0  0
 22 24  1  0  0  0  0
 23 26  1  0  0  0  0
 23 17  2  0  0  0  0
 24 19  1  0  0  0  0
 24 18  2  0  0  0  0
 25 18  1  0  0  0  0
 25 27  1  0  0  0  0
 26 25  2  0  0  0  0
M  END
>  <MODEL>
3

>  <REMARK>
 VINA RESULT:      -7.2      2.756      7.428
  Name = 
  3 active torsions:
  status: ('A' for Active; 'I' for Inactive)
    1  A    between atoms: C_1  and  C_15
    2  A    between atoms: C_2  and  C_15
    3  A    between atoms: C_20  and  P_26
                            x       y       z     vdW  Elec       q    Type
                         _______ _______ _______ _____ _____    ______ ____

>  <TORSDO>
F 3

$$$$
=
 OpenBabel11052418233D

 27 30  0  0  1  0  0  0  0  0999 V2000
  191.3100  174.9420  144.4640 C   0  0  2  0  0  3  0  0  0  0  0  0
  192.8520  174.7840  146.5280 O   0  0  0  0  0  1  0  0  0  0  0  0
  191.0030  171.4740  142.0610 C   0  0  0  0  0  3  0  0  0  0  0  0
  191.3110  173.6140  143.8240 N   0  0  1  0  0  0  0  0  0  0  0  0
  189.9530  173.0700  143.7000 C   0  0  0  0  0  2  0  0  0  0  0  0
  192.4830  177.1650  144.6550 C   0  0  0  0  0  1  0  0  0  0  0  0
  193.1500  174.4910  142.3640 C   0  0  0  0  0  2  0  0  0  0  0  0
  190.0210  171.6240  143.1980 C   0  0  0  0  0  2  0  0  0  0  0  0
  193.8730  174.4490  143.7000 C   0  0  0  0  0  2  0  0  0  0  0  0
  191.8600  172.4520  141.7350 C   0  0  0  0  0  3  0  0  0  0  0  0
  193.0200  175.4590  144.9810 P   0  0  0  0  0  0  0  0  0  0  0  0
  191.7990  173.7800  142.4430 C   0  0  1  0  0  3  0  0  0  0  0  0
  195.4150  176.4830  144.3310 O   0  0  0  0  0  1  0  0  0  0  0  0
  194.5460  177.2410  146.3050 O   0  0  0  0  0  1  0  0  0  0  0  0
  194.6650  176.1340  145.4580 C   0  0  0  0  0  3  0  0  0  0  0  0
  190.3060  175.0720  145.6260 C   0  0  0  0  0  2  0  0  0  0  0  0
  189.1070  175.9050  145.2860 C   0  0  0  0  0  0  0  0  0  0  0  0
  185.8400  178.5190  144.6570 C   0  0  0  0  0  3  0  0  0  0  0  0
  183.6180  179.2050  145.2980 O   0  0  0  0  0  1  0  0  0  0  0  0
  188.9510  176.5500  143.9260 C   0  0  0  0  0  2  0  0  0  0  0  0
  185.8980  176.7260  146.8100 C   0  0  0  0  0  3  0  0  0  0  0  0
  184.7680  177.5210  146.5890 C   0  0  0  0  0  3  0  0  0  0  0  0
  188.1570  176.0090  146.1700 N   0  0  0  0  0  0  0  0  0  0  0  0
  184.7390  178.4150  145.5120 C   0  0  0  0  0  0  0  0  0  0  0  0
  186.9630  177.7140  144.8670 C   0  0  0  0  0  0  0  0  0  0  0  0
  186.9950  176.8190  145.9490 C   0  0  0  0  0  0  0  0  0  0  0  0
  188.1840  177.8700  144.0140 C   0  0  0  0  0  2  0  0  0  0  0  0
  1 11  1  0  0  0  0
  1 16  1  1  0  0  0
  3  8  1  0  0  0  0
  4  5  1  6  0  0  0
  4  1  1  0  0  0  0
  6 11  1  0  0  0  0
  7 12  1  0  0  0  0
  7  9  1  0  0  0  0
  8  5  1  0  0  0  0
  9 11  1  0  0  0  0
 10  3  2  0  0  0  0
 11 15  1  0  0  0  0
 11  2  1  0  0  0  0
 12 10  1  1  0  0  0
 12  4  1  0  0  0  0
 13 15  1  0  0  0  0
 15 14  1  0  0  0  0
 17 16  1  0  0  0  0
 17 23  2  0  0  0  0
 18 25  2  0  0  0  0
 18 24  1  0  0  0  0
 19 24  1  0  0  0  0
 20 27  1  0  0  0  0
 20 17  1  0  0  0  0
 22 21  1  0  0  0  0
 24 22  2  0  0  0  0
 25 26  1  0  0  0  0
 26 23  1  0  0  0  0
 26 21  2  0  0  0  0
 27 25  1  0  0  0  0
M  END
>  <MODEL>
4

>  <REMARK>
 VINA RESULT:      -7.1      2.836      7.825
  Name = 
  3 active torsions:
  status: ('A' for Active; 'I' for Inactive)
    1  A    between atoms: C_1  and  C_15
    2  A    between atoms: C_2  and  C_15
    3  A    between atoms: C_20  and  P_26
                            x       y       z     vdW  Elec       q    Type
                         _______ _______ _______ _____ _____    ______ ____

>  <TORSDO>
F 3

$$$$
=
 OpenBabel11052418233D

 27 30  0  0  1  0  0  0  0  0999 V2000
  190.6850  174.9630  143.2930 C   0  0  2  0  0  3  0  0  0  0  0  0
  191.2410  174.2000  140.8910 O   0  0  0  0  0  1  0  0  0  0  0  0
  193.9690  175.6210  145.8770 C   0  0  0  0  0  3  0  0  0  0  0  0
  191.9690  175.1870  143.9800 N   0  0  1  0  0  0  0  0  0  0  0  0
  192.0700  176.5530  144.5120 C   0  0  0  0  0  2  0  0  0  0  0  0
  188.9290  173.2710  142.6540 C   0  0  0  0  0  1  0  0  0  0  0  0
  191.7570  172.8320  144.8120 C   0  0  0  0  0  2  0  0  0  0  0  0
  193.4820  176.7910  145.0560 C   0  0  0  0  0  2  0  0  0  0  0  0
  191.9740  172.5700  143.3320 C   0  0  0  0  0  2  0  0  0  0  0  0
  193.3160  174.4500  145.8930 C   0  0  0  0  0  3  0  0  0  0  0  0
  190.7050  173.3990  142.2870 P   0  0  0  0  0  0  0  0  0  0  0  0
  192.0110  174.3000  145.1570 C   0  0  1  0  0  3  0  0  0  0  0  0
  190.0700  170.7960  142.1280 O   0  0  0  0  0  1  0  0  0  0  0  0
  189.7370  171.9880  140.2070 O   0  0  0  0  0  1  0  0  0  0  0  0
  190.5570  171.8340  141.3300 C   0  0  0  0  0  3  0  0  0  0  0  0
  190.2110  176.1660  142.4540 C   0  0  0  0  0  2  0  0  0  0  0  0
  188.8780  176.7030  142.8860 C   0  0  0  0  0  0  0  0  0  0  0  0
  185.3400  178.5010  144.3520 C   0  0  0  0  0  3  0  0  0  0  0  0
  183.7180  178.6700  146.1300 O   0  0  0  0  0  1  0  0  0  0  0  0
  187.8990  177.2840  141.8900 C   0  0  0  0  0  2  0  0  0  0  0  0
  186.8870  176.7870  145.9400 C   0  0  0  0  0  3  0  0  0  0  0  0
  185.6830  177.3020  146.4310 C   0  0  0  0  0  3  0  0  0  0  0  0
  188.5470  176.5960  144.1400 N   0  0  0  0  0  0  0  0  0  0  0  0
  184.9090  178.1570  145.6370 C   0  0  0  0  0  0  0  0  0  0  0  0
  186.5350  177.9740  143.8530 C   0  0  0  0  0  0  0  0  0  0  0  0
  187.3130  177.1190  144.6510 C   0  0  0  0  0  0  0  0  0  0  0  0
  187.0550  178.3960  142.5140 C   0  0  0  0  0  2  0  0  0  0  0  0
  1 16  1  6  0  0  0
  1  4  1  0  0  0  0
  2 11  1  0  0  0  0
  3 10  2  0  0  0  0
  4  5  1  1  0  0  0
  4 12  1  0  0  0  0
  5  8  1  0  0  0  0
  8  3  1  0  0  0  0
  9  7  1  0  0  0  0
 11  6  1  0  0  0  0
 11  1  1  0  0  0  0
 11  9  1  0  0  0  0
 12  7  1  6  0  0  0
 12 10  1  0  0  0  0
 14 15  1  0  0  0  0
 15 13  1  0  0  0  0
 15 11  1  0  0  0  0
 16 17  1  0  0  0  0
 17 23  2  0  0  0  0
 18 24  1  0  0  0  0
 20 27  1  0  0  0  0
 20 17  1  0  0  0  0
 21 22  1  0  0  0  0
 23 26  1  0  0  0  0
 24 19  1  0  0  0  0
 24 22  2  0  0  0  0
 25 18  2  0  0  0  0
 25 26  1  0  0  0  0
 26 21  2  0  0  0  0
 27 25  1  0  0  0  0
M  END
>  <MODEL>
5

>  <REMARK>
 VINA RESULT:      -7.1      2.930      7.129
  Name = 
  3 active torsions:
  status: ('A' for Active; 'I' for Inactive)
    1  A    between atoms: C_1  and  C_15
    2  A    between atoms: C_2  and  C_15
    3  A    between atoms: C_20  and  P_26
                            x       y       z     vdW  Elec       q    Type
                         _______ _______ _______ _____ _____    ______ ____

>  <TORSDO>
F 3

$$$$
=
 OpenBabel11052418233D

 27 30  0  0  1  0  0  0  0  0999 V2000
  191.1610  174.8710  144.2110 C   0  0  2  0  0  3  0  0  0  0  0  0
  193.0250  174.5170  145.9610 O   0  0  0  0  0  1  0  0  0  0  0  0
  190.5230  171.7200  141.4610 C   0  0  0  0  0  3  0  0  0  0  0  0
  191.0800  173.6340  143.4130 N   0  0  1  0  0  0  0  0  0  0  0  0
  189.7300  173.0570  143.4410 C   0  0  0  0  0  2  0  0  0  0  0  0
  192.3100  177.0960  144.4960 C   0  0  0  0  0  1  0  0  0  0  0  0
  192.6380  174.7560  141.8010 C   0  0  0  0  0  2  0  0  0  0  0  0
  189.7400  171.6890  142.7520 C   0  0  0  0  0  2  0  0  0  0  0  0
  193.5710  174.5760  142.9860 C   0  0  0  0  0  2  0  0  0  0  0  0
  191.2970  172.7630  141.1300 C   0  0  0  0  0  3  0  0  0  0  0  0
  192.9240  175.3850  144.5080 P   0  0  0  0  0  0  0  0  0  0  0  0
  191.3310  173.9890  142.0050 C   0  0  1  0  0  3  0  0  0  0  0  0
  195.2910  176.2560  143.5910 O   0  0  0  0  0  1  0  0  0  0  0  0
  194.5770  177.2560  145.5180 O   0  0  0  0  0  1  0  0  0  0  0  0
  194.6120  176.0580  144.7960 C   0  0  0  0  0  3  0  0  0  0  0  0
  190.3610  174.8160  145.5270 C   0  0  0  0  0  2  0  0  0  0  0  0
  189.2290  175.7980  145.5750 C   0  0  0  0  0  0  0  0  0  0  0  0
  185.8010  178.2770  145.4870 C   0  0  0  0  0  3  0  0  0  0  0  0
  184.4480  179.8510  144.2590 O   0  0  0  0  0  1  0  0  0  0  0  0
  188.6470  176.2710  146.8900 C   0  0  0  0  0  2  0  0  0  0  0  0
  187.4010  177.8960  143.2180 C   0  0  0  0  0  3  0  0  0  0  0  0
  186.3200  178.7820  143.1740 C   0  0  0  0  0  3  0  0  0  0  0  0
  188.7960  176.2960  144.4530 N   0  0  0  0  0  0  0  0  0  0  0  0
  185.5220  178.9740  144.3080 C   0  0  0  0  0  0  0  0  0  0  0  0
  186.8900  177.4030  145.5390 C   0  0  0  0  0  0  0  0  0  0  0  0
  187.6900  177.2080  144.4000 C   0  0  0  0  0  0  0  0  0  0  0  0
  187.1550  176.5840  146.7640 C   0  0  0  0  0  2  0  0  0  0  0  0
  1 11  1  0  0  0  0
  1 16  1  1  0  0  0
  3  8  1  0  0  0  0
  4  5  1  6  0  0  0
  4  1  1  0  0  0  0
  6 11  1  0  0  0  0
  7 12  1  0  0  0  0
  7  9  1  0  0  0  0
  8  5  1  0  0  0  0
  9 11  1  0  0  0  0
 10  3  2  0  0  0  0
 11 15  1  0  0  0  0
 11  2  1  0  0  0  0
 12 10  1  6  0  0  0
 12  4  1  0  0  0  0
 13 15  1  0  0  0  0
 15 14  1  0  0  0  0
 16 17  1  0  0  0  0
 17 20  1  0  0  0  0
 18 25  1  0  0  0  0
 19 24  1  0  0  0  0
 21 26  1  0  0  0  0
 22 21  2  0  0  0  0
 22 24  1  0  0  0  0
 23 17  2  0  0  0  0
 24 18  2  0  0  0  0
 25 27  1  0  0  0  0
 26 23  1  0  0  0  0
 26 25  2  0  0  0  0
 27 20  1  0  0  0  0
M  END
>  <MODEL>
6

>  <REMARK>
 VINA RESULT:      -7.1      2.773      7.617
  Name = 
  3 active torsions:
  status: ('A' for Active; 'I' for Inactive)
    1  A    between atoms: C_1  and  C_15
    2  A    between atoms: C_2  and  C_15
    3  A    between atoms: C_20  and  P_26
                            x       y       z     vdW  Elec       q    Type
                         _______ _______ _______ _____ _____    ______ ____

>  <TORSDO>
F 3

$$$$
=
 OpenBabel11052418233D

 27 30  0  0  1  0  0  0  0  0999 V2000
  188.1300  176.8760  144.4160 C   0  0  2  0  0  3  0  0  0  0  0  0
  190.3820  177.8840  145.1750 O   0  0  0  0  0  1  0  0  0  0  0  0
  184.7130  179.3300  144.8650 C   0  0  0  0  0  3  0  0  0  0  0  0
  187.1070  177.9210  144.6060 N   0  0  1  0  0  0  0  0  0  0  0  0
  186.3910  178.2140  143.3580 C   0  0  0  0  0  2  0  0  0  0  0  0
  189.4240  175.0050  145.5000 C   0  0  0  0  0  1  0  0  0  0  0  0
  186.6800  176.8770  146.8450 C   0  0  0  0  0  2  0  0  0  0  0  0
  185.4710  179.4210  143.5620 C   0  0  0  0  0  2  0  0  0  0  0  0
  188.0730  177.4350  147.0770 C   0  0  0  0  0  2  0  0  0  0  0  0
  185.0240  178.4210  145.8000 C   0  0  0  0  0  3  0  0  0  0  0  0
  189.2940  176.7810  145.8640 P   0  0  0  0  0  0  0  0  0  0  0  0
  186.0890  177.3910  145.5310 C   0  0  1  0  0  3  0  0  0  0  0  0
  190.3640  175.2120  147.7600 O   0  0  0  0  0  1  0  0  0  0  0  0
  191.7780  176.7910  146.9050 O   0  0  0  0  0  1  0  0  0  0  0  0
  190.4550  176.5160  147.2670 C   0  0  0  0  0  3  0  0  0  0  0  0
  188.8960  176.9920  143.0840 C   0  0  0  0  0  2  0  0  0  0  0  0
  189.0440  175.6820  142.3690 C   0  0  0  0  0  0  0  0  0  0  0  0
  189.6960  171.8530  140.6930 C   0  0  0  0  0  3  0  0  0  0  0  0
  191.1720  170.3730  139.4880 O   0  0  0  0  0  1  0  0  0  0  0  0
  187.8410  174.8460  141.9900 C   0  0  0  0  0  2  0  0  0  0  0  0
  191.7270  173.7820  140.7910 C   0  0  0  0  0  3  0  0  0  0  0  0
  191.9550  172.5540  140.1610 C   0  0  0  0  0  3  0  0  0  0  0  0
  190.2380  175.3060  142.0120 N   0  0  0  0  0  0  0  0  0  0  0  0
  190.9400  171.5910  140.1100 C   0  0  0  0  0  0  0  0  0  0  0  0
  189.4610  173.0850  141.3080 C   0  0  0  0  0  0  0  0  0  0  0  0
  190.4800  174.0500  141.3630 C   0  0  0  0  0  0  0  0  0  0  0  0
  188.1650  173.3520  142.0110 C   0  0  0  0  0  2  0  0  0  0  0  0
  1 16  1  6  0  0  0
  1  4  1  0  0  0  0
  1 11  1  0  0  0  0
  2 11  1  0  0  0  0
  3 10  2  0  0  0  0
  4  5  1  6  0  0  0
  4 12  1  0  0  0  0
  5  8  1  0  0  0  0
  6 11  1  0  0  0  0
  7  9  1  0  0  0  0
  8  3  1  0  0  0  0
 11  9  1  0  0  0  0
 11 15  1  0  0  0  0
 12 10  1  1  0  0  0
 12  7  1  0  0  0  0
 14 15  1  0  0  0  0
 15 13  1  0  0  0  0
 17 16  1  0  0  0  0
 18 25  1  0  0  0  0
 19 24  1  0  0  0  0
 20 27  1  0  0  0  0
 20 17  1  0  0  0  0
 21 26  1  0  0  0  0
 22 21  2  0  0  0  0
 23 17  2  0  0  0  0
 24 22  1  0  0  0  0
 24 18  2  0  0  0  0
 25 26  2  0  0  0  0
 25 27  1  0  0  0  0
 26 23  1  0  0  0  0
M  END
>  <MODEL>
7

>  <REMARK>
 VINA RESULT:      -7.0      3.612      5.328
  Name = 
  3 active torsions:
  status: ('A' for Active; 'I' for Inactive)
    1  A    between atoms: C_1  and  C_15
    2  A    between atoms: C_2  and  C_15
    3  A    between atoms: C_20  and  P_26
                            x       y       z     vdW  Elec       q    Type
                         _______ _______ _______ _____ _____    ______ ____

>  <TORSDO>
F 3

$$$$
=
 OpenBabel11052418233D

 27 30  0  0  1  0  0  0  0  0999 V2000
  189.4190  176.1800  144.3300 C   0  0  2  0  0  3  0  0  0  0  0  0
  191.1150  176.2500  142.3860 O   0  0  0  0  0  1  0  0  0  0  0  0
  191.0290  176.0440  148.2400 C   0  0  0  0  0  3  0  0  0  0  0  0
  190.2000  176.2000  145.5810 N   0  0  1  0  0  0  0  0  0  0  0  0
  189.8100  177.3210  146.4460 C   0  0  0  0  0  2  0  0  0  0  0  0
  188.4640  174.7440  142.4920 C   0  0  0  0  0  1  0  0  0  0  0  0
  190.0560  173.6980  145.5280 C   0  0  0  0  0  2  0  0  0  0  0  0
  190.7630  177.4050  147.6420 C   0  0  0  0  0  2  0  0  0  0  0  0
  190.9540  173.9350  144.3270 C   0  0  0  0  0  2  0  0  0  0  0  0
  190.6550  174.9160  147.6200 C   0  0  0  0  0  3  0  0  0  0  0  0
  190.1630  175.0270  143.0740 P   0  0  0  0  0  0  0  0  0  0  0  0
  189.8660  174.9810  146.3390 C   0  0  1  0  0  3  0  0  0  0  0  0
  191.9810  173.3100  142.1010 O   0  0  0  0  0  1  0  0  0  0  0  0
  189.8130  172.8250  141.5640 O   0  0  0  0  0  1  0  0  0  0  0  0
  190.7360  173.8540  141.7770 C   0  0  0  0  0  3  0  0  0  0  0  0
  189.1670  177.5780  143.7330 C   0  0  0  0  0  2  0  0  0  0  0  0
  187.7200  177.8500  143.4480 C   0  0  0  0  0  0  0  0  0  0  0  0
  183.6090  178.2010  142.5120 C   0  0  0  0  0  3  0  0  0  0  0  0
  181.9170  178.5330  140.8250 O   0  0  0  0  0  1  0  0  0  0  0  0
  186.7680  178.2910  144.5380 C   0  0  0  0  0  2  0  0  0  0  0  0
  185.5690  178.0970  140.5130 C   0  0  0  0  0  3  0  0  0  0  0  0
  184.2270  178.2910  140.1700 C   0  0  0  0  0  3  0  0  0  0  0  0
  187.3080  177.7660  142.2160 N   0  0  0  0  0  0  0  0  0  0  0  0
  183.2480  178.3450  141.1690 C   0  0  0  0  0  0  0  0  0  0  0  0
  184.9510  178.0240  142.8580 C   0  0  0  0  0  0  0  0  0  0  0  0
  185.9340  177.9670  141.8560 C   0  0  0  0  0  0  0  0  0  0  0  0
  185.3470  177.7840  144.2830 C   0  0  0  0  0  2  0  0  0  0  0  0
  1 16  1  6  0  0  0
  1  4  1  0  0  0  0
  2 11  1  0  0  0  0
  4 12  1  0  0  0  0
  4  5  1  1  0  0  0
  5  8  1  0  0  0  0
  6 11  1  0  0  0  0
  8  3  1  0  0  0  0
  9  7  1  0  0  0  0
 10  3  2  0  0  0  0
 11  9  1  0  0  0  0
 11  1  1  0  0  0  0
 12  7  1  6  0  0  0
 12 10  1  0  0  0  0
 14 15  1  0  0  0  0
 15 13  1  0  0  0  0
 15 11  1  0  0  0  0
 17 16  1  0  0  0  0
 17 20  1  0  0  0  0
 18 25  1  0  0  0  0
 19 24  1  0  0  0  0
 21 26  1  0  0  0  0
 22 21  2  0  0  0  0
 22 24  1  0  0  0  0
 23 17  2  0  0  0  0
 24 18  2  0  0  0  0
 25 27  1  0  0  0  0
 26 23  1  0  0  0  0
 26 25  2  0  0  0  0
 27 20  1  0  0  0  0
M  END
>  <MODEL>
8

>  <REMARK>
 VINA RESULT:      -6.9      2.854      7.227
  Name = 
  3 active torsions:
  status: ('A' for Active; 'I' for Inactive)
    1  A    between atoms: C_1  and  C_15
    2  A    between atoms: C_2  and  C_15
    3  A    between atoms: C_20  and  P_26
                            x       y       z     vdW  Elec       q    Type
                         _______ _______ _______ _____ _____    ______ ____

>  <TORSDO>
F 3

$$$$
=
 OpenBabel11052418233D

 27 30  0  0  1  0  0  0  0  0999 V2000
  188.5290  176.8570  144.2910 C   0  0  2  0  0  3  0  0  0  0  0  0
  190.5600  177.8850  145.5080 O   0  0  0  0  0  1  0  0  0  0  0  0
  184.9720  179.1460  144.2830 C   0  0  0  0  0  3  0  0  0  0  0  0
  187.4390  177.8470  144.3640 N   0  0  1  0  0  0  0  0  0  0  0  0
  186.9420  178.2070  143.0300 C   0  0  0  0  0  2  0  0  0  0  0  0
  189.7020  174.9570  145.4610 C   0  0  0  0  0  1  0  0  0  0  0  0
  186.6750  176.6230  146.4140 C   0  0  0  0  0  2  0  0  0  0  0  0
  185.9420  179.3620  143.1470 C   0  0  0  0  0  2  0  0  0  0  0  0
  187.9760  177.2120  146.9300 C   0  0  0  0  0  2  0  0  0  0  0  0
  185.1560  178.1810  145.1960 C   0  0  0  0  0  3  0  0  0  0  0  0
  189.4220  176.6950  145.9150 P   0  0  0  0  0  0  0  0  0  0  0  0
  186.3010  177.2130  145.0530 C   0  0  1  0  0  3  0  0  0  0  0  0
  190.2770  175.0130  147.8240 O   0  0  0  0  0  1  0  0  0  0  0  0
  191.6620  176.7820  147.4080 O   0  0  0  0  0  1  0  0  0  0  0  0
  190.3290  176.3670  147.4830 C   0  0  0  0  0  3  0  0  0  0  0  0
  189.5120  177.1000  143.1300 C   0  0  0  0  0  2  0  0  0  0  0  0
  189.8710  175.8500  142.3840 C   0  0  0  0  0  0  0  0  0  0  0  0
  190.8250  172.5510  139.9110 C   0  0  0  0  0  3  0  0  0  0  0  0
  190.0390  170.7350  138.5310 O   0  0  0  0  0  1  0  0  0  0  0  0
  191.2110  175.1730  142.5700 C   0  0  0  0  0  2  0  0  0  0  0  0
  188.1900  173.4590  140.2010 C   0  0  0  0  0  3  0  0  0  0  0  0
  188.4590  172.3190  139.4370 C   0  0  0  0  0  3  0  0  0  0  0  0
  188.9690  175.3100  141.6140 N   0  0  0  0  0  0  0  0  0  0  0  0
  189.7760  171.8640  139.2940 C   0  0  0  0  0  0  0  0  0  0  0  0
  190.5570  173.6810  140.6890 C   0  0  0  0  0  0  0  0  0  0  0  0
  189.2360  174.1400  140.8300 C   0  0  0  0  0  0  0  0  0  0  0  0
  191.6740  174.4790  141.2890 C   0  0  0  0  0  2  0  0  0  0  0  0
  1 16  1  6  0  0  0
  1  4  1  0  0  0  0
  1 11  1  0  0  0  0
  2 11  1  0  0  0  0
  3 10  2  0  0  0  0
  4  5  1  6  0  0  0
  4 12  1  0  0  0  0
  5  8  1  0  0  0  0
  6 11  1  0  0  0  0
  7  9  1  0  0  0  0
  8  3  1  0  0  0  0
 11  9  1  0  0  0  0
 11 15  1  0  0  0  0
 12 10  1  1  0  0  0
 12  7  1  0  0  0  0
 14 15  1  0  0  0  0
 15 13  1  0  0  0  0
 17 20  1  0  0  0  0
 17 16  1  0  0  0  0
 18 25  1  0  0  0  0
 19 24  1  0  0  0  0
 21 26  1  0  0  0  0
 22 21  2  0  0  0  0
 23 17  2  0  0  0  0
 24 22  1  0  0  0  0
 24 18  2  0  0  0  0
 25 26  2  0  0  0  0
 25 27  1  0  0  0  0
 26 23  1  0  0  0  0
 27 20  1  0  0  0  0
M  END
>  <MODEL>
9

>  <REMARK>
 VINA RESULT:      -6.4      3.768      5.652
  Name = 
  3 active torsions:
  status: ('A' for Active; 'I' for Inactive)
    1  A    between atoms: C_1  and  C_15
    2  A    between atoms: C_2  and  C_15
    3  A    between atoms: C_20  and  P_26
                            x       y       z     vdW  Elec       q    Type
                         _______ _______ _______ _____ _____    ______ ____

>  <TORSDO>
F 3

$$$$
