=
 OpenBabel11052419413D

 55 61  0  0  1  0  0  0  0  0999 V2000
  192.7490  174.8640  146.4890 C   0  0  0  0  0  3  0  0  0  0  0  0
  191.5970  176.8200  144.8570 C   0  0  0  0  0  0  0  0  0  0  0  0
  192.5840  175.9740  144.3480 C   0  0  0  0  0  3  0  0  0  0  0  0
  191.7590  175.7100  147.0000 C   0  0  0  0  0  3  0  0  0  0  0  0
  193.1630  174.9900  145.1610 C   0  0  0  0  0  0  0  0  0  0  0  0
  191.1830  176.6890  146.1860 C   0  0  0  0  0  3  0  0  0  0  0  0
  194.2160  174.1130  144.6450 C   0  0  0  0  0  3  0  0  0  0  0  0
  194.4250  174.0120  143.3710 N   0  0  0  0  0  0  0  0  0  0  0  0
  196.6880  174.1230  139.3260 N   0  0  0  0  0  2  0  0  0  0  0  0
  196.8560  173.4050  137.1010 O   0  0  0  0  0  0  0  0  0  0  0  0
  195.0770  172.4540  140.0570 C   0  0  2  0  0  3  0  0  0  0  0  0
  195.5000  172.1040  138.6320 C   0  0  0  0  0  2  0  0  0  0  0  0
  196.3860  173.2440  138.2570 C   0  0  0  0  0  0  0  0  0  0  0  0
  195.9620  173.5950  140.4260 C   0  0  0  0  0  0  0  0  0  0  0  0
  194.9680  171.7830  142.4470 C   0  0  2  0  0  3  0  0  0  0  0  0
  195.3290  171.3160  141.0270 C   0  0  0  0  0  2  0  0  0  0  0  0
  196.1860  173.9480  141.6990 C   0  0  0  0  0  0  0  0  0  0  0  0
  195.4980  173.1940  142.8240 C   0  0  1  0  0  3  0  0  0  0  0  0
  196.4940  171.2660  144.3720 C   0  0  0  0  0  3  0  0  0  0  0  0
  195.8180  169.6760  146.1060 C   0  0  0  0  0  0  0  0  0  0  0  0
  194.1680  170.3150  144.3730 C   0  0  0  0  0  2  0  0  0  0  0  0
  194.6340  169.4530  145.5130 C   0  0  0  0  0  3  0  0  0  0  0  0
  196.7190  170.7220  145.5730 C   0  0  0  0  0  3  0  0  0  0  0  0
  195.3640  170.7610  143.5140 C   0  0  1  0  0  3  0  0  0  0  0  0
  196.2380  168.8740  147.2670 C   0  0  0  0  0  0  0  0  0  0  0  0
  195.3830  168.3950  148.0580 O   0  0  0  0  0  1  0  0  0  0  0  0
  197.5850  168.6300  147.4970 O   0  0  0  0  0  0  0  0  0  0  0  0
  196.9160  176.5380  143.4680 C   0  0  0  0  0  2  0  0  0  0  0  0
  195.8760  177.1060  141.2300 O   0  0  0  0  0  0  0  0  0  0  0  0
  197.1560  175.0600  142.0040 C   0  0  2  0  0  3  0  0  0  0  0  0
  197.7540  174.9650  143.6940 S   0  0  0  0  0  0  0  0  0  0  0  0
  196.4860  176.4130  142.0270 C   0  0  0  0  0  0  0  0  0  0  0  0
  191.0200  177.8840  143.9880 C   0  0  0  0  0  2  0  0  0  0  0  0
  189.5470  177.6110  143.7530 C   0  0  0  0  0  2  0  0  0  0  0  0
  188.8060  175.6790  142.4160 C   0  0  2  0  0  3  0  0  0  0  0  0
  187.8740  176.8320  142.1240 C   0  0  0  0  0  2  0  0  0  0  0  0
  189.3470  177.0910  142.3480 C   0  0  1  0  0  3  0  0  0  0  0  0
  189.1110  175.0140  141.2180 O   0  0  0  0  0  0  0  0  0  0  0  0
  189.6470  173.3310  143.2710 S   0  0  0  0  0  1  0  0  0  0  0  0
  189.6120  173.7100  141.4710 C   0  0  1  0  0  0  0  0  0  0  0  0
  188.6960  172.8370  140.9200 F   0  0  0  0  0  0  0  0  0  0  0  0
  191.0790  170.7920  140.7620 C   0  0  2  0  0  0  0  0  0  0  0  0
  191.9770  172.8480  138.6140 O   0  0  0  0  0  0  0  0  0  0  0  0
  191.0110  173.4640  140.8090 C   0  0  1  0  0  0  0  0  0  0  0  0
  189.7150  173.5070  138.6700 F   0  0  0  0  0  0  0  0  0  0  0  0
  190.9660  173.5860  139.2700 C   0  0  2  0  0  3  0  0  0  0  0  0
  190.0070  170.4290  141.5570 F   0  0  0  0  0  0  0  0  0  0  0  0
  190.6750  170.7480  139.2800 C   0  0  2  0  0  3  0  0  0  0  0  0
  192.1570  169.7470  140.9720 C   0  0  0  0  0  1  0  0  0  0  0  0
  191.5830  171.5220  138.2940 C   0  0  1  0  0  3  0  0  0  0  0  0
  191.8900  174.4560  141.2480 O   0  0  0  0  0  1  0  0  0  0  0  0
  189.3160  171.0030  139.0840 O   0  0  0  0  0  1  0  0  0  0  0  0
  191.6500  172.1290  141.2560 C   0  0  0  0  0  2  0  0  0  0  0  0
  191.1970  171.3730  136.8530 C   0  0  0  0  0  3  0  0  0  0  0  0
  191.8240  171.9370  135.9720 O   0  0  0  0  0  0  0  0  0  0  0  0
  1  4  1  0  0  0  0
  2  6  1  0  0  0  0
  3  2  2  0  0  0  0
  3  5  1  0  0  0  0
  5  1  2  0  0  0  0
  6  4  2  0  0  0  0
  7  5  1  0  0  0  0
  8  7  2  0  0  0  0
  9 14  1  0  0  0  0
 10 13  2  0  0  0  0
 11 12  1  6  0  0  0
 11 14  1  0  0  0  0
 11 16  1  0  0  0  0
 13 12  1  0  0  0  0
 13  9  1  0  0  0  0
 14 17  2  0  0  0  0
 15 16  1  6  0  0  0
 15 18  1  0  0  0  0
 15 24  1  0  0  0  0
 17 18  1  0  0  0  0
 18  8  1  6  0  0  0
 19 23  2  0  0  0  0
 20 25  1  0  0  0  0
 21 22  1  0  0  0  0
 22 20  2  0  0  0  0
 23 20  1  0  0  0  0
 24 19  1  1  0  0  0
 24 21  1  0  0  0  0
 25 27  2  0  0  0  0
 25 26  1  0  0  0  0
 28 31  1  0  0  0  0
 29 32  2  0  0  0  0
 30 17  1  1  0  0  0
 30 32  1  0  0  0  0
 30 31  1  0  0  0  0
 32 28  1  0  0  0  0
 33  2  1  0  0  0  0
 34 33  1  0  0  0  0
 35 38  1  6  0  0  0
 36 37  1  0  0  0  0
 36 35  1  0  0  0  0
 37 35  1  0  0  0  0
 37 34  1  1  0  0  0
 38 40  1  0  0  0  0
 40 41  1  6  0  0  0
 40 39  1  0  0  0  0
 42 49  1  1  0  0  0
 42 53  1  0  0  0  0
 42 47  1  0  0  0  0
 43 46  1  0  0  0  0
 44 51  1  1  0  0  0
 44 53  1  0  0  0  0
 44 40  1  0  0  0  0
 46 45  1  6  0  0  0
 46 44  1  0  0  0  0
 48 52  1  1  0  0  0
 48 42  1  0  0  0  0
 50 54  1  6  0  0  0
 50 43  1  0  0  0  0
 50 48  1  0  0  0  0
 55 54  2  0  0  0  0
M  END
>  <MODEL>
1

>  <REMARK>
 VINA RESULT:      -6.8      0.000      0.000
  Name = 
  12 active torsions:
  status: ('A' for Active; 'I' for Inactive)
    1  A    between atoms: C_2  and  C_44
    2  A    between atoms: C_6  and  C_20
    3  A    between atoms: C_8  and  O_22
    4  A    between atoms: C_10  and  C_32
    5  A    between atoms: C_11  and  C_38
    6  A    between atoms: C_19  and  C_45
    7  A    between atoms: C_20  and  O_22
    8  A    between atoms: C_27  and  C_54
    9  A    between atoms: N_28  and  C_49
   10  A    between atoms: C_33  and  C_52
   11  A    between atoms: C_43  and  C_51
   12  A    between atoms: C_51  and  C_54
                            x       y       z     vdW  Elec       q    Type
                         _______ _______ _______ _____ _____    ______ ____

>  <TORSDO>
F 12

$$$$
=
 OpenBabel11052419413D

 55 61  0  0  1  0  0  0  0  0999 V2000
  190.5390  171.5640  141.2760 C   0  0  0  0  0  3  0  0  0  0  0  0
  192.1890  170.9250  143.4410 C   0  0  0  0  0  0  0  0  0  0  0  0
  191.6920  172.2220  143.2960 C   0  0  0  0  0  3  0  0  0  0  0  0
  191.0340  170.2640  141.4200 C   0  0  0  0  0  3  0  0  0  0  0  0
  190.8620  172.5470  142.2140 C   0  0  0  0  0  0  0  0  0  0  0  0
  191.8600  169.9430  142.5010 C   0  0  0  0  0  3  0  0  0  0  0  0
  190.3550  173.9090  142.0400 C   0  0  0  0  0  3  0  0  0  0  0  0
  189.5170  174.4150  142.8870 N   0  0  0  0  0  0  0  0  0  0  0  0
  188.0650  177.4810  146.0480 N   0  0  0  0  0  2  0  0  0  0  0  0
  186.3010  178.4080  147.2810 O   0  0  0  0  0  0  0  0  0  0  0  0
  186.7020  176.3120  144.4080 C   0  0  2  0  0  3  0  0  0  0  0  0
  185.7720  177.1630  145.2690 C   0  0  0  0  0  2  0  0  0  0  0  0
  186.6940  177.7330  146.2940 C   0  0  0  0  0  0  0  0  0  0  0  0
  188.0680  176.6940  144.8660 C   0  0  0  0  0  0  0  0  0  0  0  0
  187.6130  175.8130  142.1510 C   0  0  2  0  0  3  0  0  0  0  0  0
  186.5790  176.6400  142.9330 C   0  0  0  0  0  2  0  0  0  0  0  0
  189.1620  176.4760  144.1240 C   0  0  0  0  0  0  0  0  0  0  0  0
  189.0350  175.7850  142.7770 C   0  0  1  0  0  3  0  0  0  0  0  0
  187.8120  175.0090  139.7810 C   0  0  0  0  0  3  0  0  0  0  0  0
  186.9530  176.3610  137.9300 C   0  0  0  0  0  0  0  0  0  0  0  0
  186.5060  177.1040  140.2510 C   0  0  0  0  0  2  0  0  0  0  0  0
  186.5250  177.3240  138.7630 C   0  0  0  0  0  3  0  0  0  0  0  0
  187.4990  175.1030  138.4840 C   0  0  0  0  0  3  0  0  0  0  0  0
  187.6860  176.2140  140.6770 C   0  0  1  0  0  3  0  0  0  0  0  0
  186.9040  176.5560  136.4720 C   0  0  0  0  0  0  0  0  0  0  0  0
  186.0690  175.9280  135.7690 O   0  0  0  0  0  0  0  0  0  0  0  0
  187.7760  177.4440  135.8560 O   0  0  0  0  0  1  0  0  0  0  0  0
  192.3490  176.0360  144.2650 C   0  0  0  0  0  2  0  0  0  0  0  0
  191.1220  175.1840  146.3100 O   0  0  0  0  0  0  0  0  0  0  0  0
  190.5020  176.9610  144.6120 C   0  0  2  0  0  3  0  0  0  0  0  0
  191.6100  177.3170  143.2450 S   0  0  0  0  0  0  0  0  0  0  0  0
  191.2800  175.8770  145.3190 C   0  0  0  0  0  0  0  0  0  0  0  0
  193.0990  170.6080  144.5760 C   0  0  0  0  0  2  0  0  0  0  0  0
  194.0200  171.7840  144.8400 C   0  0  0  0  0  2  0  0  0  0  0  0
  195.5720  173.3220  143.7020 C   0  0  2  0  0  3  0  0  0  0  0  0
  196.3830  172.1840  144.2760 C   0  0  0  0  0  2  0  0  0  0  0  0
  195.0080  171.9170  143.7040 C   0  0  1  0  0  3  0  0  0  0  0  0
  196.0430  173.6240  142.4150 O   0  0  0  0  0  0  0  0  0  0  0  0
  196.0760  175.9250  143.8420 S   0  0  0  0  0  1  0  0  0  0  0  0
  196.5400  174.9520  142.3510 C   0  0  1  0  0  0  0  0  0  0  0  0
  197.9160  174.8450  142.3840 F   0  0  0  0  0  0  0  0  0  0  0  0
  197.1350  174.0420  139.1900 C   0  0  2  0  0  0  0  0  0  0  0  0
  194.4120  175.5350  139.2480 O   0  0  0  0  0  0  0  0  0  0  0  0
  196.1190  175.6900  141.0340 C   0  0  1  0  0  0  0  0  0  0  0  0
  194.0600  174.2840  141.2130 F   0  0  0  0  0  0  0  0  0  0  0  0
  194.6570  175.3950  140.6330 C   0  0  2  0  0  3  0  0  0  0  0  0
  197.9390  173.1920  139.9270 F   0  0  0  0  0  0  0  0  0  0  0  0
  195.7680  173.3880  138.9360 C   0  0  2  0  0  3  0  0  0  0  0  0
  197.8090  174.2290  137.8450 C   0  0  0  0  0  1  0  0  0  0  0  0
  194.6170  174.3340  138.5200 C   0  0  1  0  0  3  0  0  0  0  0  0
  196.1870  177.0670  141.2570 O   0  0  0  0  0  1  0  0  0  0  0  0
  195.4020  172.4960  139.9460 O   0  0  0  0  0  1  0  0  0  0  0  0
  197.0960  175.4200  139.8660 C   0  0  0  0  0  2  0  0  0  0  0  0
  193.3300  173.6350  138.1960 C   0  0  0  0  0  3  0  0  0  0  0  0
  192.6700  173.9530  137.2200 O   0  0  0  0  0  0  0  0  0  0  0  0
  1  4  2  0  0  0  0
  1  5  1  0  0  0  0
  2 33  1  0  0  0  0
  3  2  1  0  0  0  0
  4  6  1  0  0  0  0
  5  3  2  0  0  0  0
  6  2  2  0  0  0  0
  7  5  1  0  0  0  0
  7  8  2  0  0  0  0
  9 13  1  0  0  0  0
 11 16  1  6  0  0  0
 11 14  1  0  0  0  0
 11 12  1  0  0  0  0
 12 13  1  0  0  0  0
 13 10  2  0  0  0  0
 14  9  1  0  0  0  0
 15 18  1  0  0  0  0
 15 16  1  1  0  0  0
 17 14  2  0  0  0  0
 18  8  1  1  0  0  0
 18 17  1  0  0  0  0
 20 23  1  0  0  0  0
 20 22  2  0  0  0  0
 21 24  1  0  0  0  0
 22 21  1  0  0  0  0
 23 19  2  0  0  0  0
 24 19  1  6  0  0  0
 24 15  1  0  0  0  0
 25 20  1  0  0  0  0
 26 25  2  0  0  0  0
 27 25  1  0  0  0  0
 28 32  1  0  0  0  0
 30 17  1  6  0  0  0
 30 32  1  0  0  0  0
 31 28  1  0  0  0  0
 31 30  1  0  0  0  0
 32 29  2  0  0  0  0
 33 34  1  0  0  0  0
 35 38  1  6  0  0  0
 35 37  1  0  0  0  0
 35 36  1  0  0  0  0
 37 36  1  0  0  0  0
 37 34  1  1  0  0  0
 40 41  1  6  0  0  0
 40 38  1  0  0  0  0
 40 39  1  0  0  0  0
 42 49  1  6  0  0  0
 42 53  1  0  0  0  0
 42 47  1  0  0  0  0
 43 46  1  0  0  0  0
 44 51  1  1  0  0  0
 44 40  1  0  0  0  0
 46 44  1  0  0  0  0
 46 45  1  6  0  0  0
 48 42  1  0  0  0  0
 48 52  1  1  0  0  0
 50 54  1  1  0  0  0
 50 48  1  0  0  0  0
 50 43  1  0  0  0  0
 53 44  1  0  0  0  0
 55 54  2  0  0  0  0
M  END
>  <MODEL>
2

>  <REMARK>
 VINA RESULT:      -5.8      3.509      8.966
  Name = 
  12 active torsions:
  status: ('A' for Active; 'I' for Inactive)
    1  A    between atoms: C_2  and  C_44
    2  A    between atoms: C_6  and  C_20
    3  A    between atoms: C_8  and  O_22
    4  A    between atoms: C_10  and  C_32
    5  A    between atoms: C_11  and  C_38
    6  A    between atoms: C_19  and  C_45
    7  A    between atoms: C_20  and  O_22
    8  A    between atoms: C_27  and  C_54
    9  A    between atoms: N_28  and  C_49
   10  A    between atoms: C_33  and  C_52
   11  A    between atoms: C_43  and  C_51
   12  A    between atoms: C_51  and  C_54
                            x       y       z     vdW  Elec       q    Type
                         _______ _______ _______ _____ _____    ______ ____

>  <TORSDO>
F 12

$$$$
=
 OpenBabel11052419413D

 55 61  0  0  1  0  0  0  0  0999 V2000
  188.2500  175.7600  141.4440 C   0  0  0  0  0  3  0  0  0  0  0  0
  188.4930  175.8790  144.2270 C   0  0  0  0  0  0  0  0  0  0  0  0
  189.1020  174.8450  143.5130 C   0  0  0  0  0  3  0  0  0  0  0  0
  187.6410  176.7970  142.1580 C   0  0  0  0  0  3  0  0  0  0  0  0
  188.9860  174.7820  142.1180 C   0  0  0  0  0  0  0  0  0  0  0  0
  187.7600  176.8580  143.5480 C   0  0  0  0  0  3  0  0  0  0  0  0
  189.6010  173.6900  141.3610 C   0  0  0  0  0  3  0  0  0  0  0  0
  190.8660  173.7100  141.0820 N   0  0  0  0  0  0  0  0  0  0  0  0
  190.9870  172.4920  136.6100 N   0  0  0  0  0  2  0  0  0  0  0  0
  190.0660  171.2610  134.8420 O   0  0  0  0  0  0  0  0  0  0  0  0
  189.8270  171.3400  138.4110 C   0  0  2  0  0  3  0  0  0  0  0  0
  189.5200  170.6020  137.1090 C   0  0  0  0  0  2  0  0  0  0  0  0
  190.1820  171.4550  136.0790 C   0  0  0  0  0  0  0  0  0  0  0  0
  190.8340  172.3650  138.0160 C   0  0  0  0  0  0  0  0  0  0  0  0
  190.8120  171.2680  140.6910 C   0  0  2  0  0  3  0  0  0  0  0  0
  190.4490  170.4310  139.4530 C   0  0  0  0  0  2  0  0  0  0  0  0
  191.6400  172.9590  138.9050 C   0  0  0  0  0  0  0  0  0  0  0  0
  191.5220  172.6150  140.3810 C   0  0  1  0  0  3  0  0  0  0  0  0
  193.0030  170.1660  141.2290 C   0  0  0  0  0  3  0  0  0  0  0  0
  193.6990  169.8440  143.5530 C   0  0  0  0  0  0  0  0  0  0  0  0
  191.6440  171.1510  143.0980 C   0  0  0  0  0  2  0  0  0  0  0  0
  192.5820  170.4240  144.0220 C   0  0  0  0  0  3  0  0  0  0  0  0
  193.9650  169.8380  142.0970 C   0  0  0  0  0  3  0  0  0  0  0  0
  191.6110  170.4690  141.7210 C   0  0  1  0  0  3  0  0  0  0  0  0
  194.6480  169.1950  144.4710 C   0  0  0  0  0  0  0  0  0  0  0  0
  195.2820  168.1660  144.1160 O   0  0  0  0  0  0  0  0  0  0  0  0
  194.8620  169.7170  145.7400 O   0  0  0  0  0  1  0  0  0  0  0  0
  194.7480  173.7980  138.8000 C   0  0  0  0  0  2  0  0  0  0  0  0
  193.4370  175.0090  140.5950 O   0  0  0  0  0  0  0  0  0  0  0  0
  192.6910  173.9270  138.4280 C   0  0  2  0  0  3  0  0  0  0  0  0
  193.8960  173.1220  137.3690 S   0  0  0  0  0  0  0  0  0  0  0  0
  193.5850  174.4000  139.5500 C   0  0  0  0  0  0  0  0  0  0  0  0
  188.5960  175.9080  145.7130 C   0  0  0  0  0  2  0  0  0  0  0  0
  189.9240  176.5160  146.1230 C   0  0  0  0  0  2  0  0  0  0  0  0
  192.2380  176.0250  146.8090 C   0  0  2  0  0  3  0  0  0  0  0  0
  191.3250  175.6600  147.9570 C   0  0  0  0  0  2  0  0  0  0  0  0
  190.8790  175.4180  146.5310 C   0  0  1  0  0  3  0  0  0  0  0  0
  193.2200  175.0320  146.6630 O   0  0  0  0  0  0  0  0  0  0  0  0
  194.1950  177.2780  145.5070 S   0  0  0  0  0  1  0  0  0  0  0  0
  194.2560  175.4620  145.7940 C   0  0  1  0  0  0  0  0  0  0  0  0
  195.4390  175.2260  146.4650 F   0  0  0  0  0  0  0  0  0  0  0  0
  196.5550  175.5620  143.3690 C   0  0  2  0  0  0  0  0  0  0  0  0
  195.3650  172.6930  143.4260 O   0  0  0  0  0  0  0  0  0  0  0  0
  194.2740  174.6700  144.4410 C   0  0  1  0  0  0  0  0  0  0  0  0
  195.5200  172.9520  145.7630 F   0  0  0  0  0  0  0  0  0  0  0  0
  194.8020  173.2280  144.6060 C   0  0  2  0  0  3  0  0  0  0  0  0
  196.8980  176.6260  144.1830 F   0  0  0  0  0  0  0  0  0  0  0  0
  197.3200  174.3010  143.8010 C   0  0  2  0  0  3  0  0  0  0  0  0
  197.0110  175.9140  141.9670 C   0  0  0  0  0  1  0  0  0  0  0  0
  196.7560  172.9480  143.3050 C   0  0  1  0  0  3  0  0  0  0  0  0
  192.9610  174.5490  143.9810 O   0  0  0  0  0  1  0  0  0  0  0  0
  197.6270  174.2960  145.1640 O   0  0  0  0  0  1  0  0  0  0  0  0
  195.0270  175.4280  143.3220 C   0  0  0  0  0  2  0  0  0  0  0  0
  197.5890  171.7580  143.6780 C   0  0  0  0  0  3  0  0  0  0  0  0
  197.4290  170.6810  143.1280 O   0  0  0  0  0  0  0  0  0  0  0  0
  1  5  2  0  0  0  0
  1  4  1  0  0  0  0
  2 33  1  0  0  0  0
  3  2  2  0  0  0  0
  4  6  2  0  0  0  0
  5  3  1  0  0  0  0
  6  2  1  0  0  0  0
  7  5  1  0  0  0  0
  8  7  2  0  0  0  0
  9 14  1  0  0  0  0
 10 13  2  0  0  0  0
 11 12  1  6  0  0  0
 11 16  1  0  0  0  0
 13  9  1  0  0  0  0
 13 12  1  0  0  0  0
 14 11  1  0  0  0  0
 14 17  2  0  0  0  0
 15 16  1  6  0  0  0
 15 24  1  0  0  0  0
 17 18  1  0  0  0  0
 18 15  1  0  0  0  0
 18  8  1  1  0  0  0
 19 23  2  0  0  0  0
 20 22  2  0  0  0  0
 20 25  1  0  0  0  0
 21 22  1  0  0  0  0
 23 20  1  0  0  0  0
 24 19  1  6  0  0  0
 24 21  1  0  0  0  0
 25 27  1  0  0  0  0
 26 25  2  0  0  0  0
 28 32  1  0  0  0  0
 30 17  1  1  0  0  0
 30 32  1  0  0  0  0
 31 30  1  0  0  0  0
 31 28  1  0  0  0  0
 32 29  2  0  0  0  0
 33 34  1  0  0  0  0
 35 38  1  1  0  0  0
 35 36  1  0  0  0  0
 37 34  1  6  0  0  0
 37 35  1  0  0  0  0
 37 36  1  0  0  0  0
 40 39  1  6  0  0  0
 40 41  1  0  0  0  0
 40 38  1  0  0  0  0
 42 49  1  6  0  0  0
 42 48  1  0  0  0  0
 42 47  1  0  0  0  0
 43 46  1  0  0  0  0
 44 51  1  6  0  0  0
 44 46  1  0  0  0  0
 44 40  1  0  0  0  0
 46 45  1  1  0  0  0
 48 52  1  1  0  0  0
 50 43  1  0  0  0  0
 50 54  1  1  0  0  0
 50 48  1  0  0  0  0
 53 42  1  0  0  0  0
 53 44  1  0  0  0  0
 55 54  2  0  0  0  0
M  END
>  <MODEL>
3

>  <REMARK>
 VINA RESULT:      -5.8      3.237      6.077
  Name = 
  12 active torsions:
  status: ('A' for Active; 'I' for Inactive)
    1  A    between atoms: C_2  and  C_44
    2  A    between atoms: C_6  and  C_20
    3  A    between atoms: C_8  and  O_22
    4  A    between atoms: C_10  and  C_32
    5  A    between atoms: C_11  and  C_38
    6  A    between atoms: C_19  and  C_45
    7  A    between atoms: C_20  and  O_22
    8  A    between atoms: C_27  and  C_54
    9  A    between atoms: N_28  and  C_49
   10  A    between atoms: C_33  and  C_52
   11  A    between atoms: C_43  and  C_51
   12  A    between atoms: C_51  and  C_54
                            x       y       z     vdW  Elec       q    Type
                         _______ _______ _______ _____ _____    ______ ____

>  <TORSDO>
F 12

$$$$
=
 OpenBabel11052419413D

 55 61  0  0  1  0  0  0  0  0999 V2000
  190.4220  170.7390  141.8920 C   0  0  0  0  0  3  0  0  0  0  0  0
  193.1440  170.1180  141.7330 C   0  0  0  0  0  0  0  0  0  0  0  0
  192.7370  171.4270  141.9990 C   0  0  0  0  0  3  0  0  0  0  0  0
  190.8280  169.4260  141.6270 C   0  0  0  0  0  3  0  0  0  0  0  0
  191.3750  171.7430  142.0820 C   0  0  0  0  0  0  0  0  0  0  0  0
  192.1870  169.1150  141.5460 C   0  0  0  0  0  3  0  0  0  0  0  0
  190.9360  173.1170  142.3370 C   0  0  0  0  0  3  0  0  0  0  0  0
  191.0320  173.6310  143.5210 N   0  0  0  0  0  0  0  0  0  0  0  0
  192.1940  176.5560  146.9260 N   0  0  0  0  0  2  0  0  0  0  0  0
  191.7430  177.4450  149.0470 O   0  0  0  0  0  0  0  0  0  0  0  0
  190.0350  175.4890  146.5860 C   0  0  2  0  0  3  0  0  0  0  0  0
  189.9540  176.3090  147.8710 C   0  0  0  0  0  2  0  0  0  0  0  0
  191.3480  176.8150  148.0320 C   0  0  0  0  0  0  0  0  0  0  0  0
  191.3730  175.8290  146.0240 C   0  0  0  0  0  0  0  0  0  0  0  0
  189.1860  175.0890  144.2850 C   0  0  2  0  0  3  0  0  0  0  0  0
  188.9740  175.8910  145.5800 C   0  0  0  0  0  2  0  0  0  0  0  0
  191.6830  175.6330  144.7360 C   0  0  0  0  0  0  0  0  0  0  0  0
  190.6590  175.0110  143.7990 C   0  0  1  0  0  3  0  0  0  0  0  0
  186.9020  175.9240  143.6590 C   0  0  0  0  0  3  0  0  0  0  0  0
  186.5830  177.2980  141.6590 C   0  0  0  0  0  0  0  0  0  0  0  0
  188.8910  176.7150  142.3430 C   0  0  0  0  0  2  0  0  0  0  0  0
  187.8910  177.2610  141.3600 C   0  0  0  0  0  3  0  0  0  0  0  0
  186.1040  176.7100  142.9300 C   0  0  0  0  0  3  0  0  0  0  0  0
  188.2740  175.5620  143.1520 C   0  0  1  0  0  3  0  0  0  0  0  0
  185.6180  177.8970  140.7230 C   0  0  0  0  0  0  0  0  0  0  0  0
  185.7900  177.8050  139.4790 O   0  0  0  0  0  0  0  0  0  0  0  0
  184.4990  178.5650  141.2040 O   0  0  0  0  0  1  0  0  0  0  0  0
  194.2220  175.0340  142.8470 C   0  0  0  0  0  2  0  0  0  0  0  0
  194.5850  174.3730  145.2640 O   0  0  0  0  0  0  0  0  0  0  0  0
  193.0250  176.0750  144.2160 C   0  0  2  0  0  3  0  0  0  0  0  0
  193.0030  176.2890  142.4330 S   0  0  0  0  0  0  0  0  0  0  0  0
  194.0730  174.9960  144.3480 C   0  0  0  0  0  0  0  0  0  0  0  0
  194.5960  169.8080  141.6110 C   0  0  0  0  0  2  0  0  0  0  0  0
  195.2310  170.7210  140.5800 C   0  0  0  0  0  2  0  0  0  0  0  0
  194.4710  172.0040  138.6190 C   0  0  2  0  0  3  0  0  0  0  0  0
  195.3880  170.9070  138.1310 C   0  0  0  0  0  2  0  0  0  0  0  0
  194.4500  170.6460  139.2880 C   0  0  1  0  0  3  0  0  0  0  0  0
  193.3680  172.1060  137.7560 O   0  0  0  0  0  0  0  0  0  0  0  0
  194.5390  174.5480  137.7680 S   0  0  0  0  0  1  0  0  0  0  0  0
  193.4210  173.3050  136.9990 C   0  0  1  0  0  0  0  0  0  0  0  0
  194.0020  172.9700  135.7930 F   0  0  0  0  0  0  0  0  0  0  0  0
  190.7040  171.7500  135.8270 C   0  0  2  0  0  0  0  0  0  0  0  0
  189.7520  173.9840  137.7650 O   0  0  0  0  0  0  0  0  0  0  0  0
  191.9990  173.9080  136.7280 C   0  0  1  0  0  0  0  0  0  0  0  0
  191.5490  173.2390  139.0940 F   0  0  0  0  0  0  0  0  0  0  0  0
  191.1440  174.0060  138.0100 C   0  0  2  0  0  3  0  0  0  0  0  0
  191.7160  170.8310  135.6210 F   0  0  0  0  0  0  0  0  0  0  0  0
  190.0390  171.5060  137.1910 C   0  0  2  0  0  3  0  0  0  0  0  0
  189.6580  171.5010  134.7590 C   0  0  0  0  0  1  0  0  0  0  0  0
  189.2050  172.6740  137.7710 C   0  0  1  0  0  3  0  0  0  0  0  0
  192.1540  175.2170  136.2670 O   0  0  0  0  0  1  0  0  0  0  0  0
  190.9140  170.9460  138.1240 O   0  0  0  0  0  1  0  0  0  0  0  0
  191.2480  173.1670  135.5970 C   0  0  0  0  0  2  0  0  0  0  0  0
  188.5050  172.3530  139.0570 C   0  0  0  0  0  3  0  0  0  0  0  0
  188.4100  173.1830  139.9460 O   0  0  0  0  0  0  0  0  0  0  0  0
  1  5  1  0  0  0  0
  2  3  1  0  0  0  0
  3  5  2  0  0  0  0
  4  1  2  0  0  0  0
  5  7  1  0  0  0  0
  6  4  1  0  0  0  0
  6  2  2  0  0  0  0
  7  8  2  0  0  0  0
  9 13  1  0  0  0  0
 11 16  1  6  0  0  0
 11 12  1  0  0  0  0
 12 13  1  0  0  0  0
 13 10  2  0  0  0  0
 14 11  1  0  0  0  0
 14  9  1  0  0  0  0
 15 16  1  1  0  0  0
 17 14  2  0  0  0  0
 18  8  1  1  0  0  0
 18 15  1  0  0  0  0
 18 17  1  0  0  0  0
 20 23  1  0  0  0  0
 22 20  2  0  0  0  0
 22 21  1  0  0  0  0
 23 19  2  0  0  0  0
 24 21  1  1  0  0  0
 24 19  1  0  0  0  0
 24 15  1  0  0  0  0
 25 27  1  0  0  0  0
 25 20  1  0  0  0  0
 26 25  2  0  0  0  0
 28 32  1  0  0  0  0
 30 32  1  0  0  0  0
 30 17  1  6  0  0  0
 31 28  1  0  0  0  0
 31 30  1  0  0  0  0
 32 29  2  0  0  0  0
 33  2  1  0  0  0  0
 34 33  1  0  0  0  0
 35 38  1  6  0  0  0
 35 37  1  0  0  0  0
 36 35  1  0  0  0  0
 36 37  1  0  0  0  0
 37 34  1  1  0  0  0
 40 41  1  6  0  0  0
 40 38  1  0  0  0  0
 40 39  1  0  0  0  0
 42 49  1  6  0  0  0
 42 48  1  0  0  0  0
 43 50  1  0  0  0  0
 43 46  1  0  0  0  0
 44 51  1  6  0  0  0
 44 40  1  0  0  0  0
 44 46  1  0  0  0  0
 46 45  1  1  0  0  0
 47 42  1  0  0  0  0
 48 50  1  0  0  0  0
 48 52  1  1  0  0  0
 50 54  1  1  0  0  0
 53 42  1  0  0  0  0
 53 44  1  0  0  0  0
 54 55  2  0  0  0  0
M  END
>  <MODEL>
4

>  <REMARK>
 VINA RESULT:      -5.7      3.091      8.147
  Name = 
  12 active torsions:
  status: ('A' for Active; 'I' for Inactive)
    1  A    between atoms: C_2  and  C_44
    2  A    between atoms: C_6  and  C_20
    3  A    between atoms: C_8  and  O_22
    4  A    between atoms: C_10  and  C_32
    5  A    between atoms: C_11  and  C_38
    6  A    between atoms: C_19  and  C_45
    7  A    between atoms: C_20  and  O_22
    8  A    between atoms: C_27  and  C_54
    9  A    between atoms: N_28  and  C_49
   10  A    between atoms: C_33  and  C_52
   11  A    between atoms: C_43  and  C_51
   12  A    between atoms: C_51  and  C_54
                            x       y       z     vdW  Elec       q    Type
                         _______ _______ _______ _____ _____    ______ ____

>  <TORSDO>
F 12

$$$$
=
 OpenBabel11052419413D

 55 61  0  0  1  0  0  0  0  0999 V2000
  192.7280  176.2760  146.8780 C   0  0  0  0  0  3  0  0  0  0  0  0
  190.1740  175.2390  147.3480 C   0  0  0  0  0  0  0  0  0  0  0  0
  191.0720  174.5490  146.5310 C   0  0  0  0  0  3  0  0  0  0  0  0
  191.8310  176.9670  147.6980 C   0  0  0  0  0  3  0  0  0  0  0  0
  192.3540  175.0630  146.2940 C   0  0  0  0  0  0  0  0  0  0  0  0
  190.5540  176.4520  147.9330 C   0  0  0  0  0  3  0  0  0  0  0  0
  193.2950  174.3600  145.4200 C   0  0  0  0  0  3  0  0  0  0  0  0
  192.8660  173.6290  144.4400 N   0  0  0  0  0  0  0  0  0  0  0  0
  195.7870  170.0660  144.9600 N   0  0  0  0  0  2  0  0  0  0  0  0
  197.9380  169.2960  145.4810 O   0  0  0  0  0  0  0  0  0  0  0  0
  196.3720  172.4080  144.6660 C   0  0  2  0  0  3  0  0  0  0  0  0
  197.6670  171.6230  144.8610 C   0  0  0  0  0  2  0  0  0  0  0  0
  197.1800  170.2410  145.1410 C   0  0  0  0  0  0  0  0  0  0  0  0
  195.3190  171.3560  144.5940 C   0  0  0  0  0  0  0  0  0  0  0  0
  194.9940  173.8680  143.2020 C   0  0  2  0  0  3  0  0  0  0  0  0
  196.3630  173.1880  143.3650 C   0  0  0  0  0  2  0  0  0  0  0  0
  194.1140  171.5810  144.0540 C   0  0  0  0  0  0  0  0  0  0  0  0
  193.7730  172.9610  143.5170 C   0  0  1  0  0  3  0  0  0  0  0  0
  196.1480  174.6370  141.1090 C   0  0  0  0  0  3  0  0  0  0  0  0
  194.9180  174.8130  139.0000 C   0  0  0  0  0  0  0  0  0  0  0  0
  193.7760  173.8210  140.9620 C   0  0  0  0  0  2  0  0  0  0  0  0
  193.7780  174.3890  139.5690 C   0  0  0  0  0  3  0  0  0  0  0  0
  196.1730  174.8080  139.7830 C   0  0  0  0  0  3  0  0  0  0  0  0
  194.8300  174.5270  141.8310 C   0  0  1  0  0  3  0  0  0  0  0  0
  194.9250  175.3030  137.6120 C   0  0  0  0  0  0  0  0  0  0  0  0
  195.9950  175.3330  136.9480 O   0  0  0  0  0  0  0  0  0  0  0  0
  193.7470  175.7310  137.0160 O   0  0  0  0  0  1  0  0  0  0  0  0
  191.6810  170.2210  142.4400 C   0  0  0  0  0  2  0  0  0  0  0  0
  190.9270  171.6200  144.4110 O   0  0  0  0  0  0  0  0  0  0  0  0
  193.1250  170.4500  143.9400 C   0  0  2  0  0  3  0  0  0  0  0  0
  193.3430  169.5380  142.4090 S   0  0  0  0  0  0  0  0  0  0  0  0
  191.7090  170.9440  143.7650 C   0  0  0  0  0  0  0  0  0  0  0  0
  188.8030  174.6970  147.5590 C   0  0  0  0  0  2  0  0  0  0  0  0
  187.8060  175.8370  147.6380 C   0  0  0  0  0  2  0  0  0  0  0  0
  187.2960  177.1530  145.6190 C   0  0  2  0  0  3  0  0  0  0  0  0
  187.2420  178.0840  146.8080 C   0  0  0  0  0  2  0  0  0  0  0  0
  188.2720  176.9780  146.7630 C   0  0  1  0  0  3  0  0  0  0  0  0
  187.9490  177.7960  144.5560 O   0  0  0  0  0  0  0  0  0  0  0  0
  185.6210  176.7910  143.6060 S   0  0  0  0  0  1  0  0  0  0  0  0
  187.1380  177.8100  143.3910 C   0  0  1  0  0  0  0  0  0  0  0  0
  186.7010  179.1110  143.2470 F   0  0  0  0  0  0  0  0  0  0  0  0
  190.2460  176.6010  143.1700 C   0  0  2  0  0  0  0  0  0  0  0  0
  188.5790  175.3500  140.8660 O   0  0  0  0  0  0  0  0  0  0  0  0
  187.9270  177.3940  142.1020 C   0  0  1  0  0  0  0  0  0  0  0  0
  186.9180  175.1460  142.5250 F   0  0  0  0  0  0  0  0  0  0  0  0
  187.5560  175.9770  141.6140 C   0  0  2  0  0  3  0  0  0  0  0  0
  190.1600  177.0310  144.4810 F   0  0  0  0  0  0  0  0  0  0  0  0
  189.8510  175.1180  143.0740 C   0  0  2  0  0  3  0  0  0  0  0  0
  191.7030  176.7110  142.7640 C   0  0  0  0  0  1  0  0  0  0  0  0
  189.4730  174.5940  141.6690 C   0  0  1  0  0  3  0  0  0  0  0  0
  187.5750  178.2630  141.0680 O   0  0  0  0  0  1  0  0  0  0  0  0
  188.9380  174.7400  144.0610 O   0  0  0  0  0  1  0  0  0  0  0  0
  189.4560  177.5580  142.2660 C   0  0  0  0  0  2  0  0  0  0  0  0
  189.1840  173.1230  141.6160 C   0  0  0  0  0  3  0  0  0  0  0  0
  188.3300  172.6770  140.8680 O   0  0  0  0  0  0  0  0  0  0  0  0
  1  4  1  0  0  0  0
  2 33  1  0  0  0  0
  2  6  1  0  0  0  0
  3  2  2  0  0  0  0
  4  6  2  0  0  0  0
  5  3  1  0  0  0  0
  5  1  2  0  0  0  0
  7  5  1  0  0  0  0
  8  7  2  0  0  0  0
  9 13  1  0  0  0  0
 11 16  1  6  0  0  0
 11 12  1  0  0  0  0
 12 13  1  0  0  0  0
 13 10  2  0  0  0  0
 14 11  1  0  0  0  0
 14  9  1  0  0  0  0
 15 16  1  6  0  0  0
 15 18  1  0  0  0  0
 17 14  2  0  0  0  0
 18 17  1  0  0  0  0
 18  8  1  1  0  0  0
 19 24  1  0  0  0  0
 20 22  2  0  0  0  0
 20 23  1  0  0  0  0
 22 21  1  0  0  0  0
 23 19  2  0  0  0  0
 24 21  1  6  0  0  0
 24 15  1  0  0  0  0
 25 20  1  0  0  0  0
 26 25  2  0  0  0  0
 27 25  1  0  0  0  0
 28 32  1  0  0  0  0
 30 17  1  6  0  0  0
 31 28  1  0  0  0  0
 31 30  1  0  0  0  0
 32 30  1  0  0  0  0
 32 29  2  0  0  0  0
 33 34  1  0  0  0  0
 35 38  1  6  0  0  0
 35 37  1  0  0  0  0
 35 36  1  0  0  0  0
 37 36  1  0  0  0  0
 37 34  1  1  0  0  0
 40 41  1  6  0  0  0
 40 39  1  0  0  0  0
 40 38  1  0  0  0  0
 42 49  1  6  0  0  0
 42 47  1  0  0  0  0
 43 46  1  0  0  0  0
 43 50  1  0  0  0  0
 44 51  1  6  0  0  0
 44 53  1  0  0  0  0
 44 40  1  0  0  0  0
 46 44  1  0  0  0  0
 46 45  1  1  0  0  0
 48 42  1  0  0  0  0
 48 52  1  1  0  0  0
 50 54  1  1  0  0  0
 50 48  1  0  0  0  0
 53 42  1  0  0  0  0
 55 54  2  0  0  0  0
M  END
>  <MODEL>
5

>  <REMARK>
 VINA RESULT:      -5.7      2.871      6.144
  Name = 
  12 active torsions:
  status: ('A' for Active; 'I' for Inactive)
    1  A    between atoms: C_2  and  C_44
    2  A    between atoms: C_6  and  C_20
    3  A    between atoms: C_8  and  O_22
    4  A    between atoms: C_10  and  C_32
    5  A    between atoms: C_11  and  C_38
    6  A    between atoms: C_19  and  C_45
    7  A    between atoms: C_20  and  O_22
    8  A    between atoms: C_27  and  C_54
    9  A    between atoms: N_28  and  C_49
   10  A    between atoms: C_33  and  C_52
   11  A    between atoms: C_43  and  C_51
   12  A    between atoms: C_51  and  C_54
                            x       y       z     vdW  Elec       q    Type
                         _______ _______ _______ _____ _____    ______ ____

>  <TORSDO>
F 12

$$$$
=
 OpenBabel11052419413D

 55 61  0  0  1  0  0  0  0  0999 V2000
  192.8300  176.3670  144.1840 C   0  0  0  0  0  3  0  0  0  0  0  0
  191.2530  175.7590  146.4110 C   0  0  0  0  0  0  0  0  0  0  0  0
  192.2790  174.8960  146.0200 C   0  0  0  0  0  3  0  0  0  0  0  0
  191.8050  177.2350  144.5740 C   0  0  0  0  0  3  0  0  0  0  0  0
  193.0730  175.1970  144.9070 C   0  0  0  0  0  0  0  0  0  0  0  0
  191.0150  176.9320  145.6860 C   0  0  0  0  0  3  0  0  0  0  0  0
  194.1360  174.2860  144.4740 C   0  0  0  0  0  3  0  0  0  0  0  0
  194.3700  174.0970  143.2140 N   0  0  0  0  0  0  0  0  0  0  0  0
  196.8960  174.0990  139.3260 N   0  0  0  0  0  2  0  0  0  0  0  0
  197.1890  173.3500  137.1250 O   0  0  0  0  0  0  0  0  0  0  0  0
  195.1950  172.4830  139.9660 C   0  0  2  0  0  3  0  0  0  0  0  0
  195.7000  172.1050  138.5760 C   0  0  0  0  0  2  0  0  0  0  0  0
  196.6400  173.2160  138.2490 C   0  0  0  0  0  0  0  0  0  0  0  0
  196.0850  173.6030  140.3820 C   0  0  0  0  0  0  0  0  0  0  0  0
  194.9100  171.8430  142.3500 C   0  0  2  0  0  3  0  0  0  0  0  0
  195.3500  171.3490  140.9620 C   0  0  0  0  0  2  0  0  0  0  0  0
  196.2350  173.9650  141.6630 C   0  0  0  0  0  0  0  0  0  0  0  0
  195.4530  173.2430  142.7480 C   0  0  1  0  0  3  0  0  0  0  0  0
  196.3250  171.2850  144.3480 C   0  0  0  0  0  3  0  0  0  0  0  0
  195.4940  169.7680  146.0790 C   0  0  0  0  0  0  0  0  0  0  0  0
  193.9540  170.4580  144.2660 C   0  0  0  0  0  2  0  0  0  0  0  0
  194.3260  169.5950  145.4410 C   0  0  0  0  0  3  0  0  0  0  0  0
  196.4710  170.7540  145.5660 C   0  0  0  0  0  3  0  0  0  0  0  0
  195.2060  170.8230  143.4510 C   0  0  1  0  0  3  0  0  0  0  0  0
  195.8220  168.9680  147.2710 C   0  0  0  0  0  0  0  0  0  0  0  0
  194.9090  168.5120  148.0080 O   0  0  0  0  0  1  0  0  0  0  0  0
  197.1470  168.7000  147.5900 O   0  0  0  0  0  0  0  0  0  0  0  0
  196.9580  176.5000  143.5140 C   0  0  0  0  0  2  0  0  0  0  0  0
  195.9860  177.1380  141.2650 O   0  0  0  0  0  0  0  0  0  0  0  0
  197.2130  175.0530  142.0210 C   0  0  2  0  0  3  0  0  0  0  0  0
  197.7650  174.9080  143.7230 S   0  0  0  0  0  0  0  0  0  0  0  0
  196.5640  176.4160  142.0590 C   0  0  0  0  0  0  0  0  0  0  0  0
  190.3940  175.4040  147.5750 C   0  0  0  0  0  2  0  0  0  0  0  0
  188.9510  175.2740  147.1280 C   0  0  0  0  0  2  0  0  0  0  0  0
  187.0980  176.6660  146.2900 C   0  0  2  0  0  3  0  0  0  0  0  0
  186.8450  176.3850  147.7530 C   0  0  0  0  0  2  0  0  0  0  0  0
  188.2580  176.6110  147.2630 C   0  0  1  0  0  3  0  0  0  0  0  0
  186.7950  178.0090  146.0170 O   0  0  0  0  0  0  0  0  0  0  0  0
  185.5650  179.6600  144.2580 S   0  0  0  0  0  1  0  0  0  0  0  0
  186.6630  178.2290  144.6210 C   0  0  1  0  0  0  0  0  0  0  0  0
  187.9170  178.5930  144.1730 F   0  0  0  0  0  0  0  0  0  0  0  0
  186.4710  177.7570  141.3170 C   0  0  2  0  0  0  0  0  0  0  0  0
  187.1750  175.0280  142.6230 O   0  0  0  0  0  0  0  0  0  0  0  0
  186.2010  176.9450  143.8500 C   0  0  1  0  0  0  0  0  0  0  0  0
  188.6220  176.3290  143.9520 F   0  0  0  0  0  0  0  0  0  0  0  0
  187.3230  175.8900  143.7330 C   0  0  2  0  0  3  0  0  0  0  0  0
  186.6770  179.1200  141.4370 F   0  0  0  0  0  0  0  0  0  0  0  0
  187.8170  177.0310  141.1650 C   0  0  2  0  0  3  0  0  0  0  0  0
  185.6890  177.5410  140.0370 C   0  0  0  0  0  1  0  0  0  0  0  0
  187.8160  175.5100  141.4520 C   0  0  1  0  0  3  0  0  0  0  0  0
  185.1750  176.3380  144.5770 O   0  0  0  0  0  1  0  0  0  0  0  0
  188.8660  177.7040  141.7950 O   0  0  0  0  0  1  0  0  0  0  0  0
  185.5810  177.2730  142.4720 C   0  0  0  0  0  2  0  0  0  0  0  0
  189.1320  174.8350  141.2020 C   0  0  0  0  0  3  0  0  0  0  0  0
  189.2880  174.0990  140.2420 O   0  0  0  0  0  0  0  0  0  0  0  0
  1  4  2  0  0  0  0
  1  5  1  0  0  0  0
  2 33  1  0  0  0  0
  3  2  1  0  0  0  0
  4  6  1  0  0  0  0
  5  3  2  0  0  0  0
  6  2  2  0  0  0  0
  7  5  1  0  0  0  0
  8  7  2  0  0  0  0
  9 14  1  0  0  0  0
 10 13  2  0  0  0  0
 11 12  1  6  0  0  0
 11 14  1  0  0  0  0
 11 16  1  0  0  0  0
 13 12  1  0  0  0  0
 13  9  1  0  0  0  0
 14 17  2  0  0  0  0
 15 16  1  6  0  0  0
 15 18  1  0  0  0  0
 15 24  1  0  0  0  0
 17 18  1  0  0  0  0
 18  8  1  6  0  0  0
 19 23  2  0  0  0  0
 20 25  1  0  0  0  0
 21 22  1  0  0  0  0
 22 20  2  0  0  0  0
 23 20  1  0  0  0  0
 24 21  1  1  0  0  0
 24 19  1  0  0  0  0
 25 27  2  0  0  0  0
 25 26  1  0  0  0  0
 28 31  1  0  0  0  0
 29 32  2  0  0  0  0
 30 17  1  1  0  0  0
 30 32  1  0  0  0  0
 30 31  1  0  0  0  0
 32 28  1  0  0  0  0
 34 33  1  0  0  0  0
 35 38  1  1  0  0  0
 35 37  1  0  0  0  0
 35 36  1  0  0  0  0
 37 34  1  6  0  0  0
 37 36  1  0  0  0  0
 39 40  1  0  0  0  0
 40 41  1  6  0  0  0
 40 38  1  0  0  0  0
 42 49  1  6  0  0  0
 42 47  1  0  0  0  0
 42 53  1  0  0  0  0
 43 46  1  0  0  0  0
 44 51  1  1  0  0  0
 44 40  1  0  0  0  0
 46 44  1  0  0  0  0
 46 45  1  6  0  0  0
 48 42  1  0  0  0  0
 48 50  1  0  0  0  0
 48 52  1  1  0  0  0
 50 54  1  1  0  0  0
 50 43  1  0  0  0  0
 53 44  1  0  0  0  0
 55 54  2  0  0  0  0
M  END
>  <MODEL>
6

>  <REMARK>
 VINA RESULT:      -5.5      2.557      4.421
  Name = 
  12 active torsions:
  status: ('A' for Active; 'I' for Inactive)
    1  A    between atoms: C_2  and  C_44
    2  A    between atoms: C_6  and  C_20
    3  A    between atoms: C_8  and  O_22
    4  A    between atoms: C_10  and  C_32
    5  A    between atoms: C_11  and  C_38
    6  A    between atoms: C_19  and  C_45
    7  A    between atoms: C_20  and  O_22
    8  A    between atoms: C_27  and  C_54
    9  A    between atoms: N_28  and  C_49
   10  A    between atoms: C_33  and  C_52
   11  A    between atoms: C_43  and  C_51
   12  A    between atoms: C_51  and  C_54
                            x       y       z     vdW  Elec       q    Type
                         _______ _______ _______ _____ _____    ______ ____

>  <TORSDO>
F 12

$$$$
=
 OpenBabel11052419413D

 55 61  0  0  1  0  0  0  0  0999 V2000
  190.4700  170.4330  141.8170 C   0  0  0  0  0  3  0  0  0  0  0  0
  192.9870  169.5490  142.6540 C   0  0  0  0  0  0  0  0  0  0  0  0
  192.6220  170.8870  142.8200 C   0  0  0  0  0  3  0  0  0  0  0  0
  190.8330  169.0920  141.6520 C   0  0  0  0  0  3  0  0  0  0  0  0
  191.3610  171.3340  142.4050 C   0  0  0  0  0  0  0  0  0  0  0  0
  192.0910  168.6490  142.0680 C   0  0  0  0  0  3  0  0  0  0  0  0
  190.9760  172.7390  142.5530 C   0  0  0  0  0  3  0  0  0  0  0  0
  190.9620  173.3010  143.7200 N   0  0  0  0  0  0  0  0  0  0  0  0
  192.3060  176.4400  146.8550 N   0  0  0  0  0  2  0  0  0  0  0  0
  191.9420  177.5050  148.9110 O   0  0  0  0  0  0  0  0  0  0  0  0
  190.1070  175.4220  146.6530 C   0  0  2  0  0  3  0  0  0  0  0  0
  190.0870  176.3410  147.8720 C   0  0  0  0  0  2  0  0  0  0  0  0
  191.5000  176.8110  147.9580 C   0  0  0  0  0  0  0  0  0  0  0  0
  191.4390  175.6730  146.0330 C   0  0  0  0  0  0  0  0  0  0  0  0
  189.1830  174.8740  144.4120 C   0  0  2  0  0  3  0  0  0  0  0  0
  189.0320  175.7800  145.6450 C   0  0  0  0  0  2  0  0  0  0  0  0
  191.7070  175.3680  144.7570 C   0  0  0  0  0  0  0  0  0  0  0  0
  190.6400  174.7090  143.8980 C   0  0  1  0  0  3  0  0  0  0  0  0
  187.1250  176.1540  143.7570 C   0  0  0  0  0  3  0  0  0  0  0  0
  186.8580  177.0020  141.4770 C   0  0  0  0  0  0  0  0  0  0  0  0
  189.0140  175.9600  142.1110 C   0  0  0  0  0  2  0  0  0  0  0  0
  188.0470  176.5050  141.0970 C   0  0  0  0  0  3  0  0  0  0  0  0
  186.4530  176.9270  142.8980 C   0  0  0  0  0  3  0  0  0  0  0  0
  188.2570  175.2870  143.2680 C   0  0  1  0  0  3  0  0  0  0  0  0
  185.9450  177.5970  140.4880 C   0  0  0  0  0  0  0  0  0  0  0  0
  186.1220  177.4080  139.2560 O   0  0  0  0  0  0  0  0  0  0  0  0
  184.8700  178.3700  140.9070 O   0  0  0  0  0  1  0  0  0  0  0  0
  194.1050  174.6120  142.7430 C   0  0  0  0  0  2  0  0  0  0  0  0
  194.5440  173.9190  145.1380 O   0  0  0  0  0  0  0  0  0  0  0  0
  193.0490  175.7230  144.1710 C   0  0  2  0  0  3  0  0  0  0  0  0
  192.9520  175.9460  142.3920 S   0  0  0  0  0  0  0  0  0  0  0  0
  194.0290  174.5770  144.2500 C   0  0  0  0  0  0  0  0  0  0  0  0
  194.3460  169.1000  143.0670 C   0  0  0  0  0  2  0  0  0  0  0  0
  195.3860  170.0860  142.5700 C   0  0  0  0  0  2  0  0  0  0  0  0
  195.2580  170.7750  140.2080 C   0  0  2  0  0  3  0  0  0  0  0  0
  196.7110  170.8000  140.6230 C   0  0  0  0  0  2  0  0  0  0  0  0
  195.7920  169.7250  141.1600 C   0  0  1  0  0  3  0  0  0  0  0  0
  195.1510  170.2170  138.9250 O   0  0  0  0  0  0  0  0  0  0  0  0
  193.2440  168.3100  138.6770 S   0  0  0  0  0  1  0  0  0  0  0  0
  193.7910  170.0620  138.5470 C   0  0  1  0  0  0  0  0  0  0  0  0
  193.0540  170.7580  139.4840 F   0  0  0  0  0  0  0  0  0  0  0  0
  190.8410  170.9770  137.2690 C   0  0  2  0  0  0  0  0  0  0  0  0
  193.0160  172.8280  136.0470 O   0  0  0  0  0  0  0  0  0  0  0  0
  193.4910  170.6500  137.1260 C   0  0  1  0  0  0  0  0  0  0  0  0
  193.8630  172.8550  138.2460 F   0  0  0  0  0  0  0  0  0  0  0  0
  193.7710  172.1670  137.0430 C   0  0  2  0  0  3  0  0  0  0  0  0
  190.4960  170.3000  138.4250 F   0  0  0  0  0  0  0  0  0  0  0  0
  190.9820  172.4790  137.5600 C   0  0  2  0  0  3  0  0  0  0  0  0
  189.6900  170.8070  136.2980 C   0  0  0  0  0  1  0  0  0  0  0  0
  191.7690  173.3130  136.5210 C   0  0  1  0  0  3  0  0  0  0  0  0
  194.3520  170.0490  136.2060 O   0  0  0  0  0  1  0  0  0  0  0  0
  191.3740  172.7380  138.8760 O   0  0  0  0  0  1  0  0  0  0  0  0
  192.0670  170.3060  136.6320 C   0  0  0  0  0  2  0  0  0  0  0  0
  191.7990  174.7850  136.8060 C   0  0  0  0  0  3  0  0  0  0  0  0
  192.7290  175.4790  136.4300 O   0  0  0  0  0  0  0  0  0  0  0  0
  1  5  1  0  0  0  0
  2  3  1  0  0  0  0
  2 33  1  0  0  0  0
  4  1  2  0  0  0  0
  4  6  1  0  0  0  0
  5  7  1  0  0  0  0
  5  3  2  0  0  0  0
  6  2  2  0  0  0  0
  7  8  2  0  0  0  0
  9 13  1  0  0  0  0
 11 16  1  6  0  0  0
 11 12  1  0  0  0  0
 12 13  1  0  0  0  0
 13 10  2  0  0  0  0
 14 11  1  0  0  0  0
 14  9  1  0  0  0  0
 15 16  1  1  0  0  0
 17 14  2  0  0  0  0
 18  8  1  1  0  0  0
 18 15  1  0  0  0  0
 18 17  1  0  0  0  0
 20 23  1  0  0  0  0
 22 20  2  0  0  0  0
 22 21  1  0  0  0  0
 23 19  2  0  0  0  0
 24 21  1  6  0  0  0
 24 19  1  0  0  0  0
 24 15  1  0  0  0  0
 25 27  1  0  0  0  0
 25 20  1  0  0  0  0
 26 25  2  0  0  0  0
 28 32  1  0  0  0  0
 30 32  1  0  0  0  0
 30 17  1  6  0  0  0
 31 28  1  0  0  0  0
 31 30  1  0  0  0  0
 32 29  2  0  0  0  0
 34 33  1  0  0  0  0
 35 38  1  6  0  0  0
 35 36  1  0  0  0  0
 35 37  1  0  0  0  0
 36 37  1  0  0  0  0
 37 34  1  1  0  0  0
 40 39  1  1  0  0  0
 40 38  1  0  0  0  0
 40 41  1  0  0  0  0
 42 49  1  6  0  0  0
 42 48  1  0  0  0  0
 42 47  1  0  0  0  0
 43 50  1  0  0  0  0
 43 46  1  0  0  0  0
 44 51  1  6  0  0  0
 44 40  1  0  0  0  0
 46 44  1  0  0  0  0
 46 45  1  1  0  0  0
 48 52  1  1  0  0  0
 50 54  1  1  0  0  0
 50 48  1  0  0  0  0
 53 44  1  0  0  0  0
 53 42  1  0  0  0  0
 55 54  2  0  0  0  0
M  END
>  <MODEL>
7

>  <REMARK>
 VINA RESULT:      -5.4      2.978      8.116
  Name = 
  12 active torsions:
  status: ('A' for Active; 'I' for Inactive)
    1  A    between atoms: C_2  and  C_44
    2  A    between atoms: C_6  and  C_20
    3  A    between atoms: C_8  and  O_22
    4  A    between atoms: C_10  and  C_32
    5  A    between atoms: C_11  and  C_38
    6  A    between atoms: C_19  and  C_45
    7  A    between atoms: C_20  and  O_22
    8  A    between atoms: C_27  and  C_54
    9  A    between atoms: N_28  and  C_49
   10  A    between atoms: C_33  and  C_52
   11  A    between atoms: C_43  and  C_51
   12  A    between atoms: C_51  and  C_54
                            x       y       z     vdW  Elec       q    Type
                         _______ _______ _______ _____ _____    ______ ____

>  <TORSDO>
F 12

$$$$
=
 OpenBabel11052419413D

 55 61  0  0  1  0  0  0  0  0999 V2000
  193.7230  169.9600  144.5710 C   0  0  0  0  0  3  0  0  0  0  0  0
  196.1150  169.7180  143.1420 C   0  0  0  0  0  0  0  0  0  0  0  0
  195.3290  170.8650  143.0080 C   0  0  0  0  0  3  0  0  0  0  0  0
  194.5090  168.8110  144.7090 C   0  0  0  0  0  3  0  0  0  0  0  0
  194.1320  170.9920  143.7230 C   0  0  0  0  0  0  0  0  0  0  0  0
  195.7040  168.6880  143.9950 C   0  0  0  0  0  3  0  0  0  0  0  0
  193.2890  172.1800  143.5710 C   0  0  0  0  0  3  0  0  0  0  0  0
  192.7920  172.7740  144.6090 N   0  0  0  0  0  0  0  0  0  0  0  0
  192.5700  176.6080  147.2070 N   0  0  0  0  0  2  0  0  0  0  0  0
  191.5950  177.7630  148.9970 O   0  0  0  0  0  0  0  0  0  0  0  0
  190.8870  174.8620  147.0270 C   0  0  2  0  0  3  0  0  0  0  0  0
  190.3950  175.8820  148.0510 C   0  0  0  0  0  2  0  0  0  0  0  0
  191.5440  176.8280  148.1580 C   0  0  0  0  0  0  0  0  0  0  0  0
  192.1300  175.4730  146.4760 C   0  0  0  0  0  0  0  0  0  0  0  0
  190.5130  173.7030  144.8610 C   0  0  2  0  0  3  0  0  0  0  0  0
  189.9020  174.6670  145.8900 C   0  0  0  0  0  2  0  0  0  0  0  0
  192.6560  175.0990  145.3020 C   0  0  0  0  0  0  0  0  0  0  0  0
  191.9970  173.9890  144.4990 C   0  0  1  0  0  3  0  0  0  0  0  0
  189.8680  174.7780  142.6860 C   0  0  0  0  0  3  0  0  0  0  0  0
  189.0590  173.4210  140.8160 C   0  0  0  0  0  0  0  0  0  0  0  0
  189.9030  172.2700  142.8420 C   0  0  0  0  0  2  0  0  0  0  0  0
  189.1880  172.2830  141.5180 C   0  0  0  0  0  3  0  0  0  0  0  0
  189.5440  174.6950  141.3920 C   0  0  0  0  0  3  0  0  0  0  0  0
  189.6660  173.5910  143.5930 C   0  0  1  0  0  3  0  0  0  0  0  0
  188.4200  173.4140  139.4910 C   0  0  0  0  0  0  0  0  0  0  0  0
  188.1700  172.3280  138.9050 O   0  0  0  0  0  1  0  0  0  0  0  0
  188.0790  174.6110  138.8740 O   0  0  0  0  0  0  0  0  0  0  0  0
  195.3800  174.9690  143.5890 C   0  0  0  0  0  2  0  0  0  0  0  0
  195.7450  174.7370  146.0840 O   0  0  0  0  0  0  0  0  0  0  0  0
  193.8670  175.8150  144.7660 C   0  0  2  0  0  3  0  0  0  0  0  0
  193.9060  175.7900  142.9710 S   0  0  0  0  0  0  0  0  0  0  0  0
  195.1500  175.0800  145.0770 C   0  0  0  0  0  0  0  0  0  0  0  0
  197.3660  169.5840  142.3450 C   0  0  0  0  0  2  0  0  0  0  0  0
  197.6240  170.8650  141.5750 C   0  0  0  0  0  2  0  0  0  0  0  0
  196.8360  172.1750  139.6430 C   0  0  2  0  0  3  0  0  0  0  0  0
  197.9410  171.2610  139.1670 C   0  0  0  0  0  2  0  0  0  0  0  0
  196.9650  170.7800  140.2170 C   0  0  1  0  0  3  0  0  0  0  0  0
  195.8010  172.1850  138.6950 O   0  0  0  0  0  0  0  0  0  0  0  0
  195.9840  174.7180  139.6370 S   0  0  0  0  0  1  0  0  0  0  0  0
  195.4250  173.5130  138.3640 C   0  0  1  0  0  0  0  0  0  0  0  0
  196.1200  173.8300  137.2140 F   0  0  0  0  0  0  0  0  0  0  0  0
  193.5290  171.6980  136.2930 C   0  0  2  0  0  0  0  0  0  0  0  0
  191.7530  172.5560  138.6930 O   0  0  0  0  0  0  0  0  0  0  0  0
  193.8890  173.6510  138.0830 C   0  0  1  0  0  0  0  0  0  0  0  0
  193.6630  172.0220  139.9660 F   0  0  0  0  0  0  0  0  0  0  0  0
  193.0270  172.9560  139.1600 C   0  0  2  0  0  3  0  0  0  0  0  0
  194.8190  171.3300  135.9560 F   0  0  0  0  0  0  0  0  0  0  0  0
  192.9700  170.7430  137.3600 C   0  0  2  0  0  3  0  0  0  0  0  0
  192.6830  171.5340  135.0460 C   0  0  0  0  0  1  0  0  0  0  0  0
  191.7420  171.2420  138.1580 C   0  0  1  0  0  3  0  0  0  0  0  0
  193.5490  175.0050  138.1330 O   0  0  0  0  0  1  0  0  0  0  0  0
  193.9670  170.2030  138.1750 O   0  0  0  0  0  1  0  0  0  0  0  0
  193.5030  173.1890  136.6590 C   0  0  0  0  0  2  0  0  0  0  0  0
  191.1820  170.2380  139.1200 C   0  0  0  0  0  3  0  0  0  0  0  0
  190.1070  169.6990  138.9120 O   0  0  0  0  0  0  0  0  0  0  0  0
  1  4  1  0  0  0  0
  2  6  1  0  0  0  0
  3  2  2  0  0  0  0
  3  5  1  0  0  0  0
  5  1  2  0  0  0  0
  6  4  2  0  0  0  0
  7  5  1  0  0  0  0
  7  8  2  0  0  0  0
  9 13  1  0  0  0  0
 11 16  1  6  0  0  0
 11 12  1  0  0  0  0
 12 13  1  0  0  0  0
 13 10  2  0  0  0  0
 14 11  1  0  0  0  0
 14  9  1  0  0  0  0
 15 16  1  1  0  0  0
 17 14  2  0  0  0  0
 18  8  1  1  0  0  0
 18 15  1  0  0  0  0
 18 17  1  0  0  0  0
 20 23  1  0  0  0  0
 20 22  2  0  0  0  0
 21 24  1  0  0  0  0
 22 21  1  0  0  0  0
 23 19  2  0  0  0  0
 24 19  1  6  0  0  0
 24 15  1  0  0  0  0
 25 20  1  0  0  0  0
 26 25  1  0  0  0  0
 27 25  2  0  0  0  0
 28 32  1  0  0  0  0
 30 32  1  0  0  0  0
 30 17  1  1  0  0  0
 31 28  1  0  0  0  0
 31 30  1  0  0  0  0
 32 29  2  0  0  0  0
 33  2  1  0  0  0  0
 34 33  1  0  0  0  0
 35 38  1  6  0  0  0
 35 37  1  0  0  0  0
 36 35  1  0  0  0  0
 36 37  1  0  0  0  0
 37 34  1  1  0  0  0
 40 41  1  6  0  0  0
 40 38  1  0  0  0  0
 40 39  1  0  0  0  0
 42 49  1  6  0  0  0
 42 53  1  0  0  0  0
 42 48  1  0  0  0  0
 43 46  1  0  0  0  0
 44 51  1  1  0  0  0
 44 40  1  0  0  0  0
 44 46  1  0  0  0  0
 46 45  1  6  0  0  0
 47 42  1  0  0  0  0
 48 50  1  0  0  0  0
 48 52  1  1  0  0  0
 50 43  1  0  0  0  0
 50 54  1  1  0  0  0
 53 44  1  0  0  0  0
 55 54  2  0  0  0  0
M  END
>  <MODEL>
8

>  <REMARK>
 VINA RESULT:      -5.0      2.810      7.485
  Name = 
  12 active torsions:
  status: ('A' for Active; 'I' for Inactive)
    1  A    between atoms: C_2  and  C_44
    2  A    between atoms: C_6  and  C_20
    3  A    between atoms: C_8  and  O_22
    4  A    between atoms: C_10  and  C_32
    5  A    between atoms: C_11  and  C_38
    6  A    between atoms: C_19  and  C_45
    7  A    between atoms: C_20  and  O_22
    8  A    between atoms: C_27  and  C_54
    9  A    between atoms: N_28  and  C_49
   10  A    between atoms: C_33  and  C_52
   11  A    between atoms: C_43  and  C_51
   12  A    between atoms: C_51  and  C_54
                            x       y       z     vdW  Elec       q    Type
                         _______ _______ _______ _____ _____    ______ ____

>  <TORSDO>
F 12

$$$$
=
 OpenBabel11052419413D

 55 61  0  0  1  0  0  0  0  0999 V2000
  192.3210  170.6300  144.2400 C   0  0  0  0  0  3  0  0  0  0  0  0
  191.5150  169.6650  141.7420 C   0  0  0  0  0  0  0  0  0  0  0  0
  191.1150  170.9330  142.1670 C   0  0  0  0  0  3  0  0  0  0  0  0
  192.7240  169.3590  143.8150 C   0  0  0  0  0  3  0  0  0  0  0  0
  191.5180  171.4230  143.4160 C   0  0  0  0  0  0  0  0  0  0  0  0
  192.3220  168.8750  142.5680 C   0  0  0  0  0  3  0  0  0  0  0  0
  191.0850  172.7420  143.8810 C   0  0  0  0  0  3  0  0  0  0  0  0
  191.1630  173.7740  143.1040 N   0  0  0  0  0  0  0  0  0  0  0  0
  192.0920  176.4200  146.7970 N   0  0  0  0  0  2  0  0  0  0  0  0
  191.5670  177.0570  148.9900 O   0  0  0  0  0  0  0  0  0  0  0  0
  190.0180  175.2400  146.3250 C   0  0  2  0  0  3  0  0  0  0  0  0
  189.8710  175.9200  147.6840 C   0  0  0  0  0  2  0  0  0  0  0  0
  191.2240  176.5050  147.9120 C   0  0  0  0  0  0  0  0  0  0  0  0
  191.3310  175.7300  145.8160 C   0  0  0  0  0  0  0  0  0  0  0  0
  189.2120  175.0130  143.9860 C   0  0  2  0  0  3  0  0  0  0  0  0
  188.9360  175.6650  145.3510 C   0  0  0  0  0  2  0  0  0  0  0  0
  191.6600  175.6860  144.5190 C   0  0  0  0  0  0  0  0  0  0  0  0
  190.6900  175.0890  143.5130 C   0  0  1  0  0  3  0  0  0  0  0  0
  186.8970  175.8140  143.4340 C   0  0  0  0  0  3  0  0  0  0  0  0
  186.5140  177.3070  141.5330 C   0  0  0  0  0  0  0  0  0  0  0  0
  188.8460  176.7550  142.1590 C   0  0  0  0  0  2  0  0  0  0  0  0
  187.8210  177.3320  141.2230 C   0  0  0  0  0  3  0  0  0  0  0  0
  186.0670  176.6210  142.7650 C   0  0  0  0  0  3  0  0  0  0  0  0
  188.2740  175.5310  142.8930 C   0  0  1  0  0  3  0  0  0  0  0  0
  185.5220  177.9360  140.6460 C   0  0  0  0  0  0  0  0  0  0  0  0
  185.6410  177.8600  139.3950 O   0  0  0  0  0  0  0  0  0  0  0  0
  184.4350  178.6140  141.1830 O   0  0  0  0  0  1  0  0  0  0  0  0
  194.3710  175.3400  142.8140 C   0  0  0  0  0  2  0  0  0  0  0  0
  194.6530  174.8150  145.2740 O   0  0  0  0  0  0  0  0  0  0  0  0
  192.9710  176.2720  144.0620 C   0  0  2  0  0  3  0  0  0  0  0  0
  193.0390  176.4190  142.2740 S   0  0  0  0  0  0  0  0  0  0  0  0
  194.1310  175.3360  144.3040 C   0  0  0  0  0  0  0  0  0  0  0  0
  191.0460  169.1460  140.4270 C   0  0  0  0  0  2  0  0  0  0  0  0
  190.4610  170.2800  139.6070 C   0  0  0  0  0  2  0  0  0  0  0  0
  192.1740  171.8440  138.7770 C   0  0  2  0  0  3  0  0  0  0  0  0
  192.8150  170.4830  138.9170 C   0  0  0  0  0  2  0  0  0  0  0  0
  191.3810  170.5960  138.4500 C   0  0  1  0  0  3  0  0  0  0  0  0
  192.6040  172.4380  137.5800 O   0  0  0  0  0  0  0  0  0  0  0  0
  190.6200  173.9460  136.5190 S   0  0  0  0  0  1  0  0  0  0  0  0
  192.1710  173.7880  137.4960 C   0  0  1  0  0  0  0  0  0  0  0  0
  191.8470  174.1650  138.7830 F   0  0  0  0  0  0  0  0  0  0  0  0
  195.1050  174.5540  138.9030 C   0  0  2  0  0  0  0  0  0  0  0  0
  195.4870  174.6270  135.8220 O   0  0  0  0  0  0  0  0  0  0  0  0
  193.2880  174.7450  136.9520 C   0  0  1  0  0  0  0  0  0  0  0  0
  194.1730  172.6710  135.8700 F   0  0  0  0  0  0  0  0  0  0  0  0
  194.1960  174.0590  135.9070 C   0  0  2  0  0  3  0  0  0  0  0  0
  194.4250  173.8950  139.9120 F   0  0  0  0  0  0  0  0  0  0  0  0
  195.9520  173.5550  138.0990 C   0  0  2  0  0  3  0  0  0  0  0  0
  196.0580  175.5230  139.5740 C   0  0  0  0  0  1  0  0  0  0  0  0
  196.4230  174.0200  136.7000 C   0  0  1  0  0  3  0  0  0  0  0  0
  192.6740  175.8100  136.2900 O   0  0  0  0  0  1  0  0  0  0  0  0
  195.4050  172.2700  138.0900 O   0  0  0  0  0  1  0  0  0  0  0  0
  194.1140  175.3950  138.0860 C   0  0  0  0  0  2  0  0  0  0  0  0
  197.3200  173.0460  135.9960 C   0  0  0  0  0  3  0  0  0  0  0  0
  197.2350  172.8710  134.7910 O   0  0  0  0  0  0  0  0  0  0  0  0
  2  3  2  0  0  0  0
  2  6  1  0  0  0  0
  3  5  1  0  0  0  0
  4  1  1  0  0  0  0
  5  7  1  0  0  0  0
  5  1  2  0  0  0  0
  6  4  2  0  0  0  0
  8  7  2  0  0  0  0
  9 13  1  0  0  0  0
 11 16  1  6  0  0  0
 11 12  1  0  0  0  0
 12 13  1  0  0  0  0
 13 10  2  0  0  0  0
 14 11  1  0  0  0  0
 14  9  1  0  0  0  0
 15 16  1  1  0  0  0
 17 14  2  0  0  0  0
 18  8  1  1  0  0  0
 18 15  1  0  0  0  0
 18 17  1  0  0  0  0
 20 23  1  0  0  0  0
 22 20  2  0  0  0  0
 22 21  1  0  0  0  0
 23 19  2  0  0  0  0
 24 21  1  1  0  0  0
 24 19  1  0  0  0  0
 24 15  1  0  0  0  0
 25 27  1  0  0  0  0
 25 20  1  0  0  0  0
 26 25  2  0  0  0  0
 28 32  1  0  0  0  0
 30 32  1  0  0  0  0
 30 17  1  6  0  0  0
 31 28  1  0  0  0  0
 31 30  1  0  0  0  0
 32 29  2  0  0  0  0
 33  2  1  0  0  0  0
 34 33  1  0  0  0  0
 35 38  1  6  0  0  0
 35 36  1  0  0  0  0
 37 35  1  0  0  0  0
 37 36  1  0  0  0  0
 37 34  1  1  0  0  0
 40 39  1  6  0  0  0
 40 38  1  0  0  0  0
 40 41  1  0  0  0  0
 42 49  1  1  0  0  0
 42 47  1  0  0  0  0
 43 46  1  0  0  0  0
 43 50  1  0  0  0  0
 44 51  1  6  0  0  0
 44 40  1  0  0  0  0
 44 53  1  0  0  0  0
 46 45  1  1  0  0  0
 46 44  1  0  0  0  0
 48 52  1  6  0  0  0
 48 42  1  0  0  0  0
 50 54  1  6  0  0  0
 50 48  1  0  0  0  0
 53 42  1  0  0  0  0
 55 54  2  0  0  0  0
M  END
>  <MODEL>
9

>  <REMARK>
 VINA RESULT:      -4.9      3.190      8.134
  Name = 
  12 active torsions:
  status: ('A' for Active; 'I' for Inactive)
    1  A    between atoms: C_2  and  C_44
    2  A    between atoms: C_6  and  C_20
    3  A    between atoms: C_8  and  O_22
    4  A    between atoms: C_10  and  C_32
    5  A    between atoms: C_11  and  C_38
    6  A    between atoms: C_19  and  C_45
    7  A    between atoms: C_20  and  O_22
    8  A    between atoms: C_27  and  C_54
    9  A    between atoms: N_28  and  C_49
   10  A    between atoms: C_33  and  C_52
   11  A    between atoms: C_43  and  C_51
   12  A    between atoms: C_51  and  C_54
                            x       y       z     vdW  Elec       q    Type
                         _______ _______ _______ _____ _____    ______ ____

>  <TORSDO>
F 12

$$$$
