=
 OpenBabel11052417433D

 31 34  0  0  1  0  0  0  0  0999 V2000
  188.6570  177.0050  141.9520 C   0  0  2  0  0  3  0  0  0  0  0  0
  187.4890  177.5110  142.6740 N   0  0  0  0  0  0  0  0  0  0  0  0
  186.3780  177.9290  144.7680 C   0  0  0  0  0  0  0  0  0  0  0  0
  186.2150  177.7080  146.2110 C   0  0  0  0  0  3  0  0  0  0  0  0
  187.3790  177.3530  144.0990 C   0  0  0  0  0  3  0  0  0  0  0  0
  185.2850  178.5590  142.6810 O   0  0  0  0  0  0  0  0  0  0  0  0
  185.0800  178.0820  146.8100 C   0  0  0  0  0  3  0  0  0  0  0  0
  186.3540  178.0240  141.9590 C   0  0  0  0  0  0  0  0  0  0  0  0
  183.9720  178.6880  146.0390 C   0  0  0  0  0  3  0  0  0  0  0  0
  186.2830  177.9420  140.6710 N   0  0  0  0  0  2  0  0  0  0  0  0
  185.4510  178.8920  144.0580 C   0  0  1  0  0  3  0  0  0  0  0  0
  184.1210  179.0260  144.7530 C   0  0  0  0  0  3  0  0  0  0  0  0
  188.3330  173.7000  140.2540 C   0  0  2  0  0  3  0  0  0  0  0  0
  188.0760  172.9730  141.9150 S   0  0  0  0  0  0  0  0  0  0  0  0
  189.5360  173.0570  139.5920 C   0  0  0  0  0  1  0  0  0  0  0  0
  188.5660  175.1280  140.4180 N   0  0  0  0  0  0  0  0  0  0  0  0
  188.4930  175.5520  141.6300 C   0  0  0  0  0  0  0  0  0  0  0  0
  188.1910  174.5830  142.6180 N   0  0  0  0  0  2  0  0  0  0  0  0
  189.9390  177.2870  142.7280 C   0  0  0  0  0  2  0  0  0  0  0  0
  190.9410  176.1580  142.5480 C   0  0  0  0  0  2  0  0  0  0  0  0
  194.3920  176.2520  143.6930 O   0  0  0  0  0  0  0  0  0  0  0  0
  192.0610  176.3420  143.4550 N   0  0  0  0  0  0  0  0  0  0  0  0
  193.3710  175.9820  143.0070 C   0  0  0  0  0  3  0  0  0  0  0  0
  191.8420  177.0750  144.6980 C   0  0  0  0  0  2  0  0  0  0  0  0
  189.2880  175.1210  146.2100 C   0  0  1  0  0  3  0  0  0  0  0  0
  189.9650  173.0550  145.1500 O   0  0  0  0  0  0  0  0  0  0  0  0
  188.9470  174.5750  147.5840 C   0  0  0  0  0  1  0  0  0  0  0  0
  190.1000  176.4070  146.3660 C   0  0  0  0  0  2  0  0  0  0  0  0
  191.4780  174.7950  145.3410 O   0  0  0  0  0  0  0  0  0  0  0  0
  191.5140  176.1200  145.8350 C   0  0  1  0  0  3  0  0  0  0  0  0
  190.2430  174.2220  145.5340 C   0  0  0  0  0  0  0  0  0  0  0  0
  1  2  1  0  0  0  0
  1 19  1  1  0  0  0
  2  5  1  0  0  0  0
  3  4  1  0  0  0  0
  4  7  2  0  0  0  0
  5  3  2  0  0  0  0
  6 11  1  0  0  0  0
  8  2  1  0  0  0  0
  8  6  1  0  0  0  0
  9  7  1  0  0  0  0
 10  8  2  0  0  0  0
 11 12  1  1  0  0  0
 11  3  1  0  0  0  0
 12  9  2  0  0  0  0
 13 15  1  1  0  0  0
 13 16  1  0  0  0  0
 13 14  1  0  0  0  0
 14 18  1  0  0  0  0
 16 17  2  0  0  0  0
 17  1  1  0  0  0  0
 17 18  1  0  0  0  0
 20 19  1  0  0  0  0
 20 22  1  0  0  0  0
 22 24  1  0  0  0  0
 23 22  1  0  0  0  0
 23 21  2  0  0  0  0
 25 28  1  0  0  0  0
 25 27  1  1  0  0  0
 26 31  2  0  0  0  0
 29 31  1  0  0  0  0
 29 30  1  0  0  0  0
 30 24  1  6  0  0  0
 30 28  1  0  0  0  0
 31 25  1  0  0  0  0
M  END
>  <MODEL>
1

>  <REMARK>
 VINA RESULT:      -7.4      0.000      0.000
  Name = 
  7 active torsions:
  status: ('A' for Active; 'I' for Inactive)
    1  A    between atoms: C_3  and  N_9
    2  A    between atoms: C_3  and  C_22
    3  A    between atoms: N_4  and  C_12
    4  A    between atoms: N_9  and  C_15
    5  A    between atoms: C_12  and  C_20
    6  A    between atoms: C_12  and  C_27
    7  A    between atoms: C_15  and  C_20
                            x       y       z     vdW  Elec       q    Type
                         _______ _______ _______ _____ _____    ______ ____

>  <TORSDO>
F 7

$$$$
=
 OpenBabel11052417433D

 31 34  0  0  1  0  0  0  0  0999 V2000
  189.6720  177.1100  143.2430 C   0  0  2  0  0  3  0  0  0  0  0  0
  188.3360  177.6090  143.5690 N   0  0  0  0  0  0  0  0  0  0  0  0
  186.6560  178.0810  145.2270 C   0  0  0  0  0  0  0  0  0  0  0  0
  186.0840  177.9170  146.5710 C   0  0  0  0  0  3  0  0  0  0  0  0
  187.8180  177.5090  144.9080 C   0  0  0  0  0  3  0  0  0  0  0  0
  186.2070  178.5870  142.8850 O   0  0  0  0  0  0  0  0  0  0  0  0
  184.8170  178.2800  146.7950 C   0  0  0  0  0  3  0  0  0  0  0  0
  187.4490  178.0560  142.5310 C   0  0  0  0  0  0  0  0  0  0  0  0
  183.9720  178.8180  145.7070 C   0  0  0  0  0  3  0  0  0  0  0  0
  187.7580  177.9170  141.2840 N   0  0  0  0  0  2  0  0  0  0  0  0
  185.9590  178.9840  144.2320 C   0  0  1  0  0  3  0  0  0  0  0  0
  184.4830  179.1050  144.5040 C   0  0  0  0  0  3  0  0  0  0  0  0
  189.5990  173.6920  141.7510 C   0  0  2  0  0  3  0  0  0  0  0  0
  189.5180  173.0450  143.4630 S   0  0  0  0  0  0  0  0  0  0  0  0
  190.8210  173.1350  141.0490 C   0  0  0  0  0  1  0  0  0  0  0  0
  189.6890  175.1430  141.8220 N   0  0  0  0  0  0  0  0  0  0  0  0
  189.6430  175.6310  143.0120 C   0  0  0  0  0  0  0  0  0  0  0  0
  189.5040  174.6980  144.0690 N   0  0  0  0  0  2  0  0  0  0  0  0
  190.6780  177.5110  144.3160 C   0  0  0  0  0  2  0  0  0  0  0  0
  192.0950  177.1610  143.8890 C   0  0  0  0  0  2  0  0  0  0  0  0
  192.7870  175.3470  146.9650 O   0  0  0  0  0  0  0  0  0  0  0  0
  192.8490  176.6710  145.0300 N   0  0  0  0  0  0  0  0  0  0  0  0
  192.1600  175.9160  146.0320 C   0  0  0  0  0  3  0  0  0  0  0  0
  194.3030  176.7830  145.0080 C   0  0  0  0  0  2  0  0  0  0  0  0
  197.2850  175.6970  143.4090 C   0  0  1  0  0  3  0  0  0  0  0  0
  197.7900  174.0030  145.0590 O   0  0  0  0  0  0  0  0  0  0  0  0
  197.6840  174.9310  142.1620 C   0  0  0  0  0  1  0  0  0  0  0  0
  195.9500  176.4010  143.1620 C   0  0  0  0  0  2  0  0  0  0  0  0
  195.6240  174.7900  144.8500 O   0  0  0  0  0  0  0  0  0  0  0  0
  194.9110  175.7410  144.0830 C   0  0  1  0  0  3  0  0  0  0  0  0
  196.9520  174.7550  144.4940 C   0  0  0  0  0  0  0  0  0  0  0  0
  1  2  1  0  0  0  0
  1 19  1  1  0  0  0
  2  5  1  0  0  0  0
  3  4  1  0  0  0  0
  4  7  2  0  0  0  0
  5  3  2  0  0  0  0
  6 11  1  0  0  0  0
  8  6  1  0  0  0  0
  8  2  1  0  0  0  0
  9  7  1  0  0  0  0
 10  8  2  0  0  0  0
 11 12  1  1  0  0  0
 11  3  1  0  0  0  0
 12  9  2  0  0  0  0
 13 15  1  1  0  0  0
 13 16  1  0  0  0  0
 13 14  1  0  0  0  0
 14 18  1  0  0  0  0
 16 17  2  0  0  0  0
 17  1  1  0  0  0  0
 17 18  1  0  0  0  0
 20 19  1  0  0  0  0
 20 22  1  0  0  0  0
 22 23  1  0  0  0  0
 23 21  2  0  0  0  0
 24 22  1  0  0  0  0
 25 27  1  6  0  0  0
 25 31  1  0  0  0  0
 28 25  1  0  0  0  0
 28 30  1  0  0  0  0
 30 29  1  0  0  0  0
 30 24  1  1  0  0  0
 31 29  1  0  0  0  0
 31 26  2  0  0  0  0
M  END
>  <MODEL>
2

>  <REMARK>
 VINA RESULT:      -7.3      2.068      3.760
  Name = 
  7 active torsions:
  status: ('A' for Active; 'I' for Inactive)
    1  A    between atoms: C_3  and  N_9
    2  A    between atoms: C_3  and  C_22
    3  A    between atoms: N_4  and  C_12
    4  A    between atoms: N_9  and  C_15
    5  A    between atoms: C_12  and  C_20
    6  A    between atoms: C_12  and  C_27
    7  A    between atoms: C_15  and  C_20
                            x       y       z     vdW  Elec       q    Type
                         _______ _______ _______ _____ _____    ______ ____

>  <TORSDO>
F 7

$$$$
=
 OpenBabel11052417433D

 31 34  0  0  1  0  0  0  0  0999 V2000
  192.0440  176.7390  144.9880 C   0  0  2  0  0  3  0  0  0  0  0  0
  191.0860  176.0800  144.0990 N   0  0  0  0  0  0  0  0  0  0  0  0
  189.9810  174.0640  143.3840 C   0  0  0  0  0  0  0  0  0  0  0  0
  189.8790  172.6000  143.3200 C   0  0  0  0  0  3  0  0  0  0  0  0
  190.9440  174.6480  144.1010 C   0  0  0  0  0  3  0  0  0  0  0  0
  189.4350  176.1810  142.3050 O   0  0  0  0  0  0  0  0  0  0  0  0
  189.0770  172.0370  142.4110 C   0  0  0  0  0  3  0  0  0  0  0  0
  190.3900  176.8290  143.0910 C   0  0  0  0  0  0  0  0  0  0  0  0
  188.3120  172.8610  141.4500 C   0  0  0  0  0  3  0  0  0  0  0  0
  190.6780  178.0690  142.8630 N   0  0  0  0  0  2  0  0  0  0  0  0
  188.9260  174.9100  142.7050 C   0  0  1  0  0  3  0  0  0  0  0  0
  188.2730  174.1940  141.5520 C   0  0  0  0  0  3  0  0  0  0  0  0
  195.3570  175.5960  143.7120 C   0  0  2  0  0  3  0  0  0  0  0  0
  195.6200  174.8220  145.3510 S   0  0  0  0  0  0  0  0  0  0  0  0
  196.4600  176.5990  143.4350 C   0  0  0  0  0  1  0  0  0  0  0  0
  194.0690  176.2730  143.7360 N   0  0  0  0  0  0  0  0  0  0  0  0
  193.4090  176.1430  144.8320 C   0  0  0  0  0  0  0  0  0  0  0  0
  194.0180  175.3610  145.8440 N   0  0  0  0  0  2  0  0  0  0  0  0
  191.5560  176.7040  146.4330 C   0  0  0  0  0  2  0  0  0  0  0  0
  190.1300  177.2210  146.5360 C   0  0  0  0  0  2  0  0  0  0  0  0
  188.7180  174.1230  147.8170 O   0  0  0  0  0  0  0  0  0  0  0  0
  189.2080  176.1060  146.6650 N   0  0  0  0  0  0  0  0  0  0  0  0
  189.5420  175.0410  147.5590 C   0  0  0  0  0  3  0  0  0  0  0  0
  187.8920  176.2120  146.0440 C   0  0  0  0  0  2  0  0  0  0  0  0
  185.5600  178.4470  144.5630 C   0  0  1  0  0  3  0  0  0  0  0  0
  184.1490  178.5890  146.5230 O   0  0  0  0  0  0  0  0  0  0  0  0
  185.5040  179.9010  144.1330 C   0  0  0  0  0  1  0  0  0  0  0  0
  187.0040  177.9510  144.4780 C   0  0  0  0  0  2  0  0  0  0  0  0
  186.3500  177.9090  146.7410 O   0  0  0  0  0  0  0  0  0  0  0  0
  187.4730  177.6670  145.9140 C   0  0  1  0  0  3  0  0  0  0  0  0
  185.2700  178.3380  146.0060 C   0  0  0  0  0  0  0  0  0  0  0  0
  1 19  1  1  0  0  0
  2  5  1  0  0  0  0
  2  1  1  0  0  0  0
  3  5  2  0  0  0  0
  4  3  1  0  0  0  0
  6 11  1  0  0  0  0
  6  8  1  0  0  0  0
  7  4  2  0  0  0  0
  8  2  1  0  0  0  0
  9 12  2  0  0  0  0
  9  7  1  0  0  0  0
 10  8  2  0  0  0  0
 11 12  1  6  0  0  0
 11  3  1  0  0  0  0
 13 15  1  1  0  0  0
 13 16  1  0  0  0  0
 13 14  1  0  0  0  0
 14 18  1  0  0  0  0
 16 17  2  0  0  0  0
 17  1  1  0  0  0  0
 17 18  1  0  0  0  0
 19 20  1  0  0  0  0
 20 22  1  0  0  0  0
 22 23  1  0  0  0  0
 23 21  2  0  0  0  0
 24 22  1  0  0  0  0
 25 27  1  1  0  0  0
 25 31  1  0  0  0  0
 28 25  1  0  0  0  0
 28 30  1  0  0  0  0
 30 24  1  6  0  0  0
 30 29  1  0  0  0  0
 31 26  2  0  0  0  0
 31 29  1  0  0  0  0
M  END
>  <MODEL>
3

>  <REMARK>
 VINA RESULT:      -7.3      2.818      6.180
  Name = 
  7 active torsions:
  status: ('A' for Active; 'I' for Inactive)
    1  A    between atoms: C_3  and  N_9
    2  A    between atoms: C_3  and  C_22
    3  A    between atoms: N_4  and  C_12
    4  A    between atoms: N_9  and  C_15
    5  A    between atoms: C_12  and  C_20
    6  A    between atoms: C_12  and  C_27
    7  A    between atoms: C_15  and  C_20
                            x       y       z     vdW  Elec       q    Type
                         _______ _______ _______ _____ _____    ______ ____

>  <TORSDO>
F 7

$$$$
=
 OpenBabel11052417433D

 31 34  0  0  1  0  0  0  0  0999 V2000
  189.5870  176.2670  143.4390 C   0  0  2  0  0  3  0  0  0  0  0  0
  188.3630  177.0070  143.7460 N   0  0  0  0  0  0  0  0  0  0  0  0
  186.5380  177.4440  145.2540 C   0  0  0  0  0  0  0  0  0  0  0  0
  185.6870  177.0770  146.3950 C   0  0  0  0  0  3  0  0  0  0  0  0
  187.5800  176.6840  144.9090 C   0  0  0  0  0  3  0  0  0  0  0  0
  186.6940  178.6900  143.1640 O   0  0  0  0  0  0  0  0  0  0  0  0
  184.5180  177.7010  146.5700 C   0  0  0  0  0  3  0  0  0  0  0  0
  187.8270  177.9540  142.8090 C   0  0  0  0  0  0  0  0  0  0  0  0
  184.0530  178.7350  145.6210 C   0  0  0  0  0  3  0  0  0  0  0  0
  188.3390  178.0890  141.6300 N   0  0  0  0  0  2  0  0  0  0  0  0
  186.2790  178.7460  144.5270 C   0  0  1  0  0  3  0  0  0  0  0  0
  184.8450  179.1930  144.6450 C   0  0  0  0  0  3  0  0  0  0  0  0
  188.2790  173.1620  141.8410 C   0  0  2  0  0  3  0  0  0  0  0  0
  189.1770  172.2260  143.1330 S   0  0  0  0  0  0  0  0  0  0  0  0
  188.7670  172.7410  140.4690 C   0  0  0  0  0  1  0  0  0  0  0  0
  188.5430  174.5790  142.0450 N   0  0  0  0  0  0  0  0  0  0  0  0
  189.2730  174.8510  143.0690 C   0  0  0  0  0  0  0  0  0  0  0  0
  189.7020  173.7480  143.8470 N   0  0  0  0  0  2  0  0  0  0  0  0
  190.5810  176.3590  144.5920 C   0  0  0  0  0  2  0  0  0  0  0  0
  191.9570  176.7670  144.0910 C   0  0  0  0  0  2  0  0  0  0  0  0
  194.8770  176.5740  146.2520 O   0  0  0  0  0  0  0  0  0  0  0  0
  192.9850  176.1700  144.9280 N   0  0  0  0  0  0  0  0  0  0  0  0
  194.0430  177.0020  145.4110 C   0  0  0  0  0  3  0  0  0  0  0  0
  192.7880  174.8070  145.4120 C   0  0  0  0  0  2  0  0  0  0  0  0
  194.3420  171.6120  145.4330 C   0  0  1  0  0  3  0  0  0  0  0  0
  192.5480  170.5110  144.2410 O   0  0  0  0  0  0  0  0  0  0  0  0
  195.5190  170.9220  144.7680 C   0  0  0  0  0  1  0  0  0  0  0  0
  194.6250  173.1110  145.5290 C   0  0  0  0  0  2  0  0  0  0  0  0
  192.7850  172.8080  144.0900 O   0  0  0  0  0  0  0  0  0  0  0  0
  193.6230  173.8240  144.6070 C   0  0  1  0  0  3  0  0  0  0  0  0
  193.1650  171.5670  144.5450 C   0  0  0  0  0  0  0  0  0  0  0  0
  1  2  1  0  0  0  0
  1 19  1  1  0  0  0
  2  5  1  0  0  0  0
  3  4  1  0  0  0  0
  4  7  2  0  0  0  0
  5  3  2  0  0  0  0
  6 11  1  0  0  0  0
  8  6  1  0  0  0  0
  8  2  1  0  0  0  0
  9  7  1  0  0  0  0
 10  8  2  0  0  0  0
 11 12  1  6  0  0  0
 11  3  1  0  0  0  0
 12  9  2  0  0  0  0
 13 15  1  6  0  0  0
 13 16  1  0  0  0  0
 13 14  1  0  0  0  0
 14 18  1  0  0  0  0
 16 17  2  0  0  0  0
 17  1  1  0  0  0  0
 17 18  1  0  0  0  0
 20 19  1  0  0  0  0
 20 22  1  0  0  0  0
 22 23  1  0  0  0  0
 22 24  1  0  0  0  0
 23 21  2  0  0  0  0
 25 27  1  6  0  0  0
 25 28  1  0  0  0  0
 26 31  2  0  0  0  0
 29 31  1  0  0  0  0
 29 30  1  0  0  0  0
 30 24  1  1  0  0  0
 30 28  1  0  0  0  0
 31 25  1  0  0  0  0
M  END
>  <MODEL>
4

>  <REMARK>
 VINA RESULT:      -7.3      2.340      2.868
  Name = 
  7 active torsions:
  status: ('A' for Active; 'I' for Inactive)
    1  A    between atoms: C_3  and  N_9
    2  A    between atoms: C_3  and  C_22
    3  A    between atoms: N_4  and  C_12
    4  A    between atoms: N_9  and  C_15
    5  A    between atoms: C_12  and  C_20
    6  A    between atoms: C_12  and  C_27
    7  A    between atoms: C_15  and  C_20
                            x       y       z     vdW  Elec       q    Type
                         _______ _______ _______ _____ _____    ______ ____

>  <TORSDO>
F 7

$$$$
=
 OpenBabel11052417433D

 31 34  0  0  1  0  0  0  0  0999 V2000
  189.7870  176.5120  143.6310 C   0  0  2  0  0  3  0  0  0  0  0  0
  188.5020  177.1690  143.8680 N   0  0  0  0  0  0  0  0  0  0  0  0
  186.6220  177.5660  145.3190 C   0  0  0  0  0  0  0  0  0  0  0  0
  185.7840  177.2170  146.4740 C   0  0  0  0  0  3  0  0  0  0  0  0
  187.7270  176.8710  145.0430 C   0  0  0  0  0  3  0  0  0  0  0  0
  186.7130  178.6620  143.1420 O   0  0  0  0  0  0  0  0  0  0  0  0
  184.5660  177.7540  146.5890 C   0  0  0  0  0  3  0  0  0  0  0  0
  187.9070  177.9980  142.8570 C   0  0  0  0  0  0  0  0  0  0  0  0
  184.0350  178.6730  145.5600 C   0  0  0  0  0  3  0  0  0  0  0  0
  188.4270  178.0860  141.6760 N   0  0  0  0  0  2  0  0  0  0  0  0
  186.2710  178.7860  144.4930 C   0  0  1  0  0  3  0  0  0  0  0  0
  184.8040  179.1210  144.5610 C   0  0  0  0  0  3  0  0  0  0  0  0
  190.0270  172.7900  143.6310 C   0  0  2  0  0  3  0  0  0  0  0  0
  188.7040  172.7940  142.3650 S   0  0  0  0  0  0  0  0  0  0  0  0
  189.5780  171.9920  144.8400 C   0  0  0  0  0  1  0  0  0  0  0  0
  190.2850  174.1690  144.0180 N   0  0  0  0  0  0  0  0  0  0  0  0
  189.5950  175.0480  143.3810 C   0  0  0  0  0  0  0  0  0  0  0  0
  188.7020  174.5550  142.3980 N   0  0  0  0  0  2  0  0  0  0  0  0
  190.7550  176.7830  144.7780 C   0  0  0  0  0  2  0  0  0  0  0  0
  192.0530  177.3840  144.2610 C   0  0  0  0  0  2  0  0  0  0  0  0
  194.4570  175.8390  146.5120 O   0  0  0  0  0  0  0  0  0  0  0  0
  193.1790  176.5700  144.6860 N   0  0  0  0  0  0  0  0  0  0  0  0
  193.5850  176.6260  146.0570 C   0  0  0  0  0  3  0  0  0  0  0  0
  193.7140  175.5780  143.7600 C   0  0  0  0  0  2  0  0  0  0  0  0
  196.4810  174.7170  141.7040 C   0  0  1  0  0  3  0  0  0  0  0  0
  195.4600  175.5030  139.6570 O   0  0  0  0  0  0  0  0  0  0  0  0
  197.8980  175.1990  141.4550 C   0  0  0  0  0  1  0  0  0  0  0  0
  196.0810  175.0490  143.1410 C   0  0  0  0  0  2  0  0  0  0  0  0
  194.6980  176.2910  141.6950 O   0  0  0  0  0  0  0  0  0  0  0  0
  194.9640  176.1020  143.0720 C   0  0  1  0  0  3  0  0  0  0  0  0
  195.5300  175.5220  140.9150 C   0  0  0  0  0  0  0  0  0  0  0  0
  1  2  1  0  0  0  0
  1 19  1  1  0  0  0
  2  5  1  0  0  0  0
  3  4  1  0  0  0  0
  4  7  2  0  0  0  0
  5  3  2  0  0  0  0
  6 11  1  0  0  0  0
  8  6  1  0  0  0  0
  8  2  1  0  0  0  0
  9  7  1  0  0  0  0
 10  8  2  0  0  0  0
 11 12  1  6  0  0  0
 11  3  1  0  0  0  0
 12  9  2  0  0  0  0
 13 16  1  0  0  0  0
 13 15  1  1  0  0  0
 14 18  1  0  0  0  0
 14 13  1  0  0  0  0
 17  1  1  0  0  0  0
 17 16  2  0  0  0  0
 18 17  1  0  0  0  0
 20 22  1  0  0  0  0
 20 19  1  0  0  0  0
 22 23  1  0  0  0  0
 23 21  2  0  0  0  0
 24 22  1  0  0  0  0
 25 27  1  1  0  0  0
 25 28  1  0  0  0  0
 26 31  2  0  0  0  0
 29 30  1  0  0  0  0
 30 28  1  0  0  0  0
 30 24  1  1  0  0  0
 31 29  1  0  0  0  0
 31 25  1  0  0  0  0
M  END
>  <MODEL>
5

>  <REMARK>
 VINA RESULT:      -7.2      2.153      4.125
  Name = 
  7 active torsions:
  status: ('A' for Active; 'I' for Inactive)
    1  A    between atoms: C_3  and  N_9
    2  A    between atoms: C_3  and  C_22
    3  A    between atoms: N_4  and  C_12
    4  A    between atoms: N_9  and  C_15
    5  A    between atoms: C_12  and  C_20
    6  A    between atoms: C_12  and  C_27
    7  A    between atoms: C_15  and  C_20
                            x       y       z     vdW  Elec       q    Type
                         _______ _______ _______ _____ _____    ______ ____

>  <TORSDO>
F 7

$$$$
=
 OpenBabel11052417433D

 31 34  0  0  1  0  0  0  0  0999 V2000
  189.6420  176.2070  143.5740 C   0  0  2  0  0  3  0  0  0  0  0  0
  188.4150  176.9480  143.8660 N   0  0  0  0  0  0  0  0  0  0  0  0
  186.5540  177.3640  145.3340 C   0  0  0  0  0  0  0  0  0  0  0  0
  185.6700  176.9770  146.4430 C   0  0  0  0  0  3  0  0  0  0  0  0
  187.5980  176.6050  144.9990 C   0  0  0  0  0  3  0  0  0  0  0  0
  186.7750  178.6580  143.2790 O   0  0  0  0  0  0  0  0  0  0  0  0
  184.5010  177.6060  146.6020 C   0  0  0  0  0  3  0  0  0  0  0  0
  187.9110  177.9220  142.9380 C   0  0  0  0  0  0  0  0  0  0  0  0
  184.0690  178.6660  145.6660 C   0  0  0  0  0  3  0  0  0  0  0  0
  188.4560  178.0810  141.7760 N   0  0  0  0  0  2  0  0  0  0  0  0
  186.3230  178.6850  144.6330 C   0  0  1  0  0  3  0  0  0  0  0  0
  184.8910  179.1400  144.7230 C   0  0  0  0  0  3  0  0  0  0  0  0
  188.4220  173.1890  141.7530 C   0  0  2  0  0  3  0  0  0  0  0  0
  189.1380  172.1910  143.1110 S   0  0  0  0  0  0  0  0  0  0  0  0
  189.0490  172.7840  140.4330 C   0  0  0  0  0  1  0  0  0  0  0  0
  188.7070  174.5900  142.0250 N   0  0  0  0  0  0  0  0  0  0  0  0
  189.3250  174.8120  143.1310 C   0  0  0  0  0  0  0  0  0  0  0  0
  189.6280  173.6750  143.9210 N   0  0  0  0  0  2  0  0  0  0  0  0
  190.5910  176.2360  144.7670 C   0  0  0  0  0  2  0  0  0  0  0  0
  191.9300  176.8440  144.3800 C   0  0  0  0  0  2  0  0  0  0  0  0
  193.8300  175.7240  141.4870 O   0  0  0  0  0  0  0  0  0  0  0  0
  192.6490  175.9360  143.5020 N   0  0  0  0  0  0  0  0  0  0  0  0
  193.0820  176.4170  142.2260 C   0  0  0  0  0  3  0  0  0  0  0  0
  193.0830  174.6470  144.0310 C   0  0  0  0  0  2  0  0  0  0  0  0
  196.3020  173.5150  145.0220 C   0  0  1  0  0  3  0  0  0  0  0  0
  197.4930  175.2960  143.8990 O   0  0  0  0  0  0  0  0  0  0  0  0
  197.1350  173.4430  146.2880 C   0  0  0  0  0  1  0  0  0  0  0  0
  194.8190  173.4630  145.3900 C   0  0  0  0  0  2  0  0  0  0  0  0
  195.2580  175.5700  144.4330 O   0  0  0  0  0  0  0  0  0  0  0  0
  194.2130  174.8290  145.0330 C   0  0  1  0  0  3  0  0  0  0  0  0
  196.4310  174.8520  144.4110 C   0  0  0  0  0  0  0  0  0  0  0  0
  1  2  1  0  0  0  0
  1 19  1  1  0  0  0
  2  5  1  0  0  0  0
  3  4  1  0  0  0  0
  4  7  2  0  0  0  0
  5  3  2  0  0  0  0
  6 11  1  0  0  0  0
  8  6  1  0  0  0  0
  8  2  1  0  0  0  0
  9  7  1  0  0  0  0
 10  8  2  0  0  0  0
 11 12  1  6  0  0  0
 11  3  1  0  0  0  0
 12  9  2  0  0  0  0
 13 15  1  6  0  0  0
 13 16  1  0  0  0  0
 13 14  1  0  0  0  0
 14 18  1  0  0  0  0
 16 17  2  0  0  0  0
 17  1  1  0  0  0  0
 17 18  1  0  0  0  0
 20 19  1  0  0  0  0
 21 23  2  0  0  0  0
 22 24  1  0  0  0  0
 22 20  1  0  0  0  0
 23 22  1  0  0  0  0
 25 28  1  0  0  0  0
 25 27  1  1  0  0  0
 26 31  2  0  0  0  0
 29 30  1  0  0  0  0
 30 24  1  6  0  0  0
 30 28  1  0  0  0  0
 31 29  1  0  0  0  0
 31 25  1  0  0  0  0
M  END
>  <MODEL>
6

>  <REMARK>
 VINA RESULT:      -7.2      2.116      3.364
  Name = 
  7 active torsions:
  status: ('A' for Active; 'I' for Inactive)
    1  A    between atoms: C_3  and  N_9
    2  A    between atoms: C_3  and  C_22
    3  A    between atoms: N_4  and  C_12
    4  A    between atoms: N_9  and  C_15
    5  A    between atoms: C_12  and  C_20
    6  A    between atoms: C_12  and  C_27
    7  A    between atoms: C_15  and  C_20
                            x       y       z     vdW  Elec       q    Type
                         _______ _______ _______ _____ _____    ______ ____

>  <TORSDO>
F 7

$$$$
=
 OpenBabel11052417433D

 31 34  0  0  1  0  0  0  0  0999 V2000
  189.0610  175.8750  143.0370 C   0  0  2  0  0  3  0  0  0  0  0  0
  190.1390  176.0000  144.0180 N   0  0  0  0  0  0  0  0  0  0  0  0
  192.4730  176.3580  144.4880 C   0  0  0  0  0  0  0  0  0  0  0  0
  193.8830  176.3990  144.0760 C   0  0  0  0  0  3  0  0  0  0  0  0
  191.5100  176.1140  143.5960 C   0  0  0  0  0  3  0  0  0  0  0  0
  190.9120  176.0360  146.3330 O   0  0  0  0  0  0  0  0  0  0  0  0
  194.8400  176.3940  145.0080 C   0  0  0  0  0  3  0  0  0  0  0  0
  189.8720  175.8440  145.4210 C   0  0  0  0  0  0  0  0  0  0  0  0
  194.5070  176.3200  146.4470 C   0  0  0  0  0  3  0  0  0  0  0  0
  188.7080  175.4720  145.8410 N   0  0  0  0  0  2  0  0  0  0  0  0
  192.1110  176.6890  145.9200 C   0  0  1  0  0  3  0  0  0  0  0  0
  193.2420  176.4120  146.8750 C   0  0  0  0  0  3  0  0  0  0  0  0
  188.1760  172.7510  141.2020 C   0  0  2  0  0  3  0  0  0  0  0  0
  189.6870  172.0070  141.9220 S   0  0  0  0  0  0  0  0  0  0  0  0
  188.2510  172.7030  139.6880 C   0  0  0  0  0  1  0  0  0  0  0  0
  188.0980  174.1340  141.6480 N   0  0  0  0  0  0  0  0  0  0  0  0
  189.0350  174.4970  142.4510 C   0  0  0  0  0  0  0  0  0  0  0  0
  189.9910  173.5080  142.7900 N   0  0  0  0  0  2  0  0  0  0  0  0
  189.1700  176.9580  141.9690 C   0  0  0  0  0  2  0  0  0  0  0  0
  188.4580  178.2280  142.4090 C   0  0  0  0  0  2  0  0  0  0  0  0
  185.6750  177.5470  140.1680 O   0  0  0  0  0  0  0  0  0  0  0  0
  187.0960  178.2300  141.9040 N   0  0  0  0  0  0  0  0  0  0  0  0
  186.8490  177.7010  140.5980 C   0  0  0  0  0  3  0  0  0  0  0  0
  186.0120  178.5740  142.8180 C   0  0  0  0  0  2  0  0  0  0  0  0
  184.9990  178.7760  146.2180 C   0  0  1  0  0  3  0  0  0  0  0  0
  184.8170  176.3830  146.5140 O   0  0  0  0  0  0  0  0  0  0  0  0
  185.6110  179.1290  147.5610 C   0  0  0  0  0  1  0  0  0  0  0  0
  185.7370  179.5330  145.1140 C   0  0  0  0  0  2  0  0  0  0  0  0
  186.1200  177.2300  144.8000 O   0  0  0  0  0  0  0  0  0  0  0  0
  186.4780  178.4900  144.2630 C   0  0  1  0  0  3  0  0  0  0  0  0
  185.2890  177.3690  145.8870 C   0  0  0  0  0  0  0  0  0  0  0  0
  1 19  1  6  0  0  0
  1  2  1  0  0  0  0
  2  8  1  0  0  0  0
  3 11  1  0  0  0  0
  4  3  1  0  0  0  0
  4  7  2  0  0  0  0
  5  2  1  0  0  0  0
  5  3  2  0  0  0  0
  7  9  1  0  0  0  0
  8 10  2  0  0  0  0
  8  6  1  0  0  0  0
  9 12  2  0  0  0  0
 11  6  1  0  0  0  0
 11 12  1  1  0  0  0
 13 15  1  6  0  0  0
 13 16  1  0  0  0  0
 13 14  1  0  0  0  0
 14 18  1  0  0  0  0
 16 17  2  0  0  0  0
 17 18  1  0  0  0  0
 17  1  1  0  0  0  0
 19 20  1  0  0  0  0
 21 23  2  0  0  0  0
 22 20  1  0  0  0  0
 22 24  1  0  0  0  0
 23 22  1  0  0  0  0
 25 27  1  1  0  0  0
 28 25  1  0  0  0  0
 29 31  1  0  0  0  0
 30 24  1  6  0  0  0
 30 29  1  0  0  0  0
 30 28  1  0  0  0  0
 31 25  1  0  0  0  0
 31 26  2  0  0  0  0
M  END
>  <MODEL>
7

>  <REMARK>
 VINA RESULT:      -7.2      1.864      5.952
  Name = 
  7 active torsions:
  status: ('A' for Active; 'I' for Inactive)
    1  A    between atoms: C_3  and  N_9
    2  A    between atoms: C_3  and  C_22
    3  A    between atoms: N_4  and  C_12
    4  A    between atoms: N_9  and  C_15
    5  A    between atoms: C_12  and  C_20
    6  A    between atoms: C_12  and  C_27
    7  A    between atoms: C_15  and  C_20
                            x       y       z     vdW  Elec       q    Type
                         _______ _______ _______ _____ _____    ______ ____

>  <TORSDO>
F 7

$$$$
=
 OpenBabel11052417433D

 31 34  0  0  1  0  0  0  0  0999 V2000
  189.7620  176.5920  143.6240 C   0  0  2  0  0  3  0  0  0  0  0  0
  188.4700  177.2230  143.8920 N   0  0  0  0  0  0  0  0  0  0  0  0
  186.6330  177.6070  145.4000 C   0  0  0  0  0  0  0  0  0  0  0  0
  185.8460  177.2630  146.5930 C   0  0  0  0  0  3  0  0  0  0  0  0
  187.7450  176.9330  145.1010 C   0  0  0  0  0  3  0  0  0  0  0  0
  186.6180  178.6530  143.1980 O   0  0  0  0  0  0  0  0  0  0  0  0
  184.6190  177.7730  146.7400 C   0  0  0  0  0  3  0  0  0  0  0  0
  187.8180  178.0130  142.8840 C   0  0  0  0  0  0  0  0  0  0  0  0
  184.0280  178.6540  145.7100 C   0  0  0  0  0  3  0  0  0  0  0  0
  188.2930  178.0860  141.6840 N   0  0  0  0  0  2  0  0  0  0  0  0
  186.2220  178.7970  144.5610 C   0  0  1  0  0  3  0  0  0  0  0  0
  184.7500  179.0970  144.6740 C   0  0  0  0  0  3  0  0  0  0  0  0
  190.0330  172.8750  143.4740 C   0  0  2  0  0  3  0  0  0  0  0  0
  188.7330  172.9220  142.1860 S   0  0  0  0  0  0  0  0  0  0  0  0
  189.5700  172.0250  144.6410 C   0  0  0  0  0  1  0  0  0  0  0  0
  190.2730  174.2390  143.9230 N   0  0  0  0  0  0  0  0  0  0  0  0
  189.5870  175.1380  143.3090 C   0  0  0  0  0  0  0  0  0  0  0  0
  188.7160  174.6790  142.2910 N   0  0  0  0  0  2  0  0  0  0  0  0
  190.7300  176.8250  144.7790 C   0  0  0  0  0  2  0  0  0  0  0  0
  192.0340  177.4290  144.2810 C   0  0  0  0  0  2  0  0  0  0  0  0
  194.5370  176.0280  146.5180 O   0  0  0  0  0  0  0  0  0  0  0  0
  193.1550  176.6130  144.7160 N   0  0  0  0  0  0  0  0  0  0  0  0
  193.6650  176.8010  146.0390 C   0  0  0  0  0  3  0  0  0  0  0  0
  193.5780  175.5000  143.8730 C   0  0  0  0  0  2  0  0  0  0  0  0
  194.7440  174.5900  140.6420 C   0  0  1  0  0  3  0  0  0  0  0  0
  192.5970  173.7810  139.8770 O   0  0  0  0  0  0  0  0  0  0  0  0
  195.1990  175.2790  139.3700 C   0  0  0  0  0  1  0  0  0  0  0  0
  195.0350  175.4980  141.8380 C   0  0  0  0  0  2  0  0  0  0  0  0
  192.6980  175.2550  141.6570 O   0  0  0  0  0  0  0  0  0  0  0  0
  193.6800  175.9320  142.4190 C   0  0  1  0  0  3  0  0  0  0  0  0
  193.2720  174.4950  140.6650 C   0  0  0  0  0  0  0  0  0  0  0  0
  1  2  1  0  0  0  0
  1 19  1  1  0  0  0
  2  5  1  0  0  0  0
  3  4  1  0  0  0  0
  4  7  2  0  0  0  0
  5  3  2  0  0  0  0
  6 11  1  0  0  0  0
  8  6  1  0  0  0  0
  8  2  1  0  0  0  0
  9  7  1  0  0  0  0
 10  8  2  0  0  0  0
 11 12  1  6  0  0  0
 11  3  1  0  0  0  0
 12  9  2  0  0  0  0
 13 16  1  0  0  0  0
 13 15  1  1  0  0  0
 14 18  1  0  0  0  0
 14 13  1  0  0  0  0
 17  1  1  0  0  0  0
 17 16  2  0  0  0  0
 18 17  1  0  0  0  0
 20 22  1  0  0  0  0
 20 19  1  0  0  0  0
 22 23  1  0  0  0  0
 23 21  2  0  0  0  0
 24 22  1  0  0  0  0
 25 27  1  6  0  0  0
 25 31  1  0  0  0  0
 25 28  1  0  0  0  0
 26 31  2  0  0  0  0
 28 30  1  0  0  0  0
 29 30  1  0  0  0  0
 30 24  1  1  0  0  0
 31 29  1  0  0  0  0
M  END
>  <MODEL>
8

>  <REMARK>
 VINA RESULT:      -7.1      2.124      3.742
  Name = 
  7 active torsions:
  status: ('A' for Active; 'I' for Inactive)
    1  A    between atoms: C_3  and  N_9
    2  A    between atoms: C_3  and  C_22
    3  A    between atoms: N_4  and  C_12
    4  A    between atoms: N_9  and  C_15
    5  A    between atoms: C_12  and  C_20
    6  A    between atoms: C_12  and  C_27
    7  A    between atoms: C_15  and  C_20
                            x       y       z     vdW  Elec       q    Type
                         _______ _______ _______ _____ _____    ______ ____

>  <TORSDO>
F 7

$$$$
=
 OpenBabel11052417433D

 31 34  0  0  1  0  0  0  0  0999 V2000
  190.0520  174.5940  144.9270 C   0  0  2  0  0  3  0  0  0  0  0  0
  188.9750  175.4870  145.3560 N   0  0  0  0  0  0  0  0  0  0  0  0
  187.3540  177.1790  144.8050 C   0  0  0  0  0  0  0  0  0  0  0  0
  186.8280  178.2260  143.9180 C   0  0  0  0  0  3  0  0  0  0  0  0
  188.4190  176.4580  144.4510 C   0  0  0  0  0  3  0  0  0  0  0  0
  187.4910  176.3460  147.0920 O   0  0  0  0  0  0  0  0  0  0  0  0
  185.9290  179.0960  144.3880 C   0  0  0  0  0  3  0  0  0  0  0  0
  188.5650  175.5310  146.7320 C   0  0  0  0  0  0  0  0  0  0  0  0
  185.4740  179.0410  145.7940 C   0  0  0  0  0  3  0  0  0  0  0  0
  189.2110  174.8770  147.6410 N   0  0  0  0  0  2  0  0  0  0  0  0
  186.6170  176.8600  146.0880 C   0  0  1  0  0  3  0  0  0  0  0  0
  185.8240  178.0330  146.6010 C   0  0  0  0  0  3  0  0  0  0  0  0
  193.0530  176.7860  144.6130 C   0  0  2  0  0  3  0  0  0  0  0  0
  192.9760  176.4800  142.8090 S   0  0  0  0  0  0  0  0  0  0  0  0
  194.3940  176.3320  145.1540 C   0  0  0  0  0  1  0  0  0  0  0  0
  191.9840  176.0270  145.2450 N   0  0  0  0  0  0  0  0  0  0  0  0
  191.2260  175.3800  144.4310 C   0  0  0  0  0  0  0  0  0  0  0  0
  191.5310  175.5040  143.0530 N   0  0  0  0  0  2  0  0  0  0  0  0
  189.5460  173.5910  143.8960 C   0  0  0  0  0  2  0  0  0  0  0  0
  189.9410  172.1730  144.2800 C   0  0  0  0  0  2  0  0  0  0  0  0
  191.6730  171.6440  141.1260 O   0  0  0  0  0  0  0  0  0  0  0  0
  190.9400  171.6690  143.3530 N   0  0  0  0  0  0  0  0  0  0  0  0
  190.7700  171.9300  141.9570 C   0  0  0  0  0  3  0  0  0  0  0  0
  192.1730  171.1060  143.8920 C   0  0  0  0  0  2  0  0  0  0  0  0
  195.4790  172.1150  144.7150 C   0  0  1  0  0  3  0  0  0  0  0  0
  195.7160  173.5910  142.8130 O   0  0  0  0  0  0  0  0  0  0  0  0
  196.1730  172.9700  145.7590 C   0  0  0  0  0  1  0  0  0  0  0  0
  194.1900  171.5450  145.3070 C   0  0  0  0  0  2  0  0  0  0  0  0
  193.6040  172.9980  143.5490 O   0  0  0  0  0  0  0  0  0  0  0  0
  193.0170  172.1860  144.5490 C   0  0  1  0  0  3  0  0  0  0  0  0
  194.9770  172.9660  143.6200 C   0  0  0  0  0  0  0  0  0  0  0  0
  1 19  1  6  0  0  0
  1  2  1  0  0  0  0
  2  8  1  0  0  0  0
  3 11  1  0  0  0  0
  4  7  2  0  0  0  0
  4  3  1  0  0  0  0
  5  3  2  0  0  0  0
  5  2  1  0  0  0  0
  7  9  1  0  0  0  0
  8  6  1  0  0  0  0
  8 10  2  0  0  0  0
  9 12  2  0  0  0  0
 11 12  1  1  0  0  0
 11  6  1  0  0  0  0
 13 15  1  1  0  0  0
 13 16  1  0  0  0  0
 14 18  1  0  0  0  0
 14 13  1  0  0  0  0
 17  1  1  0  0  0  0
 17 16  2  0  0  0  0
 18 17  1  0  0  0  0
 19 20  1  0  0  0  0
 21 23  2  0  0  0  0
 22 24  1  0  0  0  0
 22 20  1  0  0  0  0
 23 22  1  0  0  0  0
 25 28  1  0  0  0  0
 25 27  1  1  0  0  0
 26 31  2  0  0  0  0
 29 31  1  0  0  0  0
 29 30  1  0  0  0  0
 30 24  1  6  0  0  0
 30 28  1  0  0  0  0
 31 25  1  0  0  0  0
M  END
>  <MODEL>
9

>  <REMARK>
 VINA RESULT:      -7.0      3.127      5.120
  Name = 
  7 active torsions:
  status: ('A' for Active; 'I' for Inactive)
    1  A    between atoms: C_3  and  N_9
    2  A    between atoms: C_3  and  C_22
    3  A    between atoms: N_4  and  C_12
    4  A    between atoms: N_9  and  C_15
    5  A    between atoms: C_12  and  C_20
    6  A    between atoms: C_12  and  C_27
    7  A    between atoms: C_15  and  C_20
                            x       y       z     vdW  Elec       q    Type
                         _______ _______ _______ _____ _____    ______ ____

>  <TORSDO>
F 7

$$$$
