=
 OpenBabel11052419043D

 32 39  0  0  1  0  0  0  0  0999 V2000
  188.6770  175.2880  144.4400 C   0  0  0  0  0  0  0  0  0  0  0  0
  186.6500  176.6960  144.7750 C   0  0  1  0  0  3  0  0  0  0  0  0
  189.8490  174.6930  144.9260 C   0  0  0  0  0  3  0  0  0  0  0  0
  187.9430  176.1380  145.2790 C   0  0  0  0  0  0  0  0  0  0  0  0
  186.4190  178.1020  145.2970 C   0  0  1  0  0  3  0  0  0  0  0  0
  184.0730  178.3420  140.8100 C   0  0  0  0  0  2  0  0  0  0  0  0
  186.6310  176.7010  143.2510 C   0  0  1  0  0  3  0  0  0  0  0  0
  183.4200  178.9750  143.1490 C   0  0  0  0  0  2  0  0  0  0  0  0
  184.6800  178.3040  143.6160 C   0  0  0  0  0  0  0  0  0  0  0  0
  188.3910  176.4390  146.5750 C   0  0  0  0  0  0  0  0  0  0  0  0
  185.1800  178.6420  144.7620 N   0  0  0  0  0  0  0  0  0  0  0  0
  187.7260  177.5130  147.4020 C   0  0  0  0  0  2  0  0  0  0  0  0
  189.5650  175.8410  147.0440 C   0  0  0  0  0  3  0  0  0  0  0  0
  186.9000  175.3890  142.8100 O   0  0  0  0  0  0  0  0  0  0  0  0
  188.2230  175.1640  143.0660 N   0  0  0  0  0  0  0  0  0  0  0  0
  185.2530  177.1630  142.7800 C   0  0  1  0  0  3  0  0  0  0  0  0
  186.3920  178.0400  146.8310 C   0  0  1  0  0  3  0  0  0  0  0  0
  190.2820  174.9580  146.2290 C   0  0  0  0  0  3  0  0  0  0  0  0
  182.9330  178.3800  141.8280 C   0  0  0  0  0  2  0  0  0  0  0  0
  185.2830  177.5190  141.2890 C   0  0  0  0  0  2  0  0  0  0  0  0
  190.0820  172.3840  141.9360 C   0  0  2  0  0  0  0  0  0  0  0  0
  189.6090  173.7970  139.0360 C   0  0  0  0  0  2  0  0  0  0  0  0
  191.0210  172.6450  143.0960 C   0  0  0  0  0  1  0  0  0  0  0  0
  188.5630  173.8250  140.1450 C   0  0  0  0  0  0  0  0  0  0  0  0
  189.0940  174.9790  141.8910 C   0  0  2  0  0  3  0  0  0  0  0  0
  190.4370  171.4250  140.9870 O   0  0  0  0  0  1  0  0  0  0  0  0
  188.3820  175.2880  140.5350 C   0  0  0  0  0  2  0  0  0  0  0  0
  189.2500  173.5320  141.4240 C   0  0  2  0  0  0  0  0  0  0  0  0
  188.5960  172.4270  142.2520 C   0  0  0  0  0  2  0  0  0  0  0  0
  188.3220  173.0470  138.8590 C   0  0  0  0  0  2  0  0  0  0  0  0
  186.1000  179.4110  147.4220 C   0  0  0  0  0  2  0  0  0  0  0  0
  186.8910  179.6230  148.5500 O   0  0  0  0  0  1  0  0  0  0  0  0
  1  3  2  0  0  0  0
  1  4  1  0  0  0  0
  2  4  1  6  0  0  0
  2  5  1  0  0  0  0
  3 18  1  0  0  0  0
  4 10  2  0  0  0  0
  5 11  1  6  0  0  0
  5 17  1  0  0  0  0
  6 20  1  0  0  0  0
  6 19  1  0  0  0  0
  7 14  1  1  0  0  0
  7  2  1  0  0  0  0
  8  9  1  0  0  0  0
  9 11  2  0  0  0  0
 10 13  1  0  0  0  0
 10 12  1  0  0  0  0
 14 15  1  0  0  0  0
 15  1  1  0  0  0  0
 16 20  1  6  0  0  0
 16  7  1  0  0  0  0
 16  9  1  0  0  0  0
 17 12  1  0  0  0  0
 17 31  1  1  0  0  0
 18 13  2  0  0  0  0
 19  8  1  0  0  0  0
 21 29  1  0  0  0  0
 21 23  1  1  0  0  0
 22 24  1  0  0  0  0
 24 27  1  0  0  0  0
 24 28  1  0  0  0  0
 25 27  1  6  0  0  0
 25 15  1  0  0  0  0
 26 21  1  0  0  0  0
 28 25  1  0  0  0  0
 28 21  1  0  0  0  0
 28 29  1  1  0  0  0
 30 22  1  0  0  0  0
 30 24  1  0  0  0  0
 31 32  1  0  0  0  0
M  END
>  <MODEL>
1

>  <REMARK>
 VINA RESULT:      -8.4      0.000      0.000
  Name = 
  2 active torsions:
  status: ('A' for Active; 'I' for Inactive)
    1  A    between atoms: C_13  and  C_29
    2  A    between atoms: C_16  and  N_27
                            x       y       z     vdW  Elec       q    Type
                         _______ _______ _______ _____ _____    ______ ____

>  <TORSDO>
F 2

$$$$
=
 OpenBabel11052419043D

 32 39  0  0  1  0  0  0  0  0999 V2000
  189.6650  175.4990  145.2250 C   0  0  0  0  0  0  0  0  0  0  0  0
  188.4850  175.2310  143.0470 C   0  0  1  0  0  3  0  0  0  0  0  0
  189.8070  176.1200  146.4730 C   0  0  0  0  0  3  0  0  0  0  0  0
  188.6810  175.9600  144.3390 C   0  0  0  0  0  0  0  0  0  0  0  0
  188.1050  176.1860  141.9310 C   0  0  1  0  0  3  0  0  0  0  0  0
  190.6400  172.6400  139.3440 C   0  0  0  0  0  2  0  0  0  0  0  0
  189.7500  174.4710  142.6680 C   0  0  1  0  0  3  0  0  0  0  0  0
  188.4160  173.7610  139.0340 C   0  0  0  0  0  2  0  0  0  0  0  0
  188.6110  174.3840  140.3880 C   0  0  0  0  0  0  0  0  0  0  0  0
  187.8740  177.0610  144.6640 C   0  0  0  0  0  0  0  0  0  0  0  0
  187.9620  175.4660  140.6770 N   0  0  0  0  0  0  0  0  0  0  0  0
  186.9650  177.6940  143.6380 C   0  0  0  0  0  2  0  0  0  0  0  0
  188.0300  177.6730  145.9120 C   0  0  0  0  0  3  0  0  0  0  0  0
  190.0950  173.6360  143.7510 O   0  0  0  0  0  0  0  0  0  0  0  0
  190.5560  174.4610  144.7370 N   0  0  0  0  0  0  0  0  0  0  0  0
  189.4690  173.6480  141.4130 C   0  0  1  0  0  3  0  0  0  0  0  0
  186.8000  176.8880  142.3320 C   0  0  1  0  0  3  0  0  0  0  0  0
  188.9810  177.1940  146.8190 C   0  0  0  0  0  3  0  0  0  0  0  0
  189.1860  172.4460  138.9130 C   0  0  0  0  0  2  0  0  0  0  0  0
  190.7790  173.1450  140.7920 C   0  0  0  0  0  2  0  0  0  0  0  0
  193.4900  175.7300  143.2390 C   0  0  2  0  0  0  0  0  0  0  0  0
  194.6230  175.5050  146.2880 C   0  0  0  0  0  2  0  0  0  0  0  0
  193.2540  174.7310  142.1250 C   0  0  0  0  0  1  0  0  0  0  0  0
  193.1810  175.8860  145.9720 C   0  0  0  0  0  0  0  0  0  0  0  0
  191.9800  174.3200  145.0950 C   0  0  2  0  0  3  0  0  0  0  0  0
  194.6840  176.4530  143.2510 O   0  0  0  0  0  1  0  0  0  0  0  0
  192.3040  174.7820  146.5520 C   0  0  0  0  0  2  0  0  0  0  0  0
  192.8870  175.4420  144.5900 C   0  0  2  0  0  0  0  0  0  0  0  0
  192.2770  176.5220  143.6980 C   0  0  0  0  0  2  0  0  0  0  0  0
  194.1410  176.8940  146.5890 C   0  0  0  0  0  2  0  0  0  0  0  0
  186.3250  177.8170  141.2250 C   0  0  0  0  0  2  0  0  0  0  0  0
  184.9330  177.9120  141.2450 O   0  0  0  0  0  1  0  0  0  0  0  0
  1  3  1  0  0  0  0
  2  4  1  1  0  0  0
  3 18  2  0  0  0  0
  4 10  1  0  0  0  0
  4  1  2  0  0  0  0
  5 11  1  6  0  0  0
  5 17  1  0  0  0  0
  5  2  1  0  0  0  0
  6 20  1  0  0  0  0
  7  2  1  0  0  0  0
  7 14  1  1  0  0  0
  8  9  1  0  0  0  0
  9 11  2  0  0  0  0
  9 16  1  0  0  0  0
 10 13  2  0  0  0  0
 12 10  1  0  0  0  0
 13 18  1  0  0  0  0
 14 15  1  0  0  0  0
 15  1  1  0  0  0  0
 16 20  1  6  0  0  0
 16  7  1  0  0  0  0
 17 31  1  6  0  0  0
 17 12  1  0  0  0  0
 19  8  1  0  0  0  0
 19  6  1  0  0  0  0
 21 23  1  6  0  0  0
 21 26  1  0  0  0  0
 21 29  1  0  0  0  0
 21 28  1  0  0  0  0
 22 30  1  0  0  0  0
 24 22  1  0  0  0  0
 24 27  1  0  0  0  0
 24 30  1  0  0  0  0
 25 15  1  6  0  0  0
 25 27  1  0  0  0  0
 28 29  1  6  0  0  0
 28 25  1  0  0  0  0
 28 24  1  0  0  0  0
 31 32  1  0  0  0  0
M  END
>  <MODEL>
2

>  <REMARK>
 VINA RESULT:      -8.3      2.577      5.801
  Name = 
  2 active torsions:
  status: ('A' for Active; 'I' for Inactive)
    1  A    between atoms: C_13  and  C_29
    2  A    between atoms: C_16  and  N_27
                            x       y       z     vdW  Elec       q    Type
                         _______ _______ _______ _____ _____    ______ ____

>  <TORSDO>
F 2

$$$$
=
 OpenBabel11052419043D

 32 39  0  0  1  0  0  0  0  0999 V2000
  191.6150  174.5750  144.5150 C   0  0  0  0  0  0  0  0  0  0  0  0
  190.0390  175.7400  146.0520 C   0  0  1  0  0  3  0  0  0  0  0  0
  192.8920  174.0840  144.2120 C   0  0  0  0  0  3  0  0  0  0  0  0
  191.4240  175.2980  145.7010 C   0  0  0  0  0  0  0  0  0  0  0  0
  190.0540  177.0840  146.7550 C   0  0  1  0  0  3  0  0  0  0  0  0
  185.5960  177.3040  144.3530 C   0  0  0  0  0  2  0  0  0  0  0  0
  189.1730  175.8220  144.8000 C   0  0  1  0  0  3  0  0  0  0  0  0
  186.3210  177.7430  146.7160 C   0  0  0  0  0  2  0  0  0  0  0  0
  187.6650  177.1870  146.3400 C   0  0  0  0  0  0  0  0  0  0  0  0
  192.4990  175.5770  146.5600 C   0  0  0  0  0  0  0  0  0  0  0  0
  188.6970  177.5160  147.0490 N   0  0  0  0  0  0  0  0  0  0  0  0
  192.3450  176.5300  147.7200 C   0  0  0  0  0  2  0  0  0  0  0  0
  193.7690  175.0840  146.2410 C   0  0  0  0  0  3  0  0  0  0  0  0
  189.2290  174.5710  144.1530 O   0  0  0  0  0  0  0  0  0  0  0  0
  190.4810  174.4740  143.6140 N   0  0  0  0  0  0  0  0  0  0  0  0
  187.7430  176.1570  145.2160 C   0  0  1  0  0  3  0  0  0  0  0  0
  190.8900  176.9400  148.0350 C   0  0  1  0  0  3  0  0  0  0  0  0
  193.9610  174.3260  145.0810 C   0  0  0  0  0  3  0  0  0  0  0  0
  185.2170  177.1670  145.8280 C   0  0  0  0  0  2  0  0  0  0  0  0
  186.9140  176.5910  143.9990 C   0  0  0  0  0  2  0  0  0  0  0  0
  191.2190  171.8650  141.3530 C   0  0  2  0  0  0  0  0  0  0  0  0
  189.3530  173.6490  139.3620 C   0  0  0  0  0  2  0  0  0  0  0  0
  192.6530  171.9700  141.8300 C   0  0  0  0  0  1  0  0  0  0  0  0
  189.0810  173.5320  140.8580 C   0  0  0  0  0  0  0  0  0  0  0  0
  190.5590  174.4450  142.1420 C   0  0  2  0  0  3  0  0  0  0  0  0
  190.9310  171.0380  140.2670 O   0  0  0  0  0  1  0  0  0  0  0  0
  189.2500  174.9310  141.4410 C   0  0  0  0  0  2  0  0  0  0  0  0
  190.3290  173.0720  141.5100 C   0  0  2  0  0  0  0  0  0  0  0  0
  190.1500  171.8690  142.4340 C   0  0  0  0  0  2  0  0  0  0  0  0
  188.1250  172.9300  139.8380 C   0  0  0  0  0  2  0  0  0  0  0  0
  190.8950  178.2400  148.8260 C   0  0  0  0  0  2  0  0  0  0  0  0
  191.6590  178.0920  149.9830 O   0  0  0  0  0  1  0  0  0  0  0  0
  1  4  1  0  0  0  0
  2  4  1  6  0  0  0
  2  5  1  0  0  0  0
  3  1  2  0  0  0  0
  3 18  1  0  0  0  0
  4 10  2  0  0  0  0
  5 11  1  1  0  0  0
  5 17  1  0  0  0  0
  6 19  1  0  0  0  0
  7 14  1  1  0  0  0
  7 16  1  0  0  0  0
  7  2  1  0  0  0  0
  9  8  1  0  0  0  0
  9 11  2  0  0  0  0
 10 12  1  0  0  0  0
 12 17  1  0  0  0  0
 13 10  1  0  0  0  0
 15 14  1  0  0  0  0
 15  1  1  0  0  0  0
 16 20  1  6  0  0  0
 16  9  1  0  0  0  0
 17 31  1  6  0  0  0
 18 13  2  0  0  0  0
 19  8  1  0  0  0  0
 20  6  1  0  0  0  0
 21 28  1  0  0  0  0
 21 23  1  1  0  0  0
 21 29  1  0  0  0  0
 22 30  1  0  0  0  0
 22 24  1  0  0  0  0
 24 27  1  0  0  0  0
 24 28  1  0  0  0  0
 25 27  1  6  0  0  0
 25 15  1  0  0  0  0
 26 21  1  0  0  0  0
 28 25  1  0  0  0  0
 28 29  1  1  0  0  0
 30 24  1  0  0  0  0
 31 32  1  0  0  0  0
M  END
>  <MODEL>
3

>  <REMARK>
 VINA RESULT:      -8.1      2.167      3.429
  Name = 
  2 active torsions:
  status: ('A' for Active; 'I' for Inactive)
    1  A    between atoms: C_13  and  C_29
    2  A    between atoms: C_16  and  N_27
                            x       y       z     vdW  Elec       q    Type
                         _______ _______ _______ _____ _____    ______ ____

>  <TORSDO>
F 2

$$$$
=
 OpenBabel11052419043D

 32 39  0  0  1  0  0  0  0  0999 V2000
  188.0590  175.7070  140.9170 C   0  0  0  0  0  0  0  0  0  0  0  0
  188.0760  177.0320  143.0260 C   0  0  1  0  0  3  0  0  0  0  0  0
  187.6320  175.5100  139.5970 C   0  0  0  0  0  3  0  0  0  0  0  0
  187.5450  176.7860  141.6490 C   0  0  0  0  0  0  0  0  0  0  0  0
  186.9910  177.5630  143.9440 C   0  0  1  0  0  3  0  0  0  0  0  0
  189.8720  175.0020  147.2350 C   0  0  0  0  0  2  0  0  0  0  0  0
  188.6620  175.7510  143.6070 C   0  0  1  0  0  3  0  0  0  0  0  0
  188.8980  177.3150  147.2110 C   0  0  0  0  0  2  0  0  0  0  0  0
  188.4830  177.0580  145.7900 C   0  0  0  0  0  0  0  0  0  0  0  0
  186.5770  177.6400  141.0960 C   0  0  0  0  0  0  0  0  0  0  0  0
  187.5150  177.7550  145.2870 N   0  0  0  0  0  0  0  0  0  0  0  0
  185.8660  178.6670  141.9440 C   0  0  0  0  0  2  0  0  0  0  0  0
  186.1570  177.4280  139.7790 C   0  0  0  0  0  3  0  0  0  0  0  0
  189.6260  175.2660  142.6990 O   0  0  0  0  0  0  0  0  0  0  0  0
  188.9320  174.7870  141.6250 N   0  0  0  0  0  0  0  0  0  0  0  0
  189.2990  176.0730  144.9570 C   0  0  1  0  0  3  0  0  0  0  0  0
  186.4680  178.8790  143.3500 C   0  0  1  0  0  3  0  0  0  0  0  0
  186.6950  176.3780  139.0270 C   0  0  0  0  0  3  0  0  0  0  0  0
  190.1120  176.4690  147.5940 C   0  0  0  0  0  2  0  0  0  0  0  0
  189.5910  174.7850  145.7370 C   0  0  0  0  0  2  0  0  0  0  0  0
  191.0340  172.8550  139.5470 C   0  0  2  0  0  0  0  0  0  0  0  0
  190.4450  170.5780  141.8050 C   0  0  0  0  0  2  0  0  0  0  0  0
  190.2470  173.4090  138.3770 C   0  0  0  0  0  1  0  0  0  0  0  0
  190.5830  172.0580  142.1460 C   0  0  0  0  0  0  0  0  0  0  0  0
  189.0120  173.3330  141.3900 C   0  0  2  0  0  3  0  0  0  0  0  0
  191.9640  171.8430  139.3120 O   0  0  0  0  0  1  0  0  0  0  0  0
  189.2330  172.5050  142.6960 C   0  0  0  0  0  2  0  0  0  0  0  0
  190.3710  172.8310  140.9010 C   0  0  2  0  0  0  0  0  0  0  0  0
  191.4600  173.8600  140.6040 C   0  0  0  0  0  2  0  0  0  0  0  0
  191.6210  171.0460  142.6100 C   0  0  0  0  0  2  0  0  0  0  0  0
  185.4180  179.5020  144.2570 C   0  0  0  0  0  2  0  0  0  0  0  0
  184.3340  178.6350  144.3980 O   0  0  0  0  0  1  0  0  0  0  0  0
  1 15  1  0  0  0  0
  1  4  1  0  0  0  0
  2  4  1  6  0  0  0
  2  7  1  0  0  0  0
  2  5  1  0  0  0  0
  3  1  2  0  0  0  0
  5 11  1  1  0  0  0
  6 19  1  0  0  0  0
  7 14  1  6  0  0  0
  7 16  1  0  0  0  0
  8 19  1  0  0  0  0
  9  8  1  0  0  0  0
 10  4  2  0  0  0  0
 10 12  1  0  0  0  0
 11  9  2  0  0  0  0
 12 17  1  0  0  0  0
 13 10  1  0  0  0  0
 15 14  1  0  0  0  0
 16 20  1  1  0  0  0
 16  9  1  0  0  0  0
 17  5  1  0  0  0  0
 17 31  1  1  0  0  0
 18  3  1  0  0  0  0
 18 13  2  0  0  0  0
 20  6  1  0  0  0  0
 21 23  1  6  0  0  0
 21 29  1  0  0  0  0
 21 28  1  0  0  0  0
 22 24  1  0  0  0  0
 22 30  1  0  0  0  0
 24 30  1  0  0  0  0
 24 27  1  0  0  0  0
 25 15  1  1  0  0  0
 25 27  1  0  0  0  0
 26 21  1  0  0  0  0
 28 29  1  1  0  0  0
 28 25  1  0  0  0  0
 28 24  1  0  0  0  0
 31 32  1  0  0  0  0
M  END
>  <MODEL>
4

>  <REMARK>
 VINA RESULT:      -7.8      1.895      4.936
  Name = 
  2 active torsions:
  status: ('A' for Active; 'I' for Inactive)
    1  A    between atoms: C_13  and  C_29
    2  A    between atoms: C_16  and  N_27
                            x       y       z     vdW  Elec       q    Type
                         _______ _______ _______ _____ _____    ______ ____

>  <TORSDO>
F 2

$$$$
=
 OpenBabel11052419043D

 32 39  0  0  1  0  0  0  0  0999 V2000
  191.2630  175.7980  144.5320 C   0  0  0  0  0  0  0  0  0  0  0  0
  189.4990  175.0470  142.9430 C   0  0  1  0  0  3  0  0  0  0  0  0
  191.6630  176.5050  145.6740 C   0  0  0  0  0  3  0  0  0  0  0  0
  189.9280  175.8740  144.1130 C   0  0  0  0  0  0  0  0  0  0  0  0
  188.4490  175.7670  142.1180 C   0  0  1  0  0  3  0  0  0  0  0  0
  190.7930  173.0490  138.5390 C   0  0  0  0  0  2  0  0  0  0  0  0
  190.6960  174.7010  142.0670 C   0  0  1  0  0  3  0  0  0  0  0  0
  188.3860  173.3960  139.1600 C   0  0  0  0  0  2  0  0  0  0  0  0
  188.8710  174.1260  140.3810 C   0  0  0  0  0  0  0  0  0  0  0  0
  189.0020  176.6840  144.7900 C   0  0  0  0  0  0  0  0  0  0  0  0
  188.0760  174.9650  140.9630 N   0  0  0  0  0  0  0  0  0  0  0  0
  187.6260  176.9390  144.2240 C   0  0  0  0  0  2  0  0  0  0  0  0
  189.4170  177.3870  145.9260 C   0  0  0  0  0  3  0  0  0  0  0  0
  191.6650  174.0810  142.8840 O   0  0  0  0  0  0  0  0  0  0  0  0
  192.1820  175.0650  143.6780 N   0  0  0  0  0  0  0  0  0  0  0  0
  190.2360  173.7580  140.9580 C   0  0  1  0  0  3  0  0  0  0  0  0
  187.2420  176.0460  143.0240 C   0  0  1  0  0  3  0  0  0  0  0  0
  190.7380  177.2840  146.3760 C   0  0  0  0  0  3  0  0  0  0  0  0
  189.4230  172.3840  138.6730 C   0  0  0  0  0  2  0  0  0  0  0  0
  191.3010  173.6560  139.8590 C   0  0  0  0  0  2  0  0  0  0  0  0
  195.0210  174.6760  145.7410 C   0  0  2  0  0  0  0  0  0  0  0  0
  196.5500  174.5250  142.8650 C   0  0  0  0  0  2  0  0  0  0  0  0
  194.4620  175.8070  146.5800 C   0  0  0  0  0  1  0  0  0  0  0  0
  195.1550  173.9480  143.0870 C   0  0  0  0  0  0  0  0  0  0  0  0
  193.6020  175.4000  143.4650 C   0  0  2  0  0  3  0  0  0  0  0  0
  196.3020  174.2010  146.0210 O   0  0  0  0  0  1  0  0  0  0  0  0
  194.2110  174.7380  142.1880 C   0  0  0  0  0  2  0  0  0  0  0  0
  194.5900  174.5840  144.2990 C   0  0  2  0  0  0  0  0  0  0  0  0
  194.0330  173.5990  145.3250 C   0  0  0  0  0  2  0  0  0  0  0  0
  196.3460  173.0390  142.8150 C   0  0  0  0  0  2  0  0  0  0  0  0
  186.1210  176.7130  142.2410 C   0  0  0  0  0  2  0  0  0  0  0  0
  185.1970  177.2790  143.1190 O   0  0  0  0  0  1  0  0  0  0  0  0
  1  3  1  0  0  0  0
  2  4  1  1  0  0  0
  3 18  2  0  0  0  0
  4  1  2  0  0  0  0
  4 10  1  0  0  0  0
  5 11  1  6  0  0  0
  5  2  1  0  0  0  0
  5 17  1  0  0  0  0
  6 19  1  0  0  0  0
  6 20  1  0  0  0  0
  7 14  1  1  0  0  0
  7  2  1  0  0  0  0
  8  9  1  0  0  0  0
  9 16  1  0  0  0  0
  9 11  2  0  0  0  0
 10 13  2  0  0  0  0
 12 10  1  0  0  0  0
 13 18  1  0  0  0  0
 14 15  1  0  0  0  0
 15  1  1  0  0  0  0
 16 20  1  6  0  0  0
 16  7  1  0  0  0  0
 17 31  1  6  0  0  0
 17 12  1  0  0  0  0
 19  8  1  0  0  0  0
 21 26  1  0  0  0  0
 21 23  1  1  0  0  0
 22 24  1  0  0  0  0
 24 28  1  0  0  0  0
 25 27  1  6  0  0  0
 25 15  1  0  0  0  0
 25 28  1  0  0  0  0
 27 24  1  0  0  0  0
 28 29  1  1  0  0  0
 28 21  1  0  0  0  0
 29 21  1  0  0  0  0
 30 22  1  0  0  0  0
 30 24  1  0  0  0  0
 31 32  1  0  0  0  0
M  END
>  <MODEL>
5

>  <REMARK>
 VINA RESULT:      -7.5      3.199      5.922
  Name = 
  2 active torsions:
  status: ('A' for Active; 'I' for Inactive)
    1  A    between atoms: C_13  and  C_29
    2  A    between atoms: C_16  and  N_27
                            x       y       z     vdW  Elec       q    Type
                         _______ _______ _______ _____ _____    ______ ____

>  <TORSDO>
F 2

$$$$
=
 OpenBabel11052419043D

 32 39  0  0  1  0  0  0  0  0999 V2000
  190.6900  174.7680  145.0830 C   0  0  0  0  0  0  0  0  0  0  0  0
  189.0670  175.1240  143.2270 C   0  0  1  0  0  3  0  0  0  0  0  0
  191.1930  175.0940  146.3500 C   0  0  0  0  0  3  0  0  0  0  0  0
  189.6500  175.5370  144.5410 C   0  0  0  0  0  0  0  0  0  0  0  0
  188.6530  176.3320  142.4080 C   0  0  1  0  0  3  0  0  0  0  0  0
  189.9160  173.0680  138.7420 C   0  0  0  0  0  2  0  0  0  0  0  0
  190.0680  174.2860  142.4410 C   0  0  1  0  0  3  0  0  0  0  0  0
  187.9200  174.5340  139.1510 C   0  0  0  0  0  2  0  0  0  0  0  0
  188.4950  174.8310  140.5080 C   0  0  0  0  0  0  0  0  0  0  0  0
  189.1420  176.6520  145.2270 C   0  0  0  0  0  0  0  0  0  0  0  0
  188.1280  175.9120  141.1180 N   0  0  0  0  0  0  0  0  0  0  0  0
  188.1780  177.6050  144.5620 C   0  0  0  0  0  2  0  0  0  0  0  0
  189.6570  176.9660  146.4890 C   0  0  0  0  0  3  0  0  0  0  0  0
  190.4640  173.2060  143.2570 O   0  0  0  0  0  0  0  0  0  0  0  0
  191.2580  173.7360  144.2330 N   0  0  0  0  0  0  0  0  0  0  0  0
  189.3920  173.7860  141.1660 C   0  0  1  0  0  3  0  0  0  0  0  0
  187.6070  177.1160  143.2140 C   0  0  1  0  0  3  0  0  0  0  0  0
  190.6660  176.1800  147.0550 C   0  0  0  0  0  3  0  0  0  0  0  0
  188.3940  173.1760  138.6350 C   0  0  0  0  0  2  0  0  0  0  0  0
  190.4340  173.2400  140.1810 C   0  0  0  0  0  2  0  0  0  0  0  0
  194.0800  175.0770  142.5870 C   0  0  2  0  0  0  0  0  0  0  0  0
  195.6460  173.7430  145.1170 C   0  0  0  0  0  2  0  0  0  0  0  0
  193.4880  174.5280  141.3050 C   0  0  0  0  0  1  0  0  0  0  0  0
  194.2610  174.3700  145.2450 C   0  0  0  0  0  0  0  0  0  0  0  0
  192.6740  173.3240  144.2200 C   0  0  2  0  0  3  0  0  0  0  0  0
  195.3670  175.6130  142.5580 O   0  0  0  0  0  1  0  0  0  0  0  0
  193.3120  173.2460  145.6440 C   0  0  0  0  0  2  0  0  0  0  0  0
  193.6680  174.4360  143.8890 C   0  0  2  0  0  0  0  0  0  0  0  0
  193.1190  175.8110  143.5090 C   0  0  0  0  0  2  0  0  0  0  0  0
  195.4730  175.0040  145.9120 C   0  0  0  0  0  2  0  0  0  0  0  0
  187.0980  178.3100  142.4210 C   0  0  0  0  0  2  0  0  0  0  0  0
  185.7930  178.6180  142.8060 O   0  0  0  0  0  1  0  0  0  0  0  0
  1  3  1  0  0  0  0
  2  4  1  1  0  0  0
  3 18  2  0  0  0  0
  4  1  2  0  0  0  0
  4 10  1  0  0  0  0
  5 11  1  6  0  0  0
  5 17  1  0  0  0  0
  5  2  1  0  0  0  0
  6 20  1  0  0  0  0
  7  2  1  0  0  0  0
  7 14  1  1  0  0  0
  8  9  1  0  0  0  0
  9 11  2  0  0  0  0
  9 16  1  0  0  0  0
 10 13  2  0  0  0  0
 12 10  1  0  0  0  0
 13 18  1  0  0  0  0
 14 15  1  0  0  0  0
 15  1  1  0  0  0  0
 16 20  1  6  0  0  0
 16  7  1  0  0  0  0
 17 31  1  6  0  0  0
 17 12  1  0  0  0  0
 19  6  1  0  0  0  0
 19  8  1  0  0  0  0
 21 23  1  6  0  0  0
 21 29  1  0  0  0  0
 21 28  1  0  0  0  0
 22 24  1  0  0  0  0
 22 30  1  0  0  0  0
 24 27  1  0  0  0  0
 24 30  1  0  0  0  0
 25 15  1  1  0  0  0
 25 27  1  0  0  0  0
 26 21  1  0  0  0  0
 28 29  1  1  0  0  0
 28 25  1  0  0  0  0
 28 24  1  0  0  0  0
 31 32  1  0  0  0  0
M  END
>  <MODEL>
6

>  <REMARK>
 VINA RESULT:      -7.3      2.780      5.495
  Name = 
  2 active torsions:
  status: ('A' for Active; 'I' for Inactive)
    1  A    between atoms: C_13  and  C_29
    2  A    between atoms: C_16  and  N_27
                            x       y       z     vdW  Elec       q    Type
                         _______ _______ _______ _____ _____    ______ ____

>  <TORSDO>
F 2

$$$$
=
 OpenBabel11052419043D

 32 39  0  0  1  0  0  0  0  0999 V2000
  192.7070  175.8500  144.4290 C   0  0  0  0  0  0  0  0  0  0  0  0
  194.4530  175.2190  142.7690 C   0  0  1  0  0  3  0  0  0  0  0  0
  192.3240  176.2060  145.7290 C   0  0  0  0  0  3  0  0  0  0  0  0
  194.0430  175.5120  144.1770 C   0  0  0  0  0  0  0  0  0  0  0  0
  195.5190  174.1400  142.7200 C   0  0  1  0  0  3  0  0  0  0  0  0
  193.1100  173.3110  138.3390 C   0  0  0  0  0  2  0  0  0  0  0  0
  193.2470  174.7890  141.9420 C   0  0  1  0  0  3  0  0  0  0  0  0
  195.5240  173.5710  138.9720 C   0  0  0  0  0  2  0  0  0  0  0  0
  195.0570  173.9670  140.3450 C   0  0  0  0  0  0  0  0  0  0  0  0
  194.9890  175.4760  145.2150 C   0  0  0  0  0  0  0  0  0  0  0  0
  195.8720  173.8400  141.3420 N   0  0  0  0  0  0  0  0  0  0  0  0
  196.3700  174.9090  144.9940 C   0  0  0  0  0  2  0  0  0  0  0  0
  194.5910  175.8290  146.5090 C   0  0  0  0  0  3  0  0  0  0  0  0
  192.2640  175.7940  142.0570 O   0  0  0  0  0  0  0  0  0  0  0  0
  191.7710  175.7030  143.3280 N   0  0  0  0  0  0  0  0  0  0  0  0
  193.6840  174.6190  140.4890 C   0  0  1  0  0  3  0  0  0  0  0  0
  196.7330  174.6380  143.5180 C   0  0  1  0  0  3  0  0  0  0  0  0
  193.2680  176.2090  146.7610 C   0  0  0  0  0  3  0  0  0  0  0  0
  194.4640  173.8820  137.9160 C   0  0  0  0  0  2  0  0  0  0  0  0
  192.6160  173.8620  139.6880 C   0  0  0  0  0  2  0  0  0  0  0  0
  188.8870  177.5030  144.2800 C   0  0  2  0  0  0  0  0  0  0  0  0
  187.4150  175.2970  142.3840 C   0  0  0  0  0  2  0  0  0  0  0  0
  189.4400  177.4810  145.6900 C   0  0  0  0  0  1  0  0  0  0  0  0
  188.7980  175.8580  142.0710 C   0  0  0  0  0  0  0  0  0  0  0  0
  190.3590  175.2980  143.4540 C   0  0  2  0  0  3  0  0  0  0  0  0
  187.5950  177.9880  144.0730 O   0  0  0  0  0  1  0  0  0  0  0  0
  189.7690  174.6850  142.1440 C   0  0  0  0  0  2  0  0  0  0  0  0
  189.3450  176.4340  143.3210 C   0  0  2  0  0  0  0  0  0  0  0  0
  189.8710  177.8620  143.1790 C   0  0  0  0  0  2  0  0  0  0  0  0
  187.6030  176.1760  141.1830 C   0  0  0  0  0  2  0  0  0  0  0  0
  197.8690  173.6280  143.4590 C   0  0  0  0  0  2  0  0  0  0  0  0
  197.7920  172.7580  144.5460 O   0  0  0  0  0  1  0  0  0  0  0  0
  1  3  1  0  0  0  0
  2  4  1  1  0  0  0
  3 18  2  0  0  0  0
  4  1  2  0  0  0  0
  4 10  1  0  0  0  0
  5 11  1  6  0  0  0
  5  2  1  0  0  0  0
  5 17  1  0  0  0  0
  6 20  1  0  0  0  0
  7 14  1  6  0  0  0
  7  2  1  0  0  0  0
  8  9  1  0  0  0  0
  9 16  1  0  0  0  0
  9 11  2  0  0  0  0
 10 13  2  0  0  0  0
 12 10  1  0  0  0  0
 13 18  1  0  0  0  0
 14 15  1  0  0  0  0
 15 25  1  0  0  0  0
 15  1  1  0  0  0  0
 16 20  1  6  0  0  0
 16  7  1  0  0  0  0
 17 31  1  1  0  0  0
 17 12  1  0  0  0  0
 19  6  1  0  0  0  0
 19  8  1  0  0  0  0
 21 23  1  1  0  0  0
 24 27  1  0  0  0  0
 24 22  1  0  0  0  0
 24 28  1  0  0  0  0
 25 27  1  6  0  0  0
 26 21  1  0  0  0  0
 28 29  1  6  0  0  0
 28 25  1  0  0  0  0
 28 21  1  0  0  0  0
 29 21  1  0  0  0  0
 30 24  1  0  0  0  0
 30 22  1  0  0  0  0
 31 32  1  0  0  0  0
M  END
>  <MODEL>
7

>  <REMARK>
 VINA RESULT:      -7.3      4.307      8.163
  Name = 
  2 active torsions:
  status: ('A' for Active; 'I' for Inactive)
    1  A    between atoms: C_13  and  C_29
    2  A    between atoms: C_16  and  N_27
                            x       y       z     vdW  Elec       q    Type
                         _______ _______ _______ _____ _____    ______ ____

>  <TORSDO>
F 2

$$$$
=
 OpenBabel11052419043D

 32 39  0  0  1  0  0  0  0  0999 V2000
  189.4190  176.1550  143.0360 C   0  0  0  0  0  0  0  0  0  0  0  0
  189.7640  174.1030  141.6680 C   0  0  1  0  0  3  0  0  0  0  0  0
  188.7050  177.3230  143.3340 C   0  0  0  0  0  3  0  0  0  0  0  0
  189.0470  175.3910  141.9220 C   0  0  0  0  0  0  0  0  0  0  0  0
  189.9100  173.8410  140.1800 C   0  0  1  0  0  3  0  0  0  0  0  0
  194.0890  171.6000  141.9690 C   0  0  0  0  0  2  0  0  0  0  0  0
  191.1380  174.1190  142.3260 C   0  0  1  0  0  3  0  0  0  0  0  0
  192.2700  170.8820  140.3950 C   0  0  0  0  0  2  0  0  0  0  0  0
  191.5380  172.1400  140.7680 C   0  0  0  0  0  0  0  0  0  0  0  0
  188.0040  175.8040  141.0770 C   0  0  0  0  0  0  0  0  0  0  0  0
  190.6460  172.6080  139.9540 N   0  0  0  0  0  0  0  0  0  0  0  0
  187.7380  175.1050  139.7650 C   0  0  0  0  0  2  0  0  0  0  0  0
  187.3030  176.9740  141.3860 C   0  0  0  0  0  3  0  0  0  0  0  0
  190.9590  174.4160  143.6930 O   0  0  0  0  0  0  0  0  0  0  0  0
  190.6090  175.7350  143.7560 N   0  0  0  0  0  0  0  0  0  0  0  0
  191.7840  172.7480  142.1460 C   0  0  1  0  0  3  0  0  0  0  0  0
  188.5030  173.7790  139.5690 C   0  0  1  0  0  3  0  0  0  0  0  0
  187.6410  177.7210  142.5190 C   0  0  0  0  0  3  0  0  0  0  0  0
  193.2070  170.4350  141.5160 C   0  0  0  0  0  2  0  0  0  0  0  0
  193.2810  172.8080  142.4740 C   0  0  0  0  0  2  0  0  0  0  0  0
  191.0150  176.6750  147.1350 C   0  0  2  0  0  0  0  0  0  0  0  0
  194.1100  177.0850  146.1960 C   0  0  0  0  0  2  0  0  0  0  0  0
  189.7470  177.4890  146.9730 C   0  0  0  0  0  1  0  0  0  0  0  0
  193.2220  175.9760  145.6410 C   0  0  0  0  0  0  0  0  0  0  0  0
  191.5730  176.6370  144.4140 C   0  0  2  0  0  3  0  0  0  0  0  0
  191.7510  176.8040  148.3120 O   0  0  0  0  0  1  0  0  0  0  0  0
  193.0640  176.2520  144.1500 C   0  0  0  0  0  2  0  0  0  0  0  0
  191.8130  176.3530  145.8970 C   0  0  2  0  0  0  0  0  0  0  0  0
  190.9820  175.2640  146.5720 C   0  0  0  0  0  2  0  0  0  0  0  0
  194.4190  175.6540  146.5260 C   0  0  0  0  0  2  0  0  0  0  0  0
  188.5730  173.4550  138.0840 C   0  0  0  0  0  2  0  0  0  0  0  0
  188.1640  174.5580  137.3350 O   0  0  0  0  0  1  0  0  0  0  0  0
  1  3  1  0  0  0  0
  1 15  1  0  0  0  0
  2  4  1  6  0  0  0
  2  7  1  0  0  0  0
  4  1  2  0  0  0  0
  5 11  1  1  0  0  0
  5  2  1  0  0  0  0
  6 20  1  0  0  0  0
  7 14  1  1  0  0  0
  8  9  1  0  0  0  0
  8 19  1  0  0  0  0
  9 16  1  0  0  0  0
 10 13  2  0  0  0  0
 10  4  1  0  0  0  0
 11  9  2  0  0  0  0
 12 10  1  0  0  0  0
 13 18  1  0  0  0  0
 14 15  1  0  0  0  0
 16  7  1  0  0  0  0
 16 20  1  6  0  0  0
 17 31  1  6  0  0  0
 17 12  1  0  0  0  0
 17  5  1  0  0  0  0
 18  3  2  0  0  0  0
 19  6  1  0  0  0  0
 21 23  1  6  0  0  0
 21 26  1  0  0  0  0
 22 30  1  0  0  0  0
 24 28  1  0  0  0  0
 24 22  1  0  0  0  0
 24 30  1  0  0  0  0
 25 15  1  6  0  0  0
 25 28  1  0  0  0  0
 27 25  1  0  0  0  0
 27 24  1  0  0  0  0
 28 29  1  6  0  0  0
 28 21  1  0  0  0  0
 29 21  1  0  0  0  0
 32 31  1  0  0  0  0
M  END
>  <MODEL>
8

>  <REMARK>
 VINA RESULT:      -7.2      2.909      7.928
  Name = 
  2 active torsions:
  status: ('A' for Active; 'I' for Inactive)
    1  A    between atoms: C_13  and  C_29
    2  A    between atoms: C_16  and  N_27
                            x       y       z     vdW  Elec       q    Type
                         _______ _______ _______ _____ _____    ______ ____

>  <TORSDO>
F 2

$$$$
=
 OpenBabel11052419043D

 32 39  0  0  1  0  0  0  0  0999 V2000
  188.9720  174.8480  142.6090 C   0  0  0  0  0  0  0  0  0  0  0  0
  190.5640  175.8770  144.2250 C   0  0  1  0  0  3  0  0  0  0  0  0
  187.7140  174.7950  141.9930 C   0  0  0  0  0  3  0  0  0  0  0  0
  189.1920  175.7740  143.6380 C   0  0  0  0  0  0  0  0  0  0  0  0
  190.5030  176.1900  145.7080 C   0  0  1  0  0  3  0  0  0  0  0  0
  194.7660  173.4580  145.4710 C   0  0  0  0  0  2  0  0  0  0  0  0
  191.3370  174.5830  144.0010 C   0  0  1  0  0  3  0  0  0  0  0  0
  194.1720  175.6650  146.5070 C   0  0  0  0  0  2  0  0  0  0  0  0
  192.8470  175.5670  145.8060 C   0  0  0  0  0  0  0  0  0  0  0  0
  188.1590  176.6110  144.0910 C   0  0  0  0  0  0  0  0  0  0  0  0
  191.8440  176.2430  146.2680 N   0  0  0  0  0  0  0  0  0  0  0  0
  188.3250  177.4540  145.3320 C   0  0  0  0  0  2  0  0  0  0  0  0
  186.9080  176.5440  143.4690 C   0  0  0  0  0  3  0  0  0  0  0  0
  191.3230  174.3040  142.6180 O   0  0  0  0  0  0  0  0  0  0  0  0
  190.0480  173.9170  142.3190 N   0  0  0  0  0  0  0  0  0  0  0  0
  192.7650  174.7720  144.5050 C   0  0  1  0  0  3  0  0  0  0  0  0
  189.7660  177.5250  145.8810 C   0  0  1  0  0  3  0  0  0  0  0  0
  186.6910  175.6510  142.4140 C   0  0  0  0  0  3  0  0  0  0  0  0
  195.2510  174.8780  145.7630 C   0  0  0  0  0  2  0  0  0  0  0  0
  193.4790  173.4200  144.6270 C   0  0  0  0  0  2  0  0  0  0  0  0
  189.5870  172.4950  139.1200 C   0  0  2  0  0  0  0  0  0  0  0  0
  190.9990  169.9220  140.5390 C   0  0  0  0  0  2  0  0  0  0  0  0
  188.1920  173.0830  139.1510 C   0  0  0  0  0  1  0  0  0  0  0  0
  191.3880  171.3590  140.8690 C   0  0  0  0  0  0  0  0  0  0  0  0
  189.8750  172.5190  141.8820 C   0  0  2  0  0  3  0  0  0  0  0  0
  189.9290  171.6330  138.0790 O   0  0  0  0  0  1  0  0  0  0  0  0
  191.0360  171.5780  142.3360 C   0  0  0  0  0  2  0  0  0  0  0  0
  190.2790  172.2390  140.4350 C   0  0  2  0  0  0  0  0  0  0  0  0
  190.7130  173.4160  139.5620 C   0  0  0  0  0  2  0  0  0  0  0  0
  192.3560  170.4290  140.1510 C   0  0  0  0  0  2  0  0  0  0  0  0
  189.7250  177.9330  147.3460 C   0  0  0  0  0  2  0  0  0  0  0  0
  188.4050  178.1440  147.7460 O   0  0  0  0  0  1  0  0  0  0  0  0
  1  4  1  0  0  0  0
  2  4  1  1  0  0  0
  2  5  1  0  0  0  0
  3 18  1  0  0  0  0
  3  1  2  0  0  0  0
  4 10  2  0  0  0  0
  5 17  1  0  0  0  0
  5 11  1  6  0  0  0
  6 19  1  0  0  0  0
  7 14  1  6  0  0  0
  7  2  1  0  0  0  0
  7 16  1  0  0  0  0
  9 11  2  0  0  0  0
  9  8  1  0  0  0  0
 10 12  1  0  0  0  0
 12 17  1  0  0  0  0
 13 10  1  0  0  0  0
 15  1  1  0  0  0  0
 15 14  1  0  0  0  0
 16 20  1  1  0  0  0
 16  9  1  0  0  0  0
 17 31  1  1  0  0  0
 18 13  2  0  0  0  0
 19  8  1  0  0  0  0
 20  6  1  0  0  0  0
 21 23  1  1  0  0  0
 21 29  1  0  0  0  0
 21 28  1  0  0  0  0
 22 24  1  0  0  0  0
 24 27  1  0  0  0  0
 25 15  1  1  0  0  0
 25 27  1  0  0  0  0
 26 21  1  0  0  0  0
 28 29  1  6  0  0  0
 28 24  1  0  0  0  0
 28 25  1  0  0  0  0
 30 22  1  0  0  0  0
 30 24  1  0  0  0  0
 31 32  1  0  0  0  0
M  END
>  <MODEL>
9

>  <REMARK>
 VINA RESULT:      -7.2      2.630      5.913
  Name = 
  2 active torsions:
  status: ('A' for Active; 'I' for Inactive)
    1  A    between atoms: C_13  and  C_29
    2  A    between atoms: C_16  and  N_27
                            x       y       z     vdW  Elec       q    Type
                         _______ _______ _______ _____ _____    ______ ____

>  <TORSDO>
F 2

$$$$
