=
 OpenBabel11052420213D

 34 37  0  0  1  0  0  0  0  0999 V2000
  193.9070  174.1200  144.4290 C   0  0  1  0  0  3  0  0  0  0  0  0
  197.1300  172.3430  144.8080 C   0  0  0  0  0  3  0  0  0  0  0  0
  196.6020  174.2670  143.5990 N   0  0  0  0  0  0  0  0  0  0  0  0
  193.3950  176.2670  142.7290 S   0  0  0  0  0  0  0  0  0  0  0  0
  194.5190  175.7840  140.3940 O   0  0  0  0  0  0  0  0  0  0  0  0
  194.7050  176.2200  141.5180 C   0  0  0  0  0  0  0  0  0  0  0  0
  195.8580  175.2980  143.3620 C   0  0  0  0  0  0  0  0  0  0  0  0
  194.4840  175.4340  143.9540 C   0  0  2  0  0  3  0  0  0  0  0  0
  196.3380  176.5040  142.1440 S   0  0  0  0  0  0  0  0  0  0  0  0
  197.0980  171.1320  145.6310 C   0  0  0  0  0  2  0  0  0  0  0  0
  196.0700  170.4780  146.1570 C   0  0  0  0  0  0  0  0  0  0  0  0
  194.6590  170.8460  145.9980 C   0  0  0  0  0  3  0  0  0  0  0  0
  196.1720  173.1880  144.4330 C   0  0  0  0  0  0  0  0  0  0  0  0
  194.1130  171.9160  145.4340 C   0  0  0  0  0  3  0  0  0  0  0  0
  194.7220  173.0860  144.7740 C   0  0  0  0  0  0  0  0  0  0  0  0
  196.3730  169.3050  146.9120 N   0  0  0  0  0  2  0  0  0  0  0  0
  195.4510  168.7180  147.7120 O   0  0  0  0  0  1  0  0  0  0  0  0
  192.4920  174.1030  144.6880 N   0  0  0  0  0  2  0  0  0  0  0  0
  191.8370  174.8330  145.7680 C   0  0  0  0  0  2  0  0  0  0  0  0
  188.3710  175.7840  146.6840 C   0  0  0  0  0  2  0  0  0  0  0  0
  189.5500  177.1080  144.8660 C   0  0  0  0  0  2  0  0  0  0  0  0
  188.3830  177.0880  145.8670 C   0  0  1  0  0  3  0  0  0  0  0  0
  189.8560  173.3880  145.3580 C   0  0  0  0  0  1  0  0  0  0  0  0
  189.9140  175.6960  144.4160 C   0  0  0  0  0  2  0  0  0  0  0  0
  190.3180  174.8140  145.6150 C   0  0  2  0  0  0  0  0  0  0  0  0
  189.7330  175.2870  146.8830 N   0  0  0  0  0  2  0  0  0  0  0  0
  187.0280  177.3060  145.1690 C   0  0  1  0  0  3  0  0  0  0  0  0
  186.2730  178.5090  145.7630 C   0  0  1  0  0  3  0  0  0  0  0  0
  185.5850  179.3680  144.7090 C   0  0  0  0  0  1  0  0  0  0  0  0
  185.3250  178.0950  146.8440 C   0  0  0  0  0  0  0  0  0  0  0  0
  185.8090  177.8510  148.1210 O   0  0  0  0  0  1  0  0  0  0  0  0
  184.0980  177.9370  146.6010 O   0  0  0  0  0  0  0  0  0  0  0  0
  186.4850  176.2890  142.9570 C   0  0  0  0  0  1  0  0  0  0  0  0
  187.1830  177.4410  143.6530 C   0  0  0  0  0  2  0  0  0  0  0  0
  1 18  1  1  0  0  0
  1 15  1  0  0  0  0
  2 10  1  0  0  0  0
  3 13  1  0  0  0  0
  5  6  2  0  0  0  0
  6  9  1  0  0  0  0
  6  4  1  0  0  0  0
  7  3  2  0  0  0  0
  7  8  1  0  0  0  0
  8  4  1  6  0  0  0
  8  1  1  0  0  0  0
  9  7  1  0  0  0  0
 10 11  1  0  0  0  0
 11 16  1  0  0  0  0
 12 11  2  0  0  0  0
 13 15  1  0  0  0  0
 13  2  2  0  0  0  0
 14 12  1  0  0  0  0
 15 14  2  0  0  0  0
 16 17  1  0  0  0  0
 18 19  1  0  0  0  0
 20 26  1  0  0  0  0
 21 22  1  0  0  0  0
 22 27  1  6  0  0  0
 22 20  1  0  0  0  0
 24 21  1  0  0  0  0
 24 25  1  0  0  0  0
 25 23  1  6  0  0  0
 25 19  1  0  0  0  0
 25 26  1  0  0  0  0
 27 34  1  6  0  0  0
 27 28  1  0  0  0  0
 28 29  1  6  0  0  0
 28 30  1  0  0  0  0
 30 31  1  0  0  0  0
 32 30  2  0  0  0  0
 33 34  1  0  0  0  0
M  END
>  <MODEL>
1

>  <REMARK>
 VINA RESULT:      -7.5      0.000      0.000
  Name = 
  8 active torsions:
  status: ('A' for Active; 'I' for Inactive)
    1  A    between atoms: C_1  and  N_9
    2  A    between atoms: N_3  and  C_25
    3  A    between atoms: C_7  and  C_11
    4  A    between atoms: C_7  and  C_14
    5  A    between atoms: C_8  and  N_9
    6  A    between atoms: C_8  and  C_30
    7  A    between atoms: C_14  and  C_16
    8  A    between atoms: C_14  and  C_29
                            x       y       z     vdW  Elec       q    Type
                         _______ _______ _______ _____ _____    ______ ____

>  <TORSDO>
F 8

$$$$
=
 OpenBabel11052420213D

 34 37  0  0  1  0  0  0  0  0999 V2000
  194.1590  173.9370  144.6860 C   0  0  1  0  0  3  0  0  0  0  0  0
  197.1960  171.9030  145.2650 C   0  0  0  0  0  3  0  0  0  0  0  0
  196.9520  174.0030  144.2770 N   0  0  0  0  0  0  0  0  0  0  0  0
  194.0170  176.3200  143.2510 S   0  0  0  0  0  0  0  0  0  0  0  0
  195.4550  176.0720  141.0550 O   0  0  0  0  0  0  0  0  0  0  0  0
  195.4910  176.3410  142.2430 C   0  0  0  0  0  0  0  0  0  0  0  0
  196.3050  175.1060  144.0840 C   0  0  0  0  0  0  0  0  0  0  0  0
  194.8660  175.2580  144.4880 C   0  0  2  0  0  3  0  0  0  0  0  0
  197.0230  176.4250  143.1290 S   0  0  0  0  0  0  0  0  0  0  0  0
  196.9790  170.6000  145.8960 C   0  0  0  0  0  2  0  0  0  0  0  0
  195.8520  169.9560  146.1730 C   0  0  0  0  0  0  0  0  0  0  0  0
  194.5020  170.4390  145.8680 C   0  0  0  0  0  3  0  0  0  0  0  0
  196.3490  172.8550  144.8810 C   0  0  0  0  0  0  0  0  0  0  0  0
  194.1010  171.6100  145.3890 C   0  0  0  0  0  3  0  0  0  0  0  0
  194.8600  172.8110  144.9940 C   0  0  0  0  0  0  0  0  0  0  0  0
  195.9800  168.6750  146.7900 N   0  0  0  0  0  2  0  0  0  0  0  0
  195.5580  168.4540  148.0580 O   0  0  0  0  0  1  0  0  0  0  0  0
  192.7220  173.9850  144.7350 N   0  0  0  0  0  2  0  0  0  0  0  0
  191.9480  174.5470  145.8370 C   0  0  0  0  0  2  0  0  0  0  0  0
  188.5150  175.8640  146.3220 C   0  0  0  0  0  2  0  0  0  0  0  0
  190.1620  177.2430  144.9660 C   0  0  0  0  0  2  0  0  0  0  0  0
  188.8360  177.2540  145.7460 C   0  0  1  0  0  3  0  0  0  0  0  0
  189.9150  173.4870  144.8760 C   0  0  0  0  0  1  0  0  0  0  0  0
  190.4270  175.8710  144.3530 C   0  0  0  0  0  2  0  0  0  0  0  0
  190.4930  174.7770  145.4390 C   0  0  2  0  0  0  0  0  0  0  0  0
  189.7460  175.1460  146.6550 N   0  0  0  0  0  2  0  0  0  0  0  0
  187.6690  177.7690  144.8830 C   0  0  1  0  0  3  0  0  0  0  0  0
  187.6410  177.0870  143.5040 C   0  0  1  0  0  3  0  0  0  0  0  0
  186.4830  176.1100  143.3370 C   0  0  0  0  0  1  0  0  0  0  0  0
  187.6890  178.0820  142.3880 C   0  0  0  0  0  0  0  0  0  0  0  0
  188.9010  178.3570  141.7680 O   0  0  0  0  0  0  0  0  0  0  0  0
  186.6500  178.6950  142.0250 O   0  0  0  0  0  1  0  0  0  0  0  0
  185.5950  178.9540  145.6000 C   0  0  0  0  0  1  0  0  0  0  0  0
  186.3260  177.6260  145.6010 C   0  0  0  0  0  2  0  0  0  0  0  0
  1 18  1  1  0  0  0
  1 15  1  0  0  0  0
  2 10  1  0  0  0  0
  3 13  1  0  0  0  0
  5  6  2  0  0  0  0
  6  9  1  0  0  0  0
  6  4  1  0  0  0  0
  7  3  2  0  0  0  0
  7  8  1  0  0  0  0
  8  4  1  6  0  0  0
  8  1  1  0  0  0  0
  9  7  1  0  0  0  0
 10 11  1  0  0  0  0
 11 16  1  0  0  0  0
 12 11  2  0  0  0  0
 13 15  1  0  0  0  0
 13  2  2  0  0  0  0
 14 12  1  0  0  0  0
 15 14  2  0  0  0  0
 16 17  1  0  0  0  0
 18 19  1  0  0  0  0
 20 26  1  0  0  0  0
 21 22  1  0  0  0  0
 22 27  1  6  0  0  0
 22 20  1  0  0  0  0
 24 21  1  0  0  0  0
 24 25  1  0  0  0  0
 25 23  1  6  0  0  0
 25 19  1  0  0  0  0
 25 26  1  0  0  0  0
 27 34  1  1  0  0  0
 28 29  1  6  0  0  0
 28 27  1  0  0  0  0
 30 28  1  0  0  0  0
 31 30  2  0  0  0  0
 32 30  1  0  0  0  0
 33 34  1  0  0  0  0
M  END
>  <MODEL>
2

>  <REMARK>
 VINA RESULT:      -7.3      1.573      2.150
  Name = 
  8 active torsions:
  status: ('A' for Active; 'I' for Inactive)
    1  A    between atoms: C_1  and  N_9
    2  A    between atoms: N_3  and  C_25
    3  A    between atoms: C_7  and  C_11
    4  A    between atoms: C_7  and  C_14
    5  A    between atoms: C_8  and  N_9
    6  A    between atoms: C_8  and  C_30
    7  A    between atoms: C_14  and  C_16
    8  A    between atoms: C_14  and  C_29
                            x       y       z     vdW  Elec       q    Type
                         _______ _______ _______ _____ _____    ______ ____

>  <TORSDO>
F 8

$$$$
=
 OpenBabel11052420213D

 34 37  0  0  1  0  0  0  0  0999 V2000
  187.8570  176.4700  144.7120 C   0  0  1  0  0  3  0  0  0  0  0  0
  187.1110  176.6970  141.0950 C   0  0  0  0  0  3  0  0  0  0  0  0
  186.3450  177.9930  142.8770 N   0  0  0  0  0  0  0  0  0  0  0  0
  186.6450  177.9420  146.7430 S   0  0  0  0  0  0  0  0  0  0  0  0
  184.0500  178.0330  146.2890 O   0  0  0  0  0  0  0  0  0  0  0  0
  185.1240  178.5480  146.0310 C   0  0  0  0  0  0  0  0  0  0  0  0
  186.4520  178.4590  144.0790 C   0  0  0  0  0  0  0  0  0  0  0  0
  187.4090  177.8680  145.0730 C   0  0  2  0  0  3  0  0  0  0  0  0
  185.3090  179.6830  144.6830 S   0  0  0  0  0  0  0  0  0  0  0  0
  187.7540  175.6910  140.2470 C   0  0  0  0  0  3  0  0  0  0  0  0
  188.4550  174.6130  140.5750 C   0  0  0  0  0  0  0  0  0  0  0  0
  188.7370  174.1670  141.9430 C   0  0  0  0  0  3  0  0  0  0  0  0
  187.1230  176.8870  142.4120 C   0  0  1  0  0  3  0  0  0  0  0  0
  188.4830  174.7570  143.1040 C   0  0  0  0  0  3  0  0  0  0  0  0
  187.8330  176.0430  143.4200 C   0  0  0  0  0  0  0  0  0  0  0  0
  188.9450  173.8140  139.4980 N   0  0  0  0  0  2  0  0  0  0  0  0
  188.1860  173.5530  138.4070 O   0  0  0  0  0  1  0  0  0  0  0  0
  188.4890  175.7140  145.7600 N   0  0  0  0  0  2  0  0  0  0  0  0
  189.5310  176.2280  146.6420 C   0  0  0  0  0  2  0  0  0  0  0  0
  191.8260  173.9420  144.8340 C   0  0  0  0  0  2  0  0  0  0  0  0
  191.5550  176.3170  143.9750 C   0  0  0  0  0  2  0  0  0  0  0  0
  192.0270  174.8920  143.6410 C   0  0  1  0  0  3  0  0  0  0  0  0
  191.6430  175.3430  147.6110 C   0  0  0  0  0  1  0  0  0  0  0  0
  191.7070  176.6110  145.4650 C   0  0  0  0  0  2  0  0  0  0  0  0
  190.8920  175.6170  146.3170 C   0  0  2  0  0  0  0  0  0  0  0  0
  190.6560  174.3400  145.6190 N   0  0  0  0  0  2  0  0  0  0  0  0
  193.4920  174.8700  143.1690 C   0  0  1  0  0  3  0  0  0  0  0  0
  194.4350  174.3570  144.2720 C   0  0  1  0  0  3  0  0  0  0  0  0
  195.3750  173.2550  143.7990 C   0  0  0  0  0  1  0  0  0  0  0  0
  195.1800  175.4730  144.9330 C   0  0  0  0  0  0  0  0  0  0  0  0
  196.0740  176.2320  144.1900 O   0  0  0  0  0  0  0  0  0  0  0  0
  195.0280  175.7130  146.1610 O   0  0  0  0  0  1  0  0  0  0  0  0
  192.4330  174.2280  141.0030 C   0  0  0  0  0  1  0  0  0  0  0  0
  193.6610  174.0670  141.8770 C   0  0  0  0  0  2  0  0  0  0  0  0
  1  8  1  0  0  0  0
  1 18  1  6  0  0  0
  3  7  2  0  0  0  0
  6  5  2  0  0  0  0
  6  4  1  0  0  0  0
  7  9  1  0  0  0  0
  8  7  1  6  0  0  0
  8  4  1  0  0  0  0
  9  6  1  0  0  0  0
 10 11  1  0  0  0  0
 10  2  2  0  0  0  0
 11 12  2  0  0  0  0
 12 14  1  0  0  0  0
 13  2  1  1  0  0  0
 13  3  1  0  0  0  0
 13 15  1  0  0  0  0
 14 15  2  0  0  0  0
 15  1  1  0  0  0  0
 16 11  1  0  0  0  0
 17 16  1  0  0  0  0
 18 19  1  0  0  0  0
 20 26  1  0  0  0  0
 21 24  1  0  0  0  0
 22 27  1  1  0  0  0
 22 21  1  0  0  0  0
 22 20  1  0  0  0  0
 24 25  1  0  0  0  0
 25 19  1  0  0  0  0
 25 23  1  1  0  0  0
 26 25  1  0  0  0  0
 27 34  1  6  0  0  0
 27 28  1  0  0  0  0
 28 29  1  6  0  0  0
 28 30  1  0  0  0  0
 30 32  1  0  0  0  0
 31 30  2  0  0  0  0
 33 34  1  0  0  0  0
M  END
>  <MODEL>
3

>  <REMARK>
 VINA RESULT:      -7.3      3.630      8.656
  Name = 
  8 active torsions:
  status: ('A' for Active; 'I' for Inactive)
    1  A    between atoms: C_1  and  N_9
    2  A    between atoms: N_3  and  C_25
    3  A    between atoms: C_7  and  C_11
    4  A    between atoms: C_7  and  C_14
    5  A    between atoms: C_8  and  N_9
    6  A    between atoms: C_8  and  C_30
    7  A    between atoms: C_14  and  C_16
    8  A    between atoms: C_14  and  C_29
                            x       y       z     vdW  Elec       q    Type
                         _______ _______ _______ _____ _____    ______ ____

>  <TORSDO>
F 8

$$$$
=
 OpenBabel11052420213D

 34 37  0  0  1  0  0  0  0  0999 V2000
  192.5650  174.7810  144.6860 C   0  0  1  0  0  3  0  0  0  0  0  0
  191.9780  172.2600  142.0410 C   0  0  0  0  0  3  0  0  0  0  0  0
  193.8340  172.6030  143.4140 N   0  0  0  0  0  0  0  0  0  0  0  0
  194.9530  175.2130  146.0540 S   0  0  0  0  0  0  0  0  0  0  0  0
  196.9440  175.1330  144.3280 O   0  0  0  0  0  0  0  0  0  0  0  0
  196.2120  174.4620  145.0360 C   0  0  0  0  0  0  0  0  0  0  0  0
  194.3910  173.0600  144.4870 C   0  0  0  0  0  0  0  0  0  0  0  0
  193.6980  174.0540  145.3740 C   0  0  2  0  0  3  0  0  0  0  0  0
  196.0970  172.7030  144.8480 S   0  0  0  0  0  0  0  0  0  0  0  0
  190.6910  172.3500  141.3490 C   0  0  0  0  0  3  0  0  0  0  0  0
  189.7450  173.2790  141.4130 C   0  0  0  0  0  0  0  0  0  0  0  0
  189.8030  174.4950  142.2300 C   0  0  0  0  0  3  0  0  0  0  0  0
  192.5280  173.0090  142.9950 C   0  0  1  0  0  3  0  0  0  0  0  0
  190.6960  174.8750  143.1340 C   0  0  0  0  0  3  0  0  0  0  0  0
  191.9260  174.2230  143.6210 C   0  0  0  0  0  0  0  0  0  0  0  0
  188.5950  173.0800  140.5910 N   0  0  0  0  0  2  0  0  0  0  0  0
  188.6730  172.4240  139.4080 O   0  0  0  0  0  1  0  0  0  0  0  0
  192.0810  175.9680  145.3380 N   0  0  0  0  0  2  0  0  0  0  0  0
  191.4110  175.9870  146.6350 C   0  0  0  0  0  2  0  0  0  0  0  0
  188.7380  177.9330  144.9540 C   0  0  0  0  0  2  0  0  0  0  0  0
  188.3060  175.4870  145.4860 C   0  0  0  0  0  2  0  0  0  0  0  0
  187.8640  176.7030  144.6540 C   0  0  1  0  0  3  0  0  0  0  0  0
  190.1930  177.8700  147.7080 C   0  0  0  0  0  1  0  0  0  0  0  0
  188.9150  175.9240  146.8160 C   0  0  0  0  0  2  0  0  0  0  0  0
  190.1410  176.8340  146.5960 C   0  0  2  0  0  0  0  0  0  0  0  0
  190.1020  177.5270  145.2950 N   0  0  0  0  0  2  0  0  0  0  0  0
  186.3740  177.0290  144.8640 C   0  0  1  0  0  3  0  0  0  0  0  0
  186.1860  178.3640  145.6080 C   0  0  1  0  0  3  0  0  0  0  0  0
  185.4700  179.4220  144.7770 C   0  0  0  0  0  1  0  0  0  0  0  0
  185.5340  178.1730  146.9400 C   0  0  0  0  0  0  0  0  0  0  0  0
  184.1590  178.3270  147.0570 O   0  0  0  0  0  0  0  0  0  0  0  0
  186.2200  177.9030  147.9620 O   0  0  0  0  0  1  0  0  0  0  0  0
  186.4660  176.4470  142.4400 C   0  0  0  0  0  1  0  0  0  0  0  0
  185.5970  177.0140  143.5460 C   0  0  0  0  0  2  0  0  0  0  0  0
  1 18  1  1  0  0  0
  1  8  1  0  0  0  0
  3  7  2  0  0  0  0
  5  6  2  0  0  0  0
  6  4  1  0  0  0  0
  7  9  1  0  0  0  0
  8  7  1  6  0  0  0
  8  4  1  0  0  0  0
  9  6  1  0  0  0  0
 10 11  1  0  0  0  0
 10  2  2  0  0  0  0
 11 12  2  0  0  0  0
 12 14  1  0  0  0  0
 13  2  1  6  0  0  0
 13  3  1  0  0  0  0
 13 15  1  0  0  0  0
 14 15  2  0  0  0  0
 15  1  1  0  0  0  0
 16 11  1  0  0  0  0
 17 16  1  0  0  0  0
 18 19  1  0  0  0  0
 20 26  1  0  0  0  0
 21 24  1  0  0  0  0
 22 27  1  1  0  0  0
 22 20  1  0  0  0  0
 22 21  1  0  0  0  0
 25 19  1  0  0  0  0
 25 24  1  0  0  0  0
 25 23  1  1  0  0  0
 26 25  1  0  0  0  0
 27 34  1  6  0  0  0
 27 28  1  0  0  0  0
 28 29  1  6  0  0  0
 28 30  1  0  0  0  0
 30 31  2  0  0  0  0
 30 32  1  0  0  0  0
 33 34  1  0  0  0  0
M  END
>  <MODEL>
4

>  <REMARK>
 VINA RESULT:      -7.3      2.715      4.515
  Name = 
  8 active torsions:
  status: ('A' for Active; 'I' for Inactive)
    1  A    between atoms: C_1  and  N_9
    2  A    between atoms: N_3  and  C_25
    3  A    between atoms: C_7  and  C_11
    4  A    between atoms: C_7  and  C_14
    5  A    between atoms: C_8  and  N_9
    6  A    between atoms: C_8  and  C_30
    7  A    between atoms: C_14  and  C_16
    8  A    between atoms: C_14  and  C_29
                            x       y       z     vdW  Elec       q    Type
                         _______ _______ _______ _____ _____    ______ ____

>  <TORSDO>
F 8

$$$$
=
 OpenBabel11052420213D

 34 37  0  0  1  0  0  0  0  0999 V2000
  189.5360  174.1760  141.2490 C   0  0  1  0  0  3  0  0  0  0  0  0
  192.5990  173.3050  143.1350 C   0  0  0  0  0  3  0  0  0  0  0  0
  191.9620  172.7600  140.9570 N   0  0  0  0  0  0  0  0  0  0  0  0
  188.8190  173.2180  138.7330 S   0  0  0  0  0  0  0  0  0  0  0  0
  189.3170  170.6310  138.6370 O   0  0  0  0  0  0  0  0  0  0  0  0
  189.7980  171.7440  138.5030 C   0  0  0  0  0  0  0  0  0  0  0  0
  191.2720  172.9690  139.8830 C   0  0  0  0  0  0  0  0  0  0  0  0
  190.0920  173.8980  139.8710 C   0  0  2  0  0  3  0  0  0  0  0  0
  191.5510  171.9930  138.4210 S   0  0  0  0  0  0  0  0  0  0  0  0
  192.6600  173.7980  144.5120 C   0  0  0  0  0  2  0  0  0  0  0  0
  191.7340  174.3910  145.2550 C   0  0  0  0  0  0  0  0  0  0  0  0
  190.3610  174.6810  144.8280 C   0  0  0  0  0  3  0  0  0  0  0  0
  191.6530  173.3930  142.2020 C   0  0  0  0  0  0  0  0  0  0  0  0
  189.7890  174.5420  143.6390 C   0  0  0  0  0  3  0  0  0  0  0  0
  190.3210  174.0500  142.3540 C   0  0  0  0  0  0  0  0  0  0  0  0
  192.1080  174.7450  146.5860 N   0  0  0  0  0  2  0  0  0  0  0  0
  192.8260  175.8630  146.8480 O   0  0  0  0  0  1  0  0  0  0  0  0
  188.2250  174.7660  141.2990 N   0  0  0  0  0  2  0  0  0  0  0  0
  187.9070  176.1180  140.8530 C   0  0  0  0  0  2  0  0  0  0  0  0
  185.9450  176.4160  143.9860 C   0  0  0  0  0  2  0  0  0  0  0  0
  188.2480  177.4820  143.8920 C   0  0  0  0  0  2  0  0  0  0  0  0
  187.1130  176.9910  144.8060 C   0  0  1  0  0  3  0  0  0  0  0  0
  185.7930  177.4130  141.0390 C   0  0  0  0  0  1  0  0  0  0  0  0
  187.7050  177.9520  142.5450 C   0  0  0  0  0  2  0  0  0  0  0  0
  186.9540  176.8160  141.8190 C   0  0  2  0  0  0  0  0  0  0  0  0
  186.4340  175.8000  142.7520 N   0  0  0  0  0  2  0  0  0  0  0  0
  186.6190  178.1000  145.7530 C   0  0  1  0  0  3  0  0  0  0  0  0
  185.0970  178.3000  145.6460 C   0  0  1  0  0  3  0  0  0  0  0  0
  184.4420  178.6660  146.9720 C   0  0  0  0  0  1  0  0  0  0  0  0
  184.7360  179.2690  144.5650 C   0  0  0  0  0  0  0  0  0  0  0  0
  183.5490  179.1020  143.8650 O   0  0  0  0  0  0  0  0  0  0  0  0
  185.5100  180.2170  144.2630 O   0  0  0  0  0  1  0  0  0  0  0  0
  187.5460  176.4190  147.3470 C   0  0  0  0  0  1  0  0  0  0  0  0
  187.0450  177.8430  147.2000 C   0  0  0  0  0  2  0  0  0  0  0  0
  1 18  1  6  0  0  0
  1 15  1  0  0  0  0
  2 10  1  0  0  0  0
  3 13  1  0  0  0  0
  6  5  2  0  0  0  0
  6  4  1  0  0  0  0
  7  3  2  0  0  0  0
  8  4  1  6  0  0  0
  8  7  1  0  0  0  0
  8  1  1  0  0  0  0
  9  6  1  0  0  0  0
  9  7  1  0  0  0  0
 10 11  1  0  0  0  0
 11 16  1  0  0  0  0
 12 11  2  0  0  0  0
 13 15  1  0  0  0  0
 13  2  2  0  0  0  0
 14 12  1  0  0  0  0
 15 14  2  0  0  0  0
 16 17  1  0  0  0  0
 19 18  1  0  0  0  0
 19 25  1  0  0  0  0
 20 22  1  0  0  0  0
 21 22  1  0  0  0  0
 22 27  1  6  0  0  0
 24 21  1  0  0  0  0
 25 23  1  6  0  0  0
 25 24  1  0  0  0  0
 25 26  1  0  0  0  0
 26 20  1  0  0  0  0
 27 34  1  1  0  0  0
 28 27  1  0  0  0  0
 28 29  1  1  0  0  0
 30 28  1  0  0  0  0
 31 30  2  0  0  0  0
 32 30  1  0  0  0  0
 34 33  1  0  0  0  0
M  END
>  <MODEL>
5

>  <REMARK>
 VINA RESULT:      -7.2      3.782      5.311
  Name = 
  8 active torsions:
  status: ('A' for Active; 'I' for Inactive)
    1  A    between atoms: C_1  and  N_9
    2  A    between atoms: N_3  and  C_25
    3  A    between atoms: C_7  and  C_11
    4  A    between atoms: C_7  and  C_14
    5  A    between atoms: C_8  and  N_9
    6  A    between atoms: C_8  and  C_30
    7  A    between atoms: C_14  and  C_16
    8  A    between atoms: C_14  and  C_29
                            x       y       z     vdW  Elec       q    Type
                         _______ _______ _______ _____ _____    ______ ____

>  <TORSDO>
F 8

$$$$
=
 OpenBabel11052420213D

 34 37  0  0  1  0  0  0  0  0999 V2000
  192.9910  174.8980  143.4350 C   0  0  1  0  0  3  0  0  0  0  0  0
  193.2510  172.5130  140.6170 C   0  0  0  0  0  3  0  0  0  0  0  0
  194.9090  173.4110  141.9920 N   0  0  0  0  0  0  0  0  0  0  0  0
  195.1120  176.0710  144.8060 S   0  0  0  0  0  0  0  0  0  0  0  0
  196.9360  176.8260  143.0580 O   0  0  0  0  0  0  0  0  0  0  0  0
  196.5190  175.8920  143.7220 C   0  0  0  0  0  0  0  0  0  0  0  0
  195.3030  173.9680  143.0910 C   0  0  0  0  0  0  0  0  0  0  0  0
  194.3330  174.5850  144.0560 C   0  0  2  0  0  3  0  0  0  0  0  0
  197.0360  174.2260  143.4060 S   0  0  0  0  0  0  0  0  0  0  0  0
  191.9930  172.1780  139.9470 C   0  0  0  0  0  3  0  0  0  0  0  0
  190.7800  172.6970  140.0890 C   0  0  0  0  0  0  0  0  0  0  0  0
  190.4270  173.7970  140.9920 C   0  0  0  0  0  3  0  0  0  0  0  0
  193.5300  173.3460  141.6180 C   0  0  1  0  0  3  0  0  0  0  0  0
  191.1570  174.4140  141.9130 C   0  0  0  0  0  3  0  0  0  0  0  0
  192.5560  174.2190  142.3380 C   0  0  0  0  0  0  0  0  0  0  0  0
  189.7480  172.1520  139.2660 N   0  0  0  0  0  2  0  0  0  0  0  0
  188.4470  172.4800  139.4500 O   0  0  0  0  0  1  0  0  0  0  0  0
  192.1370  175.7860  144.1770 N   0  0  0  0  0  2  0  0  0  0  0  0
  191.5760  175.4910  145.4920 C   0  0  0  0  0  2  0  0  0  0  0  0
  188.1470  176.2470  146.6850 C   0  0  0  0  0  2  0  0  0  0  0  0
  189.1360  177.6910  144.8450 C   0  0  0  0  0  2  0  0  0  0  0  0
  188.0440  177.5790  145.9220 C   0  0  1  0  0  3  0  0  0  0  0  0
  189.6350  173.9730  145.1630 C   0  0  0  0  0  1  0  0  0  0  0  0
  189.5270  176.3150  144.3130 C   0  0  0  0  0  2  0  0  0  0  0  0
  190.0530  175.4080  145.4450 C   0  0  2  0  0  0  0  0  0  0  0  0
  189.5390  175.8060  146.7690 N   0  0  0  0  0  2  0  0  0  0  0  0
  186.6340  177.7610  145.3300 C   0  0  1  0  0  3  0  0  0  0  0  0
  186.6440  177.6350  143.7970 C   0  0  1  0  0  3  0  0  0  0  0  0
  186.1490  176.2820  143.2990 C   0  0  0  0  0  1  0  0  0  0  0  0
  185.9170  178.7650  143.1390 C   0  0  0  0  0  0  0  0  0  0  0  0
  185.5670  179.8810  143.8880 O   0  0  0  0  0  1  0  0  0  0  0  0
  185.5940  178.7040  141.9230 O   0  0  0  0  0  0  0  0  0  0  0  0
  184.4520  177.5760  146.5250 C   0  0  0  0  0  1  0  0  0  0  0  0
  185.6250  176.7990  145.9600 C   0  0  0  0  0  2  0  0  0  0  0  0
  1  8  1  0  0  0  0
  1 18  1  1  0  0  0
  3  7  2  0  0  0  0
  5  6  2  0  0  0  0
  6  4  1  0  0  0  0
  7  9  1  0  0  0  0
  8  7  1  6  0  0  0
  8  4  1  0  0  0  0
  9  6  1  0  0  0  0
 10 11  1  0  0  0  0
 10  2  2  0  0  0  0
 11 12  2  0  0  0  0
 12 14  1  0  0  0  0
 13  2  1  6  0  0  0
 13  3  1  0  0  0  0
 13 15  1  0  0  0  0
 14 15  2  0  0  0  0
 15  1  1  0  0  0  0
 16 17  1  0  0  0  0
 16 11  1  0  0  0  0
 18 19  1  0  0  0  0
 20 26  1  0  0  0  0
 21 22  1  0  0  0  0
 22 27  1  6  0  0  0
 22 20  1  0  0  0  0
 24 21  1  0  0  0  0
 24 25  1  0  0  0  0
 25 23  1  6  0  0  0
 25 19  1  0  0  0  0
 25 26  1  0  0  0  0
 27 34  1  1  0  0  0
 28 29  1  1  0  0  0
 28 27  1  0  0  0  0
 30 28  1  0  0  0  0
 30 31  1  0  0  0  0
 32 30  2  0  0  0  0
 34 33  1  0  0  0  0
M  END
>  <MODEL>
6

>  <REMARK>
 VINA RESULT:      -7.2      3.007      4.438
  Name = 
  8 active torsions:
  status: ('A' for Active; 'I' for Inactive)
    1  A    between atoms: C_1  and  N_9
    2  A    between atoms: N_3  and  C_25
    3  A    between atoms: C_7  and  C_11
    4  A    between atoms: C_7  and  C_14
    5  A    between atoms: C_8  and  N_9
    6  A    between atoms: C_8  and  C_30
    7  A    between atoms: C_14  and  C_16
    8  A    between atoms: C_14  and  C_29
                            x       y       z     vdW  Elec       q    Type
                         _______ _______ _______ _____ _____    ______ ____

>  <TORSDO>
F 8

$$$$
=
 OpenBabel11052420213D

 34 37  0  0  1  0  0  0  0  0999 V2000
  188.0700  176.7740  143.9430 C   0  0  1  0  0  3  0  0  0  0  0  0
  189.5830  177.1110  147.3030 C   0  0  0  0  0  3  0  0  0  0  0  0
  187.4100  177.5540  146.5750 N   0  0  0  0  0  0  0  0  0  0  0  0
  185.5180  177.5990  143.1910 S   0  0  0  0  0  0  0  0  0  0  0  0
  185.0550  179.9770  144.2310 O   0  0  0  0  0  0  0  0  0  0  0  0
  185.0260  178.7760  144.4400 C   0  0  0  0  0  0  0  0  0  0  0  0
  186.4300  177.3970  145.7470 C   0  0  0  0  0  0  0  0  0  0  0  0
  186.6290  176.7690  144.3980 C   0  0  2  0  0  3  0  0  0  0  0  0
  184.8380  178.1220  146.0770 S   0  0  0  0  0  0  0  0  0  0  0  0
  191.0020  176.7670  147.4010 C   0  0  0  0  0  2  0  0  0  0  0  0
  191.8850  176.4840  146.4510 C   0  0  0  0  0  0  0  0  0  0  0  0
  191.6080  176.4750  145.0100 C   0  0  0  0  0  3  0  0  0  0  0  0
  188.7460  177.1450  146.2680 C   0  0  0  0  0  0  0  0  0  0  0  0
  190.4600  176.6150  144.3600 C   0  0  0  0  0  3  0  0  0  0  0  0
  189.0860  176.8330  144.8480 C   0  0  0  0  0  0  0  0  0  0  0  0
  193.2170  176.1970  146.8760 N   0  0  0  0  0  2  0  0  0  0  0  0
  194.2830  176.4240  146.0720 O   0  0  0  0  0  1  0  0  0  0  0  0
  188.2990  176.5100  142.5470 N   0  0  0  0  0  2  0  0  0  0  0  0
  187.7180  175.3950  141.8080 C   0  0  0  0  0  2  0  0  0  0  0  0
  191.1250  173.9300  141.8590 C   0  0  0  0  0  2  0  0  0  0  0  0
  189.4480  173.1590  143.6040 C   0  0  0  0  0  2  0  0  0  0  0  0
  190.9340  173.2270  143.2140 C   0  0  1  0  0  3  0  0  0  0  0  0
  188.6150  173.9270  140.0130 C   0  0  0  0  0  1  0  0  0  0  0  0
  188.5570  173.1030  142.3660 C   0  0  0  0  0  2  0  0  0  0  0  0
  188.7680  174.3400  141.4690 C   0  0  2  0  0  0  0  0  0  0  0  0
  190.0960  174.9520  141.6570 N   0  0  0  0  0  2  0  0  0  0  0  0
  191.5870  171.8330  143.2010 C   0  0  1  0  0  3  0  0  0  0  0  0
  192.0160  171.4220  141.7810 C   0  0  1  0  0  3  0  0  0  0  0  0
  193.4530  170.9210  141.7060 C   0  0  0  0  0  1  0  0  0  0  0  0
  191.0590  170.4490  141.1680 C   0  0  0  0  0  0  0  0  0  0  0  0
  190.4050  170.7830  139.9910 O   0  0  0  0  0  0  0  0  0  0  0  0
  190.8180  169.3440  141.7240 O   0  0  0  0  0  1  0  0  0  0  0  0
  192.8590  173.0270  144.9840 C   0  0  0  0  0  1  0  0  0  0  0  0
  192.7580  171.7440  144.1820 C   0  0  0  0  0  2  0  0  0  0  0  0
  1 18  1  1  0  0  0
  1  8  1  0  0  0  0
  1 15  1  0  0  0  0
  2 10  1  0  0  0  0
  4  6  1  0  0  0  0
  5  6  2  0  0  0  0
  6  9  1  0  0  0  0
  7  9  1  0  0  0  0
  7  3  2  0  0  0  0
  8  4  1  6  0  0  0
  8  7  1  0  0  0  0
 11 16  1  0  0  0  0
 11 10  1  0  0  0  0
 12 11  2  0  0  0  0
 13  3  1  0  0  0  0
 13  2  2  0  0  0  0
 14 15  2  0  0  0  0
 14 12  1  0  0  0  0
 15 13  1  0  0  0  0
 17 16  1  0  0  0  0
 19 18  1  0  0  0  0
 20 22  1  0  0  0  0
 22 27  1  6  0  0  0
 22 21  1  0  0  0  0
 24 21  1  0  0  0  0
 25 23  1  6  0  0  0
 25 26  1  0  0  0  0
 25 19  1  0  0  0  0
 25 24  1  0  0  0  0
 26 20  1  0  0  0  0
 27 34  1  1  0  0  0
 28 29  1  1  0  0  0
 28 27  1  0  0  0  0
 30 32  1  0  0  0  0
 30 28  1  0  0  0  0
 31 30  2  0  0  0  0
 34 33  1  0  0  0  0
M  END
>  <MODEL>
7

>  <REMARK>
 VINA RESULT:      -7.1      4.066      8.286
  Name = 
  8 active torsions:
  status: ('A' for Active; 'I' for Inactive)
    1  A    between atoms: C_1  and  N_9
    2  A    between atoms: N_3  and  C_25
    3  A    between atoms: C_7  and  C_11
    4  A    between atoms: C_7  and  C_14
    5  A    between atoms: C_8  and  N_9
    6  A    between atoms: C_8  and  C_30
    7  A    between atoms: C_14  and  C_16
    8  A    between atoms: C_14  and  C_29
                            x       y       z     vdW  Elec       q    Type
                         _______ _______ _______ _____ _____    ______ ____

>  <TORSDO>
F 8

$$$$
=
 OpenBabel11052420213D

 34 37  0  0  1  0  0  0  0  0999 V2000
  193.3140  174.3280  143.9030 C   0  0  1  0  0  3  0  0  0  0  0  0
  194.1270  171.1100  142.2650 C   0  0  0  0  0  3  0  0  0  0  0  0
  195.5320  172.7980  143.0560 N   0  0  0  0  0  0  0  0  0  0  0  0
  195.1150  176.3520  144.5500 S   0  0  0  0  0  0  0  0  0  0  0  0
  196.7810  176.6810  142.5340 O   0  0  0  0  0  0  0  0  0  0  0  0
  196.5520  176.0330  143.5410 C   0  0  0  0  0  0  0  0  0  0  0  0
  195.7770  173.8180  143.8120 C   0  0  0  0  0  0  0  0  0  0  0  0
  194.6780  174.5670  144.5090 C   0  0  2  0  0  3  0  0  0  0  0  0
  197.4110  174.5210  143.8860 S   0  0  0  0  0  0  0  0  0  0  0  0
  192.9820  170.2900  141.8670 C   0  0  0  0  0  3  0  0  0  0  0  0
  191.6840  170.5700  141.8670 C   0  0  0  0  0  0  0  0  0  0  0  0
  191.0910  171.8470  142.2750 C   0  0  0  0  0  3  0  0  0  0  0  0
  194.2050  172.3140  142.8290 C   0  0  1  0  0  3  0  0  0  0  0  0
  191.6560  172.9150  142.8230 C   0  0  0  0  0  3  0  0  0  0  0  0
  193.0550  173.1910  143.2000 C   0  0  0  0  0  0  0  0  0  0  0  0
  190.8070  169.5450  141.3990 N   0  0  0  0  0  2  0  0  0  0  0  0
  191.2440  168.5540  140.5860 O   0  0  0  0  0  1  0  0  0  0  0  0
  192.2780  175.2510  144.2810 N   0  0  0  0  0  2  0  0  0  0  0  0
  191.6980  175.3460  145.6160 C   0  0  0  0  0  2  0  0  0  0  0  0
  188.2950  176.5240  146.5050 C   0  0  0  0  0  2  0  0  0  0  0  0
  189.3540  177.3810  144.3610 C   0  0  0  0  0  2  0  0  0  0  0  0
  188.2520  177.6040  145.4110 C   0  0  1  0  0  3  0  0  0  0  0  0
  189.6990  173.8690  145.6740 C   0  0  0  0  0  1  0  0  0  0  0  0
  189.6910  175.8990  144.2260 C   0  0  0  0  0  2  0  0  0  0  0  0
  190.1730  175.3100  145.5680 C   0  0  2  0  0  0  0  0  0  0  0  0
  189.6680  176.0680  146.7280 N   0  0  0  0  0  2  0  0  0  0  0  0
  186.8550  177.6730  144.7690 C   0  0  1  0  0  3  0  0  0  0  0  0
  185.9780  178.7480  145.4350 C   0  0  1  0  0  3  0  0  0  0  0  0
  185.5500  179.8550  144.4790 C   0  0  0  0  0  1  0  0  0  0  0  0
  184.8060  178.1500  146.1470 C   0  0  0  0  0  0  0  0  0  0  0  0
  184.8110  176.7970  146.4550 O   0  0  0  0  0  1  0  0  0  0  0  0
  183.8030  178.8540  146.4440 O   0  0  0  0  0  0  0  0  0  0  0  0
  186.2130  176.7560  142.5390 C   0  0  0  0  0  1  0  0  0  0  0  0
  186.9340  177.8810  143.2550 C   0  0  0  0  0  2  0  0  0  0  0  0
  1 18  1  1  0  0  0
  1  8  1  0  0  0  0
  3  7  2  0  0  0  0
  5  6  2  0  0  0  0
  6  9  1  0  0  0  0
  6  4  1  0  0  0  0
  7  9  1  0  0  0  0
  8  7  1  6  0  0  0
  8  4  1  0  0  0  0
 10 11  1  0  0  0  0
 10  2  2  0  0  0  0
 11 12  2  0  0  0  0
 12 14  1  0  0  0  0
 13  2  1  6  0  0  0
 13  3  1  0  0  0  0
 13 15  1  0  0  0  0
 14 15  2  0  0  0  0
 15  1  1  0  0  0  0
 16 11  1  0  0  0  0
 17 16  1  0  0  0  0
 18 19  1  0  0  0  0
 20 26  1  0  0  0  0
 21 22  1  0  0  0  0
 22 27  1  6  0  0  0
 22 20  1  0  0  0  0
 24 21  1  0  0  0  0
 24 25  1  0  0  0  0
 25 19  1  0  0  0  0
 25 23  1  1  0  0  0
 25 26  1  0  0  0  0
 27 34  1  6  0  0  0
 27 28  1  0  0  0  0
 28 29  1  6  0  0  0
 28 30  1  0  0  0  0
 30 32  2  0  0  0  0
 30 31  1  0  0  0  0
 33 34  1  0  0  0  0
M  END
>  <MODEL>
8

>  <REMARK>
 VINA RESULT:      -7.0      2.528      3.085
  Name = 
  8 active torsions:
  status: ('A' for Active; 'I' for Inactive)
    1  A    between atoms: C_1  and  N_9
    2  A    between atoms: N_3  and  C_25
    3  A    between atoms: C_7  and  C_11
    4  A    between atoms: C_7  and  C_14
    5  A    between atoms: C_8  and  N_9
    6  A    between atoms: C_8  and  C_30
    7  A    between atoms: C_14  and  C_16
    8  A    between atoms: C_14  and  C_29
                            x       y       z     vdW  Elec       q    Type
                         _______ _______ _______ _____ _____    ______ ____

>  <TORSDO>
F 8

$$$$
=
 OpenBabel11052420213D

 34 37  0  0  1  0  0  0  0  0999 V2000
  188.2010  176.5690  144.9480 C   0  0  1  0  0  3  0  0  0  0  0  0
  187.3510  176.0230  141.3880 C   0  0  0  0  0  3  0  0  0  0  0  0
  186.3200  177.3620  142.9970 N   0  0  0  0  0  0  0  0  0  0  0  0
  186.6990  178.0060  146.8020 S   0  0  0  0  0  0  0  0  0  0  0  0
  184.1550  177.3880  146.4930 O   0  0  0  0  0  0  0  0  0  0  0  0
  185.0610  178.1010  146.0970 C   0  0  0  0  0  0  0  0  0  0  0  0
  186.3300  178.0260  144.1060 C   0  0  0  0  0  0  0  0  0  0  0  0
  187.4250  177.8540  145.1200 C   0  0  2  0  0  3  0  0  0  0  0  0
  184.9300  179.0150  144.5850 S   0  0  0  0  0  0  0  0  0  0  0  0
  188.2090  175.0810  140.6650 C   0  0  0  0  0  3  0  0  0  0  0  0
  189.1640  174.2740  141.1100 C   0  0  0  0  0  0  0  0  0  0  0  0
  189.5750  174.1360  142.5110 C   0  0  0  0  0  3  0  0  0  0  0  0
  187.3410  176.4190  142.6590 C   0  0  1  0  0  3  0  0  0  0  0  0
  189.2030  174.8250  143.5820 C   0  0  0  0  0  3  0  0  0  0  0  0
  188.2590  175.9470  143.7380 C   0  0  0  0  0  0  0  0  0  0  0  0
  189.8170  173.4570  140.1390 N   0  0  0  0  0  2  0  0  0  0  0  0
  189.7250  172.1060  140.1720 O   0  0  0  0  0  1  0  0  0  0  0  0
  189.0220  176.1670  146.0590 N   0  0  0  0  0  2  0  0  0  0  0  0
  189.9800  177.0340  146.7370 C   0  0  0  0  0  2  0  0  0  0  0  0
  192.4960  174.4210  145.9580 C   0  0  0  0  0  2  0  0  0  0  0  0
  192.3520  176.4560  144.4450 C   0  0  0  0  0  2  0  0  0  0  0  0
  192.8620  175.0120  144.5850 C   0  0  1  0  0  3  0  0  0  0  0  0
  191.9360  176.5260  148.1860 C   0  0  0  0  0  1  0  0  0  0  0  0
  192.2990  177.1550  145.8010 C   0  0  0  0  0  2  0  0  0  0  0  0
  191.3710  176.4060  146.7790 C   0  0  2  0  0  0  0  0  0  0  0  0
  191.2300  174.9780  146.4390 N   0  0  0  0  0  2  0  0  0  0  0  0
  194.3780  174.9130  144.3370 C   0  0  1  0  0  3  0  0  0  0  0  0
  194.8640  175.9980  143.3600 C   0  0  1  0  0  3  0  0  0  0  0  0
  196.0660  176.7800  143.8760 C   0  0  0  0  0  1  0  0  0  0  0  0
  195.1090  175.4480  141.9910 C   0  0  0  0  0  0  0  0  0  0  0  0
  194.9200  176.2620  140.8820 O   0  0  0  0  0  0  0  0  0  0  0  0
  195.4550  174.2470  141.8310 O   0  0  0  0  0  1  0  0  0  0  0  0
  196.0860  173.7410  145.7270 C   0  0  0  0  0  1  0  0  0  0  0  0
  195.1720  174.9480  145.6440 C   0  0  0  0  0  2  0  0  0  0  0  0
  1  8  1  0  0  0  0
  1 18  1  6  0  0  0
  3  7  2  0  0  0  0
  6  5  2  0  0  0  0
  6  4  1  0  0  0  0
  7  9  1  0  0  0  0
  8  7  1  6  0  0  0
  8  4  1  0  0  0  0
  9  6  1  0  0  0  0
 10 11  1  0  0  0  0
 10  2  2  0  0  0  0
 11 12  2  0  0  0  0
 12 14  1  0  0  0  0
 13  2  1  1  0  0  0
 13  3  1  0  0  0  0
 13 15  1  0  0  0  0
 14 15  2  0  0  0  0
 15  1  1  0  0  0  0
 16 17  1  0  0  0  0
 16 11  1  0  0  0  0
 18 19  1  0  0  0  0
 19 25  1  0  0  0  0
 20 26  1  0  0  0  0
 21 22  1  0  0  0  0
 21 24  1  0  0  0  0
 22 27  1  1  0  0  0
 22 20  1  0  0  0  0
 24 25  1  0  0  0  0
 25 23  1  1  0  0  0
 26 25  1  0  0  0  0
 27 34  1  1  0  0  0
 28 29  1  1  0  0  0
 28 27  1  0  0  0  0
 30 28  1  0  0  0  0
 31 30  2  0  0  0  0
 32 30  1  0  0  0  0
 34 33  1  0  0  0  0
M  END
>  <MODEL>
9

>  <REMARK>
 VINA RESULT:      -6.9      3.572      8.641
  Name = 
  8 active torsions:
  status: ('A' for Active; 'I' for Inactive)
    1  A    between atoms: C_1  and  N_9
    2  A    between atoms: N_3  and  C_25
    3  A    between atoms: C_7  and  C_11
    4  A    between atoms: C_7  and  C_14
    5  A    between atoms: C_8  and  N_9
    6  A    between atoms: C_8  and  C_30
    7  A    between atoms: C_14  and  C_16
    8  A    between atoms: C_14  and  C_29
                            x       y       z     vdW  Elec       q    Type
                         _______ _______ _______ _____ _____    ______ ____

>  <TORSDO>
F 8

$$$$
