=
 OpenBabel11052418033D

 28 31  0  0  1  0  0  0  0  0999 V2000
  192.7950  173.3050  144.2280 C   0  0  0  0  0  0  0  0  0  0  0  0
  194.1050  173.8240  143.9880 N   0  0  0  0  0  2  0  0  0  0  0  0
  189.9200  172.2380  144.1900 C   0  0  0  0  0  2  0  0  0  0  0  0
  189.4700  174.5470  143.2130 C   0  0  0  0  0  2  0  0  0  0  0  0
  191.6970  171.4940  142.5070 C   0  0  0  0  0  2  0  0  0  0  0  0
  191.7490  174.0470  143.9910 N   0  0  0  0  0  0  0  0  0  0  0  0
  192.5620  170.9720  143.4970 O   0  0  0  0  0  0  0  0  0  0  0  0
  189.7350  174.4720  145.3420 C   0  0  0  0  0  2  0  0  0  0  0  0
  190.2200  171.4550  142.9090 C   0  0  0  0  0  2  0  0  0  0  0  0
  188.8930  175.3130  144.3980 C   0  0  1  0  0  3  0  0  0  0  0  0
  192.6630  171.8540  144.6060 C   0  0  0  0  0  2  0  0  0  0  0  0
  190.3200  173.7240  144.1590 C   0  0  2  0  0  0  0  0  0  0  0  0
  194.3440  175.1600  143.4470 C   0  0  2  0  0  3  0  0  0  0  0  0
  196.7200  176.7230  142.8440 C   0  0  0  0  0  2  0  0  0  0  0  0
  194.9830  175.0290  142.0570 C   0  0  0  0  0  2  0  0  0  0  0  0
  195.1010  175.6040  145.7790 N   0  0  0  0  0  1  0  0  0  0  0  0
  195.2450  175.9960  144.3840 C   0  0  1  0  0  3  0  0  0  0  0  0
  196.5930  175.9020  143.9850 O   0  0  0  0  0  0  0  0  0  0  0  0
  195.8070  176.2630  141.6850 C   0  0  0  0  0  2  0  0  0  0  0  0
  189.4030  176.7220  144.4080 C   0  0  0  0  0  3  0  0  0  0  0  0
  188.7110  177.8000  144.7930 C   0  0  0  0  0  3  0  0  0  0  0  0
  185.5630  176.9220  146.8360 C   0  0  0  0  0  2  0  0  0  0  0  0
  187.3290  177.8380  145.3050 C   0  0  0  0  0  0  0  0  0  0  0  0
  184.9650  178.3510  144.9180 C   0  0  0  0  0  0  0  0  0  0  0  0
  186.9740  177.5190  146.7420 C   0  0  0  0  0  2  0  0  0  0  0  0
  186.3740  178.2910  144.4820 C   0  0  0  0  0  3  0  0  0  0  0  0
  184.0150  179.0730  144.1460 N   0  0  0  0  0  1  0  0  0  0  0  0
  184.5850  177.7510  146.0510 C   0  0  0  0  0  3  0  0  0  0  0  0
  1 11  1  0  0  0  0
  2  1  1  0  0  0  0
  4 10  1  0  0  0  0
  5  9  1  0  0  0  0
  5  7  1  0  0  0  0
  6 12  1  0  0  0  0
  6  1  2  0  0  0  0
  7 11  1  0  0  0  0
  9  3  1  0  0  0  0
 10 20  1  6  0  0  0
 10  8  1  0  0  0  0
 12  4  1  6  0  0  0
 12  3  1  0  0  0  0
 12  8  1  0  0  0  0
 13  2  1  1  0  0  0
 13 17  1  0  0  0  0
 14 18  1  0  0  0  0
 15 13  1  0  0  0  0
 17 16  1  1  0  0  0
 18 17  1  0  0  0  0
 19 15  1  0  0  0  0
 19 14  1  0  0  0  0
 20 21  2  0  0  0  0
 21 23  1  0  0  0  0
 23 25  1  0  0  0  0
 24 28  2  0  0  0  0
 25 22  1  0  0  0  0
 26 24  1  0  0  0  0
 26 23  2  0  0  0  0
 27 24  1  0  0  0  0
 28 22  1  0  0  0  0
M  END
>  <MODEL>
1

>  <REMARK>
 VINA RESULT:      -7.7      0.000      0.000
  Name = 
  3 active torsions:
  status: ('A' for Active; 'I' for Inactive)
    1  A    between atoms: N_2  and  C_3
    2  A    between atoms: C_9  and  C_18
    3  A    between atoms: C_14  and  C_25
                            x       y       z     vdW  Elec       q    Type
                         _______ _______ _______ _____ _____    ______ ____

>  <TORSDO>
F 3

$$$$
=
 OpenBabel11052418033D

 28 31  0  0  1  0  0  0  0  0999 V2000
  193.5640  174.2860  143.9670 C   0  0  0  0  0  0  0  0  0  0  0  0
  193.7290  172.8880  143.7160 N   0  0  0  0  0  2  0  0  0  0  0  0
  193.5100  177.1850  144.9660 C   0  0  0  0  0  2  0  0  0  0  0  0
  192.3480  176.0890  146.9500 C   0  0  0  0  0  2  0  0  0  0  0  0
  195.6310  175.7550  144.9760 C   0  0  0  0  0  2  0  0  0  0  0  0
  192.8780  174.6830  145.0020 N   0  0  0  0  0  0  0  0  0  0  0  0
  195.6280  175.5580  143.5750 O   0  0  0  0  0  0  0  0  0  0  0  0
  191.1270  176.4020  145.2130 C   0  0  0  0  0  2  0  0  0  0  0  0
  194.9710  177.0670  145.4070 C   0  0  0  0  0  2  0  0  0  0  0  0
  190.8800  176.4180  146.7110 C   0  0  1  0  0  3  0  0  0  0  0  0
  194.3220  175.2580  143.1030 C   0  0  0  0  0  2  0  0  0  0  0  0
  192.5840  176.0560  145.4540 C   0  0  2  0  0  0  0  0  0  0  0  0
  193.1870  171.8540  144.5940 C   0  0  2  0  0  3  0  0  0  0  0  0
  193.0400  168.9520  144.4820 C   0  0  0  0  0  2  0  0  0  0  0  0
  194.3480  171.0310  145.1700 C   0  0  0  0  0  2  0  0  0  0  0  0
  191.5210  171.6350  142.7550 N   0  0  0  0  0  1  0  0  0  0  0  0
  192.1920  170.9400  143.8440 C   0  0  1  0  0  3  0  0  0  0  0  0
  192.8460  169.7900  143.3620 O   0  0  0  0  0  0  0  0  0  0  0  0
  193.9100  169.6210  145.5700 C   0  0  0  0  0  2  0  0  0  0  0  0
  190.0160  175.2510  147.0800 C   0  0  0  0  0  3  0  0  0  0  0  0
  188.6880  175.1830  146.9280 C   0  0  0  0  0  3  0  0  0  0  0  0
  187.3410  177.9250  144.5790 C   0  0  0  0  0  2  0  0  0  0  0  0
  187.8010  176.2120  146.3540 C   0  0  0  0  0  0  0  0  0  0  0  0
  186.0780  177.9190  146.6970 C   0  0  0  0  0  0  0  0  0  0  0  0
  187.6770  176.4560  144.8650 C   0  0  0  0  0  2  0  0  0  0  0  0
  186.9890  176.8690  147.1930 C   0  0  0  0  0  3  0  0  0  0  0  0
  185.0440  178.4160  147.5380 N   0  0  0  0  0  1  0  0  0  0  0  0
  186.2060  178.3870  145.4510 C   0  0  0  0  0  3  0  0  0  0  0  0
  1  6  2  0  0  0  0
  2  1  1  0  0  0  0
  3  9  1  0  0  0  0
  5  9  1  0  0  0  0
  6 12  1  0  0  0  0
  7  5  1  0  0  0  0
  8 12  1  0  0  0  0
  8 10  1  0  0  0  0
 10  4  1  0  0  0  0
 10 20  1  6  0  0  0
 11  7  1  0  0  0  0
 11  1  1  0  0  0  0
 12  3  1  6  0  0  0
 12  4  1  0  0  0  0
 13  2  1  6  0  0  0
 13 15  1  0  0  0  0
 14 19  1  0  0  0  0
 15 19  1  0  0  0  0
 17 16  1  6  0  0  0
 17 13  1  0  0  0  0
 18 17  1  0  0  0  0
 18 14  1  0  0  0  0
 21 20  2  0  0  0  0
 22 25  1  0  0  0  0
 22 28  1  0  0  0  0
 23 21  1  0  0  0  0
 23 26  2  0  0  0  0
 24 26  1  0  0  0  0
 24 27  1  0  0  0  0
 25 23  1  0  0  0  0
 28 24  2  0  0  0  0
M  END
>  <MODEL>
2

>  <REMARK>
 VINA RESULT:      -7.4      1.931      4.696
  Name = 
  3 active torsions:
  status: ('A' for Active; 'I' for Inactive)
    1  A    between atoms: N_2  and  C_3
    2  A    between atoms: C_9  and  C_18
    3  A    between atoms: C_14  and  C_25
                            x       y       z     vdW  Elec       q    Type
                         _______ _______ _______ _____ _____    ______ ____

>  <TORSDO>
F 3

$$$$
=
 OpenBabel11052418033D

 28 31  0  0  1  0  0  0  0  0999 V2000
  193.1320  174.8490  143.6460 C   0  0  0  0  0  0  0  0  0  0  0  0
  193.1590  173.5470  143.0560 N   0  0  0  0  0  2  0  0  0  0  0  0
  193.3120  177.3910  145.3500 C   0  0  0  0  0  2  0  0  0  0  0  0
  191.8450  176.0070  146.9070 C   0  0  0  0  0  2  0  0  0  0  0  0
  195.2450  175.7300  145.1310 C   0  0  0  0  0  2  0  0  0  0  0  0
  192.3980  175.0670  144.7020 N   0  0  0  0  0  0  0  0  0  0  0  0
  195.3560  175.8870  143.7300 O   0  0  0  0  0  0  0  0  0  0  0  0
  190.8430  176.9000  145.2320 C   0  0  0  0  0  2  0  0  0  0  0  0
  194.7010  176.9720  145.8410 C   0  0  0  0  0  2  0  0  0  0  0  0
  190.4540  176.5800  146.6650 C   0  0  1  0  0  3  0  0  0  0  0  0
  194.0760  175.8920  143.1120 C   0  0  0  0  0  2  0  0  0  0  0  0
  192.2210  176.3130  145.4710 C   0  0  2  0  0  0  0  0  0  0  0  0
  192.4210  172.4110  143.6010 C   0  0  2  0  0  3  0  0  0  0  0  0
  192.1470  169.6110  142.8670 C   0  0  0  0  0  2  0  0  0  0  0  0
  193.4190  171.3940  144.1730 C   0  0  0  0  0  2  0  0  0  0  0  0
  191.0920  172.7010  141.5140 N   0  0  0  0  0  1  0  0  0  0  0  0
  191.5260  171.7500  142.5280 C   0  0  1  0  0  3  0  0  0  0  0  0
  192.1940  170.6650  141.9290 O   0  0  0  0  0  0  0  0  0  0  0  0
  192.8460  169.9760  144.1960 C   0  0  0  0  0  2  0  0  0  0  0  0
  189.4310  175.4860  146.6640 C   0  0  0  0  0  3  0  0  0  0  0  0
  188.1180  175.6450  146.4650 C   0  0  0  0  0  3  0  0  0  0  0  0
  185.7910  178.6850  146.9140 C   0  0  0  0  0  2  0  0  0  0  0  0
  187.4030  176.9040  146.1850 C   0  0  0  0  0  0  0  0  0  0  0  0
  186.4230  178.4350  144.5430 C   0  0  0  0  0  0  0  0  0  0  0  0
  187.0790  177.9230  147.2570 C   0  0  0  0  0  2  0  0  0  0  0  0
  187.1420  177.1980  144.9040 C   0  0  0  0  0  3  0  0  0  0  0  0
  186.3880  178.8650  143.1880 N   0  0  0  0  0  1  0  0  0  0  0  0
  185.8260  179.1670  145.4900 C   0  0  0  0  0  3  0  0  0  0  0  0
  1  6  2  0  0  0  0
  2  1  1  0  0  0  0
  3 12  1  0  0  0  0
  3  9  1  0  0  0  0
  5  9  1  0  0  0  0
  6 12  1  0  0  0  0
  7  5  1  0  0  0  0
  8 10  1  0  0  0  0
 10 20  1  6  0  0  0
 10  4  1  0  0  0  0
 11  1  1  0  0  0  0
 11  7  1  0  0  0  0
 12  8  1  6  0  0  0
 12  4  1  0  0  0  0
 13  2  1  6  0  0  0
 13 15  1  0  0  0  0
 14 19  1  0  0  0  0
 15 19  1  0  0  0  0
 17 16  1  6  0  0  0
 17 13  1  0  0  0  0
 18 17  1  0  0  0  0
 18 14  1  0  0  0  0
 21 20  2  0  0  0  0
 22 25  1  0  0  0  0
 23 21  1  0  0  0  0
 23 25  1  0  0  0  0
 24 26  1  0  0  0  0
 24 28  2  0  0  0  0
 26 23  2  0  0  0  0
 27 24  1  0  0  0  0
 28 22  1  0  0  0  0
M  END
>  <MODEL>
3

>  <REMARK>
 VINA RESULT:      -7.1      1.801      4.495
  Name = 
  3 active torsions:
  status: ('A' for Active; 'I' for Inactive)
    1  A    between atoms: N_2  and  C_3
    2  A    between atoms: C_9  and  C_18
    3  A    between atoms: C_14  and  C_25
                            x       y       z     vdW  Elec       q    Type
                         _______ _______ _______ _____ _____    ______ ____

>  <TORSDO>
F 3

$$$$
=
 OpenBabel11052418033D

 28 31  0  0  1  0  0  0  0  0999 V2000
  192.1660  173.4180  141.9340 C   0  0  0  0  0  0  0  0  0  0  0  0
  193.5450  173.7890  141.8850 N   0  0  0  0  0  2  0  0  0  0  0  0
  189.1480  172.9780  141.6130 C   0  0  0  0  0  2  0  0  0  0  0  0
  189.1050  175.4750  142.1180 C   0  0  0  0  0  2  0  0  0  0  0  0
  190.7560  173.0550  139.6260 C   0  0  0  0  0  2  0  0  0  0  0  0
  191.2660  174.3060  142.2530 N   0  0  0  0  0  0  0  0  0  0  0  0
  191.5210  171.9530  140.0710 O   0  0  0  0  0  0  0  0  0  0  0  0
  189.3660  174.1870  143.8140 C   0  0  0  0  0  2  0  0  0  0  0  0
  189.2980  173.0100  140.0900 C   0  0  0  0  0  2  0  0  0  0  0  0
  188.6800  175.5220  143.5800 C   0  0  1  0  0  3  0  0  0  0  0  0
  191.7820  172.0400  141.4650 C   0  0  0  0  0  2  0  0  0  0  0  0
  189.8030  174.1520  142.3620 C   0  0  2  0  0  0  0  0  0  0  0  0
  194.0130  175.1480  142.1450 C   0  0  2  0  0  3  0  0  0  0  0  0
  196.6180  176.3640  142.5780 C   0  0  0  0  0  2  0  0  0  0  0  0
  194.8110  175.6430  140.9290 C   0  0  0  0  0  2  0  0  0  0  0  0
  194.5020  174.1920  144.3930 N   0  0  0  0  0  1  0  0  0  0  0  0
  194.8760  175.2140  143.4250 C   0  0  1  0  0  3  0  0  0  0  0  0
  196.2430  175.1080  143.1050 O   0  0  0  0  0  0  0  0  0  0  0  0
  195.8190  176.7300  141.3070 C   0  0  0  0  0  2  0  0  0  0  0  0
  189.4300  176.5940  144.3080 C   0  0  0  0  0  3  0  0  0  0  0  0
  188.8900  177.5150  145.1150 C   0  0  0  0  0  3  0  0  0  0  0  0
  185.4030  176.7250  146.5540 C   0  0  0  0  0  2  0  0  0  0  0  0
  187.4680  177.6610  145.4770 C   0  0  0  0  0  0  0  0  0  0  0  0
  185.2690  178.6220  144.9860 C   0  0  0  0  0  0  0  0  0  0  0  0
  186.8800  177.0920  146.7520 C   0  0  0  0  0  2  0  0  0  0  0  0
  186.7040  178.4330  144.6940 C   0  0  0  0  0  3  0  0  0  0  0  0
  184.5380  179.6420  144.3160 N   0  0  0  0  0  1  0  0  0  0  0  0
  184.6610  177.8540  145.8950 C   0  0  0  0  0  3  0  0  0  0  0  0
  1  6  2  0  0  0  0
  2  1  1  0  0  0  0
  4 12  1  0  0  0  0
  4 10  1  0  0  0  0
  5  7  1  0  0  0  0
  5  9  1  0  0  0  0
  6 12  1  0  0  0  0
  7 11  1  0  0  0  0
  9  3  1  0  0  0  0
 10  8  1  0  0  0  0
 10 20  1  1  0  0  0
 11  1  1  0  0  0  0
 12  3  1  6  0  0  0
 12  8  1  0  0  0  0
 13  2  1  6  0  0  0
 13 17  1  0  0  0  0
 14 18  1  0  0  0  0
 15 19  1  0  0  0  0
 15 13  1  0  0  0  0
 17 16  1  1  0  0  0
 18 17  1  0  0  0  0
 19 14  1  0  0  0  0
 20 21  2  0  0  0  0
 21 23  1  0  0  0  0
 22 25  1  0  0  0  0
 23 25  1  0  0  0  0
 24 28  2  0  0  0  0
 26 24  1  0  0  0  0
 26 23  2  0  0  0  0
 27 24  1  0  0  0  0
 28 22  1  0  0  0  0
M  END
>  <MODEL>
4

>  <REMARK>
 VINA RESULT:      -7.1      1.547      1.805
  Name = 
  3 active torsions:
  status: ('A' for Active; 'I' for Inactive)
    1  A    between atoms: N_2  and  C_3
    2  A    between atoms: C_9  and  C_18
    3  A    between atoms: C_14  and  C_25
                            x       y       z     vdW  Elec       q    Type
                         _______ _______ _______ _____ _____    ______ ____

>  <TORSDO>
F 3

$$$$
=
 OpenBabel11052418033D

 28 31  0  0  1  0  0  0  0  0999 V2000
  193.1130  176.3800  144.3100 C   0  0  0  0  0  0  0  0  0  0  0  0
  194.0290  175.9860  143.2860 N   0  0  0  0  0  2  0  0  0  0  0  0
  190.9680  176.6980  146.4790 C   0  0  0  0  0  2  0  0  0  0  0  0
  189.4440  176.0410  144.5450 C   0  0  0  0  0  2  0  0  0  0  0  0
  192.5440  174.6860  146.3730 C   0  0  0  0  0  2  0  0  0  0  0  0
  191.8320  176.3900  144.0670 N   0  0  0  0  0  0  0  0  0  0  0  0
  193.7150  175.4670  146.5090 O   0  0  0  0  0  0  0  0  0  0  0  0
  190.1110  178.0810  144.5540 C   0  0  0  0  0  2  0  0  0  0  0  0
  191.3140  175.3140  147.0340 C   0  0  0  0  0  2  0  0  0  0  0  0
  188.8400  177.3730  144.1190 C   0  0  1  0  0  3  0  0  0  0  0  0
  193.6550  176.6290  145.6920 C   0  0  0  0  0  2  0  0  0  0  0  0
  190.7160  176.7520  144.9610 C   0  0  2  0  0  0  0  0  0  0  0  0
  193.5990  175.5510  141.9600 C   0  0  2  0  0  3  0  0  0  0  0  0
  194.6070  173.6420  140.0120 C   0  0  0  0  0  2  0  0  0  0  0  0
  193.1300  174.0910  142.0420 C   0  0  0  0  0  2  0  0  0  0  0  0
  195.6480  176.7800  141.2580 N   0  0  0  0  0  1  0  0  0  0  0  0
  194.7330  175.7000  140.9200 C   0  0  1  0  0  3  0  0  0  0  0  0
  195.4360  174.4880  140.7800 O   0  0  0  0  0  0  0  0  0  0  0  0
  193.2480  173.3730  140.6960 C   0  0  0  0  0  2  0  0  0  0  0  0
  188.7250  177.4410  142.6270 C   0  0  0  0  0  3  0  0  0  0  0  0
  187.6340  177.8050  141.9430 C   0  0  0  0  0  3  0  0  0  0  0  0
  184.9170  178.8210  144.4800 C   0  0  0  0  0  2  0  0  0  0  0  0
  186.3360  178.2340  142.4950 C   0  0  0  0  0  0  0  0  0  0  0  0
  183.8950  178.2980  142.2980 C   0  0  0  0  0  0  0  0  0  0  0  0
  186.2120  179.1230  143.7140 C   0  0  0  0  0  2  0  0  0  0  0  0
  185.2320  177.9120  141.8070 C   0  0  0  0  0  3  0  0  0  0  0  0
  182.7660  178.1900  141.4400 N   0  0  0  0  0  1  0  0  0  0  0  0
  183.7460  178.7720  143.5390 C   0  0  0  0  0  3  0  0  0  0  0  0
  1 11  1  0  0  0  0
  2  1  1  0  0  0  0
  3  9  1  0  0  0  0
  5  7  1  0  0  0  0
  5  9  1  0  0  0  0
  6  1  2  0  0  0  0
  6 12  1  0  0  0  0
  8 12  1  0  0  0  0
 10 20  1  6  0  0  0
 10  4  1  0  0  0  0
 10  8  1  0  0  0  0
 11  7  1  0  0  0  0
 12  4  1  6  0  0  0
 12  3  1  0  0  0  0
 13 15  1  0  0  0  0
 13  2  1  1  0  0  0
 14 19  1  0  0  0  0
 14 18  1  0  0  0  0
 17 16  1  1  0  0  0
 17 13  1  0  0  0  0
 18 17  1  0  0  0  0
 19 15  1  0  0  0  0
 21 23  1  0  0  0  0
 21 20  2  0  0  0  0
 23 25  1  0  0  0  0
 24 28  2  0  0  0  0
 25 22  1  0  0  0  0
 26 24  1  0  0  0  0
 26 23  2  0  0  0  0
 27 24  1  0  0  0  0
 28 22  1  0  0  0  0
M  END
>  <MODEL>
5

>  <REMARK>
 VINA RESULT:      -7.0      2.612      3.610
  Name = 
  3 active torsions:
  status: ('A' for Active; 'I' for Inactive)
    1  A    between atoms: N_2  and  C_3
    2  A    between atoms: C_9  and  C_18
    3  A    between atoms: C_14  and  C_25
                            x       y       z     vdW  Elec       q    Type
                         _______ _______ _______ _____ _____    ______ ____

>  <TORSDO>
F 3

$$$$
=
 OpenBabel11052418033D

 28 31  0  0  1  0  0  0  0  0999 V2000
  192.8890  174.6290  143.4710 C   0  0  0  0  0  0  0  0  0  0  0  0
  192.9780  173.3940  142.7580 N   0  0  0  0  0  2  0  0  0  0  0  0
  192.3630  176.9960  145.3490 C   0  0  0  0  0  2  0  0  0  0  0  0
  189.9590  176.5550  144.6290 C   0  0  0  0  0  2  0  0  0  0  0  0
  192.9040  174.6460  146.2000 C   0  0  0  0  0  2  0  0  0  0  0  0
  191.7450  175.2510  143.5510 N   0  0  0  0  0  0  0  0  0  0  0  0
  194.1680  174.5970  145.5670 O   0  0  0  0  0  0  0  0  0  0  0  0
  191.1730  177.6220  143.2170 C   0  0  0  0  0  2  0  0  0  0  0  0
  192.4590  176.0660  146.5600 C   0  0  0  0  0  2  0  0  0  0  0  0
  189.7030  177.6490  143.6010 C   0  0  1  0  0  3  0  0  0  0  0  0
  194.0960  175.0970  144.2390 C   0  0  0  0  0  2  0  0  0  0  0  0
  191.4200  176.5200  144.2290 C   0  0  2  0  0  0  0  0  0  0  0  0
  191.8260  172.7550  142.1260 C   0  0  2  0  0  3  0  0  0  0  0  0
  191.4550  170.3980  140.4650 C   0  0  0  0  0  2  0  0  0  0  0  0
  191.5710  171.4020  142.8060 C   0  0  0  0  0  2  0  0  0  0  0  0
  192.9260  173.5840  140.0510 N   0  0  0  0  0  1  0  0  0  0  0  0
  192.0450  172.5670  140.6080 C   0  0  1  0  0  3  0  0  0  0  0  0
  192.5500  171.2810  140.3380 O   0  0  0  0  0  0  0  0  0  0  0  0
  190.8420  170.4230  141.8830 C   0  0  0  0  0  2  0  0  0  0  0  0
  188.8880  177.1170  142.4620 C   0  0  0  0  0  3  0  0  0  0  0  0
  187.5550  177.1690  142.3650 C   0  0  0  0  0  3  0  0  0  0  0  0
  185.5560  179.8130  144.3320 C   0  0  0  0  0  2  0  0  0  0  0  0
  186.6120  177.7700  143.3270 C   0  0  0  0  0  0  0  0  0  0  0  0
  185.4270  177.6270  145.4660 C   0  0  0  0  0  0  0  0  0  0  0  0
  185.8360  179.0380  143.0370 C   0  0  0  0  0  2  0  0  0  0  0  0
  186.3530  177.0880  144.4510 C   0  0  0  0  0  3  0  0  0  0  0  0
  184.9570  176.7880  146.5130 N   0  0  0  0  0  1  0  0  0  0  0  0
  185.0090  178.8950  145.3890 C   0  0  0  0  0  3  0  0  0  0  0  0
  1  6  2  0  0  0  0
  1 11  1  0  0  0  0
  2  1  1  0  0  0  0
  3  9  1  0  0  0  0
  5  9  1  0  0  0  0
  6 12  1  0  0  0  0
  7  5  1  0  0  0  0
  8 10  1  0  0  0  0
 10 20  1  6  0  0  0
 10  4  1  0  0  0  0
 11  7  1  0  0  0  0
 12  8  1  6  0  0  0
 12  4  1  0  0  0  0
 12  3  1  0  0  0  0
 13  2  1  1  0  0  0
 13 15  1  0  0  0  0
 14 19  1  0  0  0  0
 17 16  1  1  0  0  0
 17 13  1  0  0  0  0
 18 14  1  0  0  0  0
 18 17  1  0  0  0  0
 19 15  1  0  0  0  0
 21 20  2  0  0  0  0
 21 23  1  0  0  0  0
 22 28  1  0  0  0  0
 23 26  2  0  0  0  0
 24 27  1  0  0  0  0
 25 23  1  0  0  0  0
 25 22  1  0  0  0  0
 26 24  1  0  0  0  0
 28 24  2  0  0  0  0
M  END
>  <MODEL>
6

>  <REMARK>
 VINA RESULT:      -7.0      2.184      4.381
  Name = 
  3 active torsions:
  status: ('A' for Active; 'I' for Inactive)
    1  A    between atoms: N_2  and  C_3
    2  A    between atoms: C_9  and  C_18
    3  A    between atoms: C_14  and  C_25
                            x       y       z     vdW  Elec       q    Type
                         _______ _______ _______ _____ _____    ______ ____

>  <TORSDO>
F 3

$$$$
=
 OpenBabel11052418033D

 28 31  0  0  1  0  0  0  0  0999 V2000
  195.4120  173.2650  143.7660 C   0  0  0  0  0  0  0  0  0  0  0  0
  195.7170  171.9070  144.0930 N   0  0  0  0  0  2  0  0  0  0  0  0
  195.1480  176.3030  143.4450 C   0  0  0  0  0  2  0  0  0  0  0  0
  194.5270  176.1360  145.9110 C   0  0  0  0  0  2  0  0  0  0  0  0
  197.4090  175.1150  143.5780 C   0  0  0  0  0  2  0  0  0  0  0  0
  194.8790  174.0450  144.6650 N   0  0  0  0  0  0  0  0  0  0  0  0
  197.1780  174.3260  142.4280 O   0  0  0  0  0  0  0  0  0  0  0  0
  192.9790  175.6040  144.5230 C   0  0  0  0  0  2  0  0  0  0  0  0
  196.6670  176.4540  143.5570 C   0  0  0  0  0  2  0  0  0  0  0  0
  193.0090  176.2630  145.8910 C   0  0  1  0  0  3  0  0  0  0  0  0
  195.8600  173.7920  142.4290 C   0  0  0  0  0  2  0  0  0  0  0  0
  194.4890  175.4630  144.5540 C   0  0  2  0  0  0  0  0  0  0  0  0
  195.4910  171.3380  145.4190 C   0  0  2  0  0  3  0  0  0  0  0  0
  195.5040  168.6460  146.5160 C   0  0  0  0  0  2  0  0  0  0  0  0
  196.8120  170.7590  145.9460 C   0  0  0  0  0  2  0  0  0  0  0  0
  193.4190  170.4830  144.3330 N   0  0  0  0  0  1  0  0  0  0  0  0
  194.3940  170.2500  145.3880 C   0  0  1  0  0  3  0  0  0  0  0  0
  194.9700  168.9730  145.2500 O   0  0  0  0  0  0  0  0  0  0  0  0
  196.5840  169.6510  146.9750 C   0  0  0  0  0  2  0  0  0  0  0  0
  192.3940  175.3390  146.8960 C   0  0  0  0  0  3  0  0  0  0  0  0
  191.0890  175.2410  147.1710 C   0  0  0  0  0  3  0  0  0  0  0  0
  188.0340  177.5550  146.7590 C   0  0  0  0  0  2  0  0  0  0  0  0
  189.9850  175.9900  146.5430 C   0  0  0  0  0  0  0  0  0  0  0  0
  188.3380  176.1740  144.7390 C   0  0  0  0  0  0  0  0  0  0  0  0
  189.5310  177.3510  147.0290 C   0  0  0  0  0  2  0  0  0  0  0  0
  189.4510  175.4860  145.4220 C   0  0  0  0  0  3  0  0  0  0  0  0
  187.9630  175.7810  143.4250 N   0  0  0  0  0  1  0  0  0  0  0  0
  187.6980  177.1800  145.3420 C   0  0  0  0  0  3  0  0  0  0  0  0
  1  2  1  0  0  0  0
  1  6  2  0  0  0  0
  3  9  1  0  0  0  0
  7 11  1  0  0  0  0
  7  5  1  0  0  0  0
  8 12  1  0  0  0  0
  8 10  1  0  0  0  0
  9  5  1  0  0  0  0
 10  4  1  0  0  0  0
 10 20  1  1  0  0  0
 11  1  1  0  0  0  0
 12  3  1  6  0  0  0
 12  6  1  0  0  0  0
 12  4  1  0  0  0  0
 13  2  1  6  0  0  0
 13 15  1  0  0  0  0
 14 19  1  0  0  0  0
 15 19  1  0  0  0  0
 17 16  1  6  0  0  0
 17 13  1  0  0  0  0
 18 17  1  0  0  0  0
 18 14  1  0  0  0  0
 20 21  2  0  0  0  0
 22 25  1  0  0  0  0
 23 25  1  0  0  0  0
 23 21  1  0  0  0  0
 24 28  2  0  0  0  0
 24 26  1  0  0  0  0
 26 23  2  0  0  0  0
 27 24  1  0  0  0  0
 28 22  1  0  0  0  0
M  END
>  <MODEL>
7

>  <REMARK>
 VINA RESULT:      -7.0      2.636      5.284
  Name = 
  3 active torsions:
  status: ('A' for Active; 'I' for Inactive)
    1  A    between atoms: N_2  and  C_3
    2  A    between atoms: C_9  and  C_18
    3  A    between atoms: C_14  and  C_25
                            x       y       z     vdW  Elec       q    Type
                         _______ _______ _______ _____ _____    ______ ____

>  <TORSDO>
F 3

$$$$
=
 OpenBabel11052418033D

 28 31  0  0  1  0  0  0  0  0999 V2000
  192.9490  172.7460  144.7670 C   0  0  0  0  0  0  0  0  0  0  0  0
  194.2670  173.0450  145.2340 N   0  0  0  0  0  2  0  0  0  0  0  0
  190.2400  172.4690  143.3580 C   0  0  0  0  0  2  0  0  0  0  0  0
  190.1280  174.9590  143.8880 C   0  0  0  0  0  2  0  0  0  0  0  0
  192.4640  172.4870  142.0940 C   0  0  0  0  0  2  0  0  0  0  0  0
  192.0350  173.6760  144.7640 N   0  0  0  0  0  0  0  0  0  0  0  0
  192.9640  171.3400  142.7530 O   0  0  0  0  0  0  0  0  0  0  0  0
  189.6940  173.6380  145.5230 C   0  0  0  0  0  2  0  0  0  0  0  0
  190.9360  172.5130  141.9950 C   0  0  0  0  0  2  0  0  0  0  0  0
  189.2010  175.0100  145.0960 C   0  0  1  0  0  3  0  0  0  0  0  0
  192.7020  171.3960  144.1490 C   0  0  0  0  0  2  0  0  0  0  0  0
  190.6280  173.5980  144.3290 C   0  0  2  0  0  0  0  0  0  0  0  0
  194.6670  174.3740  145.6880 C   0  0  2  0  0  3  0  0  0  0  0  0
  193.8680  177.0880  145.0180 C   0  0  0  0  0  2  0  0  0  0  0  0
  193.5000  175.0120  146.4540 C   0  0  0  0  0  2  0  0  0  0  0  0
  195.6440  174.4960  143.3990 N   0  0  0  0  0  1  0  0  0  0  0  0
  195.0970  175.2710  144.5050 C   0  0  1  0  0  3  0  0  0  0  0  0
  194.0150  176.0570  144.0640 O   0  0  0  0  0  0  0  0  0  0  0  0
  193.5640  176.5410  146.4310 C   0  0  0  0  0  2  0  0  0  0  0  0
  189.6800  176.0320  146.0800 C   0  0  0  0  0  3  0  0  0  0  0  0
  188.9590  177.0520  146.5610 C   0  0  0  0  0  3  0  0  0  0  0  0
  185.1170  176.7990  146.4160 C   0  0  0  0  0  2  0  0  0  0  0  0
  187.5540  177.3750  146.2540 C   0  0  0  0  0  0  0  0  0  0  0  0
  185.9270  178.4380  144.7620 C   0  0  0  0  0  0  0  0  0  0  0  0
  186.4110  177.0620  147.1970 C   0  0  0  0  0  2  0  0  0  0  0  0
  187.3090  178.0820  145.1430 C   0  0  0  0  0  3  0  0  0  0  0  0
  185.7000  179.4030  143.7430 N   0  0  0  0  0  1  0  0  0  0  0  0
  184.8900  177.8750  145.3900 C   0  0  0  0  0  3  0  0  0  0  0  0
  1  2  1  0  0  0  0
  4 12  1  0  0  0  0
  4 10  1  0  0  0  0
  5  7  1  0  0  0  0
  6  1  2  0  0  0  0
  7 11  1  0  0  0  0
  9  5  1  0  0  0  0
  9  3  1  0  0  0  0
 10  8  1  0  0  0  0
 10 20  1  1  0  0  0
 11  1  1  0  0  0  0
 12  3  1  6  0  0  0
 12  6  1  0  0  0  0
 12  8  1  0  0  0  0
 13  2  1  6  0  0  0
 13 15  1  0  0  0  0
 14 19  1  0  0  0  0
 17 16  1  6  0  0  0
 17 13  1  0  0  0  0
 18 17  1  0  0  0  0
 18 14  1  0  0  0  0
 19 15  1  0  0  0  0
 20 21  2  0  0  0  0
 22 25  1  0  0  0  0
 23 21  1  0  0  0  0
 23 25  1  0  0  0  0
 24 26  1  0  0  0  0
 24 28  2  0  0  0  0
 26 23  2  0  0  0  0
 27 24  1  0  0  0  0
 28 22  1  0  0  0  0
M  END
>  <MODEL>
8

>  <REMARK>
 VINA RESULT:      -6.9      1.480      1.984
  Name = 
  3 active torsions:
  status: ('A' for Active; 'I' for Inactive)
    1  A    between atoms: N_2  and  C_3
    2  A    between atoms: C_9  and  C_18
    3  A    between atoms: C_14  and  C_25
                            x       y       z     vdW  Elec       q    Type
                         _______ _______ _______ _____ _____    ______ ____

>  <TORSDO>
F 3

$$$$
=
 OpenBabel11052418033D

 28 31  0  0  1  0  0  0  0  0999 V2000
  185.5230  177.0840  145.2940 C   0  0  0  0  0  0  0  0  0  0  0  0
  184.8250  177.2230  144.0540 N   0  0  0  0  0  2  0  0  0  0  0  0
  187.2480  177.2790  147.8210 C   0  0  0  0  0  2  0  0  0  0  0  0
  189.1190  177.3210  146.0930 C   0  0  0  0  0  2  0  0  0  0  0  0
  185.8950  179.2490  146.9120 C   0  0  0  0  0  2  0  0  0  0  0  0
  186.8200  176.9550  145.2980 N   0  0  0  0  0  0  0  0  0  0  0  0
  184.6530  178.5840  147.0330 O   0  0  0  0  0  0  0  0  0  0  0  0
  188.2820  175.3900  146.5120 C   0  0  0  0  0  2  0  0  0  0  0  0
  186.9400  178.7740  147.9250 C   0  0  0  0  0  2  0  0  0  0  0  0
  189.6650  175.8990  146.1440 C   0  0  1  0  0  3  0  0  0  0  0  0
  184.7430  177.2430  146.5710 C   0  0  0  0  0  2  0  0  0  0  0  0
  187.7380  176.8040  146.4420 C   0  0  2  0  0  0  0  0  0  0  0  0
  185.5020  177.2630  142.7610 C   0  0  2  0  0  3  0  0  0  0  0  0
  188.2330  177.7690  141.9010 C   0  0  0  0  0  2  0  0  0  0  0  0
  186.4810  176.0840  142.6730 C   0  0  0  0  0  2  0  0  0  0  0  0
  185.6080  179.7000  143.2690 N   0  0  0  0  0  1  0  0  0  0  0  0
  186.2440  178.6030  142.5530 C   0  0  1  0  0  3  0  0  0  0  0  0
  187.5940  178.4840  142.9370 O   0  0  0  0  0  0  0  0  0  0  0  0
  187.6290  176.3610  141.7000 C   0  0  0  0  0  2  0  0  0  0  0  0
  190.0150  175.4230  144.7680 C   0  0  0  0  0  3  0  0  0  0  0  0
  191.2460  175.3780  144.2460 C   0  0  0  0  0  3  0  0  0  0  0  0
  193.7170  176.6530  146.9150 C   0  0  0  0  0  2  0  0  0  0  0  0
  192.5090  175.7580  144.9050 C   0  0  0  0  0  0  0  0  0  0  0  0
  194.8140  176.5650  144.7090 C   0  0  0  0  0  0  0  0  0  0  0  0
  192.7480  175.5840  146.3900 C   0  0  0  0  0  2  0  0  0  0  0  0
  193.5200  176.1610  144.1240 C   0  0  0  0  0  3  0  0  0  0  0  0
  195.9500  176.7310  143.8700 N   0  0  0  0  0  1  0  0  0  0  0  0
  194.9260  176.7510  146.0280 C   0  0  0  0  0  3  0  0  0  0  0  0
  1  6  2  0  0  0  0
  1 11  1  0  0  0  0
  2  1  1  0  0  0  0
  3  9  1  0  0  0  0
  4 10  1  0  0  0  0
  5  7  1  0  0  0  0
  5  9  1  0  0  0  0
  6 12  1  0  0  0  0
 10 20  1  6  0  0  0
 10  8  1  0  0  0  0
 11  7  1  0  0  0  0
 12  4  1  6  0  0  0
 12  8  1  0  0  0  0
 12  3  1  0  0  0  0
 13  2  1  1  0  0  0
 14 18  1  0  0  0  0
 15 13  1  0  0  0  0
 17 13  1  0  0  0  0
 17 18  1  0  0  0  0
 17 16  1  1  0  0  0
 19 14  1  0  0  0  0
 19 15  1  0  0  0  0
 21 20  2  0  0  0  0
 21 23  1  0  0  0  0
 23 25  1  0  0  0  0
 24 28  2  0  0  0  0
 25 22  1  0  0  0  0
 26 24  1  0  0  0  0
 26 23  2  0  0  0  0
 27 24  1  0  0  0  0
 28 22  1  0  0  0  0
M  END
>  <MODEL>
9

>  <REMARK>
 VINA RESULT:      -6.9      3.464      8.185
  Name = 
  3 active torsions:
  status: ('A' for Active; 'I' for Inactive)
    1  A    between atoms: N_2  and  C_3
    2  A    between atoms: C_9  and  C_18
    3  A    between atoms: C_14  and  C_25
                            x       y       z     vdW  Elec       q    Type
                         _______ _______ _______ _____ _____    ______ ____

>  <TORSDO>
F 3

$$$$
