=
 OpenBabel11052417133D

 30 35  0  0  1  0  0  0  0  0999 V2000
  187.6860  176.6610  145.3460 C   0  0  0  0  0  0  0  0  0  0  0  0
  185.7470  177.5610  146.7680 C   0  0  0  0  0  0  0  0  0  0  0  0
  185.8500  177.9510  141.7940 N   0  0  0  0  0  2  0  0  0  0  0  0
  188.2760  176.5030  144.0740 C   0  0  0  0  0  0  0  0  0  0  0  0
  188.3200  175.9620  146.5150 C   0  0  0  0  0  2  0  0  0  0  0  0
  191.6600  175.5920  145.0430 O   0  0  0  0  0  0  0  0  0  0  0  0
  188.3710  174.2120  142.3030 C   0  0  1  0  0  3  0  0  0  0  0  0
  190.4560  175.7790  145.1390 C   0  0  0  0  0  0  0  0  0  0  0  0
  187.8140  175.1770  141.2560 C   0  0  2  0  0  3  0  0  0  0  0  0
  186.7990  177.4070  140.8760 C   0  0  0  0  0  0  0  0  0  0  0  0
  189.8490  176.0230  146.5040 C   0  0  2  0  0  3  0  0  0  0  0  0
  189.6320  175.8760  143.8830 C   0  0  1  0  0  3  0  0  0  0  0  0
  184.6360  178.5670  146.8760 C   0  0  0  0  0  2  0  0  0  0  0  0
  188.3430  174.8220  140.0100 O   0  0  0  0  0  0  0  0  0  0  0  0
  188.5570  172.9580  141.4950 C   0  0  0  0  0  2  0  0  0  0  0  0
  186.0970  176.9420  147.8080 O   0  0  0  0  0  0  0  0  0  0  0  0
  186.3980  177.6250  143.0610 C   0  0  0  0  0  0  0  0  0  0  0  0
  183.9390  178.8150  145.5660 C   0  0  0  0  0  3  0  0  0  0  0  0
  186.4400  177.3510  145.4670 C   0  0  0  0  0  0  0  0  0  0  0  0
  187.5950  176.9640  142.9550 C   0  0  0  0  0  0  0  0  0  0  0  0
  186.6750  177.5300  139.6290 O   0  0  0  0  0  0  0  0  0  0  0  0
  187.9400  176.6840  141.5320 C   0  0  1  0  0  3  0  0  0  0  0  0
  188.4280  173.4180  140.0500 C   0  0  0  0  0  2  0  0  0  0  0  0
  190.8550  174.7710  142.0090 C   0  0  0  0  0  1  0  0  0  0  0  0
  184.4930  178.5170  144.3890 C   0  0  0  0  0  3  0  0  0  0  0  0
  185.8040  177.8530  144.3030 C   0  0  0  0  0  0  0  0  0  0  0  0
  189.6990  174.6230  142.9910 C   0  0  2  0  0  3  0  0  0  0  0  0
  190.4370  175.1080  147.5840 C   0  0  0  0  0  2  0  0  0  0  0  0
  191.3650  177.2260  148.5410 C   0  0  0  0  0  1  0  0  0  0  0  0
  191.6010  175.7410  148.3430 C   0  0  0  0  0  2  0  0  0  0  0  0
  1 19  1  0  0  0  0
  1  5  1  0  0  0  0
  2 13  1  0  0  0  0
  2 16  2  0  0  0  0
  3 17  1  0  0  0  0
  4  1  2  0  0  0  0
  6  8  2  0  0  0  0
  7 15  1  6  0  0  0
  7 27  1  0  0  0  0
  8 11  1  0  0  0  0
  9 14  1  6  0  0  0
  9 22  1  0  0  0  0
  9  7  1  0  0  0  0
 10  3  1  0  0  0  0
 11  5  1  0  0  0  0
 11 28  1  1  0  0  0
 12  4  1  1  0  0  0
 12  8  1  0  0  0  0
 14 23  1  0  0  0  0
 17 26  1  0  0  0  0
 18 13  1  0  0  0  0
 19  2  1  0  0  0  0
 20 17  2  0  0  0  0
 20  4  1  0  0  0  0
 21 10  2  0  0  0  0
 22 10  1  6  0  0  0
 22 20  1  0  0  0  0
 23 15  1  0  0  0  0
 25 18  2  0  0  0  0
 26 25  1  0  0  0  0
 26 19  2  0  0  0  0
 27 24  1  6  0  0  0
 27 12  1  0  0  0  0
 28 30  1  0  0  0  0
 30 29  1  0  0  0  0
M  END
>  <MODEL>
1

>  <REMARK>
 VINA RESULT:      -9.7      0.000      0.000
  Name = 
  2 active torsions:
  status: ('A' for Active; 'I' for Inactive)
    1  A    between atoms: C_9  and  C_12
    2  A    between atoms: C_9  and  C_21
                            x       y       z     vdW  Elec       q    Type
                         _______ _______ _______ _____ _____    ______ ____

>  <TORSDO>
F 2

$$$$
=
 OpenBabel11052417133D

 30 35  0  0  1  0  0  0  0  0999 V2000
  186.7520  177.3090  143.9720 C   0  0  0  0  0  0  0  0  0  0  0  0
  184.8760  178.5670  145.1920 C   0  0  0  0  0  0  0  0  0  0  0  0
  188.4800  176.1000  147.6060 N   0  0  0  0  0  2  0  0  0  0  0  0
  187.8990  176.4890  144.0430 C   0  0  0  0  0  0  0  0  0  0  0  0
  186.3590  177.8640  142.6330 C   0  0  0  0  0  2  0  0  0  0  0  0
  188.0990  175.3600  140.5930 O   0  0  0  0  0  0  0  0  0  0  0  0
  190.7110  177.1400  143.7930 C   0  0  1  0  0  3  0  0  0  0  0  0
  187.7730  176.0400  141.5540 C   0  0  0  0  0  0  0  0  0  0  0  0
  190.8520  176.4160  145.1330 C   0  0  2  0  0  3  0  0  0  0  0  0
  189.6360  175.4550  147.0680 C   0  0  0  0  0  0  0  0  0  0  0  0
  186.5000  176.8560  141.4910 C   0  0  2  0  0  3  0  0  0  0  0  0
  188.5900  175.9540  142.8160 C   0  0  1  0  0  3  0  0  0  0  0  0
  184.0390  178.6660  146.4360 C   0  0  0  0  0  2  0  0  0  0  0  0
  192.0950  175.7730  145.1520 O   0  0  0  0  0  0  0  0  0  0  0  0
  192.1410  177.4810  143.4780 C   0  0  0  0  0  2  0  0  0  0  0  0
  184.5000  179.1940  144.1660 O   0  0  0  0  0  0  0  0  0  0  0  0
  187.7680  176.5120  146.4510 C   0  0  0  0  0  0  0  0  0  0  0  0
  184.8170  178.3790  147.6910 C   0  0  0  0  0  3  0  0  0  0  0  0
  186.0890  177.7030  145.1750 C   0  0  0  0  0  0  0  0  0  0  0  0
  188.3970  176.1370  145.2920 C   0  0  0  0  0  0  0  0  0  0  0  0
  190.5060  174.9160  147.7990 O   0  0  0  0  0  0  0  0  0  0  0  0
  189.7090  175.4850  145.5680 C   0  0  1  0  0  3  0  0  0  0  0  0
  192.9530  176.6410  144.4530 C   0  0  0  0  0  2  0  0  0  0  0  0
  190.8640  175.0850  142.2680 C   0  0  0  0  0  1  0  0  0  0  0  0
  185.9720  177.7130  147.6850 C   0  0  0  0  0  3  0  0  0  0  0  0
  186.6010  177.2770  146.4270 C   0  0  0  0  0  0  0  0  0  0  0  0
  190.0710  176.3340  142.6320 C   0  0  2  0  0  3  0  0  0  0  0  0
  186.3050  177.5410  140.1330 C   0  0  0  0  0  2  0  0  0  0  0  0
  183.8340  177.9160  140.2330 C   0  0  0  0  0  1  0  0  0  0  0  0
  185.1910  178.5840  140.1380 C   0  0  0  0  0  2  0  0  0  0  0  0
  1  4  2  0  0  0  0
  1 19  1  0  0  0  0
  2 13  1  0  0  0  0
  4 20  1  0  0  0  0
  5  1  1  0  0  0  0
  6  8  2  0  0  0  0
  7 15  1  6  0  0  0
  7  9  1  0  0  0  0
  9 14  1  6  0  0  0
  9 22  1  0  0  0  0
 10  3  1  0  0  0  0
 10 21  2  0  0  0  0
 11 28  1  6  0  0  0
 11  8  1  0  0  0  0
 11  5  1  0  0  0  0
 12  8  1  6  0  0  0
 12  4  1  0  0  0  0
 13 18  1  0  0  0  0
 15 23  1  0  0  0  0
 16  2  2  0  0  0  0
 17  3  1  0  0  0  0
 19  2  1  0  0  0  0
 19 26  2  0  0  0  0
 20 17  2  0  0  0  0
 22 20  1  6  0  0  0
 22 10  1  0  0  0  0
 23 14  1  0  0  0  0
 25 18  2  0  0  0  0
 26 17  1  0  0  0  0
 26 25  1  0  0  0  0
 27 24  1  1  0  0  0
 27 12  1  0  0  0  0
 27  7  1  0  0  0  0
 28 30  1  0  0  0  0
 30 29  1  0  0  0  0
M  END
>  <MODEL>
2

>  <REMARK>
 VINA RESULT:      -8.7      2.054      5.443
  Name = 
  2 active torsions:
  status: ('A' for Active; 'I' for Inactive)
    1  A    between atoms: C_9  and  C_12
    2  A    between atoms: C_9  and  C_21
                            x       y       z     vdW  Elec       q    Type
                         _______ _______ _______ _____ _____    ______ ____

>  <TORSDO>
F 2

$$$$
=
 OpenBabel11052417133D

 30 35  0  0  1  0  0  0  0  0999 V2000
  188.5800  176.9480  145.6130 C   0  0  0  0  0  0  0  0  0  0  0  0
  186.4320  178.1420  146.3550 C   0  0  0  0  0  0  0  0  0  0  0  0
  187.0090  176.2280  141.7820 N   0  0  0  0  0  2  0  0  0  0  0  0
  189.3090  176.3030  144.5910 C   0  0  0  0  0  0  0  0  0  0  0  0
  189.1510  176.9470  147.0020 C   0  0  0  0  0  2  0  0  0  0  0  0
  192.6440  176.3750  146.0380 O   0  0  0  0  0  0  0  0  0  0  0  0
  189.7920  173.4890  144.0960 C   0  0  1  0  0  3  0  0  0  0  0  0
  191.4250  176.4300  145.9770 C   0  0  0  0  0  0  0  0  0  0  0  0
  189.2600  173.7900  142.6940 C   0  0  2  0  0  3  0  0  0  0  0  0
  188.0930  175.4510  141.2710 C   0  0  0  0  0  0  0  0  0  0  0  0
  190.6610  177.1900  147.0390 C   0  0  2  0  0  3  0  0  0  0  0  0
  190.7290  175.8370  144.7800 C   0  0  1  0  0  3  0  0  0  0  0  0
  185.2290  178.9350  145.9280 C   0  0  0  0  0  2  0  0  0  0  0  0
  189.9450  172.9760  141.7850 O   0  0  0  0  0  0  0  0  0  0  0  0
  190.1720  172.0400  143.9740 C   0  0  0  0  0  2  0  0  0  0  0  0
  186.7280  178.1160  147.5790 O   0  0  0  0  0  0  0  0  0  0  0  0
  187.4520  176.5900  143.0810 C   0  0  0  0  0  0  0  0  0  0  0  0
  184.6510  178.4670  144.6200 C   0  0  0  0  0  3  0  0  0  0  0  0
  187.2710  177.4510  145.3370 C   0  0  0  0  0  0  0  0  0  0  0  0
  188.7080  176.1120  143.3540 C   0  0  0  0  0  0  0  0  0  0  0  0
  188.0870  174.9740  140.1060 O   0  0  0  0  0  0  0  0  0  0  0  0
  189.2210  175.2600  142.2430 C   0  0  1  0  0  3  0  0  0  0  0  0
  190.1520  171.7690  142.4760 C   0  0  0  0  0  2  0  0  0  0  0  0
  192.2330  174.1640  143.6980 C   0  0  0  0  0  1  0  0  0  0  0  0
  185.3480  177.7390  143.7460 C   0  0  0  0  0  3  0  0  0  0  0  0
  186.7150  177.2810  144.0440 C   0  0  0  0  0  0  0  0  0  0  0  0
  191.0000  174.3350  144.5790 C   0  0  2  0  0  3  0  0  0  0  0  0
  191.2160  176.9530  148.4480 C   0  0  0  0  0  2  0  0  0  0  0  0
  191.6130  177.8760  150.7390 C   0  0  0  0  0  1  0  0  0  0  0  0
  191.2300  178.2120  149.3120 C   0  0  0  0  0  2  0  0  0  0  0  0
  1  5  1  0  0  0  0
  2 16  2  0  0  0  0
  3 17  1  0  0  0  0
  4  1  2  0  0  0  0
  5 11  1  0  0  0  0
  7 15  1  6  0  0  0
  7 27  1  0  0  0  0
  8  6  2  0  0  0  0
  8 11  1  0  0  0  0
  9 14  1  6  0  0  0
  9  7  1  0  0  0  0
 10  3  1  0  0  0  0
 11 28  1  1  0  0  0
 12  4  1  1  0  0  0
 12  8  1  0  0  0  0
 13  2  1  0  0  0  0
 14 23  1  0  0  0  0
 17 20  2  0  0  0  0
 17 26  1  0  0  0  0
 18 13  1  0  0  0  0
 19  1  1  0  0  0  0
 19  2  1  0  0  0  0
 20  4  1  0  0  0  0
 21 10  2  0  0  0  0
 22 10  1  6  0  0  0
 22  9  1  0  0  0  0
 22 20  1  0  0  0  0
 23 15  1  0  0  0  0
 25 26  1  0  0  0  0
 25 18  2  0  0  0  0
 26 19  2  0  0  0  0
 27 24  1  6  0  0  0
 27 12  1  0  0  0  0
 28 30  1  0  0  0  0
 30 29  1  0  0  0  0
M  END
>  <MODEL>
3

>  <REMARK>
 VINA RESULT:      -8.5      1.463      1.988
  Name = 
  2 active torsions:
  status: ('A' for Active; 'I' for Inactive)
    1  A    between atoms: C_9  and  C_12
    2  A    between atoms: C_9  and  C_21
                            x       y       z     vdW  Elec       q    Type
                         _______ _______ _______ _____ _____    ______ ____

>  <TORSDO>
F 2

$$$$
=
 OpenBabel11052417133D

 30 35  0  0  1  0  0  0  0  0999 V2000
  188.0200  175.6850  143.6610 C   0  0  0  0  0  0  0  0  0  0  0  0
  185.9220  177.1540  143.4900 C   0  0  0  0  0  0  0  0  0  0  0  0
  189.1840  177.5400  147.2470 N   0  0  0  0  0  2  0  0  0  0  0  0
  189.1720  175.3070  144.3840 C   0  0  0  0  0  0  0  0  0  0  0  0
  187.8270  175.1150  142.2850 C   0  0  0  0  0  2  0  0  0  0  0  0
  189.9730  172.1720  142.7260 O   0  0  0  0  0  0  0  0  0  0  0  0
  191.9590  176.0010  144.0030 C   0  0  1  0  0  3  0  0  0  0  0  0
  189.4690  173.2700  142.9100 C   0  0  0  0  0  0  0  0  0  0  0  0
  191.9100  176.4160  145.4740 C   0  0  2  0  0  3  0  0  0  0  0  0
  190.4360  176.8730  147.4140 C   0  0  0  0  0  0  0  0  0  0  0  0
  188.1910  173.6330  142.1840 C   0  0  2  0  0  3  0  0  0  0  0  0
  190.0740  174.1850  143.9420 C   0  0  1  0  0  3  0  0  0  0  0  0
  184.8910  177.9560  144.2340 C   0  0  0  0  0  2  0  0  0  0  0  0
  193.1580  176.1420  146.0450 O   0  0  0  0  0  0  0  0  0  0  0  0
  193.4050  176.2330  143.6680 C   0  0  0  0  0  2  0  0  0  0  0  0
  185.6920  176.8520  142.2890 O   0  0  0  0  0  0  0  0  0  0  0  0
  188.6520  176.9470  146.0730 C   0  0  0  0  0  0  0  0  0  0  0  0
  185.4660  178.7160  145.3980 C   0  0  0  0  0  3  0  0  0  0  0  0
  187.1550  176.6940  144.1860 C   0  0  0  0  0  0  0  0  0  0  0  0
  189.4750  175.9770  145.5630 C   0  0  0  0  0  0  0  0  0  0  0  0
  191.1980  177.1070  148.3880 O   0  0  0  0  0  0  0  0  0  0  0  0
  190.7500  175.8820  146.3310 C   0  0  1  0  0  3  0  0  0  0  0  0
  194.0820  176.4100  145.0200 C   0  0  0  0  0  2  0  0  0  0  0  0
  192.4390  173.5080  144.3570 C   0  0  0  0  0  1  0  0  0  0  0  0
  186.6330  178.3970  145.9590 C   0  0  0  0  0  3  0  0  0  0  0  0
  187.4750  177.3150  145.4210 C   0  0  0  0  0  0  0  0  0  0  0  0
  191.5480  174.5400  143.6770 C   0  0  2  0  0  3  0  0  0  0  0  0
  188.1910  173.1700  140.7220 C   0  0  0  0  0  2  0  0  0  0  0  0
  188.1910  174.1420  138.4170 C   0  0  0  0  0  1  0  0  0  0  0  0
  188.8640  174.1610  139.7750 C   0  0  0  0  0  2  0  0  0  0  0  0
  1 19  2  0  0  0  0
  1  4  1  0  0  0  0
  2 19  1  0  0  0  0
  2 13  1  0  0  0  0
  3 10  1  0  0  0  0
  4 20  2  0  0  0  0
  5  1  1  0  0  0  0
  6  8  2  0  0  0  0
  7 15  1  1  0  0  0
  7  9  1  0  0  0  0
  9 14  1  1  0  0  0
  9 22  1  0  0  0  0
 10 21  2  0  0  0  0
 11 28  1  6  0  0  0
 11  5  1  0  0  0  0
 11  8  1  0  0  0  0
 12  8  1  6  0  0  0
 12  4  1  0  0  0  0
 13 18  1  0  0  0  0
 15 23  1  0  0  0  0
 16  2  2  0  0  0  0
 17  3  1  0  0  0  0
 18 25  2  0  0  0  0
 19 26  1  0  0  0  0
 20 17  1  0  0  0  0
 22 20  1  6  0  0  0
 22 10  1  0  0  0  0
 23 14  1  0  0  0  0
 26 25  1  0  0  0  0
 26 17  2  0  0  0  0
 27 12  1  0  0  0  0
 27  7  1  0  0  0  0
 27 24  1  1  0  0  0
 29 30  1  0  0  0  0
 30 28  1  0  0  0  0
M  END
>  <MODEL>
4

>  <REMARK>
 VINA RESULT:      -8.4      2.235      5.479
  Name = 
  2 active torsions:
  status: ('A' for Active; 'I' for Inactive)
    1  A    between atoms: C_9  and  C_12
    2  A    between atoms: C_9  and  C_21
                            x       y       z     vdW  Elec       q    Type
                         _______ _______ _______ _____ _____    ______ ____

>  <TORSDO>
F 2

$$$$
=
 OpenBabel11052417133D

 30 35  0  0  1  0  0  0  0  0999 V2000
  189.9020  175.3630  143.7610 C   0  0  0  0  0  0  0  0  0  0  0  0
  191.7290  173.5600  143.8210 C   0  0  0  0  0  0  0  0  0  0  0  0
  191.0870  176.8700  147.5000 N   0  0  0  0  0  2  0  0  0  0  0  0
  189.2890  176.4790  144.3700 C   0  0  0  0  0  0  0  0  0  0  0  0
  189.2530  174.7740  142.5420 C   0  0  0  0  0  2  0  0  0  0  0  0
  187.3600  177.7620  141.5680 O   0  0  0  0  0  0  0  0  0  0  0  0
  186.8410  176.6920  145.9060 C   0  0  1  0  0  3  0  0  0  0  0  0
  188.0070  176.9760  142.2430 C   0  0  0  0  0  0  0  0  0  0  0  0
  187.7260  177.3670  146.9550 C   0  0  2  0  0  3  0  0  0  0  0  0
  190.0560  177.8470  147.6520 C   0  0  0  0  0  0  0  0  0  0  0  0
  188.7210  175.8260  141.5670 C   0  0  2  0  0  3  0  0  0  0  0  0
  188.1680  177.2440  143.7170 C   0  0  1  0  0  3  0  0  0  0  0  0
  193.0830  173.1680  144.3400 C   0  0  0  0  0  2  0  0  0  0  0  0
  186.9630  178.3450  147.6030 O   0  0  0  0  0  0  0  0  0  0  0  0
  185.4820  176.7980  146.5380 C   0  0  0  0  0  2  0  0  0  0  0  0
  191.2350  172.8940  142.8720 O   0  0  0  0  0  0  0  0  0  0  0  0
  190.8270  176.3160  146.2200 C   0  0  0  0  0  0  0  0  0  0  0  0
  193.3220  173.6160  145.7560 C   0  0  0  0  0  3  0  0  0  0  0  0
  191.0240  174.7410  144.3910 C   0  0  0  0  0  0  0  0  0  0  0  0
  189.7520  176.9080  145.6080 C   0  0  0  0  0  0  0  0  0  0  0  0
  189.9750  178.5870  148.6670 O   0  0  0  0  0  0  0  0  0  0  0  0
  189.0940  177.9040  146.5010 C   0  0  1  0  0  3  0  0  0  0  0  0
  185.6700  177.7970  147.6710 C   0  0  0  0  0  2  0  0  0  0  0  0
  186.3420  178.7640  144.4810 C   0  0  0  0  0  1  0  0  0  0  0  0
  192.6160  174.5910  146.3300 C   0  0  0  0  0  3  0  0  0  0  0  0
  191.4970  175.2450  145.6290 C   0  0  0  0  0  0  0  0  0  0  0  0
  186.8380  177.3230  144.4880 C   0  0  2  0  0  3  0  0  0  0  0  0
  187.8770  175.1730  140.4670 C   0  0  0  0  0  2  0  0  0  0  0  0
  188.2490  174.0890  138.2430 C   0  0  0  0  0  1  0  0  0  0  0  0
  188.6160  174.0700  139.7140 C   0  0  0  0  0  2  0  0  0  0  0  0
  1  4  2  0  0  0  0
  1 19  1  0  0  0  0
  2 13  1  0  0  0  0
  2 19  1  0  0  0  0
  3 10  1  0  0  0  0
  4 20  1  0  0  0  0
  5  1  1  0  0  0  0
  6  8  2  0  0  0  0
  7 15  1  1  0  0  0
  7  9  1  0  0  0  0
  9 14  1  6  0  0  0
 10 21  2  0  0  0  0
 11 28  1  6  0  0  0
 11  8  1  0  0  0  0
 11  5  1  0  0  0  0
 12  8  1  6  0  0  0
 12  4  1  0  0  0  0
 12 27  1  0  0  0  0
 13 18  1  0  0  0  0
 14 23  1  0  0  0  0
 15 23  1  0  0  0  0
 16  2  2  0  0  0  0
 17  3  1  0  0  0  0
 18 25  2  0  0  0  0
 19 26  2  0  0  0  0
 20 17  2  0  0  0  0
 22 20  1  6  0  0  0
 22  9  1  0  0  0  0
 22 10  1  0  0  0  0
 26 17  1  0  0  0  0
 26 25  1  0  0  0  0
 27 24  1  1  0  0  0
 27  7  1  0  0  0  0
 29 30  1  0  0  0  0
 30 28  1  0  0  0  0
M  END
>  <MODEL>
5

>  <REMARK>
 VINA RESULT:      -8.0      2.356      7.048
  Name = 
  2 active torsions:
  status: ('A' for Active; 'I' for Inactive)
    1  A    between atoms: C_9  and  C_12
    2  A    between atoms: C_9  and  C_21
                            x       y       z     vdW  Elec       q    Type
                         _______ _______ _______ _____ _____    ______ ____

>  <TORSDO>
F 2

$$$$
=
 OpenBabel11052417133D

 30 35  0  0  1  0  0  0  0  0999 V2000
  187.0120  176.3160  142.3090 C   0  0  0  0  0  0  0  0  0  0  0  0
  185.4090  177.6360  140.8000 C   0  0  0  0  0  0  0  0  0  0  0  0
  185.2060  177.8430  145.7820 N   0  0  0  0  0  2  0  0  0  0  0  0
  187.4140  175.9460  143.6110 C   0  0  0  0  0  0  0  0  0  0  0  0
  187.8710  175.8890  141.1530 C   0  0  0  0  0  2  0  0  0  0  0  0
  189.5190  173.0820  142.8460 O   0  0  0  0  0  0  0  0  0  0  0  0
  189.6100  176.8820  145.2530 C   0  0  1  0  0  3  0  0  0  0  0  0
  188.8860  174.1130  142.6720 C   0  0  0  0  0  0  0  0  0  0  0  0
  188.5300  177.1260  146.3080 C   0  0  2  0  0  3  0  0  0  0  0  0
  186.0920  177.2560  146.7360 C   0  0  0  0  0  0  0  0  0  0  0  0
  188.3970  174.4580  141.2820 C   0  0  2  0  0  3  0  0  0  0  0  0
  188.5130  174.9490  143.8670 C   0  0  1  0  0  3  0  0  0  0  0  0
  184.0540  178.2720  140.6670 C   0  0  0  0  0  2  0  0  0  0  0  0
  189.0900  176.8840  147.5670 O   0  0  0  0  0  0  0  0  0  0  0  0
  190.8590  177.2560  146.0000 C   0  0  0  0  0  2  0  0  0  0  0  0
  186.0890  177.4530  139.7560 O   0  0  0  0  0  0  0  0  0  0  0  0
  185.6850  177.3460  144.5430 C   0  0  0  0  0  0  0  0  0  0  0  0
  183.5910  178.9380  141.9330 C   0  0  0  0  0  3  0  0  0  0  0  0
  185.8980  177.1940  142.1350 C   0  0  0  0  0  0  0  0  0  0  0  0
  186.7540  176.5010  144.7000 C   0  0  0  0  0  0  0  0  0  0  0  0
  185.9610  177.4360  147.9750 O   0  0  0  0  0  0  0  0  0  0  0  0
  187.1780  176.4170  146.1270 C   0  0  1  0  0  3  0  0  0  0  0  0
  190.4190  177.3310  147.4550 C   0  0  0  0  0  2  0  0  0  0  0  0
  190.0450  174.4070  145.7610 C   0  0  0  0  0  1  0  0  0  0  0  0
  184.1050  178.6460  143.1290 C   0  0  0  0  0  3  0  0  0  0  0  0
  185.2200  177.6960  143.2750 C   0  0  0  0  0  0  0  0  0  0  0  0
  189.7190  175.4400  144.6890 C   0  0  2  0  0  3  0  0  0  0  0  0
  189.4410  174.1630  140.1980 C   0  0  0  0  0  2  0  0  0  0  0  0
  188.2060  173.7520  138.0620 C   0  0  0  0  0  1  0  0  0  0  0  0
  188.9850  173.1090  139.1920 C   0  0  0  0  0  2  0  0  0  0  0  0
  1  4  1  0  0  0  0
  2 19  1  0  0  0  0
  3 10  1  0  0  0  0
  4 12  1  0  0  0  0
  4 20  2  0  0  0  0
  5 11  1  0  0  0  0
  5  1  1  0  0  0  0
  7 15  1  1  0  0  0
  7  9  1  0  0  0  0
  8  6  2  0  0  0  0
  9 14  1  1  0  0  0
 10 21  2  0  0  0  0
 11 28  1  6  0  0  0
 11  8  1  0  0  0  0
 12  8  1  6  0  0  0
 12 27  1  0  0  0  0
 13  2  1  0  0  0  0
 13 18  1  0  0  0  0
 15 23  1  0  0  0  0
 16  2  2  0  0  0  0
 17 20  1  0  0  0  0
 17  3  1  0  0  0  0
 18 25  2  0  0  0  0
 19  1  2  0  0  0  0
 19 26  1  0  0  0  0
 22 20  1  6  0  0  0
 22  9  1  0  0  0  0
 22 10  1  0  0  0  0
 23 14  1  0  0  0  0
 25 26  1  0  0  0  0
 26 17  2  0  0  0  0
 27  7  1  0  0  0  0
 27 24  1  1  0  0  0
 29 30  1  0  0  0  0
 30 28  1  0  0  0  0
M  END
>  <MODEL>
6

>  <REMARK>
 VINA RESULT:      -7.8      1.743      5.628
  Name = 
  2 active torsions:
  status: ('A' for Active; 'I' for Inactive)
    1  A    between atoms: C_9  and  C_12
    2  A    between atoms: C_9  and  C_21
                            x       y       z     vdW  Elec       q    Type
                         _______ _______ _______ _____ _____    ______ ____

>  <TORSDO>
F 2

$$$$
=
 OpenBabel11052417133D

 30 35  0  0  1  0  0  0  0  0999 V2000
  188.6830  175.2070  143.1690 C   0  0  0  0  0  0  0  0  0  0  0  0
  186.5620  176.5830  143.6150 C   0  0  0  0  0  0  0  0  0  0  0  0
  190.5830  176.7970  146.5630 N   0  0  0  0  0  2  0  0  0  0  0  0
  189.9800  174.8240  143.5750 C   0  0  0  0  0  0  0  0  0  0  0  0
  188.1970  174.7510  141.8230 C   0  0  0  0  0  2  0  0  0  0  0  0
  190.4670  171.8880  141.4870 O   0  0  0  0  0  0  0  0  0  0  0  0
  192.5860  175.6820  142.6460 C   0  0  1  0  0  3  0  0  0  0  0  0
  189.9880  172.9400  141.8840 C   0  0  0  0  0  0  0  0  0  0  0  0
  192.8630  175.9650  144.1240 C   0  0  2  0  0  3  0  0  0  0  0  0
  191.8580  176.1800  146.3790 C   0  0  0  0  0  0  0  0  0  0  0  0
  188.5690  173.3020  141.5010 C   0  0  2  0  0  3  0  0  0  0  0  0
  190.7870  173.7890  142.8360 C   0  0  1  0  0  3  0  0  0  0  0  0
  185.7070  177.2650  144.6440 C   0  0  0  0  0  2  0  0  0  0  0  0
  194.2150  175.7030  144.3710 O   0  0  0  0  0  0  0  0  0  0  0  0
  193.9110  176.0120  142.0180 C   0  0  0  0  0  2  0  0  0  0  0  0
  186.0730  176.3750  142.4730 O   0  0  0  0  0  0  0  0  0  0  0  0
  189.8140  176.2840  145.4870 C   0  0  0  0  0  0  0  0  0  0  0  0
  186.5100  177.9480  145.7170 C   0  0  0  0  0  3  0  0  0  0  0  0
  187.9330  176.1240  143.9690 C   0  0  0  0  0  0  0  0  0  0  0  0
  190.5250  175.4020  144.7140 C   0  0  0  0  0  0  0  0  0  0  0  0
  192.8150  176.3650  147.1750 O   0  0  0  0  0  0  0  0  0  0  0  0
  191.9430  175.3030  145.1630 C   0  0  1  0  0  3  0  0  0  0  0  0
  194.8730  176.1030  143.1940 C   0  0  0  0  0  2  0  0  0  0  0  0
  193.2030  173.1940  142.6430 C   0  0  0  0  0  1  0  0  0  0  0  0
  187.7830  177.6380  145.9680 C   0  0  0  0  0  3  0  0  0  0  0  0
  188.5090  176.6490  145.1540 C   0  0  0  0  0  0  0  0  0  0  0  0
  192.1520  174.2380  142.2830 C   0  0  2  0  0  3  0  0  0  0  0  0
  188.2490  172.9690  140.0390 C   0  0  0  0  0  2  0  0  0  0  0  0
  188.0610  174.2950  137.9260 C   0  0  0  0  0  1  0  0  0  0  0  0
  188.9890  173.8560  139.0420 C   0  0  0  0  0  2  0  0  0  0  0  0
  1  4  2  0  0  0  0
  1 19  1  0  0  0  0
  2 19  1  0  0  0  0
  2 13  1  0  0  0  0
  4 20  1  0  0  0  0
  5  1  1  0  0  0  0
  6  8  2  0  0  0  0
  7 15  1  6  0  0  0
  7  9  1  0  0  0  0
  9 14  1  1  0  0  0
  9 22  1  0  0  0  0
 10  3  1  0  0  0  0
 10 21  2  0  0  0  0
 11 28  1  6  0  0  0
 11  5  1  0  0  0  0
 11  8  1  0  0  0  0
 12  8  1  6  0  0  0
 12  4  1  0  0  0  0
 13 18  1  0  0  0  0
 15 23  1  0  0  0  0
 16  2  2  0  0  0  0
 17  3  1  0  0  0  0
 18 25  2  0  0  0  0
 19 26  2  0  0  0  0
 20 17  2  0  0  0  0
 22 20  1  6  0  0  0
 22 10  1  0  0  0  0
 23 14  1  0  0  0  0
 26 17  1  0  0  0  0
 26 25  1  0  0  0  0
 27 24  1  1  0  0  0
 27  7  1  0  0  0  0
 27 12  1  0  0  0  0
 29 30  1  0  0  0  0
 30 28  1  0  0  0  0
M  END
>  <MODEL>
7

>  <REMARK>
 VINA RESULT:      -7.6      2.326      5.746
  Name = 
  2 active torsions:
  status: ('A' for Active; 'I' for Inactive)
    1  A    between atoms: C_9  and  C_12
    2  A    between atoms: C_9  and  C_21
                            x       y       z     vdW  Elec       q    Type
                         _______ _______ _______ _____ _____    ______ ____

>  <TORSDO>
F 2

$$$$
=
 OpenBabel11052417133D

 30 35  0  0  1  0  0  0  0  0999 V2000
  189.5830  175.3340  144.7330 C   0  0  0  0  0  0  0  0  0  0  0  0
  188.1740  175.8770  146.8100 C   0  0  0  0  0  0  0  0  0  0  0  0
  186.6090  176.8290  142.1680 N   0  0  0  0  0  2  0  0  0  0  0  0
  189.7280  175.3770  143.3300 C   0  0  0  0  0  0  0  0  0  0  0  0
  190.6040  174.5740  145.5300 C   0  0  0  0  0  2  0  0  0  0  0  0
  193.2870  174.6970  143.0300 O   0  0  0  0  0  0  0  0  0  0  0  0
  189.3600  173.3190  141.3240 C   0  0  1  0  0  3  0  0  0  0  0  0
  192.1740  174.7540  143.5310 C   0  0  0  0  0  0  0  0  0  0  0  0
  188.4360  174.3370  140.6540 C   0  0  2  0  0  3  0  0  0  0  0  0
  187.2310  176.4860  140.9290 C   0  0  0  0  0  0  0  0  0  0  0  0
  192.0380  174.7830  145.0380 C   0  0  2  0  0  3  0  0  0  0  0  0
  190.9780  174.9110  142.6300 C   0  0  1  0  0  3  0  0  0  0  0  0
  187.1070  176.7510  147.4050 C   0  0  0  0  0  2  0  0  0  0  0  0
  188.5440  174.1760  139.2680 O   0  0  0  0  0  0  0  0  0  0  0  0
  189.3380  172.1880  140.3350 C   0  0  0  0  0  2  0  0  0  0  0  0
  188.8820  175.1830  147.5870 O   0  0  0  0  0  0  0  0  0  0  0  0
  187.5620  176.4180  143.1360 C   0  0  0  0  0  0  0  0  0  0  0  0
  186.0050  177.0760  146.4340 C   0  0  0  0  0  3  0  0  0  0  0  0
  188.4100  175.8810  145.3400 C   0  0  0  0  0  0  0  0  0  0  0  0
  188.6910  175.8930  142.5620 C   0  0  0  0  0  0  0  0  0  0  0  0
  186.6970  176.7340  139.8170 O   0  0  0  0  0  0  0  0  0  0  0  0
  188.5630  175.8090  141.0790 C   0  0  1  0  0  3  0  0  0  0  0  0
  188.7150  172.7920  139.0850 C   0  0  0  0  0  2  0  0  0  0  0  0
  191.5730  174.1460  140.3310 C   0  0  0  0  0  1  0  0  0  0  0  0
  186.1550  176.9670  145.1130 C   0  0  0  0  0  3  0  0  0  0  0  0
  187.3990  176.4470  144.5210 C   0  0  0  0  0  0  0  0  0  0  0  0
  190.8160  173.7770  141.6010 C   0  0  2  0  0  3  0  0  0  0  0  0
  193.0000  173.8160  145.7370 C   0  0  0  0  0  2  0  0  0  0  0  0
  194.1610  175.9270  146.4080 C   0  0  0  0  0  1  0  0  0  0  0  0
  194.3380  174.4530  146.1030 C   0  0  0  0  0  2  0  0  0  0  0  0
  1 19  1  0  0  0  0
  1  5  1  0  0  0  0
  2 13  1  0  0  0  0
  2 16  2  0  0  0  0
  3 17  1  0  0  0  0
  4  1  2  0  0  0  0
  6  8  2  0  0  0  0
  7 15  1  6  0  0  0
  7 27  1  0  0  0  0
  8 11  1  0  0  0  0
  9 14  1  6  0  0  0
  9 22  1  0  0  0  0
  9  7  1  0  0  0  0
 10  3  1  0  0  0  0
 11  5  1  0  0  0  0
 11 28  1  1  0  0  0
 12  4  1  1  0  0  0
 12  8  1  0  0  0  0
 17 26  1  0  0  0  0
 18 13  1  0  0  0  0
 19  2  1  0  0  0  0
 20 17  2  0  0  0  0
 20  4  1  0  0  0  0
 21 10  2  0  0  0  0
 22 10  1  1  0  0  0
 22 20  1  0  0  0  0
 23 14  1  0  0  0  0
 23 15  1  0  0  0  0
 25 18  2  0  0  0  0
 26 25  1  0  0  0  0
 26 19  2  0  0  0  0
 27 24  1  6  0  0  0
 27 12  1  0  0  0  0
 28 30  1  0  0  0  0
 30 29  1  0  0  0  0
M  END
>  <MODEL>
8

>  <REMARK>
 VINA RESULT:      -7.4      1.729      2.348
  Name = 
  2 active torsions:
  status: ('A' for Active; 'I' for Inactive)
    1  A    between atoms: C_9  and  C_12
    2  A    between atoms: C_9  and  C_21
                            x       y       z     vdW  Elec       q    Type
                         _______ _______ _______ _____ _____    ______ ____

>  <TORSDO>
F 2

$$$$
=
 OpenBabel11052417133D

 30 35  0  0  1  0  0  0  0  0999 V2000
  189.1770  175.3620  142.2370 C   0  0  0  0  0  0  0  0  0  0  0  0
  189.2910  173.8800  140.1440 C   0  0  0  0  0  0  0  0  0  0  0  0
  193.2640  174.7850  143.0260 N   0  0  0  0  0  2  0  0  0  0  0  0
  189.8450  175.9730  143.3200 C   0  0  0  0  0  0  0  0  0  0  0  0
  187.6790  175.4530  142.1850 C   0  0  0  0  0  2  0  0  0  0  0  0
  187.3470  178.4170  144.3210 O   0  0  0  0  0  0  0  0  0  0  0  0
  189.9760  175.2410  146.1210 C   0  0  1  0  0  3  0  0  0  0  0  0
  187.8270  177.4290  143.7860 C   0  0  0  0  0  0  0  0  0  0  0  0
  191.4900  175.3230  145.9250 C   0  0  2  0  0  3  0  0  0  0  0  0
  193.3240  175.4910  144.2660 C   0  0  0  0  0  0  0  0  0  0  0  0
  187.1390  176.8300  142.5790 C   0  0  2  0  0  3  0  0  0  0  0  0
  189.1520  176.9080  144.2760 C   0  0  1  0  0  3  0  0  0  0  0  0
  190.1530  173.3440  139.0360 C   0  0  0  0  0  2  0  0  0  0  0  0
  192.0580  175.7880  147.1170 O   0  0  0  0  0  0  0  0  0  0  0  0
  189.8730  174.9380  147.5890 C   0  0  0  0  0  2  0  0  0  0  0  0
  188.0410  173.7740  140.0350 O   0  0  0  0  0  0  0  0  0  0  0  0
  191.9160  174.9580  142.6170 C   0  0  0  0  0  0  0  0  0  0  0  0
  191.5490  173.0110  139.4850 C   0  0  0  0  0  3  0  0  0  0  0  0
  189.9150  174.5620  141.3110 C   0  0  0  0  0  0  0  0  0  0  0  0
  191.2010  175.7250  143.5000 C   0  0  0  0  0  0  0  0  0  0  0  0
  194.3900  175.5980  144.9280 O   0  0  0  0  0  0  0  0  0  0  0  0
  192.0140  176.0850  144.6960 C   0  0  1  0  0  3  0  0  0  0  0  0
  191.2670  175.2190  148.1310 C   0  0  0  0  0  2  0  0  0  0  0  0
  189.5490  177.7230  146.6010 C   0  0  0  0  0  1  0  0  0  0  0  0
  192.0850  173.5140  140.5980 C   0  0  0  0  0  3  0  0  0  0  0  0
  191.3090  174.3790  141.5030 C   0  0  0  0  0  0  0  0  0  0  0  0
  189.1580  176.5110  145.7640 C   0  0  2  0  0  3  0  0  0  0  0  0
  185.6140  176.7950  142.7250 C   0  0  0  0  0  2  0  0  0  0  0  0
  185.6010  178.1090  140.5960 C   0  0  0  0  0  1  0  0  0  0  0  0
  184.9050  177.8840  141.9240 C   0  0  0  0  0  2  0  0  0  0  0  0
  1  4  1  0  0  0  0
  2 19  1  0  0  0  0
  3 10  1  0  0  0  0
  4 20  2  0  0  0  0
  5  1  1  0  0  0  0
  5 11  1  0  0  0  0
  7 15  1  1  0  0  0
  8 12  1  0  0  0  0
  8  6  2  0  0  0  0
  9  7  1  0  0  0  0
  9 14  1  1  0  0  0
 10 22  1  0  0  0  0
 10 21  2  0  0  0  0
 11 28  1  1  0  0  0
 11  8  1  0  0  0  0
 12  4  1  6  0  0  0
 12 27  1  0  0  0  0
 13 18  1  0  0  0  0
 13  2  1  0  0  0  0
 14 23  1  0  0  0  0
 15 23  1  0  0  0  0
 16  2  2  0  0  0  0
 17  3  1  0  0  0  0
 17 20  1  0  0  0  0
 18 25  2  0  0  0  0
 19 26  1  0  0  0  0
 19  1  2  0  0  0  0
 22 20  1  6  0  0  0
 22  9  1  0  0  0  0
 25 26  1  0  0  0  0
 26 17  2  0  0  0  0
 27  7  1  0  0  0  0
 27 24  1  1  0  0  0
 29 30  1  0  0  0  0
 30 28  1  0  0  0  0
M  END
>  <MODEL>
9

>  <REMARK>
 VINA RESULT:      -7.4      2.554      7.047
  Name = 
  2 active torsions:
  status: ('A' for Active; 'I' for Inactive)
    1  A    between atoms: C_9  and  C_12
    2  A    between atoms: C_9  and  C_21
                            x       y       z     vdW  Elec       q    Type
                         _______ _______ _______ _____ _____    ______ ____

>  <TORSDO>
F 2

$$$$
