=
 OpenBabel11052418343D

 27 31  0  0  1  0  0  0  0  0999 V2000
  190.0200  174.8450  142.9430 N   0  0  0  0  0  0  0  0  0  0  0  0
  188.1400  176.1250  142.2650 C   0  0  0  0  0  0  0  0  0  0  0  0
  189.5600  177.6040  145.3400 C   0  0  0  0  0  3  0  0  0  0  0  0
  187.0260  176.5250  141.4850 N   0  0  0  0  0  0  0  0  0  0  0  0
  191.4850  176.2650  145.9980 C   0  0  0  0  0  0  0  0  0  0  0  0
  189.0040  175.0370  142.0460 C   0  0  0  0  0  0  0  0  0  0  0  0
  187.2450  178.0000  143.2990 C   0  0  1  0  0  3  0  0  0  0  0  0
  190.2180  175.6660  144.0170 C   0  0  0  0  0  0  0  0  0  0  0  0
  188.3100  176.9560  143.3390 C   0  0  0  0  0  0  0  0  0  0  0  0
  190.6220  177.3550  146.2140 C   0  0  0  0  0  3  0  0  0  0  0  0
  186.5140  177.5770  142.0480 C   0  0  0  0  0  3  0  0  0  0  0  0
  191.2770  175.4260  144.8980 C   0  0  0  0  0  3  0  0  0  0  0  0
  189.3550  176.7630  144.2430 C   0  0  0  0  0  0  0  0  0  0  0  0
  185.9860  176.7110  145.0860 C   0  0  0  0  0  3  0  0  0  0  0  0
  184.7020  177.8810  146.7250 N   0  0  0  0  0  0  0  0  0  0  0  0
  185.0380  179.0780  146.1740 C   0  0  0  0  0  3  0  0  0  0  0  0
  185.8680  179.1240  145.0520 C   0  0  0  0  0  3  0  0  0  0  0  0
  186.3470  177.9340  144.5000 C   0  0  0  0  0  0  0  0  0  0  0  0
  185.1550  176.7070  146.2090 C   0  0  0  0  0  3  0  0  0  0  0  0
  188.7260  172.4800  138.5960 C   0  0  0  0  0  3  0  0  0  0  0  0
  188.8520  174.1030  140.9020 C   0  0  0  0  0  0  0  0  0  0  0  0
  189.1060  172.6220  141.0460 C   0  0  0  0  0  2  0  0  0  0  0  0
  189.5890  172.0100  139.7310 C   0  0  0  0  0  2  0  0  0  0  0  0
  188.2090  173.6720  138.6110 N   0  0  0  0  0  0  0  0  0  0  0  0
  188.3710  174.5540  139.7330 C   0  0  0  0  0  3  0  0  0  0  0  0
  193.8940  176.3490  146.5540 C   0  0  0  0  0  1  0  0  0  0  0  0
  192.5520  175.9960  146.8600 O   0  0  0  0  0  0  0  0  0  0  0  0
  1  8  1  0  0  0  0
  2  9  2  0  0  0  0
  3 10  1  0  0  0  0
  4 11  2  0  0  0  0
  4  2  1  0  0  0  0
  5 10  2  0  0  0  0
  5 27  1  0  0  0  0
  6  2  1  0  0  0  0
  6  1  2  0  0  0  0
  7  9  1  0  0  0  0
  7 18  1  1  0  0  0
  8 13  1  0  0  0  0
  8 12  2  0  0  0  0
  9 13  1  0  0  0  0
 11  7  1  0  0  0  0
 12  5  1  0  0  0  0
 13  3  2  0  0  0  0
 14 19  1  0  0  0  0
 16 15  1  0  0  0  0
 17 16  2  0  0  0  0
 18 17  1  0  0  0  0
 18 14  2  0  0  0  0
 19 15  2  0  0  0  0
 20 24  2  0  0  0  0
 20 23  1  0  0  0  0
 21 22  1  0  0  0  0
 21  6  1  0  0  0  0
 23 22  1  0  0  0  0
 24 25  1  0  0  0  0
 25 21  2  0  0  0  0
 26 27  1  0  0  0  0
M  END
>  <MODEL>
1

>  <REMARK>
 VINA RESULT:      -7.5      0.000      0.000
  Name = 
  3 active torsions:
  status: ('A' for Active; 'I' for Inactive)
    1  A    between atoms: C_9  and  C_15
    2  A    between atoms: C_13  and  O_22
    3  A    between atoms: C_14  and  C_17
                            x       y       z     vdW  Elec       q    Type
                         _______ _______ _______ _____ _____    ______ ____

>  <TORSDO>
F 3

$$$$
=
 OpenBabel11052418343D

 27 31  0  0  1  0  0  0  0  0999 V2000
  190.2890  174.8400  144.7750 N   0  0  0  0  0  0  0  0  0  0  0  0
  188.6120  175.7970  143.3960 C   0  0  0  0  0  0  0  0  0  0  0  0
  189.1360  177.9690  146.3400 C   0  0  0  0  0  3  0  0  0  0  0  0
  187.7270  175.9400  142.2970 N   0  0  0  0  0  0  0  0  0  0  0  0
  190.8630  176.9530  147.7240 C   0  0  0  0  0  0  0  0  0  0  0  0
  189.5360  174.7650  143.6340 C   0  0  0  0  0  0  0  0  0  0  0  0
  187.4210  177.7570  143.7530 C   0  0  1  0  0  3  0  0  0  0  0  0
  190.1750  175.8700  145.6650 C   0  0  0  0  0  0  0  0  0  0  0  0
  188.4710  176.8350  144.2770 C   0  0  0  0  0  0  0  0  0  0  0  0
  189.9410  177.9880  147.4830 C   0  0  0  0  0  3  0  0  0  0  0  0
  187.0540  177.0350  142.4790 C   0  0  0  0  0  3  0  0  0  0  0  0
  190.9750  175.8990  146.8110 C   0  0  0  0  0  3  0  0  0  0  0  0
  189.2500  176.9130  145.4310 C   0  0  0  0  0  0  0  0  0  0  0  0
  185.4200  178.9890  144.7140 C   0  0  0  0  0  3  0  0  0  0  0  0
  184.0760  177.9590  146.3970 N   0  0  0  0  0  0  0  0  0  0  0  0
  184.8600  176.8470  146.3810 C   0  0  0  0  0  3  0  0  0  0  0  0
  185.9570  176.7760  145.5210 C   0  0  0  0  0  3  0  0  0  0  0  0
  186.2430  177.8530  144.6790 C   0  0  0  0  0  0  0  0  0  0  0  0
  184.3320  179.0210  145.5870 C   0  0  0  0  0  3  0  0  0  0  0  0
  190.3110  171.4820  140.9600 C   0  0  0  0  0  3  0  0  0  0  0  0
  189.7160  173.6140  142.7140 C   0  0  0  0  0  0  0  0  0  0  0  0
  189.2270  172.2300  143.0670 C   0  0  0  0  0  2  0  0  0  0  0  0
  190.0870  171.1510  142.4080 C   0  0  0  0  0  2  0  0  0  0  0  0
  190.4050  172.7200  140.5750 N   0  0  0  0  0  0  0  0  0  0  0  0
  190.2240  173.8140  141.4880 C   0  0  0  0  0  3  0  0  0  0  0  0
  191.5930  177.9480  149.8690 C   0  0  0  0  0  1  0  0  0  0  0  0
  191.6780  176.9510  148.8610 O   0  0  0  0  0  0  0  0  0  0  0  0
  1  8  1  0  0  0  0
  2  6  1  0  0  0  0
  2  9  2  0  0  0  0
  3 10  1  0  0  0  0
  4 11  2  0  0  0  0
  4  2  1  0  0  0  0
  5 27  1  0  0  0  0
  6  1  2  0  0  0  0
  7  9  1  0  0  0  0
  7 18  1  1  0  0  0
  8 12  2  0  0  0  0
  9 13  1  0  0  0  0
 10  5  2  0  0  0  0
 11  7  1  0  0  0  0
 12  5  1  0  0  0  0
 13  8  1  0  0  0  0
 13  3  2  0  0  0  0
 14 19  1  0  0  0  0
 16 15  1  0  0  0  0
 17 16  2  0  0  0  0
 18 14  2  0  0  0  0
 18 17  1  0  0  0  0
 19 15  2  0  0  0  0
 20 23  1  0  0  0  0
 21 22  1  0  0  0  0
 21  6  1  0  0  0  0
 23 22  1  0  0  0  0
 24 20  2  0  0  0  0
 24 25  1  0  0  0  0
 25 21  2  0  0  0  0
 27 26  1  0  0  0  0
M  END
>  <MODEL>
2

>  <REMARK>
 VINA RESULT:      -7.4      1.599      2.087
  Name = 
  3 active torsions:
  status: ('A' for Active; 'I' for Inactive)
    1  A    between atoms: C_9  and  C_15
    2  A    between atoms: C_13  and  O_22
    3  A    between atoms: C_14  and  C_17
                            x       y       z     vdW  Elec       q    Type
                         _______ _______ _______ _____ _____    ______ ____

>  <TORSDO>
F 3

$$$$
=
 OpenBabel11052418343D

 27 31  0  0  1  0  0  0  0  0999 V2000
  188.2700  175.5520  141.5980 N   0  0  0  0  0  0  0  0  0  0  0  0
  189.4350  174.0270  142.9940 C   0  0  0  0  0  0  0  0  0  0  0  0
  187.9270  176.6700  145.0910 C   0  0  0  0  0  3  0  0  0  0  0  0
  190.2170  172.9020  143.3570 N   0  0  0  0  0  0  0  0  0  0  0  0
  186.7420  178.2100  143.6230 C   0  0  0  0  0  0  0  0  0  0  0  0
  189.0270  174.4170  141.7060 C   0  0  0  0  0  0  0  0  0  0  0  0
  189.6670  174.1000  145.3020 C   0  0  1  0  0  3  0  0  0  0  0  0
  187.9020  176.2970  142.6830 C   0  0  0  0  0  0  0  0  0  0  0  0
  189.0880  174.7610  144.0960 C   0  0  0  0  0  0  0  0  0  0  0  0
  187.1470  177.8160  144.9110 C   0  0  0  0  0  3  0  0  0  0  0  0
  190.3550  172.9240  144.6490 C   0  0  0  0  0  3  0  0  0  0  0  0
  187.1230  177.4450  142.5150 C   0  0  0  0  0  3  0  0  0  0  0  0
  188.3070  175.9100  143.9810 C   0  0  0  0  0  0  0  0  0  0  0  0
  191.7790  175.5070  145.3480 C   0  0  0  0  0  3  0  0  0  0  0  0
  192.4330  176.6180  147.3580 N   0  0  0  0  0  0  0  0  0  0  0  0
  191.3530  176.1210  148.0170 C   0  0  0  0  0  3  0  0  0  0  0  0
  190.4450  175.2940  147.3520 C   0  0  0  0  0  3  0  0  0  0  0  0
  190.6570  174.9820  146.0070 C   0  0  0  0  0  0  0  0  0  0  0  0
  192.6620  176.3310  146.0490 C   0  0  0  0  0  3  0  0  0  0  0  0
  189.8960  172.3610  138.0260 C   0  0  0  0  0  3  0  0  0  0  0  0
  189.3870  173.6590  140.4810 C   0  0  0  0  0  0  0  0  0  0  0  0
  190.8140  173.5650  139.9950 C   0  0  0  0  0  2  0  0  0  0  0  0
  190.8750  173.4070  138.4760 C   0  0  0  0  0  2  0  0  0  0  0  0
  188.7710  172.1970  138.6550 N   0  0  0  0  0  0  0  0  0  0  0  0
  188.4510  172.9440  139.8400 C   0  0  0  0  0  3  0  0  0  0  0  0
  184.8290  179.6610  144.2170 C   0  0  0  0  0  1  0  0  0  0  0  0
  185.9620  179.3520  143.4190 O   0  0  0  0  0  0  0  0  0  0  0  0
  1  6  2  0  0  0  0
  1  8  1  0  0  0  0
  2  4  1  0  0  0  0
  2  9  2  0  0  0  0
  4 11  2  0  0  0  0
  5 10  2  0  0  0  0
  6  2  1  0  0  0  0
  7 18  1  6  0  0  0
  8 13  1  0  0  0  0
  9  7  1  0  0  0  0
 10  3  1  0  0  0  0
 11  7  1  0  0  0  0
 12  8  2  0  0  0  0
 12  5  1  0  0  0  0
 13  9  1  0  0  0  0
 13  3  2  0  0  0  0
 14 18  2  0  0  0  0
 14 19  1  0  0  0  0
 15 16  1  0  0  0  0
 17 16  2  0  0  0  0
 18 17  1  0  0  0  0
 19 15  2  0  0  0  0
 20 23  1  0  0  0  0
 20 24  2  0  0  0  0
 21  6  1  0  0  0  0
 22 21  1  0  0  0  0
 23 22  1  0  0  0  0
 24 25  1  0  0  0  0
 25 21  2  0  0  0  0
 27  5  1  0  0  0  0
 27 26  1  0  0  0  0
M  END
>  <MODEL>
3

>  <REMARK>
 VINA RESULT:      -7.3      2.464      4.937
  Name = 
  3 active torsions:
  status: ('A' for Active; 'I' for Inactive)
    1  A    between atoms: C_9  and  C_15
    2  A    between atoms: C_13  and  O_22
    3  A    between atoms: C_14  and  C_17
                            x       y       z     vdW  Elec       q    Type
                         _______ _______ _______ _____ _____    ______ ____

>  <TORSDO>
F 3

$$$$
=
 OpenBabel11052418343D

 27 31  0  0  1  0  0  0  0  0999 V2000
  190.2640  176.9390  143.2640 N   0  0  0  0  0  0  0  0  0  0  0  0
  189.6540  176.2120  145.4390 C   0  0  0  0  0  0  0  0  0  0  0  0
  186.5900  176.7630  143.4480 C   0  0  0  0  0  3  0  0  0  0  0  0
  189.8120  175.7790  146.7790 N   0  0  0  0  0  0  0  0  0  0  0  0
  187.2590  177.5040  141.2270 C   0  0  0  0  0  0  0  0  0  0  0  0
  190.6600  176.5410  144.5120 C   0  0  0  0  0  0  0  0  0  0  0  0
  187.5180  175.8860  146.2850 C   0  0  1  0  0  3  0  0  0  0  0  0
  188.9500  177.0180  142.8980 C   0  0  0  0  0  0  0  0  0  0  0  0
  188.3300  176.2920  145.1010 C   0  0  0  0  0  0  0  0  0  0  0  0
  186.2550  177.1710  142.1540 C   0  0  0  0  0  3  0  0  0  0  0  0
  188.6240  175.5880  147.2690 C   0  0  0  0  0  3  0  0  0  0  0  0
  188.6030  177.4250  141.6060 C   0  0  0  0  0  3  0  0  0  0  0  0
  187.9340  176.6860  143.8240 C   0  0  0  0  0  0  0  0  0  0  0  0
  187.1650  178.0890  147.4970 C   0  0  0  0  0  3  0  0  0  0  0  0
  184.9790  179.0410  147.6380 N   0  0  0  0  0  0  0  0  0  0  0  0
  184.4510  177.9990  146.9410 C   0  0  0  0  0  3  0  0  0  0  0  0
  185.2750  176.9620  146.4980 C   0  0  0  0  0  3  0  0  0  0  0  0
  186.6430  177.0040  146.7770 C   0  0  0  0  0  0  0  0  0  0  0  0
  186.3080  179.1060  147.9220 C   0  0  0  0  0  3  0  0  0  0  0  0
  194.8870  176.5860  145.3190 C   0  0  0  0  0  3  0  0  0  0  0  0
  192.1070  176.4800  144.8360 C   0  0  0  0  0  0  0  0  0  0  0  0
  192.5990  176.3490  146.2570 C   0  0  0  0  0  2  0  0  0  0  0  0
  193.9700  177.0010  146.4340 C   0  0  0  0  0  2  0  0  0  0  0  0
  194.4170  176.3640  144.1280 N   0  0  0  0  0  0  0  0  0  0  0  0
  193.0100  176.4280  143.8450 C   0  0  0  0  0  3  0  0  0  0  0  0
  186.6620  177.0000  138.8800 C   0  0  0  0  0  1  0  0  0  0  0  0
  186.9480  177.9150  139.9280 O   0  0  0  0  0  0  0  0  0  0  0  0
  1  6  1  0  0  0  0
  2  4  1  0  0  0  0
  3 13  1  0  0  0  0
  4 11  2  0  0  0  0
  5 12  2  0  0  0  0
  5 10  1  0  0  0  0
  6 21  1  0  0  0  0
  6  2  2  0  0  0  0
  7 18  1  1  0  0  0
  7 11  1  0  0  0  0
  8  1  2  0  0  0  0
  8 13  1  0  0  0  0
  9  2  1  0  0  0  0
  9  7  1  0  0  0  0
 10  3  2  0  0  0  0
 12  8  1  0  0  0  0
 13  9  2  0  0  0  0
 14 19  1  0  0  0  0
 15 19  2  0  0  0  0
 16 15  1  0  0  0  0
 17 18  1  0  0  0  0
 17 16  2  0  0  0  0
 18 14  2  0  0  0  0
 20 23  1  0  0  0  0
 21 22  1  0  0  0  0
 22 23  1  0  0  0  0
 24 20  2  0  0  0  0
 25 24  1  0  0  0  0
 25 21  2  0  0  0  0
 26 27  1  0  0  0  0
 27  5  1  0  0  0  0
M  END
>  <MODEL>
4

>  <REMARK>
 VINA RESULT:      -7.3      3.207      5.645
  Name = 
  3 active torsions:
  status: ('A' for Active; 'I' for Inactive)
    1  A    between atoms: C_9  and  C_15
    2  A    between atoms: C_13  and  O_22
    3  A    between atoms: C_14  and  C_17
                            x       y       z     vdW  Elec       q    Type
                         _______ _______ _______ _____ _____    ______ ____

>  <TORSDO>
F 3

$$$$
=
 OpenBabel11052418343D

 27 31  0  0  1  0  0  0  0  0999 V2000
  188.2240  175.1220  142.9210 N   0  0  0  0  0  0  0  0  0  0  0  0
  189.5930  176.9890  143.4410 C   0  0  0  0  0  0  0  0  0  0  0  0
  191.7390  174.1960  142.3230 C   0  0  0  0  0  3  0  0  0  0  0  0
  189.9360  178.3010  143.8540 N   0  0  0  0  0  0  0  0  0  0  0  0
  190.2980  172.3040  141.7980 C   0  0  0  0  0  0  0  0  0  0  0  0
  188.3100  176.4190  143.3470 C   0  0  0  0  0  0  0  0  0  0  0  0
  191.9060  177.1380  143.3210 C   0  0  1  0  0  3  0  0  0  0  0  0
  189.3230  174.3830  142.5830 C   0  0  0  0  0  0  0  0  0  0  0  0
  190.7100  176.2680  143.1180 C   0  0  0  0  0  0  0  0  0  0  0  0
  191.5790  172.8770  141.8880 C   0  0  0  0  0  3  0  0  0  0  0  0
  191.2290  178.4040  143.7900 C   0  0  0  0  0  3  0  0  0  0  0  0
  189.1750  173.0630  142.1470 C   0  0  0  0  0  3  0  0  0  0  0  0
  190.6150  174.9510  142.6720 C   0  0  0  0  0  0  0  0  0  0  0  0
  192.3820  176.3350  145.6810 C   0  0  0  0  0  3  0  0  0  0  0  0
  194.5680  175.5710  146.2670 N   0  0  0  0  0  0  0  0  0  0  0  0
  195.0200  175.8150  145.0080 C   0  0  0  0  0  3  0  0  0  0  0  0
  194.1560  176.3290  144.0400 C   0  0  0  0  0  3  0  0  0  0  0  0
  192.8260  176.5940  144.3750 C   0  0  0  0  0  0  0  0  0  0  0  0
  193.2780  175.8190  146.6200 C   0  0  0  0  0  3  0  0  0  0  0  0
  184.8310  178.6320  144.5800 C   0  0  0  0  0  3  0  0  0  0  0  0
  187.0710  177.1580  143.6960 C   0  0  0  0  0  0  0  0  0  0  0  0
  186.4740  178.1900  142.7700 C   0  0  0  0  0  2  0  0  0  0  0  0
  185.7190  179.2680  143.5500 C   0  0  0  0  0  2  0  0  0  0  0  0
  185.1870  177.5290  145.1670 N   0  0  0  0  0  0  0  0  0  0  0  0
  186.3920  176.8340  144.8070 C   0  0  0  0  0  3  0  0  0  0  0  0
  190.8450  169.8940  141.9030 C   0  0  0  0  0  1  0  0  0  0  0  0
  190.1140  170.9880  141.3670 O   0  0  0  0  0  0  0  0  0  0  0  0
  1  6  1  0  0  0  0
  2  4  1  0  0  0  0
  3 13  1  0  0  0  0
  5 10  1  0  0  0  0
  5 12  2  0  0  0  0
  6  2  2  0  0  0  0
  6 21  1  0  0  0  0
  7 11  1  0  0  0  0
  7 18  1  1  0  0  0
  8 13  1  0  0  0  0
  8  1  2  0  0  0  0
  9  7  1  0  0  0  0
  9  2  1  0  0  0  0
 10  3  2  0  0  0  0
 11  4  2  0  0  0  0
 12  8  1  0  0  0  0
 13  9  2  0  0  0  0
 14 19  1  0  0  0  0
 15 19  2  0  0  0  0
 16 15  1  0  0  0  0
 17 18  1  0  0  0  0
 17 16  2  0  0  0  0
 18 14  2  0  0  0  0
 20 24  2  0  0  0  0
 21 25  2  0  0  0  0
 22 23  1  0  0  0  0
 22 21  1  0  0  0  0
 23 20  1  0  0  0  0
 25 24  1  0  0  0  0
 27  5  1  0  0  0  0
 27 26  1  0  0  0  0
M  END
>  <MODEL>
5

>  <REMARK>
 VINA RESULT:      -7.2      2.580      6.455
  Name = 
  3 active torsions:
  status: ('A' for Active; 'I' for Inactive)
    1  A    between atoms: C_9  and  C_15
    2  A    between atoms: C_13  and  O_22
    3  A    between atoms: C_14  and  C_17
                            x       y       z     vdW  Elec       q    Type
                         _______ _______ _______ _____ _____    ______ ____

>  <TORSDO>
F 3

$$$$
=
 OpenBabel11052418343D

 27 31  0  0  1  0  0  0  0  0999 V2000
  188.2800  174.9860  143.4110 N   0  0  0  0  0  0  0  0  0  0  0  0
  189.6630  176.8890  143.7260 C   0  0  0  0  0  0  0  0  0  0  0  0
  191.7260  174.0970  142.4580 C   0  0  0  0  0  3  0  0  0  0  0  0
  190.0240  178.2170  144.0630 N   0  0  0  0  0  0  0  0  0  0  0  0
  190.2720  172.1690  142.1460 C   0  0  0  0  0  0  0  0  0  0  0  0
  188.3890  176.2960  143.7900 C   0  0  0  0  0  0  0  0  0  0  0  0
  191.9450  177.0700  143.3500 C   0  0  1  0  0  3  0  0  0  0  0  0
  189.3500  174.2550  142.9760 C   0  0  0  0  0  0  0  0  0  0  0  0
  190.7520  176.1760  143.3030 C   0  0  0  0  0  0  0  0  0  0  0  0
  191.5440  172.7640  142.0790 C   0  0  0  0  0  3  0  0  0  0  0  0
  191.3000  178.3390  143.8550 C   0  0  0  0  0  3  0  0  0  0  0  0
  189.1800  172.9210  142.5950 C   0  0  0  0  0  3  0  0  0  0  0  0
  190.6330  174.8450  142.9060 C   0  0  0  0  0  0  0  0  0  0  0  0
  192.6960  176.3600  145.6680 C   0  0  0  0  0  3  0  0  0  0  0  0
  194.9420  175.6310  146.0280 N   0  0  0  0  0  0  0  0  0  0  0  0
  195.2450  175.8290  144.7170 C   0  0  0  0  0  3  0  0  0  0  0  0
  194.2710  176.3020  143.8360 C   0  0  0  0  0  3  0  0  0  0  0  0
  192.9850  176.5710  144.3120 C   0  0  0  0  0  0  0  0  0  0  0  0
  193.6980  175.8850  146.5170 C   0  0  0  0  0  3  0  0  0  0  0  0
  184.7510  178.2810  144.9530 C   0  0  0  0  0  3  0  0  0  0  0  0
  187.1810  177.0260  144.2520 C   0  0  0  0  0  0  0  0  0  0  0  0
  186.7670  177.0390  145.7040 C   0  0  0  0  0  2  0  0  0  0  0  0
  185.2520  177.1850  145.8490 C   0  0  0  0  0  2  0  0  0  0  0  0
  185.3230  178.5100  143.8090 N   0  0  0  0  0  0  0  0  0  0  0  0
  186.4930  177.7890  143.3890 C   0  0  0  0  0  3  0  0  0  0  0  0
  191.1020  169.8650  141.7970 C   0  0  0  0  0  1  0  0  0  0  0  0
  190.0670  170.8380  141.7730 O   0  0  0  0  0  0  0  0  0  0  0  0
  1  6  1  0  0  0  0
  2  6  2  0  0  0  0
  2  4  1  0  0  0  0
  3 13  1  0  0  0  0
  5 12  2  0  0  0  0
  6 21  1  0  0  0  0
  7 11  1  0  0  0  0
  7 18  1  1  0  0  0
  8  1  2  0  0  0  0
  9  7  1  0  0  0  0
  9  2  1  0  0  0  0
 10  5  1  0  0  0  0
 10  3  2  0  0  0  0
 11  4  2  0  0  0  0
 12  8  1  0  0  0  0
 13  8  1  0  0  0  0
 13  9  2  0  0  0  0
 14 19  1  0  0  0  0
 15 19  2  0  0  0  0
 16 15  1  0  0  0  0
 17 18  1  0  0  0  0
 17 16  2  0  0  0  0
 18 14  2  0  0  0  0
 20 23  1  0  0  0  0
 21 22  1  0  0  0  0
 22 23  1  0  0  0  0
 24 20  2  0  0  0  0
 25 24  1  0  0  0  0
 25 21  2  0  0  0  0
 27 26  1  0  0  0  0
 27  5  1  0  0  0  0
M  END
>  <MODEL>
6

>  <REMARK>
 VINA RESULT:      -7.2      2.658      6.510
  Name = 
  3 active torsions:
  status: ('A' for Active; 'I' for Inactive)
    1  A    between atoms: C_9  and  C_15
    2  A    between atoms: C_13  and  O_22
    3  A    between atoms: C_14  and  C_17
                            x       y       z     vdW  Elec       q    Type
                         _______ _______ _______ _____ _____    ______ ____

>  <TORSDO>
F 3

$$$$
=
 OpenBabel11052418343D

 27 31  0  0  1  0  0  0  0  0999 V2000
  187.5880  175.6160  143.1000 N   0  0  0  0  0  0  0  0  0  0  0  0
  189.3120  176.9360  144.0560 C   0  0  0  0  0  0  0  0  0  0  0  0
  190.7960  174.6170  141.5910 C   0  0  0  0  0  3  0  0  0  0  0  0
  189.9230  177.9160  144.8780 N   0  0  0  0  0  0  0  0  0  0  0  0
  188.9970  173.2850  140.6340 C   0  0  0  0  0  0  0  0  0  0  0  0
  187.9470  176.6060  143.9730 C   0  0  0  0  0  0  0  0  0  0  0  0
  191.5870  176.8540  143.6040 C   0  0  1  0  0  3  0  0  0  0  0  0
  188.4950  174.9590  142.3180 C   0  0  0  0  0  0  0  0  0  0  0  0
  190.2430  176.2870  143.2910 C   0  0  0  0  0  0  0  0  0  0  0  0
  190.3610  173.6200  140.7150 C   0  0  0  0  0  3  0  0  0  0  0  0
  191.1990  177.8860  144.6360 C   0  0  0  0  0  3  0  0  0  0  0  0
  188.0710  173.9590  141.4380 C   0  0  0  0  0  3  0  0  0  0  0  0
  189.8690  175.2870  142.3940 C   0  0  0  0  0  0  0  0  0  0  0  0
  192.1330  175.0280  145.2810 C   0  0  0  0  0  3  0  0  0  0  0  0
  194.2520  173.9300  145.2080 N   0  0  0  0  0  0  0  0  0  0  0  0
  194.6400  174.6910  144.1490 C   0  0  0  0  0  3  0  0  0  0  0  0
  193.7740  175.6510  143.6200 C   0  0  0  0  0  3  0  0  0  0  0  0
  192.5100  175.8240  144.1890 C   0  0  0  0  0  0  0  0  0  0  0  0
  193.0260  174.0790  145.7790 C   0  0  0  0  0  3  0  0  0  0  0  0
  184.7580  178.5150  146.1430 C   0  0  0  0  0  3  0  0  0  0  0  0
  186.9040  177.2750  144.7900 C   0  0  0  0  0  0  0  0  0  0  0  0
  186.5480  176.7930  146.1760 C   0  0  0  0  0  2  0  0  0  0  0  0
  185.0880  177.0970  146.5130 C   0  0  0  0  0  2  0  0  0  0  0  0
  185.3220  179.0760  145.1160 N   0  0  0  0  0  0  0  0  0  0  0  0
  186.3320  178.4040  144.3450 C   0  0  0  0  0  3  0  0  0  0  0  0
  189.3180  171.7930  138.6870 C   0  0  0  0  0  1  0  0  0  0  0  0
  188.5380  172.2900  139.7660 O   0  0  0  0  0  0  0  0  0  0  0  0
  1  6  1  0  0  0  0
  2  4  1  0  0  0  0
  3 13  1  0  0  0  0
  5 10  1  0  0  0  0
  5 12  2  0  0  0  0
  6  2  2  0  0  0  0
  6 21  1  0  0  0  0
  7 18  1  1  0  0  0
  7 11  1  0  0  0  0
  8 13  1  0  0  0  0
  8  1  2  0  0  0  0
  9  7  1  0  0  0  0
  9  2  1  0  0  0  0
 10  3  2  0  0  0  0
 11  4  2  0  0  0  0
 12  8  1  0  0  0  0
 13  9  2  0  0  0  0
 14 19  1  0  0  0  0
 15 19  2  0  0  0  0
 16 15  1  0  0  0  0
 17 16  2  0  0  0  0
 17 18  1  0  0  0  0
 18 14  2  0  0  0  0
 20 23  1  0  0  0  0
 21 22  1  0  0  0  0
 22 23  1  0  0  0  0
 24 20  2  0  0  0  0
 25 21  2  0  0  0  0
 25 24  1  0  0  0  0
 26 27  1  0  0  0  0
 27  5  1  0  0  0  0
M  END
>  <MODEL>
7

>  <REMARK>
 VINA RESULT:      -7.1      2.527      6.889
  Name = 
  3 active torsions:
  status: ('A' for Active; 'I' for Inactive)
    1  A    between atoms: C_9  and  C_15
    2  A    between atoms: C_13  and  O_22
    3  A    between atoms: C_14  and  C_17
                            x       y       z     vdW  Elec       q    Type
                         _______ _______ _______ _____ _____    ______ ____

>  <TORSDO>
F 3

$$$$
=
 OpenBabel11052418343D

 27 31  0  0  1  0  0  0  0  0999 V2000
  191.4270  174.5450  143.1290 N   0  0  0  0  0  0  0  0  0  0  0  0
  190.0480  175.8370  144.5650 C   0  0  0  0  0  0  0  0  0  0  0  0
  187.9120  174.0170  142.1600 C   0  0  0  0  0  3  0  0  0  0  0  0
  189.6990  176.7260  145.6120 N   0  0  0  0  0  0  0  0  0  0  0  0
  189.3630  172.7050  140.7100 C   0  0  0  0  0  0  0  0  0  0  0  0
  191.3330  175.4150  144.1810 C   0  0  0  0  0  0  0  0  0  0  0  0
  187.7340  176.0150  144.5390 C   0  0  1  0  0  3  0  0  0  0  0  0
  190.3300  174.0790  142.4610 C   0  0  0  0  0  0  0  0  0  0  0  0
  188.9340  175.3930  143.9060 C   0  0  0  0  0  0  0  0  0  0  0  0
  188.0770  173.1240  141.0980 C   0  0  0  0  0  3  0  0  0  0  0  0
  188.4040  176.8360  145.6150 C   0  0  0  0  0  3  0  0  0  0  0  0
  190.4830  173.1860  141.3960 C   0  0  0  0  0  3  0  0  0  0  0  0
  189.0340  174.4970  142.8420 C   0  0  0  0  0  0  0  0  0  0  0  0
  185.5860  176.8290  143.4570 C   0  0  0  0  0  3  0  0  0  0  0  0
  185.6560  178.5510  141.8040 N   0  0  0  0  0  0  0  0  0  0  0  0
  187.0100  178.6300  141.9040 C   0  0  0  0  0  3  0  0  0  0  0  0
  187.6970  177.8020  142.7950 C   0  0  0  0  0  3  0  0  0  0  0  0
  186.9830  176.8920  143.5790 C   0  0  0  0  0  0  0  0  0  0  0  0
  184.9370  177.6750  142.5560 C   0  0  0  0  0  3  0  0  0  0  0  0
  194.8730  176.9920  146.0550 C   0  0  0  0  0  3  0  0  0  0  0  0
  192.5710  175.8770  144.8590 C   0  0  0  0  0  0  0  0  0  0  0  0
  192.8020  175.6480  146.3340 C   0  0  0  0  0  2  0  0  0  0  0  0
  193.6820  176.7440  146.9360 C   0  0  0  0  0  2  0  0  0  0  0  0
  194.7760  176.8660  144.7650 N   0  0  0  0  0  0  0  0  0  0  0  0
  193.5650  176.4150  144.1370 C   0  0  0  0  0  3  0  0  0  0  0  0
  189.9900  172.2290  138.3650 C   0  0  0  0  0  1  0  0  0  0  0  0
  189.5520  171.8130  139.6500 O   0  0  0  0  0  0  0  0  0  0  0  0
  1  6  1  0  0  0  0
  2  4  1  0  0  0  0
  3 13  1  0  0  0  0
  4 11  2  0  0  0  0
  5 10  1  0  0  0  0
  5 12  2  0  0  0  0
  6  2  2  0  0  0  0
  6 21  1  0  0  0  0
  7 18  1  6  0  0  0
  7 11  1  0  0  0  0
  8 13  1  0  0  0  0
  8  1  2  0  0  0  0
  9  7  1  0  0  0  0
  9  2  1  0  0  0  0
 10  3  2  0  0  0  0
 12  8  1  0  0  0  0
 13  9  2  0  0  0  0
 14 18  1  0  0  0  0
 15 16  2  0  0  0  0
 15 19  1  0  0  0  0
 16 17  1  0  0  0  0
 17 18  2  0  0  0  0
 19 14  2  0  0  0  0
 20 23  1  0  0  0  0
 21 22  1  0  0  0  0
 22 23  1  0  0  0  0
 24 20  2  0  0  0  0
 25 24  1  0  0  0  0
 25 21  2  0  0  0  0
 26 27  1  0  0  0  0
 27  5  1  0  0  0  0
M  END
>  <MODEL>
8

>  <REMARK>
 VINA RESULT:      -6.9      2.762      5.797
  Name = 
  3 active torsions:
  status: ('A' for Active; 'I' for Inactive)
    1  A    between atoms: C_9  and  C_15
    2  A    between atoms: C_13  and  O_22
    3  A    between atoms: C_14  and  C_17
                            x       y       z     vdW  Elec       q    Type
                         _______ _______ _______ _____ _____    ______ ____

>  <TORSDO>
F 3

$$$$
=
 OpenBabel11052418343D

 27 31  0  0  1  0  0  0  0  0999 V2000
  189.6160  176.5460  144.6220 N   0  0  0  0  0  0  0  0  0  0  0  0
  188.4750  175.0110  143.2180 C   0  0  0  0  0  0  0  0  0  0  0  0
  191.6850  173.5180  144.2780 C   0  0  0  0  0  3  0  0  0  0  0  0
  187.4510  174.4900  142.3880 N   0  0  0  0  0  0  0  0  0  0  0  0
  192.8210  175.1220  145.7150 C   0  0  0  0  0  0  0  0  0  0  0  0
  188.5130  176.2590  143.8650 C   0  0  0  0  0  0  0  0  0  0  0  0
  189.1750  172.9030  142.5450 C   0  0  1  0  0  3  0  0  0  0  0  0
  190.6560  175.6720  144.7690 C   0  0  0  0  0  0  0  0  0  0  0  0
  189.5070  174.1200  143.3420 C   0  0  0  0  0  0  0  0  0  0  0  0
  192.7800  173.8720  145.0720 C   0  0  0  0  0  3  0  0  0  0  0  0
  187.8250  173.3070  142.0030 C   0  0  0  0  0  3  0  0  0  0  0  0
  191.7560  176.0150  145.5600 C   0  0  0  0  0  3  0  0  0  0  0  0
  190.6230  174.4130  144.1240 C   0  0  0  0  0  0  0  0  0  0  0  0
  190.4740  173.6800  140.5060 C   0  0  0  0  0  3  0  0  0  0  0  0
  191.9930  172.1930  139.4170 N   0  0  0  0  0  0  0  0  0  0  0  0
  191.7020  171.2030  140.3030 C   0  0  0  0  0  3  0  0  0  0  0  0
  190.7800  171.4270  141.3270 C   0  0  0  0  0  3  0  0  0  0  0  0
  190.1580  172.6740  141.4320 C   0  0  0  0  0  0  0  0  0  0  0  0
  191.4020  173.4160  139.4980 C   0  0  0  0  0  3  0  0  0  0  0  0
  185.2740  179.0410  143.3230 C   0  0  0  0  0  3  0  0  0  0  0  0
  187.4220  177.2600  143.7520 C   0  0  0  0  0  0  0  0  0  0  0  0
  186.4640  177.5230  144.8880 C   0  0  0  0  0  2  0  0  0  0  0  0
  185.0990  177.9790  144.3710 C   0  0  0  0  0  2  0  0  0  0  0  0
  186.3010  179.0180  142.5280 N   0  0  0  0  0  0  0  0  0  0  0  0
  187.3420  178.0380  142.6620 C   0  0  0  0  0  3  0  0  0  0  0  0
  194.4410  176.8140  146.5130 C   0  0  0  0  0  1  0  0  0  0  0  0
  193.9060  175.4980  146.5130 O   0  0  0  0  0  0  0  0  0  0  0  0
  1  8  1  0  0  0  0
  2  9  2  0  0  0  0
  2  6  1  0  0  0  0
  3 10  1  0  0  0  0
  4  2  1  0  0  0  0
  5 27  1  0  0  0  0
  6  1  2  0  0  0  0
  7 18  1  6  0  0  0
  7  9  1  0  0  0  0
  8 12  2  0  0  0  0
  9 13  1  0  0  0  0
 10  5  2  0  0  0  0
 11  4  2  0  0  0  0
 11  7  1  0  0  0  0
 12  5  1  0  0  0  0
 13  3  2  0  0  0  0
 13  8  1  0  0  0  0
 14 18  1  0  0  0  0
 15 19  1  0  0  0  0
 15 16  2  0  0  0  0
 16 17  1  0  0  0  0
 17 18  2  0  0  0  0
 19 14  2  0  0  0  0
 20 23  1  0  0  0  0
 21  6  1  0  0  0  0
 21 22  1  0  0  0  0
 23 22  1  0  0  0  0
 24 25  1  0  0  0  0
 24 20  2  0  0  0  0
 25 21  2  0  0  0  0
 26 27  1  0  0  0  0
M  END
>  <MODEL>
9

>  <REMARK>
 VINA RESULT:      -6.8      1.947      6.077
  Name = 
  3 active torsions:
  status: ('A' for Active; 'I' for Inactive)
    1  A    between atoms: C_9  and  C_15
    2  A    between atoms: C_13  and  O_22
    3  A    between atoms: C_14  and  C_17
                            x       y       z     vdW  Elec       q    Type
                         _______ _______ _______ _____ _____    ______ ____

>  <TORSDO>
F 3

$$$$
