=
 OpenBabel11052420253D

 34 39  0  0  1  0  0  0  0  0999 V2000
  194.3710  173.4060  144.2910 C   0  0  0  0  0  0  0  0  0  0  0  0
  197.2610  171.2130  145.2070 C   0  0  0  0  0  3  0  0  0  0  0  0
  197.2130  173.6380  145.1260 C   0  0  0  0  0  2  0  0  0  0  0  0
  192.5710  174.6760  143.2540 C   0  0  0  0  0  0  0  0  0  0  0  0
  193.0260  173.4910  143.8880 C   0  0  0  0  0  3  0  0  0  0  0  0
  194.7630  175.6060  143.4730 C   0  0  0  0  0  0  0  0  0  0  0  0
  195.7760  176.4960  143.4260 N   0  0  0  0  0  0  0  0  0  0  0  0
  193.4480  175.7660  143.0460 C   0  0  0  0  0  3  0  0  0  0  0  0
  196.4260  174.6600  144.3640 C   0  0  0  0  0  0  0  0  0  0  0  0
  195.1500  174.4740  144.0480 N   0  0  0  0  0  0  0  0  0  0  0  0
  196.8270  175.8990  143.9960 N   0  0  0  0  0  0  0  0  0  0  0  0
  196.7450  169.8200  145.0810 C   0  0  0  0  0  2  0  0  0  0  0  0
  195.7810  169.4900  146.1760 C   0  0  0  0  0  0  0  0  0  0  0  0
  194.6170  170.1290  146.2930 C   0  0  0  0  0  3  0  0  0  0  0  0
  196.4920  172.3000  145.1310 C   0  0  0  0  0  0  0  0  0  0  0  0
  194.2000  171.3080  145.5110 C   0  0  0  0  0  3  0  0  0  0  0  0
  194.9930  172.2450  144.9640 C   0  0  0  0  0  0  0  0  0  0  0  0
  196.0410  168.3210  147.0720 C   0  0  2  0  0  3  0  0  0  0  0  0
  194.9570  168.1660  148.0270 N   0  0  0  0  0  1  0  0  0  0  0  0
  197.3560  168.4900  147.8100 C   0  0  0  0  0  1  0  0  0  0  0  0
  191.1360  174.7810  142.8130 C   0  0  0  0  0  2  0  0  0  0  0  0
  189.0400  175.4410  145.8510 C   0  0  0  0  0  2  0  0  0  0  0  0
  189.1850  176.1800  143.0020 C   0  0  0  0  0  2  0  0  0  0  0  0
  186.3730  178.1340  145.6170 C   0  0  0  0  0  0  0  0  0  0  0  0
  187.2030  177.1180  146.1120 C   0  0  0  0  0  3  0  0  0  0  0  0
  188.1250  176.4840  145.2750 C   0  0  0  0  0  0  0  0  0  0  0  0
  187.4080  177.8910  143.4320 C   0  0  0  0  0  3  0  0  0  0  0  0
  188.2420  176.8890  143.9310 C   0  0  0  0  0  0  0  0  0  0  0  0
  186.4810  178.5140  144.2720 C   0  0  0  0  0  3  0  0  0  0  0  0
  190.2730  175.5280  143.7380 N   0  0  0  0  0  0  0  0  0  0  0  0
  189.7150  174.6260  144.7490 C   0  0  0  0  0  2  0  0  0  0  0  0
  185.4250  178.7750  146.4820 N   0  0  0  0  0  0  0  0  0  0  0  0
  184.2030  178.7220  146.2350 O   0  0  0  0  0  0  0  0  0  0  0  0
  185.8550  179.4590  147.5970 O   0  0  0  0  0  0  0  0  0  0  0  0
  1 17  1  0  0  0  0
  3 15  1  0  0  0  0
  4  5  1  0  0  0  0
  5  1  2  0  0  0  0
  6 10  1  0  0  0  0
  7  6  2  0  0  0  0
  7 11  1  0  0  0  0
  8  4  2  0  0  0  0
  8  6  1  0  0  0  0
  9  3  1  0  0  0  0
 10  1  1  0  0  0  0
 10  9  1  0  0  0  0
 11  9  2  0  0  0  0
 12  2  1  0  0  0  0
 12 13  1  0  0  0  0
 13 14  2  0  0  0  0
 13 18  1  0  0  0  0
 15  2  2  0  0  0  0
 16 14  1  0  0  0  0
 17 15  1  0  0  0  0
 17 16  2  0  0  0  0
 18 20  1  1  0  0  0
 18 19  1  0  0  0  0
 21  4  1  0  0  0  0
 21 30  1  0  0  0  0
 23 30  1  0  0  0  0
 23 28  1  0  0  0  0
 24 25  1  0  0  0  0
 24 32  1  0  0  0  0
 26 22  1  0  0  0  0
 26 25  2  0  0  0  0
 27 28  2  0  0  0  0
 27 29  1  0  0  0  0
 28 26  1  0  0  0  0
 29 24  2  0  0  0  0
 30 31  1  0  0  0  0
 31 22  1  0  0  0  0
 32 34  2  0  0  0  0
 33 32  2  0  0  0  0
M  END
>  <MODEL>
1

>  <REMARK>
 VINA RESULT:      -8.6      0.000      0.000
  Name = 
  4 active torsions:
  status: ('A' for Active; 'I' for Inactive)
    1  A    between atoms: C_3  and  C_25
    2  A    between atoms: C_7  and  N_11
    3  A    between atoms: C_8  and  C_18
    4  A    between atoms: C_18  and  N_30
                            x       y       z     vdW  Elec       q    Type
                         _______ _______ _______ _____ _____    ______ ____

>  <TORSDO>
F 4

$$$$
=
 OpenBabel11052420253D

 34 39  0  0  1  0  0  0  0  0999 V2000
  190.2330  176.0590  143.9400 C   0  0  0  0  0  0  0  0  0  0  0  0
  186.6140  176.7340  143.2640 C   0  0  0  0  0  3  0  0  0  0  0  0
  188.0000  174.9930  142.2940 C   0  0  0  0  0  2  0  0  0  0  0  0
  192.6600  176.0170  144.1300 C   0  0  0  0  0  0  0  0  0  0  0  0
  191.3990  176.4240  144.6370 C   0  0  0  0  0  3  0  0  0  0  0  0
  191.5500  174.9180  142.3190 C   0  0  0  0  0  0  0  0  0  0  0  0
  191.3590  174.1660  141.2150 N   0  0  0  0  0  0  0  0  0  0  0  0
  192.7470  175.2400  142.9510 C   0  0  0  0  0  3  0  0  0  0  0  0
  189.4640  174.8320  142.0150 C   0  0  0  0  0  0  0  0  0  0  0  0
  190.3930  175.3330  142.8200 N   0  0  0  0  0  0  0  0  0  0  0  0
  190.0360  174.1070  141.0270 N   0  0  0  0  0  0  0  0  0  0  0  0
  186.2760  177.9130  144.1110 C   0  0  0  0  0  2  0  0  0  0  0  0
  186.2310  177.5530  145.5620 C   0  0  0  0  0  0  0  0  0  0  0  0
  187.3210  177.1420  146.2100 C   0  0  0  0  0  3  0  0  0  0  0  0
  187.7690  176.0700  143.3410 C   0  0  0  0  0  0  0  0  0  0  0  0
  188.6240  176.8330  145.5920 C   0  0  0  0  0  3  0  0  0  0  0  0
  188.8500  176.4020  144.3400 C   0  0  0  0  0  0  0  0  0  0  0  0
  184.9860  177.7980  146.3530 C   0  0  2  0  0  3  0  0  0  0  0  0
  184.0310  178.5600  145.5670 N   0  0  0  0  0  1  0  0  0  0  0  0
  185.3030  178.5410  147.6380 C   0  0  0  0  0  1  0  0  0  0  0  0
  193.9160  176.4040  144.8620 C   0  0  0  0  0  2  0  0  0  0  0  0
  196.9330  174.2310  145.3460 C   0  0  0  0  0  2  0  0  0  0  0  0
  194.0080  174.0060  145.0710 C   0  0  0  0  0  2  0  0  0  0  0  0
  196.3700  170.5510  146.0940 C   0  0  0  0  0  0  0  0  0  0  0  0
  196.9950  171.7830  145.8590 C   0  0  0  0  0  3  0  0  0  0  0  0
  196.2380  172.9130  145.5340 C   0  0  0  0  0  0  0  0  0  0  0  0
  194.2100  171.5900  145.6950 C   0  0  0  0  0  3  0  0  0  0  0  0
  194.8340  172.8190  145.4740 C   0  0  0  0  0  0  0  0  0  0  0  0
  194.9730  170.4610  146.0090 C   0  0  0  0  0  3  0  0  0  0  0  0
  194.7140  175.2640  145.3350 N   0  0  0  0  0  0  0  0  0  0  0  0
  196.0190  175.2480  144.6670 C   0  0  0  0  0  2  0  0  0  0  0  0
  197.1550  169.3950  146.4200 N   0  0  0  0  0  0  0  0  0  0  0  0
  197.9410  168.9060  145.5840 O   0  0  0  0  0  0  0  0  0  0  0  0
  197.0500  168.8130  147.6630 O   0  0  0  0  0  0  0  0  0  0  0  0
  1 17  1  0  0  0  0
  1  5  2  0  0  0  0
  2 15  2  0  0  0  0
  2 12  1  0  0  0  0
  3 15  1  0  0  0  0
  4  5  1  0  0  0  0
  4 21  1  0  0  0  0
  6 10  1  0  0  0  0
  6  8  1  0  0  0  0
  7  6  2  0  0  0  0
  8  4  2  0  0  0  0
  9  3  1  0  0  0  0
  9 10  1  0  0  0  0
 10  1  1  0  0  0  0
 11  7  1  0  0  0  0
 11  9  2  0  0  0  0
 12 13  1  0  0  0  0
 13 14  2  0  0  0  0
 13 18  1  0  0  0  0
 15 17  1  0  0  0  0
 16 14  1  0  0  0  0
 17 16  2  0  0  0  0
 18 20  1  1  0  0  0
 19 18  1  0  0  0  0
 21 30  1  0  0  0  0
 22 26  1  0  0  0  0
 23 30  1  0  0  0  0
 23 28  1  0  0  0  0
 24 32  1  0  0  0  0
 25 24  2  0  0  0  0
 26 25  1  0  0  0  0
 27 29  2  0  0  0  0
 28 26  2  0  0  0  0
 28 27  1  0  0  0  0
 29 24  1  0  0  0  0
 31 30  1  0  0  0  0
 31 22  1  0  0  0  0
 32 34  2  0  0  0  0
 33 32  2  0  0  0  0
M  END
>  <MODEL>
2

>  <REMARK>
 VINA RESULT:      -8.3      4.108      9.965
  Name = 
  4 active torsions:
  status: ('A' for Active; 'I' for Inactive)
    1  A    between atoms: C_3  and  C_25
    2  A    between atoms: C_7  and  N_11
    3  A    between atoms: C_8  and  C_18
    4  A    between atoms: C_18  and  N_30
                            x       y       z     vdW  Elec       q    Type
                         _______ _______ _______ _____ _____    ______ ____

>  <TORSDO>
F 4

$$$$
=
 OpenBabel11052420253D

 34 39  0  0  1  0  0  0  0  0999 V2000
  189.7780  175.4600  144.9570 C   0  0  0  0  0  0  0  0  0  0  0  0
  187.3430  177.4960  146.9390 C   0  0  0  0  0  3  0  0  0  0  0  0
  189.7610  177.4670  147.1480 C   0  0  0  0  0  2  0  0  0  0  0  0
  191.1920  173.7720  143.9180 C   0  0  0  0  0  0  0  0  0  0  0  0
  189.9800  174.5090  143.9400 C   0  0  0  0  0  3  0  0  0  0  0  0
  191.9200  174.9580  145.8640 C   0  0  0  0  0  0  0  0  0  0  0  0
  192.7130  175.3850  146.8680 N   0  0  0  0  0  0  0  0  0  0  0  0
  192.1930  174.0000  144.8910 C   0  0  0  0  0  3  0  0  0  0  0  0
  190.8400  176.4640  146.8720 C   0  0  0  0  0  0  0  0  0  0  0  0
  190.7660  175.6140  145.8550 N   0  0  0  0  0  0  0  0  0  0  0  0
  192.0300  176.3440  147.5020 N   0  0  0  0  0  0  0  0  0  0  0  0
  186.0020  177.1180  146.4100 C   0  0  0  0  0  2  0  0  0  0  0  0
  185.7780  177.6680  145.0370 C   0  0  0  0  0  0  0  0  0  0  0  0
  186.5230  177.2770  144.0030 C   0  0  0  0  0  3  0  0  0  0  0  0
  188.4950  177.1180  146.3830 C   0  0  0  0  0  0  0  0  0  0  0  0
  187.7230  176.4240  144.0800 C   0  0  0  0  0  3  0  0  0  0  0  0
  188.5750  176.3080  145.1130 C   0  0  0  0  0  0  0  0  0  0  0  0
  184.6040  178.5550  144.7700 C   0  0  2  0  0  3  0  0  0  0  0  0
  185.0480  179.8410  144.2630 N   0  0  0  0  0  1  0  0  0  0  0  0
  183.7830  178.7540  146.0310 C   0  0  0  0  0  1  0  0  0  0  0  0
  191.4210  172.7470  142.8410 C   0  0  0  0  0  2  0  0  0  0  0  0
  188.8980  172.5510  140.0750 C   0  0  0  0  0  2  0  0  0  0  0  0
  191.7680  173.0810  140.4810 C   0  0  0  0  0  2  0  0  0  0  0  0
  189.9740  173.6610  136.6060 C   0  0  0  0  0  0  0  0  0  0  0  0
  189.1990  173.1870  137.6750 C   0  0  0  0  0  3  0  0  0  0  0  0
  189.7690  173.0030  138.9380 C   0  0  0  0  0  0  0  0  0  0  0  0
  191.9000  173.7860  138.0820 C   0  0  0  0  0  3  0  0  0  0  0  0
  191.1240  173.3260  139.1470 C   0  0  0  0  0  0  0  0  0  0  0  0
  191.3280  173.9580  136.8180 C   0  0  0  0  0  3  0  0  0  0  0  0
  190.7750  173.0640  141.5600 N   0  0  0  0  0  0  0  0  0  0  0  0
  189.7360  172.0750  141.2600 C   0  0  0  0  0  2  0  0  0  0  0  0
  189.3830  173.8410  135.3120 N   0  0  0  0  0  0  0  0  0  0  0  0
  189.3030  172.8860  134.5130 O   0  0  0  0  0  0  0  0  0  0  0  0
  188.8950  175.0720  134.9360 O   0  0  0  0  0  0  0  0  0  0  0  0
  1 17  1  0  0  0  0
  1 10  1  0  0  0  0
  4  5  1  0  0  0  0
  4  8  2  0  0  0  0
  5  1  2  0  0  0  0
  6  7  2  0  0  0  0
  7 11  1  0  0  0  0
  8  6  1  0  0  0  0
  9  3  1  0  0  0  0
  9 11  2  0  0  0  0
 10  6  1  0  0  0  0
 10  9  1  0  0  0  0
 12  2  1  0  0  0  0
 13 12  1  0  0  0  0
 14 16  1  0  0  0  0
 14 13  2  0  0  0  0
 15  2  2  0  0  0  0
 15  3  1  0  0  0  0
 16 17  2  0  0  0  0
 17 15  1  0  0  0  0
 18 13  1  0  0  0  0
 18 20  1  1  0  0  0
 19 18  1  0  0  0  0
 21  4  1  0  0  0  0
 22 31  1  0  0  0  0
 23 30  1  0  0  0  0
 24 29  2  0  0  0  0
 24 25  1  0  0  0  0
 25 26  2  0  0  0  0
 26 28  1  0  0  0  0
 26 22  1  0  0  0  0
 27 28  2  0  0  0  0
 28 23  1  0  0  0  0
 29 27  1  0  0  0  0
 30 21  1  0  0  0  0
 31 30  1  0  0  0  0
 32 24  1  0  0  0  0
 33 32  2  0  0  0  0
 34 32  2  0  0  0  0
M  END
>  <MODEL>
3

>  <REMARK>
 VINA RESULT:      -8.0      5.035      9.357
  Name = 
  4 active torsions:
  status: ('A' for Active; 'I' for Inactive)
    1  A    between atoms: C_3  and  C_25
    2  A    between atoms: C_7  and  N_11
    3  A    between atoms: C_8  and  C_18
    4  A    between atoms: C_18  and  N_30
                            x       y       z     vdW  Elec       q    Type
                         _______ _______ _______ _____ _____    ______ ____

>  <TORSDO>
F 4

$$$$
=
 OpenBabel11052420253D

 34 39  0  0  1  0  0  0  0  0999 V2000
  190.4980  176.4000  144.4330 C   0  0  0  0  0  0  0  0  0  0  0  0
  193.3190  175.8750  146.8340 C   0  0  0  0  0  3  0  0  0  0  0  0
  190.9810  175.3050  147.1520 C   0  0  0  0  0  2  0  0  0  0  0  0
  188.7140  177.2010  142.9810 C   0  0  0  0  0  0  0  0  0  0  0  0
  190.0810  176.8740  143.1750 C   0  0  0  0  0  3  0  0  0  0  0  0
  188.2660  176.5630  145.2420 C   0  0  0  0  0  0  0  0  0  0  0  0
  187.5820  176.2870  146.3720 N   0  0  0  0  0  0  0  0  0  0  0  0
  187.7770  177.0370  144.0280 C   0  0  0  0  0  3  0  0  0  0  0  0
  189.6790  175.8270  146.6240 C   0  0  0  0  0  0  0  0  0  0  0  0
  189.5550  176.2840  145.3840 N   0  0  0  0  0  0  0  0  0  0  0  0
  188.4780  175.8140  147.2450 N   0  0  0  0  0  0  0  0  0  0  0  0
  194.5240  176.4120  146.1390 C   0  0  0  0  0  2  0  0  0  0  0  0
  194.9460  175.5280  145.0090 C   0  0  0  0  0  0  0  0  0  0  0  0
  194.1640  175.3390  143.9460 C   0  0  0  0  0  3  0  0  0  0  0  0
  192.1310  175.7180  146.2480 C   0  0  0  0  0  0  0  0  0  0  0  0
  192.7720  175.8070  143.8070 C   0  0  0  0  0  3  0  0  0  0  0  0
  191.8810  176.0150  144.7900 C   0  0  0  0  0  0  0  0  0  0  0  0
  196.3290  174.9610  144.9820 C   0  0  2  0  0  3  0  0  0  0  0  0
  196.6850  174.5620  143.6310 N   0  0  0  0  0  1  0  0  0  0  0  0
  196.4410  173.7700  145.9160 C   0  0  0  0  0  1  0  0  0  0  0  0
  188.2540  177.7130  141.6430 C   0  0  0  0  0  2  0  0  0  0  0  0
  185.0460  177.5300  139.7120 C   0  0  0  0  0  2  0  0  0  0  0  0
  186.0620  178.4440  142.3230 C   0  0  0  0  0  2  0  0  0  0  0  0
  181.8280  178.4070  141.5280 C   0  0  0  0  0  0  0  0  0  0  0  0
  182.7320  178.0130  140.5320 C   0  0  0  0  0  3  0  0  0  0  0  0
  184.1080  178.0130  140.7810 C   0  0  0  0  0  0  0  0  0  0  0  0
  183.6890  178.7860  143.0430 C   0  0  0  0  0  3  0  0  0  0  0  0
  184.5870  178.3820  142.0540 C   0  0  0  0  0  0  0  0  0  0  0  0
  182.3160  178.7950  142.7840 C   0  0  0  0  0  3  0  0  0  0  0  0
  186.8100  177.5750  141.4080 N   0  0  0  0  0  0  0  0  0  0  0  0
  186.4890  177.9230  140.0210 C   0  0  0  0  0  2  0  0  0  0  0  0
  180.4190  178.4100  141.2610 N   0  0  0  0  0  0  0  0  0  0  0  0
  179.9390  179.1670  140.3920 O   0  0  0  0  0  0  0  0  0  0  0  0
  179.5780  177.5760  141.9610 O   0  0  0  0  0  0  0  0  0  0  0  0
  1 17  1  0  0  0  0
  1 10  1  0  0  0  0
  4  5  1  0  0  0  0
  4  8  2  0  0  0  0
  5  1  2  0  0  0  0
  6 10  1  0  0  0  0
  6  7  2  0  0  0  0
  7 11  1  0  0  0  0
  8  6  1  0  0  0  0
  9  3  1  0  0  0  0
  9 11  2  0  0  0  0
 10  9  1  0  0  0  0
 12  2  1  0  0  0  0
 13 12  1  0  0  0  0
 14 13  2  0  0  0  0
 15  2  2  0  0  0  0
 15  3  1  0  0  0  0
 16 14  1  0  0  0  0
 16 17  2  0  0  0  0
 17 15  1  0  0  0  0
 18 13  1  0  0  0  0
 18 20  1  1  0  0  0
 19 18  1  0  0  0  0
 21  4  1  0  0  0  0
 22 31  1  0  0  0  0
 22 26  1  0  0  0  0
 24 29  1  0  0  0  0
 25 26  1  0  0  0  0
 25 24  2  0  0  0  0
 26 28  2  0  0  0  0
 28 23  1  0  0  0  0
 28 27  1  0  0  0  0
 29 27  2  0  0  0  0
 30 21  1  0  0  0  0
 30 23  1  0  0  0  0
 31 30  1  0  0  0  0
 32 24  1  0  0  0  0
 32 34  2  0  0  0  0
 33 32  2  0  0  0  0
M  END
>  <MODEL>
4

>  <REMARK>
 VINA RESULT:      -7.8      3.457      6.281
  Name = 
  4 active torsions:
  status: ('A' for Active; 'I' for Inactive)
    1  A    between atoms: C_3  and  C_25
    2  A    between atoms: C_7  and  N_11
    3  A    between atoms: C_8  and  C_18
    4  A    between atoms: C_18  and  N_30
                            x       y       z     vdW  Elec       q    Type
                         _______ _______ _______ _____ _____    ______ ____

>  <TORSDO>
F 4

$$$$
=
 OpenBabel11052420253D

 34 39  0  0  1  0  0  0  0  0999 V2000
  193.7240  174.1210  145.5580 C   0  0  0  0  0  0  0  0  0  0  0  0
  196.4050  172.3770  143.6160 C   0  0  0  0  0  3  0  0  0  0  0  0
  196.4890  174.6020  144.5830 C   0  0  0  0  0  2  0  0  0  0  0  0
  191.7610  175.2900  146.4010 C   0  0  0  0  0  0  0  0  0  0  0  0
  192.4240  174.0740  146.0940 C   0  0  0  0  0  3  0  0  0  0  0  0
  193.6870  176.4990  145.6580 C   0  0  0  0  0  0  0  0  0  0  0  0
  194.5180  177.5300  145.4010 N   0  0  0  0  0  0  0  0  0  0  0  0
  192.4020  176.5340  146.1910 C   0  0  0  0  0  3  0  0  0  0  0  0
  195.4750  175.6500  144.9260 C   0  0  0  0  0  0  0  0  0  0  0  0
  194.2640  175.3380  145.3720 N   0  0  0  0  0  0  0  0  0  0  0  0
  195.6530  176.9910  144.9430 N   0  0  0  0  0  0  0  0  0  0  0  0
  195.8230  171.0530  143.2570 C   0  0  0  0  0  2  0  0  0  0  0  0
  195.7120  170.1590  144.4510 C   0  0  0  0  0  0  0  0  0  0  0  0
  194.9120  170.4620  145.4730 C   0  0  0  0  0  3  0  0  0  0  0  0
  195.8300  173.2380  144.4570 C   0  0  0  0  0  0  0  0  0  0  0  0
  194.1890  171.7350  145.6520 C   0  0  0  0  0  3  0  0  0  0  0  0
  194.5440  172.9460  145.1910 C   0  0  0  0  0  0  0  0  0  0  0  0
  196.3830  168.8220  144.4480 C   0  0  2  0  0  3  0  0  0  0  0  0
  196.2720  168.1990  145.7560 N   0  0  0  0  0  1  0  0  0  0  0  0
  197.8450  168.9550  144.0630 C   0  0  0  0  0  1  0  0  0  0  0  0
  190.3690  175.2570  146.9710 C   0  0  0  0  0  2  0  0  0  0  0  0
  187.1510  177.0160  146.1940 C   0  0  0  0  0  2  0  0  0  0  0  0
  189.1930  175.3530  144.8710 C   0  0  0  0  0  2  0  0  0  0  0  0
  186.0590  177.1980  142.5610 C   0  0  0  0  0  0  0  0  0  0  0  0
  186.0930  177.3610  143.9540 C   0  0  0  0  0  3  0  0  0  0  0  0
  187.1100  176.7740  144.7120 C   0  0  0  0  0  0  0  0  0  0  0  0
  188.0870  175.8650  142.6850 C   0  0  0  0  0  3  0  0  0  0  0  0
  188.1260  176.0390  144.0690 C   0  0  0  0  0  0  0  0  0  0  0  0
  187.0610  176.4460  141.9330 C   0  0  0  0  0  3  0  0  0  0  0  0
  189.3750  175.9930  146.1790 N   0  0  0  0  0  0  0  0  0  0  0  0
  188.0940  176.0370  146.8900 C   0  0  0  0  0  2  0  0  0  0  0  0
  185.0080  177.7990  141.7920 N   0  0  0  0  0  0  0  0  0  0  0  0
  185.2140  178.1710  140.6190 O   0  0  0  0  0  0  0  0  0  0  0  0
  183.7580  177.9710  142.3400 O   0  0  0  0  0  0  0  0  0  0  0  0
  1  5  2  0  0  0  0
  2 15  2  0  0  0  0
  3  9  1  0  0  0  0
  4 21  1  0  0  0  0
  5  4  1  0  0  0  0
  6  8  1  0  0  0  0
  7  6  2  0  0  0  0
  8  4  2  0  0  0  0
  9 11  2  0  0  0  0
  9 10  1  0  0  0  0
 10  1  1  0  0  0  0
 10  6  1  0  0  0  0
 11  7  1  0  0  0  0
 12  2  1  0  0  0  0
 12 13  1  0  0  0  0
 13 14  2  0  0  0  0
 14 16  1  0  0  0  0
 15  3  1  0  0  0  0
 15 17  1  0  0  0  0
 17  1  1  0  0  0  0
 17 16  2  0  0  0  0
 18 20  1  1  0  0  0
 18 13  1  0  0  0  0
 18 19  1  0  0  0  0
 22 31  1  0  0  0  0
 23 30  1  0  0  0  0
 24 25  1  0  0  0  0
 25 26  2  0  0  0  0
 26 22  1  0  0  0  0
 27 28  2  0  0  0  0
 28 26  1  0  0  0  0
 28 23  1  0  0  0  0
 29 24  2  0  0  0  0
 29 27  1  0  0  0  0
 30 31  1  0  0  0  0
 30 21  1  0  0  0  0
 32 34  2  0  0  0  0
 32 24  1  0  0  0  0
 33 32  2  0  0  0  0
M  END
>  <MODEL>
5

>  <REMARK>
 VINA RESULT:      -7.8      2.241      2.813
  Name = 
  4 active torsions:
  status: ('A' for Active; 'I' for Inactive)
    1  A    between atoms: C_3  and  C_25
    2  A    between atoms: C_7  and  N_11
    3  A    between atoms: C_8  and  C_18
    4  A    between atoms: C_18  and  N_30
                            x       y       z     vdW  Elec       q    Type
                         _______ _______ _______ _____ _____    ______ ____

>  <TORSDO>
F 4

$$$$
=
 OpenBabel11052420253D

 34 39  0  0  1  0  0  0  0  0999 V2000
  193.6470  175.1930  142.2090 C   0  0  0  0  0  0  0  0  0  0  0  0
  194.4140  174.9560  138.5540 C   0  0  0  0  0  3  0  0  0  0  0  0
  195.9800  175.3150  140.3730 C   0  0  0  0  0  2  0  0  0  0  0  0
  192.9610  175.7690  144.4740 C   0  0  0  0  0  0  0  0  0  0  0  0
  192.6710  175.1660  143.2220 C   0  0  0  0  0  3  0  0  0  0  0  0
  195.1320  176.3570  143.6600 C   0  0  0  0  0  0  0  0  0  0  0  0
  196.3970  176.8250  143.6410 N   0  0  0  0  0  0  0  0  0  0  0  0
  194.2180  176.3710  144.7100 C   0  0  0  0  0  3  0  0  0  0  0  0
  195.8970  175.9160  141.7440 C   0  0  0  0  0  0  0  0  0  0  0  0
  194.8130  175.7950  142.5010 N   0  0  0  0  0  0  0  0  0  0  0  0
  196.8830  176.5400  142.4280 N   0  0  0  0  0  0  0  0  0  0  0  0
  193.0940  174.7430  137.8950 C   0  0  0  0  0  2  0  0  0  0  0  0
  192.5610  173.3710  138.1620 C   0  0  0  0  0  0  0  0  0  0  0  0
  192.2390  172.9790  139.3940 C   0  0  0  0  0  3  0  0  0  0  0  0
  194.5990  174.9230  139.8750 C   0  0  0  0  0  0  0  0  0  0  0  0
  192.5050  173.7320  140.6350 C   0  0  0  0  0  3  0  0  0  0  0  0
  193.4990  174.6090  140.8580 C   0  0  0  0  0  0  0  0  0  0  0  0
  192.2310  172.4630  137.0200 C   0  0  2  0  0  3  0  0  0  0  0  0
  192.1620  173.2170  135.7800 N   0  0  0  0  0  1  0  0  0  0  0  0
  190.9140  171.7500  137.2630 C   0  0  0  0  0  1  0  0  0  0  0  0
  191.9250  175.7530  145.5650 C   0  0  0  0  0  2  0  0  0  0  0  0
  189.3390  177.8730  143.8710 C   0  0  0  0  0  2  0  0  0  0  0  0
  189.6710  176.2090  146.2800 C   0  0  0  0  0  2  0  0  0  0  0  0
  185.8030  177.8040  145.2540 C   0  0  0  0  0  0  0  0  0  0  0  0
  186.9180  178.1020  144.4580 C   0  0  0  0  0  3  0  0  0  0  0  0
  188.1760  177.5830  144.7770 C   0  0  0  0  0  0  0  0  0  0  0  0
  187.2120  176.4410  146.6890 C   0  0  0  0  0  3  0  0  0  0  0  0
  188.3190  176.7290  145.8880 C   0  0  0  0  0  0  0  0  0  0  0  0
  185.9590  176.9720  146.3720 C   0  0  0  0  0  3  0  0  0  0  0  0
  190.5910  176.1930  145.1370 N   0  0  0  0  0  0  0  0  0  0  0  0
  190.6660  177.5320  144.5450 C   0  0  0  0  0  2  0  0  0  0  0  0
  184.5170  178.3470  144.9230 N   0  0  0  0  0  0  0  0  0  0  0  0
  183.7700  178.7970  145.8150 O   0  0  0  0  0  0  0  0  0  0  0  0
  184.0920  178.3760  143.6150 O   0  0  0  0  0  0  0  0  0  0  0  0
  1 10  1  0  0  0  0
  1  5  2  0  0  0  0
  2 15  2  0  0  0  0
  3  9  1  0  0  0  0
  4  8  2  0  0  0  0
  4 21  1  0  0  0  0
  5  4  1  0  0  0  0
  6  8  1  0  0  0  0
  7  6  2  0  0  0  0
  9 11  2  0  0  0  0
  9 10  1  0  0  0  0
 10  6  1  0  0  0  0
 11  7  1  0  0  0  0
 12 13  1  0  0  0  0
 12  2  1  0  0  0  0
 13 14  2  0  0  0  0
 14 16  1  0  0  0  0
 15  3  1  0  0  0  0
 15 17  1  0  0  0  0
 16 17  2  0  0  0  0
 17  1  1  0  0  0  0
 18 20  1  1  0  0  0
 18 13  1  0  0  0  0
 19 18  1  0  0  0  0
 22 31  1  0  0  0  0
 22 26  1  0  0  0  0
 24 29  1  0  0  0  0
 25 26  1  0  0  0  0
 25 24  2  0  0  0  0
 26 28  2  0  0  0  0
 28 23  1  0  0  0  0
 28 27  1  0  0  0  0
 29 27  2  0  0  0  0
 30 21  1  0  0  0  0
 30 23  1  0  0  0  0
 31 30  1  0  0  0  0
 32 24  1  0  0  0  0
 32 33  2  0  0  0  0
 34 32  2  0  0  0  0
M  END
>  <MODEL>
6

>  <REMARK>
 VINA RESULT:      -7.7      3.981      5.527
  Name = 
  4 active torsions:
  status: ('A' for Active; 'I' for Inactive)
    1  A    between atoms: C_3  and  C_25
    2  A    between atoms: C_7  and  N_11
    3  A    between atoms: C_8  and  C_18
    4  A    between atoms: C_18  and  N_30
                            x       y       z     vdW  Elec       q    Type
                         _______ _______ _______ _____ _____    ______ ____

>  <TORSDO>
F 4

$$$$
=
 OpenBabel11052420253D

 34 39  0  0  1  0  0  0  0  0999 V2000
  192.5840  171.7320  143.7230 C   0  0  0  0  0  0  0  0  0  0  0  0
  193.3690  168.2030  144.6870 C   0  0  0  0  0  3  0  0  0  0  0  0
  192.5330  169.0010  142.5530 C   0  0  0  0  0  2  0  0  0  0  0  0
  191.7000  173.9760  143.3840 C   0  0  0  0  0  0  0  0  0  0  0  0
  192.5390  173.0850  144.1040 C   0  0  0  0  0  3  0  0  0  0  0  0
  191.0340  172.1660  141.9700 C   0  0  0  0  0  0  0  0  0  0  0  0
  190.4440  171.4950  140.9590 N   0  0  0  0  0  0  0  0  0  0  0  0
  190.9350  173.5180  142.2860 C   0  0  0  0  0  3  0  0  0  0  0  0
  191.7160  170.1740  142.1030 C   0  0  0  0  0  0  0  0  0  0  0  0
  191.8190  171.3660  142.6800 N   0  0  0  0  0  0  0  0  0  0  0  0
  190.8810  170.2350  141.0410 N   0  0  0  0  0  0  0  0  0  0  0  0
  193.8330  168.2830  146.1020 C   0  0  0  0  0  2  0  0  0  0  0  0
  195.1870  168.9110  146.2010 C   0  0  0  0  0  0  0  0  0  0  0  0
  195.3910  170.1800  145.8480 C   0  0  0  0  0  3  0  0  0  0  0  0
  193.1520  169.2690  143.9150 C   0  0  0  0  0  0  0  0  0  0  0  0
  194.4100  171.0560  145.1810 C   0  0  0  0  0  3  0  0  0  0  0  0
  193.4060  170.6850  144.3680 C   0  0  0  0  0  0  0  0  0  0  0  0
  196.3090  168.1670  146.8520 C   0  0  2  0  0  3  0  0  0  0  0  0
  196.1450  168.1660  148.2950 N   0  0  0  0  0  1  0  0  0  0  0  0
  197.6470  168.7830  146.4860 C   0  0  0  0  0  1  0  0  0  0  0  0
  191.6380  175.4250  143.7830 C   0  0  0  0  0  2  0  0  0  0  0  0
  188.7950  177.7790  143.1220 C   0  0  0  0  0  2  0  0  0  0  0  0
  189.8190  176.0130  145.2480 C   0  0  0  0  0  2  0  0  0  0  0  0
  185.9720  177.9110  145.6590 C   0  0  0  0  0  0  0  0  0  0  0  0
  186.7580  178.1570  144.5250 C   0  0  0  0  0  3  0  0  0  0  0  0
  188.0040  177.5400  144.3770 C   0  0  0  0  0  0  0  0  0  0  0  0
  187.6840  176.4030  146.4970 C   0  0  0  0  0  3  0  0  0  0  0  0
  188.4590  176.6400  145.3600 C   0  0  0  0  0  0  0  0  0  0  0  0
  186.4440  177.0310  146.6440 C   0  0  0  0  0  3  0  0  0  0  0  0
  190.2760  175.9730  143.8550 N   0  0  0  0  0  0  0  0  0  0  0  0
  190.2430  177.3220  143.2850 C   0  0  0  0  0  2  0  0  0  0  0  0
  184.6980  178.5530  145.8050 N   0  0  0  0  0  0  0  0  0  0  0  0
  184.0270  178.4010  146.8470 O   0  0  0  0  0  0  0  0  0  0  0  0
  184.2000  179.3450  144.7960 O   0  0  0  0  0  0  0  0  0  0  0  0
  1  5  2  0  0  0  0
  1 17  1  0  0  0  0
  2 12  1  0  0  0  0
  3 15  1  0  0  0  0
  4 21  1  0  0  0  0
  4  5  1  0  0  0  0
  6  8  1  0  0  0  0
  6 10  1  0  0  0  0
  7 11  1  0  0  0  0
  7  6  2  0  0  0  0
  8  4  2  0  0  0  0
  9  3  1  0  0  0  0
  9 10  1  0  0  0  0
 10  1  1  0  0  0  0
 11  9  2  0  0  0  0
 12 13  1  0  0  0  0
 13 18  1  0  0  0  0
 14 13  2  0  0  0  0
 15 17  1  0  0  0  0
 15  2  2  0  0  0  0
 16 14  1  0  0  0  0
 17 16  2  0  0  0  0
 18 20  1  1  0  0  0
 18 19  1  0  0  0  0
 21 30  1  0  0  0  0
 22 31  1  0  0  0  0
 22 26  1  0  0  0  0
 23 28  1  0  0  0  0
 24 32  1  0  0  0  0
 24 29  1  0  0  0  0
 25 24  2  0  0  0  0
 26 25  1  0  0  0  0
 26 28  2  0  0  0  0
 27 29  2  0  0  0  0
 28 27  1  0  0  0  0
 30 23  1  0  0  0  0
 31 30  1  0  0  0  0
 32 33  2  0  0  0  0
 34 32  2  0  0  0  0
M  END
>  <MODEL>
7

>  <REMARK>
 VINA RESULT:      -7.7      2.336      3.606
  Name = 
  4 active torsions:
  status: ('A' for Active; 'I' for Inactive)
    1  A    between atoms: C_3  and  C_25
    2  A    between atoms: C_7  and  N_11
    3  A    between atoms: C_8  and  C_18
    4  A    between atoms: C_18  and  N_30
                            x       y       z     vdW  Elec       q    Type
                         _______ _______ _______ _____ _____    ______ ____

>  <TORSDO>
F 4

$$$$
=
 OpenBabel11052420253D

 34 39  0  0  1  0  0  0  0  0999 V2000
  192.3350  172.7420  143.3930 C   0  0  0  0  0  0  0  0  0  0  0  0
  192.6470  170.3970  140.4930 C   0  0  0  0  0  3  0  0  0  0  0  0
  193.3680  170.0240  142.7800 C   0  0  0  0  0  2  0  0  0  0  0  0
  192.4740  174.5110  145.0600 C   0  0  0  0  0  0  0  0  0  0  0  0
  191.9070  173.9950  143.8650 C   0  0  0  0  0  3  0  0  0  0  0  0
  193.8120  172.5380  145.2470 C   0  0  0  0  0  0  0  0  0  0  0  0
  194.6750  171.6320  145.7520 N   0  0  0  0  0  0  0  0  0  0  0  0
  193.4410  173.7700  145.7780 C   0  0  0  0  0  3  0  0  0  0  0  0
  193.8000  170.9020  143.9150 C   0  0  0  0  0  0  0  0  0  0  0  0
  193.2670  172.1010  144.1190 N   0  0  0  0  0  0  0  0  0  0  0  0
  194.6620  170.5930  144.9110 N   0  0  0  0  0  0  0  0  0  0  0  0
  192.0580  171.1310  139.3370 C   0  0  0  0  0  2  0  0  0  0  0  0
  190.5710  171.2390  139.4550 C   0  0  0  0  0  0  0  0  0  0  0  0
  190.0010  171.9260  140.4440 C   0  0  0  0  0  3  0  0  0  0  0  0
  192.5770  170.8200  141.7560 C   0  0  0  0  0  0  0  0  0  0  0  0
  190.7020  172.5060  141.6050 C   0  0  0  0  0  3  0  0  0  0  0  0
  191.8400  172.0700  142.1710 C   0  0  0  0  0  0  0  0  0  0  0  0
  189.6950  170.7040  138.3670 C   0  0  2  0  0  3  0  0  0  0  0  0
  190.0480  169.3280  138.0660 N   0  0  0  0  0  1  0  0  0  0  0  0
  189.8160  171.5520  137.1140 C   0  0  0  0  0  1  0  0  0  0  0  0
  192.0300  175.8530  145.5750 C   0  0  0  0  0  2  0  0  0  0  0  0
  189.3580  177.8030  143.8110 C   0  0  0  0  0  2  0  0  0  0  0  0
  189.7920  176.3310  146.3270 C   0  0  0  0  0  2  0  0  0  0  0  0
  185.8680  177.7910  145.3090 C   0  0  0  0  0  0  0  0  0  0  0  0
  186.9530  178.0430  144.4570 C   0  0  0  0  0  3  0  0  0  0  0  0
  188.2290  177.5670  144.7730 C   0  0  0  0  0  0  0  0  0  0  0  0
  187.3440  176.5600  146.7960 C   0  0  0  0  0  3  0  0  0  0  0  0
  188.4200  176.8010  145.9400 C   0  0  0  0  0  0  0  0  0  0  0  0
  186.0730  177.0480  146.4800 C   0  0  0  0  0  3  0  0  0  0  0  0
  190.6760  176.2420  145.1590 N   0  0  0  0  0  0  0  0  0  0  0  0
  190.7110  177.5320  144.4660 C   0  0  0  0  0  2  0  0  0  0  0  0
  184.5640  178.2890  144.9800 N   0  0  0  0  0  0  0  0  0  0  0  0
  184.2030  178.3840  143.7890 O   0  0  0  0  0  0  0  0  0  0  0  0
  183.6940  178.6670  145.9760 O   0  0  0  0  0  0  0  0  0  0  0  0
  1  5  2  0  0  0  0
  1 10  1  0  0  0  0
  2 15  2  0  0  0  0
  3  9  1  0  0  0  0
  4 21  1  0  0  0  0
  4  8  2  0  0  0  0
  5  4  1  0  0  0  0
  6  7  2  0  0  0  0
  6  8  1  0  0  0  0
  9 10  1  0  0  0  0
  9 11  2  0  0  0  0
 10  6  1  0  0  0  0
 11  7  1  0  0  0  0
 12 13  1  0  0  0  0
 12  2  1  0  0  0  0
 13 14  2  0  0  0  0
 14 16  1  0  0  0  0
 15 17  1  0  0  0  0
 15  3  1  0  0  0  0
 16 17  2  0  0  0  0
 17  1  1  0  0  0  0
 18 20  1  6  0  0  0
 18 13  1  0  0  0  0
 19 18  1  0  0  0  0
 22 31  1  0  0  0  0
 22 26  1  0  0  0  0
 24 29  1  0  0  0  0
 25 26  1  0  0  0  0
 25 24  2  0  0  0  0
 26 28  2  0  0  0  0
 28 23  1  0  0  0  0
 28 27  1  0  0  0  0
 29 27  2  0  0  0  0
 30 21  1  0  0  0  0
 30 23  1  0  0  0  0
 31 30  1  0  0  0  0
 32 24  1  0  0  0  0
 32 34  2  0  0  0  0
 33 32  2  0  0  0  0
M  END
>  <MODEL>
8

>  <REMARK>
 VINA RESULT:      -7.6      3.248      5.398
  Name = 
  4 active torsions:
  status: ('A' for Active; 'I' for Inactive)
    1  A    between atoms: C_3  and  C_25
    2  A    between atoms: C_7  and  N_11
    3  A    between atoms: C_8  and  C_18
    4  A    between atoms: C_18  and  N_30
                            x       y       z     vdW  Elec       q    Type
                         _______ _______ _______ _____ _____    ______ ____

>  <TORSDO>
F 4

$$$$
=
 OpenBabel11052420253D

 34 39  0  0  1  0  0  0  0  0999 V2000
  192.7630  173.7190  144.5580 C   0  0  0  0  0  0  0  0  0  0  0  0
  193.8940  171.6340  141.6640 C   0  0  0  0  0  3  0  0  0  0  0  0
  195.1900  172.2910  143.6080 C   0  0  0  0  0  2  0  0  0  0  0  0
  192.0430  175.4330  146.1300 C   0  0  0  0  0  0  0  0  0  0  0  0
  191.7220  174.4470  145.1620 C   0  0  0  0  0  3  0  0  0  0  0  0
  194.3610  174.9090  145.8590 C   0  0  0  0  0  0  0  0  0  0  0  0
  195.6960  174.9140  146.0560 N   0  0  0  0  0  0  0  0  0  0  0  0
  193.3880  175.6700  146.5000 C   0  0  0  0  0  3  0  0  0  0  0  0
  195.1560  173.4420  144.5680 C   0  0  0  0  0  0  0  0  0  0  0  0
  194.0170  174.0070  144.9480 N   0  0  0  0  0  0  0  0  0  0  0  0
  196.1980  173.9800  145.2420 N   0  0  0  0  0  0  0  0  0  0  0  0
  192.7110  171.5520  140.7600 C   0  0  0  0  0  2  0  0  0  0  0  0
  191.6400  170.6800  141.3360 C   0  0  0  0  0  0  0  0  0  0  0  0
  191.0120  171.0050  142.4650 C   0  0  0  0  0  3  0  0  0  0  0  0
  193.8560  172.1490  142.8940 C   0  0  0  0  0  0  0  0  0  0  0  0
  191.3740  172.1200  143.3610 C   0  0  0  0  0  3  0  0  0  0  0  0
  192.5920  172.6600  143.5390 C   0  0  0  0  0  0  0  0  0  0  0  0
  191.1440  169.5000  140.5630 C   0  0  2  0  0  3  0  0  0  0  0  0
  192.2090  168.5280  140.3880 N   0  0  0  0  0  1  0  0  0  0  0  0
  190.6110  169.9280  139.2090 C   0  0  0  0  0  1  0  0  0  0  0  0
  190.9420  176.2240  146.7820 C   0  0  0  0  0  2  0  0  0  0  0  0
  189.0000  177.6350  143.9010 C   0  0  0  0  0  2  0  0  0  0  0  0
  188.6160  176.8480  146.7150 C   0  0  0  0  0  2  0  0  0  0  0  0
  185.2360  177.9580  144.2850 C   0  0  0  0  0  0  0  0  0  0  0  0
  186.5300  178.0010  143.7480 C   0  0  0  0  0  3  0  0  0  0  0  0
  187.6340  177.6350  144.5250 C   0  0  0  0  0  0  0  0  0  0  0  0
  186.1540  177.1590  146.3880 C   0  0  0  0  0  3  0  0  0  0  0  0
  187.4400  177.1900  145.8470 C   0  0  0  0  0  0  0  0  0  0  0  0
  185.0560  177.5360  145.6100 C   0  0  0  0  0  3  0  0  0  0  0  0
  189.7860  176.4790  145.9110 N   0  0  0  0  0  0  0  0  0  0  0  0
  190.0940  177.5540  144.9640 C   0  0  0  0  0  2  0  0  0  0  0  0
  184.1110  178.3420  143.4830 N   0  0  0  0  0  0  0  0  0  0  0  0
  183.2090  179.0610  143.9580 O   0  0  0  0  0  0  0  0  0  0  0  0
  184.0130  177.9200  142.1770 O   0  0  0  0  0  0  0  0  0  0  0  0
  1 10  1  0  0  0  0
  1  5  2  0  0  0  0
  2 15  2  0  0  0  0
  3  9  1  0  0  0  0
  4  8  2  0  0  0  0
  4 21  1  0  0  0  0
  5  4  1  0  0  0  0
  6  7  2  0  0  0  0
  6  8  1  0  0  0  0
  9 10  1  0  0  0  0
  9 11  2  0  0  0  0
 10  6  1  0  0  0  0
 11  7  1  0  0  0  0
 12 13  1  0  0  0  0
 12  2  1  0  0  0  0
 13 14  2  0  0  0  0
 14 16  1  0  0  0  0
 15 17  1  0  0  0  0
 15  3  1  0  0  0  0
 16 17  2  0  0  0  0
 17  1  1  0  0  0  0
 18 20  1  6  0  0  0
 18 13  1  0  0  0  0
 19 18  1  0  0  0  0
 22 26  1  0  0  0  0
 22 31  1  0  0  0  0
 24 29  1  0  0  0  0
 25 24  2  0  0  0  0
 25 26  1  0  0  0  0
 26 28  2  0  0  0  0
 28 27  1  0  0  0  0
 28 23  1  0  0  0  0
 29 27  2  0  0  0  0
 30 23  1  0  0  0  0
 30 21  1  0  0  0  0
 31 30  1  0  0  0  0
 32 33  2  0  0  0  0
 32 24  1  0  0  0  0
 34 32  2  0  0  0  0
M  END
>  <MODEL>
9

>  <REMARK>
 VINA RESULT:      -7.6      2.906      4.285
  Name = 
  4 active torsions:
  status: ('A' for Active; 'I' for Inactive)
    1  A    between atoms: C_3  and  C_25
    2  A    between atoms: C_7  and  N_11
    3  A    between atoms: C_8  and  C_18
    4  A    between atoms: C_18  and  N_30
                            x       y       z     vdW  Elec       q    Type
                         _______ _______ _______ _____ _____    ______ ____

>  <TORSDO>
F 4

$$$$
