=
 OpenBabel11052419133D

 32 36  0  0  1  0  0  0  0  0999 V2000
  189.5410  174.0320  144.7300 O   0  0  0  0  0  0  0  0  0  0  0  0
  187.9710  177.8000  144.1750 C   0  0  2  0  0  3  0  0  0  0  0  0
  190.4150  174.5520  145.6940 C   0  0  0  0  0  2  0  0  0  0  0  0
  189.0540  177.5370  145.2260 C   0  0  0  0  0  2  0  0  0  0  0  0
  186.5390  177.8050  144.7360 C   0  0  2  0  0  3  0  0  0  0  0  0
  186.3650  177.6870  139.5810 C   0  0  0  0  0  2  0  0  0  0  0  0
  188.0380  176.8570  142.9570 C   0  0  1  0  0  3  0  0  0  0  0  0
  184.7870  178.4650  141.3860 C   0  0  0  0  0  2  0  0  0  0  0  0
  186.0220  178.3490  142.2900 C   0  0  1  0  0  3  0  0  0  0  0  0
  188.4630  176.7290  146.3720 C   0  0  2  0  0  3  0  0  0  0  0  0
  185.6050  178.5320  143.7620 C   0  0  0  0  0  2  0  0  0  0  0  0
  187.4430  177.5830  147.1300 C   0  0  0  0  0  2  0  0  0  0  0  0
  189.5160  176.2400  147.2450 N   0  0  0  0  0  2  0  0  0  0  0  0
  188.1020  175.3850  143.3690 C   0  0  0  0  0  2  0  0  0  0  0  0
  189.5330  174.9680  143.6900 C   0  0  2  0  0  3  0  0  0  0  0  0
  186.8240  177.0490  142.0260 C   0  0  1  0  0  3  0  0  0  0  0  0
  186.4750  178.3310  146.1840 C   0  0  2  0  0  3  0  0  0  0  0  0
  189.6620  174.8090  146.9970 C   0  0  0  0  0  2  0  0  0  0  0  0
  184.9200  177.6980  140.0660 C   0  0  0  0  0  2  0  0  0  0  0  0
  187.2710  176.9330  140.5620 C   0  0  0  0  0  2  0  0  0  0  0  0
  192.1680  174.2870  141.0380 C   0  0  0  0  0  0  0  0  0  0  0  0
  193.4530  174.6210  140.7650 F   0  0  0  0  0  0  0  0  0  0  0  0
  190.2110  174.4240  142.4690 C   0  0  0  0  0  0  0  0  0  0  0  0
  191.4650  173.4610  140.1550 C   0  0  0  0  0  3  0  0  0  0  0  0
  189.5110  173.6000  141.5760 C   0  0  0  0  0  3  0  0  0  0  0  0
  191.5430  174.7700  142.1940 C   0  0  0  0  0  0  0  0  0  0  0  0
  192.2310  175.5790  143.0400 F   0  0  0  0  0  0  0  0  0  0  0  0
  190.1400  173.1110  140.4270 C   0  0  0  0  0  0  0  0  0  0  0  0
  188.0330  172.6040  139.4970 O   0  0  0  0  0  1  0  0  0  0  0  0
  189.3840  172.2560  139.4730 C   0  0  0  0  0  2  0  0  0  0  0  0
  185.0580  178.2850  146.7480 C   0  0  0  0  0  2  0  0  0  0  0  0
  184.5290  176.9960  146.6550 O   0  0  0  0  0  1  0  0  0  0  0  0
  1  3  1  0  0  0  0
  2  5  1  0  0  0  0
  2  4  1  1  0  0  0
  3 18  1  0  0  0  0
  5 11  1  6  0  0  0
  5 17  1  0  0  0  0
  6 19  1  0  0  0  0
  6 20  1  0  0  0  0
  7 14  1  1  0  0  0
  7  2  1  0  0  0  0
  9  8  1  6  0  0  0
  9 11  1  0  0  0  0
 10  4  1  6  0  0  0
 10 12  1  0  0  0  0
 10 13  1  0  0  0  0
 14 15  1  0  0  0  0
 15 23  1  6  0  0  0
 15  1  1  0  0  0  0
 16 20  1  6  0  0  0
 16  9  1  0  0  0  0
 16  7  1  0  0  0  0
 17 31  1  1  0  0  0
 17 12  1  0  0  0  0
 18 13  1  0  0  0  0
 19  8  1  0  0  0  0
 21 26  1  0  0  0  0
 22 21  1  0  0  0  0
 24 28  1  0  0  0  0
 24 21  2  0  0  0  0
 25 23  1  0  0  0  0
 26 23  2  0  0  0  0
 26 27  1  0  0  0  0
 28 25  2  0  0  0  0
 30 29  1  0  0  0  0
 30 28  1  0  0  0  0
 32 31  1  0  0  0  0
M  END
>  <MODEL>
1

>  <REMARK>
 VINA RESULT:      -8.2      0.000      0.000
  Name = 
  3 active torsions:
  status: ('A' for Active; 'I' for Inactive)
    1  A    between atoms: C_13  and  C_29
    2  A    between atoms: C_15  and  C_26
    3  A    between atoms: C_16  and  C_27
                            x       y       z     vdW  Elec       q    Type
                         _______ _______ _______ _____ _____    ______ ____

>  <TORSDO>
F 3

$$$$
=
 OpenBabel11052419133D

 32 36  0  0  1  0  0  0  0  0999 V2000
  189.8520  177.4640  145.8830 O   0  0  0  0  0  0  0  0  0  0  0  0
  190.6140  173.7310  144.3150 C   0  0  2  0  0  3  0  0  0  0  0  0
  190.0380  176.9460  147.1710 C   0  0  0  0  0  2  0  0  0  0  0  0
  190.6960  173.9920  145.8230 C   0  0  0  0  0  2  0  0  0  0  0  0
  191.9710  173.7870  143.5930 C   0  0  2  0  0  3  0  0  0  0  0  0
  188.1680  173.7540  140.1070 C   0  0  0  0  0  2  0  0  0  0  0  0
  189.6050  174.6340  143.5770 C   0  0  1  0  0  3  0  0  0  0  0  0
  190.5970  173.0800  140.0810 C   0  0  0  0  0  2  0  0  0  0  0  0
  190.4740  173.1850  141.6070 C   0  0  1  0  0  3  0  0  0  0  0  0
  191.9150  174.8520  146.1230 C   0  0  2  0  0  3  0  0  0  0  0  0
  191.8700  173.0600  142.2480 C   0  0  0  0  0  2  0  0  0  0  0  0
  193.1890  174.0530  145.8390 C   0  0  0  0  0  2  0  0  0  0  0  0
  191.8710  175.3340  147.4930 N   0  0  0  0  0  2  0  0  0  0  0  0
  189.8130  176.1150  143.8990 C   0  0  0  0  0  2  0  0  0  0  0  0
  189.1080  176.4970  145.1960 C   0  0  2  0  0  3  0  0  0  0  0  0
  189.6970  174.4510  142.0490 C   0  0  1  0  0  3  0  0  0  0  0  0
  193.1340  173.3070  144.4860 C   0  0  2  0  0  3  0  0  0  0  0  0
  191.5260  176.7520  147.4470 C   0  0  0  0  0  2  0  0  0  0  0  0
  189.4760  173.8020  139.3250 C   0  0  0  0  0  2  0  0  0  0  0  0
  188.2910  174.5090  141.4360 C   0  0  0  0  0  2  0  0  0  0  0  0
  185.3950  177.2010  145.5910 C   0  0  0  0  0  0  0  0  0  0  0  0
  184.4080  176.9990  146.4980 F   0  0  0  0  0  0  0  0  0  0  0  0
  187.7180  176.9830  144.9180 C   0  0  0  0  0  0  0  0  0  0  0  0
  185.1020  177.8320  144.3780 C   0  0  0  0  0  3  0  0  0  0  0  0
  187.4160  177.6120  143.7020 C   0  0  0  0  0  3  0  0  0  0  0  0
  186.7010  176.7750  145.8620 C   0  0  0  0  0  0  0  0  0  0  0  0
  186.9730  176.1550  147.0390 F   0  0  0  0  0  0  0  0  0  0  0  0
  186.1130  178.0450  143.4360 C   0  0  0  0  0  0  0  0  0  0  0  0
  186.4580  178.0240  141.1040 O   0  0  0  0  0  1  0  0  0  0  0  0
  185.7950  178.6910  142.1350 C   0  0  0  0  0  2  0  0  0  0  0  0
  194.4810  173.4130  143.7770 C   0  0  0  0  0  2  0  0  0  0  0  0
  194.8210  174.7500  143.5590 O   0  0  0  0  0  1  0  0  0  0  0  0
  1  3  1  0  0  0  0
  2  4  1  1  0  0  0
  3 18  1  0  0  0  0
  5 11  1  6  0  0  0
  5  2  1  0  0  0  0
  5 17  1  0  0  0  0
  6 20  1  0  0  0  0
  7 14  1  6  0  0  0
  7  2  1  0  0  0  0
  9  8  1  6  0  0  0
  9 16  1  0  0  0  0
  9 11  1  0  0  0  0
 10  4  1  1  0  0  0
 10 13  1  0  0  0  0
 12 10  1  0  0  0  0
 14 15  1  0  0  0  0
 15 23  1  6  0  0  0
 15  1  1  0  0  0  0
 16 20  1  1  0  0  0
 16  7  1  0  0  0  0
 17 31  1  6  0  0  0
 17 12  1  0  0  0  0
 18 13  1  0  0  0  0
 19  8  1  0  0  0  0
 19  6  1  0  0  0  0
 21 26  1  0  0  0  0
 21 22  1  0  0  0  0
 23 26  2  0  0  0  0
 24 21  2  0  0  0  0
 25 23  1  0  0  0  0
 26 27  1  0  0  0  0
 28 25  2  0  0  0  0
 28 24  1  0  0  0  0
 29 30  1  0  0  0  0
 30 28  1  0  0  0  0
 32 31  1  0  0  0  0
M  END
>  <MODEL>
2

>  <REMARK>
 VINA RESULT:      -8.0      2.946      6.429
  Name = 
  3 active torsions:
  status: ('A' for Active; 'I' for Inactive)
    1  A    between atoms: C_13  and  C_29
    2  A    between atoms: C_15  and  C_26
    3  A    between atoms: C_16  and  C_27
                            x       y       z     vdW  Elec       q    Type
                         _______ _______ _______ _____ _____    ______ ____

>  <TORSDO>
F 3

$$$$
=
 OpenBabel11052419133D

 32 36  0  0  1  0  0  0  0  0999 V2000
  189.4380  173.9860  144.8750 O   0  0  0  0  0  0  0  0  0  0  0  0
  188.0050  177.7840  144.1740 C   0  0  2  0  0  3  0  0  0  0  0  0
  190.3050  174.5070  145.8440 C   0  0  0  0  0  2  0  0  0  0  0  0
  189.0540  177.5180  145.2580 C   0  0  0  0  0  2  0  0  0  0  0  0
  186.5610  177.8520  144.7000 C   0  0  2  0  0  3  0  0  0  0  0  0
  186.5040  177.5870  139.5480 C   0  0  0  0  0  2  0  0  0  0  0  0
  188.0700  176.8050  142.9850 C   0  0  1  0  0  3  0  0  0  0  0  0
  184.9100  178.4680  141.2910 C   0  0  0  0  0  2  0  0  0  0  0  0
  186.1200  178.3400  142.2280 C   0  0  1  0  0  3  0  0  0  0  0  0
  188.4110  176.7640  146.4120 C   0  0  2  0  0  3  0  0  0  0  0  0
  185.6750  178.5800  143.6830 C   0  0  0  0  0  2  0  0  0  0  0  0
  187.4020  177.6720  147.1200 C   0  0  0  0  0  2  0  0  0  0  0  0
  189.4270  176.2670  147.3240 N   0  0  0  0  0  2  0  0  0  0  0  0
  188.0760  175.3440  143.4410 C   0  0  0  0  0  2  0  0  0  0  0  0
  189.4850  174.8910  143.8090 C   0  0  2  0  0  3  0  0  0  0  0  0
  186.8840  177.0080  142.0210 C   0  0  1  0  0  3  0  0  0  0  0  0
  186.4810  178.4220  146.1310 C   0  0  2  0  0  3  0  0  0  0  0  0
  189.5320  174.8260  147.1210 C   0  0  0  0  0  2  0  0  0  0  0  0
  185.0490  177.6590  139.9970 C   0  0  0  0  0  2  0  0  0  0  0  0
  187.3610  176.8340  140.5720 C   0  0  0  0  0  2  0  0  0  0  0  0
  190.2290  172.6450  140.8360 C   0  0  0  0  0  0  0  0  0  0  0  0
  189.6570  171.6150  140.1650 F   0  0  0  0  0  0  0  0  0  0  0  0
  190.1730  174.2900  142.6200 C   0  0  0  0  0  0  0  0  0  0  0  0
  191.4820  173.1200  140.4360 C   0  0  0  0  0  3  0  0  0  0  0  0
  191.4320  174.7580  142.2170 C   0  0  0  0  0  3  0  0  0  0  0  0
  189.5740  173.2270  141.9280 C   0  0  0  0  0  0  0  0  0  0  0  0
  188.3620  172.7520  142.3140 F   0  0  0  0  0  0  0  0  0  0  0  0
  192.0810  174.1810  141.1210 C   0  0  0  0  0  0  0  0  0  0  0  0
  193.7760  175.7790  141.4800 O   0  0  0  0  0  1  0  0  0  0  0  0
  193.4250  174.6680  140.7130 C   0  0  0  0  0  2  0  0  0  0  0  0
  185.0510  178.4390  146.6610 C   0  0  0  0  0  2  0  0  0  0  0  0
  184.5040  177.1540  146.6520 O   0  0  0  0  0  1  0  0  0  0  0  0
  1  3  1  0  0  0  0
  2  5  1  0  0  0  0
  2  4  1  1  0  0  0
  3 18  1  0  0  0  0
  5 11  1  6  0  0  0
  5 17  1  0  0  0  0
  6 19  1  0  0  0  0
  6 20  1  0  0  0  0
  7 14  1  1  0  0  0
  7  2  1  0  0  0  0
  9  8  1  6  0  0  0
  9 11  1  0  0  0  0
 10  4  1  6  0  0  0
 10 12  1  0  0  0  0
 10 13  1  0  0  0  0
 14 15  1  0  0  0  0
 15 23  1  6  0  0  0
 15  1  1  0  0  0  0
 16 20  1  6  0  0  0
 16  9  1  0  0  0  0
 16  7  1  0  0  0  0
 17 31  1  1  0  0  0
 17 12  1  0  0  0  0
 18 13  1  0  0  0  0
 19  8  1  0  0  0  0
 21 26  1  0  0  0  0
 22 21  1  0  0  0  0
 24 21  2  0  0  0  0
 24 28  1  0  0  0  0
 25 23  1  0  0  0  0
 26 27  1  0  0  0  0
 26 23  2  0  0  0  0
 28 25  2  0  0  0  0
 30 28  1  0  0  0  0
 30 29  1  0  0  0  0
 32 31  1  0  0  0  0
M  END
>  <MODEL>
3

>  <REMARK>
 VINA RESULT:      -7.9      1.621      2.108
  Name = 
  3 active torsions:
  status: ('A' for Active; 'I' for Inactive)
    1  A    between atoms: C_13  and  C_29
    2  A    between atoms: C_15  and  C_26
    3  A    between atoms: C_16  and  C_27
                            x       y       z     vdW  Elec       q    Type
                         _______ _______ _______ _____ _____    ______ ____

>  <TORSDO>
F 3

$$$$
=
 OpenBabel11052419133D

 32 36  0  0  1  0  0  0  0  0999 V2000
  191.6310  175.1170  142.5640 O   0  0  0  0  0  0  0  0  0  0  0  0
  187.5520  175.3630  142.0410 C   0  0  2  0  0  3  0  0  0  0  0  0
  191.5970  173.7950  142.1010 C   0  0  0  0  0  2  0  0  0  0  0  0
  188.3280  174.1000  141.6560 C   0  0  0  0  0  2  0  0  0  0  0  0
  187.2800  176.3170  140.8660 C   0  0  2  0  0  3  0  0  0  0  0  0
  186.1970  178.7080  145.3070 C   0  0  0  0  0  2  0  0  0  0  0  0
  188.1810  176.1540  143.2060 C   0  0  1  0  0  3  0  0  0  0  0  0
  185.4390  178.9850  142.9190 C   0  0  0  0  0  2  0  0  0  0  0  0
  186.0860  177.6070  142.7250 C   0  0  1  0  0  3  0  0  0  0  0  0
  189.1770  174.3820  140.4250 C   0  0  2  0  0  3  0  0  0  0  0  0
  186.1280  177.2620  141.2230 C   0  0  0  0  0  2  0  0  0  0  0  0
  188.2680  174.6150  139.2160 C   0  0  0  0  0  2  0  0  0  0  0  0
  190.1170  173.2980  140.1970 N   0  0  0  0  0  2  0  0  0  0  0  0
  189.6680  176.4330  142.9770 C   0  0  0  0  0  2  0  0  0  0  0  0
  190.5210  175.2440  143.4070 C   0  0  2  0  0  3  0  0  0  0  0  0
  187.4630  177.5000  143.4280 C   0  0  1  0  0  3  0  0  0  0  0  0
  187.0940  175.5690  139.5300 C   0  0  2  0  0  3  0  0  0  0  0  0
  191.4410  173.7770  140.5820 C   0  0  0  0  0  2  0  0  0  0  0  0
  185.8990  179.7040  144.1920 C   0  0  0  0  0  2  0  0  0  0  0  0
  187.3680  177.7930  144.9320 C   0  0  0  0  0  2  0  0  0  0  0  0
  190.4890  175.0860  147.2030 C   0  0  0  0  0  0  0  0  0  0  0  0
  189.6840  174.6420  148.2000 F   0  0  0  0  0  0  0  0  0  0  0  0
  190.9440  175.3890  144.8380 C   0  0  0  0  0  0  0  0  0  0  0  0
  191.6990  175.7120  147.5170 C   0  0  0  0  0  3  0  0  0  0  0  0
  192.1540  176.0200  145.1600 C   0  0  0  0  0  3  0  0  0  0  0  0
  190.1090  174.9240  145.8650 C   0  0  0  0  0  0  0  0  0  0  0  0
  188.9270  174.3240  145.5710 F   0  0  0  0  0  0  0  0  0  0  0  0
  192.5350  176.1720  146.4970 C   0  0  0  0  0  0  0  0  0  0  0  0
  194.4180  177.3200  145.6630 O   0  0  0  0  0  1  0  0  0  0  0  0
  193.8090  176.8630  146.8320 C   0  0  0  0  0  2  0  0  0  0  0  0
  186.8740  176.5270  138.3630 C   0  0  0  0  0  2  0  0  0  0  0  0
  186.8110  175.8290  137.1550 O   0  0  0  0  0  1  0  0  0  0  0  0
  1 15  1  0  0  0  0
  2  4  1  6  0  0  0
  2  7  1  0  0  0  0
  3  1  1  0  0  0  0
  5 11  1  1  0  0  0
  5  2  1  0  0  0  0
  7 14  1  6  0  0  0
  7 16  1  0  0  0  0
  8 19  1  0  0  0  0
  9 11  1  6  0  0  0
  9  8  1  0  0  0  0
  9 16  1  0  0  0  0
 10 12  1  6  0  0  0
 10  4  1  0  0  0  0
 12 17  1  0  0  0  0
 13 10  1  0  0  0  0
 13 18  1  0  0  0  0
 14 15  1  0  0  0  0
 15 23  1  1  0  0  0
 16 20  1  1  0  0  0
 17 31  1  6  0  0  0
 17  5  1  0  0  0  0
 18  3  1  0  0  0  0
 19  6  1  0  0  0  0
 20  6  1  0  0  0  0
 21 24  1  0  0  0  0
 21 22  1  0  0  0  0
 23 25  2  0  0  0  0
 23 26  1  0  0  0  0
 25 28  1  0  0  0  0
 26 21  2  0  0  0  0
 27 26  1  0  0  0  0
 28 30  1  0  0  0  0
 28 24  2  0  0  0  0
 29 30  1  0  0  0  0
 32 31  1  0  0  0  0
M  END
>  <MODEL>
4

>  <REMARK>
 VINA RESULT:      -7.5      2.888      5.872
  Name = 
  3 active torsions:
  status: ('A' for Active; 'I' for Inactive)
    1  A    between atoms: C_13  and  C_29
    2  A    between atoms: C_15  and  C_26
    3  A    between atoms: C_16  and  C_27
                            x       y       z     vdW  Elec       q    Type
                         _______ _______ _______ _____ _____    ______ ____

>  <TORSDO>
F 3

$$$$
=
 OpenBabel11052419133D

 32 36  0  0  1  0  0  0  0  0999 V2000
  189.9600  177.6010  145.7850 O   0  0  0  0  0  0  0  0  0  0  0  0
  190.4890  173.7780  144.3430 C   0  0  2  0  0  3  0  0  0  0  0  0
  190.0630  177.1080  147.0930 C   0  0  0  0  0  2  0  0  0  0  0  0
  190.5410  174.0760  145.8460 C   0  0  0  0  0  2  0  0  0  0  0  0
  191.8690  173.7120  143.6680 C   0  0  2  0  0  3  0  0  0  0  0  0
  188.1910  173.8630  140.0530 C   0  0  0  0  0  2  0  0  0  0  0  0
  189.5760  174.7320  143.5470 C   0  0  1  0  0  3  0  0  0  0  0  0
  190.5620  173.0090  140.1300 C   0  0  0  0  0  2  0  0  0  0  0  0
  190.3980  173.1670  141.6480 C   0  0  1  0  0  3  0  0  0  0  0  0
  191.8110  174.8510  146.1650 C   0  0  2  0  0  3  0  0  0  0  0  0
  191.7590  172.9560  142.3400 C   0  0  0  0  0  2  0  0  0  0  0  0
  193.0300  173.9510  145.9470 C   0  0  0  0  0  2  0  0  0  0  0  0
  191.7590  175.3740  147.5200 N   0  0  0  0  0  2  0  0  0  0  0  0
  189.8840  176.2020  143.8380 C   0  0  0  0  0  2  0  0  0  0  0  0
  189.1680  176.6730  145.0990 C   0  0  2  0  0  3  0  0  0  0  0  0
  189.7050  174.4990  142.0280 C   0  0  1  0  0  3  0  0  0  0  0  0
  192.9630  173.1730  144.6130 C   0  0  2  0  0  3  0  0  0  0  0  0
  191.5240  176.8120  147.4250 C   0  0  0  0  0  2  0  0  0  0  0  0
  189.5240  173.7910  139.3170 C   0  0  0  0  0  2  0  0  0  0  0  0
  188.3270  174.6440  141.3650 C   0  0  0  0  0  2  0  0  0  0  0  0
  186.3840  178.4390  143.2100 C   0  0  0  0  0  0  0  0  0  0  0  0
  186.1840  179.0410  142.0120 F   0  0  0  0  0  0  0  0  0  0  0  0
  187.8280  177.2520  144.7600 C   0  0  0  0  0  0  0  0  0  0  0  0
  185.3440  178.3940  144.1440 C   0  0  0  0  0  3  0  0  0  0  0  0
  186.7820  177.2150  145.6930 C   0  0  0  0  0  3  0  0  0  0  0  0
  187.6260  177.8710  143.5160 C   0  0  0  0  0  0  0  0  0  0  0  0
  188.6320  177.9280  142.6070 F   0  0  0  0  0  0  0  0  0  0  0  0
  185.5390  177.7760  145.3820 C   0  0  0  0  0  0  0  0  0  0  0  0
  184.8160  178.4870  147.5100 O   0  0  0  0  0  1  0  0  0  0  0  0
  184.4420  177.7520  146.3850 C   0  0  0  0  0  2  0  0  0  0  0  0
  194.3370  173.1590  143.9490 C   0  0  0  0  0  2  0  0  0  0  0  0
  194.7120  174.4460  143.5580 O   0  0  0  0  0  1  0  0  0  0  0  0
  1  3  1  0  0  0  0
  2  4  1  1  0  0  0
  3 18  1  0  0  0  0
  5 11  1  6  0  0  0
  5  2  1  0  0  0  0
  5 17  1  0  0  0  0
  6 20  1  0  0  0  0
  7 14  1  6  0  0  0
  7  2  1  0  0  0  0
  9  8  1  6  0  0  0
  9 16  1  0  0  0  0
  9 11  1  0  0  0  0
 10  4  1  1  0  0  0
 10 13  1  0  0  0  0
 12 10  1  0  0  0  0
 14 15  1  0  0  0  0
 15 23  1  6  0  0  0
 15  1  1  0  0  0  0
 16 20  1  6  0  0  0
 16  7  1  0  0  0  0
 17 31  1  6  0  0  0
 17 12  1  0  0  0  0
 18 13  1  0  0  0  0
 19  6  1  0  0  0  0
 19  8  1  0  0  0  0
 21 26  2  0  0  0  0
 21 24  1  0  0  0  0
 22 21  1  0  0  0  0
 23 25  2  0  0  0  0
 24 28  2  0  0  0  0
 26 23  1  0  0  0  0
 27 26  1  0  0  0  0
 28 25  1  0  0  0  0
 28 30  1  0  0  0  0
 30 29  1  0  0  0  0
 32 31  1  0  0  0  0
M  END
>  <MODEL>
5

>  <REMARK>
 VINA RESULT:      -7.4      2.602      6.506
  Name = 
  3 active torsions:
  status: ('A' for Active; 'I' for Inactive)
    1  A    between atoms: C_13  and  C_29
    2  A    between atoms: C_15  and  C_26
    3  A    between atoms: C_16  and  C_27
                            x       y       z     vdW  Elec       q    Type
                         _______ _______ _______ _____ _____    ______ ____

>  <TORSDO>
F 3

$$$$
=
 OpenBabel11052419133D

 32 36  0  0  1  0  0  0  0  0999 V2000
  187.8200  173.8870  141.5750 O   0  0  0  0  0  0  0  0  0  0  0  0
  191.5010  174.9080  143.1200 C   0  0  2  0  0  3  0  0  0  0  0  0
  188.3780  173.8730  140.2900 C   0  0  0  0  0  2  0  0  0  0  0  0
  191.3140  174.6370  141.6230 C   0  0  0  0  0  2  0  0  0  0  0  0
  192.0340  173.7030  143.9130 C   0  0  2  0  0  3  0  0  0  0  0  0
  190.3840  177.3300  147.1910 C   0  0  0  0  0  2  0  0  0  0  0  0
  190.2440  175.4640  143.8170 C   0  0  1  0  0  3  0  0  0  0  0  0
  192.0450  175.4390  147.3350 C   0  0  0  0  0  2  0  0  0  0  0  0
  191.9100  175.4190  145.8060 C   0  0  1  0  0  3  0  0  0  0  0  0
  191.0710  173.1520  141.4020 C   0  0  2  0  0  3  0  0  0  0  0  0
  192.6340  174.1830  145.2390 C   0  0  0  0  0  2  0  0  0  0  0  0
  192.3410  172.3680  141.7410 C   0  0  0  0  0  2  0  0  0  0  0  0
  190.6280  172.9060  140.0400 N   0  0  0  0  0  2  0  0  0  0  0  0
  189.0030  174.6170  143.5310 C   0  0  0  0  0  2  0  0  0  0  0  0
  188.3630  175.0130  142.2050 C   0  0  2  0  0  3  0  0  0  0  0  0
  190.4360  175.5450  145.3450 C   0  0  1  0  0  3  0  0  0  0  0  0
  192.9780  172.8160  143.0770 C   0  0  2  0  0  3  0  0  0  0  0  0
  189.2020  172.6030  140.0910 C   0  0  0  0  0  2  0  0  0  0  0  0
  190.9020  176.1760  148.0420 C   0  0  0  0  0  2  0  0  0  0  0  0
  189.7680  176.8180  145.8830 C   0  0  0  0  0  2  0  0  0  0  0  0
  185.9710  177.8920  141.5510 C   0  0  0  0  0  0  0  0  0  0  0  0
  185.5870  178.6870  140.5220 F   0  0  0  0  0  0  0  0  0  0  0  0
  187.3200  176.0690  142.4160 C   0  0  0  0  0  0  0  0  0  0  0  0
  185.4160  178.0850  142.8200 C   0  0  0  0  0  3  0  0  0  0  0  0
  186.7620  176.2710  143.6870 C   0  0  0  0  0  3  0  0  0  0  0  0
  186.9230  176.8860  141.3470 C   0  0  0  0  0  0  0  0  0  0  0  0
  187.4630  176.7130  140.1140 F   0  0  0  0  0  0  0  0  0  0  0  0
  185.8050  177.2700  143.8860 C   0  0  0  0  0  0  0  0  0  0  0  0
  185.8320  176.6230  146.1530 O   0  0  0  0  0  1  0  0  0  0  0  0
  185.2350  177.4930  145.2410 C   0  0  0  0  0  2  0  0  0  0  0  0
  193.4610  171.5980  143.8580 C   0  0  0  0  0  2  0  0  0  0  0  0
  192.4010  170.7290  144.1250 O   0  0  0  0  0  1  0  0  0  0  0  0
  1 15  1  0  0  0  0
  2  4  1  6  0  0  0
  2  7  1  0  0  0  0
  2  5  1  0  0  0  0
  3  1  1  0  0  0  0
  5 11  1  1  0  0  0
  6 19  1  0  0  0  0
  7 14  1  1  0  0  0
  7 16  1  0  0  0  0
  8 19  1  0  0  0  0
  9 11  1  1  0  0  0
  9  8  1  0  0  0  0
 10  4  1  6  0  0  0
 10 12  1  0  0  0  0
 12 17  1  0  0  0  0
 13 18  1  0  0  0  0
 13 10  1  0  0  0  0
 15 23  1  1  0  0  0
 15 14  1  0  0  0  0
 16  9  1  0  0  0  0
 16 20  1  6  0  0  0
 17 31  1  1  0  0  0
 17  5  1  0  0  0  0
 18  3  1  0  0  0  0
 20  6  1  0  0  0  0
 21 24  1  0  0  0  0
 22 21  1  0  0  0  0
 23 25  2  0  0  0  0
 24 28  2  0  0  0  0
 25 28  1  0  0  0  0
 26 21  2  0  0  0  0
 26 23  1  0  0  0  0
 27 26  1  0  0  0  0
 28 30  1  0  0  0  0
 30 29  1  0  0  0  0
 31 32  1  0  0  0  0
M  END
>  <MODEL>
6

>  <REMARK>
 VINA RESULT:      -7.4      2.857      7.173
  Name = 
  3 active torsions:
  status: ('A' for Active; 'I' for Inactive)
    1  A    between atoms: C_13  and  C_29
    2  A    between atoms: C_15  and  C_26
    3  A    between atoms: C_16  and  C_27
                            x       y       z     vdW  Elec       q    Type
                         _______ _______ _______ _____ _____    ______ ____

>  <TORSDO>
F 3

$$$$
=
 OpenBabel11052419133D

 32 36  0  0  1  0  0  0  0  0999 V2000
  191.5250  175.0780  146.8090 O   0  0  0  0  0  0  0  0  0  0  0  0
  189.8480  176.2980  143.2490 C   0  0  2  0  0  3  0  0  0  0  0  0
  191.5950  176.4160  147.2180 C   0  0  0  0  0  2  0  0  0  0  0  0
  190.1880  177.3040  144.3530 C   0  0  0  0  0  2  0  0  0  0  0  0
  188.3760  175.8500  143.2380 C   0  0  2  0  0  3  0  0  0  0  0  0
  191.1300  172.7840  140.1350 C   0  0  0  0  0  2  0  0  0  0  0  0
  190.7600  175.0550  143.2300 C   0  0  1  0  0  3  0  0  0  0  0  0
  188.7010  173.4430  140.2670 C   0  0  0  0  0  2  0  0  0  0  0  0
  189.2180  174.5410  141.2080 C   0  0  1  0  0  3  0  0  0  0  0  0
  189.2250  177.1230  145.5180 C   0  0  2  0  0  3  0  0  0  0  0  0
  188.0260  175.2600  141.8680 C   0  0  0  0  0  2  0  0  0  0  0  0
  187.8160  177.5410  145.0890 C   0  0  0  0  0  2  0  0  0  0  0  0
  189.6840  177.8700  146.6770 N   0  0  0  0  0  2  0  0  0  0  0  0
  190.8620  174.3940  144.6060 C   0  0  0  0  0  2  0  0  0  0  0  0
  191.9200  175.0790  145.4660 C   0  0  2  0  0  3  0  0  0  0  0  0
  190.2600  174.0030  142.2210 C   0  0  1  0  0  3  0  0  0  0  0  0
  187.4180  176.9610  143.7120 C   0  0  2  0  0  3  0  0  0  0  0  0
  190.2120  176.9070  147.6380 C   0  0  0  0  0  2  0  0  0  0  0  0
  189.6890  172.2890  140.0700 C   0  0  0  0  0  2  0  0  0  0  0  0
  191.4590  173.3450  141.5230 C   0  0  0  0  0  2  0  0  0  0  0  0
  195.6260  174.5570  144.8090 C   0  0  0  0  0  0  0  0  0  0  0  0
  196.7250  175.2950  144.5200 F   0  0  0  0  0  0  0  0  0  0  0  0
  193.2510  174.4120  145.2940 C   0  0  0  0  0  0  0  0  0  0  0  0
  195.7320  173.1670  144.9110 C   0  0  0  0  0  3  0  0  0  0  0  0
  193.3650  173.0180  145.3900 C   0  0  0  0  0  3  0  0  0  0  0  0
  194.3870  175.1820  144.9990 C   0  0  0  0  0  0  0  0  0  0  0  0
  194.2920  176.5310  144.8890 F   0  0  0  0  0  0  0  0  0  0  0  0
  194.6050  172.3970  145.2080 C   0  0  0  0  0  0  0  0  0  0  0  0
  195.7640  170.5670  146.1380 O   0  0  0  0  0  1  0  0  0  0  0  0
  194.7130  170.9170  145.2890 C   0  0  0  0  0  2  0  0  0  0  0  0
  185.9670  176.4910  143.7460 C   0  0  0  0  0  2  0  0  0  0  0  0
  185.2060  177.1660  142.7890 O   0  0  0  0  0  1  0  0  0  0  0  0
  1  3  1  0  0  0  0
  2  4  1  1  0  0  0
  3 18  1  0  0  0  0
  5 11  1  6  0  0  0
  5  2  1  0  0  0  0
  5 17  1  0  0  0  0
  6 20  1  0  0  0  0
  7  2  1  0  0  0  0
  7 14  1  1  0  0  0
  9  8  1  1  0  0  0
  9 11  1  0  0  0  0
  9 16  1  0  0  0  0
 10  4  1  6  0  0  0
 10 13  1  0  0  0  0
 12 10  1  0  0  0  0
 13 18  1  0  0  0  0
 14 15  1  0  0  0  0
 15 23  1  1  0  0  0
 15  1  1  0  0  0  0
 16 20  1  6  0  0  0
 16  7  1  0  0  0  0
 17 31  1  1  0  0  0
 17 12  1  0  0  0  0
 19  6  1  0  0  0  0
 19  8  1  0  0  0  0
 21 24  2  0  0  0  0
 21 26  1  0  0  0  0
 22 21  1  0  0  0  0
 23 25  1  0  0  0  0
 24 28  1  0  0  0  0
 26 23  2  0  0  0  0
 27 26  1  0  0  0  0
 28 30  1  0  0  0  0
 28 25  2  0  0  0  0
 30 29  1  0  0  0  0
 32 31  1  0  0  0  0
M  END
>  <MODEL>
7

>  <REMARK>
 VINA RESULT:      -7.3      2.994      4.791
  Name = 
  3 active torsions:
  status: ('A' for Active; 'I' for Inactive)
    1  A    between atoms: C_13  and  C_29
    2  A    between atoms: C_15  and  C_26
    3  A    between atoms: C_16  and  C_27
                            x       y       z     vdW  Elec       q    Type
                         _______ _______ _______ _____ _____    ______ ____

>  <TORSDO>
F 3

$$$$
=
 OpenBabel11052419133D

 32 36  0  0  1  0  0  0  0  0999 V2000
  192.5690  173.6490  142.8340 O   0  0  0  0  0  0  0  0  0  0  0  0
  188.6330  173.8210  141.6320 C   0  0  2  0  0  3  0  0  0  0  0  0
  192.5010  172.2500  142.8130 C   0  0  0  0  0  2  0  0  0  0  0  0
  189.3580  172.4810  141.7910 C   0  0  0  0  0  2  0  0  0  0  0  0
  188.5990  174.3510  140.1890 C   0  0  2  0  0  3  0  0  0  0  0  0
  187.0910  178.0770  143.4230 C   0  0  0  0  0  2  0  0  0  0  0  0
  189.1520  174.9290  142.5710 C   0  0  1  0  0  3  0  0  0  0  0  0
  186.6960  177.5870  140.9820 C   0  0  0  0  0  2  0  0  0  0  0  0
  187.2580  176.2030  141.3360 C   0  0  1  0  0  3  0  0  0  0  0  0
  190.3890  172.3280  140.6820 C   0  0  2  0  0  3  0  0  0  0  0  0
  187.4830  175.3900  140.0460 C   0  0  0  0  0  2  0  0  0  0  0  0
  189.6760  172.1810  139.3350 C   0  0  0  0  0  2  0  0  0  0  0  0
  191.2670  171.2040  140.9570 N   0  0  0  0  0  2  0  0  0  0  0  0
  190.6720  175.0800  142.5000 C   0  0  0  0  0  2  0  0  0  0  0  0
  191.3660  174.0720  143.4110 C   0  0  2  0  0  3  0  0  0  0  0  0
  188.5120  176.2930  142.2420 C   0  0  1  0  0  3  0  0  0  0  0  0
  188.5450  173.2160  139.1460 C   0  0  2  0  0  3  0  0  0  0  0  0
  192.5570  171.7470  141.3730 C   0  0  0  0  0  2  0  0  0  0  0  0
  187.0270  178.6660  142.0180 C   0  0  0  0  0  2  0  0  0  0  0  0
  188.2320  177.0590  143.5430 C   0  0  0  0  0  2  0  0  0  0  0  0
  190.8310  175.0690  147.0380 C   0  0  0  0  0  0  0  0  0  0  0  0
  189.9010  174.9160  148.0130 F   0  0  0  0  0  0  0  0  0  0  0  0
  191.5950  174.6600  144.7700 C   0  0  0  0  0  0  0  0  0  0  0  0
  191.9880  175.8100  147.2960 C   0  0  0  0  0  3  0  0  0  0  0  0
  192.7510  175.4080  145.0340 C   0  0  0  0  0  3  0  0  0  0  0  0
  190.6310  174.4950  145.7770 C   0  0  0  0  0  0  0  0  0  0  0  0
  189.5000  173.7850  145.5340 F   0  0  0  0  0  0  0  0  0  0  0  0
  192.9520  175.9740  146.2970 C   0  0  0  0  0  0  0  0  0  0  0  0
  194.7010  177.2460  145.3580 O   0  0  0  0  0  1  0  0  0  0  0  0
  194.1700  176.7840  146.5630 C   0  0  0  0  0  2  0  0  0  0  0  0
  188.5620  173.7510  137.7170 C   0  0  0  0  0  2  0  0  0  0  0  0
  189.8480  174.1590  137.3560 O   0  0  0  0  0  1  0  0  0  0  0  0
  1 15  1  0  0  0  0
  2  4  1  6  0  0  0
  2  7  1  0  0  0  0
  3  1  1  0  0  0  0
  5 11  1  1  0  0  0
  5  2  1  0  0  0  0
  6 20  1  0  0  0  0
  7 14  1  6  0  0  0
  8  9  1  0  0  0  0
  8 19  1  0  0  0  0
  9 11  1  6  0  0  0
  9 16  1  0  0  0  0
 10 12  1  6  0  0  0
 10 13  1  0  0  0  0
 10  4  1  0  0  0  0
 13 18  1  0  0  0  0
 14 15  1  0  0  0  0
 15 23  1  1  0  0  0
 16  7  1  0  0  0  0
 16 20  1  1  0  0  0
 17 31  1  6  0  0  0
 17 12  1  0  0  0  0
 17  5  1  0  0  0  0
 18  3  1  0  0  0  0
 19  6  1  0  0  0  0
 21 24  1  0  0  0  0
 21 22  1  0  0  0  0
 23 25  2  0  0  0  0
 23 26  1  0  0  0  0
 25 28  1  0  0  0  0
 26 21  2  0  0  0  0
 27 26  1  0  0  0  0
 28 30  1  0  0  0  0
 28 24  2  0  0  0  0
 29 30  1  0  0  0  0
 32 31  1  0  0  0  0
M  END
>  <MODEL>
8

>  <REMARK>
 VINA RESULT:      -7.2      3.175      6.312
  Name = 
  3 active torsions:
  status: ('A' for Active; 'I' for Inactive)
    1  A    between atoms: C_13  and  C_29
    2  A    between atoms: C_15  and  C_26
    3  A    between atoms: C_16  and  C_27
                            x       y       z     vdW  Elec       q    Type
                         _______ _______ _______ _____ _____    ______ ____

>  <TORSDO>
F 3

$$$$
=
 OpenBabel11052419133D

 32 36  0  0  1  0  0  0  0  0999 V2000
  191.6370  177.1630  145.3950 O   0  0  0  0  0  0  0  0  0  0  0  0
  191.8780  173.4490  143.6290 C   0  0  2  0  0  3  0  0  0  0  0  0
  192.2380  176.6390  146.5470 C   0  0  0  0  0  2  0  0  0  0  0  0
  192.4460  173.7020  145.0290 C   0  0  0  0  0  2  0  0  0  0  0  0
  192.9240  173.5250  142.5040 C   0  0  2  0  0  3  0  0  0  0  0  0
  188.1900  173.4680  140.4520 C   0  0  0  0  0  2  0  0  0  0  0  0
  190.6750  174.3440  143.2700 C   0  0  1  0  0  3  0  0  0  0  0  0
  190.4830  172.8230  139.6270 C   0  0  0  0  0  2  0  0  0  0  0  0
  190.8660  172.9170  141.1100 C   0  0  1  0  0  3  0  0  0  0  0  0
  193.6880  174.5740  144.9220 C   0  0  2  0  0  3  0  0  0  0  0  0
  192.3960  172.8050  141.2580 C   0  0  0  0  0  2  0  0  0  0  0  0
  194.8070  173.7920  144.2300 C   0  0  0  0  0  2  0  0  0  0  0  0
  194.0910  175.0480  146.2360 N   0  0  0  0  0  2  0  0  0  0  0  0
  190.9630  175.8250  143.5210 C   0  0  0  0  0  2  0  0  0  0  0  0
  190.7180  176.1910  144.9800 C   0  0  2  0  0  3  0  0  0  0  0  0
  190.2640  174.1720  141.7940 C   0  0  1  0  0  3  0  0  0  0  0  0
  194.3190  173.0540  142.9620 C   0  0  2  0  0  3  0  0  0  0  0  0
  193.7370  176.4610  146.3190 C   0  0  0  0  0  2  0  0  0  0  0  0
  189.1700  173.5360  139.2860 C   0  0  0  0  0  2  0  0  0  0  0  0
  188.7340  174.2170  141.6750 C   0  0  0  0  0  2  0  0  0  0  0  0
  187.2830  176.7280  146.5140 C   0  0  0  0  0  0  0  0  0  0  0  0
  186.6020  176.3920  147.6360 F   0  0  0  0  0  0  0  0  0  0  0  0
  189.3080  176.6620  145.1770 C   0  0  0  0  0  0  0  0  0  0  0  0
  186.6520  177.4860  145.5220 C   0  0  0  0  0  3  0  0  0  0  0  0
  188.6680  177.4180  144.1850 C   0  0  0  0  0  3  0  0  0  0  0  0
  188.6100  176.3140  146.3430 C   0  0  0  0  0  0  0  0  0  0  0  0
  189.2100  175.5710  147.3070 F   0  0  0  0  0  0  0  0  0  0  0  0
  187.3460  177.8380  144.3610 C   0  0  0  0  0  0  0  0  0  0  0  0
  185.6670  179.4150  143.8590 O   0  0  0  0  0  1  0  0  0  0  0  0
  186.6660  178.6200  143.2950 C   0  0  0  0  0  2  0  0  0  0  0  0
  195.3590  173.1800  141.8530 C   0  0  0  0  0  2  0  0  0  0  0  0
  195.4210  174.4930  141.3800 O   0  0  0  0  0  1  0  0  0  0  0  0
  1  3  1  0  0  0  0
  2  4  1  1  0  0  0
  5 11  1  6  0  0  0
  5 17  1  0  0  0  0
  5  2  1  0  0  0  0
  6 20  1  0  0  0  0
  7 14  1  6  0  0  0
  7  2  1  0  0  0  0
  9  8  1  6  0  0  0
  9 11  1  0  0  0  0
  9 16  1  0  0  0  0
 10 12  1  1  0  0  0
 10  4  1  0  0  0  0
 10 13  1  0  0  0  0
 13 18  1  0  0  0  0
 14 15  1  0  0  0  0
 15 23  1  6  0  0  0
 15  1  1  0  0  0  0
 16 20  1  1  0  0  0
 16  7  1  0  0  0  0
 17 31  1  6  0  0  0
 17 12  1  0  0  0  0
 18  3  1  0  0  0  0
 19  8  1  0  0  0  0
 19  6  1  0  0  0  0
 21 22  1  0  0  0  0
 23 26  2  0  0  0  0
 24 21  2  0  0  0  0
 25 28  2  0  0  0  0
 25 23  1  0  0  0  0
 26 21  1  0  0  0  0
 26 27  1  0  0  0  0
 28 24  1  0  0  0  0
 30 29  1  0  0  0  0
 30 28  1  0  0  0  0
 32 31  1  0  0  0  0
M  END
>  <MODEL>
9

>  <REMARK>
 VINA RESULT:      -7.2      3.023      6.910
  Name = 
  3 active torsions:
  status: ('A' for Active; 'I' for Inactive)
    1  A    between atoms: C_13  and  C_29
    2  A    between atoms: C_15  and  C_26
    3  A    between atoms: C_16  and  C_27
                            x       y       z     vdW  Elec       q    Type
                         _______ _______ _______ _____ _____    ______ ____

>  <TORSDO>
F 3

$$$$
