=
 OpenBabel11052421303D

 32 37  0  0  1  0  0  0  0  0999 V2000
  190.6170  175.4680  143.2150 C   0  0  1  0  0  3  0  0  0  0  0  0
  193.0690  176.0460  143.5340 C   0  0  2  0  0  3  0  0  0  0  0  0
  192.8350  176.1930  145.0350 C   0  0  1  0  0  3  0  0  0  0  0  0
  195.6250  176.1000  144.1600 C   0  0  1  0  0  3  0  0  0  0  0  0
  189.5540  174.5310  142.5970 C   0  0  0  0  0  2  0  0  0  0  0  0
  190.0890  173.1790  142.1190 C   0  0  2  0  0  3  0  0  0  0  0  0
  192.2760  174.9540  141.5320 O   0  0  0  0  0  0  0  0  0  0  0  0
  195.1990  176.6810  145.5220 C   0  0  0  0  0  2  0  0  0  0  0  0
  193.7890  177.2430  145.5510 C   0  0  0  0  0  2  0  0  0  0  0  0
  190.7690  173.3440  140.9040 O   0  0  0  0  0  0  0  0  0  0  0  0
  192.1060  173.5930  141.2430 C   0  0  0  0  0  2  0  0  0  0  0  0
  194.9630  174.3200  143.4880 C   0  0  0  0  0  2  0  0  0  0  0  0
  190.4020  175.6350  144.7300 C   0  0  1  0  0  3  0  0  0  0  0  0
  191.4050  176.6410  145.3040 C   0  0  0  0  0  2  0  0  0  0  0  0
  195.9800  174.7540  144.3570 O   0  0  0  0  0  0  0  0  0  0  0  0
  192.0740  175.0540  142.9150 C   0  0  2  0  0  3  0  0  0  0  0  0
  194.5350  175.7270  143.1590 C   0  0  1  0  0  3  0  0  0  0  0  0
  186.8880  177.7630  146.2610 C   0  0  0  0  0  2  0  0  0  0  0  0
  188.9550  176.0310  145.0740 C   0  0  1  0  0  3  0  0  0  0  0  0
  188.9850  174.6890  147.2020 C   0  0  0  0  0  1  0  0  0  0  0  0
  187.2490  176.4140  146.8830 C   0  0  0  0  0  2  0  0  0  0  0  0
  188.7030  176.0500  146.5910 C   0  0  2  0  0  3  0  0  0  0  0  0
  188.5710  177.3740  144.4350 C   0  0  0  0  0  2  0  0  0  0  0  0
  187.1240  177.7600  144.7510 C   0  0  1  0  0  3  0  0  0  0  0  0
  186.1230  176.8490  144.0410 C   0  0  0  0  0  2  0  0  0  0  0  0
  186.3020  176.8930  142.5310 C   0  0  0  0  0  2  0  0  0  0  0  0
  185.9200  178.2570  141.9880 C   0  0  1  0  0  3  0  0  0  0  0  0
  185.2950  178.1080  140.6560 C   0  0  0  0  0  2  0  0  0  0  0  0
  184.5230  178.3010  141.8150 O   0  0  0  0  0  0  0  0  0  0  0  0
  189.0230  172.2990  141.9340 O   0  0  0  0  0  0  0  0  0  0  0  0
  188.0330  173.0620  141.3140 C   0  0  0  0  0  2  0  0  0  0  0  0
  187.8900  172.6480  139.9890 O   0  0  0  0  0  1  0  0  0  0  0  0
  1  5  1  1  0  0  0
  1 13  1  0  0  0  0
  2  3  1  0  0  0  0
  3 14  1  0  0  0  0
  3  9  1  0  0  0  0
  4 15  1  0  0  0  0
  4  8  1  0  0  0  0
  6  5  1  0  0  0  0
  7 16  1  0  0  0  0
  8  9  1  0  0  0  0
 10 11  1  0  0  0  0
 10  6  1  0  0  0  0
 11  7  1  0  0  0  0
 12 15  1  0  0  0  0
 13 19  1  0  0  0  0
 13 14  1  0  0  0  0
 16  1  1  0  0  0  0
 16  2  1  0  0  0  0
 17 12  1  0  0  0  0
 17  2  1  0  0  0  0
 17  4  1  0  0  0  0
 18 21  1  0  0  0  0
 19 22  1  0  0  0  0
 22 21  1  0  0  0  0
 22 20  1  0  0  0  0
 23 24  1  0  0  0  0
 23 19  1  0  0  0  0
 24 18  1  0  0  0  0
 25 24  1  0  0  0  0
 26 25  1  0  0  0  0
 27 26  1  0  0  0  0
 28 29  1  0  0  0  0
 28 27  1  0  0  0  0
 29 27  1  0  0  0  0
 30  6  1  0  0  0  0
 31 30  1  0  0  0  0
 32 31  1  0  0  0  0
M  END
>  <MODEL>
1

>  <REMARK>
 VINA RESULT:      -7.5      0.000      0.000
  Name = 
  6 active torsions:
  status: ('A' for Active; 'I' for Inactive)
    1  A    between atoms: C_1  and  C_10
    2  A    between atoms: C_4  and  O_13
    3  A    between atoms: C_8  and  C_28
    4  A    between atoms: C_10  and  C_19
    5  A    between atoms: O_13  and  C_15
    6  A    between atoms: C_19  and  C_24
                            x       y       z     vdW  Elec       q    Type
                         _______ _______ _______ _____ _____    ______ ____

>  <TORSDO>
F 6

$$$$
=
 OpenBabel11052421303D

 32 37  0  0  1  0  0  0  0  0999 V2000
  188.7260  176.5850  143.9820 C   0  0  1  0  0  3  0  0  0  0  0  0
  187.0080  177.8220  142.5810 C   0  0  2  0  0  3  0  0  0  0  0  0
  187.0360  176.6920  141.5550 C   0  0  1  0  0  3  0  0  0  0  0  0
  184.8600  178.6290  141.2900 C   0  0  1  0  0  3  0  0  0  0  0  0
  189.1640  176.0600  145.3680 C   0  0  0  0  0  2  0  0  0  0  0  0
  188.0500  176.0010  146.4150 C   0  0  2  0  0  3  0  0  0  0  0  0
  187.3630  178.3540  144.9090 O   0  0  0  0  0  0  0  0  0  0  0  0
  185.3110  177.7210  140.1310 C   0  0  0  0  0  2  0  0  0  0  0  0
  186.7670  177.2940  140.1970 C   0  0  0  0  0  2  0  0  0  0  0  0
  187.7860  177.2910  146.8960 O   0  0  0  0  0  0  0  0  0  0  0  0
  186.7860  177.8140  146.0650 C   0  0  0  0  0  2  0  0  0  0  0  0
  184.5090  177.9230  143.1450 C   0  0  0  0  0  2  0  0  0  0  0  0
  188.7480  175.4650  142.9270 C   0  0  1  0  0  3  0  0  0  0  0  0
  188.4050  176.0260  141.5430 C   0  0  0  0  0  2  0  0  0  0  0  0
  183.7850  177.9980  141.9410 O   0  0  0  0  0  0  0  0  0  0  0  0
  187.3600  177.3030  143.9830 C   0  0  2  0  0  3  0  0  0  0  0  0
  185.6980  178.6460  142.5660 C   0  0  1  0  0  3  0  0  0  0  0  0
  192.4920  173.6030  141.6070 C   0  0  0  0  0  2  0  0  0  0  0  0
  190.0900  174.7090  142.9050 C   0  0  1  0  0  3  0  0  0  0  0  0
  188.9530  172.4880  142.5870 C   0  0  0  0  0  1  0  0  0  0  0  0
  191.3620  172.6970  142.0940 C   0  0  0  0  0  2  0  0  0  0  0  0
  190.0230  173.4280  142.0580 C   0  0  2  0  0  3  0  0  0  0  0  0
  191.2400  175.6160  142.4400 C   0  0  0  0  0  2  0  0  0  0  0  0
  192.5810  174.8800  142.4430 C   0  0  1  0  0  3  0  0  0  0  0  0
  193.0600  174.5740  143.8610 C   0  0  0  0  0  2  0  0  0  0  0  0
  193.0130  175.8110  144.7460 C   0  0  0  0  0  2  0  0  0  0  0  0
  194.4130  176.2300  145.1510 C   0  0  1  0  0  3  0  0  0  0  0  0
  194.3560  177.0300  146.3940 C   0  0  0  0  0  2  0  0  0  0  0  0
  194.7090  175.6700  146.4080 O   0  0  0  0  0  0  0  0  0  0  0  0
  188.4520  175.1880  147.4750 O   0  0  0  0  0  0  0  0  0  0  0  0
  189.7270  174.7450  147.1200 C   0  0  0  0  0  2  0  0  0  0  0  0
  190.6460  175.1540  148.0870 O   0  0  0  0  0  1  0  0  0  0  0  0
  1 16  1  0  0  0  0
  1  5  1  1  0  0  0
  2 16  1  0  0  0  0
  3  2  1  0  0  0  0
  4 15  1  0  0  0  0
  4 17  1  0  0  0  0
  5  6  1  0  0  0  0
  6 10  1  0  0  0  0
  6 30  1  0  0  0  0
  7 11  1  0  0  0  0
  8  9  1  0  0  0  0
  8  4  1  0  0  0  0
  9  3  1  0  0  0  0
 11 10  1  0  0  0  0
 13  1  1  0  0  0  0
 14  3  1  0  0  0  0
 14 13  1  0  0  0  0
 15 12  1  0  0  0  0
 16  7  1  0  0  0  0
 17  2  1  0  0  0  0
 17 12  1  0  0  0  0
 18 21  1  0  0  0  0
 18 24  1  0  0  0  0
 19 13  1  0  0  0  0
 22 21  1  0  0  0  0
 22 20  1  0  0  0  0
 22 19  1  0  0  0  0
 23 24  1  0  0  0  0
 23 19  1  0  0  0  0
 24 25  1  0  0  0  0
 25 26  1  0  0  0  0
 26 27  1  0  0  0  0
 27 28  1  0  0  0  0
 27 29  1  0  0  0  0
 28 29  1  0  0  0  0
 31 30  1  0  0  0  0
 31 32  1  0  0  0  0
M  END
>  <MODEL>
2

>  <REMARK>
 VINA RESULT:      -7.4      2.563      7.746
  Name = 
  6 active torsions:
  status: ('A' for Active; 'I' for Inactive)
    1  A    between atoms: C_1  and  C_10
    2  A    between atoms: C_4  and  O_13
    3  A    between atoms: C_8  and  C_28
    4  A    between atoms: C_10  and  C_19
    5  A    between atoms: O_13  and  C_15
    6  A    between atoms: C_19  and  C_24
                            x       y       z     vdW  Elec       q    Type
                         _______ _______ _______ _____ _____    ______ ____

>  <TORSDO>
F 6

$$$$
=
 OpenBabel11052421303D

 32 37  0  0  1  0  0  0  0  0999 V2000
  188.8980  174.8900  143.9170 C   0  0  1  0  0  3  0  0  0  0  0  0
  189.4350  172.9400  142.3810 C   0  0  2  0  0  3  0  0  0  0  0  0
  189.0520  173.7920  141.1730 C   0  0  1  0  0  3  0  0  0  0  0  0
  190.4550  171.2890  140.6030 C   0  0  1  0  0  3  0  0  0  0  0  0
  189.3250  175.7940  145.0960 C   0  0  0  0  0  2  0  0  0  0  0  0
  190.8130  175.7370  145.4440 C   0  0  2  0  0  3  0  0  0  0  0  0
  190.2570  173.0280  144.6490 O   0  0  0  0  0  0  0  0  0  0  0  0
  189.6140  172.0300  139.5470 C   0  0  0  0  0  2  0  0  0  0  0  0
  188.4860  172.8700  140.1190 C   0  0  0  0  0  2  0  0  0  0  0  0
  191.0890  174.5540  146.1450 O   0  0  0  0  0  0  0  0  0  0  0  0
  191.4230  173.6010  145.1740 C   0  0  0  0  0  2  0  0  0  0  0  0
  191.8160  172.2260  141.7560 C   0  0  0  0  0  2  0  0  0  0  0  0
  188.5040  175.7240  142.6850 C   0  0  1  0  0  3  0  0  0  0  0  0
  187.9930  174.8130  141.5640 C   0  0  0  0  0  2  0  0  0  0  0  0
  191.7920  171.6960  140.4530 O   0  0  0  0  0  0  0  0  0  0  0  0
  189.9410  173.8170  143.5360 C   0  0  2  0  0  3  0  0  0  0  0  0
  190.4050  171.7830  142.0460 C   0  0  1  0  0  3  0  0  0  0  0  0
  184.9620  178.3070  142.6540 C   0  0  0  0  0  2  0  0  0  0  0  0
  187.4770  176.8190  143.0270 C   0  0  1  0  0  3  0  0  0  0  0  0
  188.6360  178.5060  141.5640 C   0  0  0  0  0  1  0  0  0  0  0  0
  186.3110  178.9200  142.2820 C   0  0  0  0  0  2  0  0  0  0  0  0
  187.3110  177.8370  141.8860 C   0  0  2  0  0  3  0  0  0  0  0  0
  186.1220  176.2160  143.4270 C   0  0  0  0  0  2  0  0  0  0  0  0
  185.1040  177.2980  143.7940 C   0  0  1  0  0  3  0  0  0  0  0  0
  185.4640  177.9980  145.1040 C   0  0  0  0  0  2  0  0  0  0  0  0
  185.8160  176.9960  146.1940 C   0  0  0  0  0  2  0  0  0  0  0  0
  185.6080  177.6080  147.5660 C   0  0  1  0  0  3  0  0  0  0  0  0
  186.7990  178.3960  147.9480 C   0  0  0  0  0  2  0  0  0  0  0  0
  185.6390  179.0100  147.4470 O   0  0  0  0  0  0  0  0  0  0  0  0
  191.1450  176.8320  146.2410 O   0  0  0  0  0  0  0  0  0  0  0  0
  190.7830  176.4550  147.5350 C   0  0  0  0  0  2  0  0  0  0  0  0
  191.5200  177.1970  148.4580 O   0  0  0  0  0  1  0  0  0  0  0  0
  1  5  1  1  0  0  0
  2 16  1  0  0  0  0
  3 14  1  0  0  0  0
  3  2  1  0  0  0  0
  4 17  1  0  0  0  0
  5  6  1  0  0  0  0
  6 10  1  0  0  0  0
  6 30  1  0  0  0  0
  7 11  1  0  0  0  0
  8  9  1  0  0  0  0
  8  4  1  0  0  0  0
  9  3  1  0  0  0  0
 11 10  1  0  0  0  0
 12 17  1  0  0  0  0
 13 19  1  0  0  0  0
 13  1  1  0  0  0  0
 14 13  1  0  0  0  0
 15  4  1  0  0  0  0
 15 12  1  0  0  0  0
 16  1  1  0  0  0  0
 16  7  1  0  0  0  0
 17  2  1  0  0  0  0
 18 24  1  0  0  0  0
 19 23  1  0  0  0  0
 20 22  1  0  0  0  0
 21 18  1  0  0  0  0
 22 21  1  0  0  0  0
 22 19  1  0  0  0  0
 23 24  1  0  0  0  0
 24 25  1  0  0  0  0
 25 26  1  0  0  0  0
 26 27  1  0  0  0  0
 27 28  1  0  0  0  0
 29 27  1  0  0  0  0
 29 28  1  0  0  0  0
 30 31  1  0  0  0  0
 31 32  1  0  0  0  0
M  END
>  <MODEL>
3

>  <REMARK>
 VINA RESULT:      -6.8      2.796      5.589
  Name = 
  6 active torsions:
  status: ('A' for Active; 'I' for Inactive)
    1  A    between atoms: C_1  and  C_10
    2  A    between atoms: C_4  and  O_13
    3  A    between atoms: C_8  and  C_28
    4  A    between atoms: C_10  and  C_19
    5  A    between atoms: O_13  and  C_15
    6  A    between atoms: C_19  and  C_24
                            x       y       z     vdW  Elec       q    Type
                         _______ _______ _______ _____ _____    ______ ____

>  <TORSDO>
F 6

$$$$
=
 OpenBabel11052421303D

 32 37  0  0  1  0  0  0  0  0999 V2000
  189.4950  174.1310  143.3440 C   0  0  1  0  0  3  0  0  0  0  0  0
  189.7590  172.3470  141.5560 C   0  0  2  0  0  3  0  0  0  0  0  0
  189.2820  173.3410  140.4990 C   0  0  1  0  0  3  0  0  0  0  0  0
  190.4890  170.8690  139.5040 C   0  0  1  0  0  3  0  0  0  0  0  0
  190.0960  174.8830  144.5530 C   0  0  0  0  0  2  0  0  0  0  0  0
  191.6100  174.7340  144.7140 C   0  0  2  0  0  3  0  0  0  0  0  0
  190.8370  172.1530  143.7070 O   0  0  0  0  0  0  0  0  0  0  0  0
  189.5700  171.7530  138.6400 C   0  0  0  0  0  2  0  0  0  0  0  0
  188.5560  172.5630  139.4280 C   0  0  0  0  0  2  0  0  0  0  0  0
  191.9060  173.4720  145.2480 O   0  0  0  0  0  0  0  0  0  0  0  0
  192.0820  172.6210  144.1480 C   0  0  0  0  0  2  0  0  0  0  0  0
  192.0160  171.6230  140.5800 C   0  0  0  0  0  2  0  0  0  0  0  0
  189.0040  175.1110  142.2630 C   0  0  1  0  0  3  0  0  0  0  0  0
  188.3260  174.3500  141.1190 C   0  0  0  0  0  2  0  0  0  0  0  0
  191.8190  171.2420  139.2410 O   0  0  0  0  0  0  0  0  0  0  0  0
  190.4350  173.0710  142.7290 C   0  0  2  0  0  3  0  0  0  0  0  0
  190.6280  171.2010  140.9870 C   0  0  1  0  0  3  0  0  0  0  0  0
  185.9750  178.2550  142.6670 C   0  0  0  0  0  2  0  0  0  0  0  0
  188.0760  176.1970  142.8380 C   0  0  1  0  0  3  0  0  0  0  0  0
  189.8000  177.9970  142.4960 C   0  0  0  0  0  1  0  0  0  0  0  0
  187.4430  178.6310  142.8610 C   0  0  0  0  0  2  0  0  0  0  0  0
  188.3620  177.5830  142.2380 C   0  0  2  0  0  3  0  0  0  0  0  0
  186.5960  175.8200  142.6720 C   0  0  0  0  0  2  0  0  0  0  0  0
  185.6690  176.8820  143.2660 C   0  0  1  0  0  3  0  0  0  0  0  0
  185.7490  176.9190  144.7920 C   0  0  0  0  0  2  0  0  0  0  0  0
  184.7890  177.9450  145.3760 C   0  0  0  0  0  2  0  0  0  0  0  0
  185.5390  178.9460  146.2350 C   0  0  1  0  0  3  0  0  0  0  0  0
  185.2660  178.6820  147.6640 C   0  0  0  0  0  2  0  0  0  0  0  0
  186.4530  178.2510  147.0490 O   0  0  0  0  0  0  0  0  0  0  0  0
  192.0830  175.7220  145.5790 O   0  0  0  0  0  0  0  0  0  0  0  0
  191.7880  175.2480  146.8570 C   0  0  0  0  0  2  0  0  0  0  0  0
  191.3620  176.3080  147.6580 O   0  0  0  0  0  1  0  0  0  0  0  0
  1  5  1  1  0  0  0
  2 16  1  0  0  0  0
  3 14  1  0  0  0  0
  3  2  1  0  0  0  0
  4 17  1  0  0  0  0
  5  6  1  0  0  0  0
  6 10  1  0  0  0  0
  6 30  1  0  0  0  0
  7 11  1  0  0  0  0
  8  9  1  0  0  0  0
  8  4  1  0  0  0  0
  9  3  1  0  0  0  0
 11 10  1  0  0  0  0
 12 17  1  0  0  0  0
 13 19  1  0  0  0  0
 13  1  1  0  0  0  0
 14 13  1  0  0  0  0
 15  4  1  0  0  0  0
 15 12  1  0  0  0  0
 16  1  1  0  0  0  0
 16  7  1  0  0  0  0
 17  2  1  0  0  0  0
 18 21  1  0  0  0  0
 18 24  1  0  0  0  0
 22 20  1  0  0  0  0
 22 19  1  0  0  0  0
 22 21  1  0  0  0  0
 23 19  1  0  0  0  0
 23 24  1  0  0  0  0
 24 25  1  0  0  0  0
 25 26  1  0  0  0  0
 26 27  1  0  0  0  0
 27 29  1  0  0  0  0
 27 28  1  0  0  0  0
 29 28  1  0  0  0  0
 30 31  1  0  0  0  0
 31 32  1  0  0  0  0
M  END
>  <MODEL>
4

>  <REMARK>
 VINA RESULT:      -6.7      2.694      5.467
  Name = 
  6 active torsions:
  status: ('A' for Active; 'I' for Inactive)
    1  A    between atoms: C_1  and  C_10
    2  A    between atoms: C_4  and  O_13
    3  A    between atoms: C_8  and  C_28
    4  A    between atoms: C_10  and  C_19
    5  A    between atoms: O_13  and  C_15
    6  A    between atoms: C_19  and  C_24
                            x       y       z     vdW  Elec       q    Type
                         _______ _______ _______ _____ _____    ______ ____

>  <TORSDO>
F 6

$$$$
=
 OpenBabel11052421303D

 32 37  0  0  1  0  0  0  0  0999 V2000
  187.5480  176.2800  143.1180 C   0  0  1  0  0  3  0  0  0  0  0  0
  186.3800  176.9120  145.2820 C   0  0  2  0  0  3  0  0  0  0  0  0
  187.7300  177.2580  145.9050 C   0  0  1  0  0  3  0  0  0  0  0  0
  185.3590  178.1390  147.3760 C   0  0  1  0  0  3  0  0  0  0  0  0
  187.6230  176.3990  141.5780 C   0  0  0  0  0  2  0  0  0  0  0  0
  186.8290  177.5630  140.9840 C   0  0  2  0  0  3  0  0  0  0  0  0
  185.1770  176.7510  143.1950 O   0  0  0  0  0  0  0  0  0  0  0  0
  186.7420  177.9930  148.0380 C   0  0  0  0  0  2  0  0  0  0  0  0
  187.6460  176.9630  147.3830 C   0  0  0  0  0  2  0  0  0  0  0  0
  185.4630  177.2470  140.9750 O   0  0  0  0  0  0  0  0  0  0  0  0
  184.9540  177.7080  142.1960 C   0  0  0  0  0  2  0  0  0  0  0  0
  185.0930  179.1030  145.6260 C   0  0  0  0  0  2  0  0  0  0  0  0
  188.8980  176.6220  143.7720 C   0  0  1  0  0  3  0  0  0  0  0  0
  188.8290  176.4050  145.2870 C   0  0  0  0  0  2  0  0  0  0  0  0
  185.2110  179.4790  146.9760 O   0  0  0  0  0  0  0  0  0  0  0  0
  186.4100  177.1040  143.7590 C   0  0  2  0  0  3  0  0  0  0  0  0
  185.1830  177.6330  145.9460 C   0  0  1  0  0  3  0  0  0  0  0  0
  192.4120  174.0550  143.2340 C   0  0  0  0  0  2  0  0  0  0  0  0
  190.0650  175.8340  143.1480 C   0  0  1  0  0  3  0  0  0  0  0  0
  191.6160  177.8090  143.3010 C   0  0  0  0  0  1  0  0  0  0  0  0
  192.5580  175.5530  142.9660 C   0  0  0  0  0  2  0  0  0  0  0  0
  191.4340  176.3390  143.6350 C   0  0  2  0  0  3  0  0  0  0  0  0
  189.9180  174.3250  143.3890 C   0  0  0  0  0  2  0  0  0  0  0  0
  191.0600  173.5330  142.7480 C   0  0  1  0  0  3  0  0  0  0  0  0
  190.9800  173.5520  141.2220 C   0  0  0  0  0  2  0  0  0  0  0  0
  189.5590  173.3110  140.7340 C   0  0  0  0  0  2  0  0  0  0  0  0
  189.5670  172.7880  139.3100 C   0  0  1  0  0  3  0  0  0  0  0  0
  188.1910  172.7920  138.7680 C   0  0  0  0  0  2  0  0  0  0  0  0
  189.1110  173.8050  138.4510 O   0  0  0  0  0  0  0  0  0  0  0  0
  187.2560  177.7950  139.6760 O   0  0  0  0  0  0  0  0  0  0  0  0
  186.3210  177.1410  138.8740 C   0  0  0  0  0  2  0  0  0  0  0  0
  186.9680  176.1800  138.0970 O   0  0  0  0  0  1  0  0  0  0  0  0
  1  5  1  6  0  0  0
  1 16  1  0  0  0  0
  1 13  1  0  0  0  0
  2  3  1  0  0  0  0
  2 17  1  0  0  0  0
  3  9  1  0  0  0  0
  4  8  1  0  0  0  0
  6  5  1  0  0  0  0
  7 16  1  0  0  0  0
  9  8  1  0  0  0  0
 10  6  1  0  0  0  0
 10 11  1  0  0  0  0
 11  7  1  0  0  0  0
 12 17  1  0  0  0  0
 12 15  1  0  0  0  0
 13 14  1  0  0  0  0
 14  3  1  0  0  0  0
 15  4  1  0  0  0  0
 16  2  1  0  0  0  0
 17  4  1  0  0  0  0
 19 23  1  0  0  0  0
 19 22  1  0  0  0  0
 19 13  1  0  0  0  0
 20 22  1  0  0  0  0
 21 18  1  0  0  0  0
 21 22  1  0  0  0  0
 24 18  1  0  0  0  0
 24 23  1  0  0  0  0
 25 24  1  0  0  0  0
 26 25  1  0  0  0  0
 27 26  1  0  0  0  0
 28 27  1  0  0  0  0
 29 28  1  0  0  0  0
 29 27  1  0  0  0  0
 30  6  1  0  0  0  0
 31 30  1  0  0  0  0
 32 31  1  0  0  0  0
M  END
>  <MODEL>
5

>  <REMARK>
 VINA RESULT:      -6.6      2.610      6.721
  Name = 
  6 active torsions:
  status: ('A' for Active; 'I' for Inactive)
    1  A    between atoms: C_1  and  C_10
    2  A    between atoms: C_4  and  O_13
    3  A    between atoms: C_8  and  C_28
    4  A    between atoms: C_10  and  C_19
    5  A    between atoms: O_13  and  C_15
    6  A    between atoms: C_19  and  C_24
                            x       y       z     vdW  Elec       q    Type
                         _______ _______ _______ _____ _____    ______ ____

>  <TORSDO>
F 6

$$$$
=
 OpenBabel11052421303D

 32 37  0  0  1  0  0  0  0  0999 V2000
  189.5390  175.9950  143.7220 C   0  0  1  0  0  3  0  0  0  0  0  0
  187.5160  177.5280  143.7840 C   0  0  2  0  0  3  0  0  0  0  0  0
  186.6720  176.4350  143.1340 C   0  0  1  0  0  3  0  0  0  0  0  0
  185.2090  178.7040  144.2610 C   0  0  1  0  0  3  0  0  0  0  0  0
  190.7430  175.3720  144.4650 C   0  0  0  0  0  2  0  0  0  0  0  0
  190.6760  175.4680  145.9910 C   0  0  2  0  0  3  0  0  0  0  0  0
  189.4570  177.9380  145.1600 O   0  0  0  0  0  0  0  0  0  0  0  0
  184.6010  177.7640  143.2030 C   0  0  0  0  0  2  0  0  0  0  0  0
  185.6180  177.1060  142.2870 C   0  0  0  0  0  2  0  0  0  0  0  0
  190.9960  176.7710  146.3960 O   0  0  0  0  0  0  0  0  0  0  0  0
  189.7810  177.4690  146.4400 C   0  0  0  0  0  2  0  0  0  0  0  0
  186.1570  178.0180  145.9020 C   0  0  0  0  0  2  0  0  0  0  0  0
  188.6720  174.9130  143.0550 C   0  0  1  0  0  3  0  0  0  0  0  0
  187.5420  175.5570  142.2450 C   0  0  0  0  0  2  0  0  0  0  0  0
  184.8190  178.2380  145.5290 O   0  0  0  0  0  0  0  0  0  0  0  0
  188.6700  176.9250  144.5970 C   0  0  2  0  0  3  0  0  0  0  0  0
  186.6900  178.5530  144.5980 C   0  0  1  0  0  3  0  0  0  0  0  0
  189.8660  171.8660  140.1370 C   0  0  0  0  0  2  0  0  0  0  0  0
  189.5040  173.9520  142.1860 C   0  0  1  0  0  3  0  0  0  0  0  0
  189.4480  172.1510  143.9410 C   0  0  0  0  0  1  0  0  0  0  0  0
  190.0560  171.5630  141.6230 C   0  0  0  0  0  2  0  0  0  0  0  0
  189.1860  172.4770  142.4820 C   0  0  2  0  0  3  0  0  0  0  0  0
  189.3400  174.2610  140.6900 C   0  0  0  0  0  2  0  0  0  0  0  0
  190.1860  173.3270  139.8210 C   0  0  1  0  0  3  0  0  0  0  0  0
  191.6810  173.6050  139.9730 C   0  0  0  0  0  2  0  0  0  0  0  0
  192.3590  173.7680  138.6210 C   0  0  0  0  0  2  0  0  0  0  0  0
  191.3260  173.9740  137.5290 C   0  0  1  0  0  3  0  0  0  0  0  0
  191.9100  174.7770  136.4330 C   0  0  0  0  0  2  0  0  0  0  0  0
  191.7950  173.3790  136.3420 O   0  0  0  0  0  0  0  0  0  0  0  0
  191.5890  174.5740  146.5510 O   0  0  0  0  0  0  0  0  0  0  0  0
  192.7180  174.6590  145.7360 C   0  0  0  0  0  2  0  0  0  0  0  0
  193.4460  173.4730  145.8270 O   0  0  0  0  0  1  0  0  0  0  0  0
  1  5  1  1  0  0  0
  1 16  1  0  0  0  0
  2 16  1  0  0  0  0
  2 17  1  0  0  0  0
  3  2  1  0  0  0  0
  4 17  1  0  0  0  0
  4 15  1  0  0  0  0
  5  6  1  0  0  0  0
  6 10  1  0  0  0  0
  6 30  1  0  0  0  0
  7 11  1  0  0  0  0
  8  4  1  0  0  0  0
  9  3  1  0  0  0  0
  9  8  1  0  0  0  0
 10 11  1  0  0  0  0
 13  1  1  0  0  0  0
 14 13  1  0  0  0  0
 14  3  1  0  0  0  0
 15 12  1  0  0  0  0
 16  7  1  0  0  0  0
 17 12  1  0  0  0  0
 18 21  1  0  0  0  0
 19 22  1  0  0  0  0
 19 13  1  0  0  0  0
 21 22  1  0  0  0  0
 22 20  1  0  0  0  0
 23 19  1  0  0  0  0
 24 25  1  0  0  0  0
 24 18  1  0  0  0  0
 24 23  1  0  0  0  0
 26 25  1  0  0  0  0
 27 26  1  0  0  0  0
 28 27  1  0  0  0  0
 29 28  1  0  0  0  0
 29 27  1  0  0  0  0
 31 32  1  0  0  0  0
 31 30  1  0  0  0  0
M  END
>  <MODEL>
6

>  <REMARK>
 VINA RESULT:      -6.5      2.680      7.241
  Name = 
  6 active torsions:
  status: ('A' for Active; 'I' for Inactive)
    1  A    between atoms: C_1  and  C_10
    2  A    between atoms: C_4  and  O_13
    3  A    between atoms: C_8  and  C_28
    4  A    between atoms: C_10  and  C_19
    5  A    between atoms: O_13  and  C_15
    6  A    between atoms: C_19  and  C_24
                            x       y       z     vdW  Elec       q    Type
                         _______ _______ _______ _____ _____    ______ ____

>  <TORSDO>
F 6

$$$$
=
 OpenBabel11052421303D

 32 37  0  0  1  0  0  0  0  0999 V2000
  189.4790  176.0580  143.8820 C   0  0  1  0  0  3  0  0  0  0  0  0
  187.4550  177.5920  143.8840 C   0  0  2  0  0  3  0  0  0  0  0  0
  186.6290  176.4970  143.2140 C   0  0  1  0  0  3  0  0  0  0  0  0
  185.1360  178.7700  144.2940 C   0  0  1  0  0  3  0  0  0  0  0  0
  190.6610  175.4370  144.6600 C   0  0  0  0  0  2  0  0  0  0  0  0
  190.5530  175.5380  146.1830 C   0  0  2  0  0  3  0  0  0  0  0  0
  189.3580  178.0050  145.3120 O   0  0  0  0  0  0  0  0  0  0  0  0
  184.5570  177.8260  143.2230 C   0  0  0  0  0  2  0  0  0  0  0  0
  185.5980  177.1660  142.3370 C   0  0  0  0  0  2  0  0  0  0  0  0
  190.8620  176.8430  146.5930 O   0  0  0  0  0  0  0  0  0  0  0  0
  189.6470  177.5410  146.6010 C   0  0  0  0  0  2  0  0  0  0  0  0
  186.0390  178.0880  145.9620 C   0  0  0  0  0  2  0  0  0  0  0  0
  188.6300  174.9750  143.1950 C   0  0  1  0  0  3  0  0  0  0  0  0
  187.5230  175.6170  142.3520 C   0  0  0  0  0  2  0  0  0  0  0  0
  184.7110  178.3080  145.5520 O   0  0  0  0  0  0  0  0  0  0  0  0
  188.5870  176.9910  144.7300 C   0  0  2  0  0  3  0  0  0  0  0  0
  186.6080  178.6190  144.6720 C   0  0  1  0  0  3  0  0  0  0  0  0
  189.9070  171.9460  140.2930 C   0  0  0  0  0  2  0  0  0  0  0  0
  189.4850  174.0100  142.3520 C   0  0  1  0  0  3  0  0  0  0  0  0
  189.3160  172.1880  144.0770 C   0  0  0  0  0  1  0  0  0  0  0  0
  190.0220  171.6200  141.7820 C   0  0  0  0  0  2  0  0  0  0  0  0
  189.1280  172.5380  142.6120 C   0  0  2  0  0  3  0  0  0  0  0  0
  189.3970  174.3420  140.8550 C   0  0  0  0  0  2  0  0  0  0  0  0
  190.2670  173.4050  140.0130 C   0  0  1  0  0  3  0  0  0  0  0  0
  191.7570  173.6550  140.2390 C   0  0  0  0  0  2  0  0  0  0  0  0
  192.5070  173.7840  138.9210 C   0  0  0  0  0  2  0  0  0  0  0  0
  193.7580  174.6230  139.1010 C   0  0  1  0  0  3  0  0  0  0  0  0
  194.8110  174.1550  138.1740 C   0  0  0  0  0  2  0  0  0  0  0  0
  194.0340  175.2910  137.8930 O   0  0  0  0  0  0  0  0  0  0  0  0
  191.4500  174.6460  146.7710 O   0  0  0  0  0  0  0  0  0  0  0  0
  192.5390  174.6100  145.9000 C   0  0  0  0  0  2  0  0  0  0  0  0
  193.6420  175.2060  146.5130 O   0  0  0  0  0  1  0  0  0  0  0  0
  1  5  1  1  0  0  0
  1 16  1  0  0  0  0
  2 17  1  0  0  0  0
  2 16  1  0  0  0  0
  3  2  1  0  0  0  0
  4 17  1  0  0  0  0
  4 15  1  0  0  0  0
  5  6  1  0  0  0  0
  6 10  1  0  0  0  0
  6 30  1  0  0  0  0
  7 11  1  0  0  0  0
  8  4  1  0  0  0  0
  9  3  1  0  0  0  0
  9  8  1  0  0  0  0
 10 11  1  0  0  0  0
 13  1  1  0  0  0  0
 14 13  1  0  0  0  0
 14  3  1  0  0  0  0
 15 12  1  0  0  0  0
 16  7  1  0  0  0  0
 17 12  1  0  0  0  0
 18 21  1  0  0  0  0
 19 22  1  0  0  0  0
 19 13  1  0  0  0  0
 21 22  1  0  0  0  0
 22 20  1  0  0  0  0
 23 19  1  0  0  0  0
 24 25  1  0  0  0  0
 24 18  1  0  0  0  0
 24 23  1  0  0  0  0
 26 27  1  0  0  0  0
 26 25  1  0  0  0  0
 28 27  1  0  0  0  0
 29 28  1  0  0  0  0
 29 27  1  0  0  0  0
 31 32  1  0  0  0  0
 31 30  1  0  0  0  0
M  END
>  <MODEL>
7

>  <REMARK>
 VINA RESULT:      -6.4      2.831      7.430
  Name = 
  6 active torsions:
  status: ('A' for Active; 'I' for Inactive)
    1  A    between atoms: C_1  and  C_10
    2  A    between atoms: C_4  and  O_13
    3  A    between atoms: C_8  and  C_28
    4  A    between atoms: C_10  and  C_19
    5  A    between atoms: O_13  and  C_15
    6  A    between atoms: C_19  and  C_24
                            x       y       z     vdW  Elec       q    Type
                         _______ _______ _______ _____ _____    ______ ____

>  <TORSDO>
F 6

$$$$
=
 OpenBabel11052421303D

 32 37  0  0  1  0  0  0  0  0999 V2000
  190.0020  175.7840  142.9210 C   0  0  1  0  0  3  0  0  0  0  0  0
  188.2040  177.4120  142.1700 C   0  0  2  0  0  3  0  0  0  0  0  0
  187.4500  176.2650  141.5020 C   0  0  1  0  0  3  0  0  0  0  0  0
  185.9880  178.7820  141.7920 C   0  0  1  0  0  3  0  0  0  0  0  0
  190.8980  175.2450  144.0590 C   0  0  0  0  0  2  0  0  0  0  0  0
  190.4450  175.6270  145.4700 C   0  0  2  0  0  3  0  0  0  0  0  0
  189.7500  177.9620  143.9410 O   0  0  0  0  0  0  0  0  0  0  0  0
  185.5820  177.6960  140.7780 C   0  0  0  0  0  2  0  0  0  0  0  0
  186.7290  176.8240  140.2990 C   0  0  0  0  0  2  0  0  0  0  0  0
  190.7820  176.9630  145.7270 O   0  0  0  0  0  0  0  0  0  0  0  0
  189.6780  177.7230  145.3190 C   0  0  0  0  0  2  0  0  0  0  0  0
  186.3970  178.3630  143.7200 C   0  0  0  0  0  2  0  0  0  0  0  0
  189.2310  174.6460  142.2280 C   0  0  1  0  0  3  0  0  0  0  0  0
  188.4250  175.1900  141.0440 C   0  0  0  0  0  2  0  0  0  0  0  0
  185.2340  178.5840  142.9620 O   0  0  0  0  0  0  0  0  0  0  0  0
  189.0360  176.9070  143.3570 C   0  0  2  0  0  3  0  0  0  0  0  0
  187.3060  178.6140  142.5440 C   0  0  1  0  0  3  0  0  0  0  0  0
  190.8640  171.1130  140.2100 C   0  0  0  0  0  2  0  0  0  0  0  0
  190.1560  173.4950  141.7930 C   0  0  1  0  0  3  0  0  0  0  0  0
  189.2900  171.9760  143.6020 C   0  0  0  0  0  1  0  0  0  0  0  0
  190.5230  171.0080  141.6960 C   0  0  0  0  0  2  0  0  0  0  0  0
  189.5580  172.1150  142.1130 C   0  0  2  0  0  3  0  0  0  0  0  0
  190.5270  173.6020  140.3060 C   0  0  0  0  0  2  0  0  0  0  0  0
  191.4690  172.4760  139.8730 C   0  0  1  0  0  3  0  0  0  0  0  0
  192.8590  172.6270  140.4900 C   0  0  0  0  0  2  0  0  0  0  0  0
  193.4690  173.9840  140.1670 C   0  0  0  0  0  2  0  0  0  0  0  0
  194.1100  174.5860  141.4030 C   0  0  1  0  0  3  0  0  0  0  0  0
  194.6580  175.9220  141.0810 C   0  0  0  0  0  2  0  0  0  0  0  0
  193.4250  175.7700  141.7380 O   0  0  0  0  0  0  0  0  0  0  0  0
  191.0820  174.8050  146.3990 O   0  0  0  0  0  0  0  0  0  0  0  0
  190.4090  175.0340  147.6000 C   0  0  0  0  0  2  0  0  0  0  0  0
  189.0720  174.6600  147.4610 O   0  0  0  0  0  1  0  0  0  0  0  0
  1 16  1  0  0  0  0
  1  5  1  1  0  0  0
  2 17  1  0  0  0  0
  2 16  1  0  0  0  0
  3  2  1  0  0  0  0
  4 17  1  0  0  0  0
  4 15  1  0  0  0  0
  5  6  1  0  0  0  0
  6 10  1  0  0  0  0
  6 30  1  0  0  0  0
  7 11  1  0  0  0  0
  8  4  1  0  0  0  0
  9  8  1  0  0  0  0
  9  3  1  0  0  0  0
 11 10  1  0  0  0  0
 13  1  1  0  0  0  0
 14  3  1  0  0  0  0
 14 13  1  0  0  0  0
 15 12  1  0  0  0  0
 16  7  1  0  0  0  0
 17 12  1  0  0  0  0
 18 21  1  0  0  0  0
 19 22  1  0  0  0  0
 19 13  1  0  0  0  0
 21 22  1  0  0  0  0
 22 20  1  0  0  0  0
 23 19  1  0  0  0  0
 24 18  1  0  0  0  0
 24 23  1  0  0  0  0
 24 25  1  0  0  0  0
 26 25  1  0  0  0  0
 26 27  1  0  0  0  0
 27 29  1  0  0  0  0
 28 27  1  0  0  0  0
 28 29  1  0  0  0  0
 30 31  1  0  0  0  0
 32 31  1  0  0  0  0
M  END
>  <MODEL>
8

>  <REMARK>
 VINA RESULT:      -6.3      2.619      7.303
  Name = 
  6 active torsions:
  status: ('A' for Active; 'I' for Inactive)
    1  A    between atoms: C_1  and  C_10
    2  A    between atoms: C_4  and  O_13
    3  A    between atoms: C_8  and  C_28
    4  A    between atoms: C_10  and  C_19
    5  A    between atoms: O_13  and  C_15
    6  A    between atoms: C_19  and  C_24
                            x       y       z     vdW  Elec       q    Type
                         _______ _______ _______ _____ _____    ______ ____

>  <TORSDO>
F 6

$$$$
=
 OpenBabel11052421303D

 32 37  0  0  1  0  0  0  0  0999 V2000
  188.8390  176.2990  144.1910 C   0  0  1  0  0  3  0  0  0  0  0  0
  186.9080  177.9020  143.8030 C   0  0  2  0  0  3  0  0  0  0  0  0
  186.2620  176.8900  142.8600 C   0  0  1  0  0  3  0  0  0  0  0  0
  184.5820  179.1310  143.7050 C   0  0  1  0  0  3  0  0  0  0  0  0
  189.7730  175.5800  145.1910 C   0  0  0  0  0  2  0  0  0  0  0  0
  189.2800  175.5720  146.6390 C   0  0  2  0  0  3  0  0  0  0  0  0
  188.3900  178.1400  145.6940 O   0  0  0  0  0  0  0  0  0  0  0  0
  184.2790  178.2910  142.4500 C   0  0  0  0  0  2  0  0  0  0  0  0
  185.5010  177.6590  141.8070 C   0  0  0  0  0  2  0  0  0  0  0  0
  189.4970  176.8320  147.2170 O   0  0  0  0  0  0  0  0  0  0  0  0
  188.3320  177.5710  146.9730 C   0  0  0  0  0  2  0  0  0  0  0  0
  185.0160  178.2970  145.4870 C   0  0  0  0  0  2  0  0  0  0  0  0
  188.1760  175.3010  143.2260 C   0  0  1  0  0  3  0  0  0  0  0  0
  187.3310  176.0430  142.1850 C   0  0  0  0  0  2  0  0  0  0  0  0
  183.8420  178.5940  144.7730 O   0  0  0  0  0  0  0  0  0  0  0  0
  187.7760  177.1990  144.8570 C   0  0  2  0  0  3  0  0  0  0  0  0
  185.9050  178.8990  144.4300 C   0  0  1  0  0  3  0  0  0  0  0  0
  190.7930  173.3760  140.2820 C   0  0  0  0  0  2  0  0  0  0  0  0
  189.2010  174.3700  142.5530 C   0  0  1  0  0  3  0  0  0  0  0  0
  187.4440  172.6540  142.0110 C   0  0  0  0  0  1  0  0  0  0  0  0
  189.6120  172.5790  140.8350 C   0  0  0  0  0  2  0  0  0  0  0  0
  188.5670  173.5070  141.4490 C   0  0  2  0  0  3  0  0  0  0  0  0
  190.4060  175.1560  142.0130 C   0  0  0  0  0  2  0  0  0  0  0  0
  191.4430  174.2340  141.3670 C   0  0  1  0  0  3  0  0  0  0  0  0
  192.1540  173.3630  142.4020 C   0  0  0  0  0  2  0  0  0  0  0  0
  193.5460  172.9650  141.9350 C   0  0  0  0  0  2  0  0  0  0  0  0
  194.5680  173.2230  143.0260 C   0  0  1  0  0  3  0  0  0  0  0  0
  195.5220  174.2620  142.5830 C   0  0  0  0  0  2  0  0  0  0  0  0
  194.4560  174.5620  143.4470 O   0  0  0  0  0  0  0  0  0  0  0  0
  189.9820  174.6080  147.3620 O   0  0  0  0  0  0  0  0  0  0  0  0
  191.0640  175.2930  147.9160 C   0  0  0  0  0  2  0  0  0  0  0  0
  192.2370  174.9130  147.2630 O   0  0  0  0  0  1  0  0  0  0  0  0
  1 16  1  0  0  0  0
  1  5  1  1  0  0  0
  2 17  1  0  0  0  0
  2 16  1  0  0  0  0
  3  2  1  0  0  0  0
  4 17  1  0  0  0  0
  4 15  1  0  0  0  0
  5  6  1  0  0  0  0
  6 10  1  0  0  0  0
  6 30  1  0  0  0  0
  7 11  1  0  0  0  0
  8  4  1  0  0  0  0
  9  8  1  0  0  0  0
  9  3  1  0  0  0  0
 11 10  1  0  0  0  0
 13  1  1  0  0  0  0
 14  3  1  0  0  0  0
 14 13  1  0  0  0  0
 15 12  1  0  0  0  0
 16  7  1  0  0  0  0
 17 12  1  0  0  0  0
 18 21  1  0  0  0  0
 18 24  1  0  0  0  0
 19 13  1  0  0  0  0
 21 22  1  0  0  0  0
 22 20  1  0  0  0  0
 22 19  1  0  0  0  0
 23 19  1  0  0  0  0
 24 23  1  0  0  0  0
 24 25  1  0  0  0  0
 26 25  1  0  0  0  0
 26 27  1  0  0  0  0
 27 29  1  0  0  0  0
 28 27  1  0  0  0  0
 28 29  1  0  0  0  0
 30 31  1  0  0  0  0
 32 31  1  0  0  0  0
M  END
>  <MODEL>
9

>  <REMARK>
 VINA RESULT:      -6.3      2.645      7.808
  Name = 
  6 active torsions:
  status: ('A' for Active; 'I' for Inactive)
    1  A    between atoms: C_1  and  C_10
    2  A    between atoms: C_4  and  O_13
    3  A    between atoms: C_8  and  C_28
    4  A    between atoms: C_10  and  C_19
    5  A    between atoms: O_13  and  C_15
    6  A    between atoms: C_19  and  C_24
                            x       y       z     vdW  Elec       q    Type
                         _______ _______ _______ _____ _____    ______ ____

>  <TORSDO>
F 6

$$$$
