=
 OpenBabel11052419293D

 55 61  0  0  1  0  0  0  0  0999 V2000
  186.2880  177.5530  140.2760 C   0  0  0  0  0  2  0  0  0  0  0  0
  189.5190  174.3590  144.3530 C   0  0  0  0  0  2  0  0  0  0  0  0
  188.8520  176.7450  143.9560 C   0  0  2  0  0  3  0  0  0  0  0  0
  187.3610  177.2890  146.3890 C   0  0  0  0  0  3  0  0  0  0  0  0
  186.6970  177.6050  147.5750 C   0  0  0  0  0  3  0  0  0  0  0  0
  186.0360  178.9380  145.1980 C   0  0  0  0  0  0  0  0  0  0  0  0
  185.3990  179.2640  146.4000 C   0  0  0  0  0  3  0  0  0  0  0  0
  189.5930  176.9600  142.6520 C   0  0  0  0  0  1  0  0  0  0  0  0
  185.7230  178.6000  147.5830 C   0  0  0  0  0  3  0  0  0  0  0  0
  186.6680  176.2690  138.1660 C   0  0  0  0  0  3  0  0  0  0  0  0
  187.0510  177.9490  145.1940 C   0  0  0  0  0  0  0  0  0  0  0  0
  188.4150  174.5190  139.4820 C   0  0  0  0  0  0  0  0  0  0  0  0
  185.4770  177.0140  141.4460 C   0  0  0  0  0  2  0  0  0  0  0  0
  187.8100  175.5640  140.1830 C   0  0  0  0  0  3  0  0  0  0  0  0
  185.8870  179.2000  142.7200 C   0  0  0  0  0  2  0  0  0  0  0  0
  191.2320  174.0040  142.7860 C   0  0  0  0  0  2  0  0  0  0  0  0
  185.6410  179.6410  144.0480 O   0  0  0  0  0  0  0  0  0  0  0  0
  189.8750  173.6170  143.1530 N   0  0  0  0  0  2  0  0  0  0  0  0
  188.3670  175.3090  144.0560 C   0  0  0  0  0  2  0  0  0  0  0  0
  187.2850  175.2330  137.4610 C   0  0  0  0  0  3  0  0  0  0  0  0
  191.5810  173.5530  141.3630 C   0  0  2  0  0  3  0  0  0  0  0  0
  186.9280  176.4340  139.5310 C   0  0  0  0  0  0  0  0  0  0  0  0
  187.7470  177.6470  144.0140 O   0  0  0  0  0  0  0  0  0  0  0  0
  184.8860  178.1110  142.3440 C   0  0  1  0  0  3  0  0  0  0  0  0
  190.7350  174.1880  140.2590 C   0  0  0  0  0  2  0  0  0  0  0  0
  189.3330  173.5930  140.1930 C   0  0  0  0  0  2  0  0  0  0  0  0
  188.1600  174.3580  138.1170 C   0  0  0  0  0  3  0  0  0  0  0  0
  182.6590  178.6540  143.0070 C   0  0  0  0  0  2  0  0  0  0  0  0
  181.2390  179.5230  141.1570 N   0  0  0  0  0  0  0  0  0  0  0  0
  183.0650  177.9070  140.7570 C   0  0  0  0  0  2  0  0  0  0  0  0
  181.6170  178.3000  140.4460 C   0  0  0  0  0  2  0  0  0  0  0  0
  181.3230  179.2960  142.6080 C   0  0  0  0  0  2  0  0  0  0  0  0
  183.6060  178.6710  141.8880 N   0  0  0  0  0  0  0  0  0  0  0  0
  179.8800  179.9020  140.7590 C   0  0  0  0  0  3  0  0  0  0  0  0
  179.1800  178.7570  140.0450 C   0  0  0  0  0  1  0  0  0  0  0  0
  179.8180  181.1700  139.9180 C   0  0  0  0  0  1  0  0  0  0  0  0
  191.8680  172.0590  141.2020 C   0  0  0  0  0  2  0  0  0  0  0  0
  193.3450  171.7340  141.0500 C   0  0  0  0  0  2  0  0  0  0  0  0
  193.8860  171.1280  142.3390 C   0  0  0  0  0  2  0  0  0  0  0  0
  196.5950  172.5530  144.5570 C   0  0  2  0  0  3  0  0  0  0  0  0
  192.6360  171.7870  144.6010 F   0  0  0  0  0  0  0  0  0  0  0  0
  193.9360  172.2570  144.6560 C   0  0  2  0  0  0  0  0  0  0  0  0
  193.8480  173.5700  145.2130 O   0  0  0  0  0  0  0  0  0  0  0  0
  194.5260  172.2000  143.2210 C   0  0  1  0  0  3  0  0  0  0  0  0
  196.8270  170.6410  146.1340 C   0  0  0  0  0  1  0  0  0  0  0  0
  196.3190  174.0490  144.6310 C   0  0  0  0  0  2  0  0  0  0  0  0
  195.0490  175.2560  146.3080 C   0  0  0  0  0  1  0  0  0  0  0  0
  194.8870  174.5330  144.9880 C   0  0  2  0  0  0  0  0  0  0  0  0
  196.0370  171.9930  143.2630 C   0  0  0  0  0  2  0  0  0  0  0  0
  194.6410  171.3950  145.5340 O   0  0  0  0  0  0  0  0  0  0  0  0
  195.9720  171.8340  145.7560 C   0  0  2  0  0  3  0  0  0  0  0  0
  193.2490  176.4940  144.2240 C   0  0  0  0  0  1  0  0  0  0  0  0
  194.4480  175.5950  143.9480 C   0  0  0  0  0  0  0  0  0  0  0  0
  194.7410  175.3390  142.4820 C   0  0  0  0  0  2  0  0  0  0  0  0
  195.5690  176.3480  143.2650 C   0  0  0  0  0  2  0  0  0  0  0  0
  1 13  1  0  0  0  0
  3  8  1  6  0  0  0
  3 23  1  0  0  0  0
  3 19  1  0  0  0  0
  4  5  1  0  0  0  0
  5  9  2  0  0  0  0
  6  7  2  0  0  0  0
  7  9  1  0  0  0  0
 10 22  1  0  0  0  0
 11  6  1  0  0  0  0
 11  4  2  0  0  0  0
 12 14  1  0  0  0  0
 12 26  1  0  0  0  0
 15 17  1  0  0  0  0
 16 18  1  0  0  0  0
 17  6  1  0  0  0  0
 18  2  1  0  0  0  0
 19  2  1  0  0  0  0
 20 27  1  0  0  0  0
 20 10  2  0  0  0  0
 21 37  1  1  0  0  0
 21 16  1  0  0  0  0
 22 14  2  0  0  0  0
 22  1  1  0  0  0  0
 23 11  1  0  0  0  0
 24 13  1  6  0  0  0
 24 15  1  0  0  0  0
 25 21  1  0  0  0  0
 26 25  1  0  0  0  0
 27 12  2  0  0  0  0
 29 32  1  0  0  0  0
 30 33  1  0  0  0  0
 31 30  1  0  0  0  0
 31 29  1  0  0  0  0
 32 28  1  0  0  0  0
 33 24  1  0  0  0  0
 33 28  1  0  0  0  0
 34 29  1  0  0  0  0
 35 34  1  0  0  0  0
 36 34  1  0  0  0  0
 38 37  1  0  0  0  0
 38 39  1  0  0  0  0
 40 49  1  6  0  0  0
 40 46  1  0  0  0  0
 40 51  1  0  0  0  0
 42 41  1  6  0  0  0
 42 43  1  0  0  0  0
 42 50  1  0  0  0  0
 44 39  1  6  0  0  0
 44 49  1  0  0  0  0
 44 42  1  0  0  0  0
 46 48  1  0  0  0  0
 48 43  1  0  0  0  0
 48 47  1  1  0  0  0
 50 51  1  0  0  0  0
 51 45  1  6  0  0  0
 53 52  1  0  0  0  0
 53 48  1  0  0  0  0
 54 55  1  0  0  0  0
 54 53  1  0  0  0  0
 55 53  1  0  0  0  0
M  END
>  <MODEL>
1

>  <REMARK>
 VINA RESULT:      -8.9      0.000      0.000
  Name = 
  7 active torsions:
  status: ('A' for Active; 'I' for Inactive)
    1  A    between atoms: C_7  and  C_20
    2  A    between atoms: C_7  and  C_22
    3  A    between atoms: C_8  and  C_22
    4  A    between atoms: C_8  and  C_43
    5  A    between atoms: C_10  and  N_32
    6  A    between atoms: C_12  and  C_38
    7  A    between atoms: C_49  and  N_52
                            x       y       z     vdW  Elec       q    Type
                         _______ _______ _______ _____ _____    ______ ____

>  <TORSDO>
F 7

$$$$
=
 OpenBabel11052419293D

 55 61  0  0  1  0  0  0  0  0999 V2000
  186.2870  177.5630  140.2980 C   0  0  0  0  0  2  0  0  0  0  0  0
  189.5170  174.3860  144.3890 C   0  0  0  0  0  2  0  0  0  0  0  0
  188.8430  176.7700  143.9870 C   0  0  2  0  0  3  0  0  0  0  0  0
  187.3420  177.3120  146.4140 C   0  0  0  0  0  3  0  0  0  0  0  0
  186.6740  177.6280  147.5980 C   0  0  0  0  0  3  0  0  0  0  0  0
  186.0160  178.9550  145.2160 C   0  0  0  0  0  0  0  0  0  0  0  0
  185.3740  179.2810  146.4160 C   0  0  0  0  0  3  0  0  0  0  0  0
  189.5880  176.9850  142.6840 C   0  0  0  0  0  1  0  0  0  0  0  0
  185.6970  178.6190  147.6010 C   0  0  0  0  0  3  0  0  0  0  0  0
  186.6780  176.2760  138.1910 C   0  0  0  0  0  3  0  0  0  0  0  0
  187.0350  177.9690  145.2170 C   0  0  0  0  0  0  0  0  0  0  0  0
  188.4270  174.5340  139.5150 C   0  0  0  0  0  0  0  0  0  0  0  0
  185.4750  177.0220  141.4660 C   0  0  0  0  0  2  0  0  0  0  0  0
  187.8160  175.5780  140.2130 C   0  0  0  0  0  3  0  0  0  0  0  0
  185.8730  179.2130  142.7370 C   0  0  0  0  0  2  0  0  0  0  0  0
  191.2360  174.0350  142.8280 C   0  0  0  0  0  2  0  0  0  0  0  0
  185.6220  179.6550  144.0640 O   0  0  0  0  0  0  0  0  0  0  0  0
  189.8790  173.6440  143.1910 N   0  0  0  0  0  2  0  0  0  0  0  0
  188.3620  175.3310  144.0880 C   0  0  0  0  0  2  0  0  0  0  0  0
  187.3010  175.2420  137.4890 C   0  0  0  0  0  3  0  0  0  0  0  0
  191.5910  173.5830  141.4070 C   0  0  2  0  0  3  0  0  0  0  0  0
  186.9340  176.4440  139.5570 C   0  0  0  0  0  0  0  0  0  0  0  0
  187.7350  177.6680  144.0390 O   0  0  0  0  0  0  0  0  0  0  0  0
  184.8770  178.1190  142.3600 C   0  0  1  0  0  3  0  0  0  0  0  0
  190.7460  174.2130  140.2990 C   0  0  0  0  0  2  0  0  0  0  0  0
  189.3460  173.6130  140.2300 C   0  0  0  0  0  2  0  0  0  0  0  0
  188.1770  174.3710  138.1490 C   0  0  0  0  0  3  0  0  0  0  0  0
  182.6450  178.6510  143.0140 C   0  0  0  0  0  2  0  0  0  0  0  0
  181.2290  179.5160  141.1590 N   0  0  0  0  0  0  0  0  0  0  0  0
  183.0640  177.9100  140.7640 C   0  0  0  0  0  2  0  0  0  0  0  0
  181.6160  178.2960  140.4480 C   0  0  0  0  0  2  0  0  0  0  0  0
  181.3080  179.2870  142.6100 C   0  0  0  0  0  2  0  0  0  0  0  0
  183.5970  178.6750  141.9000 N   0  0  0  0  0  0  0  0  0  0  0  0
  179.8710  179.8900  140.7560 C   0  0  0  0  0  3  0  0  0  0  0  0
  179.1830  178.7470  140.0260 C   0  0  0  0  0  1  0  0  0  0  0  0
  179.8050  181.1660  139.9260 C   0  0  0  0  0  1  0  0  0  0  0  0
  191.8830  172.0890  141.2490 C   0  0  0  0  0  2  0  0  0  0  0  0
  193.2820  171.6900  141.6930 C   0  0  0  0  0  2  0  0  0  0  0  0
  194.3120  172.1670  140.6790 C   0  0  0  0  0  2  0  0  0  0  0  0
  195.6990  175.6480  140.1770 C   0  0  2  0  0  3  0  0  0  0  0  0
  196.8060  172.0480  141.6170 F   0  0  0  0  0  0  0  0  0  0  0  0
  196.5030  173.3640  141.3190 C   0  0  2  0  0  0  0  0  0  0  0  0
  197.0290  174.1350  142.4020 O   0  0  0  0  0  0  0  0  0  0  0  0
  194.9660  173.4720  141.1350 C   0  0  1  0  0  3  0  0  0  0  0  0
  197.2090  175.1720  138.2560 C   0  0  0  0  0  1  0  0  0  0  0  0
  195.8050  176.2520  141.5720 C   0  0  0  0  0  2  0  0  0  0  0  0
  197.7250  176.2740  143.0530 C   0  0  0  0  0  1  0  0  0  0  0  0
  196.5140  175.4420  142.6910 C   0  0  2  0  0  0  0  0  0  0  0  0
  194.6140  174.5900  140.1580 C   0  0  0  0  0  2  0  0  0  0  0  0
  197.1860  173.6740  140.1160 O   0  0  0  0  0  0  0  0  0  0  0  0
  197.0390  175.0380  139.7560 C   0  0  2  0  0  3  0  0  0  0  0  0
  195.7400  174.3080  144.9770 C   0  0  0  0  0  1  0  0  0  0  0  0
  195.5980  175.4170  143.9420 C   0  0  0  0  0  0  0  0  0  0  0  0
  194.2180  176.0390  143.8430 C   0  0  0  0  0  2  0  0  0  0  0  0
  195.3330  176.7590  144.5870 C   0  0  0  0  0  2  0  0  0  0  0  0
  1 13  1  0  0  0  0
  3  8  1  6  0  0  0
  3 23  1  0  0  0  0
  3 19  1  0  0  0  0
  4  5  1  0  0  0  0
  5  9  2  0  0  0  0
  6 11  1  0  0  0  0
  6  7  2  0  0  0  0
  7  9  1  0  0  0  0
 10 22  1  0  0  0  0
 11  4  2  0  0  0  0
 12 14  1  0  0  0  0
 12 26  1  0  0  0  0
 15 17  1  0  0  0  0
 16 18  1  0  0  0  0
 17  6  1  0  0  0  0
 18  2  1  0  0  0  0
 19  2  1  0  0  0  0
 20 27  1  0  0  0  0
 20 10  2  0  0  0  0
 21 37  1  1  0  0  0
 21 16  1  0  0  0  0
 22 14  2  0  0  0  0
 22  1  1  0  0  0  0
 23 11  1  0  0  0  0
 24 13  1  6  0  0  0
 24 15  1  0  0  0  0
 25 21  1  0  0  0  0
 26 25  1  0  0  0  0
 27 12  2  0  0  0  0
 29 32  1  0  0  0  0
 30 33  1  0  0  0  0
 31 30  1  0  0  0  0
 31 29  1  0  0  0  0
 32 28  1  0  0  0  0
 33 24  1  0  0  0  0
 33 28  1  0  0  0  0
 34 29  1  0  0  0  0
 35 34  1  0  0  0  0
 36 34  1  0  0  0  0
 37 38  1  0  0  0  0
 39 38  1  0  0  0  0
 40 49  1  1  0  0  0
 40 46  1  0  0  0  0
 42 41  1  1  0  0  0
 42 43  1  0  0  0  0
 43 48  1  0  0  0  0
 44 39  1  6  0  0  0
 44 42  1  0  0  0  0
 46 48  1  0  0  0  0
 48 47  1  1  0  0  0
 48 53  1  0  0  0  0
 49 44  1  0  0  0  0
 50 42  1  0  0  0  0
 51 45  1  6  0  0  0
 51 50  1  0  0  0  0
 51 40  1  0  0  0  0
 53 55  1  0  0  0  0
 53 52  1  0  0  0  0
 54 53  1  0  0  0  0
 54 55  1  0  0  0  0
M  END
>  <MODEL>
2

>  <REMARK>
 VINA RESULT:      -8.4      1.692      2.533
  Name = 
  7 active torsions:
  status: ('A' for Active; 'I' for Inactive)
    1  A    between atoms: C_7  and  C_20
    2  A    between atoms: C_7  and  C_22
    3  A    between atoms: C_8  and  C_22
    4  A    between atoms: C_8  and  C_43
    5  A    between atoms: C_10  and  N_32
    6  A    between atoms: C_12  and  C_38
    7  A    between atoms: C_49  and  N_52
                            x       y       z     vdW  Elec       q    Type
                         _______ _______ _______ _____ _____    ______ ____

>  <TORSDO>
F 7

$$$$
=
 OpenBabel11052419293D

 55 61  0  0  1  0  0  0  0  0999 V2000
  186.3010  177.5450  140.2750 C   0  0  0  0  0  2  0  0  0  0  0  0
  189.5510  174.3970  144.3720 C   0  0  0  0  0  2  0  0  0  0  0  0
  188.8730  176.7780  143.9570 C   0  0  2  0  0  3  0  0  0  0  0  0
  187.3840  177.3350  146.3870 C   0  0  0  0  0  3  0  0  0  0  0  0
  186.7200  177.6580  147.5720 C   0  0  0  0  0  3  0  0  0  0  0  0
  186.0500  178.9690  145.1850 C   0  0  0  0  0  0  0  0  0  0  0  0
  185.4140  179.3030  146.3850 C   0  0  0  0  0  3  0  0  0  0  0  0
  189.6120  176.9850  142.6500 C   0  0  0  0  0  1  0  0  0  0  0  0
  185.7430  178.6490  147.5740 C   0  0  0  0  0  3  0  0  0  0  0  0
  186.6830  176.2450  138.1740 C   0  0  0  0  0  3  0  0  0  0  0  0
  187.0700  177.9840  145.1870 C   0  0  0  0  0  0  0  0  0  0  0  0
  188.4390  174.5130  139.5020 C   0  0  0  0  0  0  0  0  0  0  0  0
  185.4940  177.0120  141.4500 C   0  0  0  0  0  2  0  0  0  0  0  0
  187.8310  175.5610  140.1960 C   0  0  0  0  0  3  0  0  0  0  0  0
  185.8970  179.2110  142.7050 C   0  0  0  0  0  2  0  0  0  0  0  0
  191.2630  174.0370  142.8060 C   0  0  0  0  0  2  0  0  0  0  0  0
  185.6510  179.6610  144.0310 O   0  0  0  0  0  0  0  0  0  0  0  0
  189.9080  173.6480  143.1770 N   0  0  0  0  0  2  0  0  0  0  0  0
  188.3940  175.3400  144.0700 C   0  0  0  0  0  2  0  0  0  0  0  0
  187.3040  175.2070  137.4760 C   0  0  0  0  0  3  0  0  0  0  0  0
  191.6120  173.5760  141.3860 C   0  0  2  0  0  3  0  0  0  0  0  0
  186.9450  176.4230  139.5380 C   0  0  0  0  0  0  0  0  0  0  0  0
  187.7650  177.6750  144.0090 O   0  0  0  0  0  0  0  0  0  0  0  0
  184.9000  178.1140  142.3390 C   0  0  1  0  0  3  0  0  0  0  0  0
  190.7620  174.1980  140.2780 C   0  0  0  0  0  2  0  0  0  0  0  0
  189.3620  173.5970  140.2190 C   0  0  0  0  0  2  0  0  0  0  0  0
  188.1830  174.3400  138.1390 C   0  0  0  0  0  3  0  0  0  0  0  0
  182.6670  178.6400  142.9980 C   0  0  0  0  0  2  0  0  0  0  0  0
  181.2460  179.5010  141.1450 N   0  0  0  0  0  0  0  0  0  0  0  0
  183.0850  177.8990  140.7470 C   0  0  0  0  0  2  0  0  0  0  0  0
  181.6340  178.2810  140.4330 C   0  0  0  0  0  2  0  0  0  0  0  0
  181.3280  179.2720  142.5960 C   0  0  0  0  0  2  0  0  0  0  0  0
  183.6170  178.6660  141.8810 N   0  0  0  0  0  0  0  0  0  0  0  0
  179.8850  179.8700  140.7440 C   0  0  0  0  0  3  0  0  0  0  0  0
  179.2100  178.7360  139.9900 C   0  0  0  0  0  1  0  0  0  0  0  0
  179.8120  181.1610  139.9380 C   0  0  0  0  0  1  0  0  0  0  0  0
  191.9040  172.0820  141.2360 C   0  0  0  0  0  2  0  0  0  0  0  0
  193.3700  171.7690  140.9780 C   0  0  0  0  0  2  0  0  0  0  0  0
  193.6410  171.7200  139.4800 C   0  0  0  0  0  2  0  0  0  0  0  0
  196.2160  174.4060  140.1450 C   0  0  2  0  0  3  0  0  0  0  0  0
  193.1230  173.6190  137.6810 F   0  0  0  0  0  0  0  0  0  0  0  0
  194.2990  173.9350  138.3380 C   0  0  2  0  0  0  0  0  0  0  0  0
  195.1950  174.3950  137.3220 O   0  0  0  0  0  0  0  0  0  0  0  0
  194.7770  172.6680  139.0970 C   0  0  1  0  0  3  0  0  0  0  0  0
  194.7290  176.0860  141.2250 C   0  0  0  0  0  1  0  0  0  0  0  0
  197.1840  174.3460  138.9700 C   0  0  0  0  0  2  0  0  0  0  0  0
  197.1340  175.6440  136.9220 C   0  0  0  0  0  1  0  0  0  0  0  0
  196.6140  174.3570  137.5250 C   0  0  2  0  0  0  0  0  0  0  0  0
  195.5690  173.0510  140.3450 C   0  0  0  0  0  2  0  0  0  0  0  0
  193.9910  174.9860  139.2370 O   0  0  0  0  0  0  0  0  0  0  0  0
  195.1450  175.4730  139.9020 C   0  0  2  0  0  3  0  0  0  0  0  0
  197.9410  172.0450  137.4590 C   0  0  0  0  0  1  0  0  0  0  0  0
  197.2610  173.1960  136.7280 C   0  0  0  0  0  0  0  0  0  0  0  0
  197.7880  173.4780  135.3330 C   0  0  0  0  0  2  0  0  0  0  0  0
  196.4840  172.7150  135.5220 C   0  0  0  0  0  2  0  0  0  0  0  0
  1 13  1  0  0  0  0
  3  8  1  6  0  0  0
  3 23  1  0  0  0  0
  3 19  1  0  0  0  0
  4  5  1  0  0  0  0
  5  9  2  0  0  0  0
  6 11  1  0  0  0  0
  6  7  2  0  0  0  0
  7  9  1  0  0  0  0
 10 22  1  0  0  0  0
 11  4  2  0  0  0  0
 12 14  1  0  0  0  0
 12 26  1  0  0  0  0
 15 17  1  0  0  0  0
 16 18  1  0  0  0  0
 17  6  1  0  0  0  0
 18  2  1  0  0  0  0
 19  2  1  0  0  0  0
 20 27  1  0  0  0  0
 20 10  2  0  0  0  0
 21 37  1  1  0  0  0
 21 16  1  0  0  0  0
 22 14  2  0  0  0  0
 22  1  1  0  0  0  0
 23 11  1  0  0  0  0
 24 13  1  6  0  0  0
 24 15  1  0  0  0  0
 25 21  1  0  0  0  0
 26 25  1  0  0  0  0
 27 12  2  0  0  0  0
 29 32  1  0  0  0  0
 30 33  1  0  0  0  0
 31 30  1  0  0  0  0
 31 29  1  0  0  0  0
 32 28  1  0  0  0  0
 33 24  1  0  0  0  0
 33 28  1  0  0  0  0
 34 29  1  0  0  0  0
 35 34  1  0  0  0  0
 36 34  1  0  0  0  0
 38 37  1  0  0  0  0
 39 38  1  0  0  0  0
 40 46  1  6  0  0  0
 40 49  1  0  0  0  0
 42 41  1  6  0  0  0
 42 44  1  0  0  0  0
 42 50  1  0  0  0  0
 43 48  1  0  0  0  0
 43 42  1  0  0  0  0
 44 39  1  1  0  0  0
 44 49  1  0  0  0  0
 48 47  1  6  0  0  0
 48 46  1  0  0  0  0
 50 51  1  0  0  0  0
 51 40  1  0  0  0  0
 51 45  1  1  0  0  0
 53 52  1  0  0  0  0
 53 48  1  0  0  0  0
 54 55  1  0  0  0  0
 54 53  1  0  0  0  0
 55 53  1  0  0  0  0
M  END
>  <MODEL>
3

>  <REMARK>
 VINA RESULT:      -8.0      2.871      3.937
  Name = 
  7 active torsions:
  status: ('A' for Active; 'I' for Inactive)
    1  A    between atoms: C_7  and  C_20
    2  A    between atoms: C_7  and  C_22
    3  A    between atoms: C_8  and  C_22
    4  A    between atoms: C_8  and  C_43
    5  A    between atoms: C_10  and  N_32
    6  A    between atoms: C_12  and  C_38
    7  A    between atoms: C_49  and  N_52
                            x       y       z     vdW  Elec       q    Type
                         _______ _______ _______ _____ _____    ______ ____

>  <TORSDO>
F 7

$$$$
=
 OpenBabel11052419293D

 55 61  0  0  1  0  0  0  0  0999 V2000
  186.2670  177.6150  140.4330 C   0  0  0  0  0  2  0  0  0  0  0  0
  189.5080  174.5140  144.5730 C   0  0  0  0  0  2  0  0  0  0  0  0
  188.8040  176.8850  144.1480 C   0  0  2  0  0  3  0  0  0  0  0  0
  187.2760  177.4240  146.5590 C   0  0  0  0  0  3  0  0  0  0  0  0
  186.5940  177.7390  147.7350 C   0  0  0  0  0  3  0  0  0  0  0  0
  185.9360  179.0390  145.3380 C   0  0  0  0  0  0  0  0  0  0  0  0
  185.2800  179.3650  146.5310 C   0  0  0  0  0  3  0  0  0  0  0  0
  189.5560  177.1010  142.8500 C   0  0  0  0  0  1  0  0  0  0  0  0
  185.6030  178.7160  147.7230 C   0  0  0  0  0  3  0  0  0  0  0  0
  186.6930  176.3190  138.3390 C   0  0  0  0  0  3  0  0  0  0  0  0
  186.9690  178.0680  145.3540 C   0  0  0  0  0  0  0  0  0  0  0  0
  188.4560  174.6120  139.6900 C   0  0  0  0  0  0  0  0  0  0  0  0
  185.4530  177.0720  141.5980 C   0  0  0  0  0  2  0  0  0  0  0  0
  187.8240  175.6520  140.3750 C   0  0  0  0  0  3  0  0  0  0  0  0
  185.8100  179.2770  142.8570 C   0  0  0  0  0  2  0  0  0  0  0  0
  191.2440  174.1760  143.0290 C   0  0  0  0  0  2  0  0  0  0  0  0
  185.5420  179.7250  144.1780 O   0  0  0  0  0  0  0  0  0  0  0  0
  189.8900  173.7690  143.3840 N   0  0  0  0  0  2  0  0  0  0  0  0
  188.3420  175.4410  144.2560 C   0  0  0  0  0  2  0  0  0  0  0  0
  187.3370  175.2880  137.6500 C   0  0  0  0  0  3  0  0  0  0  0  0
  191.6170  173.7180  141.6140 C   0  0  2  0  0  3  0  0  0  0  0  0
  186.9360  176.5010  139.7050 C   0  0  0  0  0  0  0  0  0  0  0  0
  187.6820  177.7680  144.1850 O   0  0  0  0  0  0  0  0  0  0  0  0
  184.8330  178.1670  142.4790 C   0  0  1  0  0  3  0  0  0  0  0  0
  190.7720  174.3290  140.4950 C   0  0  0  0  0  2  0  0  0  0  0  0
  189.3810  173.7080  140.4190 C   0  0  0  0  0  2  0  0  0  0  0  0
  188.2190  174.4340  138.3230 C   0  0  0  0  0  3  0  0  0  0  0  0
  182.5860  178.6660  143.1100 C   0  0  0  0  0  2  0  0  0  0  0  0
  181.1760  179.5030  141.2380 N   0  0  0  0  0  0  0  0  0  0  0  0
  183.0390  177.9240  140.8670 C   0  0  0  0  0  2  0  0  0  0  0  0
  181.5880  178.2870  140.5350 C   0  0  0  0  0  2  0  0  0  0  0  0
  181.2440  179.2800  142.6910 C   0  0  0  0  0  2  0  0  0  0  0  0
  183.5490  178.7010  142.0050 N   0  0  0  0  0  0  0  0  0  0  0  0
  179.8150  179.8550  140.8210 C   0  0  0  0  0  3  0  0  0  0  0  0
  179.1560  178.7020  140.0800 C   0  0  0  0  0  1  0  0  0  0  0  0
  179.7380  181.1320  139.9940 C   0  0  0  0  0  1  0  0  0  0  0  0
  191.9310  172.2280  141.4690 C   0  0  0  0  0  2  0  0  0  0  0  0
  192.6650  171.8810  140.1830 C   0  0  0  0  0  2  0  0  0  0  0  0
  193.9940  172.6210  140.1200 C   0  0  0  0  0  2  0  0  0  0  0  0
  196.0500  173.5620  137.0900 C   0  0  2  0  0  3  0  0  0  0  0  0
  193.6560  175.2530  139.8590 F   0  0  0  0  0  0  0  0  0  0  0  0
  194.3480  174.7810  138.7590 C   0  0  2  0  0  0  0  0  0  0  0  0
  193.7750  175.4450  137.6300 O   0  0  0  0  0  0  0  0  0  0  0  0
  194.2140  173.2350  138.7370 C   0  0  1  0  0  3  0  0  0  0  0  0
  197.9380  174.6860  138.2590 C   0  0  0  0  0  1  0  0  0  0  0  0
  195.0410  173.8940  135.9980 C   0  0  0  0  0  2  0  0  0  0  0  0
  194.1400  176.0650  135.4010 C   0  0  0  0  0  1  0  0  0  0  0  0
  193.8880  174.8840  136.3150 C   0  0  2  0  0  0  0  0  0  0  0  0
  195.4330  172.5930  138.0800 C   0  0  0  0  0  2  0  0  0  0  0  0
  195.6990  175.1750  138.9300 O   0  0  0  0  0  0  0  0  0  0  0  0
  196.4990  174.8370  137.8090 C   0  0  2  0  0  3  0  0  0  0  0  0
  192.5430  172.9390  135.0830 C   0  0  0  0  0  1  0  0  0  0  0  0
  192.5480  174.2480  135.8630 C   0  0  0  0  0  0  0  0  0  0  0  0
  191.3610  175.1580  135.6100 C   0  0  0  0  0  2  0  0  0  0  0  0
  191.4210  174.3070  136.8700 C   0  0  0  0  0  2  0  0  0  0  0  0
  1 13  1  0  0  0  0
  3  8  1  6  0  0  0
  3 23  1  0  0  0  0
  3 19  1  0  0  0  0
  4  5  1  0  0  0  0
  6 11  1  0  0  0  0
  6  7  2  0  0  0  0
  7  9  1  0  0  0  0
  9  5  2  0  0  0  0
 10 22  1  0  0  0  0
 11  4  2  0  0  0  0
 12 14  1  0  0  0  0
 12 26  1  0  0  0  0
 15 17  1  0  0  0  0
 16 18  1  0  0  0  0
 17  6  1  0  0  0  0
 18  2  1  0  0  0  0
 19  2  1  0  0  0  0
 20 27  1  0  0  0  0
 20 10  2  0  0  0  0
 21 37  1  1  0  0  0
 21 16  1  0  0  0  0
 22 14  2  0  0  0  0
 22  1  1  0  0  0  0
 23 11  1  0  0  0  0
 24 13  1  6  0  0  0
 24 15  1  0  0  0  0
 25 21  1  0  0  0  0
 26 25  1  0  0  0  0
 27 12  2  0  0  0  0
 29 32  1  0  0  0  0
 30 33  1  0  0  0  0
 31 30  1  0  0  0  0
 31 29  1  0  0  0  0
 32 28  1  0  0  0  0
 33 24  1  0  0  0  0
 33 28  1  0  0  0  0
 34 29  1  0  0  0  0
 35 34  1  0  0  0  0
 36 34  1  0  0  0  0
 38 37  1  0  0  0  0
 39 38  1  0  0  0  0
 40 46  1  6  0  0  0
 40 51  1  0  0  0  0
 40 49  1  0  0  0  0
 42 50  1  0  0  0  0
 42 41  1  1  0  0  0
 43 42  1  0  0  0  0
 44 42  1  0  0  0  0
 44 39  1  1  0  0  0
 46 48  1  0  0  0  0
 48 47  1  6  0  0  0
 48 43  1  0  0  0  0
 49 44  1  0  0  0  0
 51 45  1  1  0  0  0
 51 50  1  0  0  0  0
 52 53  1  0  0  0  0
 53 48  1  0  0  0  0
 53 55  1  0  0  0  0
 54 53  1  0  0  0  0
 54 55  1  0  0  0  0
M  END
>  <MODEL>
4

>  <REMARK>
 VINA RESULT:      -7.8      2.840      4.320
  Name = 
  7 active torsions:
  status: ('A' for Active; 'I' for Inactive)
    1  A    between atoms: C_7  and  C_20
    2  A    between atoms: C_7  and  C_22
    3  A    between atoms: C_8  and  C_22
    4  A    between atoms: C_8  and  C_43
    5  A    between atoms: C_10  and  N_32
    6  A    between atoms: C_12  and  C_38
    7  A    between atoms: C_49  and  N_52
                            x       y       z     vdW  Elec       q    Type
                         _______ _______ _______ _____ _____    ______ ____

>  <TORSDO>
F 7

$$$$
=
 OpenBabel11052419293D

 55 61  0  0  1  0  0  0  0  0999 V2000
  186.3850  177.5050  140.3350 C   0  0  0  0  0  2  0  0  0  0  0  0
  189.5240  174.5060  144.6270 C   0  0  0  0  0  2  0  0  0  0  0  0
  188.8360  176.8660  144.1240 C   0  0  2  0  0  3  0  0  0  0  0  0
  187.2560  177.4710  146.4850 C   0  0  0  0  0  3  0  0  0  0  0  0
  186.5490  177.8190  147.6370 C   0  0  0  0  0  3  0  0  0  0  0  0
  185.9480  179.0570  145.1940 C   0  0  0  0  0  0  0  0  0  0  0  0
  185.2670  179.4150  146.3620 C   0  0  0  0  0  3  0  0  0  0  0  0
  189.6170  177.0470  142.8380 C   0  0  0  0  0  1  0  0  0  0  0  0
  185.5610  178.7980  147.5780 C   0  0  0  0  0  3  0  0  0  0  0  0
  186.8540  176.1530  138.2860 C   0  0  0  0  0  3  0  0  0  0  0  0
  186.9780  178.0850  145.2580 C   0  0  0  0  0  0  0  0  0  0  0  0
  188.5810  174.4780  139.7200 C   0  0  0  0  0  0  0  0  0  0  0  0
  185.5440  176.9940  141.4960 C   0  0  0  0  0  2  0  0  0  0  0  0
  187.9370  175.5370  140.3630 C   0  0  0  0  0  3  0  0  0  0  0  0
  185.8780  179.2300  142.7040 C   0  0  0  0  0  2  0  0  0  0  0  0
  191.2930  174.1240  143.1310 C   0  0  0  0  0  2  0  0  0  0  0  0
  185.5820  179.7130  144.0080 O   0  0  0  0  0  0  0  0  0  0  0  0
  189.9300  173.7290  143.4660 N   0  0  0  0  0  2  0  0  0  0  0  0
  188.3680  175.4270  144.2590 C   0  0  0  0  0  2  0  0  0  0  0  0
  187.5090  175.1040  137.6380 C   0  0  0  0  0  3  0  0  0  0  0  0
  191.6960  173.6290  141.7370 C   0  0  2  0  0  3  0  0  0  0  0  0
  187.0660  176.3700  139.6520 C   0  0  0  0  0  0  0  0  0  0  0  0
  187.7160  177.7520  144.1130 O   0  0  0  0  0  0  0  0  0  0  0  0
  184.9060  178.1130  142.3340 C   0  0  1  0  0  3  0  0  0  0  0  0
  190.8780  174.2110  140.5840 C   0  0  0  0  0  2  0  0  0  0  0  0
  189.4880  173.5920  140.4930 C   0  0  0  0  0  2  0  0  0  0  0  0
  188.3740  174.2660  138.3540 C   0  0  0  0  0  3  0  0  0  0  0  0
  182.6530  178.6510  142.9060 C   0  0  0  0  0  2  0  0  0  0  0  0
  181.2810  179.4250  140.9790 N   0  0  0  0  0  0  0  0  0  0  0  0
  183.1390  177.8210  140.7010 C   0  0  0  0  0  2  0  0  0  0  0  0
  181.6960  178.1800  140.3310 C   0  0  0  0  0  2  0  0  0  0  0  0
  181.3230  179.2580  142.4400 C   0  0  0  0  0  2  0  0  0  0  0  0
  183.6350  178.6370  141.8170 N   0  0  0  0  0  0  0  0  0  0  0  0
  179.9310  179.7700  140.5250 C   0  0  0  0  0  3  0  0  0  0  0  0
  179.8420  181.2370  140.1380 C   0  0  0  0  0  1  0  0  0  0  0  0
  178.8380  179.4170  141.5260 C   0  0  0  0  0  1  0  0  0  0  0  0
  192.0090  172.1340  141.6380 C   0  0  0  0  0  2  0  0  0  0  0  0
  193.0770  171.8010  140.6080 C   0  0  0  0  0  2  0  0  0  0  0  0
  192.4520  171.0960  139.4120 C   0  0  0  0  0  2  0  0  0  0  0  0
  191.6320  172.2610  135.9100 C   0  0  2  0  0  3  0  0  0  0  0  0
  194.5900  170.4410  137.9580 F   0  0  0  0  0  0  0  0  0  0  0  0
  193.7370  171.2030  137.1800 C   0  0  2  0  0  0  0  0  0  0  0  0
  194.5780  172.1130  136.4670 O   0  0  0  0  0  0  0  0  0  0  0  0
  192.7040  171.8770  138.1220 C   0  0  1  0  0  3  0  0  0  0  0  0
  191.1910  170.0410  134.8740 C   0  0  0  0  0  1  0  0  0  0  0  0
  192.5310  173.4650  135.6580 C   0  0  0  0  0  2  0  0  0  0  0  0
  194.7090  173.5100  134.5920 C   0  0  0  0  0  1  0  0  0  0  0  0
  194.0520  173.3410  135.9450 C   0  0  2  0  0  0  0  0  0  0  0  0
  191.3820  172.1120  137.3970 C   0  0  0  0  0  2  0  0  0  0  0  0
  193.1030  170.3090  136.2800 O   0  0  0  0  0  0  0  0  0  0  0  0
  192.2730  170.9880  135.3510 C   0  0  2  0  0  3  0  0  0  0  0  0
  195.9070  174.6170  137.3740 C   0  0  0  0  0  1  0  0  0  0  0  0
  194.4930  174.5500  136.8110 C   0  0  0  0  0  0  0  0  0  0  0  0
  193.4410  175.2910  137.6130 C   0  0  0  0  0  2  0  0  0  0  0  0
  194.0100  175.9040  136.3410 C   0  0  0  0  0  2  0  0  0  0  0  0
  1 13  1  0  0  0  0
  3  8  1  6  0  0  0
  3 19  1  0  0  0  0
  4  5  1  0  0  0  0
  6 11  1  0  0  0  0
  6  7  2  0  0  0  0
  7  9  1  0  0  0  0
  9  5  2  0  0  0  0
 10 22  1  0  0  0  0
 11  4  2  0  0  0  0
 12 14  1  0  0  0  0
 12 26  1  0  0  0  0
 15 17  1  0  0  0  0
 16 18  1  0  0  0  0
 17  6  1  0  0  0  0
 18  2  1  0  0  0  0
 19  2  1  0  0  0  0
 20 10  2  0  0  0  0
 20 27  1  0  0  0  0
 21 37  1  1  0  0  0
 21 16  1  0  0  0  0
 22  1  1  0  0  0  0
 22 14  2  0  0  0  0
 23  3  1  0  0  0  0
 23 11  1  0  0  0  0
 24 13  1  6  0  0  0
 24 15  1  0  0  0  0
 25 21  1  0  0  0  0
 26 25  1  0  0  0  0
 27 12  2  0  0  0  0
 29 32  1  0  0  0  0
 30 33  1  0  0  0  0
 31 30  1  0  0  0  0
 31 29  1  0  0  0  0
 32 28  1  0  0  0  0
 33 24  1  0  0  0  0
 33 28  1  0  0  0  0
 34 29  1  0  0  0  0
 34 36  1  0  0  0  0
 35 34  1  0  0  0  0
 38 37  1  0  0  0  0
 39 38  1  0  0  0  0
 40 46  1  1  0  0  0
 40 49  1  0  0  0  0
 42 41  1  1  0  0  0
 42 44  1  0  0  0  0
 43 42  1  0  0  0  0
 44 39  1  1  0  0  0
 46 48  1  0  0  0  0
 48 47  1  6  0  0  0
 48 43  1  0  0  0  0
 48 53  1  0  0  0  0
 49 44  1  0  0  0  0
 50 42  1  0  0  0  0
 51 45  1  1  0  0  0
 51 40  1  0  0  0  0
 51 50  1  0  0  0  0
 53 52  1  0  0  0  0
 53 54  1  0  0  0  0
 55 53  1  0  0  0  0
 55 54  1  0  0  0  0
M  END
>  <MODEL>
5

>  <REMARK>
 VINA RESULT:      -7.6      3.182      4.811
  Name = 
  7 active torsions:
  status: ('A' for Active; 'I' for Inactive)
    1  A    between atoms: C_7  and  C_20
    2  A    between atoms: C_7  and  C_22
    3  A    between atoms: C_8  and  C_22
    4  A    between atoms: C_8  and  C_43
    5  A    between atoms: C_10  and  N_32
    6  A    between atoms: C_12  and  C_38
    7  A    between atoms: C_49  and  N_52
                            x       y       z     vdW  Elec       q    Type
                         _______ _______ _______ _____ _____    ______ ____

>  <TORSDO>
F 7

$$$$
=
 OpenBabel11052419293D

 55 61  0  0  1  0  0  0  0  0999 V2000
  187.0180  176.7530  141.1820 C   0  0  0  0  0  2  0  0  0  0  0  0
  190.3570  175.1700  146.0410 C   0  0  0  0  0  2  0  0  0  0  0  0
  189.3280  177.2470  145.0790 C   0  0  2  0  0  3  0  0  0  0  0  0
  187.5440  178.0050  147.2430 C   0  0  0  0  0  3  0  0  0  0  0  0
  186.7280  178.4350  148.2900 C   0  0  0  0  0  3  0  0  0  0  0  0
  186.0720  179.0820  145.6410 C   0  0  0  0  0  0  0  0  0  0  0  0
  185.2790  179.5300  146.7020 C   0  0  0  0  0  3  0  0  0  0  0  0
  190.1400  177.3150  143.8010 C   0  0  0  0  0  1  0  0  0  0  0  0
  185.6010  179.2060  148.0210 C   0  0  0  0  0  3  0  0  0  0  0  0
  187.8090  175.1440  139.4410 C   0  0  0  0  0  3  0  0  0  0  0  0
  187.2390  178.3250  145.9140 C   0  0  0  0  0  0  0  0  0  0  0  0
  189.7020  174.0770  141.2090 C   0  0  0  0  0  0  0  0  0  0  0  0
  186.2070  176.3320  142.3990 C   0  0  0  0  0  2  0  0  0  0  0  0
  188.8620  175.1140  141.6220 C   0  0  0  0  0  3  0  0  0  0  0  0
  186.1120  178.7770  143.1630 C   0  0  0  0  0  2  0  0  0  0  0  0
  192.2440  174.8200  144.6880 C   0  0  0  0  0  2  0  0  0  0  0  0
  185.6710  179.4360  144.3430 O   0  0  0  0  0  0  0  0  0  0  0  0
  190.9460  174.2710  145.0600 N   0  0  0  0  0  2  0  0  0  0  0  0
  189.0910  175.8000  145.4760 C   0  0  0  0  0  2  0  0  0  0  0  0
  188.6600  174.1180  139.0220 C   0  0  0  0  0  3  0  0  0  0  0  0
  192.7970  174.1500  143.4250 C   0  0  2  0  0  3  0  0  0  0  0  0
  187.9090  175.6420  140.7450 C   0  0  0  0  0  0  0  0  0  0  0  0
  188.0830  177.9150  144.8720 O   0  0  0  0  0  0  0  0  0  0  0  0
  185.3540  177.4630  142.9920 C   0  0  1  0  0  3  0  0  0  0  0  0
  191.9610  174.3640  142.1620 C   0  0  0  0  0  2  0  0  0  0  0  0
  190.6950  173.5140  142.1590 C   0  0  0  0  0  2  0  0  0  0  0  0
  189.6070  173.5840  139.9050 C   0  0  0  0  0  3  0  0  0  0  0  0
  184.2540  178.2020  141.0070 C   0  0  0  0  0  2  0  0  0  0  0  0
  181.7700  178.1890  141.1670 N   0  0  0  0  0  0  0  0  0  0  0  0
  183.2050  178.5760  143.1400 C   0  0  0  0  0  2  0  0  0  0  0  0
  181.9570  179.0090  142.3650 C   0  0  0  0  0  2  0  0  0  0  0  0
  182.9200  178.3630  140.2660 C   0  0  0  0  0  2  0  0  0  0  0  0
  184.0450  177.6620  142.3540 N   0  0  0  0  0  0  0  0  0  0  0  0
  180.5200  178.5840  140.5120 C   0  0  0  0  0  3  0  0  0  0  0  0
  180.3710  180.0970  140.4860 C   0  0  0  0  0  1  0  0  0  0  0  0
  179.2790  177.9380  141.1150 C   0  0  0  0  0  1  0  0  0  0  0  0
  193.3510  172.7380  143.6210 C   0  0  0  0  0  2  0  0  0  0  0  0
  194.2140  172.5880  144.8650 C   0  0  0  0  0  2  0  0  0  0  0  0
  195.5940  172.0680  144.4870 C   0  0  0  0  0  2  0  0  0  0  0  0
  195.8060  169.1890  142.0470 C   0  0  2  0  0  3  0  0  0  0  0  0
  197.5240  172.7620  142.7820 F   0  0  0  0  0  0  0  0  0  0  0  0
  196.9110  171.6120  142.3190 C   0  0  2  0  0  0  0  0  0  0  0  0
  196.7570  171.7990  140.9100 O   0  0  0  0  0  0  0  0  0  0  0  0
  195.5800  171.4330  143.0970 C   0  0  1  0  0  3  0  0  0  0  0  0
  197.9300  168.1740  142.8550 C   0  0  0  0  0  1  0  0  0  0  0  0
  195.2350  169.7190  140.7380 C   0  0  0  0  0  2  0  0  0  0  0  0
  196.4330  170.6970  138.8690 C   0  0  0  0  0  1  0  0  0  0  0  0
  195.7660  171.0670  140.1770 C   0  0  2  0  0  0  0  0  0  0  0  0
  195.2120  169.9560  143.2120 C   0  0  0  0  0  2  0  0  0  0  0  0
  197.8040  170.5430  142.5800 O   0  0  0  0  0  0  0  0  0  0  0  0
  197.3320  169.3130  142.0550 C   0  0  2  0  0  3  0  0  0  0  0  0
  193.1430  171.5480  140.2100 C   0  0  0  0  0  1  0  0  0  0  0  0
  194.5550  171.9680  139.8220 C   0  0  0  0  0  0  0  0  0  0  0  0
  194.6520  172.8650  138.6020 C   0  0  0  0  0  2  0  0  0  0  0  0
  194.7690  173.4550  140.0010 C   0  0  0  0  0  2  0  0  0  0  0  0
  1 13  1  0  0  0  0
  3  8  1  6  0  0  0
  3 19  1  0  0  0  0
  4  5  1  0  0  0  0
  6 11  1  0  0  0  0
  6  7  2  0  0  0  0
  7  9  1  0  0  0  0
  9  5  2  0  0  0  0
 10 22  1  0  0  0  0
 11  4  2  0  0  0  0
 12 14  1  0  0  0  0
 12 26  1  0  0  0  0
 13 24  1  0  0  0  0
 15 17  1  0  0  0  0
 16 18  1  0  0  0  0
 17  6  1  0  0  0  0
 18  2  1  0  0  0  0
 19  2  1  0  0  0  0
 20 10  2  0  0  0  0
 20 27  1  0  0  0  0
 21 37  1  1  0  0  0
 21 16  1  0  0  0  0
 22  1  1  0  0  0  0
 22 14  2  0  0  0  0
 23  3  1  0  0  0  0
 23 11  1  0  0  0  0
 24 33  1  6  0  0  0
 24 15  1  0  0  0  0
 25 21  1  0  0  0  0
 26 25  1  0  0  0  0
 27 12  2  0  0  0  0
 28 33  1  0  0  0  0
 29 31  1  0  0  0  0
 31 30  1  0  0  0  0
 32 28  1  0  0  0  0
 32 29  1  0  0  0  0
 33 30  1  0  0  0  0
 34 36  1  0  0  0  0
 34 29  1  0  0  0  0
 35 34  1  0  0  0  0
 37 38  1  0  0  0  0
 39 38  1  0  0  0  0
 40 46  1  6  0  0  0
 40 51  1  0  0  0  0
 40 49  1  0  0  0  0
 42 50  1  0  0  0  0
 42 41  1  1  0  0  0
 42 44  1  0  0  0  0
 43 42  1  0  0  0  0
 44 49  1  0  0  0  0
 44 39  1  1  0  0  0
 48 47  1  6  0  0  0
 48 46  1  0  0  0  0
 48 43  1  0  0  0  0
 51 50  1  0  0  0  0
 51 45  1  1  0  0  0
 53 55  1  0  0  0  0
 53 48  1  0  0  0  0
 53 52  1  0  0  0  0
 54 53  1  0  0  0  0
 54 55  1  0  0  0  0
M  END
>  <MODEL>
6

>  <REMARK>
 VINA RESULT:      -7.2      1.990      3.230
  Name = 
  7 active torsions:
  status: ('A' for Active; 'I' for Inactive)
    1  A    between atoms: C_7  and  C_20
    2  A    between atoms: C_7  and  C_22
    3  A    between atoms: C_8  and  C_22
    4  A    between atoms: C_8  and  C_43
    5  A    between atoms: C_10  and  N_32
    6  A    between atoms: C_12  and  C_38
    7  A    between atoms: C_49  and  N_52
                            x       y       z     vdW  Elec       q    Type
                         _______ _______ _______ _____ _____    ______ ____

>  <TORSDO>
F 7

$$$$
=
 OpenBabel11052419293D

 55 61  0  0  1  0  0  0  0  0999 V2000
  192.1860  170.8650  140.1330 C   0  0  0  0  0  2  0  0  0  0  0  0
  193.2260  174.1290  145.1850 C   0  0  0  0  0  2  0  0  0  0  0  0
  193.2540  171.7210  144.4800 C   0  0  2  0  0  3  0  0  0  0  0  0
  196.0290  171.0470  145.0100 C   0  0  0  0  0  3  0  0  0  0  0  0
  197.3370  170.6700  145.3170 C   0  0  0  0  0  3  0  0  0  0  0  0
  195.9420  169.3580  143.2680 C   0  0  0  0  0  0  0  0  0  0  0  0
  197.2440  168.9720  143.6050 C   0  0  0  0  0  3  0  0  0  0  0  0
  191.7790  171.5750  144.1640 C   0  0  0  0  0  1  0  0  0  0  0  0
  197.9410  169.6270  144.6220 C   0  0  0  0  0  3  0  0  0  0  0  0
  190.4310  172.2140  138.9750 C   0  0  0  0  0  3  0  0  0  0  0  0
  195.3130  170.3980  143.9970 C   0  0  0  0  0  0  0  0  0  0  0  0
  190.3330  174.0220  141.1120 C   0  0  0  0  0  0  0  0  0  0  0  0
  193.6240  171.3350  140.3000 C   0  0  0  0  0  2  0  0  0  0  0  0
  191.2050  172.9320  141.1550 C   0  0  0  0  0  3  0  0  0  0  0  0
  194.1860  169.1440  141.5070 C   0  0  0  0  0  2  0  0  0  0  0  0
  190.9370  174.6070  145.4020 C   0  0  0  0  0  2  0  0  0  0  0  0
  195.3150  168.6620  142.2230 O   0  0  0  0  0  0  0  0  0  0  0  0
  192.1350  174.9150  144.6300 N   0  0  0  0  0  2  0  0  0  0  0  0
  193.7250  173.1280  144.1520 C   0  0  0  0  0  2  0  0  0  0  0  0
  189.5470  173.2960  138.9380 C   0  0  0  0  0  3  0  0  0  0  0  0
  189.6700  175.1080  144.7000 C   0  0  2  0  0  3  0  0  0  0  0  0
  191.2630  172.0320  140.0850 C   0  0  0  0  0  0  0  0  0  0  0  0
  193.9870  170.7630  143.7180 O   0  0  0  0  0  0  0  0  0  0  0  0
  194.6300  170.1890  140.4850 C   0  0  1  0  0  3  0  0  0  0  0  0
  189.3800  174.4550  143.3480 C   0  0  0  0  0  2  0  0  0  0  0  0
  190.2980  174.9780  142.2480 C   0  0  0  0  0  2  0  0  0  0  0  0
  189.4970  174.2000  140.0060 C   0  0  0  0  0  3  0  0  0  0  0  0
  195.8970  170.5650  138.4990 C   0  0  0  0  0  2  0  0  0  0  0  0
  195.9210  168.6290  136.9360 N   0  0  0  0  0  0  0  0  0  0  0  0
  194.0000  169.0880  138.4200 C   0  0  0  0  0  2  0  0  0  0  0  0
  194.4610  168.6950  137.0120 C   0  0  0  0  0  2  0  0  0  0  0  0
  196.4910  169.9540  137.2230 C   0  0  0  0  0  2  0  0  0  0  0  0
  195.1160  169.5730  139.2430 N   0  0  0  0  0  0  0  0  0  0  0  0
  196.3060  168.1660  135.6000 C   0  0  0  0  0  3  0  0  0  0  0  0
  197.4820  168.9650  135.0620 C   0  0  0  0  0  1  0  0  0  0  0  0
  195.1600  168.1660  134.5960 C   0  0  0  0  0  1  0  0  0  0  0  0
  189.4350  176.6180  144.7700 C   0  0  0  0  0  2  0  0  0  0  0  0
  189.3340  177.1550  146.1890 C   0  0  0  0  0  2  0  0  0  0  0  0
  187.8730  177.2990  146.5940 C   0  0  0  0  0  2  0  0  0  0  0  0
  185.2240  179.4790  145.0070 C   0  0  2  0  0  3  0  0  0  0  0  0
  186.2190  175.5900  145.3890 F   0  0  0  0  0  0  0  0  0  0  0  0
  185.8630  176.8790  145.0370 C   0  0  2  0  0  0  0  0  0  0  0  0
  185.5810  176.8320  143.6360 O   0  0  0  0  0  0  0  0  0  0  0  0
  187.0310  177.8220  145.4310 C   0  0  1  0  0  3  0  0  0  0  0  0
  183.3560  178.9970  146.5800 C   0  0  0  0  0  1  0  0  0  0  0  0
  185.4820  179.4100  143.5070 C   0  0  0  0  0  2  0  0  0  0  0  0
  184.4750  177.9180  141.8810 C   0  0  0  0  0  1  0  0  0  0  0  0
  185.6460  178.0200  142.8350 C   0  0  2  0  0  0  0  0  0  0  0  0
  186.5130  179.2200  145.7600 C   0  0  0  0  0  2  0  0  0  0  0  0
  184.6870  177.1880  145.7670 O   0  0  0  0  0  0  0  0  0  0  0  0
  184.1590  178.4570  145.4140 C   0  0  2  0  0  3  0  0  0  0  0  0
  188.1640  178.7980  142.4320 C   0  0  0  0  0  1  0  0  0  0  0  0
  186.9290  178.0370  141.9660 C   0  0  0  0  0  0  0  0  0  0  0  0
  186.7900  177.8870  140.4620 C   0  0  0  0  0  2  0  0  0  0  0  0
  187.2930  176.7250  141.3060 C   0  0  0  0  0  2  0  0  0  0  0  0
  1 13  1  0  0  0  0
  3  8  1  6  0  0  0
  4  5  1  0  0  0  0
  6  7  2  0  0  0  0
  6 11  1  0  0  0  0
  7  9  1  0  0  0  0
  9  5  2  0  0  0  0
 10 22  1  0  0  0  0
 11  4  2  0  0  0  0
 12 14  1  0  0  0  0
 12 26  1  0  0  0  0
 13 24  1  0  0  0  0
 15 17  1  0  0  0  0
 17  6  1  0  0  0  0
 18  2  1  0  0  0  0
 18 16  1  0  0  0  0
 19  3  1  0  0  0  0
 19  2  1  0  0  0  0
 20 10  2  0  0  0  0
 20 27  1  0  0  0  0
 21 37  1  6  0  0  0
 21 16  1  0  0  0  0
 22  1  1  0  0  0  0
 22 14  2  0  0  0  0
 23 11  1  0  0  0  0
 23  3  1  0  0  0  0
 24 33  1  6  0  0  0
 24 15  1  0  0  0  0
 25 21  1  0  0  0  0
 26 25  1  0  0  0  0
 27 12  2  0  0  0  0
 28 33  1  0  0  0  0
 29 31  1  0  0  0  0
 29 32  1  0  0  0  0
 30 33  1  0  0  0  0
 31 30  1  0  0  0  0
 32 28  1  0  0  0  0
 34 29  1  0  0  0  0
 35 34  1  0  0  0  0
 36 34  1  0  0  0  0
 37 38  1  0  0  0  0
 38 39  1  0  0  0  0
 40 46  1  6  0  0  0
 40 51  1  0  0  0  0
 40 49  1  0  0  0  0
 42 41  1  1  0  0  0
 42 44  1  0  0  0  0
 42 50  1  0  0  0  0
 43 42  1  0  0  0  0
 44 49  1  0  0  0  0
 44 39  1  1  0  0  0
 48 47  1  6  0  0  0
 48 46  1  0  0  0  0
 48 43  1  0  0  0  0
 51 50  1  0  0  0  0
 51 45  1  1  0  0  0
 53 52  1  0  0  0  0
 53 48  1  0  0  0  0
 54 55  1  0  0  0  0
 54 53  1  0  0  0  0
 55 53  1  0  0  0  0
M  END
>  <MODEL>
7

>  <REMARK>
 VINA RESULT:      -7.1      3.337     11.466
  Name = 
  7 active torsions:
  status: ('A' for Active; 'I' for Inactive)
    1  A    between atoms: C_7  and  C_20
    2  A    between atoms: C_7  and  C_22
    3  A    between atoms: C_8  and  C_22
    4  A    between atoms: C_8  and  C_43
    5  A    between atoms: C_10  and  N_32
    6  A    between atoms: C_12  and  C_38
    7  A    between atoms: C_49  and  N_52
                            x       y       z     vdW  Elec       q    Type
                         _______ _______ _______ _____ _____    ______ ____

>  <TORSDO>
F 7

$$$$
=
 OpenBabel11052419293D

 55 61  0  0  1  0  0  0  0  0999 V2000
  188.5800  173.2210  141.5120 C   0  0  0  0  0  2  0  0  0  0  0  0
  193.9800  172.8240  138.6930 C   0  0  0  0  0  2  0  0  0  0  0  0
  191.5510  172.5740  138.1170 C   0  0  2  0  0  3  0  0  0  0  0  0
  191.2710  174.6410  136.0960 C   0  0  0  0  0  3  0  0  0  0  0  0
  191.1170  175.5790  135.0740 C   0  0  0  0  0  3  0  0  0  0  0  0
  188.9280  174.8860  136.6840 C   0  0  0  0  0  0  0  0  0  0  0  0
  188.7820  175.8030  135.6370 C   0  0  0  0  0  3  0  0  0  0  0  0
  191.2480  171.3700  138.9860 C   0  0  0  0  0  1  0  0  0  0  0  0
  189.8710  176.1520  134.8370 C   0  0  0  0  0  3  0  0  0  0  0  0
  189.1290  172.4670  143.8300 C   0  0  0  0  0  3  0  0  0  0  0  0
  190.1880  174.2750  136.9050 C   0  0  0  0  0  0  0  0  0  0  0  0
  191.7750  171.9260  143.0860 C   0  0  0  0  0  0  0  0  0  0  0  0
  189.0840  174.5290  140.9190 C   0  0  0  0  0  2  0  0  0  0  0  0
  190.8690  172.4200  142.1450 C   0  0  0  0  0  3  0  0  0  0  0  0
  187.8250  174.0140  138.7460 C   0  0  0  0  0  2  0  0  0  0  0  0
  194.4790  170.8300  139.8300 C   0  0  0  0  0  2  0  0  0  0  0  0
  187.7880  174.6000  137.4520 O   0  0  0  0  0  0  0  0  0  0  0  0
  194.3600  172.2750  139.9860 N   0  0  0  0  0  2  0  0  0  0  0  0
  192.5970  173.4540  138.7800 C   0  0  0  0  0  2  0  0  0  0  0  0
  190.0310  171.9580  144.7680 C   0  0  0  0  0  3  0  0  0  0  0  0
  194.5360  170.1200  141.1880 C   0  0  2  0  0  3  0  0  0  0  0  0
  189.5490  172.7010  142.5160 C   0  0  0  0  0  0  0  0  0  0  0  0
  190.3450  173.3080  137.9080 O   0  0  0  0  0  0  0  0  0  0  0  0
  188.2050  175.0690  139.7820 C   0  0  1  0  0  3  0  0  0  0  0  0
  193.2810  170.2690  142.0470 C   0  0  0  0  0  2  0  0  0  0  0  0
  193.1770  171.6520  142.6810 C   0  0  0  0  0  2  0  0  0  0  0  0
  191.3540  171.6860  144.3970 C   0  0  0  0  0  3  0  0  0  0  0  0
  187.0000  177.0970  139.4150 C   0  0  0  0  0  2  0  0  0  0  0  0
  185.0920  177.4320  140.9780 N   0  0  0  0  0  0  0  0  0  0  0  0
  187.1210  176.1870  141.6390 C   0  0  0  0  0  2  0  0  0  0  0  0
  186.0780  177.2340  142.0420 C   0  0  0  0  0  2  0  0  0  0  0  0
  185.7650  177.9350  139.7700 C   0  0  0  0  0  2  0  0  0  0  0  0
  187.0450  175.8640  140.2080 N   0  0  0  0  0  0  0  0  0  0  0  0
  184.0710  178.3740  141.4460 C   0  0  0  0  0  3  0  0  0  0  0  0
  184.0300  178.4260  142.9650 C   0  0  0  0  0  1  0  0  0  0  0  0
  182.6810  178.1000  140.8860 C   0  0  0  0  0  1  0  0  0  0  0  0
  195.8670  170.2390  141.9320 C   0  0  0  0  0  2  0  0  0  0  0  0
  196.2920  171.6750  142.1990 C   0  0  0  0  0  2  0  0  0  0  0  0
  196.0750  172.0240  143.6650 C   0  0  0  0  0  2  0  0  0  0  0  0
  195.5620  175.6180  142.6120 C   0  0  2  0  0  3  0  0  0  0  0  0
  196.9030  173.4690  145.7490 F   0  0  0  0  0  0  0  0  0  0  0  0
  196.3150  174.3140  144.8240 C   0  0  2  0  0  0  0  0  0  0  0  0
  195.5150  175.2210  145.5870 O   0  0  0  0  0  0  0  0  0  0  0  0
  195.5220  173.4410  143.8150 C   0  0  1  0  0  3  0  0  0  0  0  0
  197.9410  176.2310  142.2100 C   0  0  0  0  0  1  0  0  0  0  0  0
  194.3910  176.1250  143.4440 C   0  0  0  0  0  2  0  0  0  0  0  0
  194.4600  177.3110  145.5580 C   0  0  0  0  0  1  0  0  0  0  0  0
  194.4130  175.9120  144.9820 C   0  0  2  0  0  0  0  0  0  0  0  0
  195.4590  174.1150  142.4470 C   0  0  0  0  0  2  0  0  0  0  0  0
  197.3710  175.0080  144.1810 O   0  0  0  0  0  0  0  0  0  0  0  0
  196.8900  175.9880  143.2760 C   0  0  2  0  0  3  0  0  0  0  0  0
  193.0170  174.2130  146.4890 C   0  0  0  0  0  1  0  0  0  0  0  0
  193.0600  175.2940  145.4170 C   0  0  0  0  0  0  0  0  0  0  0  0
  191.9230  175.2570  144.4130 C   0  0  0  0  0  2  0  0  0  0  0  0
  191.9080  176.2660  145.5530 C   0  0  0  0  0  2  0  0  0  0  0  0
  1 22  1  0  0  0  0
  2 19  1  0  0  0  0
  2 18  1  0  0  0  0
  3 19  1  0  0  0  0
  3  8  1  1  0  0  0
  4 11  1  0  0  0  0
  5  4  2  0  0  0  0
  6 11  2  0  0  0  0
  6 17  1  0  0  0  0
  7  6  1  0  0  0  0
  9  5  1  0  0  0  0
  9  7  2  0  0  0  0
 10 20  1  0  0  0  0
 11 23  1  0  0  0  0
 12 27  1  0  0  0  0
 13  1  1  0  0  0  0
 14 22  1  0  0  0  0
 14 12  2  0  0  0  0
 16 18  1  0  0  0  0
 16 21  1  0  0  0  0
 17 15  1  0  0  0  0
 21 37  1  1  0  0  0
 21 25  1  0  0  0  0
 22 10  2  0  0  0  0
 23  3  1  0  0  0  0
 24 15  1  1  0  0  0
 24 33  1  0  0  0  0
 24 13  1  0  0  0  0
 25 26  1  0  0  0  0
 26 12  1  0  0  0  0
 27 20  2  0  0  0  0
 28 32  1  0  0  0  0
 28 33  1  0  0  0  0
 29 34  1  0  0  0  0
 29 31  1  0  0  0  0
 30 31  1  0  0  0  0
 32 29  1  0  0  0  0
 33 30  1  0  0  0  0
 34 35  1  0  0  0  0
 36 34  1  0  0  0  0
 37 38  1  0  0  0  0
 38 39  1  0  0  0  0
 40 49  1  1  0  0  0
 40 51  1  0  0  0  0
 40 46  1  0  0  0  0
 42 43  1  0  0  0  0
 42 41  1  1  0  0  0
 44 39  1  6  0  0  0
 44 42  1  0  0  0  0
 46 48  1  0  0  0  0
 48 53  1  0  0  0  0
 48 47  1  1  0  0  0
 48 43  1  0  0  0  0
 49 44  1  0  0  0  0
 50 42  1  0  0  0  0
 51 45  1  6  0  0  0
 51 50  1  0  0  0  0
 53 55  1  0  0  0  0
 53 52  1  0  0  0  0
 54 53  1  0  0  0  0
 54 55  1  0  0  0  0
M  END
>  <MODEL>
8

>  <REMARK>
 VINA RESULT:      -6.8      2.911      6.263
  Name = 
  7 active torsions:
  status: ('A' for Active; 'I' for Inactive)
    1  A    between atoms: C_7  and  C_20
    2  A    between atoms: C_7  and  C_22
    3  A    between atoms: C_8  and  C_22
    4  A    between atoms: C_8  and  C_43
    5  A    between atoms: C_10  and  N_32
    6  A    between atoms: C_12  and  C_38
    7  A    between atoms: C_49  and  N_52
                            x       y       z     vdW  Elec       q    Type
                         _______ _______ _______ _____ _____    ______ ____

>  <TORSDO>
F 7

$$$$
=
 OpenBabel11052419293D

 55 61  0  0  1  0  0  0  0  0999 V2000
  192.5440  171.3210  141.6510 C   0  0  0  0  0  2  0  0  0  0  0  0
  194.1790  176.7860  143.8230 C   0  0  0  0  0  2  0  0  0  0  0  0
  195.2940  174.6970  142.9940 C   0  0  2  0  0  3  0  0  0  0  0  0
  196.7980  175.7560  140.7460 C   0  0  0  0  0  3  0  0  0  0  0  0
  197.5860  176.2420  139.7020 C   0  0  0  0  0  3  0  0  0  0  0  0
  196.6760  173.5900  139.6560 C   0  0  0  0  0  0  0  0  0  0  0  0
  197.4900  174.0830  138.6300 C   0  0  0  0  0  3  0  0  0  0  0  0
  194.8080  173.7520  144.0760 C   0  0  0  0  0  1  0  0  0  0  0  0
  197.9410  175.4040  138.6500 C   0  0  0  0  0  3  0  0  0  0  0  0
  190.3980  170.8850  142.8560 C   0  0  0  0  0  3  0  0  0  0  0  0
  196.3410  174.4320  140.7460 C   0  0  0  0  0  0  0  0  0  0  0  0
  190.6740  173.2590  144.3160 C   0  0  0  0  0  0  0  0  0  0  0  0
  192.7000  172.4030  140.5920 C   0  0  0  0  0  2  0  0  0  0  0  0
  191.6450  172.8950  143.3810 C   0  0  0  0  0  3  0  0  0  0  0  0
  195.1480  171.7130  140.2690 C   0  0  0  0  0  2  0  0  0  0  0  0
  193.4520  176.1990  145.9770 C   0  0  0  0  0  2  0  0  0  0  0  0
  196.2510  172.2550  139.5550 O   0  0  0  0  0  0  0  0  0  0  0  0
  192.9960  176.5630  144.6410 N   0  0  0  0  0  2  0  0  0  0  0  0
  194.2420  175.7540  142.7050 C   0  0  0  0  0  2  0  0  0  0  0  0
  189.4350  171.2410  143.8020 C   0  0  0  0  0  3  0  0  0  0  0  0
  192.3130  175.6130  146.8200 C   0  0  2  0  0  3  0  0  0  0  0  0
  191.5050  171.7140  142.6430 C   0  0  0  0  0  0  0  0  0  0  0  0
  195.5770  173.9430  141.8160 O   0  0  0  0  0  0  0  0  0  0  0  0
  193.8420  172.1340  139.6000 C   0  0  1  0  0  3  0  0  0  0  0  0
  191.7250  174.3040  146.2910 C   0  0  0  0  0  2  0  0  0  0  0  0
  190.8270  174.5250  145.0780 C   0  0  0  0  0  2  0  0  0  0  0  0
  189.5710  172.4270  144.5340 C   0  0  0  0  0  3  0  0  0  0  0  0
  192.3200  171.8150  137.7900 C   0  0  0  0  0  2  0  0  0  0  0  0
  192.7030  169.7160  136.5090 N   0  0  0  0  0  0  0  0  0  0  0  0
  193.2240  169.8920  138.9180 C   0  0  0  0  0  2  0  0  0  0  0  0
  192.6020  169.0420  137.8050 C   0  0  0  0  0  2  0  0  0  0  0  0
  191.9570  170.9830  136.5530 C   0  0  0  0  0  2  0  0  0  0  0  0
  193.4970  171.2630  138.4680 N   0  0  0  0  0  0  0  0  0  0  0  0
  192.1750  168.8270  135.4700 C   0  0  0  0  0  3  0  0  0  0  0  0
  193.3020  168.1660  134.6920 C   0  0  0  0  0  1  0  0  0  0  0  0
  191.2000  169.5080  134.5180 C   0  0  0  0  0  1  0  0  0  0  0  0
  191.2980  176.6300  147.3460 C   0  0  0  0  0  2  0  0  0  0  0  0
  189.9350  176.5340  146.6770 C   0  0  0  0  0  2  0  0  0  0  0  0
  189.8110  177.5840  145.5820 C   0  0  0  0  0  2  0  0  0  0  0  0
  187.4090  175.5900  143.4500 C   0  0  2  0  0  3  0  0  0  0  0  0
  189.5030  179.0340  143.3650 F   0  0  0  0  0  0  0  0  0  0  0  0
  188.6070  177.9800  143.3370 C   0  0  2  0  0  0  0  0  0  0  0  0
  187.3780  178.5330  142.8610 O   0  0  0  0  0  0  0  0  0  0  0  0
  188.5360  177.3760  144.7650 C   0  0  1  0  0  3  0  0  0  0  0  0
  189.0280  174.7420  141.7600 C   0  0  0  0  0  1  0  0  0  0  0  0
  186.1010  176.3710  143.4670 C   0  0  0  0  0  2  0  0  0  0  0  0
  185.3200  178.0180  141.8690 C   0  0  0  0  0  1  0  0  0  0  0  0
  186.1270  177.8890  143.1420 C   0  0  2  0  0  0  0  0  0  0  0  0
  188.2000  175.8880  144.7080 C   0  0  0  0  0  2  0  0  0  0  0  0
  189.1180  177.0400  142.4080 O   0  0  0  0  0  0  0  0  0  0  0  0
  188.2310  175.9500  142.2110 C   0  0  2  0  0  3  0  0  0  0  0  0
  185.2930  178.0980  145.6660 C   0  0  0  0  0  1  0  0  0  0  0  0
  185.3450  178.6470  144.2460 C   0  0  0  0  0  0  0  0  0  0  0  0
  184.1610  179.5030  143.8380 C   0  0  0  0  0  2  0  0  0  0  0  0
  185.4810  180.1530  144.2290 C   0  0  0  0  0  2  0  0  0  0  0  0
  1 22  1  0  0  0  0
  2 18  1  0  0  0  0
  3  8  1  1  0  0  0
  4 11  1  0  0  0  0
  5  4  2  0  0  0  0
  6 11  2  0  0  0  0
  7  9  2  0  0  0  0
  7  6  1  0  0  0  0
  9  5  1  0  0  0  0
 10 20  1  0  0  0  0
 11 23  1  0  0  0  0
 12 27  1  0  0  0  0
 12 26  1  0  0  0  0
 13  1  1  0  0  0  0
 14 12  2  0  0  0  0
 16 21  1  0  0  0  0
 17  6  1  0  0  0  0
 17 15  1  0  0  0  0
 18 16  1  0  0  0  0
 19  3  1  0  0  0  0
 19  2  1  0  0  0  0
 20 27  2  0  0  0  0
 21 37  1  6  0  0  0
 22 10  2  0  0  0  0
 22 14  1  0  0  0  0
 23  3  1  0  0  0  0
 24 33  1  6  0  0  0
 24 15  1  0  0  0  0
 24 13  1  0  0  0  0
 25 21  1  0  0  0  0
 26 25  1  0  0  0  0
 28 33  1  0  0  0  0
 29 32  1  0  0  0  0
 29 31  1  0  0  0  0
 31 30  1  0  0  0  0
 32 28  1  0  0  0  0
 33 30  1  0  0  0  0
 34 29  1  0  0  0  0
 35 34  1  0  0  0  0
 36 34  1  0  0  0  0
 38 37  1  0  0  0  0
 39 38  1  0  0  0  0
 40 46  1  1  0  0  0
 40 49  1  0  0  0  0
 42 41  1  1  0  0  0
 42 44  1  0  0  0  0
 43 48  1  0  0  0  0
 43 42  1  0  0  0  0
 44 39  1  6  0  0  0
 48 47  1  6  0  0  0
 48 46  1  0  0  0  0
 48 53  1  0  0  0  0
 49 44  1  0  0  0  0
 50 42  1  0  0  0  0
 51 45  1  1  0  0  0
 51 50  1  0  0  0  0
 51 40  1  0  0  0  0
 53 52  1  0  0  0  0
 54 55  1  0  0  0  0
 54 53  1  0  0  0  0
 55 53  1  0  0  0  0
M  END
>  <MODEL>
9

>  <REMARK>
 VINA RESULT:      -6.7      3.593     10.517
  Name = 
  7 active torsions:
  status: ('A' for Active; 'I' for Inactive)
    1  A    between atoms: C_7  and  C_20
    2  A    between atoms: C_7  and  C_22
    3  A    between atoms: C_8  and  C_22
    4  A    between atoms: C_8  and  C_43
    5  A    between atoms: C_10  and  N_32
    6  A    between atoms: C_12  and  C_38
    7  A    between atoms: C_49  and  N_52
                            x       y       z     vdW  Elec       q    Type
                         _______ _______ _______ _____ _____    ______ ____

>  <TORSDO>
F 7

$$$$
