=
 OpenBabel11052419263D

 55 59  0  0  1  0  0  0  0  0999 V2000
  190.7110  172.5960  142.7240 C   0  0  1  0  0  3  0  0  0  0  0  0
  191.4970  172.5610  144.0330 C   0  0  0  0  0  2  0  0  0  0  0  0
  192.9820  172.7330  143.7740 C   0  0  0  0  0  2  0  0  0  0  0  0
  195.5060  169.4380  144.9840 C   0  0  0  0  0  2  0  0  0  0  0  0
  193.7420  171.6080  144.3930 C   0  0  0  0  0  0  0  0  0  0  0  0
  195.0960  171.9050  144.9920 C   0  0  0  0  0  2  0  0  0  0  0  0
  194.0150  169.1630  144.8210 C   0  0  0  0  0  2  0  0  0  0  0  0
  195.6830  170.7290  145.7740 C   0  0  2  0  0  3  0  0  0  0  0  0
  193.2960  170.3510  144.2380 C   0  0  0  0  0  3  0  0  0  0  0  0
  197.5820  169.7560  146.0150 O   0  0  0  0  0  1  0  0  0  0  0  0
  197.0390  170.9550  146.0090 O   0  0  0  0  0  0  0  0  0  0  0  0
  191.3030  173.4920  141.8270 O   0  0  0  0  0  0  0  0  0  0  0  0
  190.6210  174.7020  141.9950 C   0  0  0  0  0  2  0  0  0  0  0  0
  189.1160  174.4650  142.0610 C   0  0  0  0  0  2  0  0  0  0  0  0
  188.4200  174.9460  140.7990 C   0  0  0  0  0  2  0  0  0  0  0  0
  187.9640  176.2520  140.9850 O   0  0  0  0  0  0  0  0  0  0  0  0
  187.3100  176.2320  142.2140 C   0  0  0  0  0  2  0  0  0  0  0  0
  184.6220  179.2020  144.5310 C   0  0  0  0  0  2  0  0  0  0  0  0
  184.0020  178.9450  145.9080 C   0  0  0  0  0  2  0  0  0  0  0  0
  185.2830  176.8110  144.4880 O   0  0  0  0  0  0  0  0  0  0  0  0
  186.3080  177.9370  146.4320 C   0  0  0  0  0  2  0  0  0  0  0  0
  184.8360  178.0410  146.8350 C   0  0  0  0  0  2  0  0  0  0  0  0
  184.8450  177.9210  143.7130 C   0  0  2  0  0  3  0  0  0  0  0  0
  187.5710  177.7360  144.2480 C   0  0  2  0  0  3  0  0  0  0  0  0
  186.5070  177.0970  145.1600 C   0  0  2  0  0  3  0  0  0  0  0  0
  185.7880  178.1960  142.5310 C   0  0  0  0  0  2  0  0  0  0  0  0
  187.2040  177.6530  142.7590 C   0  0  2  0  0  3  0  0  0  0  0  0
  189.1570  176.2040  145.4290 C   0  0  0  0  0  3  0  0  0  0  0  0
  191.5650  176.4220  145.2060 C   0  0  0  0  0  0  0  0  0  0  0  0
  190.0850  177.9380  144.0170 C   0  0  0  0  0  3  0  0  0  0  0  0
  191.3780  177.5100  144.3390 C   0  0  0  0  0  3  0  0  0  0  0  0
  190.4500  175.7740  145.7500 C   0  0  0  0  0  3  0  0  0  0  0  0
  188.9690  177.2830  144.5600 C   0  0  0  0  0  0  0  0  0  0  0  0
  192.9350  175.9540  145.5770 C   0  0  1  0  0  3  0  0  0  0  0  0
  193.9440  176.3100  144.5030 C   0  0  0  0  0  1  0  0  0  0  0  0
  193.3410  176.5330  146.8470 N   0  0  0  0  0  1  0  0  0  0  0  0
  190.5970  171.2050  142.0770 C   0  0  0  0  0  2  0  0  0  0  0  0
  191.2450  171.0240  140.6880 C   0  0  1  0  0  3  0  0  0  0  0  0
  193.6250  170.2350  140.6050 C   0  0  0  0  0  3  0  0  0  0  0  0
  192.3150  169.9690  140.6790 C   0  0  0  0  0  3  0  0  0  0  0  0
  194.1820  171.6250  140.5630 C   0  0  2  0  0  3  0  0  0  0  0  0
  194.1000  172.1780  139.1740 C   0  0  0  0  0  0  0  0  0  0  0  0
  193.4360  173.3770  138.9550 O   0  0  0  0  0  1  0  0  0  0  0  0
  194.6360  171.5740  138.2040 O   0  0  0  0  0  0  0  0  0  0  0  0
  195.6200  171.6150  141.0740 C   0  0  0  0  0  2  0  0  0  0  0  0
  196.2620  172.8920  140.8150 N   0  0  0  0  0  0  0  0  0  0  0  0
  197.1550  173.1530  141.9160 C   0  0  1  0  0  3  0  0  0  0  0  0
  197.6210  172.6370  140.7510 O   0  0  0  0  0  0  0  0  0  0  0  0
  197.4700  174.5390  141.9670 O   0  0  0  0  0  0  0  0  0  0  0  0
  197.3650  175.2980  143.1360 C   0  0  0  0  0  0  0  0  0  0  0  0
  197.3360  174.6800  144.3060 C   0  0  0  0  0  2  0  0  0  0  0  0
  197.2970  176.7870  143.1040 C   0  0  0  0  0  1  0  0  0  0  0  0
  190.1990  170.7470  139.6130 C   0  0  0  0  0  2  0  0  0  0  0  0
  190.8540  170.4740  138.3020 C   0  0  0  0  0  3  0  0  0  0  0  0
  190.1930  169.8180  137.3540 C   0  0  0  0  0  2  0  0  0  0  0  0
  1 37  1  6  0  0  0
  1  2  1  0  0  0  0
  3  2  1  0  0  0  0
  3  5  1  0  0  0  0
  4  8  1  0  0  0  0
  5  6  1  0  0  0  0
  6  8  1  0  0  0  0
  7  4  1  0  0  0  0
  8 11  1  6  0  0  0
  9  5  2  0  0  0  0
  9  7  1  0  0  0  0
 11 10  1  0  0  0  0
 12 13  1  0  0  0  0
 12  1  1  0  0  0  0
 13 14  1  0  0  0  0
 15 16  1  0  0  0  0
 15 14  1  0  0  0  0
 16 17  1  0  0  0  0
 18 19  1  0  0  0  0
 19 22  1  0  0  0  0
 20 25  1  0  0  0  0
 21 22  1  0  0  0  0
 23 26  1  6  0  0  0
 23 20  1  0  0  0  0
 23 18  1  0  0  0  0
 24 33  1  6  0  0  0
 24 25  1  0  0  0  0
 25 21  1  1  0  0  0
 26 27  1  0  0  0  0
 27 17  1  1  0  0  0
 27 24  1  0  0  0  0
 28 32  1  0  0  0  0
 29 34  1  0  0  0  0
 29 32  2  0  0  0  0
 30 31  2  0  0  0  0
 30 33  1  0  0  0  0
 31 29  1  0  0  0  0
 33 28  2  0  0  0  0
 34 35  1  6  0  0  0
 34 36  1  0  0  0  0
 38 53  1  6  0  0  0
 38 37  1  0  0  0  0
 39 40  2  0  0  0  0
 40 38  1  0  0  0  0
 41 39  1  6  0  0  0
 41 45  1  0  0  0  0
 42 41  1  0  0  0  0
 43 42  1  0  0  0  0
 44 42  2  0  0  0  0
 46 45  1  0  0  0  0
 46 47  1  0  0  0  0
 47 49  1  6  0  0  0
 48 46  1  0  0  0  0
 48 47  1  0  0  0  0
 49 50  1  0  0  0  0
 50 51  2  0  0  0  0
 52 50  1  0  0  0  0
 54 53  1  0  0  0  0
 55 54  2  0  0  0  0
M  END
>  <MODEL>
1

>  <REMARK>
 VINA RESULT:      -5.9      0.000      0.000
  Name = 
  24 active torsions:
  status: ('A' for Active; 'I' for Inactive)
    1  A    between atoms: C_1  and  C_53
    2  A    between atoms: N_3  and  C_38
    3  A    between atoms: C_4  and  O_35
    4  A    between atoms: C_4  and  C_37
    5  A    between atoms: C_5  and  C_37
    6  A    between atoms: C_5  and  O_40
    7  A    between atoms: C_6  and  C_53
    8  A    between atoms: C_7  and  C_20
    9  A    between atoms: C_8  and  C_22
   10  A    between atoms: C_8  and  C_43
   11  A    between atoms: C_10  and  C_32
   12  A    between atoms: C_11  and  O_50
   13  A    between atoms: C_12  and  O_50
   14  A    between atoms: C_19  and  O_40
   15  A    between atoms: C_19  and  C_49
   16  A    between atoms: C_20  and  C_22
   17  A    between atoms: C_22  and  C_46
   18  A    between atoms: C_27  and  C_54
   19  A    between atoms: O_28  and  C_44
   20  A    between atoms: C_33  and  C_52
   21  A    between atoms: O_35  and  C_43
   22  A    between atoms: C_38  and  C_53
   23  A    between atoms: C_43  and  C_51
   24  A    between atoms: C_51  and  C_54
                            x       y       z     vdW  Elec       q    Type
                         _______ _______ _______ _____ _____    ______ ____

>  <TORSDO>
F 24

$$$$
=
 OpenBabel11052419263D

 55 59  0  0  1  0  0  0  0  0999 V2000
  189.8020  173.5910  141.4220 C   0  0  1  0  0  3  0  0  0  0  0  0
  188.3450  174.0370  141.3140 C   0  0  0  0  0  2  0  0  0  0  0  0
  187.9930  175.0010  142.4320 C   0  0  0  0  0  2  0  0  0  0  0  0
  185.5130  178.1110  140.7390 C   0  0  0  0  0  2  0  0  0  0  0  0
  187.3220  176.2100  141.8710 C   0  0  0  0  0  0  0  0  0  0  0  0
  186.4540  177.0360  142.7910 C   0  0  0  0  0  2  0  0  0  0  0  0
  186.6870  177.6130  139.9050 C   0  0  0  0  0  2  0  0  0  0  0  0
  185.9910  178.3530  142.1660 C   0  0  2  0  0  3  0  0  0  0  0  0
  187.3530  176.4230  140.5460 C   0  0  0  0  0  3  0  0  0  0  0  0
  183.9620  178.0340  142.7920 O   0  0  0  0  0  1  0  0  0  0  0  0
  184.9530  178.8910  142.9260 O   0  0  0  0  0  0  0  0  0  0  0  0
  190.2480  173.0890  140.1950 O   0  0  0  0  0  0  0  0  0  0  0  0
  191.0150  171.9610  140.5030 C   0  0  0  0  0  2  0  0  0  0  0  0
  192.3710  172.0270  139.8070 C   0  0  0  0  0  2  0  0  0  0  0  0
  192.2710  171.6040  138.3520 C   0  0  0  0  0  2  0  0  0  0  0  0
  193.2250  172.2910  137.5990 O   0  0  0  0  0  0  0  0  0  0  0  0
  194.0820  172.8600  138.5370 C   0  0  0  0  0  2  0  0  0  0  0  0
  197.2890  173.3850  135.2450 C   0  0  0  0  0  2  0  0  0  0  0  0
  197.6980  174.7200  134.6140 C   0  0  0  0  0  2  0  0  0  0  0  0
  195.4070  174.5840  136.3280 O   0  0  0  0  0  0  0  0  0  0  0  0
  197.5570  175.5720  137.0350 C   0  0  0  0  0  2  0  0  0  0  0  0
  197.5940  175.9380  135.5490 C   0  0  0  0  0  2  0  0  0  0  0  0
  195.8340  173.3630  135.7360 C   0  0  2  0  0  3  0  0  0  0  0  0
  196.4550  173.7640  138.4210 C   0  0  2  0  0  3  0  0  0  0  0  0
  196.2210  174.9330  137.4450 C   0  0  2  0  0  3  0  0  0  0  0  0
  195.6020  172.1670  136.6710 C   0  0  0  0  0  2  0  0  0  0  0  0
  195.5280  172.5710  138.1500 C   0  0  2  0  0  3  0  0  0  0  0  0
  195.9770  175.4410  140.2150 C   0  0  0  0  0  3  0  0  0  0  0  0
  196.5880  175.0550  142.5320 C   0  0  0  0  0  0  0  0  0  0  0  0
  197.0710  173.3750  140.8460 C   0  0  0  0  0  3  0  0  0  0  0  0
  197.1170  173.8050  142.1770 C   0  0  0  0  0  3  0  0  0  0  0  0
  196.0200  175.8700  141.5460 C   0  0  0  0  0  3  0  0  0  0  0  0
  196.4970  174.1920  139.8600 C   0  0  0  0  0  0  0  0  0  0  0  0
  196.6360  175.5440  143.9440 C   0  0  1  0  0  3  0  0  0  0  0  0
  195.4810  176.4820  144.2380 C   0  0  0  0  0  1  0  0  0  0  0  0
  196.6090  174.4230  144.8700 N   0  0  0  0  0  1  0  0  0  0  0  0
  190.7250  174.7300  141.8900 C   0  0  0  0  0  2  0  0  0  0  0  0
  191.5370  174.4870  143.1800 C   0  0  1  0  0  3  0  0  0  0  0  0
  190.4470  173.6310  145.2710 C   0  0  0  0  0  3  0  0  0  0  0  0
  190.9420  173.4130  144.0470 C   0  0  0  0  0  3  0  0  0  0  0  0
  190.3910  174.9850  145.9070 C   0  0  2  0  0  3  0  0  0  0  0  0
  191.5280  175.1590  146.8670 C   0  0  0  0  0  0  0  0  0  0  0  0
  191.2590  175.3850  148.2100 O   0  0  0  0  0  1  0  0  0  0  0  0
  192.7250  175.0920  146.4720 O   0  0  0  0  0  0  0  0  0  0  0  0
  189.0440  175.1680  146.6030 C   0  0  0  0  0  2  0  0  0  0  0  0
  188.2160  176.1100  145.8700 N   0  0  0  0  0  0  0  0  0  0  0  0
  187.3240  176.7260  146.8210 C   0  0  1  0  0  3  0  0  0  0  0  0
  188.4600  177.3540  146.4250 O   0  0  0  0  0  0  0  0  0  0  0  0
  186.2150  177.3020  146.1440 O   0  0  0  0  0  0  0  0  0  0  0  0
  185.4240  178.3100  146.7030 C   0  0  0  0  0  0  0  0  0  0  0  0
  184.1580  178.4160  146.3330 C   0  0  0  0  0  2  0  0  0  0  0  0
  185.9650  179.2640  147.7140 C   0  0  0  0  0  1  0  0  0  0  0  0
  193.0010  174.1910  142.8740 C   0  0  0  0  0  2  0  0  0  0  0  0
  193.4720  173.0140  143.6570 C   0  0  0  0  0  3  0  0  0  0  0  0
  194.1220  172.0280  143.0470 C   0  0  0  0  0  2  0  0  0  0  0  0
  1  2  1  6  0  0  0
  1 37  1  0  0  0  0
  2  3  1  0  0  0  0
  4  8  1  0  0  0  0
  5  3  1  0  0  0  0
  5  6  1  0  0  0  0
  7  9  1  0  0  0  0
  7  4  1  0  0  0  0
  8  6  1  0  0  0  0
  8 11  1  1  0  0  0
  9  5  2  0  0  0  0
 10 11  1  0  0  0  0
 12 13  1  0  0  0  0
 12  1  1  0  0  0  0
 14 13  1  0  0  0  0
 15 14  1  0  0  0  0
 16 15  1  0  0  0  0
 16 17  1  0  0  0  0
 19 18  1  0  0  0  0
 19 22  1  0  0  0  0
 20 25  1  0  0  0  0
 22 21  1  0  0  0  0
 23 18  1  1  0  0  0
 23 20  1  0  0  0  0
 23 26  1  0  0  0  0
 24 33  1  1  0  0  0
 25 21  1  6  0  0  0
 25 24  1  0  0  0  0
 26 27  1  0  0  0  0
 27 24  1  0  0  0  0
 27 17  1  6  0  0  0
 28 32  1  0  0  0  0
 29 34  1  0  0  0  0
 30 31  2  0  0  0  0
 31 29  1  0  0  0  0
 32 29  2  0  0  0  0
 33 28  2  0  0  0  0
 33 30  1  0  0  0  0
 34 35  1  1  0  0  0
 34 36  1  0  0  0  0
 38 37  1  6  0  0  0
 38 40  1  0  0  0  0
 40 39  2  0  0  0  0
 41 39  1  1  0  0  0
 41 45  1  0  0  0  0
 41 42  1  0  0  0  0
 42 43  1  0  0  0  0
 44 42  2  0  0  0  0
 46 48  1  0  0  0  0
 46 45  1  0  0  0  0
 46 47  1  0  0  0  0
 47 49  1  6  0  0  0
 48 47  1  0  0  0  0
 49 50  1  0  0  0  0
 50 52  1  0  0  0  0
 51 50  2  0  0  0  0
 53 38  1  0  0  0  0
 53 54  1  0  0  0  0
 55 54  2  0  0  0  0
M  END
>  <MODEL>
2

>  <REMARK>
 VINA RESULT:      -5.7      2.805     10.132
  Name = 
  24 active torsions:
  status: ('A' for Active; 'I' for Inactive)
    1  A    between atoms: C_1  and  C_53
    2  A    between atoms: N_3  and  C_38
    3  A    between atoms: C_4  and  O_35
    4  A    between atoms: C_4  and  C_37
    5  A    between atoms: C_5  and  C_37
    6  A    between atoms: C_5  and  O_40
    7  A    between atoms: C_6  and  C_53
    8  A    between atoms: C_7  and  C_20
    9  A    between atoms: C_8  and  C_22
   10  A    between atoms: C_8  and  C_43
   11  A    between atoms: C_10  and  C_32
   12  A    between atoms: C_11  and  O_50
   13  A    between atoms: C_12  and  O_50
   14  A    between atoms: C_19  and  O_40
   15  A    between atoms: C_19  and  C_49
   16  A    between atoms: C_20  and  C_22
   17  A    between atoms: C_22  and  C_46
   18  A    between atoms: C_27  and  C_54
   19  A    between atoms: O_28  and  C_44
   20  A    between atoms: C_33  and  C_52
   21  A    between atoms: O_35  and  C_43
   22  A    between atoms: C_38  and  C_53
   23  A    between atoms: C_43  and  C_51
   24  A    between atoms: C_51  and  C_54
                            x       y       z     vdW  Elec       q    Type
                         _______ _______ _______ _____ _____    ______ ____

>  <TORSDO>
F 24

$$$$
=
 OpenBabel11052419263D

 55 59  0  0  1  0  0  0  0  0999 V2000
  190.4580  175.2480  144.6860 C   0  0  1  0  0  3  0  0  0  0  0  0
  190.8570  173.8010  144.4070 C   0  0  0  0  0  2  0  0  0  0  0  0
  191.9810  173.7390  143.3890 C   0  0  0  0  0  2  0  0  0  0  0  0
  191.7640  170.6260  140.3980 C   0  0  0  0  0  2  0  0  0  0  0  0
  191.6790  172.7040  142.3580 C   0  0  0  0  0  0  0  0  0  0  0  0
  191.5470  171.2670  142.8050 C   0  0  0  0  0  2  0  0  0  0  0  0
  191.4380  172.0490  139.9600 C   0  0  0  0  0  2  0  0  0  0  0  0
  191.0360  170.3350  141.7050 C   0  0  2  0  0  3  0  0  0  0  0  0
  191.7180  173.0410  141.0590 C   0  0  0  0  0  3  0  0  0  0  0  0
  192.5030  168.7680  141.7500 O   0  0  0  0  0  1  0  0  0  0  0  0
  191.2510  169.0090  142.0790 O   0  0  0  0  0  0  0  0  0  0  0  0
  191.2630  175.7880  145.6960 O   0  0  0  0  0  0  0  0  0  0  0  0
  191.9020  176.8910  145.1220 C   0  0  0  0  0  2  0  0  0  0  0  0
  193.4140  176.7850  145.2960 C   0  0  0  0  0  2  0  0  0  0  0  0
  193.7840  175.7350  146.3290 C   0  0  0  0  0  2  0  0  0  0  0  0
  195.0780  175.2720  146.0830 O   0  0  0  0  0  0  0  0  0  0  0  0
  195.1000  174.9780  144.7220 C   0  0  0  0  0  2  0  0  0  0  0  0
  197.0430  170.8900  145.6820 C   0  0  0  0  0  2  0  0  0  0  0  0
  196.3390  169.5330  145.5900 C   0  0  0  0  0  2  0  0  0  0  0  0
  194.8270  171.9550  145.3520 O   0  0  0  0  0  0  0  0  0  0  0  0
  195.3680  170.5140  143.4220 C   0  0  0  0  0  2  0  0  0  0  0  0
  195.2500  169.4400  144.5060 C   0  0  0  0  0  2  0  0  0  0  0  0
  196.0900  172.0530  145.9990 C   0  0  2  0  0  3  0  0  0  0  0  0
  195.9240  172.9820  143.3790 C   0  0  2  0  0  3  0  0  0  0  0  0
  194.9710  171.9070  143.9350 C   0  0  2  0  0  3  0  0  0  0  0  0
  196.7730  173.3990  145.7130 C   0  0  0  0  0  2  0  0  0  0  0  0
  196.2770  174.0560  144.4180 C   0  0  2  0  0  3  0  0  0  0  0  0
  195.5280  172.7090  140.9250 C   0  0  0  0  0  3  0  0  0  0  0  0
  194.7170  174.5320  139.5420 C   0  0  0  0  0  0  0  0  0  0  0  0
  195.0650  174.8670  141.9220 C   0  0  0  0  0  3  0  0  0  0  0  0
  194.6830  175.3640  140.6710 C   0  0  0  0  0  3  0  0  0  0  0  0
  195.1430  173.2060  139.6740 C   0  0  0  0  0  3  0  0  0  0  0  0
  195.4870  173.5340  142.0530 C   0  0  0  0  0  0  0  0  0  0  0  0
  194.3270  175.0420  138.1920 C   0  0  1  0  0  3  0  0  0  0  0  0
  195.2240  174.4690  137.1110 C   0  0  0  0  0  1  0  0  0  0  0  0
  192.9400  174.7130  137.9070 N   0  0  0  0  0  1  0  0  0  0  0  0
  190.5390  176.1260  143.4250 C   0  0  0  0  0  2  0  0  0  0  0  0
  189.2130  176.4250  142.6940 C   0  0  1  0  0  3  0  0  0  0  0  0
  188.0490  178.4350  141.7470 C   0  0  0  0  0  3  0  0  0  0  0  0
  189.1750  177.8050  142.1000 C   0  0  0  0  0  3  0  0  0  0  0  0
  186.6830  177.8500  141.9390 C   0  0  2  0  0  3  0  0  0  0  0  0
  185.9990  177.6770  140.6180 C   0  0  0  0  0  0  0  0  0  0  0  0
  184.6700  178.0530  140.4840 O   0  0  0  0  0  1  0  0  0  0  0  0
  186.6180  177.2040  139.6250 O   0  0  0  0  0  0  0  0  0  0  0  0
  185.8710  178.7430  142.8730 C   0  0  0  0  0  2  0  0  0  0  0  0
  185.3440  177.9720  143.9860 N   0  0  0  0  0  0  0  0  0  0  0  0
  185.2090  178.8730  145.1040 C   0  0  1  0  0  3  0  0  0  0  0  0
  184.1400  178.5600  144.3290 O   0  0  0  0  0  0  0  0  0  0  0  0
  185.1340  178.1330  146.3160 O   0  0  0  0  0  0  0  0  0  0  0  0
  186.2460  177.8950  147.1290 C   0  0  0  0  0  0  0  0  0  0  0  0
  186.5520  178.7700  148.0740 C   0  0  0  0  0  2  0  0  0  0  0  0
  187.0920  176.6780  146.9690 C   0  0  0  0  0  1  0  0  0  0  0  0
  188.9060  175.3700  141.6370 C   0  0  0  0  0  2  0  0  0  0  0  0
  187.9210  174.3790  142.1550 C   0  0  0  0  0  3  0  0  0  0  0  0
  188.0610  173.0900  141.8650 C   0  0  0  0  0  2  0  0  0  0  0  0
  1 37  1  6  0  0  0
  1 12  1  0  0  0  0
  2  1  1  0  0  0  0
  3  2  1  0  0  0  0
  4  8  1  0  0  0  0
  5  6  1  0  0  0  0
  5  3  1  0  0  0  0
  7  4  1  0  0  0  0
  7  9  1  0  0  0  0
  8 11  1  1  0  0  0
  8  6  1  0  0  0  0
  9  5  2  0  0  0  0
 10 11  1  0  0  0  0
 13 14  1  0  0  0  0
 13 12  1  0  0  0  0
 14 15  1  0  0  0  0
 16 15  1  0  0  0  0
 17 16  1  0  0  0  0
 19 18  1  0  0  0  0
 20 23  1  0  0  0  0
 21 22  1  0  0  0  0
 22 19  1  0  0  0  0
 23 18  1  6  0  0  0
 24 33  1  6  0  0  0
 24 25  1  0  0  0  0
 24 27  1  0  0  0  0
 25 21  1  1  0  0  0
 25 20  1  0  0  0  0
 26 23  1  0  0  0  0
 27 17  1  1  0  0  0
 27 26  1  0  0  0  0
 28 33  1  0  0  0  0
 29 32  1  0  0  0  0
 29 31  2  0  0  0  0
 30 33  2  0  0  0  0
 31 30  1  0  0  0  0
 32 28  2  0  0  0  0
 34 35  1  6  0  0  0
 34 29  1  0  0  0  0
 36 34  1  0  0  0  0
 38 53  1  6  0  0  0
 38 37  1  0  0  0  0
 39 40  2  0  0  0  0
 40 38  1  0  0  0  0
 41 39  1  6  0  0  0
 41 45  1  0  0  0  0
 42 41  1  0  0  0  0
 43 42  1  0  0  0  0
 44 42  2  0  0  0  0
 45 46  1  0  0  0  0
 46 48  1  0  0  0  0
 46 47  1  0  0  0  0
 47 49  1  1  0  0  0
 48 47  1  0  0  0  0
 49 50  1  0  0  0  0
 50 51  2  0  0  0  0
 52 50  1  0  0  0  0
 53 54  1  0  0  0  0
 55 54  2  0  0  0  0
M  END
>  <MODEL>
3

>  <REMARK>
 VINA RESULT:      -5.6      2.580      9.184
  Name = 
  24 active torsions:
  status: ('A' for Active; 'I' for Inactive)
    1  A    between atoms: C_1  and  C_53
    2  A    between atoms: N_3  and  C_38
    3  A    between atoms: C_4  and  O_35
    4  A    between atoms: C_4  and  C_37
    5  A    between atoms: C_5  and  C_37
    6  A    between atoms: C_5  and  O_40
    7  A    between atoms: C_6  and  C_53
    8  A    between atoms: C_7  and  C_20
    9  A    between atoms: C_8  and  C_22
   10  A    between atoms: C_8  and  C_43
   11  A    between atoms: C_10  and  C_32
   12  A    between atoms: C_11  and  O_50
   13  A    between atoms: C_12  and  O_50
   14  A    between atoms: C_19  and  O_40
   15  A    between atoms: C_19  and  C_49
   16  A    between atoms: C_20  and  C_22
   17  A    between atoms: C_22  and  C_46
   18  A    between atoms: C_27  and  C_54
   19  A    between atoms: O_28  and  C_44
   20  A    between atoms: C_33  and  C_52
   21  A    between atoms: O_35  and  C_43
   22  A    between atoms: C_38  and  C_53
   23  A    between atoms: C_43  and  C_51
   24  A    between atoms: C_51  and  C_54
                            x       y       z     vdW  Elec       q    Type
                         _______ _______ _______ _____ _____    ______ ____

>  <TORSDO>
F 24

$$$$
=
 OpenBabel11052419263D

 55 59  0  0  1  0  0  0  0  0999 V2000
  188.9880  175.0230  143.0120 C   0  0  1  0  0  3  0  0  0  0  0  0
  189.5760  173.6160  143.1000 C   0  0  0  0  0  2  0  0  0  0  0  0
  190.8860  173.5320  142.3390 C   0  0  0  0  0  2  0  0  0  0  0  0
  192.2730  169.6560  141.0170 C   0  0  0  0  0  2  0  0  0  0  0  0
  191.1550  172.1200  141.9390 C   0  0  0  0  0  0  0  0  0  0  0  0
  191.8620  171.2200  142.9240 C   0  0  0  0  0  2  0  0  0  0  0  0
  191.1930  170.3400  140.1870 C   0  0  0  0  0  2  0  0  0  0  0  0
  191.8960  169.7540  142.4900 C   0  0  2  0  0  3  0  0  0  0  0  0
  190.9330  171.7440  140.6690 C   0  0  0  0  0  3  0  0  0  0  0  0
  192.9010  169.7390  144.3870 O   0  0  0  0  0  1  0  0  0  0  0  0
  192.8270  169.0600  143.2620 O   0  0  0  0  0  0  0  0  0  0  0  0
  189.6470  175.8810  143.8990 O   0  0  0  0  0  0  0  0  0  0  0  0
  189.9880  177.0110  143.1500 C   0  0  0  0  0  2  0  0  0  0  0  0
  191.2770  177.6350  143.6770 C   0  0  0  0  0  2  0  0  0  0  0  0
  192.0050  176.6950  144.6220 C   0  0  0  0  0  2  0  0  0  0  0  0
  193.3780  176.7610  144.3810 O   0  0  0  0  0  0  0  0  0  0  0  0
  193.5950  175.9100  143.3010 C   0  0  0  0  0  2  0  0  0  0  0  0
  196.9970  173.7820  145.6030 C   0  0  0  0  0  2  0  0  0  0  0  0
  196.9280  172.3600  146.1680 C   0  0  0  0  0  2  0  0  0  0  0  0
  194.5650  173.6170  145.1490 O   0  0  0  0  0  0  0  0  0  0  0  0
  195.7740  171.8420  143.9310 C   0  0  0  0  0  2  0  0  0  0  0  0
  196.0460  171.3860  145.3660 C   0  0  0  0  0  2  0  0  0  0  0  0
  195.6300  174.4780  145.5320 C   0  0  2  0  0  3  0  0  0  0  0  0
  195.2550  174.0490  142.8070 C   0  0  2  0  0  3  0  0  0  0  0  0
  194.8030  173.0320  143.8720 C   0  0  2  0  0  3  0  0  0  0  0  0
  195.7070  175.7220  144.6340 C   0  0  0  0  0  2  0  0  0  0  0  0
  195.0640  175.5040  143.2570 C   0  0  2  0  0  3  0  0  0  0  0  0
  194.0020  174.7520  140.7590 C   0  0  0  0  0  3  0  0  0  0  0  0
  193.6390  173.2450  138.8910 C   0  0  0  0  0  0  0  0  0  0  0  0
  194.8770  172.4970  140.8410 C   0  0  0  0  0  3  0  0  0  0  0  0
  194.3430  172.2420  139.5740 C   0  0  0  0  0  3  0  0  0  0  0  0
  193.4690  174.4990  139.4900 C   0  0  0  0  0  3  0  0  0  0  0  0
  194.7110  173.7560  141.4380 C   0  0  0  0  0  0  0  0  0  0  0  0
  193.0460  172.9950  137.5420 C   0  0  1  0  0  3  0  0  0  0  0  0
  191.8510  173.8960  137.2950 C   0  0  0  0  0  1  0  0  0  0  0  0
  194.0430  173.2020  136.5040 N   0  0  0  0  0  1  0  0  0  0  0  0
  189.0560  175.5920  141.5840 C   0  0  0  0  0  2  0  0  0  0  0  0
  187.7130  175.9260  140.9000 C   0  0  1  0  0  3  0  0  0  0  0  0
  186.5850  178.1350  141.2800 C   0  0  0  0  0  3  0  0  0  0  0  0
  187.5270  177.4010  140.6760 C   0  0  0  0  0  3  0  0  0  0  0  0
  185.6260  177.5770  142.2860 C   0  0  2  0  0  3  0  0  0  0  0  0
  184.2360  178.0590  142.0050 C   0  0  0  0  0  0  0  0  0  0  0  0
  183.4200  178.4400  143.0610 O   0  0  0  0  0  1  0  0  0  0  0  0
  183.8020  178.1320  140.8220 O   0  0  0  0  0  0  0  0  0  0  0  0
  186.0760  177.9670  143.6920 C   0  0  0  0  0  2  0  0  0  0  0  0
  186.2560  176.7840  144.5160 N   0  0  0  0  0  0  0  0  0  0  0  0
  186.8440  177.2140  145.7590 C   0  0  1  0  0  3  0  0  0  0  0  0
  185.5090  176.9930  145.6610 O   0  0  0  0  0  0  0  0  0  0  0  0
  187.4500  176.1090  146.4170 O   0  0  0  0  0  0  0  0  0  0  0  0
  188.7520  176.1490  146.9240 C   0  0  0  0  0  0  0  0  0  0  0  0
  189.3620  177.3170  147.0460 C   0  0  0  0  0  2  0  0  0  0  0  0
  189.4720  174.9120  147.3420 C   0  0  0  0  0  1  0  0  0  0  0  0
  187.5380  175.1520  139.5980 C   0  0  0  0  0  2  0  0  0  0  0  0
  188.5550  174.0670  139.4920 C   0  0  0  0  0  3  0  0  0  0  0  0
  188.3970  173.0950  138.6000 C   0  0  0  0  0  2  0  0  0  0  0  0
  1 37  1  6  0  0  0
  1  2  1  0  0  0  0
  1 12  1  0  0  0  0
  3  2  1  0  0  0  0
  4  8  1  0  0  0  0
  5  3  1  0  0  0  0
  5  6  1  0  0  0  0
  7  9  1  0  0  0  0
  7  4  1  0  0  0  0
  8  6  1  0  0  0  0
  8 11  1  1  0  0  0
  9  5  2  0  0  0  0
 11 10  1  0  0  0  0
 13 14  1  0  0  0  0
 13 12  1  0  0  0  0
 14 15  1  0  0  0  0
 16 15  1  0  0  0  0
 17 16  1  0  0  0  0
 18 19  1  0  0  0  0
 20 23  1  0  0  0  0
 21 22  1  0  0  0  0
 22 19  1  0  0  0  0
 23 26  1  6  0  0  0
 23 18  1  0  0  0  0
 24 33  1  6  0  0  0
 24 27  1  0  0  0  0
 24 25  1  0  0  0  0
 25 21  1  1  0  0  0
 25 20  1  0  0  0  0
 27 17  1  1  0  0  0
 27 26  1  0  0  0  0
 28 33  1  0  0  0  0
 29 32  1  0  0  0  0
 29 31  2  0  0  0  0
 30 33  2  0  0  0  0
 31 30  1  0  0  0  0
 32 28  2  0  0  0  0
 34 35  1  6  0  0  0
 34 29  1  0  0  0  0
 36 34  1  0  0  0  0
 38 53  1  6  0  0  0
 38 37  1  0  0  0  0
 40 38  1  0  0  0  0
 40 39  2  0  0  0  0
 41 39  1  6  0  0  0
 41 45  1  0  0  0  0
 42 41  1  0  0  0  0
 42 43  1  0  0  0  0
 44 42  2  0  0  0  0
 45 46  1  0  0  0  0
 46 48  1  0  0  0  0
 46 47  1  0  0  0  0
 47 49  1  1  0  0  0
 48 47  1  0  0  0  0
 49 50  1  0  0  0  0
 50 51  2  0  0  0  0
 50 52  1  0  0  0  0
 54 53  1  0  0  0  0
 55 54  2  0  0  0  0
M  END
>  <MODEL>
4

>  <REMARK>
 VINA RESULT:      -5.4      2.659      8.574
  Name = 
  24 active torsions:
  status: ('A' for Active; 'I' for Inactive)
    1  A    between atoms: C_1  and  C_53
    2  A    between atoms: N_3  and  C_38
    3  A    between atoms: C_4  and  O_35
    4  A    between atoms: C_4  and  C_37
    5  A    between atoms: C_5  and  C_37
    6  A    between atoms: C_5  and  O_40
    7  A    between atoms: C_6  and  C_53
    8  A    between atoms: C_7  and  C_20
    9  A    between atoms: C_8  and  C_22
   10  A    between atoms: C_8  and  C_43
   11  A    between atoms: C_10  and  C_32
   12  A    between atoms: C_11  and  O_50
   13  A    between atoms: C_12  and  O_50
   14  A    between atoms: C_19  and  O_40
   15  A    between atoms: C_19  and  C_49
   16  A    between atoms: C_20  and  C_22
   17  A    between atoms: C_22  and  C_46
   18  A    between atoms: C_27  and  C_54
   19  A    between atoms: O_28  and  C_44
   20  A    between atoms: C_33  and  C_52
   21  A    between atoms: O_35  and  C_43
   22  A    between atoms: C_38  and  C_53
   23  A    between atoms: C_43  and  C_51
   24  A    between atoms: C_51  and  C_54
                            x       y       z     vdW  Elec       q    Type
                         _______ _______ _______ _____ _____    ______ ____

>  <TORSDO>
F 24

$$$$
=
 OpenBabel11052419263D

 55 59  0  0  1  0  0  0  0  0999 V2000
  190.1400  173.1320  143.1870 C   0  0  1  0  0  3  0  0  0  0  0  0
  190.0630  172.6720  144.6420 C   0  0  0  0  0  2  0  0  0  0  0  0
  189.7340  173.8360  145.5580 C   0  0  0  0  0  2  0  0  0  0  0  0
  193.1750  176.3910  144.9910 C   0  0  0  0  0  2  0  0  0  0  0  0
  190.8550  174.8200  145.5570 C   0  0  0  0  0  0  0  0  0  0  0  0
  190.7100  176.0670  144.7170 C   0  0  0  0  0  2  0  0  0  0  0  0
  193.1990  175.4250  146.1700 C   0  0  0  0  0  2  0  0  0  0  0  0
  191.8220  177.0910  144.9570 C   0  0  2  0  0  3  0  0  0  0  0  0
  192.0180  174.4910  146.1420 C   0  0  0  0  0  3  0  0  0  0  0  0
  190.6010  178.5630  143.9800 O   0  0  0  0  0  1  0  0  0  0  0  0
  191.8090  178.0410  143.9360 O   0  0  0  0  0  0  0  0  0  0  0  0
  190.9770  172.2850  142.4540 O   0  0  0  0  0  0  0  0  0  0  0  0
  192.1090  172.0870  143.2510 C   0  0  0  0  0  2  0  0  0  0  0  0
  192.9180  170.8960  142.7490 C   0  0  0  0  0  2  0  0  0  0  0  0
  192.0160  169.7700  142.2730 C   0  0  0  0  0  2  0  0  0  0  0  0
  192.4950  169.2670  141.0630 O   0  0  0  0  0  0  0  0  0  0  0  0
  191.6490  169.7980  140.0930 C   0  0  0  0  0  2  0  0  0  0  0  0
  191.1120  170.0370  135.5040 C   0  0  0  0  0  2  0  0  0  0  0  0
  190.2910  171.0980  134.7630 C   0  0  0  0  0  2  0  0  0  0  0  0
  190.1430  170.9000  137.6170 O   0  0  0  0  0  0  0  0  0  0  0  0
  191.3770  172.6970  136.4580 C   0  0  0  0  0  2  0  0  0  0  0  0
  190.2510  172.4780  135.4450 C   0  0  0  0  0  2  0  0  0  0  0  0
  190.5970  169.7460  136.9210 C   0  0  2  0  0  3  0  0  0  0  0  0
  192.5160  171.2860  138.2230 C   0  0  2  0  0  3  0  0  0  0  0  0
  191.1770  171.8730  137.7400 C   0  0  2  0  0  3  0  0  0  0  0  0
  191.6520  168.9740  137.7270 C   0  0  0  0  0  2  0  0  0  0  0  0
  192.3780  169.8520  138.7540 C   0  0  2  0  0  3  0  0  0  0  0  0
  194.5480  171.8370  139.5740 C   0  0  0  0  0  3  0  0  0  0  0  0
  194.7120  173.8770  140.8790 C   0  0  0  0  0  0  0  0  0  0  0  0
  192.7130  173.4150  139.5800 C   0  0  0  0  0  3  0  0  0  0  0  0
  193.4290  174.2460  140.4480 C   0  0  0  0  0  3  0  0  0  0  0  0
  195.2660  172.6690  140.4400 C   0  0  0  0  0  3  0  0  0  0  0  0
  193.2730  172.2070  139.1370 C   0  0  0  0  0  0  0  0  0  0  0  0
  195.4930  174.7400  141.8170 C   0  0  1  0  0  3  0  0  0  0  0  0
  194.9360  176.1500  141.8550 C   0  0  0  0  0  1  0  0  0  0  0  0
  195.4850  174.1700  143.1550 N   0  0  0  0  0  1  0  0  0  0  0  0
  188.7520  173.1990  142.5260 C   0  0  0  0  0  2  0  0  0  0  0  0
  188.5540  174.2590  141.4220 C   0  0  1  0  0  3  0  0  0  0  0  0
  188.1610  176.6680  142.0040 C   0  0  0  0  0  3  0  0  0  0  0  0
  188.9940  175.6320  141.8490 C   0  0  0  0  0  3  0  0  0  0  0  0
  186.6800  176.5700  141.8090 C   0  0  2  0  0  3  0  0  0  0  0  0
  186.2290  177.5220  140.7440 C   0  0  0  0  0  0  0  0  0  0  0  0
  185.1360  178.3430  140.9820 O   0  0  0  0  0  1  0  0  0  0  0  0
  186.8370  177.5940  139.6400 O   0  0  0  0  0  0  0  0  0  0  0  0
  185.9700  176.8410  143.1340 C   0  0  0  0  0  2  0  0  0  0  0  0
  186.9160  177.3080  144.1320 N   0  0  0  0  0  0  0  0  0  0  0  0
  186.3030  177.1200  145.4230 C   0  0  1  0  0  3  0  0  0  0  0  0
  187.1960  176.2200  144.9400 O   0  0  0  0  0  0  0  0  0  0  0  0
  186.9480  177.9390  146.3900 O   0  0  0  0  0  0  0  0  0  0  0  0
  186.2570  178.5840  147.4200 C   0  0  0  0  0  0  0  0  0  0  0  0
  184.9340  178.5830  147.4090 C   0  0  0  0  0  2  0  0  0  0  0  0
  186.9700  179.2650  148.5390 C   0  0  0  0  0  1  0  0  0  0  0  0
  189.2370  173.8500  140.1210 C   0  0  0  0  0  2  0  0  0  0  0  0
  188.2250  173.5520  139.0690 C   0  0  0  0  0  3  0  0  0  0  0  0
  188.1680  174.3020  137.9730 C   0  0  0  0  0  2  0  0  0  0  0  0
  1 37  1  6  0  0  0
  1  2  1  0  0  0  0
  2  3  1  0  0  0  0
  4  7  1  0  0  0  0
  5  3  1  0  0  0  0
  5  9  2  0  0  0  0
  6  8  1  0  0  0  0
  6  5  1  0  0  0  0
  8 11  1  6  0  0  0
  8  4  1  0  0  0  0
  9  7  1  0  0  0  0
 11 10  1  0  0  0  0
 12  1  1  0  0  0  0
 12 13  1  0  0  0  0
 14 13  1  0  0  0  0
 15 14  1  0  0  0  0
 16 15  1  0  0  0  0
 17 16  1  0  0  0  0
 19 22  1  0  0  0  0
 19 18  1  0  0  0  0
 20 25  1  0  0  0  0
 22 21  1  0  0  0  0
 23 18  1  6  0  0  0
 23 20  1  0  0  0  0
 23 26  1  0  0  0  0
 24 27  1  0  0  0  0
 24 33  1  1  0  0  0
 25 21  1  6  0  0  0
 25 24  1  0  0  0  0
 26 27  1  0  0  0  0
 27 17  1  1  0  0  0
 28 32  1  0  0  0  0
 29 34  1  0  0  0  0
 30 31  2  0  0  0  0
 31 29  1  0  0  0  0
 32 29  2  0  0  0  0
 33 28  2  0  0  0  0
 33 30  1  0  0  0  0
 34 35  1  1  0  0  0
 34 36  1  0  0  0  0
 38 53  1  6  0  0  0
 38 40  1  0  0  0  0
 38 37  1  0  0  0  0
 40 39  2  0  0  0  0
 41 39  1  1  0  0  0
 41 45  1  0  0  0  0
 42 43  1  0  0  0  0
 42 41  1  0  0  0  0
 44 42  2  0  0  0  0
 45 46  1  0  0  0  0
 46 48  1  0  0  0  0
 46 47  1  0  0  0  0
 47 49  1  1  0  0  0
 48 47  1  0  0  0  0
 49 50  1  0  0  0  0
 50 52  1  0  0  0  0
 51 50  2  0  0  0  0
 54 53  1  0  0  0  0
 55 54  2  0  0  0  0
M  END
>  <MODEL>
5

>  <REMARK>
 VINA RESULT:      -5.3      2.755      8.792
  Name = 
  24 active torsions:
  status: ('A' for Active; 'I' for Inactive)
    1  A    between atoms: C_1  and  C_53
    2  A    between atoms: N_3  and  C_38
    3  A    between atoms: C_4  and  O_35
    4  A    between atoms: C_4  and  C_37
    5  A    between atoms: C_5  and  C_37
    6  A    between atoms: C_5  and  O_40
    7  A    between atoms: C_6  and  C_53
    8  A    between atoms: C_7  and  C_20
    9  A    between atoms: C_8  and  C_22
   10  A    between atoms: C_8  and  C_43
   11  A    between atoms: C_10  and  C_32
   12  A    between atoms: C_11  and  O_50
   13  A    between atoms: C_12  and  O_50
   14  A    between atoms: C_19  and  O_40
   15  A    between atoms: C_19  and  C_49
   16  A    between atoms: C_20  and  C_22
   17  A    between atoms: C_22  and  C_46
   18  A    between atoms: C_27  and  C_54
   19  A    between atoms: O_28  and  C_44
   20  A    between atoms: C_33  and  C_52
   21  A    between atoms: O_35  and  C_43
   22  A    between atoms: C_38  and  C_53
   23  A    between atoms: C_43  and  C_51
   24  A    between atoms: C_51  and  C_54
                            x       y       z     vdW  Elec       q    Type
                         _______ _______ _______ _____ _____    ______ ____

>  <TORSDO>
F 24

$$$$
=
 OpenBabel11052419263D

 55 59  0  0  1  0  0  0  0  0999 V2000
  190.3330  175.6560  145.8340 C   0  0  1  0  0  3  0  0  0  0  0  0
  188.8100  175.7520  145.7680 C   0  0  0  0  0  2  0  0  0  0  0  0
  188.2500  176.3190  147.0590 C   0  0  0  0  0  2  0  0  0  0  0  0
  185.2030  179.1710  145.9310 C   0  0  0  0  0  2  0  0  0  0  0  0
  187.0510  177.1580  146.7700 C   0  0  0  0  0  0  0  0  0  0  0  0
  186.4120  177.0460  145.4050 C   0  0  0  0  0  2  0  0  0  0  0  0
  185.4990  179.0040  147.4170 C   0  0  0  0  0  2  0  0  0  0  0  0
  185.0810  177.7900  145.2970 C   0  0  2  0  0  3  0  0  0  0  0  0
  186.6890  178.1090  147.6450 C   0  0  0  0  0  3  0  0  0  0  0  0
  185.1730  176.8190  143.3840 O   0  0  0  0  0  1  0  0  0  0  0  0
  184.7250  177.9180  143.9550 O   0  0  0  0  0  0  0  0  0  0  0  0
  190.7320  174.3170  145.9190 O   0  0  0  0  0  0  0  0  0  0  0  0
  189.9490  173.6290  144.9880 C   0  0  0  0  0  2  0  0  0  0  0  0
  190.6010  172.3010  144.6140 C   0  0  0  0  0  2  0  0  0  0  0  0
  189.8150  171.5780  143.5350 C   0  0  0  0  0  2  0  0  0  0  0  0
  190.6860  170.8210  142.7500 O   0  0  0  0  0  0  0  0  0  0  0  0
  190.1270  170.8380  141.4750 C   0  0  0  0  0  2  0  0  0  0  0  0
  192.1320  170.1760  137.3580 C   0  0  0  0  0  2  0  0  0  0  0  0
  191.3870  169.9760  136.0330 C   0  0  0  0  0  2  0  0  0  0  0  0
  189.9460  169.9520  138.5090 O   0  0  0  0  0  0  0  0  0  0  0  0
  189.8810  171.8540  136.9360 C   0  0  0  0  0  2  0  0  0  0  0  0
  190.0370  170.7080  135.9330 C   0  0  0  0  0  2  0  0  0  0  0  0
  191.3420  169.6880  138.5810 C   0  0  2  0  0  3  0  0  0  0  0  0
  190.4810  172.2160  139.3670 C   0  0  2  0  0  3  0  0  0  0  0  0
  189.6880  171.3470  138.3740 C   0  0  2  0  0  3  0  0  0  0  0  0
  191.9600  170.2420  139.8740 C   0  0  0  0  0  2  0  0  0  0  0  0
  191.1430  171.3910  140.4800 C   0  0  2  0  0  3  0  0  0  0  0  0
  190.0780  173.9990  141.0750 C   0  0  0  0  0  3  0  0  0  0  0  0
  188.2710  175.6050  140.8560 C   0  0  0  0  0  0  0  0  0  0  0  0
  188.6100  173.9090  139.1510 C   0  0  0  0  0  3  0  0  0  0  0  0
  187.8940  175.0050  139.6450 C   0  0  0  0  0  3  0  0  0  0  0  0
  189.3630  175.0970  141.5680 C   0  0  0  0  0  3  0  0  0  0  0  0
  189.7090  173.4040  139.8640 C   0  0  0  0  0  0  0  0  0  0  0  0
  187.5140  176.7680  141.4130 C   0  0  1  0  0  3  0  0  0  0  0  0
  188.4580  177.8410  141.9220 C   0  0  0  0  0  1  0  0  0  0  0  0
  186.6300  177.3270  140.4040 N   0  0  0  0  0  1  0  0  0  0  0  0
  191.0110  176.3300  144.6280 C   0  0  0  0  0  2  0  0  0  0  0  0
  192.4850  175.9610  144.3580 C   0  0  1  0  0  3  0  0  0  0  0  0
  193.7320  174.6590  142.6130 C   0  0  0  0  0  3  0  0  0  0  0  0
  192.7090  175.4480  142.9630 C   0  0  0  0  0  3  0  0  0  0  0  0
  194.7560  174.1600  143.5850 C   0  0  2  0  0  3  0  0  0  0  0  0
  196.1200  174.6460  143.2020 C   0  0  0  0  0  0  0  0  0  0  0  0
  196.7650  175.5740  144.0080 O   0  0  0  0  0  1  0  0  0  0  0  0
  196.6930  174.2160  142.1630 O   0  0  0  0  0  0  0  0  0  0  0  0
  194.7060  172.6350  143.6440 C   0  0  0  0  0  2  0  0  0  0  0  0
  194.3510  172.1880  144.9800 N   0  0  0  0  0  0  0  0  0  0  0  0
  195.2410  171.1060  145.3190 C   0  0  1  0  0  3  0  0  0  0  0  0
  195.4780  172.3670  145.7610 O   0  0  0  0  0  0  0  0  0  0  0  0
  194.6890  170.3390  146.3810 O   0  0  0  0  0  0  0  0  0  0  0  0
  194.9080  168.9650  146.5190 C   0  0  0  0  0  0  0  0  0  0  0  0
  194.4960  168.3530  147.6180 C   0  0  0  0  0  2  0  0  0  0  0  0
  195.5840  168.1660  145.4570 C   0  0  0  0  0  1  0  0  0  0  0  0
  193.4200  177.1260  144.6650 C   0  0  0  0  0  2  0  0  0  0  0  0
  194.1150  176.9110  145.9660 C   0  0  0  0  0  3  0  0  0  0  0  0
  194.1330  175.7020  146.5170 C   0  0  0  0  0  2  0  0  0  0  0  0
  1 37  1  6  0  0  0
  1 12  1  0  0  0  0
  2  1  1  0  0  0  0
  2  3  1  0  0  0  0
  4  7  1  0  0  0  0
  5  3  1  0  0  0  0
  5  9  2  0  0  0  0
  6  5  1  0  0  0  0
  7  9  1  0  0  0  0
  8 11  1  6  0  0  0
  8  6  1  0  0  0  0
  8  4  1  0  0  0  0
 10 11  1  0  0  0  0
 13 12  1  0  0  0  0
 14 13  1  0  0  0  0
 15 14  1  0  0  0  0
 16 15  1  0  0  0  0
 17 16  1  0  0  0  0
 19 18  1  0  0  0  0
 20 23  1  0  0  0  0
 22 19  1  0  0  0  0
 22 21  1  0  0  0  0
 23 18  1  6  0  0  0
 23 26  1  0  0  0  0
 24 33  1  1  0  0  0
 24 27  1  0  0  0  0
 25 21  1  6  0  0  0
 25 20  1  0  0  0  0
 25 24  1  0  0  0  0
 26 27  1  0  0  0  0
 27 17  1  1  0  0  0
 28 32  1  0  0  0  0
 29 34  1  0  0  0  0
 29 32  2  0  0  0  0
 30 31  2  0  0  0  0
 30 33  1  0  0  0  0
 31 29  1  0  0  0  0
 33 28  2  0  0  0  0
 34 35  1  6  0  0  0
 36 34  1  0  0  0  0
 38 40  1  6  0  0  0
 38 37  1  0  0  0  0
 38 53  1  0  0  0  0
 39 40  2  0  0  0  0
 41 39  1  6  0  0  0
 41 45  1  0  0  0  0
 42 41  1  0  0  0  0
 42 43  1  0  0  0  0
 44 42  2  0  0  0  0
 45 46  1  0  0  0  0
 46 47  1  0  0  0  0
 46 48  1  0  0  0  0
 47 48  1  0  0  0  0
 47 49  1  1  0  0  0
 49 50  1  0  0  0  0
 50 51  2  0  0  0  0
 52 50  1  0  0  0  0
 53 54  1  0  0  0  0
 54 55  2  0  0  0  0
M  END
>  <MODEL>
6

>  <REMARK>
 VINA RESULT:      -5.3      2.250      8.589
  Name = 
  24 active torsions:
  status: ('A' for Active; 'I' for Inactive)
    1  A    between atoms: C_1  and  C_53
    2  A    between atoms: N_3  and  C_38
    3  A    between atoms: C_4  and  O_35
    4  A    between atoms: C_4  and  C_37
    5  A    between atoms: C_5  and  C_37
    6  A    between atoms: C_5  and  O_40
    7  A    between atoms: C_6  and  C_53
    8  A    between atoms: C_7  and  C_20
    9  A    between atoms: C_8  and  C_22
   10  A    between atoms: C_8  and  C_43
   11  A    between atoms: C_10  and  C_32
   12  A    between atoms: C_11  and  O_50
   13  A    between atoms: C_12  and  O_50
   14  A    between atoms: C_19  and  O_40
   15  A    between atoms: C_19  and  C_49
   16  A    between atoms: C_20  and  C_22
   17  A    between atoms: C_22  and  C_46
   18  A    between atoms: C_27  and  C_54
   19  A    between atoms: O_28  and  C_44
   20  A    between atoms: C_33  and  C_52
   21  A    between atoms: O_35  and  C_43
   22  A    between atoms: C_38  and  C_53
   23  A    between atoms: C_43  and  C_51
   24  A    between atoms: C_51  and  C_54
                            x       y       z     vdW  Elec       q    Type
                         _______ _______ _______ _____ _____    ______ ____

>  <TORSDO>
F 24

$$$$
=
 OpenBabel11052419263D

 55 59  0  0  1  0  0  0  0  0999 V2000
  191.7300  172.3040  142.2800 C   0  0  1  0  0  3  0  0  0  0  0  0
  192.4680  173.1460  143.3180 C   0  0  0  0  0  2  0  0  0  0  0  0
  192.4800  172.4510  144.6670 C   0  0  0  0  0  2  0  0  0  0  0  0
  196.6410  171.3340  145.0140 C   0  0  0  0  0  2  0  0  0  0  0  0
  193.8660  172.0180  145.0060 C   0  0  0  0  0  0  0  0  0  0  0  0
  194.8830  173.0810  145.3460 C   0  0  0  0  0  2  0  0  0  0  0  0
  195.6010  170.2250  145.1290 C   0  0  0  0  0  2  0  0  0  0  0  0
  196.2010  172.5120  145.8750 C   0  0  2  0  0  3  0  0  0  0  0  0
  194.2160  170.7350  144.8220 C   0  0  0  0  0  3  0  0  0  0  0  0
  196.7290  174.4000  144.9990 O   0  0  0  0  0  1  0  0  0  0  0  0
  197.1800  173.5040  145.8520 O   0  0  0  0  0  0  0  0  0  0  0  0
  190.7820  173.0830  141.6080 O   0  0  0  0  0  0  0  0  0  0  0  0
  189.5370  172.6510  142.0750 C   0  0  0  0  0  2  0  0  0  0  0  0
  188.5020  173.7660  141.9530 C   0  0  0  0  0  2  0  0  0  0  0  0
  189.1550  175.1000  141.6370 C   0  0  0  0  0  2  0  0  0  0  0  0
  188.1770  176.0210  141.2570 O   0  0  0  0  0  0  0  0  0  0  0  0
  187.3130  176.0980  142.3470 C   0  0  0  0  0  2  0  0  0  0  0  0
  184.6580  179.1710  144.5630 C   0  0  0  0  0  2  0  0  0  0  0  0
  184.0800  178.9880  145.9710 C   0  0  0  0  0  2  0  0  0  0  0  0
  185.3440  176.7890  144.6400 O   0  0  0  0  0  0  0  0  0  0  0  0
  186.4110  178.0350  146.4850 C   0  0  0  0  0  2  0  0  0  0  0  0
  184.9490  178.1480  146.9240 C   0  0  0  0  0  2  0  0  0  0  0  0
  184.8730  177.8470  143.8150 C   0  0  2  0  0  3  0  0  0  0  0  0
  187.6150  177.7190  144.2820 C   0  0  2  0  0  3  0  0  0  0  0  0
  186.5830  177.1250  145.2590 C   0  0  2  0  0  3  0  0  0  0  0  0
  185.7790  178.0630  142.5930 C   0  0  0  0  0  2  0  0  0  0  0  0
  187.2070  177.5470  142.8120 C   0  0  2  0  0  3  0  0  0  0  0  0
  190.0830  177.9790  143.9670 C   0  0  0  0  0  3  0  0  0  0  0  0
  191.6810  176.5230  145.0720 C   0  0  0  0  0  0  0  0  0  0  0  0
  189.2990  176.2200  145.4350 C   0  0  0  0  0  3  0  0  0  0  0  0
  190.6210  175.8340  145.6800 C   0  0  0  0  0  3  0  0  0  0  0  0
  191.4060  177.5950  144.2140 C   0  0  0  0  0  3  0  0  0  0  0  0
  189.0250  177.2990  144.5790 C   0  0  0  0  0  0  0  0  0  0  0  0
  193.1020  176.1220  145.3050 C   0  0  1  0  0  3  0  0  0  0  0  0
  193.9640  176.4350  144.0970 C   0  0  0  0  0  1  0  0  0  0  0  0
  193.6330  176.7980  146.4780 N   0  0  0  0  0  1  0  0  0  0  0  0
  192.6910  171.6580  141.2670 C   0  0  0  0  0  2  0  0  0  0  0  0
  193.8350  172.5420  140.7260 C   0  0  1  0  0  3  0  0  0  0  0  0
  193.7220  174.5380  139.2100 C   0  0  0  0  0  3  0  0  0  0  0  0
  193.3730  173.9200  140.3450 C   0  0  0  0  0  3  0  0  0  0  0  0
  194.5870  173.9070  138.1620 C   0  0  2  0  0  3  0  0  0  0  0  0
  195.5840  174.8960  137.6430 C   0  0  0  0  0  0  0  0  0  0  0  0
  196.5500  175.4050  138.5010 O   0  0  0  0  0  1  0  0  0  0  0  0
  195.5630  175.2650  136.4360 O   0  0  0  0  0  0  0  0  0  0  0  0
  193.7110  173.3580  137.0390 C   0  0  0  0  0  2  0  0  0  0  0  0
  193.6720  171.9070  137.0840 N   0  0  0  0  0  0  0  0  0  0  0  0
  192.2890  171.5190  137.2000 C   0  0  1  0  0  3  0  0  0  0  0  0
  192.9170  171.5050  135.9970 O   0  0  0  0  0  0  0  0  0  0  0  0
  192.1980  170.1880  137.6910 O   0  0  0  0  0  0  0  0  0  0  0  0
  191.0290  169.6630  138.2500 C   0  0  0  0  0  0  0  0  0  0  0  0
  191.1240  168.7670  139.2200 C   0  0  0  0  0  2  0  0  0  0  0  0
  189.6760  170.0940  137.7930 C   0  0  0  0  0  1  0  0  0  0  0  0
  195.0020  172.6100  141.7050 C   0  0  0  0  0  2  0  0  0  0  0  0
  196.1240  171.7440  141.2450 C   0  0  0  0  0  3  0  0  0  0  0  0
  196.0350  171.1040  140.0840 C   0  0  0  0  0  2  0  0  0  0  0  0
  1 37  1  6  0  0  0
  1  2  1  0  0  0  0
  2  3  1  0  0  0  0
  3  5  1  0  0  0  0
  4  7  1  0  0  0  0
  4  8  1  0  0  0  0
  5  6  1  0  0  0  0
  6  8  1  0  0  0  0
  8 11  1  6  0  0  0
  9  5  2  0  0  0  0
  9  7  1  0  0  0  0
 10 11  1  0  0  0  0
 12 13  1  0  0  0  0
 12  1  1  0  0  0  0
 14 13  1  0  0  0  0
 15 14  1  0  0  0  0
 16 15  1  0  0  0  0
 16 17  1  0  0  0  0
 18 19  1  0  0  0  0
 19 22  1  0  0  0  0
 20 25  1  0  0  0  0
 21 22  1  0  0  0  0
 23 26  1  6  0  0  0
 23 18  1  0  0  0  0
 23 20  1  0  0  0  0
 24 33  1  6  0  0  0
 24 25  1  0  0  0  0
 25 21  1  1  0  0  0
 26 27  1  0  0  0  0
 27 17  1  1  0  0  0
 27 24  1  0  0  0  0
 28 32  2  0  0  0  0
 28 33  1  0  0  0  0
 29 34  1  0  0  0  0
 29 31  2  0  0  0  0
 30 31  1  0  0  0  0
 32 29  1  0  0  0  0
 33 30  2  0  0  0  0
 34 35  1  6  0  0  0
 34 36  1  0  0  0  0
 38 40  1  1  0  0  0
 38 37  1  0  0  0  0
 38 53  1  0  0  0  0
 39 40  2  0  0  0  0
 41 45  1  6  0  0  0
 41 39  1  0  0  0  0
 42 41  1  0  0  0  0
 42 43  1  0  0  0  0
 44 42  2  0  0  0  0
 45 46  1  0  0  0  0
 46 47  1  0  0  0  0
 47 49  1  1  0  0  0
 48 46  1  0  0  0  0
 48 47  1  0  0  0  0
 49 50  1  0  0  0  0
 50 51  2  0  0  0  0
 52 50  1  0  0  0  0
 54 53  1  0  0  0  0
 55 54  2  0  0  0  0
M  END
>  <MODEL>
7

>  <REMARK>
 VINA RESULT:      -5.1      1.715      3.887
  Name = 
  24 active torsions:
  status: ('A' for Active; 'I' for Inactive)
    1  A    between atoms: C_1  and  C_53
    2  A    between atoms: N_3  and  C_38
    3  A    between atoms: C_4  and  O_35
    4  A    between atoms: C_4  and  C_37
    5  A    between atoms: C_5  and  C_37
    6  A    between atoms: C_5  and  O_40
    7  A    between atoms: C_6  and  C_53
    8  A    between atoms: C_7  and  C_20
    9  A    between atoms: C_8  and  C_22
   10  A    between atoms: C_8  and  C_43
   11  A    between atoms: C_10  and  C_32
   12  A    between atoms: C_11  and  O_50
   13  A    between atoms: C_12  and  O_50
   14  A    between atoms: C_19  and  O_40
   15  A    between atoms: C_19  and  C_49
   16  A    between atoms: C_20  and  C_22
   17  A    between atoms: C_22  and  C_46
   18  A    between atoms: C_27  and  C_54
   19  A    between atoms: O_28  and  C_44
   20  A    between atoms: C_33  and  C_52
   21  A    between atoms: O_35  and  C_43
   22  A    between atoms: C_38  and  C_53
   23  A    between atoms: C_43  and  C_51
   24  A    between atoms: C_51  and  C_54
                            x       y       z     vdW  Elec       q    Type
                         _______ _______ _______ _____ _____    ______ ____

>  <TORSDO>
F 24

$$$$
=
 OpenBabel11052419263D

 55 59  0  0  1  0  0  0  0  0999 V2000
  190.8730  174.6800  145.7770 C   0  0  1  0  0  3  0  0  0  0  0  0
  191.3810  173.4270  145.0670 C   0  0  0  0  0  2  0  0  0  0  0  0
  190.2280  172.6400  144.4740 C   0  0  0  0  0  2  0  0  0  0  0  0
  190.4450  171.4360  140.3270 C   0  0  0  0  0  2  0  0  0  0  0  0
  190.4880  172.3600  143.0320 C   0  0  0  0  0  0  0  0  0  0  0  0
  189.7120  173.1440  142.0000 C   0  0  0  0  0  2  0  0  0  0  0  0
  191.5500  170.9560  141.2610 C   0  0  0  0  0  2  0  0  0  0  0  0
  190.2080  172.9220  140.5710 C   0  0  2  0  0  3  0  0  0  0  0  0
  191.2530  171.3090  142.6950 C   0  0  0  0  0  3  0  0  0  0  0  0
  188.1790  172.6920  139.9090 O   0  0  0  0  0  1  0  0  0  0  0  0
  189.2610  173.4020  139.6680 O   0  0  0  0  0  0  0  0  0  0  0  0
  191.7030  175.7700  145.4920 O   0  0  0  0  0  0  0  0  0  0  0  0
  192.2120  175.5340  144.2110 C   0  0  0  0  0  2  0  0  0  0  0  0
  193.4340  176.4080  143.9490 C   0  0  0  0  0  2  0  0  0  0  0  0
  194.2300  176.6490  145.2210 C   0  0  0  0  0  2  0  0  0  0  0  0
  195.5580  176.2670  145.0210 O   0  0  0  0  0  0  0  0  0  0  0  0
  195.5990  175.7810  143.7160 C   0  0  0  0  0  2  0  0  0  0  0  0
  196.8010  171.8120  145.7680 C   0  0  0  0  0  2  0  0  0  0  0  0
  195.8400  170.6720  146.1210 C   0  0  0  0  0  2  0  0  0  0  0  0
  194.8120  173.1960  145.2380 O   0  0  0  0  0  0  0  0  0  0  0  0
  194.8480  171.1850  143.8050 C   0  0  0  0  0  2  0  0  0  0  0  0
  194.6420  170.5150  145.1660 C   0  0  0  0  0  2  0  0  0  0  0  0
  196.1330  173.1950  145.7650 C   0  0  2  0  0  3  0  0  0  0  0  0
  195.8670  173.3560  142.9990 C   0  0  2  0  0  3  0  0  0  0  0  0
  194.7890  172.7180  143.8950 C   0  0  2  0  0  3  0  0  0  0  0  0
  197.0290  174.2220  145.0570 C   0  0  0  0  0  2  0  0  0  0  0  0
  196.5330  174.5770  143.6500 C   0  0  2  0  0  3  0  0  0  0  0  0
  194.0420  173.7930  141.3440 C   0  0  0  0  0  3  0  0  0  0  0  0
  194.4820  173.9950  138.9660 C   0  0  0  0  0  0  0  0  0  0  0  0
  196.3070  173.5840  140.5150 C   0  0  0  0  0  3  0  0  0  0  0  0
  195.8480  173.7850  139.2090 C   0  0  0  0  0  3  0  0  0  0  0  0
  193.5830  173.9960  140.0380 C   0  0  0  0  0  3  0  0  0  0  0  0
  195.4040  173.5910  141.5900 C   0  0  0  0  0  0  0  0  0  0  0  0
  193.9640  174.1980  137.5780 C   0  0  1  0  0  3  0  0  0  0  0  0
  192.9000  173.1720  137.2370 C   0  0  0  0  0  1  0  0  0  0  0  0
  193.4220  175.5390  137.4310 N   0  0  0  0  0  1  0  0  0  0  0  0
  189.4200  175.0140  145.3970 C   0  0  0  0  0  2  0  0  0  0  0  0
  188.7900  176.2540  146.0660 C   0  0  1  0  0  3  0  0  0  0  0  0
  188.8820  177.9920  144.2570 C   0  0  0  0  0  3  0  0  0  0  0  0
  189.2660  177.5450  145.4600 C   0  0  0  0  0  3  0  0  0  0  0  0
  187.8970  177.2720  143.3880 C   0  0  2  0  0  3  0  0  0  0  0  0
  188.5970  176.6250  142.2320 C   0  0  0  0  0  0  0  0  0  0  0  0
  189.9820  176.6790  142.1570 O   0  0  0  0  0  1  0  0  0  0  0  0
  187.9450  176.0250  141.3340 O   0  0  0  0  0  0  0  0  0  0  0  0
  186.8250  178.2490  142.9130 C   0  0  0  0  0  2  0  0  0  0  0  0
  185.5150  177.6210  142.9370 N   0  0  0  0  0  0  0  0  0  0  0  0
  184.6360  178.4330  142.1340 C   0  0  1  0  0  3  0  0  0  0  0  0
  185.2080  177.3140  141.6240 O   0  0  0  0  0  0  0  0  0  0  0  0
  183.2810  178.1520  142.4630 O   0  0  0  0  0  0  0  0  0  0  0  0
  182.2230  178.3810  141.5800 C   0  0  0  0  0  0  0  0  0  0  0  0
  181.1560  179.0370  142.0080 C   0  0  0  0  0  2  0  0  0  0  0  0
  182.2660  177.9170  140.1630 C   0  0  0  0  0  1  0  0  0  0  0  0
  187.2670  176.1810  146.0620 C   0  0  0  0  0  2  0  0  0  0  0  0
  186.6900  177.2150  146.9670 C   0  0  0  0  0  3  0  0  0  0  0  0
  185.4000  177.5240  146.8840 C   0  0  0  0  0  2  0  0  0  0  0  0
  1  2  1  6  0  0  0
  3  2  1  0  0  0  0
  4  8  1  0  0  0  0
  4  7  1  0  0  0  0
  5  3  1  0  0  0  0
  6  5  1  0  0  0  0
  7  9  1  0  0  0  0
  8 11  1  6  0  0  0
  8  6  1  0  0  0  0
  9  5  2  0  0  0  0
 11 10  1  0  0  0  0
 12  1  1  0  0  0  0
 13 12  1  0  0  0  0
 14 13  1  0  0  0  0
 14 15  1  0  0  0  0
 16 15  1  0  0  0  0
 17 16  1  0  0  0  0
 18 19  1  0  0  0  0
 20 23  1  0  0  0  0
 21 22  1  0  0  0  0
 22 19  1  0  0  0  0
 23 26  1  6  0  0  0
 23 18  1  0  0  0  0
 24 33  1  6  0  0  0
 24 27  1  0  0  0  0
 24 25  1  0  0  0  0
 25 21  1  1  0  0  0
 25 20  1  0  0  0  0
 27 17  1  1  0  0  0
 27 26  1  0  0  0  0
 28 33  1  0  0  0  0
 29 31  2  0  0  0  0
 29 32  1  0  0  0  0
 30 33  2  0  0  0  0
 31 30  1  0  0  0  0
 32 28  2  0  0  0  0
 34 35  1  1  0  0  0
 34 29  1  0  0  0  0
 36 34  1  0  0  0  0
 37  1  1  0  0  0  0
 38 37  1  6  0  0  0
 39 40  2  0  0  0  0
 40 38  1  0  0  0  0
 41 45  1  6  0  0  0
 41 39  1  0  0  0  0
 42 41  1  0  0  0  0
 43 42  1  0  0  0  0
 44 42  2  0  0  0  0
 45 46  1  0  0  0  0
 47 49  1  1  0  0  0
 47 46  1  0  0  0  0
 48 47  1  0  0  0  0
 48 46  1  0  0  0  0
 50 51  2  0  0  0  0
 50 49  1  0  0  0  0
 52 50  1  0  0  0  0
 53 38  1  0  0  0  0
 53 54  1  0  0  0  0
 55 54  2  0  0  0  0
M  END
>  <MODEL>
8

>  <REMARK>
 VINA RESULT:      -5.1      2.559      9.695
  Name = 
  24 active torsions:
  status: ('A' for Active; 'I' for Inactive)
    1  A    between atoms: C_1  and  C_53
    2  A    between atoms: N_3  and  C_38
    3  A    between atoms: C_4  and  O_35
    4  A    between atoms: C_4  and  C_37
    5  A    between atoms: C_5  and  C_37
    6  A    between atoms: C_5  and  O_40
    7  A    between atoms: C_6  and  C_53
    8  A    between atoms: C_7  and  C_20
    9  A    between atoms: C_8  and  C_22
   10  A    between atoms: C_8  and  C_43
   11  A    between atoms: C_10  and  C_32
   12  A    between atoms: C_11  and  O_50
   13  A    between atoms: C_12  and  O_50
   14  A    between atoms: C_19  and  O_40
   15  A    between atoms: C_19  and  C_49
   16  A    between atoms: C_20  and  C_22
   17  A    between atoms: C_22  and  C_46
   18  A    between atoms: C_27  and  C_54
   19  A    between atoms: O_28  and  C_44
   20  A    between atoms: C_33  and  C_52
   21  A    between atoms: O_35  and  C_43
   22  A    between atoms: C_38  and  C_53
   23  A    between atoms: C_43  and  C_51
   24  A    between atoms: C_51  and  C_54
                            x       y       z     vdW  Elec       q    Type
                         _______ _______ _______ _____ _____    ______ ____

>  <TORSDO>
F 24

$$$$
=
 OpenBabel11052419263D

 55 59  0  0  1  0  0  0  0  0999 V2000
  188.6220  174.3390  141.1910 C   0  0  1  0  0  3  0  0  0  0  0  0
  188.1520  175.7640  141.4760 C   0  0  0  0  0  2  0  0  0  0  0  0
  187.7080  175.9060  142.9200 C   0  0  0  0  0  2  0  0  0  0  0  0
  184.3830  178.6040  143.5140 C   0  0  0  0  0  2  0  0  0  0  0  0
  186.6990  176.9990  143.0380 C   0  0  0  0  0  0  0  0  0  0  0  0
  186.5430  177.6850  144.3750 C   0  0  0  0  0  2  0  0  0  0  0  0
  184.7890  178.2900  142.0790 C   0  0  0  0  0  2  0  0  0  0  0  0
  185.6370  178.9160  144.3220 C   0  0  2  0  0  3  0  0  0  0  0  0
  185.8430  177.2140  142.0270 C   0  0  0  0  0  3  0  0  0  0  0  0
  184.0450  178.8610  145.7620 O   0  0  0  0  0  1  0  0  0  0  0  0
  185.2810  179.2900  145.6170 O   0  0  0  0  0  0  0  0  0  0  0  0
  187.7910  173.4160  141.8360 O   0  0  0  0  0  0  0  0  0  0  0  0
  188.6300  172.3800  142.2580 C   0  0  0  0  0  2  0  0  0  0  0  0
  189.4060  172.7920  143.5050 C   0  0  0  0  0  2  0  0  0  0  0  0
  190.3180  171.6780  143.9880 C   0  0  0  0  0  2  0  0  0  0  0  0
  190.9910  171.1210  142.9000 O   0  0  0  0  0  0  0  0  0  0  0  0
  192.3060  171.5630  143.0250 C   0  0  0  0  0  2  0  0  0  0  0  0
  195.7540  170.2520  145.8170 C   0  0  0  0  0  2  0  0  0  0  0  0
  197.2010  170.7470  145.7280 C   0  0  0  0  0  2  0  0  0  0  0  0
  195.3380  171.3730  143.6440 O   0  0  0  0  0  0  0  0  0  0  0  0
  196.0870  173.0260  145.3180 C   0  0  0  0  0  2  0  0  0  0  0  0
  197.3620  172.1880  145.2110 C   0  0  0  0  0  2  0  0  0  0  0  0
  195.0230  170.2560  144.4660 C   0  0  2  0  0  3  0  0  0  0  0  0
  193.6200  172.6160  144.9300 C   0  0  2  0  0  3  0  0  0  0  0  0
  195.0220  172.6020  144.2930 C   0  0  2  0  0  3  0  0  0  0  0  0
  193.5080  170.1130  144.6760 C   0  0  0  0  0  2  0  0  0  0  0  0
  192.7510  171.4330  144.4780 C   0  0  2  0  0  3  0  0  0  0  0  0
  192.5830  174.6220  146.0060 C   0  0  0  0  0  3  0  0  0  0  0  0
  191.6210  176.4290  144.7010 C   0  0  0  0  0  0  0  0  0  0  0  0
  192.6230  174.5180  143.5870 C   0  0  0  0  0  3  0  0  0  0  0  0
  191.9680  175.7510  143.5220 C   0  0  0  0  0  3  0  0  0  0  0  0
  191.9290  175.8580  145.9410 C   0  0  0  0  0  3  0  0  0  0  0  0
  192.9370  173.9490  144.8320 C   0  0  0  0  0  0  0  0  0  0  0  0
  190.9070  177.7420  144.6600 C   0  0  1  0  0  3  0  0  0  0  0  0
  190.5750  178.1380  143.2340 C   0  0  0  0  0  1  0  0  0  0  0  0
  189.6900  177.6820  145.4520 N   0  0  0  0  0  1  0  0  0  0  0  0
  188.6750  174.0350  139.6840 C   0  0  0  0  0  2  0  0  0  0  0  0
  190.0480  173.6460  139.0970 C   0  0  1  0  0  3  0  0  0  0  0  0
  192.3990  173.5140  139.9620 C   0  0  0  0  0  3  0  0  0  0  0  0
  191.0810  173.3870  140.1570 C   0  0  0  0  0  3  0  0  0  0  0  0
  192.9990  173.9720  138.6680 C   0  0  2  0  0  3  0  0  0  0  0  0
  193.8500  172.8900  138.0760 C   0  0  0  0  0  0  0  0  0  0  0  0
  194.6200  173.1660  136.9550 O   0  0  0  0  0  0  0  0  0  0  0  0
  193.8840  171.7380  138.5900 O   0  0  0  0  0  1  0  0  0  0  0  0
  193.8050  175.2480  138.9010 C   0  0  0  0  0  2  0  0  0  0  0  0
  195.0310  174.9530  139.6220 N   0  0  0  0  0  0  0  0  0  0  0  0
  195.2210  176.0040  140.5900 C   0  0  1  0  0  3  0  0  0  0  0  0
  194.6750  174.8160  140.9520 O   0  0  0  0  0  0  0  0  0  0  0  0
  196.5800  176.0360  141.0100 O   0  0  0  0  0  0  0  0  0  0  0  0
  196.9780  175.7360  142.3160 C   0  0  0  0  0  0  0  0  0  0  0  0
  197.8890  174.7970  142.5120 C   0  0  0  0  0  2  0  0  0  0  0  0
  196.4140  176.4540  143.4950 C   0  0  0  0  0  1  0  0  0  0  0  0
  189.9360  172.4600  138.1450 C   0  0  0  0  0  2  0  0  0  0  0  0
  190.1530  172.8950  136.7360 C   0  0  0  0  0  3  0  0  0  0  0  0
  190.9110  172.1650  135.9260 C   0  0  0  0  0  2  0  0  0  0  0  0
  1 37  1  6  0  0  0
  1  2  1  0  0  0  0
  1 12  1  0  0  0  0
  2  3  1  0  0  0  0
  3  5  1  0  0  0  0
  4  8  1  0  0  0  0
  5  6  1  0  0  0  0
  7  4  1  0  0  0  0
  8  6  1  0  0  0  0
  8 11  1  1  0  0  0
  9  7  1  0  0  0  0
  9  5  2  0  0  0  0
 11 10  1  0  0  0  0
 12 13  1  0  0  0  0
 13 14  1  0  0  0  0
 14 15  1  0  0  0  0
 16 17  1  0  0  0  0
 16 15  1  0  0  0  0
 19 18  1  0  0  0  0
 20 25  1  0  0  0  0
 20 23  1  0  0  0  0
 22 21  1  0  0  0  0
 22 19  1  0  0  0  0
 23 26  1  1  0  0  0
 23 18  1  0  0  0  0
 24 33  1  6  0  0  0
 25 24  1  0  0  0  0
 25 21  1  1  0  0  0
 27 17  1  6  0  0  0
 27 26  1  0  0  0  0
 27 24  1  0  0  0  0
 29 32  2  0  0  0  0
 30 33  1  0  0  0  0
 31 30  2  0  0  0  0
 31 29  1  0  0  0  0
 32 28  1  0  0  0  0
 33 28  2  0  0  0  0
 34 35  1  6  0  0  0
 34 29  1  0  0  0  0
 34 36  1  0  0  0  0
 38 53  1  1  0  0  0
 38 37  1  0  0  0  0
 38 40  1  0  0  0  0
 39 40  2  0  0  0  0
 41 45  1  1  0  0  0
 41 39  1  0  0  0  0
 42 44  1  0  0  0  0
 42 41  1  0  0  0  0
 43 42  2  0  0  0  0
 45 46  1  0  0  0  0
 46 47  1  0  0  0  0
 46 48  1  0  0  0  0
 47 48  1  0  0  0  0
 47 49  1  1  0  0  0
 49 50  1  0  0  0  0
 50 51  2  0  0  0  0
 50 52  1  0  0  0  0
 54 53  1  0  0  0  0
 55 54  2  0  0  0  0
M  END
>  <MODEL>
9

>  <REMARK>
 VINA RESULT:      -5.0      2.024      7.653
  Name = 
  24 active torsions:
  status: ('A' for Active; 'I' for Inactive)
    1  A    between atoms: C_1  and  C_53
    2  A    between atoms: N_3  and  C_38
    3  A    between atoms: C_4  and  O_35
    4  A    between atoms: C_4  and  C_37
    5  A    between atoms: C_5  and  C_37
    6  A    between atoms: C_5  and  O_40
    7  A    between atoms: C_6  and  C_53
    8  A    between atoms: C_7  and  C_20
    9  A    between atoms: C_8  and  C_22
   10  A    between atoms: C_8  and  C_43
   11  A    between atoms: C_10  and  C_32
   12  A    between atoms: C_11  and  O_50
   13  A    between atoms: C_12  and  O_50
   14  A    between atoms: C_19  and  O_40
   15  A    between atoms: C_19  and  C_49
   16  A    between atoms: C_20  and  C_22
   17  A    between atoms: C_22  and  C_46
   18  A    between atoms: C_27  and  C_54
   19  A    between atoms: O_28  and  C_44
   20  A    between atoms: C_33  and  C_52
   21  A    between atoms: O_35  and  C_43
   22  A    between atoms: C_38  and  C_53
   23  A    between atoms: C_43  and  C_51
   24  A    between atoms: C_51  and  C_54
                            x       y       z     vdW  Elec       q    Type
                         _______ _______ _______ _____ _____    ______ ____

>  <TORSDO>
F 24

$$$$
