=
 OpenBabel11052421253D

 32 36  0  0  0  0  0  0  0  0999 V2000
  187.2600  176.3450  142.0480 C   0  0  0  0  0  2  0  0  0  0  0  0
  190.9820  174.3260  143.4060 C   0  0  0  0  0  0  0  0  0  0  0  0
  191.8870  172.5770  138.9450 N   0  0  0  0  0  2  0  0  0  0  0  0
  193.2480  172.2310  139.3330 C   0  0  0  0  0  2  0  0  0  0  0  0
  192.8190  175.6040  144.5680 C   0  0  0  0  0  0  0  0  0  0  0  0
  194.1670  175.9980  144.6100 C   0  0  0  0  0  0  0  0  0  0  0  0
  188.8620  175.7090  143.8130 C   0  0  0  0  0  0  0  0  0  0  0  0
  189.1760  173.2180  142.0790 N   0  0  0  0  0  0  0  0  0  0  0  0
  185.6660  178.2160  142.7440 N   0  0  0  0  0  2  0  0  0  0  0  0
  188.1070  173.9450  142.2670 C   0  0  0  0  0  3  0  0  0  0  0  0
  191.0330  172.3920  140.1160 C   0  0  0  0  0  2  0  0  0  0  0  0
  190.5520  173.6150  142.2610 C   0  0  0  0  0  0  0  0  0  0  0  0
  191.4750  173.2620  141.2680 C   0  0  0  0  0  0  0  0  0  0  0  0
  193.2420  174.4240  142.4710 C   0  0  0  0  0  0  0  0  0  0  0  0
  187.6530  177.8240  143.9460 N   0  0  0  0  0  0  0  0  0  0  0  0
  188.1160  175.3350  142.7630 C   0  0  0  0  0  0  0  0  0  0  0  0
  194.6050  176.7860  145.6700 O   0  0  0  0  0  1  0  0  0  0  0  0
  188.9300  177.1560  144.2050 C   0  0  0  0  0  2  0  0  0  0  0  0
  186.8790  177.4900  142.9560 C   0  0  0  0  0  0  0  0  0  0  0  0
  193.7950  173.3050  140.2670 C   0  0  0  0  0  2  0  0  0  0  0  0
  192.8240  173.6440  141.3790 C   0  0  0  0  0  0  0  0  0  0  0  0
  194.5780  174.8330  142.5440 C   0  0  0  0  0  3  0  0  0  0  0  0
  189.7900  174.4990  144.7450 S   0  0  0  0  0  0  0  0  0  0  0  0
  191.9680  176.0880  145.6040 N   0  0  0  0  0  1  0  0  0  0  0  0
  192.3300  174.7930  143.4990 C   0  0  0  0  0  0  0  0  0  0  0  0
  195.0590  175.6080  143.5970 C   0  0  0  0  0  0  0  0  0  0  0  0
  184.7510  177.9330  141.6490 C   0  0  0  0  0  3  0  0  0  0  0  0
  183.4490  178.2310  142.0450 O   0  0  0  0  0  1  0  0  0  0  0  0
  185.0870  178.7110  140.5420 O   0  0  0  0  0  1  0  0  0  0  0  0
  196.4880  175.9960  143.6010 C   0  0  0  0  0  0  0  0  0  0  0  0
  197.4750  175.1040  144.0010 O   0  0  0  0  0  1  0  0  0  0  0  0
  196.8280  177.1530  143.2340 O   0  0  0  0  0  0  0  0  0  0  0  0
  1 16  1  0  0  0  0
  1 19  1  0  0  0  0
  2 25  1  0  0  0  0
  2 23  1  0  0  0  0
  3  4  1  0  0  0  0
  3 11  1  0  0  0  0
  4 20  1  0  0  0  0
  5  6  1  0  0  0  0
  5 24  1  0  0  0  0
  6 17  1  0  0  0  0
  7 18  1  0  0  0  0
  7 23  1  0  0  0  0
  8 12  1  0  0  0  0
  8 10  2  0  0  0  0
  9 19  1  0  0  0  0
 10 16  1  0  0  0  0
 11 13  1  0  0  0  0
 12  2  2  0  0  0  0
 13 21  2  0  0  0  0
 13 12  1  0  0  0  0
 14 22  2  0  0  0  0
 14 25  1  0  0  0  0
 15 18  1  0  0  0  0
 16  7  2  0  0  0  0
 19 15  2  0  0  0  0
 20 21  1  0  0  0  0
 21 14  1  0  0  0  0
 22 26  1  0  0  0  0
 25  5  2  0  0  0  0
 26 30  1  0  0  0  0
 26  6  2  0  0  0  0
 27 28  1  0  0  0  0
 27  9  1  0  0  0  0
 29 27  1  0  0  0  0
 30 31  1  0  0  0  0
 32 30  2  0  0  0  0
M  END
>  <MODEL>
1

>  <REMARK>
 VINA RESULT:      -7.1      0.000      0.000
  Name = 
  2 active torsions:
  status: ('A' for Active; 'I' for Inactive)
    1  A    between atoms: C_1  and  N_10
    2  A    between atoms: C_11  and  C_32
                            x       y       z     vdW  Elec       q    Type
                         _______ _______ _______ _____ _____    ______ ____

>  <TORSDO>
F 2

$$$$
=
 OpenBabel11052421253D

 32 36  0  0  0  0  0  0  0  0999 V2000
  187.3740  177.3740  145.9270 C   0  0  0  0  0  2  0  0  0  0  0  0
  190.0720  175.8030  142.7610 C   0  0  0  0  0  0  0  0  0  0  0  0
  193.3940  174.3780  146.0330 N   0  0  0  0  0  2  0  0  0  0  0  0
  194.0760  173.5780  145.0250 C   0  0  0  0  0  2  0  0  0  0  0  0
  189.2700  174.1060  141.0760 C   0  0  0  0  0  0  0  0  0  0  0  0
  189.4200  172.8430  140.4800 C   0  0  0  0  0  0  0  0  0  0  0  0
  187.9450  176.9910  143.5570 C   0  0  0  0  0  0  0  0  0  0  0  0
  190.7920  177.3370  144.5990 N   0  0  0  0  0  0  0  0  0  0  0  0
  184.9250  178.0030  146.2960 N   0  0  0  0  0  2  0  0  0  0  0  0
  189.7000  177.9160  145.0200 C   0  0  0  0  0  3  0  0  0  0  0  0
  192.8500  175.5590  145.3670 C   0  0  0  0  0  2  0  0  0  0  0  0
  190.9030  176.0980  143.8660 C   0  0  0  0  0  0  0  0  0  0  0  0
  191.8820  175.1800  144.2710 C   0  0  0  0  0  0  0  0  0  0  0  0
  191.1410  173.6090  142.5670 C   0  0  0  0  0  0  0  0  0  0  0  0
  185.6150  176.9990  144.2810 N   0  0  0  0  0  0  0  0  0  0  0  0
  188.3350  177.4130  144.7700 C   0  0  0  0  0  0  0  0  0  0  0  0
  188.5520  172.4750  139.4560 O   0  0  0  0  0  1  0  0  0  0  0  0
  186.5870  176.3780  143.3800 C   0  0  0  0  0  2  0  0  0  0  0  0
  185.9400  177.4450  145.4580 C   0  0  0  0  0  0  0  0  0  0  0  0
  193.0430  172.9420  144.1020 C   0  0  0  0  0  2  0  0  0  0  0  0
  192.0200  173.9460  143.6120 C   0  0  0  0  0  0  0  0  0  0  0  0
  191.2630  172.3590  141.9510 C   0  0  0  0  0  3  0  0  0  0  0  0
  189.0350  177.1420  142.1490 S   0  0  0  0  0  0  0  0  0  0  0  0
  188.1910  174.9170  140.6190 N   0  0  0  0  0  1  0  0  0  0  0  0
  190.1420  174.5230  142.1290 C   0  0  0  0  0  0  0  0  0  0  0  0
  190.4260  171.9620  140.9110 C   0  0  0  0  0  0  0  0  0  0  0  0
  185.1880  178.5010  147.6380 C   0  0  0  0  0  3  0  0  0  0  0  0
  185.8970  177.5410  148.3570 O   0  0  0  0  0  1  0  0  0  0  0  0
  185.9410  179.6720  147.5650 O   0  0  0  0  0  1  0  0  0  0  0  0
  190.6240  170.6220  140.3110 C   0  0  0  0  0  0  0  0  0  0  0  0
  191.0120  170.4790  138.9840 O   0  0  0  0  0  0  0  0  0  0  0  0
  190.4420  169.5860  141.0050 O   0  0  0  0  0  1  0  0  0  0  0  0
  2 12  1  0  0  0  0
  4  3  1  0  0  0  0
  5 25  1  0  0  0  0
  6 26  1  0  0  0  0
  6  5  2  0  0  0  0
  7 16  2  0  0  0  0
  8 10  2  0  0  0  0
  9 27  1  0  0  0  0
 11  3  1  0  0  0  0
 12 13  2  0  0  0  0
 12  8  1  0  0  0  0
 13 11  1  0  0  0  0
 14 21  2  0  0  0  0
 15 19  2  0  0  0  0
 16 10  1  0  0  0  0
 16  1  1  0  0  0  0
 17  6  1  0  0  0  0
 18  7  1  0  0  0  0
 18 15  1  0  0  0  0
 19  1  1  0  0  0  0
 19  9  1  0  0  0  0
 20  4  1  0  0  0  0
 21 20  1  0  0  0  0
 21 13  1  0  0  0  0
 22 14  1  0  0  0  0
 23  2  1  0  0  0  0
 23  7  1  0  0  0  0
 24  5  1  0  0  0  0
 25 14  1  0  0  0  0
 25  2  2  0  0  0  0
 26 22  2  0  0  0  0
 27 28  1  0  0  0  0
 29 27  1  0  0  0  0
 30 26  1  0  0  0  0
 30 32  1  0  0  0  0
 31 30  2  0  0  0  0
M  END
>  <MODEL>
2

>  <REMARK>
 VINA RESULT:      -7.0      3.952      5.546
  Name = 
  2 active torsions:
  status: ('A' for Active; 'I' for Inactive)
    1  A    between atoms: C_1  and  N_10
    2  A    between atoms: C_11  and  C_32
                            x       y       z     vdW  Elec       q    Type
                         _______ _______ _______ _____ _____    ______ ____

>  <TORSDO>
F 2

$$$$
=
 OpenBabel11052421253D

 32 36  0  0  0  0  0  0  0  0999 V2000
  187.8450  176.8440  143.4250 C   0  0  0  0  0  2  0  0  0  0  0  0
  191.3500  174.1100  143.5570 C   0  0  0  0  0  0  0  0  0  0  0  0
  191.6090  173.8990  138.6920 N   0  0  0  0  0  2  0  0  0  0  0  0
  192.9360  173.3030  138.7670 C   0  0  0  0  0  2  0  0  0  0  0  0
  193.4430  174.7200  144.8250 C   0  0  0  0  0  0  0  0  0  0  0  0
  194.8310  174.9360  144.8180 C   0  0  0  0  0  0  0  0  0  0  0  0
  189.4890  175.4830  144.6630 C   0  0  0  0  0  0  0  0  0  0  0  0
  189.2970  173.7130  142.1860 N   0  0  0  0  0  0  0  0  0  0  0  0
  186.5960  178.5210  144.8930 N   0  0  0  0  0  2  0  0  0  0  0  0
  188.3620  174.4380  142.7370 C   0  0  0  0  0  3  0  0  0  0  0  0
  190.8420  173.4160  139.8390 C   0  0  0  0  0  2  0  0  0  0  0  0
  190.7260  173.8800  142.3090 C   0  0  0  0  0  0  0  0  0  0  0  0
  191.5010  173.7920  141.1450 C   0  0  0  0  0  0  0  0  0  0  0  0
  193.5110  174.2870  142.4220 C   0  0  0  0  0  0  0  0  0  0  0  0
  188.6060  177.5410  145.6340 N   0  0  0  0  0  0  0  0  0  0  0  0
  188.6090  175.5680  143.6540 C   0  0  0  0  0  0  0  0  0  0  0  0
  195.4660  175.2670  146.0120 O   0  0  0  0  0  1  0  0  0  0  0  0
  189.7930  176.6960  145.4940 C   0  0  0  0  0  2  0  0  0  0  0  0
  187.7090  177.6450  144.6980 C   0  0  0  0  0  0  0  0  0  0  0  0
  193.7070  173.9340  139.9220 C   0  0  0  0  0  2  0  0  0  0  0  0
  192.8940  173.9720  141.1990 C   0  0  0  0  0  0  0  0  0  0  0  0
  194.8930  174.5070  142.4510 C   0  0  0  0  0  3  0  0  0  0  0  0
  190.3150  173.9410  145.0220 S   0  0  0  0  0  0  0  0  0  0  0  0
  192.7620  174.9080  146.0630 N   0  0  0  0  0  1  0  0  0  0  0  0
  192.7530  174.3760  143.6230 C   0  0  0  0  0  0  0  0  0  0  0  0
  195.5670  174.8230  143.6280 C   0  0  0  0  0  0  0  0  0  0  0  0
  185.5590  178.7230  143.8930 C   0  0  0  0  0  3  0  0  0  0  0  0
  184.4620  177.9180  144.1960 O   0  0  0  0  0  1  0  0  0  0  0  0
  185.1640  180.0600  143.8880 O   0  0  0  0  0  1  0  0  0  0  0  0
  197.0320  175.0370  143.5730 C   0  0  0  0  0  0  0  0  0  0  0  0
  197.5660  176.2440  143.1380 O   0  0  0  0  0  0  0  0  0  0  0  0
  197.8180  174.1190  143.9280 O   0  0  0  0  0  1  0  0  0  0  0  0
  1 16  1  0  0  0  0
  1 19  1  0  0  0  0
  2 25  1  0  0  0  0
  2 23  1  0  0  0  0
  3  4  1  0  0  0  0
  3 11  1  0  0  0  0
  4 20  1  0  0  0  0
  5 24  1  0  0  0  0
  6  5  1  0  0  0  0
  6 17  1  0  0  0  0
  7 23  1  0  0  0  0
  7 18  1  0  0  0  0
  8 12  1  0  0  0  0
  8 10  2  0  0  0  0
 10 16  1  0  0  0  0
 11 13  1  0  0  0  0
 12  2  2  0  0  0  0
 13 21  2  0  0  0  0
 13 12  1  0  0  0  0
 14 22  2  0  0  0  0
 14 25  1  0  0  0  0
 16  7  2  0  0  0  0
 18 15  1  0  0  0  0
 19  9  1  0  0  0  0
 19 15  2  0  0  0  0
 20 21  1  0  0  0  0
 21 14  1  0  0  0  0
 22 26  1  0  0  0  0
 25  5  2  0  0  0  0
 26  6  2  0  0  0  0
 27 28  1  0  0  0  0
 27  9  1  0  0  0  0
 29 27  1  0  0  0  0
 30 26  1  0  0  0  0
 30 32  1  0  0  0  0
 31 30  2  0  0  0  0
M  END
>  <MODEL>
3

>  <REMARK>
 VINA RESULT:      -6.9      1.380      1.548
  Name = 
  2 active torsions:
  status: ('A' for Active; 'I' for Inactive)
    1  A    between atoms: C_1  and  N_10
    2  A    between atoms: C_11  and  C_32
                            x       y       z     vdW  Elec       q    Type
                         _______ _______ _______ _____ _____    ______ ____

>  <TORSDO>
F 2

$$$$
=
 OpenBabel11052421253D

 32 36  0  0  0  0  0  0  0  0999 V2000
  193.3870  173.8350  141.6800 C   0  0  0  0  0  2  0  0  0  0  0  0
  189.7550  174.4460  144.1710 C   0  0  0  0  0  0  0  0  0  0  0  0
  192.3100  176.6470  147.6940 N   0  0  0  0  0  2  0  0  0  0  0  0
  191.0830  177.1330  148.3100 C   0  0  0  0  0  2  0  0  0  0  0  0
  187.7260  175.6380  143.2640 C   0  0  0  0  0  0  0  0  0  0  0  0
  186.8020  176.6900  143.3750 C   0  0  0  0  0  0  0  0  0  0  0  0
  190.9720  173.5530  142.1000 C   0  0  0  0  0  0  0  0  0  0  0  0
  191.8920  173.4550  145.0070 N   0  0  0  0  0  0  0  0  0  0  0  0
  194.0620  173.3700  139.2600 N   0  0  0  0  0  2  0  0  0  0  0  0
  192.5210  173.0290  143.9440 C   0  0  0  0  0  3  0  0  0  0  0  0
  192.0220  175.3390  147.1080 C   0  0  0  0  0  2  0  0  0  0  0  0
  190.8460  174.4470  145.0710 C   0  0  0  0  0  0  0  0  0  0  0  0
  190.9260  175.4240  146.0730 C   0  0  0  0  0  0  0  0  0  0  0  0
  188.9090  176.4870  145.2250 C   0  0  0  0  0  0  0  0  0  0  0  0
  191.8120  173.7800  139.8200 N   0  0  0  0  0  0  0  0  0  0  0  0
  192.2270  173.4690  142.5660 C   0  0  0  0  0  0  0  0  0  0  0  0
  185.7710  176.7810  142.4430 O   0  0  0  0  0  1  0  0  0  0  0  0
  190.7180  174.1180  140.7330 C   0  0  0  0  0  2  0  0  0  0  0  0
  193.0440  173.6640  140.2190 C   0  0  0  0  0  0  0  0  0  0  0  0
  190.0860  177.5130  147.2190 C   0  0  0  0  0  2  0  0  0  0  0  0
  189.9500  176.4310  146.1680 C   0  0  0  0  0  0  0  0  0  0  0  0
  187.9710  177.5220  145.3070 C   0  0  0  0  0  3  0  0  0  0  0  0
  189.5940  173.0090  143.0980 S   0  0  0  0  0  0  0  0  0  0  0  0
  187.5720  174.7510  142.1580 N   0  0  0  0  0  1  0  0  0  0  0  0
  188.7970  175.5060  144.2000 C   0  0  0  0  0  0  0  0  0  0  0  0
  186.9160  177.6370  144.4050 C   0  0  0  0  0  0  0  0  0  0  0  0
  195.4700  173.2480  139.6080 C   0  0  0  0  0  3  0  0  0  0  0  0
  196.0710  172.3020  138.7800 O   0  0  0  0  0  1  0  0  0  0  0  0
  196.1040  174.4780  139.4390 O   0  0  0  0  0  1  0  0  0  0  0  0
  185.9640  178.7610  144.5640 C   0  0  0  0  0  0  0  0  0  0  0  0
  185.8830  179.7750  143.6160 O   0  0  0  0  0  0  0  0  0  0  0  0
  185.2060  178.8090  145.5690 O   0  0  0  0  0  1  0  0  0  0  0  0
  1 16  1  0  0  0  0
  2 25  2  0  0  0  0
  2 12  1  0  0  0  0
  3  4  1  0  0  0  0
  5  6  2  0  0  0  0
  5 25  1  0  0  0  0
  6 26  1  0  0  0  0
  7 16  2  0  0  0  0
  7 23  1  0  0  0  0
  8 12  1  0  0  0  0
  9 27  1  0  0  0  0
  9 19  1  0  0  0  0
 10  8  2  0  0  0  0
 11  3  1  0  0  0  0
 12 13  2  0  0  0  0
 13 21  1  0  0  0  0
 13 11  1  0  0  0  0
 14 22  1  0  0  0  0
 14 21  2  0  0  0  0
 15 19  2  0  0  0  0
 15 18  1  0  0  0  0
 16 10  1  0  0  0  0
 17  6  1  0  0  0  0
 18  7  1  0  0  0  0
 19  1  1  0  0  0  0
 20  4  1  0  0  0  0
 21 20  1  0  0  0  0
 23  2  1  0  0  0  0
 24  5  1  0  0  0  0
 25 14  1  0  0  0  0
 26 30  1  0  0  0  0
 26 22  2  0  0  0  0
 28 27  1  0  0  0  0
 29 27  1  0  0  0  0
 30 32  1  0  0  0  0
 31 30  2  0  0  0  0
M  END
>  <MODEL>
4

>  <REMARK>
 VINA RESULT:      -6.9      2.695      8.034
  Name = 
  2 active torsions:
  status: ('A' for Active; 'I' for Inactive)
    1  A    between atoms: C_1  and  N_10
    2  A    between atoms: C_11  and  C_32
                            x       y       z     vdW  Elec       q    Type
                         _______ _______ _______ _____ _____    ______ ____

>  <TORSDO>
F 2

$$$$
=
 OpenBabel11052421253D

 32 36  0  0  0  0  0  0  0  0999 V2000
  187.7880  177.5310  144.5890 C   0  0  0  0  0  2  0  0  0  0  0  0
  191.0740  175.0450  142.9170 C   0  0  0  0  0  0  0  0  0  0  0  0
  194.1190  176.3190  146.5060 N   0  0  0  0  0  2  0  0  0  0  0  0
  195.0360  175.2490  146.1380 C   0  0  0  0  0  2  0  0  0  0  0  0
  190.7550  172.5860  142.4570 C   0  0  0  0  0  0  0  0  0  0  0  0
  191.1650  171.2600  142.6760 C   0  0  0  0  0  0  0  0  0  0  0  0
  188.7100  176.0350  142.8570 C   0  0  0  0  0  0  0  0  0  0  0  0
  191.3160  177.4390  143.5950 N   0  0  0  0  0  0  0  0  0  0  0  0
  185.2460  177.7690  144.4810 N   0  0  0  0  0  2  0  0  0  0  0  0
  190.1060  177.9290  143.5920 C   0  0  0  0  0  3  0  0  0  0  0  0
  193.4970  176.8100  145.2790 C   0  0  0  0  0  2  0  0  0  0  0  0
  191.7030  176.0510  143.6870 C   0  0  0  0  0  0  0  0  0  0  0  0
  192.7450  175.7150  144.5610 C   0  0  0  0  0  0  0  0  0  0  0  0
  192.4700  173.3600  144.0140 C   0  0  0  0  0  0  0  0  0  0  0  0
  186.3300  175.9840  143.3940 N   0  0  0  0  0  0  0  0  0  0  0  0
  188.8740  177.1170  143.6340 C   0  0  0  0  0  0  0  0  0  0  0  0
  190.5010  170.2320  142.0130 O   0  0  0  0  0  1  0  0  0  0  0  0
  187.4920  175.1740  143.0210 C   0  0  0  0  0  2  0  0  0  0  0  0
  186.4310  177.0530  144.1260 C   0  0  0  0  0  0  0  0  0  0  0  0
  194.2350  174.0250  145.7050 C   0  0  0  0  0  2  0  0  0  0  0  0
  193.1480  174.3760  144.7110 C   0  0  0  0  0  0  0  0  0  0  0  0
  192.8540  172.0290  144.2090 C   0  0  0  0  0  3  0  0  0  0  0  0
  189.9380  175.6000  141.6340 S   0  0  0  0  0  0  0  0  0  0  0  0
  189.6370  172.7870  141.5960 N   0  0  0  0  0  1  0  0  0  0  0  0
  191.4120  173.6700  143.1150 C   0  0  0  0  0  0  0  0  0  0  0  0
  192.2260  170.9740  143.5510 C   0  0  0  0  0  0  0  0  0  0  0  0
  185.2580  178.9600  145.3180 C   0  0  0  0  0  3  0  0  0  0  0  0
  185.3840  180.0900  144.5120 O   0  0  0  0  0  1  0  0  0  0  0  0
  184.0680  179.0390  146.0400 O   0  0  0  0  0  1  0  0  0  0  0  0
  192.6940  169.5930  143.8110 C   0  0  0  0  0  0  0  0  0  0  0  0
  193.1460  168.7810  142.7780 O   0  0  0  0  0  0  0  0  0  0  0  0
  192.6910  169.1360  144.9850 O   0  0  0  0  0  1  0  0  0  0  0  0
  2 25  2  0  0  0  0
  2 12  1  0  0  0  0
  4  3  1  0  0  0  0
  5  6  2  0  0  0  0
  5 25  1  0  0  0  0
  6 26  1  0  0  0  0
  7 18  1  0  0  0  0
  7 16  2  0  0  0  0
  8 12  1  0  0  0  0
  9 27  1  0  0  0  0
 10  8  2  0  0  0  0
 10 16  1  0  0  0  0
 11  3  1  0  0  0  0
 12 13  2  0  0  0  0
 13 21  1  0  0  0  0
 13 11  1  0  0  0  0
 14 22  1  0  0  0  0
 14 21  2  0  0  0  0
 15 19  2  0  0  0  0
 16  1  1  0  0  0  0
 17  6  1  0  0  0  0
 18 15  1  0  0  0  0
 19  9  1  0  0  0  0
 19  1  1  0  0  0  0
 20  4  1  0  0  0  0
 21 20  1  0  0  0  0
 23  7  1  0  0  0  0
 23  2  1  0  0  0  0
 24  5  1  0  0  0  0
 25 14  1  0  0  0  0
 26 30  1  0  0  0  0
 26 22  2  0  0  0  0
 27 29  1  0  0  0  0
 28 27  1  0  0  0  0
 30 32  1  0  0  0  0
 31 30  2  0  0  0  0
M  END
>  <MODEL>
5

>  <REMARK>
 VINA RESULT:      -6.8      3.391      5.044
  Name = 
  2 active torsions:
  status: ('A' for Active; 'I' for Inactive)
    1  A    between atoms: C_1  and  N_10
    2  A    between atoms: C_11  and  C_32
                            x       y       z     vdW  Elec       q    Type
                         _______ _______ _______ _____ _____    ______ ____

>  <TORSDO>
F 2

$$$$
=
 OpenBabel11052421253D

 32 36  0  0  0  0  0  0  0  0999 V2000
  191.6300  176.2810  144.4570 C   0  0  0  0  0  2  0  0  0  0  0  0
  188.1430  175.0990  141.9630 C   0  0  0  0  0  0  0  0  0  0  0  0
  185.5920  179.0220  143.3340 N   0  0  0  0  0  2  0  0  0  0  0  0
  184.6300  178.7970  142.2630 C   0  0  0  0  0  2  0  0  0  0  0  0
  188.3880  174.6540  139.4920 C   0  0  0  0  0  0  0  0  0  0  0  0
  188.0030  174.9520  138.1750 C   0  0  0  0  0  0  0  0  0  0  0  0
  190.4850  174.7150  142.9330 C   0  0  0  0  0  0  0  0  0  0  0  0
  188.0020  175.7520  144.3720 N   0  0  0  0  0  0  0  0  0  0  0  0
  194.1380  175.8430  144.6730 N   0  0  0  0  0  2  0  0  0  0  0  0
  189.2050  175.5830  144.8520 C   0  0  0  0  0  3  0  0  0  0  0  0
  186.0530  177.7140  143.7950 C   0  0  0  0  0  2  0  0  0  0  0  0
  187.6240  175.9220  142.9890 C   0  0  0  0  0  0  0  0  0  0  0  0
  186.7010  176.9290  142.6790 C   0  0  0  0  0  0  0  0  0  0  0  0
  186.8910  176.4020  140.3120 C   0  0  0  0  0  0  0  0  0  0  0  0
  192.9140  174.9430  142.8740 N   0  0  0  0  0  0  0  0  0  0  0  0
  190.4280  175.4830  144.0320 C   0  0  0  0  0  0  0  0  0  0  0  0
  188.5710  174.2320  137.1280 O   0  0  0  0  0  1  0  0  0  0  0  0
  191.7100  174.7390  142.0660 C   0  0  0  0  0  2  0  0  0  0  0  0
  192.9130  175.6590  143.9590 C   0  0  0  0  0  0  0  0  0  0  0  0
  185.3620  178.2910  141.0250 C   0  0  0  0  0  2  0  0  0  0  0  0
  186.3140  177.1590  141.3470 C   0  0  0  0  0  0  0  0  0  0  0  0
  186.5290  176.6730  138.9870 C   0  0  0  0  0  3  0  0  0  0  0  0
  189.1080  173.6700  142.4820 S   0  0  0  0  0  0  0  0  0  0  0  0
  189.3870  173.6530  139.6670 N   0  0  0  0  0  1  0  0  0  0  0  0
  187.8260  175.3680  140.5950 C   0  0  0  0  0  0  0  0  0  0  0  0
  187.0620  175.9630  137.9150 C   0  0  0  0  0  0  0  0  0  0  0  0
  194.2400  176.6490  145.8810 C   0  0  0  0  0  3  0  0  0  0  0  0
  194.9150  175.9260  146.8630 O   0  0  0  0  0  1  0  0  0  0  0  0
  194.9420  177.8220  145.6060 O   0  0  0  0  0  1  0  0  0  0  0  0
  186.6240  176.3100  136.5430 C   0  0  0  0  0  0  0  0  0  0  0  0
  187.4630  176.9930  135.6710 O   0  0  0  0  0  0  0  0  0  0  0  0
  185.4730  175.9830  136.1470 O   0  0  0  0  0  1  0  0  0  0  0  0
  2 23  1  0  0  0  0
  2 12  1  0  0  0  0
  3 11  1  0  0  0  0
  4  3  1  0  0  0  0
  5 24  1  0  0  0  0
  5 25  1  0  0  0  0
  6  5  2  0  0  0  0
  7 16  2  0  0  0  0
  8 10  2  0  0  0  0
  9 27  1  0  0  0  0
 12  8  1  0  0  0  0
 13 12  2  0  0  0  0
 13 11  1  0  0  0  0
 14 25  1  0  0  0  0
 14 21  2  0  0  0  0
 15 19  2  0  0  0  0
 16  1  1  0  0  0  0
 16 10  1  0  0  0  0
 17  6  1  0  0  0  0
 18 15  1  0  0  0  0
 18  7  1  0  0  0  0
 19  1  1  0  0  0  0
 19  9  1  0  0  0  0
 20 21  1  0  0  0  0
 20  4  1  0  0  0  0
 21 13  1  0  0  0  0
 22 14  1  0  0  0  0
 23  7  1  0  0  0  0
 25  2  2  0  0  0  0
 26  6  1  0  0  0  0
 26 22  2  0  0  0  0
 27 28  1  0  0  0  0
 29 27  1  0  0  0  0
 30 26  1  0  0  0  0
 31 30  2  0  0  0  0
 32 30  1  0  0  0  0
M  END
>  <MODEL>
6

>  <REMARK>
 VINA RESULT:      -6.7      2.784      8.274
  Name = 
  2 active torsions:
  status: ('A' for Active; 'I' for Inactive)
    1  A    between atoms: C_1  and  N_10
    2  A    between atoms: C_11  and  C_32
                            x       y       z     vdW  Elec       q    Type
                         _______ _______ _______ _____ _____    ______ ____

>  <TORSDO>
F 2

$$$$
=
 OpenBabel11052421253D

 32 36  0  0  0  0  0  0  0  0999 V2000
  193.7480  175.4190  143.9900 C   0  0  0  0  0  2  0  0  0  0  0  0
  189.3370  174.9430  143.6930 C   0  0  0  0  0  0  0  0  0  0  0  0
  188.5830  177.6930  147.6480 N   0  0  0  0  0  2  0  0  0  0  0  0
  187.1660  177.8060  147.3270 C   0  0  0  0  0  2  0  0  0  0  0  0
  188.0910  175.5420  141.5830 C   0  0  0  0  0  0  0  0  0  0  0  0
  187.0830  176.2930  140.9570 C   0  0  0  0  0  0  0  0  0  0  0  0
  191.7360  174.4670  142.9260 C   0  0  0  0  0  0  0  0  0  0  0  0
  190.6620  174.5680  145.7800 N   0  0  0  0  0  0  0  0  0  0  0  0
  195.8540  175.2110  142.5590 N   0  0  0  0  0  2  0  0  0  0  0  0
  191.8880  174.3570  145.3830 C   0  0  0  0  0  3  0  0  0  0  0  0
  189.0290  176.3700  147.2190 C   0  0  0  0  0  2  0  0  0  0  0  0
  189.6040  175.2290  145.0520 C   0  0  0  0  0  0  0  0  0  0  0  0
  188.8220  176.1680  145.7370 C   0  0  0  0  0  0  0  0  0  0  0  0
  187.5780  176.6460  143.7010 C   0  0  0  0  0  0  0  0  0  0  0  0
  193.7190  174.9670  141.5950 N   0  0  0  0  0  0  0  0  0  0  0  0
  192.4140  174.7260  144.0540 C   0  0  0  0  0  0  0  0  0  0  0  0
  186.8590  176.1140  139.5940 O   0  0  0  0  0  1  0  0  0  0  0  0
  192.2560  174.9690  141.6100 C   0  0  0  0  0  2  0  0  0  0  0  0
  194.4280  175.1900  142.6620 C   0  0  0  0  0  0  0  0  0  0  0  0
  186.9990  177.9160  145.8150 C   0  0  0  0  0  2  0  0  0  0  0  0
  187.7950  176.8620  145.0740 C   0  0  0  0  0  0  0  0  0  0  0  0
  186.5810  177.3770  143.0460 C   0  0  0  0  0  3  0  0  0  0  0  0
  190.2090  173.5410  142.9750 S   0  0  0  0  0  0  0  0  0  0  0  0
  188.8610  174.6720  140.7590 N   0  0  0  0  0  1  0  0  0  0  0  0
  188.3520  175.6940  142.9800 C   0  0  0  0  0  0  0  0  0  0  0  0
  186.3150  177.2130  141.6890 C   0  0  0  0  0  0  0  0  0  0  0  0
  196.7280  175.4790  143.6910 C   0  0  0  0  0  3  0  0  0  0  0  0
  197.9410  174.8190  143.5050 O   0  0  0  0  0  1  0  0  0  0  0  0
  196.9590  176.8500  143.7930 O   0  0  0  0  0  1  0  0  0  0  0  0
  185.2400  178.0240  141.0710 C   0  0  0  0  0  0  0  0  0  0  0  0
  183.9880  178.1310  141.6650 O   0  0  0  0  0  1  0  0  0  0  0  0
  185.4530  178.6360  139.9900 O   0  0  0  0  0  0  0  0  0  0  0  0
  1 16  1  0  0  0  0
  2 12  1  0  0  0  0
  4  3  1  0  0  0  0
  5 25  1  0  0  0  0
  6  5  2  0  0  0  0
  6 26  1  0  0  0  0
  7 23  1  0  0  0  0
  7 16  2  0  0  0  0
  9 19  1  0  0  0  0
  9 27  1  0  0  0  0
 10  8  2  0  0  0  0
 11  3  1  0  0  0  0
 12 13  2  0  0  0  0
 12  8  1  0  0  0  0
 13 11  1  0  0  0  0
 14 21  2  0  0  0  0
 15 18  1  0  0  0  0
 15 19  2  0  0  0  0
 16 10  1  0  0  0  0
 17  6  1  0  0  0  0
 18  7  1  0  0  0  0
 19  1  1  0  0  0  0
 20  4  1  0  0  0  0
 21 13  1  0  0  0  0
 21 20  1  0  0  0  0
 22 14  1  0  0  0  0
 23  2  1  0  0  0  0
 24  5  1  0  0  0  0
 25  2  2  0  0  0  0
 25 14  1  0  0  0  0
 26 22  2  0  0  0  0
 27 29  1  0  0  0  0
 28 27  1  0  0  0  0
 30 31  1  0  0  0  0
 30 26  1  0  0  0  0
 32 30  2  0  0  0  0
M  END
>  <MODEL>
7

>  <REMARK>
 VINA RESULT:      -6.7      2.055      8.531
  Name = 
  2 active torsions:
  status: ('A' for Active; 'I' for Inactive)
    1  A    between atoms: C_1  and  N_10
    2  A    between atoms: C_11  and  C_32
                            x       y       z     vdW  Elec       q    Type
                         _______ _______ _______ _____ _____    ______ ____

>  <TORSDO>
F 2

$$$$
=
 OpenBabel11052421253D

 32 36  0  0  0  0  0  0  0  0999 V2000
  188.4760  175.7520  144.5970 C   0  0  0  0  0  2  0  0  0  0  0  0
  192.5490  174.0510  144.0630 C   0  0  0  0  0  0  0  0  0  0  0  0
  190.9100  170.5730  141.0650 N   0  0  0  0  0  2  0  0  0  0  0  0
  192.2700  170.2640  140.6440 C   0  0  0  0  0  2  0  0  0  0  0  0
  194.4740  175.4780  143.2760 C   0  0  0  0  0  0  0  0  0  0  0  0
  195.4960  175.7040  142.3390 C   0  0  0  0  0  0  0  0  0  0  0  0
  190.8900  175.7050  145.1030 C   0  0  0  0  0  0  0  0  0  0  0  0
  190.5230  172.7100  144.6510 N   0  0  0  0  0  0  0  0  0  0  0  0
  187.3210  177.9090  145.3350 N   0  0  0  0  0  2  0  0  0  0  0  0
  189.6710  173.5640  145.1520 C   0  0  0  0  0  3  0  0  0  0  0  0
  190.9610  170.9680  142.4700 C   0  0  0  0  0  2  0  0  0  0  0  0
  191.6500  172.9930  143.7940 C   0  0  0  0  0  0  0  0  0  0  0  0
  191.8480  172.1730  142.6760 C   0  0  0  0  0  0  0  0  0  0  0  0
  193.7610  173.5180  142.0040 C   0  0  0  0  0  0  0  0  0  0  0  0
  189.6650  177.8150  145.1210 N   0  0  0  0  0  0  0  0  0  0  0  0
  189.7410  175.0260  144.9640 C   0  0  0  0  0  0  0  0  0  0  0  0
  196.3390  176.7990  142.5140 O   0  0  0  0  0  1  0  0  0  0  0  0
  190.9350  177.1710  144.7850 C   0  0  0  0  0  2  0  0  0  0  0  0
  188.5240  177.2000  145.0260 C   0  0  0  0  0  0  0  0  0  0  0  0
  193.0760  171.5560  140.5560 C   0  0  0  0  0  2  0  0  0  0  0  0
  192.9140  172.4160  141.7920 C   0  0  0  0  0  0  0  0  0  0  0  0
  194.7900  173.7720  141.0900 C   0  0  0  0  0  3  0  0  0  0  0  0
  192.3740  174.8770  145.6540 S   0  0  0  0  0  0  0  0  0  0  0  0
  194.3370  176.4270  144.3300 N   0  0  0  0  0  1  0  0  0  0  0  0
  193.5900  174.3650  143.1340 C   0  0  0  0  0  0  0  0  0  0  0  0
  195.6640  174.8460  141.2400 C   0  0  0  0  0  0  0  0  0  0  0  0
  185.9980  177.3120  145.2320 C   0  0  0  0  0  3  0  0  0  0  0  0
  185.5310  177.0010  146.5070 O   0  0  0  0  0  1  0  0  0  0  0  0
  185.1230  178.2120  144.6260 O   0  0  0  0  0  1  0  0  0  0  0  0
  196.7280  175.0430  140.2290 C   0  0  0  0  0  0  0  0  0  0  0  0
  196.4190  175.3320  138.9060 O   0  0  0  0  0  0  0  0  0  0  0  0
  197.9400  174.9530  140.5630 O   0  0  0  0  0  1  0  0  0  0  0  0
  1 16  1  0  0  0  0
  1 19  1  0  0  0  0
  2 23  1  0  0  0  0
  3 11  1  0  0  0  0
  4  3  1  0  0  0  0
  5 24  1  0  0  0  0
  6 17  1  0  0  0  0
  6  5  2  0  0  0  0
  7 23  1  0  0  0  0
  8 10  2  0  0  0  0
 11 13  1  0  0  0  0
 12  2  1  0  0  0  0
 12  8  1  0  0  0  0
 13 12  2  0  0  0  0
 14 25  1  0  0  0  0
 16  7  2  0  0  0  0
 16 10  1  0  0  0  0
 18  7  1  0  0  0  0
 18 15  1  0  0  0  0
 19 15  2  0  0  0  0
 19  9  1  0  0  0  0
 20  4  1  0  0  0  0
 20 21  1  0  0  0  0
 21 14  2  0  0  0  0
 21 13  1  0  0  0  0
 22 26  2  0  0  0  0
 22 14  1  0  0  0  0
 25  5  1  0  0  0  0
 25  2  2  0  0  0  0
 26  6  1  0  0  0  0
 27  9  1  0  0  0  0
 27 28  1  0  0  0  0
 29 27  1  0  0  0  0
 30 32  1  0  0  0  0
 30 26  1  0  0  0  0
 31 30  2  0  0  0  0
M  END
>  <MODEL>
8

>  <REMARK>
 VINA RESULT:      -6.4      2.353      2.901
  Name = 
  2 active torsions:
  status: ('A' for Active; 'I' for Inactive)
    1  A    between atoms: C_1  and  N_10
    2  A    between atoms: C_11  and  C_32
                            x       y       z     vdW  Elec       q    Type
                         _______ _______ _______ _____ _____    ______ ____

>  <TORSDO>
F 2

$$$$
=
 OpenBabel11052421253D

 32 36  0  0  0  0  0  0  0  0999 V2000
  190.9770  173.1500  139.2920 C   0  0  0  0  0  2  0  0  0  0  0  0
  192.2470  173.3840  143.5470 C   0  0  0  0  0  0  0  0  0  0  0  0
  195.9370  176.3870  142.4790 N   0  0  0  0  0  2  0  0  0  0  0  0
  196.1080  176.7140  143.8880 C   0  0  0  0  0  2  0  0  0  0  0  0
  190.6400  174.0870  145.3590 C   0  0  0  0  0  0  0  0  0  0  0  0
  190.3240  174.9640  146.4100 C   0  0  0  0  0  0  0  0  0  0  0  0
  190.7580  172.4930  141.6600 C   0  0  0  0  0  0  0  0  0  0  0  0
  193.7840  172.8890  141.6380 N   0  0  0  0  0  0  0  0  0  0  0  0
  188.9410  172.5430  137.8730 N   0  0  0  0  0  2  0  0  0  0  0  0
  193.0160  172.4650  140.6710 C   0  0  0  0  0  3  0  0  0  0  0  0
  195.5120  174.9920  142.3970 C   0  0  0  0  0  2  0  0  0  0  0  0
  193.3990  173.6810  142.7830 C   0  0  0  0  0  0  0  0  0  0  0  0
  194.2160  174.7630  143.1380 C   0  0  0  0  0  0  0  0  0  0  0  0
  192.6890  175.3490  144.9390 C   0  0  0  0  0  0  0  0  0  0  0  0
  188.7900  172.6070  140.2220 N   0  0  0  0  0  0  0  0  0  0  0  0
  191.5580  172.6870  140.6000 C   0  0  0  0  0  0  0  0  0  0  0  0
  189.1440  174.7640  147.1210 O   0  0  0  0  0  1  0  0  0  0  0  0
  189.3020  172.8470  141.5720 C   0  0  0  0  0  2  0  0  0  0  0  0
  189.5250  172.7580  139.1600 C   0  0  0  0  0  0  0  0  0  0  0  0
  194.7400  176.7850  144.5590 C   0  0  0  0  0  2  0  0  0  0  0  0
  193.8780  175.5850  144.2270 C   0  0  0  0  0  0  0  0  0  0  0  0
  192.3450  176.2030  145.9930 C   0  0  0  0  0  3  0  0  0  0  0  0
  191.4140  171.8290  143.1840 S   0  0  0  0  0  0  0  0  0  0  0  0
  189.6910  173.0680  145.0560 N   0  0  0  0  0  1  0  0  0  0  0  0
  191.8420  174.2540  144.6070 C   0  0  0  0  0  0  0  0  0  0  0  0
  191.1820  176.0260  146.7380 C   0  0  0  0  0  0  0  0  0  0  0  0
  189.6770  172.7130  136.6290 C   0  0  0  0  0  3  0  0  0  0  0  0
  189.3410  171.6870  135.7480 O   0  0  0  0  0  1  0  0  0  0  0  0
  189.3500  173.9400  136.0530 O   0  0  0  0  0  1  0  0  0  0  0  0
  190.8920  176.9740  147.8400 C   0  0  0  0  0  0  0  0  0  0  0  0
  189.8810  177.9200  147.7270 O   0  0  0  0  0  0  0  0  0  0  0  0
  191.5660  176.9300  148.9040 O   0  0  0  0  0  1  0  0  0  0  0  0
  1 16  1  0  0  0  0
  2 25  1  0  0  0  0
  3  4  1  0  0  0  0
  4 20  1  0  0  0  0
  5  6  1  0  0  0  0
  6 26  2  0  0  0  0
  6 17  1  0  0  0  0
  7 23  1  0  0  0  0
  8 12  1  0  0  0  0
  9 19  1  0  0  0  0
 10  8  2  0  0  0  0
 11  3  1  0  0  0  0
 11 13  1  0  0  0  0
 12 13  1  0  0  0  0
 12  2  2  0  0  0  0
 13 21  2  0  0  0  0
 14 22  2  0  0  0  0
 15 18  1  0  0  0  0
 16 10  1  0  0  0  0
 16  7  2  0  0  0  0
 18  7  1  0  0  0  0
 19  1  1  0  0  0  0
 19 15  2  0  0  0  0
 21 20  1  0  0  0  0
 21 14  1  0  0  0  0
 22 26  1  0  0  0  0
 23  2  1  0  0  0  0
 24  5  1  0  0  0  0
 25 14  1  0  0  0  0
 25  5  2  0  0  0  0
 26 30  1  0  0  0  0
 27  9  1  0  0  0  0
 28 27  1  0  0  0  0
 29 27  1  0  0  0  0
 30 32  1  0  0  0  0
 31 30  2  0  0  0  0
M  END
>  <MODEL>
9

>  <REMARK>
 VINA RESULT:      -6.4      4.071      5.816
  Name = 
  2 active torsions:
  status: ('A' for Active; 'I' for Inactive)
    1  A    between atoms: C_1  and  N_10
    2  A    between atoms: C_11  and  C_32
                            x       y       z     vdW  Elec       q    Type
                         _______ _______ _______ _____ _____    ______ ____

>  <TORSDO>
F 2

$$$$
