=
 OpenBabel11052420513D

 43 48  0  0  1  0  0  0  0  0999 V2000
  191.9040  171.2430  137.3650 C   0  0  0  0  0  0  0  0  0  0  0  0
  189.0940  174.2620  140.3710 N   0  0  1  0  0  0  0  0  0  0  0  0
  188.8980  172.8500  142.9570 C   0  0  2  0  0  3  0  0  0  0  0  0
  190.3810  173.0660  138.2660 C   0  0  1  0  0  3  0  0  0  0  0  0
  192.2540  170.9240  138.6220 C   0  0  0  0  0  3  0  0  0  0  0  0
  192.4570  170.5520  136.3370 F   0  0  0  0  0  0  0  0  0  0  0  0
  190.3110  172.2090  139.5360 C   0  0  1  0  0  3  0  0  0  0  0  0
  190.7920  172.2200  137.0620 C   0  0  0  0  0  2  0  0  0  0  0  0
  191.6930  171.6350  139.8230 C   0  0  0  0  0  2  0  0  0  0  0  0
  189.0620  172.1860  141.6550 N   0  0  0  0  0  2  0  0  0  0  0  0
  189.8390  173.0320  140.7450 C   0  0  2  0  0  3  0  0  0  0  0  0
  188.2150  173.9890  139.2330 C   0  0  0  0  0  2  0  0  0  0  0  0
  188.2490  174.7650  141.4680 C   0  0  1  0  0  3  0  0  0  0  0  0
  188.7730  174.3740  142.8470 C   0  0  0  0  0  2  0  0  0  0  0  0
  189.0460  173.7540  137.9690 C   0  0  0  0  0  2  0  0  0  0  0  0
  189.9850  172.4760  143.9200 C   0  0  0  0  0  0  0  0  0  0  0  0
  191.3350  172.8370  143.6210 N   0  0  0  0  0  2  0  0  0  0  0  0
  189.7150  171.8480  144.9800 O   0  0  0  0  0  0  0  0  0  0  0  0
  193.7590  172.5610  143.7740 C   0  0  0  0  0  2  0  0  0  0  0  0
  193.4100  173.7460  144.6530 C   0  0  2  0  0  3  0  0  0  0  0  0
  192.4440  172.5610  144.5290 C   0  0  1  0  0  3  0  0  0  0  0  0
  193.0940  174.9490  143.7620 C   0  0  2  0  0  3  0  0  0  0  0  0
  194.3250  175.3520  142.9620 C   0  0  0  0  0  1  0  0  0  0  0  0
  192.5020  176.1220  144.5640 C   0  0  1  0  0  3  0  0  0  0  0  0
  191.1810  176.6360  144.0000 C   0  0  0  0  0  2  0  0  0  0  0  0
  191.3200  178.0760  143.5460 C   0  0  0  0  0  1  0  0  0  0  0  0
  192.3220  175.7360  146.0260 C   0  0  0  0  0  2  0  0  0  0  0  0
  192.0540  176.8820  146.7910 O   0  0  0  0  0  0  0  0  0  0  0  0
  189.8620  177.6880  147.6680 C   0  0  0  0  0  2  0  0  0  0  0  0
  190.4800  175.1780  147.6780 C   0  0  0  0  0  2  0  0  0  0  0  0
  188.2610  175.9550  146.8100 C   0  0  0  0  0  2  0  0  0  0  0  0
  189.3940  174.9500  146.6270 C   0  0  0  0  0  2  0  0  0  0  0  0
  188.7910  177.3730  146.6240 C   0  0  0  0  0  2  0  0  0  0  0  0
  190.9800  176.6290  147.6720 C   0  0  0  0  0  3  0  0  0  0  0  0
  187.9830  176.2760  141.3450 C   0  0  0  0  0  2  0  0  0  0  0  0
  184.6370  177.8830  142.4790 C   0  0  0  0  0  2  0  0  0  0  0  0
  185.1240  178.5450  143.7510 C   0  0  0  0  0  0  0  0  0  0  0  0
  187.4830  177.8450  143.2930 C   0  0  0  0  0  2  0  0  0  0  0  0
  185.7620  177.5350  141.5070 C   0  0  0  0  0  2  0  0  0  0  0  0
  186.9070  176.8740  142.2660 C   0  0  1  0  0  3  0  0  0  0  0  0
  186.4060  178.4740  144.1300 C   0  0  0  0  0  3  0  0  0  0  0  0
  184.0780  178.8410  145.9690 C   0  0  0  0  0  1  0  0  0  0  0  0
  184.2230  179.1920  144.5990 O   0  0  0  0  0  0  0  0  0  0  0  0
  1  5  2  0  0  0  0
  2 12  1  6  0  0  0
  2 11  1  0  0  0  0
  2 13  1  0  0  0  0
  3 16  1  1  0  0  0
  4  8  1  6  0  0  0
  4  7  1  0  0  0  0
  5  9  1  0  0  0  0
  6  1  1  0  0  0  0
  7  9  1  1  0  0  0
  7 11  1  0  0  0  0
  8  1  1  0  0  0  0
 10  3  1  0  0  0  0
 11 10  1  1  0  0  0
 13 35  1  1  0  0  0
 13 14  1  0  0  0  0
 14  3  1  0  0  0  0
 15  4  1  0  0  0  0
 15 12  1  0  0  0  0
 16 18  2  0  0  0  0
 17 16  1  0  0  0  0
 19 21  1  0  0  0  0
 19 20  1  0  0  0  0
 20 22  1  6  0  0  0
 21 17  1  6  0  0  0
 21 20  1  0  0  0  0
 22 23  1  1  0  0  0
 22 24  1  0  0  0  0
 24 25  1  6  0  0  0
 24 27  1  0  0  0  0
 26 25  1  0  0  0  0
 27 28  1  0  0  0  0
 28 34  1  0  0  0  0
 29 34  1  0  0  0  0
 32 31  1  0  0  0  0
 32 30  1  0  0  0  0
 33 31  1  0  0  0  0
 33 29  1  0  0  0  0
 34 30  1  0  0  0  0
 36 37  1  0  0  0  0
 37 41  2  0  0  0  0
 37 43  1  0  0  0  0
 38 41  1  0  0  0  0
 39 40  1  0  0  0  0
 39 36  1  0  0  0  0
 40 35  1  6  0  0  0
 40 38  1  0  0  0  0
 43 42  1  0  0  0  0
M  END
>  <MODEL>
1

>  <REMARK>
 VINA RESULT:      -7.5      0.000      0.000
  Name = 
  11 active torsions:
  status: ('A' for Active; 'I' for Inactive)
    1  A    between atoms: C_1  and  C_34
    2  A    between atoms: C_1  and  C_35
    3  A    between atoms: C_2  and  C_13
    4  A    between atoms: C_4  and  C_12
    5  A    between atoms: C_4  and  C_22
    6  A    between atoms: N_6  and  C_17
    7  A    between atoms: C_10  and  C_22
    8  A    between atoms: C_14  and  C_22
    9  A    between atoms: C_14  and  O_41
   10  A    between atoms: C_19  and  O_37
   11  A    between atoms: C_40  and  O_41
                            x       y       z     vdW  Elec       q    Type
                         _______ _______ _______ _____ _____    ______ ____

>  <TORSDO>
F 11

$$$$
=
 OpenBabel11052420513D

 43 48  0  0  1  0  0  0  0  0999 V2000
  190.9240  169.2500  137.3500 C   0  0  0  0  0  0  0  0  0  0  0  0
  189.7800  172.9420  140.6830 N   0  0  1  0  0  0  0  0  0  0  0  0
  190.4560  171.8500  143.3430 C   0  0  2  0  0  3  0  0  0  0  0  0
  190.0430  171.3590  138.4600 C   0  0  1  0  0  3  0  0  0  0  0  0
  191.6960  169.0160  138.4230 C   0  0  0  0  0  3  0  0  0  0  0  0
  190.9730  168.3830  136.3080 F   0  0  0  0  0  0  0  0  0  0  0  0
  190.3830  170.6570  139.7810 C   0  0  1  0  0  3  0  0  0  0  0  0
  189.8790  170.3410  137.3310 C   0  0  0  0  0  2  0  0  0  0  0  0
  191.7080  169.9220  139.6240 C   0  0  0  0  0  2  0  0  0  0  0  0
  190.0440  171.0370  142.1870 N   0  0  0  0  0  2  0  0  0  0  0  0
  190.4910  171.6620  140.9390 C   0  0  2  0  0  3  0  0  0  0  0  0
  188.5110  172.6830  140.0020 C   0  0  0  0  0  2  0  0  0  0  0  0
  189.4710  173.6730  141.9240 C   0  0  1  0  0  3  0  0  0  0  0  0
  190.4430  173.3560  143.0570 C   0  0  0  0  0  2  0  0  0  0  0  0
  188.7680  172.1990  138.5730 C   0  0  0  0  0  2  0  0  0  0  0  0
  191.7870  171.4240  143.8840 C   0  0  0  0  0  0  0  0  0  0  0  0
  192.5750  172.3640  144.6180 N   0  0  0  0  0  2  0  0  0  0  0  0
  192.2110  170.2520  143.6950 O   0  0  0  0  0  0  0  0  0  0  0  0
  194.9850  172.2260  144.2380 C   0  0  0  0  0  2  0  0  0  0  0  0
  194.7890  173.2240  145.3620 C   0  0  2  0  0  3  0  0  0  0  0  0
  193.8550  172.0150  145.2260 C   0  0  1  0  0  3  0  0  0  0  0  0
  194.2600  174.5350  144.7770 C   0  0  2  0  0  3  0  0  0  0  0  0
  195.1710  175.0200  143.6570 C   0  0  0  0  0  1  0  0  0  0  0  0
  194.0380  175.6050  145.8610 C   0  0  1  0  0  3  0  0  0  0  0  0
  193.9670  177.0240  145.3070 C   0  0  0  0  0  2  0  0  0  0  0  0
  195.0830  177.8760  145.8790 C   0  0  0  0  0  1  0  0  0  0  0  0
  192.7790  175.3020  146.6630 C   0  0  0  0  0  2  0  0  0  0  0  0
  191.8990  176.3920  146.5950 O   0  0  0  0  0  0  0  0  0  0  0  0
  190.1120  174.7070  146.1560 C   0  0  0  0  0  2  0  0  0  0  0  0
  189.7870  177.2040  145.5690 C   0  0  0  0  0  2  0  0  0  0  0  0
  188.0280  175.9360  146.8260 C   0  0  0  0  0  2  0  0  0  0  0  0
  188.7300  177.2810  146.6710 C   0  0  0  0  0  2  0  0  0  0  0  0
  189.0380  174.8680  147.2320 C   0  0  0  0  0  2  0  0  0  0  0  0
  190.7740  176.0530  145.8100 C   0  0  0  0  0  3  0  0  0  0  0  0
  189.3240  175.1860  141.6800 C   0  0  0  0  0  2  0  0  0  0  0  0
  186.3490  177.6520  141.3200 C   0  0  0  0  0  2  0  0  0  0  0  0
  185.5930  177.2800  142.5780 C   0  0  0  0  0  0  0  0  0  0  0  0
  187.3980  175.6930  143.2750 C   0  0  0  0  0  2  0  0  0  0  0  0
  187.8140  177.2230  141.3420 C   0  0  0  0  0  2  0  0  0  0  0  0
  187.9190  175.7870  141.8430 C   0  0  1  0  0  3  0  0  0  0  0  0
  186.0580  176.3540  143.4250 C   0  0  0  0  0  3  0  0  0  0  0  0
  184.2030  179.0140  143.6550 C   0  0  0  0  0  1  0  0  0  0  0  0
  184.3480  177.8520  142.8490 O   0  0  0  0  0  0  0  0  0  0  0  0
  1  5  2  0  0  0  0
  2 12  1  1  0  0  0
  2 11  1  0  0  0  0
  2 13  1  0  0  0  0
  3 16  1  6  0  0  0
  4  8  1  6  0  0  0
  4 15  1  0  0  0  0
  4  7  1  0  0  0  0
  5  9  1  0  0  0  0
  6  1  1  0  0  0  0
  7  9  1  6  0  0  0
  7 11  1  0  0  0  0
  8  1  1  0  0  0  0
 10  3  1  0  0  0  0
 11 10  1  1  0  0  0
 13 35  1  6  0  0  0
 13 14  1  0  0  0  0
 14  3  1  0  0  0  0
 15 12  1  0  0  0  0
 16 17  1  0  0  0  0
 18 16  2  0  0  0  0
 19 21  1  0  0  0  0
 19 20  1  0  0  0  0
 20 22  1  6  0  0  0
 21 17  1  6  0  0  0
 21 20  1  0  0  0  0
 22 23  1  6  0  0  0
 22 24  1  0  0  0  0
 24 25  1  6  0  0  0
 24 27  1  0  0  0  0
 25 26  1  0  0  0  0
 28 27  1  0  0  0  0
 29 33  1  0  0  0  0
 30 34  1  0  0  0  0
 30 32  1  0  0  0  0
 31 33  1  0  0  0  0
 32 31  1  0  0  0  0
 34 29  1  0  0  0  0
 34 28  1  0  0  0  0
 36 39  1  0  0  0  0
 36 37  1  0  0  0  0
 37 43  1  0  0  0  0
 37 41  2  0  0  0  0
 38 41  1  0  0  0  0
 39 40  1  0  0  0  0
 40 35  1  1  0  0  0
 40 38  1  0  0  0  0
 43 42  1  0  0  0  0
M  END
>  <MODEL>
2

>  <REMARK>
 VINA RESULT:      -7.2      1.627      2.097
  Name = 
  11 active torsions:
  status: ('A' for Active; 'I' for Inactive)
    1  A    between atoms: C_1  and  C_34
    2  A    between atoms: C_1  and  C_35
    3  A    between atoms: C_2  and  C_13
    4  A    between atoms: C_4  and  C_12
    5  A    between atoms: C_4  and  C_22
    6  A    between atoms: N_6  and  C_17
    7  A    between atoms: C_10  and  C_22
    8  A    between atoms: C_14  and  C_22
    9  A    between atoms: C_14  and  O_41
   10  A    between atoms: C_19  and  O_37
   11  A    between atoms: C_40  and  O_41
                            x       y       z     vdW  Elec       q    Type
                         _______ _______ _______ _____ _____    ______ ____

>  <TORSDO>
F 11

$$$$
=
 OpenBabel11052420513D

 43 48  0  0  1  0  0  0  0  0999 V2000
  185.3590  178.0090  147.1030 C   0  0  0  0  0  0  0  0  0  0  0  0
  189.8890  176.8830  145.0390 N   0  0  1  0  0  0  0  0  0  0  0  0
  189.4450  174.4510  143.4230 C   0  0  2  0  0  3  0  0  0  0  0  0
  187.8320  177.9160  146.5300 C   0  0  1  0  0  3  0  0  0  0  0  0
  185.0820  177.3030  145.9950 C   0  0  0  0  0  3  0  0  0  0  0  0
  184.3340  178.4040  147.8990 F   0  0  0  0  0  0  0  0  0  0  0  0
  187.4820  176.6280  145.7730 C   0  0  1  0  0  3  0  0  0  0  0  0
  186.7730  178.2300  147.5860 C   0  0  0  0  0  2  0  0  0  0  0  0
  186.1530  176.8230  145.0540 C   0  0  0  0  0  2  0  0  0  0  0  0
  188.6710  174.8090  144.6220 N   0  0  0  0  0  2  0  0  0  0  0  0
  188.5690  176.2650  144.7490 C   0  0  2  0  0  3  0  0  0  0  0  0
  190.1470  176.8590  146.4790 C   0  0  0  0  0  2  0  0  0  0  0  0
  191.0000  176.1740  144.3820 C   0  0  1  0  0  3  0  0  0  0  0  0
  190.5700  175.4450  143.1120 C   0  0  0  0  0  2  0  0  0  0  0  0
  189.2060  177.8260  147.2010 C   0  0  0  0  0  2  0  0  0  0  0  0
  188.5650  174.2550  142.2240 C   0  0  0  0  0  0  0  0  0  0  0  0
  188.9610  173.3250  141.2140 N   0  0  0  0  0  2  0  0  0  0  0  0
  187.4890  174.9020  142.1060 O   0  0  0  0  0  0  0  0  0  0  0  0
  188.4970  173.9590  138.9000 C   0  0  0  0  0  2  0  0  0  0  0  0
  188.9610  172.5160  138.8600 C   0  0  2  0  0  3  0  0  0  0  0  0
  188.1360  173.0330  140.0460 C   0  0  1  0  0  3  0  0  0  0  0  0
  190.4750  172.4750  139.0780 C   0  0  2  0  0  3  0  0  0  0  0  0
  191.1930  173.1820  137.9370 C   0  0  0  0  0  1  0  0  0  0  0  0
  190.9880  171.0410  139.3000 C   0  0  1  0  0  3  0  0  0  0  0  0
  191.2850  170.2950  138.0020 C   0  0  0  0  0  2  0  0  0  0  0  0
  190.2530  169.2110  137.7630 C   0  0  0  0  0  1  0  0  0  0  0  0
  192.2270  171.0460  140.1850 C   0  0  0  0  0  2  0  0  0  0  0  0
  191.9750  171.7830  141.3520 O   0  0  0  0  0  0  0  0  0  0  0  0
  193.7290  170.6130  142.6840 C   0  0  0  0  0  2  0  0  0  0  0  0
  191.5340  171.4370  143.7710 C   0  0  0  0  0  2  0  0  0  0  0  0
  193.7550  171.9260  144.8240 C   0  0  0  0  0  2  0  0  0  0  0  0
  192.3550  172.4650  144.5500 C   0  0  0  0  0  2  0  0  0  0  0  0
  194.4770  171.6630  143.5060 C   0  0  0  0  0  2  0  0  0  0  0  0
  192.2500  170.9920  142.4890 C   0  0  0  0  0  3  0  0  0  0  0  0
  192.2150  177.0920  144.1520 C   0  0  0  0  0  2  0  0  0  0  0  0
  195.6040  175.2610  143.6810 C   0  0  0  0  0  2  0  0  0  0  0  0
  195.8590  174.8820  145.1250 C   0  0  0  0  0  0  0  0  0  0  0  0
  193.6410  175.8030  145.8300 C   0  0  0  0  0  2  0  0  0  0  0  0
  194.1430  175.5940  143.3900 C   0  0  0  0  0  2  0  0  0  0  0  0
  193.6000  176.5130  144.4790 C   0  0  1  0  0  3  0  0  0  0  0  0
  194.9820  175.1800  146.0920 C   0  0  0  0  0  3  0  0  0  0  0  0
  197.0970  172.9830  146.1040 C   0  0  0  0  0  1  0  0  0  0  0  0
  197.0570  174.2650  145.4920 O   0  0  0  0  0  0  0  0  0  0  0  0
  1  8  1  0  0  0  0
  1  6  1  0  0  0  0
  2 12  1  1  0  0  0
  3 16  1  6  0  0  0
  3 10  1  0  0  0  0
  4 15  1  1  0  0  0
  4  8  1  0  0  0  0
  5  1  2  0  0  0  0
  7  9  1  6  0  0  0
  7  4  1  0  0  0  0
  9  5  1  0  0  0  0
 11 10  1  1  0  0  0
 11  2  1  0  0  0  0
 11  7  1  0  0  0  0
 12 15  1  0  0  0  0
 13 35  1  6  0  0  0
 13  2  1  0  0  0  0
 14  3  1  0  0  0  0
 14 13  1  0  0  0  0
 17 16  1  0  0  0  0
 18 16  2  0  0  0  0
 19 21  1  0  0  0  0
 20 19  1  0  0  0  0
 20 22  1  1  0  0  0
 20 21  1  0  0  0  0
 21 17  1  1  0  0  0
 22 23  1  6  0  0  0
 22 24  1  0  0  0  0
 24 25  1  6  0  0  0
 24 27  1  0  0  0  0
 26 25  1  0  0  0  0
 27 28  1  0  0  0  0
 28 34  1  0  0  0  0
 29 33  1  0  0  0  0
 30 32  1  0  0  0  0
 32 31  1  0  0  0  0
 33 31  1  0  0  0  0
 34 29  1  0  0  0  0
 34 30  1  0  0  0  0
 36 37  1  0  0  0  0
 37 43  1  0  0  0  0
 37 41  2  0  0  0  0
 38 41  1  0  0  0  0
 39 36  1  0  0  0  0
 39 40  1  0  0  0  0
 40 35  1  6  0  0  0
 40 38  1  0  0  0  0
 43 42  1  0  0  0  0
M  END
>  <MODEL>
3

>  <REMARK>
 VINA RESULT:      -7.1      3.308      8.570
  Name = 
  11 active torsions:
  status: ('A' for Active; 'I' for Inactive)
    1  A    between atoms: C_1  and  C_34
    2  A    between atoms: C_1  and  C_35
    3  A    between atoms: C_2  and  C_13
    4  A    between atoms: C_4  and  C_12
    5  A    between atoms: C_4  and  C_22
    6  A    between atoms: N_6  and  C_17
    7  A    between atoms: C_10  and  C_22
    8  A    between atoms: C_14  and  C_22
    9  A    between atoms: C_14  and  O_41
   10  A    between atoms: C_19  and  O_37
   11  A    between atoms: C_40  and  O_41
                            x       y       z     vdW  Elec       q    Type
                         _______ _______ _______ _____ _____    ______ ____

>  <TORSDO>
F 11

$$$$
=
 OpenBabel11052420513D

 43 48  0  0  1  0  0  0  0  0999 V2000
  184.5500  178.4640  145.7260 C   0  0  0  0  0  0  0  0  0  0  0  0
  188.0180  176.2390  142.7150 N   0  0  1  0  0  0  0  0  0  0  0  0
  190.6390  177.2110  143.6670 C   0  0  2  0  0  3  0  0  0  0  0  0
  185.7180  177.1980  143.8590 C   0  0  1  0  0  3  0  0  0  0  0  0
  185.6840  178.4380  146.4440 C   0  0  0  0  0  3  0  0  0  0  0  0
  183.4530  179.0580  146.2590 F   0  0  0  0  0  0  0  0  0  0  0  0
  187.0070  177.8170  144.4140 C   0  0  1  0  0  3  0  0  0  0  0  0
  184.4970  178.0130  144.2850 C   0  0  0  0  0  2  0  0  0  0  0  0
  186.9490  177.8020  145.9360 C   0  0  0  0  0  2  0  0  0  0  0  0
  189.3790  177.9630  143.7800 N   0  0  0  0  0  2  0  0  0  0  0  0
  188.2500  177.0440  143.9430 C   0  0  2  0  0  3  0  0  0  0  0  0
  187.1720  176.9810  141.7810 C   0  0  0  0  0  2  0  0  0  0  0  0
  189.2700  175.9130  142.0100 C   0  0  1  0  0  3  0  0  0  0  0  0
  190.4800  175.8710  142.9390 C   0  0  0  0  0  2  0  0  0  0  0  0
  185.7480  177.0930  142.3320 C   0  0  0  0  0  2  0  0  0  0  0  0
  191.2980  177.0160  145.0000 C   0  0  0  0  0  0  0  0  0  0  0  0
  192.6840  176.6680  145.0480 N   0  0  0  0  0  2  0  0  0  0  0  0
  190.6410  177.1540  146.0670 O   0  0  0  0  0  0  0  0  0  0  0  0
  193.3090  175.0870  146.8040 C   0  0  0  0  0  2  0  0  0  0  0  0
  194.6060  175.5570  146.1740 C   0  0  2  0  0  3  0  0  0  0  0  0
  193.4140  176.5140  146.3020 C   0  0  1  0  0  3  0  0  0  0  0  0
  194.7660  174.8840  144.8090 C   0  0  2  0  0  3  0  0  0  0  0  0
  194.1280  173.5020  144.8220 C   0  0  0  0  0  1  0  0  0  0  0  0
  196.2360  174.8510  144.3510 C   0  0  1  0  0  3  0  0  0  0  0  0
  196.6440  173.5230  143.7190 C   0  0  0  0  0  2  0  0  0  0  0  0
  197.9390  173.0210  144.3240 C   0  0  0  0  0  1  0  0  0  0  0  0
  196.5210  175.9900  143.3830 C   0  0  0  0  0  2  0  0  0  0  0  0
  196.9030  175.4710  142.1360 O   0  0  0  0  0  0  0  0  0  0  0  0
  196.3080  175.4330  139.7140 C   0  0  0  0  0  2  0  0  0  0  0  0
  194.6320  176.2520  141.5040 C   0  0  0  0  0  2  0  0  0  0  0  0
  193.9390  174.6020  139.7490 C   0  0  0  0  0  2  0  0  0  0  0  0
  193.7780  175.0190  141.2070 C   0  0  0  0  0  2  0  0  0  0  0  0
  195.3920  174.2330  139.4720 C   0  0  0  0  0  2  0  0  0  0  0  0
  196.1010  176.0310  141.1170 C   0  0  0  0  0  3  0  0  0  0  0  0
  189.1370  174.6370  141.1580 C   0  0  0  0  0  2  0  0  0  0  0  0
  191.6960  171.7410  140.8100 C   0  0  0  0  0  2  0  0  0  0  0  0
  191.2270  170.8840  141.9670 C   0  0  0  0  0  0  0  0  0  0  0  0
  189.3100  172.4280  142.4220 C   0  0  0  0  0  2  0  0  0  0  0  0
  190.6500  172.7460  140.3350 C   0  0  0  0  0  2  0  0  0  0  0  0
  190.0290  173.4460  141.5400 C   0  0  1  0  0  3  0  0  0  0  0  0
  190.1750  171.2370  142.7170 C   0  0  0  0  0  3  0  0  0  0  0  0
  192.1380  168.6570  141.4130 C   0  0  0  0  0  1  0  0  0  0  0  0
  191.9280  169.7300  142.3210 O   0  0  0  0  0  0  0  0  0  0  0  0
  1  6  1  0  0  0  0
  1  5  2  0  0  0  0
  2 12  1  6  0  0  0
  2 11  1  0  0  0  0
  3 10  1  0  0  0  0
  3 16  1  1  0  0  0
  4 15  1  6  0  0  0
  4  8  1  0  0  0  0
  4  7  1  0  0  0  0
  7  9  1  1  0  0  0
  8  1  1  0  0  0  0
  9  5  1  0  0  0  0
 11 10  1  6  0  0  0
 11  7  1  0  0  0  0
 12 15  1  0  0  0  0
 13 35  1  1  0  0  0
 13  2  1  0  0  0  0
 13 14  1  0  0  0  0
 14  3  1  0  0  0  0
 16 17  1  0  0  0  0
 16 18  2  0  0  0  0
 20 22  1  6  0  0  0
 20 21  1  0  0  0  0
 20 19  1  0  0  0  0
 21 17  1  6  0  0  0
 21 19  1  0  0  0  0
 22 23  1  1  0  0  0
 24 27  1  6  0  0  0
 24 22  1  0  0  0  0
 25 26  1  0  0  0  0
 25 24  1  0  0  0  0
 28 27  1  0  0  0  0
 29 34  1  0  0  0  0
 31 32  1  0  0  0  0
 32 30  1  0  0  0  0
 33 29  1  0  0  0  0
 33 31  1  0  0  0  0
 34 30  1  0  0  0  0
 34 28  1  0  0  0  0
 36 37  1  0  0  0  0
 37 43  1  0  0  0  0
 37 41  2  0  0  0  0
 38 41  1  0  0  0  0
 39 36  1  0  0  0  0
 39 40  1  0  0  0  0
 40 35  1  6  0  0  0
 40 38  1  0  0  0  0
 42 43  1  0  0  0  0
M  END
>  <MODEL>
4

>  <REMARK>
 VINA RESULT:      -7.0      3.486      7.804
  Name = 
  11 active torsions:
  status: ('A' for Active; 'I' for Inactive)
    1  A    between atoms: C_1  and  C_34
    2  A    between atoms: C_1  and  C_35
    3  A    between atoms: C_2  and  C_13
    4  A    between atoms: C_4  and  C_12
    5  A    between atoms: C_4  and  C_22
    6  A    between atoms: N_6  and  C_17
    7  A    between atoms: C_10  and  C_22
    8  A    between atoms: C_14  and  C_22
    9  A    between atoms: C_14  and  O_41
   10  A    between atoms: C_19  and  O_37
   11  A    between atoms: C_40  and  O_41
                            x       y       z     vdW  Elec       q    Type
                         _______ _______ _______ _____ _____    ______ ____

>  <TORSDO>
F 11

$$$$
=
 OpenBabel11052420513D

 43 48  0  0  1  0  0  0  0  0999 V2000
  196.1280  174.7730  138.9060 C   0  0  0  0  0  0  0  0  0  0  0  0
  192.1040  172.5960  141.1680 N   0  0  1  0  0  0  0  0  0  0  0  0
  193.0050  171.8980  143.8930 C   0  0  2  0  0  3  0  0  0  0  0  0
  193.8830  173.6850  139.3890 C   0  0  1  0  0  3  0  0  0  0  0  0
  196.3150  174.9550  140.2230 C   0  0  0  0  0  3  0  0  0  0  0  0
  197.0810  175.2070  138.0440 F   0  0  0  0  0  0  0  0  0  0  0  0
  194.4890  173.3280  140.7520 C   0  0  1  0  0  3  0  0  0  0  0  0
  194.9810  173.9540  138.3600 C   0  0  0  0  0  2  0  0  0  0  0  0
  195.3130  174.5080  141.2520 C   0  0  0  0  0  2  0  0  0  0  0  0
  193.8870  171.9790  142.7180 N   0  0  0  0  0  2  0  0  0  0  0  0
  193.3980  172.9950  141.7820 C   0  0  2  0  0  3  0  0  0  0  0  0
  192.3440  171.7510  139.9970 C   0  0  0  0  0  2  0  0  0  0  0  0
  191.2530  171.8300  142.0950 C   0  0  1  0  0  3  0  0  0  0  0  0
  191.5300  172.1550  143.5600 C   0  0  0  0  0  2  0  0  0  0  0  0
  192.9620  172.5780  138.8680 C   0  0  0  0  0  2  0  0  0  0  0  0
  193.4620  172.7980  145.0020 C   0  0  0  0  0  0  0  0  0  0  0  0
  192.7810  174.0360  145.2210 N   0  0  0  0  0  2  0  0  0  0  0  0
  194.4360  172.4720  145.7330 O   0  0  0  0  0  0  0  0  0  0  0  0
  193.6150  176.2690  145.7630 C   0  0  0  0  0  2  0  0  0  0  0  0
  192.2210  176.1800  146.3530 C   0  0  2  0  0  3  0  0  0  0  0  0
  193.1260  174.9420  146.3120 C   0  0  1  0  0  3  0  0  0  0  0  0
  191.1950  176.2860  145.2240 C   0  0  2  0  0  3  0  0  0  0  0  0
  191.4960  177.4930  144.3460 C   0  0  0  0  0  1  0  0  0  0  0  0
  189.7500  176.2870  145.7540 C   0  0  1  0  0  3  0  0  0  0  0  0
  189.6320  175.7960  147.1940 C   0  0  0  0  0  2  0  0  0  0  0  0
  189.0350  174.4040  147.2340 C   0  0  0  0  0  1  0  0  0  0  0  0
  189.1360  177.6740  145.6310 C   0  0  0  0  0  2  0  0  0  0  0  0
  187.9170  177.7180  146.3250 O   0  0  0  0  0  0  0  0  0  0  0  0
  185.6290  176.7450  146.1250 C   0  0  0  0  0  2  0  0  0  0  0  0
  186.5200  178.4620  144.4110 C   0  0  0  0  0  2  0  0  0  0  0  0
  184.2510  178.7290  145.4410 C   0  0  0  0  0  2  0  0  0  0  0  0
  185.4920  179.4610  144.9410 C   0  0  0  0  0  2  0  0  0  0  0  0
  184.6250  177.8000  146.5910 C   0  0  0  0  0  2  0  0  0  0  0  0
  186.8560  177.3860  145.4540 C   0  0  0  0  0  3  0  0  0  0  0  0
  189.7600  171.9470  141.7380 C   0  0  0  0  0  2  0  0  0  0  0  0
  188.0850  175.4400  141.9740 C   0  0  0  0  0  2  0  0  0  0  0  0
  187.7290  175.6190  140.5120 C   0  0  0  0  0  0  0  0  0  0  0  0
  188.5520  173.3210  139.9600 C   0  0  0  0  0  2  0  0  0  0  0  0
  188.3470  173.9870  142.3610 C   0  0  0  0  0  2  0  0  0  0  0  0
  189.2490  173.3340  141.3180 C   0  0  1  0  0  3  0  0  0  0  0  0
  187.9950  174.6700  139.6060 C   0  0  0  0  0  3  0  0  0  0  0  0
  186.3840  177.6530  140.9020 C   0  0  0  0  0  1  0  0  0  0  0  0
  187.1720  176.8180  140.0630 O   0  0  0  0  0  0  0  0  0  0  0  0
  1  5  2  0  0  0  0
  2 12  1  6  0  0  0
  2 11  1  0  0  0  0
  2 13  1  0  0  0  0
  3 16  1  1  0  0  0
  4  8  1  6  0  0  0
  4  7  1  0  0  0  0
  5  9  1  0  0  0  0
  6  1  1  0  0  0  0
  7  9  1  1  0  0  0
  7 11  1  0  0  0  0
  8  1  1  0  0  0  0
 10  3  1  0  0  0  0
 11 10  1  1  0  0  0
 13 35  1  6  0  0  0
 13 14  1  0  0  0  0
 14  3  1  0  0  0  0
 15  4  1  0  0  0  0
 15 12  1  0  0  0  0
 16 17  1  0  0  0  0
 16 18  2  0  0  0  0
 19 21  1  0  0  0  0
 19 20  1  0  0  0  0
 20 22  1  6  0  0  0
 21 17  1  6  0  0  0
 21 20  1  0  0  0  0
 22 23  1  1  0  0  0
 22 24  1  0  0  0  0
 24 27  1  1  0  0  0
 24 25  1  0  0  0  0
 25 26  1  0  0  0  0
 27 28  1  0  0  0  0
 29 33  1  0  0  0  0
 30 32  1  0  0  0  0
 30 34  1  0  0  0  0
 31 33  1  0  0  0  0
 32 31  1  0  0  0  0
 34 29  1  0  0  0  0
 34 28  1  0  0  0  0
 36 39  1  0  0  0  0
 37 36  1  0  0  0  0
 38 40  1  0  0  0  0
 40 35  1  1  0  0  0
 40 39  1  0  0  0  0
 41 38  1  0  0  0  0
 41 37  2  0  0  0  0
 43 37  1  0  0  0  0
 43 42  1  0  0  0  0
M  END
>  <MODEL>
5

>  <REMARK>
 VINA RESULT:      -7.0      2.487      4.645
  Name = 
  11 active torsions:
  status: ('A' for Active; 'I' for Inactive)
    1  A    between atoms: C_1  and  C_34
    2  A    between atoms: C_1  and  C_35
    3  A    between atoms: C_2  and  C_13
    4  A    between atoms: C_4  and  C_12
    5  A    between atoms: C_4  and  C_22
    6  A    between atoms: N_6  and  C_17
    7  A    between atoms: C_10  and  C_22
    8  A    between atoms: C_14  and  C_22
    9  A    between atoms: C_14  and  O_41
   10  A    between atoms: C_19  and  O_37
   11  A    between atoms: C_40  and  O_41
                            x       y       z     vdW  Elec       q    Type
                         _______ _______ _______ _____ _____    ______ ____

>  <TORSDO>
F 11

$$$$
=
 OpenBabel11052420513D

 43 48  0  0  1  0  0  0  0  0999 V2000
  185.2620  178.2430  147.0660 C   0  0  0  0  0  0  0  0  0  0  0  0
  187.3330  176.5070  142.7360 N   0  0  1  0  0  0  0  0  0  0  0  0
  190.1620  177.3520  142.8120 C   0  0  2  0  0  3  0  0  0  0  0  0
  185.6340  177.2710  144.7480 C   0  0  1  0  0  3  0  0  0  0  0  0
  186.5750  178.1220  147.3200 C   0  0  0  0  0  3  0  0  0  0  0  0
  184.4530  178.7440  148.0330 F   0  0  0  0  0  0  0  0  0  0  0  0
  187.0620  177.8130  144.8850 C   0  0  1  0  0  3  0  0  0  0  0  0
  184.6820  178.0050  145.6920 C   0  0  0  0  0  2  0  0  0  0  0  0
  187.5470  177.5770  146.3090 C   0  0  0  0  0  2  0  0  0  0  0  0
  189.0590  178.0690  143.4710 N   0  0  0  0  0  2  0  0  0  0  0  0
  188.0210  177.1270  143.8990 C   0  0  2  0  0  3  0  0  0  0  0  0
  186.2440  177.3710  142.2790 C   0  0  0  0  0  2  0  0  0  0  0  0
  188.2370  176.2970  141.5920 C   0  0  1  0  0  3  0  0  0  0  0  0
  189.6950  176.1310  142.0120 C   0  0  0  0  0  2  0  0  0  0  0  0
  185.1150  177.3890  143.3120 C   0  0  0  0  0  2  0  0  0  0  0  0
  191.2420  176.9710  143.7800 C   0  0  0  0  0  0  0  0  0  0  0  0
  191.0410  177.2060  145.1760 N   0  0  0  0  0  2  0  0  0  0  0  0
  192.3150  176.4510  143.3720 O   0  0  0  0  0  0  0  0  0  0  0  0
  191.3320  176.5910  147.5240 C   0  0  0  0  0  2  0  0  0  0  0  0
  191.7780  175.3910  146.7120 C   0  0  2  0  0  3  0  0  0  0  0  0
  192.0160  176.8130  146.1890 C   0  0  1  0  0  3  0  0  0  0  0  0
  190.5430  174.6820  146.1540 C   0  0  2  0  0  3  0  0  0  0  0  0
  189.5420  174.4070  147.2680 C   0  0  0  0  0  1  0  0  0  0  0  0
  190.9120  173.4110  145.3660 C   0  0  1  0  0  3  0  0  0  0  0  0
  190.0930  173.2290  144.0910 C   0  0  0  0  0  2  0  0  0  0  0  0
  189.3210  171.9250  144.1360 C   0  0  0  0  0  1  0  0  0  0  0  0
  192.3960  173.4020  145.0290 C   0  0  0  0  0  2  0  0  0  0  0  0
  192.5690  173.2500  143.6450 O   0  0  0  0  0  0  0  0  0  0  0  0
  193.6570  171.1610  144.4680 C   0  0  0  0  0  2  0  0  0  0  0  0
  193.5460  171.7240  141.9470 C   0  0  0  0  0  2  0  0  0  0  0  0
  192.8970  169.4550  142.7900 C   0  0  0  0  0  2  0  0  0  0  0  0
  192.5890  170.5450  141.7690 C   0  0  0  0  0  2  0  0  0  0  0  0
  192.7030  169.9960  144.2020 C   0  0  0  0  0  2  0  0  0  0  0  0
  193.5350  172.2520  143.3880 C   0  0  0  0  0  3  0  0  0  0  0  0
  187.7540  175.1580  140.6760 C   0  0  0  0  0  2  0  0  0  0  0  0
  189.9980  173.3880  138.0510 C   0  0  0  0  0  2  0  0  0  0  0  0
  190.3260  172.1380  138.8410 C   0  0  0  0  0  0  0  0  0  0  0  0
  188.8160  172.8390  140.7100 C   0  0  0  0  0  2  0  0  0  0  0  0
  188.7630  174.1240  138.5660 C   0  0  0  0  0  2  0  0  0  0  0  0
  188.8280  174.2320  140.0850 C   0  0  1  0  0  3  0  0  0  0  0  0
  189.8230  171.9310  140.0640 C   0  0  0  0  0  3  0  0  0  0  0  0
  190.9790  169.7990  138.3960 C   0  0  0  0  0  1  0  0  0  0  0  0
  191.2240  171.1970  138.3320 O   0  0  0  0  0  0  0  0  0  0  0  0
  1  5  2  0  0  0  0
  1  6  1  0  0  0  0
  2 12  1  6  0  0  0
  2 11  1  0  0  0  0
  3 10  1  0  0  0  0
  3 16  1  1  0  0  0
  4 15  1  6  0  0  0
  4  7  1  0  0  0  0
  4  8  1  0  0  0  0
  7  9  1  1  0  0  0
  8  1  1  0  0  0  0
  9  5  1  0  0  0  0
 11 10  1  6  0  0  0
 11  7  1  0  0  0  0
 12 15  1  0  0  0  0
 13 35  1  1  0  0  0
 13 14  1  0  0  0  0
 13  2  1  0  0  0  0
 14  3  1  0  0  0  0
 16 17  1  0  0  0  0
 18 16  2  0  0  0  0
 20 22  1  6  0  0  0
 20 19  1  0  0  0  0
 21 17  1  6  0  0  0
 21 20  1  0  0  0  0
 21 19  1  0  0  0  0
 22 23  1  1  0  0  0
 24 25  1  6  0  0  0
 24 22  1  0  0  0  0
 25 26  1  0  0  0  0
 27 24  1  0  0  0  0
 28 27  1  0  0  0  0
 30 34  1  0  0  0  0
 31 33  1  0  0  0  0
 32 30  1  0  0  0  0
 32 31  1  0  0  0  0
 33 29  1  0  0  0  0
 34 28  1  0  0  0  0
 34 29  1  0  0  0  0
 36 39  1  0  0  0  0
 36 37  1  0  0  0  0
 37 41  2  0  0  0  0
 39 40  1  0  0  0  0
 40 35  1  1  0  0  0
 40 38  1  0  0  0  0
 41 38  1  0  0  0  0
 43 42  1  0  0  0  0
 43 37  1  0  0  0  0
M  END
>  <MODEL>
6

>  <REMARK>
 VINA RESULT:      -7.0      3.379      7.648
  Name = 
  11 active torsions:
  status: ('A' for Active; 'I' for Inactive)
    1  A    between atoms: C_1  and  C_34
    2  A    between atoms: C_1  and  C_35
    3  A    between atoms: C_2  and  C_13
    4  A    between atoms: C_4  and  C_12
    5  A    between atoms: C_4  and  C_22
    6  A    between atoms: N_6  and  C_17
    7  A    between atoms: C_10  and  C_22
    8  A    between atoms: C_14  and  C_22
    9  A    between atoms: C_14  and  O_41
   10  A    between atoms: C_19  and  O_37
   11  A    between atoms: C_40  and  O_41
                            x       y       z     vdW  Elec       q    Type
                         _______ _______ _______ _____ _____    ______ ____

>  <TORSDO>
F 11

$$$$
=
 OpenBabel11052420513D

 43 48  0  0  1  0  0  0  0  0999 V2000
  185.1150  178.1500  147.1600 C   0  0  0  0  0  0  0  0  0  0  0  0
  187.7600  176.3110  143.2010 N   0  0  1  0  0  0  0  0  0  0  0  0
  190.5400  177.2210  143.6100 C   0  0  2  0  0  3  0  0  0  0  0  0
  185.8010  177.1070  144.9470 C   0  0  1  0  0  3  0  0  0  0  0  0
  186.3860  178.0660  147.5860 C   0  0  0  0  0  3  0  0  0  0  0  0
  184.1790  178.6660  147.9950 F   0  0  0  0  0  0  0  0  0  0  0  0
  187.1900  177.6850  145.2470 C   0  0  1  0  0  3  0  0  0  0  0  0
  184.7220  177.8520  145.7320 C   0  0  0  0  0  2  0  0  0  0  0  0
  187.4900  177.5090  146.7300 C   0  0  0  0  0  2  0  0  0  0  0  0
  189.3480  177.9350  144.0940 N   0  0  0  0  0  2  0  0  0  0  0  0
  188.2800  176.9860  144.4190 C   0  0  2  0  0  3  0  0  0  0  0  0
  186.7240  177.1340  142.5760 C   0  0  0  0  0  2  0  0  0  0  0  0
  188.8080  176.0820  142.1920 C   0  0  1  0  0  3  0  0  0  0  0  0
  190.2020  175.9630  142.8020 C   0  0  0  0  0  2  0  0  0  0  0  0
  185.4710  177.1630  143.4530 C   0  0  0  0  0  2  0  0  0  0  0  0
  191.4910  176.8960  144.7230 C   0  0  0  0  0  0  0  0  0  0  0  0
  192.7300  176.2530  144.4150 N   0  0  0  0  0  2  0  0  0  0  0  0
  191.2050  177.1850  145.9160 O   0  0  0  0  0  0  0  0  0  0  0  0
  193.2860  174.7900  146.2920 C   0  0  0  0  0  2  0  0  0  0  0  0
  194.3600  174.5650  145.2450 C   0  0  2  0  0  3  0  0  0  0  0  0
  193.7350  175.9540  145.4300 C   0  0  1  0  0  3  0  0  0  0  0  0
  193.7760  173.7260  144.1070 C   0  0  2  0  0  3  0  0  0  0  0  0
  193.3190  172.3710  144.6290 C   0  0  0  0  0  1  0  0  0  0  0  0
  194.7510  173.6030  142.9210 C   0  0  1  0  0  3  0  0  0  0  0  0
  194.3600  174.4630  141.7230 C   0  0  0  0  0  2  0  0  0  0  0  0
  192.9690  174.1030  141.2410 C   0  0  0  0  0  1  0  0  0  0  0  0
  196.1700  173.9410  143.3560 C   0  0  0  0  0  2  0  0  0  0  0  0
  197.0850  173.1380  142.6590 O   0  0  0  0  0  0  0  0  0  0  0  0
  197.9040  173.0080  145.0120 C   0  0  0  0  0  2  0  0  0  0  0  0
  197.8800  170.9310  143.4730 C   0  0  0  0  0  2  0  0  0  0  0  0
  196.9520  170.8220  145.7990 C   0  0  0  0  0  2  0  0  0  0  0  0
  196.7870  170.3370  144.3630 C   0  0  0  0  0  2  0  0  0  0  0  0
  196.8160  172.3400  145.8540 C   0  0  0  0  0  2  0  0  0  0  0  0
  197.9230  172.4620  143.5730 C   0  0  0  0  0  3  0  0  0  0  0  0
  188.4670  174.9010  141.2640 C   0  0  0  0  0  2  0  0  0  0  0  0
  190.3270  171.6280  140.3240 C   0  0  0  0  0  2  0  0  0  0  0  0
  190.3150  170.9620  141.6850 C   0  0  0  0  0  0  0  0  0  0  0  0
  188.9420  172.8160  142.6550 C   0  0  0  0  0  2  0  0  0  0  0  0
  189.2850  172.7340  140.1800 C   0  0  0  0  0  2  0  0  0  0  0  0
  189.3120  173.6270  141.4160 C   0  0  1  0  0  3  0  0  0  0  0  0
  189.7270  171.5390  142.7400 C   0  0  0  0  0  3  0  0  0  0  0  0
  192.3420  169.6880  142.2880 C   0  0  0  0  0  1  0  0  0  0  0  0
  190.9810  169.7510  141.8840 O   0  0  0  0  0  0  0  0  0  0  0  0
  1  5  2  0  0  0  0
  1  6  1  0  0  0  0
  2 12  1  6  0  0  0
  2 11  1  0  0  0  0
  3 10  1  0  0  0  0
  3 16  1  1  0  0  0
  4 15  1  6  0  0  0
  4  7  1  0  0  0  0
  4  8  1  0  0  0  0
  7  9  1  1  0  0  0
  8  1  1  0  0  0  0
  9  5  1  0  0  0  0
 11 10  1  6  0  0  0
 11  7  1  0  0  0  0
 12 15  1  0  0  0  0
 13 35  1  1  0  0  0
 13 14  1  0  0  0  0
 13  2  1  0  0  0  0
 14  3  1  0  0  0  0
 16 18  2  0  0  0  0
 17 16  1  0  0  0  0
 20 22  1  6  0  0  0
 20 21  1  0  0  0  0
 20 19  1  0  0  0  0
 21 17  1  6  0  0  0
 21 19  1  0  0  0  0
 22 23  1  1  0  0  0
 24 25  1  6  0  0  0
 24 27  1  0  0  0  0
 24 22  1  0  0  0  0
 26 25  1  0  0  0  0
 28 27  1  0  0  0  0
 28 34  1  0  0  0  0
 29 33  1  0  0  0  0
 30 34  1  0  0  0  0
 30 32  1  0  0  0  0
 31 33  1  0  0  0  0
 32 31  1  0  0  0  0
 34 29  1  0  0  0  0
 36 37  1  0  0  0  0
 37 43  1  0  0  0  0
 37 41  2  0  0  0  0
 38 41  1  0  0  0  0
 39 36  1  0  0  0  0
 39 40  1  0  0  0  0
 40 35  1  6  0  0  0
 40 38  1  0  0  0  0
 43 42  1  0  0  0  0
M  END
>  <MODEL>
7

>  <REMARK>
 VINA RESULT:      -7.0      3.660      7.812
  Name = 
  11 active torsions:
  status: ('A' for Active; 'I' for Inactive)
    1  A    between atoms: C_1  and  C_34
    2  A    between atoms: C_1  and  C_35
    3  A    between atoms: C_2  and  C_13
    4  A    between atoms: C_4  and  C_12
    5  A    between atoms: C_4  and  C_22
    6  A    between atoms: N_6  and  C_17
    7  A    between atoms: C_10  and  C_22
    8  A    between atoms: C_14  and  C_22
    9  A    between atoms: C_14  and  O_41
   10  A    between atoms: C_19  and  O_37
   11  A    between atoms: C_40  and  O_41
                            x       y       z     vdW  Elec       q    Type
                         _______ _______ _______ _____ _____    ______ ____

>  <TORSDO>
F 11

$$$$
=
 OpenBabel11052420513D

 43 48  0  0  1  0  0  0  0  0999 V2000
  192.0910  170.8150  137.7220 C   0  0  0  0  0  0  0  0  0  0  0  0
  189.1910  174.0250  140.4300 N   0  0  1  0  0  0  0  0  0  0  0  0
  188.9340  172.8010  143.1060 C   0  0  2  0  0  3  0  0  0  0  0  0
  190.5380  172.6880  138.4500 C   0  0  1  0  0  3  0  0  0  0  0  0
  192.4100  170.5890  139.0070 C   0  0  0  0  0  3  0  0  0  0  0  0
  192.6750  170.0550  136.7610 F   0  0  0  0  0  0  0  0  0  0  0  0
  190.4390  171.9240  139.7770 C   0  0  1  0  0  3  0  0  0  0  0  0
  190.9840  171.7600  137.3210 C   0  0  0  0  0  2  0  0  0  0  0  0
  191.8150  171.3810  140.1390 C   0  0  0  0  0  2  0  0  0  0  0  0
  189.1350  172.0460  141.8590 N   0  0  0  0  0  2  0  0  0  0  0  0
  189.9320  172.8290  140.9110 C   0  0  2  0  0  3  0  0  0  0  0  0
  188.3440  173.6660  139.2930 C   0  0  0  0  0  2  0  0  0  0  0  0
  188.3160  174.5990  141.4660 C   0  0  1  0  0  3  0  0  0  0  0  0
  188.8050  174.3120  142.8820 C   0  0  0  0  0  2  0  0  0  0  0  0
  189.2080  173.3450  138.0710 C   0  0  0  0  0  2  0  0  0  0  0  0
  189.9970  172.5030  144.1200 C   0  0  0  0  0  0  0  0  0  0  0  0
  191.3640  172.4610  143.7050 N   0  0  0  0  0  2  0  0  0  0  0  0
  189.6920  172.2900  145.3250 O   0  0  0  0  0  0  0  0  0  0  0  0
  193.5690  171.4400  143.9690 C   0  0  0  0  0  2  0  0  0  0  0  0
  193.7590  172.9270  144.1970 C   0  0  2  0  0  3  0  0  0  0  0  0
  192.4640  172.2340  144.6380 C   0  0  1  0  0  3  0  0  0  0  0  0
  193.6950  173.6480  142.8490 C   0  0  2  0  0  3  0  0  0  0  0  0
  194.5490  172.9210  141.8190 C   0  0  0  0  0  1  0  0  0  0  0  0
  194.0610  175.1380  142.9720 C   0  0  1  0  0  3  0  0  0  0  0  0
  195.3530  175.5070  142.2490 C   0  0  0  0  0  2  0  0  0  0  0  0
  195.1090  176.6320  141.2630 C   0  0  0  0  0  1  0  0  0  0  0  0
  192.9220  176.0130  142.4700 C   0  0  0  0  0  2  0  0  0  0  0  0
  191.7610  175.7560  143.2140 O   0  0  0  0  0  0  0  0  0  0  0  0
  191.1770  177.9210  144.3080 C   0  0  0  0  0  2  0  0  0  0  0  0
  191.3670  175.7290  145.6660 C   0  0  0  0  0  2  0  0  0  0  0  0
  189.3880  177.2440  145.9340 C   0  0  0  0  0  2  0  0  0  0  0  0
  189.8570  175.7930  145.8990 C   0  0  0  0  0  2  0  0  0  0  0  0
  189.6750  177.9150  144.5950 C   0  0  0  0  0  2  0  0  0  0  0  0
  191.7800  176.5090  144.4090 C   0  0  0  0  0  3  0  0  0  0  0  0
  188.0460  176.0970  141.2280 C   0  0  0  0  0  2  0  0  0  0  0  0
  185.9370  176.9070  144.3820 C   0  0  0  0  0  2  0  0  0  0  0  0
  185.8050  178.4040  144.1880 C   0  0  0  0  0  0  0  0  0  0  0  0
  186.9850  178.2900  141.9840 C   0  0  0  0  0  2  0  0  0  0  0  0
  186.3100  176.1600  143.1050 C   0  0  0  0  0  2  0  0  0  0  0  0
  187.4430  176.8930  142.3950 C   0  0  1  0  0  3  0  0  0  0  0  0
  186.3310  179.0190  143.1210 C   0  0  0  0  0  3  0  0  0  0  0  0
  184.4100  178.6310  146.2120 C   0  0  0  0  0  1  0  0  0  0  0  0
  185.1850  179.1900  145.1610 O   0  0  0  0  0  0  0  0  0  0  0  0
  1  5  2  0  0  0  0
  2 12  1  6  0  0  0
  2 11  1  0  0  0  0
  2 13  1  0  0  0  0
  3 16  1  1  0  0  0
  4  8  1  6  0  0  0
  4  7  1  0  0  0  0
  5  9  1  0  0  0  0
  6  1  1  0  0  0  0
  7  9  1  1  0  0  0
  7 11  1  0  0  0  0
  8  1  1  0  0  0  0
 10  3  1  0  0  0  0
 11 10  1  1  0  0  0
 13 35  1  6  0  0  0
 13 14  1  0  0  0  0
 14  3  1  0  0  0  0
 15  4  1  0  0  0  0
 15 12  1  0  0  0  0
 16 18  2  0  0  0  0
 17 16  1  0  0  0  0
 19 20  1  0  0  0  0
 19 21  1  0  0  0  0
 20 22  1  6  0  0  0
 20 21  1  0  0  0  0
 21 17  1  6  0  0  0
 22 23  1  6  0  0  0
 22 24  1  0  0  0  0
 24 25  1  6  0  0  0
 26 25  1  0  0  0  0
 27 24  1  0  0  0  0
 27 28  1  0  0  0  0
 28 34  1  0  0  0  0
 29 34  1  0  0  0  0
 29 33  1  0  0  0  0
 30 32  1  0  0  0  0
 32 31  1  0  0  0  0
 33 31  1  0  0  0  0
 34 30  1  0  0  0  0
 37 36  1  0  0  0  0
 37 43  1  0  0  0  0
 38 40  1  0  0  0  0
 38 41  1  0  0  0  0
 39 36  1  0  0  0  0
 40 35  1  6  0  0  0
 40 39  1  0  0  0  0
 41 37  2  0  0  0  0
 43 42  1  0  0  0  0
M  END
>  <MODEL>
8

>  <REMARK>
 VINA RESULT:      -6.9      1.114      1.862
  Name = 
  11 active torsions:
  status: ('A' for Active; 'I' for Inactive)
    1  A    between atoms: C_1  and  C_34
    2  A    between atoms: C_1  and  C_35
    3  A    between atoms: C_2  and  C_13
    4  A    between atoms: C_4  and  C_12
    5  A    between atoms: C_4  and  C_22
    6  A    between atoms: N_6  and  C_17
    7  A    between atoms: C_10  and  C_22
    8  A    between atoms: C_14  and  C_22
    9  A    between atoms: C_14  and  O_41
   10  A    between atoms: C_19  and  O_37
   11  A    between atoms: C_40  and  O_41
                            x       y       z     vdW  Elec       q    Type
                         _______ _______ _______ _____ _____    ______ ____

>  <TORSDO>
F 11

$$$$
=
 OpenBabel11052420513D

 43 48  0  0  1  0  0  0  0  0999 V2000
  184.4680  178.5470  145.0670 C   0  0  0  0  0  0  0  0  0  0  0  0
  189.2160  176.8650  144.2440 N   0  0  1  0  0  0  0  0  0  0  0  0
  188.9630  174.7230  142.2260 C   0  0  2  0  0  3  0  0  0  0  0  0
  186.9620  178.0840  145.2190 C   0  0  1  0  0  3  0  0  0  0  0  0
  184.4510  178.0160  143.8340 C   0  0  0  0  0  3  0  0  0  0  0  0
  183.3120  179.0320  145.5850 F   0  0  0  0  0  0  0  0  0  0  0  0
  186.6890  176.9600  144.2120 C   0  0  1  0  0  3  0  0  0  0  0  0
  185.6830  178.4700  145.9620 C   0  0  0  0  0  2  0  0  0  0  0  0
  185.6840  177.4540  143.1790 C   0  0  0  0  0  2  0  0  0  0  0  0
  187.9150  175.0870  143.1930 N   0  0  0  0  0  2  0  0  0  0  0  0
  187.9770  176.5180  143.5000 C   0  0  2  0  0  3  0  0  0  0  0  0
  189.0150  176.6520  145.6780 C   0  0  0  0  0  2  0  0  0  0  0  0
  190.3680  176.0430  143.8350 C   0  0  1  0  0  3  0  0  0  0  0  0
  190.2530  175.5330  142.4020 C   0  0  0  0  0  2  0  0  0  0  0  0
  188.0380  177.6900  146.2340 C   0  0  0  0  0  2  0  0  0  0  0  0
  188.4740  174.8050  140.8110 C   0  0  0  0  0  0  0  0  0  0  0  0
  188.7690  173.7360  139.9090 N   0  0  0  0  0  2  0  0  0  0  0  0
  187.8120  175.8030  140.4170 O   0  0  0  0  0  0  0  0  0  0  0  0
  189.3740  174.1590  137.5790 C   0  0  0  0  0  2  0  0  0  0  0  0
  189.0290  172.6850  137.6680 C   0  0  2  0  0  3  0  0  0  0  0  0
  188.2840  173.7100  138.5330 C   0  0  1  0  0  3  0  0  0  0  0  0
  190.1760  171.9470  138.3610 C   0  0  2  0  0  3  0  0  0  0  0  0
  191.5060  172.3120  137.7160 C   0  0  0  0  0  1  0  0  0  0  0  0
  189.9410  170.4260  138.4070 C   0  0  1  0  0  3  0  0  0  0  0  0
  190.4190  169.7000  137.1530 C   0  0  0  0  0  2  0  0  0  0  0  0
  191.1110  168.4030  137.5210 C   0  0  0  0  0  1  0  0  0  0  0  0
  190.6010  169.8190  139.6370 C   0  0  0  0  0  2  0  0  0  0  0  0
  190.3830  170.6440  140.7510 O   0  0  0  0  0  0  0  0  0  0  0  0
  192.7740  169.9900  141.0320 C   0  0  0  0  0  2  0  0  0  0  0  0
  191.6730  171.7670  142.5520 C   0  0  0  0  0  2  0  0  0  0  0  0
  193.8940  172.1930  141.4720 C   0  0  0  0  0  2  0  0  0  0  0  0
  192.5710  172.8190  141.9000 C   0  0  0  0  0  2  0  0  0  0  0  0
  193.6400  171.1010  140.4380 C   0  0  0  0  0  2  0  0  0  0  0  0
  191.4750  170.5470  141.6410 C   0  0  0  0  0  3  0  0  0  0  0  0
  191.7070  176.7550  144.1020 C   0  0  0  0  0  2  0  0  0  0  0  0
  195.1560  174.9930  144.3450 C   0  0  0  0  0  2  0  0  0  0  0  0
  194.7700  173.8690  145.2840 C   0  0  0  0  0  0  0  0  0  0  0  0
  192.3710  174.5800  145.2590 C   0  0  0  0  0  2  0  0  0  0  0  0
  193.9620  175.6360  143.6450 C   0  0  0  0  0  2  0  0  0  0  0  0
  192.8550  175.8990  144.6600 C   0  0  1  0  0  3  0  0  0  0  0  0
  193.5150  173.7280  145.7280 C   0  0  0  0  0  3  0  0  0  0  0  0
  197.0520  173.4100  146.1090 C   0  0  0  0  0  1  0  0  0  0  0  0
  195.7400  172.9870  145.7660 O   0  0  0  0  0  0  0  0  0  0  0  0
  1  6  1  0  0  0  0
  1  8  1  0  0  0  0
  2 12  1  1  0  0  0
  3 16  1  6  0  0  0
  3 14  1  0  0  0  0
  3 10  1  0  0  0  0
  4  8  1  1  0  0  0
  4 15  1  0  0  0  0
  5  1  2  0  0  0  0
  7  9  1  6  0  0  0
  7  4  1  0  0  0  0
  9  5  1  0  0  0  0
 11 10  1  1  0  0  0
 11  7  1  0  0  0  0
 11  2  1  0  0  0  0
 12 15  1  0  0  0  0
 13 35  1  6  0  0  0
 13  2  1  0  0  0  0
 14 13  1  0  0  0  0
 17 16  1  0  0  0  0
 18 16  2  0  0  0  0
 19 20  1  0  0  0  0
 19 21  1  0  0  0  0
 20 22  1  1  0  0  0
 20 21  1  0  0  0  0
 21 17  1  1  0  0  0
 22 23  1  6  0  0  0
 22 24  1  0  0  0  0
 24 25  1  6  0  0  0
 24 27  1  0  0  0  0
 25 26  1  0  0  0  0
 27 28  1  0  0  0  0
 28 34  1  0  0  0  0
 29 34  1  0  0  0  0
 31 32  1  0  0  0  0
 32 30  1  0  0  0  0
 33 29  1  0  0  0  0
 33 31  1  0  0  0  0
 34 30  1  0  0  0  0
 36 37  1  0  0  0  0
 37 41  2  0  0  0  0
 37 43  1  0  0  0  0
 38 41  1  0  0  0  0
 39 36  1  0  0  0  0
 39 40  1  0  0  0  0
 40 35  1  6  0  0  0
 40 38  1  0  0  0  0
 43 42  1  0  0  0  0
M  END
>  <MODEL>
9

>  <REMARK>
 VINA RESULT:      -6.8      3.286      8.681
  Name = 
  11 active torsions:
  status: ('A' for Active; 'I' for Inactive)
    1  A    between atoms: C_1  and  C_34
    2  A    between atoms: C_1  and  C_35
    3  A    between atoms: C_2  and  C_13
    4  A    between atoms: C_4  and  C_12
    5  A    between atoms: C_4  and  C_22
    6  A    between atoms: N_6  and  C_17
    7  A    between atoms: C_10  and  C_22
    8  A    between atoms: C_14  and  C_22
    9  A    between atoms: C_14  and  O_41
   10  A    between atoms: C_19  and  O_37
   11  A    between atoms: C_40  and  O_41
                            x       y       z     vdW  Elec       q    Type
                         _______ _______ _______ _____ _____    ______ ____

>  <TORSDO>
F 11

$$$$
