=
 OpenBabel11052420593D

 43 48  0  0  1  0  0  0  0  0999 V2000
  187.8170  175.3300  140.5450 C   0  0  0  0  0  3  0  0  0  0  0  0
  191.6440  170.0910  136.7870 C   0  0  1  0  0  3  0  0  0  0  0  0
  189.1470  173.4680  139.6870 C   0  0  0  0  0  0  0  0  0  0  0  0
  190.3190  173.1780  142.2650 C   0  0  0  0  0  0  0  0  0  0  0  0
  189.9760  171.7580  137.6590 C   0  0  0  0  0  0  0  0  0  0  0  0
  191.6520  169.4940  138.1860 C   0  0  0  0  0  2  0  0  0  0  0  0
  191.8130  168.9890  135.7620 C   0  0  0  0  0  1  0  0  0  0  0  0
  190.5270  171.6170  138.9510 C   0  0  0  0  0  0  0  0  0  0  0  0
  190.3210  170.8110  136.5430 C   0  0  0  0  0  2  0  0  0  0  0  0
  191.6230  170.6160  139.2190 C   0  0  0  0  0  2  0  0  0  0  0  0
  190.6790  172.3950  141.2900 N   0  0  0  0  0  0  0  0  0  0  0  0
  190.1160  172.4910  139.9700 C   0  0  0  0  0  0  0  0  0  0  0  0
  188.6180  173.5650  138.4360 N   0  0  0  0  0  0  0  0  0  0  0  0
  188.7310  174.3750  140.7700 C   0  0  0  0  0  0  0  0  0  0  0  0
  189.3390  174.2020  142.0540 N   0  0  0  0  0  2  0  0  0  0  0  0
  189.0060  172.7360  137.4320 C   0  0  0  0  0  3  0  0  0  0  0  0
  187.0960  178.6550  142.1490 C   0  0  0  0  0  3  0  0  0  0  0  0
  186.3890  178.2870  143.2970 C   0  0  0  0  0  0  0  0  0  0  0  0
  186.5860  175.9580  142.6650 C   0  0  0  0  0  3  0  0  0  0  0  0
  187.5530  177.6730  141.2640 C   0  0  0  0  0  3  0  0  0  0  0  0
  187.3030  176.3200  141.5140 C   0  0  0  0  0  0  0  0  0  0  0  0
  186.1280  176.9370  143.5520 C   0  0  0  0  0  3  0  0  0  0  0  0
  184.5240  179.1340  144.4670 O   0  0  0  0  0  1  0  0  0  0  0  0
  185.8840  179.3320  144.2270 C   0  0  0  0  0  2  0  0  0  0  0  0
  190.9560  173.0380  143.6000 C   0  0  0  0  0  2  0  0  0  0  0  0
  191.9420  174.1760  143.8220 C   0  0  0  0  0  2  0  0  0  0  0  0
  191.7120  174.8820  145.1660 C   0  0  2  0  0  3  0  0  0  0  0  0
  191.5000  176.3360  144.9900 N   0  0  0  0  0  0  0  0  0  0  0  0
  189.8900  177.9570  144.2420 C   0  0  0  0  0  2  0  0  0  0  0  0
  191.8380  176.7050  143.6180 C   0  0  0  0  0  2  0  0  0  0  0  0
  190.0940  176.7580  145.1520 C   0  0  1  0  0  0  0  0  0  0  0  0
  189.2060  175.7440  144.7590 O   0  0  0  0  0  1  0  0  0  0  0  0
  191.0470  177.9430  143.2740 C   0  0  0  0  0  2  0  0  0  0  0  0
  189.8420  177.1600  146.6080 C   0  0  0  0  0  2  0  0  0  0  0  0
  188.3910  177.1810  146.9680 C   0  0  0  0  0  0  0  0  0  0  0  0
  186.3970  176.4580  147.3560 N   0  0  0  0  0  0  0  0  0  0  0  0
  186.3970  177.7970  147.4690 C   0  0  0  0  0  0  0  0  0  0  0  0
  185.1900  178.5950  147.8090 C   0  0  0  0  0  1  0  0  0  0  0  0
  187.6520  178.3210  147.2280 C   0  0  0  0  0  2  0  0  0  0  0  0
  187.6250  176.0790  147.0450 N   0  0  0  0  0  0  0  0  0  0  0  0
  192.8860  174.5900  146.1010 C   0  0  0  0  0  2  0  0  0  0  0  0
  194.7830  175.7090  146.2180 C   0  0  0  0  0  1  0  0  0  0  0  0
  193.4350  175.7840  146.5680 O   0  0  0  0  0  0  0  0  0  0  0  0
  1 14  2  0  0  0  0
  1 21  1  0  0  0  0
  2  7  1  6  0  0  0
  2  6  1  0  0  0  0
  3 12  1  0  0  0  0
  3 14  1  0  0  0  0
  4 25  1  0  0  0  0
  5  8  1  0  0  0  0
  6 10  1  0  0  0  0
  8 10  1  0  0  0  0
  8 12  2  0  0  0  0
  9  2  1  0  0  0  0
  9  5  1  0  0  0  0
 11  4  2  0  0  0  0
 12 11  1  0  0  0  0
 13  3  2  0  0  0  0
 14 15  1  0  0  0  0
 15  4  1  0  0  0  0
 16  5  2  0  0  0  0
 16 13  1  0  0  0  0
 17 18  1  0  0  0  0
 18 22  2  0  0  0  0
 18 24  1  0  0  0  0
 19 22  1  0  0  0  0
 20 21  1  0  0  0  0
 20 17  2  0  0  0  0
 21 19  2  0  0  0  0
 24 23  1  0  0  0  0
 25 26  1  0  0  0  0
 27 26  1  6  0  0  0
 27 41  1  0  0  0  0
 28 31  1  0  0  0  0
 28 27  1  0  0  0  0
 29 31  1  0  0  0  0
 30 28  1  0  0  0  0
 31 32  1  6  0  0  0
 31 34  1  0  0  0  0
 33 30  1  0  0  0  0
 33 29  1  0  0  0  0
 34 35  1  0  0  0  0
 35 40  2  0  0  0  0
 35 39  1  0  0  0  0
 36 37  2  0  0  0  0
 37 38  1  0  0  0  0
 39 37  1  0  0  0  0
 40 36  1  0  0  0  0
 41 43  1  0  0  0  0
 42 43  1  0  0  0  0
M  END
>  <MODEL>
1

>  <REMARK>
 VINA RESULT:      -7.7      0.000      0.000
  Name = 
  10 active torsions:
  status: ('A' for Active; 'I' for Inactive)
    1  A    between atoms: C_1  and  C_35
    2  A    between atoms: C_2  and  C_6
    3  A    between atoms: C_2  and  C_13
    4  A    between atoms: C_3  and  N_4
    5  A    between atoms: C_3  and  C_6
    6  A    between atoms: C_3  and  C_12
    7  A    between atoms: C_11  and  C_14
    8  A    between atoms: C_12  and  O_17
    9  A    between atoms: C_14  and  C_22
   10  A    between atoms: C_19  and  C_37
                            x       y       z     vdW  Elec       q    Type
                         _______ _______ _______ _____ _____    ______ ____

>  <TORSDO>
F 10

$$$$
=
 OpenBabel11052420593D

 43 48  0  0  1  0  0  0  0  0999 V2000
  187.4630  175.9100  141.4610 C   0  0  0  0  0  3  0  0  0  0  0  0
  190.6460  171.0620  136.7090 C   0  0  1  0  0  3  0  0  0  0  0  0
  188.5030  174.0750  140.2290 C   0  0  0  0  0  0  0  0  0  0  0  0
  189.2550  172.8970  142.7090 C   0  0  0  0  0  0  0  0  0  0  0  0
  189.2370  172.7850  137.8780 C   0  0  0  0  0  0  0  0  0  0  0  0
  190.3580  170.1480  137.8910 C   0  0  0  0  0  2  0  0  0  0  0  0
  190.7270  170.2420  135.4400 C   0  0  0  0  0  1  0  0  0  0  0  0
  189.5790  172.2070  139.1200 C   0  0  0  0  0  0  0  0  0  0  0  0
  189.5320  172.0950  136.5750 C   0  0  0  0  0  2  0  0  0  0  0  0
  190.4160  170.9540  139.1850 C   0  0  0  0  0  2  0  0  0  0  0  0
  189.5780  172.3220  141.5870 N   0  0  0  0  0  0  0  0  0  0  0  0
  189.2190  172.8680  140.3060 C   0  0  0  0  0  0  0  0  0  0  0  0
  188.1690  174.5960  139.0160 N   0  0  0  0  0  0  0  0  0  0  0  0
  188.1360  174.7510  141.4840 C   0  0  0  0  0  0  0  0  0  0  0  0
  188.5290  174.1320  142.7130 N   0  0  0  0  0  2  0  0  0  0  0  0
  188.5140  173.9790  137.8550 C   0  0  0  0  0  3  0  0  0  0  0  0
  185.1940  177.7000  143.8690 C   0  0  0  0  0  3  0  0  0  0  0  0
  186.0990  178.2480  144.7820 C   0  0  0  0  0  0  0  0  0  0  0  0
  187.9330  177.2640  143.5470 C   0  0  0  0  0  3  0  0  0  0  0  0
  185.6610  176.9390  142.7920 C   0  0  0  0  0  3  0  0  0  0  0  0
  187.0310  176.7160  142.6220 C   0  0  0  0  0  0  0  0  0  0  0  0
  187.4700  178.0240  144.6250 C   0  0  0  0  0  3  0  0  0  0  0  0
  184.7330  178.2590  146.7050 O   0  0  0  0  0  1  0  0  0  0  0  0
  185.6010  179.0380  145.9400 C   0  0  0  0  0  2  0  0  0  0  0  0
  189.6750  172.2900  143.9990 C   0  0  0  0  0  2  0  0  0  0  0  0
  190.2420  173.3660  144.9140 C   0  0  0  0  0  2  0  0  0  0  0  0
  191.7750  173.3260  144.9700 C   0  0  2  0  0  3  0  0  0  0  0  0
  192.3740  174.5780  144.4580 N   0  0  0  0  0  0  0  0  0  0  0  0
  193.1790  176.7340  145.1480 C   0  0  0  0  0  2  0  0  0  0  0  0
  191.3120  175.5520  144.2190 C   0  0  0  0  0  2  0  0  0  0  0  0
  193.2780  175.2430  145.4160 C   0  0  1  0  0  0  0  0  0  0  0  0
  192.8870  175.0010  146.7420 O   0  0  0  0  0  1  0  0  0  0  0  0
  191.9230  176.9270  144.3350 C   0  0  0  0  0  2  0  0  0  0  0  0
  194.7160  174.7660  145.1830 C   0  0  0  0  0  2  0  0  0  0  0  0
  195.3550  175.3930  143.9860 C   0  0  0  0  0  0  0  0  0  0  0  0
  196.5080  176.7840  142.8100 N   0  0  0  0  0  0  0  0  0  0  0  0
  195.9540  175.8820  141.9830 C   0  0  0  0  0  0  0  0  0  0  0  0
  196.1410  175.8900  140.5090 C   0  0  0  0  0  1  0  0  0  0  0  0
  195.1970  174.9610  142.6830 C   0  0  0  0  0  3  0  0  0  0  0  0
  196.1380  176.4860  144.0430 N   0  0  0  0  0  2  0  0  0  0  0  0
  192.2790  172.1020  144.2040 C   0  0  0  0  0  2  0  0  0  0  0  0
  193.4050  171.3260  142.4740 C   0  0  0  0  0  1  0  0  0  0  0  0
  192.8580  172.4960  142.9970 O   0  0  0  0  0  0  0  0  0  0  0  0
  1 14  2  0  0  0  0
  1 21  1  0  0  0  0
  2  7  1  6  0  0  0
  2  6  1  0  0  0  0
  3 12  1  0  0  0  0
  3 14  1  0  0  0  0
  4 15  1  0  0  0  0
  4 25  1  0  0  0  0
  5  8  1  0  0  0  0
  6 10  1  0  0  0  0
  8 10  1  0  0  0  0
  8 12  2  0  0  0  0
  9  2  1  0  0  0  0
  9  5  1  0  0  0  0
 11  4  2  0  0  0  0
 12 11  1  0  0  0  0
 13  3  2  0  0  0  0
 14 15  1  0  0  0  0
 16  5  2  0  0  0  0
 16 13  1  0  0  0  0
 17 18  1  0  0  0  0
 18 24  1  0  0  0  0
 19 22  1  0  0  0  0
 20 17  2  0  0  0  0
 21 20  1  0  0  0  0
 21 19  2  0  0  0  0
 22 18  2  0  0  0  0
 24 23  1  0  0  0  0
 25 26  1  0  0  0  0
 26 27  1  0  0  0  0
 27 41  1  6  0  0  0
 28 27  1  0  0  0  0
 28 31  1  0  0  0  0
 29 31  1  0  0  0  0
 30 33  1  0  0  0  0
 30 28  1  0  0  0  0
 31 32  1  1  0  0  0
 33 29  1  0  0  0  0
 34 31  1  0  0  0  0
 35 40  1  0  0  0  0
 35 34  1  0  0  0  0
 36 40  1  0  0  0  0
 37 39  1  0  0  0  0
 37 36  2  0  0  0  0
 38 37  1  0  0  0  0
 39 35  2  0  0  0  0
 42 43  1  0  0  0  0
 43 41  1  0  0  0  0
M  END
>  <MODEL>
2

>  <REMARK>
 VINA RESULT:      -7.3      2.230      4.532
  Name = 
  10 active torsions:
  status: ('A' for Active; 'I' for Inactive)
    1  A    between atoms: C_1  and  C_35
    2  A    between atoms: C_2  and  C_6
    3  A    between atoms: C_2  and  C_13
    4  A    between atoms: C_3  and  N_4
    5  A    between atoms: C_3  and  C_6
    6  A    between atoms: C_3  and  C_12
    7  A    between atoms: C_11  and  C_14
    8  A    between atoms: C_12  and  O_17
    9  A    between atoms: C_14  and  C_22
   10  A    between atoms: C_19  and  C_37
                            x       y       z     vdW  Elec       q    Type
                         _______ _______ _______ _____ _____    ______ ____

>  <TORSDO>
F 10

$$$$
=
 OpenBabel11052420593D

 43 48  0  0  1  0  0  0  0  0999 V2000
  191.7150  172.3790  142.0400 C   0  0  0  0  0  3  0  0  0  0  0  0
  191.3550  177.1190  147.8380 C   0  0  1  0  0  3  0  0  0  0  0  0
  191.1990  173.9360  143.8510 C   0  0  0  0  0  0  0  0  0  0  0  0
  188.7460  174.5620  142.5510 C   0  0  0  0  0  0  0  0  0  0  0  0
  191.8030  175.2380  146.2320 C   0  0  0  0  0  0  0  0  0  0  0  0
  189.8750  176.8640  147.5920 C   0  0  0  0  0  2  0  0  0  0  0  0
  191.5660  177.5430  149.2760 C   0  0  0  0  0  1  0  0  0  0  0  0
  190.5810  175.5160  145.5810 C   0  0  0  0  0  0  0  0  0  0  0  0
  192.1480  175.8460  147.5620 C   0  0  0  0  0  2  0  0  0  0  0  0
  189.6470  176.5750  146.1120 C   0  0  0  0  0  2  0  0  0  0  0  0
  189.0620  175.1490  143.6690 N   0  0  0  0  0  0  0  0  0  0  0  0
  190.2840  174.8670  144.3720 C   0  0  0  0  0  0  0  0  0  0  0  0
  192.3600  173.6730  144.5120 N   0  0  0  0  0  0  0  0  0  0  0  0
  190.8690  173.2670  142.5820 C   0  0  0  0  0  0  0  0  0  0  0  0
  189.6280  173.6040  141.9550 N   0  0  0  0  0  2  0  0  0  0  0  0
  192.6720  174.2950  145.6800 C   0  0  0  0  0  3  0  0  0  0  0  0
  190.8200  169.5900  139.6810 C   0  0  0  0  0  3  0  0  0  0  0  0
  191.1800  170.1200  138.4390 C   0  0  0  0  0  0  0  0  0  0  0  0
  191.8930  172.1630  139.5250 C   0  0  0  0  0  3  0  0  0  0  0  0
  191.0030  170.3440  140.8440 C   0  0  0  0  0  3  0  0  0  0  0  0
  191.5400  171.6340  140.7760 C   0  0  0  0  0  0  0  0  0  0  0  0
  191.7110  171.4110  138.3600 C   0  0  0  0  0  3  0  0  0  0  0  0
  190.4440  170.1450  136.1980 O   0  0  0  0  0  1  0  0  0  0  0  0
  190.9650  169.3260  137.2000 C   0  0  0  0  0  2  0  0  0  0  0  0
  187.4750  174.9160  141.8650 C   0  0  0  0  0  2  0  0  0  0  0  0
  187.6700  176.1800  141.0400 C   0  0  0  0  0  2  0  0  0  0  0  0
  187.5280  177.4500  141.8910 C   0  0  2  0  0  3  0  0  0  0  0  0
  186.3330  178.2330  141.5070 N   0  0  0  0  0  0  0  0  0  0  0  0
  183.9390  178.2920  141.7070 C   0  0  0  0  0  2  0  0  0  0  0  0
  185.7660  177.6700  140.2840 C   0  0  0  0  0  2  0  0  0  0  0  0
  185.2340  178.1670  142.4900 C   0  0  1  0  0  0  0  0  0  0  0  0
  185.2280  176.9390  143.1700 O   0  0  0  0  0  1  0  0  0  0  0  0
  184.2950  178.0100  140.2690 C   0  0  0  0  0  2  0  0  0  0  0  0
  185.3580  179.3300  143.4800 C   0  0  0  0  0  2  0  0  0  0  0  0
  185.2360  178.9010  144.9070 C   0  0  0  0  0  0  0  0  0  0  0  0
  184.3190  178.4080  146.7950 N   0  0  0  0  0  0  0  0  0  0  0  0
  185.6530  178.3140  146.9290 C   0  0  0  0  0  0  0  0  0  0  0  0
  186.3280  177.9280  148.1960 C   0  0  0  0  0  1  0  0  0  0  0  0
  186.2980  178.6230  145.7470 C   0  0  0  0  0  2  0  0  0  0  0  0
  184.0620  178.7720  145.5510 N   0  0  0  0  0  0  0  0  0  0  0  0
  188.8080  178.2790  141.7850 C   0  0  0  0  0  2  0  0  0  0  0  0
  190.7620  177.9900  142.7660 C   0  0  0  0  0  1  0  0  0  0  0  0
  189.4400  178.3460  143.0270 O   0  0  0  0  0  0  0  0  0  0  0  0
  1 14  2  0  0  0  0
  2  7  1  1  0  0  0
  3 12  2  0  0  0  0
  3 13  1  0  0  0  0
  4 11  2  0  0  0  0
  5  9  1  0  0  0  0
  6  2  1  0  0  0  0
  8 10  1  0  0  0  0
  8  5  2  0  0  0  0
  9  2  1  0  0  0  0
 10  6  1  0  0  0  0
 11 12  1  0  0  0  0
 12  8  1  0  0  0  0
 13 16  2  0  0  0  0
 14  3  1  0  0  0  0
 15  4  1  0  0  0  0
 15 14  1  0  0  0  0
 16  5  1  0  0  0  0
 17 20  1  0  0  0  0
 18 17  2  0  0  0  0
 19 21  1  0  0  0  0
 21 20  2  0  0  0  0
 21  1  1  0  0  0  0
 22 18  1  0  0  0  0
 22 19  2  0  0  0  0
 23 24  1  0  0  0  0
 24 18  1  0  0  0  0
 25  4  1  0  0  0  0
 26 25  1  0  0  0  0
 27 26  1  6  0  0  0
 28 27  1  0  0  0  0
 28 31  1  0  0  0  0
 29 31  1  0  0  0  0
 30 28  1  0  0  0  0
 31 32  1  1  0  0  0
 31 34  1  0  0  0  0
 33 30  1  0  0  0  0
 33 29  1  0  0  0  0
 34 35  1  0  0  0  0
 35 40  2  0  0  0  0
 35 39  1  0  0  0  0
 36 37  2  0  0  0  0
 37 38  1  0  0  0  0
 39 37  1  0  0  0  0
 40 36  1  0  0  0  0
 41 27  1  0  0  0  0
 41 43  1  0  0  0  0
 42 43  1  0  0  0  0
M  END
>  <MODEL>
3

>  <REMARK>
 VINA RESULT:      -7.2      2.499      7.699
  Name = 
  10 active torsions:
  status: ('A' for Active; 'I' for Inactive)
    1  A    between atoms: C_1  and  C_35
    2  A    between atoms: C_2  and  C_6
    3  A    between atoms: C_2  and  C_13
    4  A    between atoms: C_3  and  N_4
    5  A    between atoms: C_3  and  C_6
    6  A    between atoms: C_3  and  C_12
    7  A    between atoms: C_11  and  C_14
    8  A    between atoms: C_12  and  O_17
    9  A    between atoms: C_14  and  C_22
   10  A    between atoms: C_19  and  C_37
                            x       y       z     vdW  Elec       q    Type
                         _______ _______ _______ _____ _____    ______ ____

>  <TORSDO>
F 10

$$$$
=
 OpenBabel11052420593D

 43 48  0  0  1  0  0  0  0  0999 V2000
  189.2950  174.0410  140.9140 C   0  0  0  0  0  3  0  0  0  0  0  0
  185.5450  177.4870  146.4170 C   0  0  1  0  0  3  0  0  0  0  0  0
  188.4290  175.1650  142.9040 C   0  0  0  0  0  0  0  0  0  0  0  0
  190.6820  174.2170  144.3630 C   0  0  0  0  0  0  0  0  0  0  0  0
  186.5310  176.6880  144.2470 C   0  0  0  0  0  0  0  0  0  0  0  0
  186.9760  177.6470  146.9100 C   0  0  0  0  0  2  0  0  0  0  0  0
  184.6780  178.5770  147.0100 C   0  0  0  0  0  1  0  0  0  0  0  0
  187.6680  176.2260  144.9450 C   0  0  0  0  0  0  0  0  0  0  0  0
  185.5120  177.5840  144.8950 C   0  0  0  0  0  2  0  0  0  0  0  0
  187.8160  176.4690  146.4260 C   0  0  0  0  0  2  0  0  0  0  0  0
  189.7730  174.9350  144.9560 N   0  0  0  0  0  0  0  0  0  0  0  0
  188.6180  175.4460  144.2670 C   0  0  0  0  0  0  0  0  0  0  0  0
  187.3330  175.6420  142.2520 N   0  0  0  0  0  0  0  0  0  0  0  0
  189.4380  174.3450  142.2120 C   0  0  0  0  0  0  0  0  0  0  0  0
  190.5580  173.8850  142.9750 N   0  0  0  0  0  2  0  0  0  0  0  0
  186.3960  176.3920  142.8890 C   0  0  0  0  0  3  0  0  0  0  0  0
  190.8270  171.0210  139.2770 C   0  0  0  0  0  3  0  0  0  0  0  0
  191.8830  171.5780  138.5500 C   0  0  0  0  0  0  0  0  0  0  0  0
  191.2620  173.7780  139.3440 C   0  0  0  0  0  3  0  0  0  0  0  0
  189.9940  171.8440  140.0430 C   0  0  0  0  0  3  0  0  0  0  0  0
  190.2040  173.2260  140.0820 C   0  0  0  0  0  0  0  0  0  0  0  0
  192.0960  172.9590  138.5780 C   0  0  0  0  0  3  0  0  0  0  0  0
  192.0170  169.6250  137.2330 O   0  0  0  0  0  1  0  0  0  0  0  0
  192.7550  170.7050  137.7180 C   0  0  0  0  0  2  0  0  0  0  0  0
  191.8400  173.7030  145.1390 C   0  0  0  0  0  2  0  0  0  0  0  0
  192.6500  174.8680  145.6890 C   0  0  0  0  0  2  0  0  0  0  0  0
  193.3320  175.6730  144.5730 C   0  0  2  0  0  3  0  0  0  0  0  0
  194.8040  175.6720  144.7210 N   0  0  0  0  0  0  0  0  0  0  0  0
  196.7900  174.4760  144.0870 C   0  0  0  0  0  2  0  0  0  0  0  0
  195.1720  174.7950  145.8290 C   0  0  0  0  0  2  0  0  0  0  0  0
  195.5210  175.1190  143.5550 C   0  0  1  0  0  0  0  0  0  0  0  0
  194.7610  174.1350  142.9050 O   0  0  0  0  0  1  0  0  0  0  0  0
  196.5760  174.3050  145.5710 C   0  0  0  0  0  2  0  0  0  0  0  0
  195.8790  176.2510  142.5860 C   0  0  0  0  0  2  0  0  0  0  0  0
  196.0760  175.7800  141.1810 C   0  0  0  0  0  0  0  0  0  0  0  0
  197.0930  175.1270  139.3960 N   0  0  0  0  0  0  0  0  0  0  0  0
  195.7770  175.2120  139.1330 C   0  0  0  0  0  0  0  0  0  0  0  0
  195.1800  174.8950  137.8100 C   0  0  0  0  0  1  0  0  0  0  0  0
  195.0710  175.6300  140.2440 C   0  0  0  0  0  3  0  0  0  0  0  0
  197.2770  175.4790  140.6560 N   0  0  0  0  0  2  0  0  0  0  0  0
  192.7640  177.0920  144.5500 C   0  0  0  0  0  2  0  0  0  0  0  0
  191.0320  178.1990  143.7520 C   0  0  0  0  0  1  0  0  0  0  0  0
  192.0270  177.2950  143.3830 O   0  0  0  0  0  0  0  0  0  0  0  0
  1 14  2  0  0  0  0
  2  6  1  0  0  0  0
  2  7  1  1  0  0  0
  3 12  1  0  0  0  0
  4 11  2  0  0  0  0
  4 25  1  0  0  0  0
  5  9  1  0  0  0  0
  5  8  1  0  0  0  0
  8 10  1  0  0  0  0
  9  2  1  0  0  0  0
 10  6  1  0  0  0  0
 12  8  2  0  0  0  0
 12 11  1  0  0  0  0
 13 16  1  0  0  0  0
 13  3  2  0  0  0  0
 14  3  1  0  0  0  0
 14 15  1  0  0  0  0
 15  4  1  0  0  0  0
 16  5  2  0  0  0  0
 17 20  1  0  0  0  0
 18 22  1  0  0  0  0
 18 17  2  0  0  0  0
 19 21  1  0  0  0  0
 20 21  2  0  0  0  0
 21  1  1  0  0  0  0
 22 19  2  0  0  0  0
 23 24  1  0  0  0  0
 24 18  1  0  0  0  0
 25 26  1  0  0  0  0
 27 41  1  1  0  0  0
 27 28  1  0  0  0  0
 27 26  1  0  0  0  0
 28 30  1  0  0  0  0
 29 33  1  0  0  0  0
 31 32  1  6  0  0  0
 31 29  1  0  0  0  0
 31 28  1  0  0  0  0
 33 30  1  0  0  0  0
 34 31  1  0  0  0  0
 35 34  1  0  0  0  0
 36 40  1  0  0  0  0
 37 36  2  0  0  0  0
 37 39  1  0  0  0  0
 38 37  1  0  0  0  0
 39 35  2  0  0  0  0
 40 35  1  0  0  0  0
 43 42  1  0  0  0  0
 43 41  1  0  0  0  0
M  END
>  <MODEL>
4

>  <REMARK>
 VINA RESULT:      -7.2      3.296      8.479
  Name = 
  10 active torsions:
  status: ('A' for Active; 'I' for Inactive)
    1  A    between atoms: C_1  and  C_35
    2  A    between atoms: C_2  and  C_6
    3  A    between atoms: C_2  and  C_13
    4  A    between atoms: C_3  and  N_4
    5  A    between atoms: C_3  and  C_6
    6  A    between atoms: C_3  and  C_12
    7  A    between atoms: C_11  and  C_14
    8  A    between atoms: C_12  and  O_17
    9  A    between atoms: C_14  and  C_22
   10  A    between atoms: C_19  and  C_37
                            x       y       z     vdW  Elec       q    Type
                         _______ _______ _______ _____ _____    ______ ____

>  <TORSDO>
F 10

$$$$
=
 OpenBabel11052420593D

 43 48  0  0  1  0  0  0  0  0999 V2000
  189.5420  177.1960  144.4890 C   0  0  0  0  0  3  0  0  0  0  0  0
  196.1190  173.8460  145.8060 C   0  0  1  0  0  3  0  0  0  0  0  0
  191.5270  175.7900  144.7150 C   0  0  0  0  0  0  0  0  0  0  0  0
  189.9220  173.5110  144.1400 C   0  0  0  0  0  0  0  0  0  0  0  0
  194.2310  175.4040  145.2340 C   0  0  0  0  0  0  0  0  0  0  0  0
  195.5000  172.8690  144.8180 C   0  0  0  0  0  2  0  0  0  0  0  0
  197.6270  173.7260  145.7630 C   0  0  0  0  0  1  0  0  0  0  0  0
  193.4200  174.2910  144.9240 C   0  0  0  0  0  0  0  0  0  0  0  0
  195.7140  175.2710  145.4420 C   0  0  0  0  0  2  0  0  0  0  0  0
  193.9810  172.8910  144.9630 C   0  0  0  0  0  2  0  0  0  0  0  0
  191.1920  173.3710  144.3850 N   0  0  0  0  0  0  0  0  0  0  0  0
  192.0520  174.4870  144.6750 C   0  0  0  0  0  0  0  0  0  0  0  0
  192.3390  176.8460  144.9960 N   0  0  0  0  0  0  0  0  0  0  0  0
  190.0900  175.9740  144.4510 C   0  0  0  0  0  0  0  0  0  0  0  0
  189.3120  174.8070  144.1650 N   0  0  0  0  0  2  0  0  0  0  0  0
  193.6640  176.6800  145.2480 C   0  0  0  0  0  3  0  0  0  0  0  0
  186.3950  178.1740  142.6760 C   0  0  0  0  0  3  0  0  0  0  0  0
  185.4610  178.2440  143.7130 C   0  0  0  0  0  0  0  0  0  0  0  0
  187.1800  177.6140  145.2960 C   0  0  0  0  0  3  0  0  0  0  0  0
  187.7220  177.8300  142.9510 C   0  0  0  0  0  3  0  0  0  0  0  0
  188.1250  177.5470  144.2610 C   0  0  0  0  0  0  0  0  0  0  0  0
  185.8530  177.9570  145.0240 C   0  0  0  0  0  3  0  0  0  0  0  0
  183.6980  178.1180  142.1510 O   0  0  0  0  0  1  0  0  0  0  0  0
  184.0440  178.5900  143.4180 C   0  0  0  0  0  2  0  0  0  0  0  0
  189.0850  172.3130  143.8680 C   0  0  0  0  0  2  0  0  0  0  0  0
  188.9210  172.1300  142.3660 C   0  0  0  0  0  2  0  0  0  0  0  0
  190.2490  171.7760  141.6810 C   0  0  2  0  0  3  0  0  0  0  0  0
  190.1980  172.0320  140.2250 N   0  0  0  0  0  0  0  0  0  0  0  0
  190.3060  173.7880  138.5870 C   0  0  0  0  0  2  0  0  0  0  0  0
  188.8300  172.3810  139.8500 C   0  0  0  0  0  2  0  0  0  0  0  0
  191.0080  173.1890  139.7940 C   0  0  1  0  0  0  0  0  0  0  0  0
  191.0810  174.1660  140.7980 O   0  0  0  0  0  1  0  0  0  0  0  0
  188.9050  173.2290  138.6030 C   0  0  0  0  0  2  0  0  0  0  0  0
  192.4110  172.7160  139.3980 C   0  0  0  0  0  2  0  0  0  0  0  0
  193.4890  173.6600  139.8230 C   0  0  0  0  0  0  0  0  0  0  0  0
  194.8270  175.3500  139.7730 N   0  0  0  0  0  0  0  0  0  0  0  0
  195.1190  174.6040  140.8520 C   0  0  0  0  0  0  0  0  0  0  0  0
  196.1970  174.9400  141.8180 C   0  0  0  0  0  1  0  0  0  0  0  0
  194.2920  173.5010  140.9370 C   0  0  0  0  0  2  0  0  0  0  0  0
  193.8250  174.7670  139.1370 N   0  0  0  0  0  0  0  0  0  0  0  0
  190.6080  170.3220  141.9880 C   0  0  0  0  0  2  0  0  0  0  0  0
  192.3830  170.0260  143.2630 C   0  0  0  0  0  1  0  0  0  0  0  0
  191.9900  170.1460  141.9310 O   0  0  0  0  0  0  0  0  0  0  0  0
  2  7  1  6  0  0  0
  3 13  1  0  0  0  0
  4 15  1  0  0  0  0
  4 11  2  0  0  0  0
  5 16  1  0  0  0  0
  5  9  1  0  0  0  0
  6 10  1  0  0  0  0
  6  2  1  0  0  0  0
  8 10  1  0  0  0  0
  8  5  2  0  0  0  0
  9  2  1  0  0  0  0
 11 12  1  0  0  0  0
 12  3  2  0  0  0  0
 12  8  1  0  0  0  0
 13 16  2  0  0  0  0
 14  1  2  0  0  0  0
 14  3  1  0  0  0  0
 15 14  1  0  0  0  0
 17 20  2  0  0  0  0
 17 18  1  0  0  0  0
 18 22  2  0  0  0  0
 20 21  1  0  0  0  0
 21  1  1  0  0  0  0
 21 19  2  0  0  0  0
 22 19  1  0  0  0  0
 23 24  1  0  0  0  0
 24 18  1  0  0  0  0
 25  4  1  0  0  0  0
 26 25  1  0  0  0  0
 27 41  1  6  0  0  0
 27 26  1  0  0  0  0
 28 27  1  0  0  0  0
 29 33  1  0  0  0  0
 29 31  1  0  0  0  0
 30 28  1  0  0  0  0
 31 28  1  0  0  0  0
 31 32  1  1  0  0  0
 33 30  1  0  0  0  0
 34 31  1  0  0  0  0
 34 35  1  0  0  0  0
 35 39  1  0  0  0  0
 36 37  2  0  0  0  0
 37 39  1  0  0  0  0
 37 38  1  0  0  0  0
 40 36  1  0  0  0  0
 40 35  2  0  0  0  0
 43 41  1  0  0  0  0
 43 42  1  0  0  0  0
M  END
>  <MODEL>
5

>  <REMARK>
 VINA RESULT:      -7.2      2.702      7.194
  Name = 
  10 active torsions:
  status: ('A' for Active; 'I' for Inactive)
    1  A    between atoms: C_1  and  C_35
    2  A    between atoms: C_2  and  C_6
    3  A    between atoms: C_2  and  C_13
    4  A    between atoms: C_3  and  N_4
    5  A    between atoms: C_3  and  C_6
    6  A    between atoms: C_3  and  C_12
    7  A    between atoms: C_11  and  C_14
    8  A    between atoms: C_12  and  O_17
    9  A    between atoms: C_14  and  C_22
   10  A    between atoms: C_19  and  C_37
                            x       y       z     vdW  Elec       q    Type
                         _______ _______ _______ _____ _____    ______ ____

>  <TORSDO>
F 10

$$$$
=
 OpenBabel11052420593D

 43 48  0  0  1  0  0  0  0  0999 V2000
  192.5200  176.1850  145.7460 C   0  0  0  0  0  3  0  0  0  0  0  0
  185.3100  178.1960  146.1750 C   0  0  1  0  0  3  0  0  0  0  0  0
  190.1060  176.5390  145.6210 C   0  0  0  0  0  0  0  0  0  0  0  0
  190.0680  175.0940  143.1690 C   0  0  0  0  0  0  0  0  0  0  0  0
  187.7110  177.5730  146.5820 C   0  0  0  0  0  0  0  0  0  0  0  0
  185.1910  176.8920  145.3990 C   0  0  0  0  0  2  0  0  0  0  0  0
  184.0080  178.4810  146.8930 C   0  0  0  0  0  1  0  0  0  0  0  0
  187.7120  176.8330  145.3800 C   0  0  0  0  0  0  0  0  0  0  0  0
  186.4380  178.0860  147.1960 C   0  0  0  0  0  2  0  0  0  0  0  0
  186.4520  176.6790  144.5660 C   0  0  0  0  0  2  0  0  0  0  0  0
  188.9670  175.5910  143.6520 N   0  0  0  0  0  0  0  0  0  0  0  0
  188.9260  176.3240  144.8900 C   0  0  0  0  0  0  0  0  0  0  0  0
  190.0690  177.2380  146.7890 N   0  0  0  0  0  0  0  0  0  0  0  0
  191.3670  175.9960  145.0890 C   0  0  0  0  0  0  0  0  0  0  0  0
  191.3130  175.2750  143.8550 N   0  0  0  0  0  2  0  0  0  0  0  0
  188.9080  177.7480  147.2790 C   0  0  0  0  0  3  0  0  0  0  0  0
  195.7770  175.9920  143.8750 C   0  0  0  0  0  3  0  0  0  0  0  0
  196.4110  174.9070  144.4870 C   0  0  0  0  0  0  0  0  0  0  0  0
  194.5090  174.6350  145.9600 C   0  0  0  0  0  3  0  0  0  0  0  0
  194.5070  176.3930  144.3010 C   0  0  0  0  0  3  0  0  0  0  0  0
  193.8640  175.7190  145.3450 C   0  0  0  0  0  0  0  0  0  0  0  0
  195.7790  174.2320  145.5350 C   0  0  0  0  0  3  0  0  0  0  0  0
  197.9410  174.7940  142.6960 O   0  0  0  0  0  1  0  0  0  0  0  0
  197.7710  174.4950  144.0480 C   0  0  0  0  0  2  0  0  0  0  0  0
  190.0440  174.3650  141.8740 C   0  0  0  0  0  2  0  0  0  0  0  0
  191.4660  174.1660  141.3690 C   0  0  0  0  0  2  0  0  0  0  0  0
  191.8550  172.6820  141.3160 C   0  0  2  0  0  3  0  0  0  0  0  0
  193.2560  172.5000  140.8780 N   0  0  0  0  0  0  0  0  0  0  0  0
  195.5340  172.7610  141.5980 C   0  0  0  0  0  2  0  0  0  0  0  0
  193.7550  173.7630  140.3400 C   0  0  0  0  0  2  0  0  0  0  0  0
  194.1870  172.1700  141.9750 C   0  0  1  0  0  0  0  0  0  0  0  0
  193.7730  172.7430  143.1880 O   0  0  0  0  0  1  0  0  0  0  0  0
  195.2560  173.7650  140.5070 C   0  0  0  0  0  2  0  0  0  0  0  0
  194.3050  170.6490  142.1100 C   0  0  0  0  0  2  0  0  0  0  0  0
  194.5390  170.2010  143.5170 C   0  0  0  0  0  0  0  0  0  0  0  0
  194.1390  169.3490  145.4570 N   0  0  0  0  0  0  0  0  0  0  0  0
  195.3900  169.8400  145.4540 C   0  0  0  0  0  0  0  0  0  0  0  0
  196.3020  169.7760  146.6250 C   0  0  0  0  0  1  0  0  0  0  0  0
  195.7040  170.4040  144.2330 C   0  0  0  0  0  3  0  0  0  0  0  0
  193.6140  169.5730  144.2650 N   0  0  0  0  0  2  0  0  0  0  0  0
  190.8760  171.9320  140.4120 C   0  0  0  0  0  2  0  0  0  0  0  0
  190.4860  170.6890  142.1910 C   0  0  0  0  0  1  0  0  0  0  0  0
  190.7610  170.6050  140.8270 O   0  0  0  0  0  0  0  0  0  0  0  0
  2  7  1  1  0  0  0
  2  9  1  0  0  0  0
  3 13  1  0  0  0  0
  4 11  2  0  0  0  0
  4 15  1  0  0  0  0
  5  9  1  0  0  0  0
  5 16  1  0  0  0  0
  6  2  1  0  0  0  0
  8  5  2  0  0  0  0
 10  8  1  0  0  0  0
 10  6  1  0  0  0  0
 11 12  1  0  0  0  0
 12  8  1  0  0  0  0
 12  3  2  0  0  0  0
 13 16  2  0  0  0  0
 14  3  1  0  0  0  0
 14  1  2  0  0  0  0
 15 14  1  0  0  0  0
 17 20  2  0  0  0  0
 17 18  1  0  0  0  0
 18 22  2  0  0  0  0
 20 21  1  0  0  0  0
 21  1  1  0  0  0  0
 21 19  2  0  0  0  0
 22 19  1  0  0  0  0
 23 24  1  0  0  0  0
 24 18  1  0  0  0  0
 25  4  1  0  0  0  0
 26 25  1  0  0  0  0
 27 41  1  6  0  0  0
 27 26  1  0  0  0  0
 28 27  1  0  0  0  0
 28 31  1  0  0  0  0
 29 31  1  0  0  0  0
 30 33  1  0  0  0  0
 30 28  1  0  0  0  0
 31 34  1  0  0  0  0
 31 32  1  1  0  0  0
 33 29  1  0  0  0  0
 34 35  1  0  0  0  0
 35 39  2  0  0  0  0
 35 40  1  0  0  0  0
 37 36  2  0  0  0  0
 37 38  1  0  0  0  0
 39 37  1  0  0  0  0
 40 36  1  0  0  0  0
 41 43  1  0  0  0  0
 43 42  1  0  0  0  0
M  END
>  <MODEL>
6

>  <REMARK>
 VINA RESULT:      -6.8      3.286      9.236
  Name = 
  10 active torsions:
  status: ('A' for Active; 'I' for Inactive)
    1  A    between atoms: C_1  and  C_35
    2  A    between atoms: C_2  and  C_6
    3  A    between atoms: C_2  and  C_13
    4  A    between atoms: C_3  and  N_4
    5  A    between atoms: C_3  and  C_6
    6  A    between atoms: C_3  and  C_12
    7  A    between atoms: C_11  and  C_14
    8  A    between atoms: C_12  and  O_17
    9  A    between atoms: C_14  and  C_22
   10  A    between atoms: C_19  and  C_37
                            x       y       z     vdW  Elec       q    Type
                         _______ _______ _______ _____ _____    ______ ____

>  <TORSDO>
F 10

$$$$
=
 OpenBabel11052420593D

 43 48  0  0  1  0  0  0  0  0999 V2000
  189.4880  177.0050  145.9100 C   0  0  0  0  0  3  0  0  0  0  0  0
  196.2600  173.9860  144.7940 C   0  0  1  0  0  3  0  0  0  0  0  0
  191.5990  176.0360  145.1520 C   0  0  0  0  0  0  0  0  0  0  0  0
  190.3570  175.3870  142.6740 C   0  0  0  0  0  0  0  0  0  0  0  0
  194.2610  175.3270  145.5210 C   0  0  0  0  0  0  0  0  0  0  0  0
  195.8720  174.3400  143.3660 C   0  0  0  0  0  2  0  0  0  0  0  0
  197.7680  173.9240  144.9110 C   0  0  0  0  0  1  0  0  0  0  0  0
  193.6320  175.0360  144.2910 C   0  0  0  0  0  0  0  0  0  0  0  0
  195.7200  175.0450  145.7510 C   0  0  0  0  0  2  0  0  0  0  0  0
  194.3560  174.2640  143.2160 C   0  0  0  0  0  2  0  0  0  0  0  0
  191.6030  175.0740  142.8830 N   0  0  0  0  0  0  0  0  0  0  0  0
  192.2830  175.3830  144.1120 C   0  0  0  0  0  0  0  0  0  0  0  0
  192.2390  176.3230  146.3180 N   0  0  0  0  0  0  0  0  0  0  0  0
  190.1850  176.3910  144.9440 C   0  0  0  0  0  0  0  0  0  0  0  0
  189.5920  176.0500  143.6870 N   0  0  0  0  0  2  0  0  0  0  0  0
  193.5420  175.9900  146.5170 C   0  0  0  0  0  3  0  0  0  0  0  0
  186.2560  178.3950  144.5810 C   0  0  0  0  0  3  0  0  0  0  0  0
  185.3950  178.2500  145.6730 C   0  0  0  0  0  0  0  0  0  0  0  0
  187.1980  177.2670  146.9550 C   0  0  0  0  0  3  0  0  0  0  0  0
  187.5880  177.9820  144.6800 C   0  0  0  0  0  3  0  0  0  0  0  0
  188.0690  177.4160  145.8650 C   0  0  0  0  0  0  0  0  0  0  0  0
  185.8650  177.6790  146.8590 C   0  0  0  0  0  3  0  0  0  0  0  0
  183.6950  179.0510  144.2480 O   0  0  0  0  0  1  0  0  0  0  0  0
  183.9720  178.6700  145.5610 C   0  0  0  0  0  2  0  0  0  0  0  0
  189.7090  175.0190  141.3880 C   0  0  0  0  0  2  0  0  0  0  0  0
  188.9200  173.7290  141.5600 C   0  0  0  0  0  2  0  0  0  0  0  0
  189.8300  172.5370  141.8880 C   0  0  2  0  0  3  0  0  0  0  0  0
  189.9940  171.6390  140.7240 N   0  0  0  0  0  0  0  0  0  0  0  0
  191.4330  171.1730  138.8550 C   0  0  0  0  0  2  0  0  0  0  0  0
  189.4180  172.2780  139.5430 C   0  0  0  0  0  2  0  0  0  0  0  0
  191.4020  171.3860  140.3590 C   0  0  1  0  0  0  0  0  0  0  0  0
  192.2170  172.4860  140.6700 O   0  0  0  0  0  1  0  0  0  0  0  0
  190.1250  171.7160  138.3340 C   0  0  0  0  0  2  0  0  0  0  0  0
  191.9010  170.1260  141.0730 C   0  0  0  0  0  2  0  0  0  0  0  0
  192.9280  170.4130  142.1210 C   0  0  0  0  0  0  0  0  0  0  0  0
  194.8650  170.7050  143.0210 N   0  0  0  0  0  0  0  0  0  0  0  0
  193.9270  170.8110  143.9780 C   0  0  0  0  0  0  0  0  0  0  0  0
  194.2340  171.0860  145.4060 C   0  0  0  0  0  1  0  0  0  0  0  0
  192.6600  170.6290  143.4590 C   0  0  0  0  0  2  0  0  0  0  0  0
  194.2500  170.4580  141.8780 N   0  0  0  0  0  0  0  0  0  0  0  0
  189.2760  171.7940  143.1030 C   0  0  0  0  0  2  0  0  0  0  0  0
  189.9920  172.5800  145.0350 C   0  0  0  0  0  1  0  0  0  0  0  0
  188.9530  172.7000  144.1140 O   0  0  0  0  0  0  0  0  0  0  0  0
  2  7  1  6  0  0  0
  2  9  1  0  0  0  0
  3 13  1  0  0  0  0
  4 11  2  0  0  0  0
  4 15  1  0  0  0  0
  5  9  1  0  0  0  0
  5 16  1  0  0  0  0
  6  2  1  0  0  0  0
  8  5  2  0  0  0  0
 10  6  1  0  0  0  0
 10  8  1  0  0  0  0
 11 12  1  0  0  0  0
 12  8  1  0  0  0  0
 12  3  2  0  0  0  0
 13 16  2  0  0  0  0
 14  3  1  0  0  0  0
 14  1  2  0  0  0  0
 15 14  1  0  0  0  0
 17 20  2  0  0  0  0
 17 18  1  0  0  0  0
 18 22  2  0  0  0  0
 20 21  1  0  0  0  0
 21  1  1  0  0  0  0
 21 19  2  0  0  0  0
 22 19  1  0  0  0  0
 23 24  1  0  0  0  0
 24 18  1  0  0  0  0
 25 26  1  0  0  0  0
 25  4  1  0  0  0  0
 27 26  1  6  0  0  0
 27 41  1  0  0  0  0
 28 27  1  0  0  0  0
 29 31  1  0  0  0  0
 30 28  1  0  0  0  0
 31 32  1  1  0  0  0
 31 28  1  0  0  0  0
 31 34  1  0  0  0  0
 33 29  1  0  0  0  0
 33 30  1  0  0  0  0
 34 35  1  0  0  0  0
 35 39  1  0  0  0  0
 36 37  2  0  0  0  0
 37 38  1  0  0  0  0
 39 37  1  0  0  0  0
 40 35  2  0  0  0  0
 40 36  1  0  0  0  0
 41 43  1  0  0  0  0
 43 42  1  0  0  0  0
M  END
>  <MODEL>
7

>  <REMARK>
 VINA RESULT:      -6.8      2.361      7.277
  Name = 
  10 active torsions:
  status: ('A' for Active; 'I' for Inactive)
    1  A    between atoms: C_1  and  C_35
    2  A    between atoms: C_2  and  C_6
    3  A    between atoms: C_2  and  C_13
    4  A    between atoms: C_3  and  N_4
    5  A    between atoms: C_3  and  C_6
    6  A    between atoms: C_3  and  C_12
    7  A    between atoms: C_11  and  C_14
    8  A    between atoms: C_12  and  O_17
    9  A    between atoms: C_14  and  C_22
   10  A    between atoms: C_19  and  C_37
                            x       y       z     vdW  Elec       q    Type
                         _______ _______ _______ _____ _____    ______ ____

>  <TORSDO>
F 10

$$$$
=
 OpenBabel11052420593D

 43 48  0  0  1  0  0  0  0  0999 V2000
  188.9260  174.1670  140.0920 C   0  0  0  0  0  3  0  0  0  0  0  0
  186.1230  177.8290  146.0040 C   0  0  1  0  0  3  0  0  0  0  0  0
  188.3520  175.2430  142.2090 C   0  0  0  0  0  0  0  0  0  0  0  0
  190.2420  173.5670  143.5200 C   0  0  0  0  0  0  0  0  0  0  0  0
  186.9020  177.0520  143.7430 C   0  0  0  0  0  0  0  0  0  0  0  0
  187.5350  177.5430  146.4950 C   0  0  0  0  0  2  0  0  0  0  0  0
  185.5660  179.0350  146.7300 C   0  0  0  0  0  1  0  0  0  0  0  0
  187.8610  176.2260  144.3690 C   0  0  0  0  0  0  0  0  0  0  0  0
  186.1460  178.1060  144.5040 C   0  0  0  0  0  2  0  0  0  0  0  0
  188.0400  176.2480  145.8670 C   0  0  0  0  0  2  0  0  0  0  0  0
  189.5460  174.4280  144.2040 N   0  0  0  0  0  0  0  0  0  0  0  0
  188.5820  175.3040  143.5940 C   0  0  0  0  0  0  0  0  0  0  0  0
  187.4350  176.0680  141.6310 N   0  0  0  0  0  0  0  0  0  0  0  0
  189.1190  174.2690  141.4150 C   0  0  0  0  0  0  0  0  0  0  0  0
  190.0610  173.4420  142.1050 N   0  0  0  0  0  2  0  0  0  0  0  0
  186.7190  176.9620  142.3620 C   0  0  0  0  0  3  0  0  0  0  0  0
  189.6880  171.0240  138.1710 C   0  0  0  0  0  3  0  0  0  0  0  0
  190.8160  171.3910  137.4320 C   0  0  0  0  0  0  0  0  0  0  0  0
  190.7300  173.6040  138.4090 C   0  0  0  0  0  3  0  0  0  0  0  0
  189.0860  171.9460  139.0340 C   0  0  0  0  0  3  0  0  0  0  0  0
  189.6010  173.2410  139.1600 C   0  0  0  0  0  0  0  0  0  0  0  0
  191.3330  172.6840  137.5460 C   0  0  0  0  0  3  0  0  0  0  0  0
  190.7680  170.4330  135.2770 O   0  0  0  0  0  1  0  0  0  0  0  0
  191.4420  170.4170  136.4980 C   0  0  0  0  0  2  0  0  0  0  0  0
  191.2060  172.6760  144.2170 C   0  0  0  0  0  2  0  0  0  0  0  0
  192.0300  173.4850  145.2090 C   0  0  0  0  0  2  0  0  0  0  0  0
  193.5150  173.5310  144.8210 C   0  0  2  0  0  3  0  0  0  0  0  0
  193.9410  174.8990  144.4530 N   0  0  0  0  0  0  0  0  0  0  0  0
  194.9430  176.8940  145.3440 C   0  0  0  0  0  2  0  0  0  0  0  0
  192.8680  175.8360  144.7740 C   0  0  0  0  0  2  0  0  0  0  0  0
  195.1030  175.3890  145.2210 C   0  0  1  0  0  0  0  0  0  0  0  0
  195.1340  174.8370  146.5110 O   0  0  0  0  0  1  0  0  0  0  0  0
  193.5010  177.1850  145.0130 C   0  0  0  0  0  2  0  0  0  0  0  0
  196.3950  175.0620  144.4650 C   0  0  0  0  0  2  0  0  0  0  0  0
  196.3590  175.4890  143.0320 C   0  0  0  0  0  0  0  0  0  0  0  0
  196.3550  176.7920  141.3140 N   0  0  0  0  0  0  0  0  0  0  0  0
  196.2030  175.5250  140.8920 C   0  0  0  0  0  0  0  0  0  0  0  0
  196.0610  175.1450  139.4620 C   0  0  0  0  0  1  0  0  0  0  0  0
  196.1950  174.6410  141.9530 C   0  0  0  0  0  3  0  0  0  0  0  0
  196.4490  176.7700  142.6320 N   0  0  0  0  0  2  0  0  0  0  0  0
  193.7760  172.5330  143.6920 C   0  0  0  0  0  2  0  0  0  0  0  0
  194.9840  171.4290  145.1700 C   0  0  0  0  0  1  0  0  0  0  0  0
  195.0190  171.9250  143.8680 O   0  0  0  0  0  0  0  0  0  0  0  0
  1 14  2  0  0  0  0
  2  6  1  0  0  0  0
  2  7  1  1  0  0  0
  3 12  1  0  0  0  0
  4 11  2  0  0  0  0
  4 25  1  0  0  0  0
  5  8  1  0  0  0  0
  5  9  1  0  0  0  0
  8 10  1  0  0  0  0
  9  2  1  0  0  0  0
 10  6  1  0  0  0  0
 12 11  1  0  0  0  0
 12  8  2  0  0  0  0
 13  3  2  0  0  0  0
 13 16  1  0  0  0  0
 14 15  1  0  0  0  0
 14  3  1  0  0  0  0
 15  4  1  0  0  0  0
 16  5  2  0  0  0  0
 17 20  1  0  0  0  0
 18 22  1  0  0  0  0
 18 17  2  0  0  0  0
 19 21  1  0  0  0  0
 20 21  2  0  0  0  0
 21  1  1  0  0  0  0
 22 19  2  0  0  0  0
 23 24  1  0  0  0  0
 24 18  1  0  0  0  0
 25 26  1  0  0  0  0
 27 41  1  6  0  0  0
 27 26  1  0  0  0  0
 28 30  1  0  0  0  0
 28 27  1  0  0  0  0
 28 31  1  0  0  0  0
 30 33  1  0  0  0  0
 31 29  1  0  0  0  0
 31 32  1  1  0  0  0
 33 29  1  0  0  0  0
 34 31  1  0  0  0  0
 35 34  1  0  0  0  0
 36 40  1  0  0  0  0
 37 36  2  0  0  0  0
 37 39  1  0  0  0  0
 38 37  1  0  0  0  0
 39 35  2  0  0  0  0
 40 35  1  0  0  0  0
 41 43  1  0  0  0  0
 43 42  1  0  0  0  0
M  END
>  <MODEL>
8

>  <REMARK>
 VINA RESULT:      -6.7      3.113      8.067
  Name = 
  10 active torsions:
  status: ('A' for Active; 'I' for Inactive)
    1  A    between atoms: C_1  and  C_35
    2  A    between atoms: C_2  and  C_6
    3  A    between atoms: C_2  and  C_13
    4  A    between atoms: C_3  and  N_4
    5  A    between atoms: C_3  and  C_6
    6  A    between atoms: C_3  and  C_12
    7  A    between atoms: C_11  and  C_14
    8  A    between atoms: C_12  and  O_17
    9  A    between atoms: C_14  and  C_22
   10  A    between atoms: C_19  and  C_37
                            x       y       z     vdW  Elec       q    Type
                         _______ _______ _______ _____ _____    ______ ____

>  <TORSDO>
F 10

$$$$
=
 OpenBabel11052420593D

 43 48  0  0  1  0  0  0  0  0999 V2000
  189.6750  174.0050  141.3670 C   0  0  0  0  0  3  0  0  0  0  0  0
  185.1580  177.6350  146.1250 C   0  0  1  0  0  3  0  0  0  0  0  0
  188.5410  175.2590  143.1310 C   0  0  0  0  0  0  0  0  0  0  0  0
  190.7770  174.7980  144.8310 C   0  0  0  0  0  0  0  0  0  0  0  0
  186.3850  176.6920  144.1430 C   0  0  0  0  0  0  0  0  0  0  0  0
  186.5210  178.0360  146.6710 C   0  0  0  0  0  2  0  0  0  0  0  0
  184.1290  178.6750  146.5120 C   0  0  0  0  0  1  0  0  0  0  0  0
  187.5150  176.4710  144.9610 C   0  0  0  0  0  0  0  0  0  0  0  0
  185.2250  177.5290  144.6040 C   0  0  0  0  0  2  0  0  0  0  0  0
  187.5260  176.9200  146.4010 C   0  0  0  0  0  2  0  0  0  0  0  0
  189.7500  175.4660  145.2680 N   0  0  0  0  0  0  0  0  0  0  0  0
  188.5970  175.7350  144.4520 C   0  0  0  0  0  0  0  0  0  0  0  0
  187.4470  175.5060  142.3590 N   0  0  0  0  0  0  0  0  0  0  0  0
  189.6860  174.4890  142.6170 C   0  0  0  0  0  0  0  0  0  0  0  0
  190.7940  174.2760  143.4970 N   0  0  0  0  0  2  0  0  0  0  0  0
  186.3850  176.2090  142.8340 C   0  0  0  0  0  3  0  0  0  0  0  0
  192.9030  173.1810  139.6220 C   0  0  0  0  0  3  0  0  0  0  0  0
  192.7930  171.8020  139.4230 C   0  0  0  0  0  0  0  0  0  0  0  0
  190.6300  171.8240  140.5090 C   0  0  0  0  0  3  0  0  0  0  0  0
  191.8740  173.8810  140.2590 C   0  0  0  0  0  3  0  0  0  0  0  0
  190.7310  173.2100  140.7070 C   0  0  0  0  0  0  0  0  0  0  0  0
  191.6570  171.1220  139.8730 C   0  0  0  0  0  3  0  0  0  0  0  0
  195.1170  171.4100  139.3400 O   0  0  0  0  0  1  0  0  0  0  0  0
  193.8980  171.0540  138.7640 C   0  0  0  0  0  2  0  0  0  0  0  0
  191.9280  174.5380  145.7340 C   0  0  0  0  0  2  0  0  0  0  0  0
  192.8710  173.5310  145.0900 C   0  0  0  0  0  2  0  0  0  0  0  0
  194.1390  174.2000  144.5410 C   0  0  2  0  0  3  0  0  0  0  0  0
  195.3650  173.5580  145.0620 N   0  0  0  0  0  0  0  0  0  0  0  0
  197.0420  171.9210  144.5280 C   0  0  0  0  0  2  0  0  0  0  0  0
  195.0030  172.3100  145.7290 C   0  0  0  0  0  2  0  0  0  0  0  0
  196.3200  173.1540  144.0120 C   0  0  1  0  0  0  0  0  0  0  0  0
  195.6600  172.8170  142.8200 O   0  0  0  0  0  1  0  0  0  0  0  0
  196.2060  171.3990  145.6700 C   0  0  0  0  0  2  0  0  0  0  0  0
  197.3270  174.2830  143.7700 C   0  0  0  0  0  2  0  0  0  0  0  0
  197.1790  174.9230  142.4270 C   0  0  0  0  0  0  0  0  0  0  0  0
  196.5490  176.3320  140.9210 N   0  0  0  0  0  0  0  0  0  0  0  0
  197.2430  175.3480  140.3240 C   0  0  0  0  0  0  0  0  0  0  0  0
  197.5030  175.2940  138.8620 C   0  0  0  0  0  1  0  0  0  0  0  0
  197.6730  174.4090  141.2420 C   0  0  0  0  0  3  0  0  0  0  0  0
  196.5070  176.0690  142.2160 N   0  0  0  0  0  2  0  0  0  0  0  0
  194.1030  175.6950  144.8590 C   0  0  0  0  0  2  0  0  0  0  0  0
  194.5740  177.0740  146.5140 C   0  0  0  0  0  1  0  0  0  0  0  0
  195.1020  176.0140  145.7780 O   0  0  0  0  0  0  0  0  0  0  0  0
  1 14  2  0  0  0  0
  2  7  1  6  0  0  0
  2  6  1  0  0  0  0
  3 12  1  0  0  0  0
  4 11  2  0  0  0  0
  4 25  1  0  0  0  0
  5  9  1  0  0  0  0
  5  8  1  0  0  0  0
  8 10  1  0  0  0  0
  9  2  1  0  0  0  0
 10  6  1  0  0  0  0
 12  8  2  0  0  0  0
 12 11  1  0  0  0  0
 13 16  1  0  0  0  0
 13  3  2  0  0  0  0
 14  3  1  0  0  0  0
 14 15  1  0  0  0  0
 15  4  1  0  0  0  0
 16  5  2  0  0  0  0
 17 20  1  0  0  0  0
 18 17  2  0  0  0  0
 18 22  1  0  0  0  0
 19 21  1  0  0  0  0
 20 21  2  0  0  0  0
 21  1  1  0  0  0  0
 22 19  2  0  0  0  0
 24 23  1  0  0  0  0
 24 18  1  0  0  0  0
 26 25  1  0  0  0  0
 27 41  1  1  0  0  0
 27 28  1  0  0  0  0
 27 26  1  0  0  0  0
 28 30  1  0  0  0  0
 29 33  1  0  0  0  0
 31 32  1  6  0  0  0
 31 29  1  0  0  0  0
 31 28  1  0  0  0  0
 33 30  1  0  0  0  0
 34 31  1  0  0  0  0
 35 34  1  0  0  0  0
 36 40  1  0  0  0  0
 37 36  2  0  0  0  0
 37 39  1  0  0  0  0
 38 37  1  0  0  0  0
 39 35  2  0  0  0  0
 40 35  1  0  0  0  0
 41 43  1  0  0  0  0
 43 42  1  0  0  0  0
M  END
>  <MODEL>
9

>  <REMARK>
 VINA RESULT:      -6.7      3.460      8.667
  Name = 
  10 active torsions:
  status: ('A' for Active; 'I' for Inactive)
    1  A    between atoms: C_1  and  C_35
    2  A    between atoms: C_2  and  C_6
    3  A    between atoms: C_2  and  C_13
    4  A    between atoms: C_3  and  N_4
    5  A    between atoms: C_3  and  C_6
    6  A    between atoms: C_3  and  C_12
    7  A    between atoms: C_11  and  C_14
    8  A    between atoms: C_12  and  O_17
    9  A    between atoms: C_14  and  C_22
   10  A    between atoms: C_19  and  C_37
                            x       y       z     vdW  Elec       q    Type
                         _______ _______ _______ _____ _____    ______ ____

>  <TORSDO>
F 10

$$$$
