=
 OpenBabel11052417123D

 30 32  0  0  1  0  0  0  0  0999 V2000
  186.6200  176.6630  142.0340 C   0  0  0  0  0  2  0  0  0  0  0  0
  185.9520  177.9660  142.1610 C   0  0  2  0  0  3  0  0  0  0  0  0
  188.0260  176.7700  141.9470 C   0  0  0  0  0  2  0  0  0  0  0  0
  184.8010  179.8220  144.7970 O   0  0  0  0  0  0  0  0  0  0  0  0
  189.3250  177.5430  147.2620 O   0  0  0  0  0  0  0  0  0  0  0  0
  186.0200  178.5660  143.6020 C   0  0  2  0  0  3  0  0  0  0  0  0
  184.9990  178.5910  145.5100 C   0  0  2  0  0  0  0  0  0  0  0  0
  185.2720  177.7280  144.4340 O   0  0  0  0  0  0  0  0  0  0  0  0
  185.7630  179.8730  143.9220 O   0  0  0  0  0  0  0  0  0  0  0  0
  188.5360  176.9680  146.5050 C   0  0  0  0  0  0  0  0  0  0  0  0
  189.1210  176.2900  145.4090 N   0  0  0  0  0  2  0  0  0  0  0  0
  183.8580  178.2590  146.1060 O   0  0  0  0  0  1  0  0  0  0  0  0
  189.7610  175.4600  143.0180 C   0  0  2  0  0  3  0  0  0  0  0  0
  186.2550  178.6400  146.4370 C   0  0  0  0  0  2  0  0  0  0  0  0
  189.0030  175.6590  141.7490 C   0  0  1  0  0  3  0  0  0  0  0  0
  190.5900  175.9380  145.2400 C   0  0  1  0  0  3  0  0  0  0  0  0
  190.7220  176.6680  142.8060 C   0  0  0  0  0  2  0  0  0  0  0  0
  186.7250  176.9130  146.8350 S   0  0  0  0  0  0  0  0  0  0  0  0
  191.0370  175.6470  143.8030 C   0  0  2  0  0  3  0  0  0  0  0  0
  188.6580  174.2300  141.3100 C   0  0  0  0  0  0  0  0  0  0  0  0
  188.1250  173.5040  142.2140 C   0  0  0  0  0  2  0  0  0  0  0  0
  187.8170  174.9950  138.9120 O   0  0  0  0  0  0  0  0  0  0  0  0
  188.3310  174.0130  139.8330 C   0  0  0  0  0  0  0  0  0  0  0  0
  188.1910  172.8210  139.4660 O   0  0  0  0  0  1  0  0  0  0  0  0
  184.6420  177.9160  141.4740 C   0  0  0  0  0  2  0  0  0  0  0  0
  184.9930  178.2720  140.1390 O   0  0  0  0  0  1  0  0  0  0  0  0
  191.5490  176.7080  145.9110 O   0  0  0  0  0  0  0  0  0  0  0  0
  192.3970  175.8100  146.5770 C   0  0  0  0  0  2  0  0  0  0  0  0
  193.7760  176.1800  146.3350 C   0  0  0  0  0  3  0  0  0  0  0  0
  194.1910  177.1650  146.8880 O   0  0  0  0  0  0  0  0  0  0  0  0
  1  2  1  0  0  0  0
  2 25  1  1  0  0  0
  2  6  1  0  0  0  0
  3  1  1  0  0  0  0
  4  7  1  0  0  0  0
  6  9  1  6  0  0  0
  6  8  1  0  0  0  0
  7 12  1  1  0  0  0
  7 14  1  0  0  0  0
  8  7  1  0  0  0  0
  9  4  1  0  0  0  0
 10 18  1  0  0  0  0
 10  5  2  0  0  0  0
 11 10  1  0  0  0  0
 13 17  1  1  0  0  0
 13 19  1  0  0  0  0
 14 18  1  0  0  0  0
 15 20  1  1  0  0  0
 15  3  1  0  0  0  0
 15 13  1  0  0  0  0
 16 11  1  0  0  0  0
 16 27  1  6  0  0  0
 19 17  1  6  0  0  0
 19 16  1  0  0  0  0
 20 21  2  0  0  0  0
 22 23  2  0  0  0  0
 23 20  1  0  0  0  0
 24 23  1  0  0  0  0
 26 25  1  0  0  0  0
 27 28  1  0  0  0  0
 29 28  1  0  0  0  0
 29 30  2  0  0  0  0
M  END
>  <MODEL>
1

>  <REMARK>
 VINA RESULT:      -7.2      0.000      0.000
  Name = 
  6 active torsions:
  status: ('A' for Active; 'I' for Inactive)
    1  A    between atoms: C_2  and  C_20
    2  A    between atoms: C_2  and  C_22
    3  A    between atoms: C_3  and  C_10
    4  A    between atoms: C_4  and  C_27
    5  A    between atoms: C_10  and  O_25
    6  A    between atoms: C_23  and  O_25
                            x       y       z     vdW  Elec       q    Type
                         _______ _______ _______ _____ _____    ______ ____

>  <TORSDO>
F 6

$$$$
=
 OpenBabel11052417123D

 30 32  0  0  1  0  0  0  0  0999 V2000
  188.5280  176.7990  146.6180 C   0  0  0  0  0  2  0  0  0  0  0  0
  187.0800  177.0550  146.6360 C   0  0  2  0  0  3  0  0  0  0  0  0
  188.8450  175.4390  146.4050 C   0  0  0  0  0  2  0  0  0  0  0  0
  184.8010  178.1010  144.3060 O   0  0  0  0  0  0  0  0  0  0  0  0
  188.1470  175.0690  140.9360 O   0  0  0  0  0  0  0  0  0  0  0  0
  186.4350  177.1020  145.2140 C   0  0  2  0  0  3  0  0  0  0  0  0
  185.9880  178.4310  143.5660 C   0  0  2  0  0  0  0  0  0  0  0  0
  186.9610  178.2190  144.5590 O   0  0  0  0  0  0  0  0  0  0  0  0
  185.0930  177.0120  144.9570 O   0  0  0  0  0  0  0  0  0  0  0  0
  188.5120  175.8250  141.8430 C   0  0  0  0  0  0  0  0  0  0  0  0
  189.4010  175.2620  142.7890 N   0  0  0  0  0  2  0  0  0  0  0  0
  185.9300  179.7150  143.2250 O   0  0  0  0  0  1  0  0  0  0  0  0
  190.5360  174.4330  144.9890 C   0  0  2  0  0  3  0  0  0  0  0  0
  186.2510  177.4330  142.3940 C   0  0  0  0  0  2  0  0  0  0  0  0
  190.2050  174.8230  146.3900 C   0  0  1  0  0  3  0  0  0  0  0  0
  190.1800  173.9650  142.6420 C   0  0  1  0  0  3  0  0  0  0  0  0
  189.6800  173.1300  144.9940 C   0  0  0  0  0  2  0  0  0  0  0  0
  188.0100  177.5960  141.9040 S   0  0  0  0  0  0  0  0  0  0  0  0
  190.6820  173.3460  143.9520 C   0  0  2  0  0  3  0  0  0  0  0  0
  191.4940  175.4860  146.8920 C   0  0  0  0  0  0  0  0  0  0  0  0
  191.5630  175.6350  148.1580 C   0  0  0  0  0  2  0  0  0  0  0  0
  193.5910  174.1120  146.0220 O   0  0  0  0  0  1  0  0  0  0  0  0
  192.7550  175.2860  146.0530 C   0  0  0  0  0  0  0  0  0  0  0  0
  193.2910  176.3270  145.6010 O   0  0  0  0  0  0  0  0  0  0  0  0
  186.7870  178.1520  147.5850 C   0  0  0  0  0  2  0  0  0  0  0  0
  185.4760  177.8140  148.0340 O   0  0  0  0  0  1  0  0  0  0  0  0
  189.6850  172.9750  141.7840 O   0  0  0  0  0  0  0  0  0  0  0  0
  190.7840  172.4610  141.0800 C   0  0  0  0  0  2  0  0  0  0  0  0
  191.1610  173.3880  140.0330 C   0  0  0  0  0  3  0  0  0  0  0  0
  190.4370  173.4660  139.0750 O   0  0  0  0  0  0  0  0  0  0  0  0
  1  2  1  0  0  0  0
  2 25  1  6  0  0  0
  3  1  1  0  0  0  0
  4  9  1  0  0  0  0
  5 10  2  0  0  0  0
  6  8  1  1  0  0  0
  6  2  1  0  0  0  0
  7 12  1  6  0  0  0
  7  4  1  0  0  0  0
  7  8  1  0  0  0  0
  9  6  1  0  0  0  0
 10 18  1  0  0  0  0
 10 11  1  0  0  0  0
 13 17  1  6  0  0  0
 13 15  1  0  0  0  0
 14  7  1  0  0  0  0
 15  3  1  0  0  0  0
 15 20  1  6  0  0  0
 16 27  1  1  0  0  0
 16 11  1  0  0  0  0
 16 19  1  0  0  0  0
 18 14  1  0  0  0  0
 19 13  1  0  0  0  0
 19 17  1  1  0  0  0
 20 21  2  0  0  0  0
 22 23  1  0  0  0  0
 23 20  1  0  0  0  0
 24 23  2  0  0  0  0
 25 26  1  0  0  0  0
 28 27  1  0  0  0  0
 29 28  1  0  0  0  0
 30 29  2  0  0  0  0
M  END
>  <MODEL>
2

>  <REMARK>
 VINA RESULT:      -7.1      2.088      5.585
  Name = 
  6 active torsions:
  status: ('A' for Active; 'I' for Inactive)
    1  A    between atoms: C_2  and  C_20
    2  A    between atoms: C_2  and  C_22
    3  A    between atoms: C_3  and  C_10
    4  A    between atoms: C_4  and  C_27
    5  A    between atoms: C_10  and  O_25
    6  A    between atoms: C_23  and  O_25
                            x       y       z     vdW  Elec       q    Type
                         _______ _______ _______ _____ _____    ______ ____

>  <TORSDO>
F 6

$$$$
=
 OpenBabel11052417123D

 30 32  0  0  1  0  0  0  0  0999 V2000
  188.7710  176.2360  146.0710 C   0  0  0  0  0  2  0  0  0  0  0  0
  190.2000  175.8950  146.1260 C   0  0  2  0  0  3  0  0  0  0  0  0
  188.4950  177.3150  145.2010 C   0  0  0  0  0  2  0  0  0  0  0  0
  192.1810  173.5960  144.5400 O   0  0  0  0  0  0  0  0  0  0  0  0
  188.6470  174.7520  140.3080 O   0  0  0  0  0  0  0  0  0  0  0  0
  190.6940  175.0650  144.8980 C   0  0  2  0  0  3  0  0  0  0  0  0
  190.9110  173.0430  144.1590 C   0  0  2  0  0  0  0  0  0  0  0  0
  190.0550  173.8230  144.9560 O   0  0  0  0  0  0  0  0  0  0  0  0
  192.0060  174.8870  144.5460 O   0  0  0  0  0  0  0  0  0  0  0  0
  188.3430  174.6080  141.4970 C   0  0  0  0  0  0  0  0  0  0  0  0
  187.5810  175.6550  142.0670 N   0  0  0  0  0  2  0  0  0  0  0  0
  190.8760  171.7670  144.5330 O   0  0  0  0  0  1  0  0  0  0  0  0
  186.7150  177.5980  143.5800 C   0  0  2  0  0  3  0  0  0  0  0  0
  190.5740  173.3140  142.6580 C   0  0  0  0  0  2  0  0  0  0  0  0
  187.1690  177.9560  144.9550 C   0  0  1  0  0  3  0  0  0  0  0  0
  186.8500  176.7560  141.3160 C   0  0  1  0  0  3  0  0  0  0  0  0
  187.6240  178.6320  142.8510 C   0  0  0  0  0  2  0  0  0  0  0  0
  188.7690  173.0830  142.4380 S   0  0  0  0  0  0  0  0  0  0  0  0
  186.5120  178.0030  142.1400 C   0  0  2  0  0  3  0  0  0  0  0  0
  185.9100  177.7660  145.8100 C   0  0  0  0  0  0  0  0  0  0  0  0
  185.3070  176.6540  145.6380 C   0  0  0  0  0  2  0  0  0  0  0  0
  186.9670  178.6780  148.0680 O   0  0  0  0  0  1  0  0  0  0  0  0
  185.8660  178.4850  147.1580 C   0  0  0  0  0  0  0  0  0  0  0  0
  184.7290  178.6400  147.6650 O   0  0  0  0  0  0  0  0  0  0  0  0
  190.5400  175.4220  147.4860 C   0  0  0  0  0  2  0  0  0  0  0  0
  191.3840  176.4670  147.9630 O   0  0  0  0  0  1  0  0  0  0  0  0
  187.2990  177.1140  140.0380 O   0  0  0  0  0  0  0  0  0  0  0  0
  186.1980  177.0000  139.1750 C   0  0  0  0  0  2  0  0  0  0  0  0
  186.6200  176.3810  137.9370 C   0  0  0  0  0  3  0  0  0  0  0  0
  185.7600  176.0350  137.1680 O   0  0  0  0  0  0  0  0  0  0  0  0
  1  2  1  0  0  0  0
  2 25  1  1  0  0  0
  3  1  1  0  0  0  0
  4  9  1  0  0  0  0
  5 10  2  0  0  0  0
  6  9  1  1  0  0  0
  6  8  1  0  0  0  0
  6  2  1  0  0  0  0
  7 12  1  1  0  0  0
  7  4  1  0  0  0  0
  7  8  1  0  0  0  0
 10 11  1  0  0  0  0
 10 18  1  0  0  0  0
 13 17  1  6  0  0  0
 13 15  1  0  0  0  0
 14  7  1  0  0  0  0
 15  3  1  0  0  0  0
 15 20  1  1  0  0  0
 16 27  1  6  0  0  0
 16 11  1  0  0  0  0
 16 19  1  0  0  0  0
 18 14  1  0  0  0  0
 19 17  1  6  0  0  0
 19 13  1  0  0  0  0
 20 23  1  0  0  0  0
 21 20  2  0  0  0  0
 23 24  2  0  0  0  0
 23 22  1  0  0  0  0
 25 26  1  0  0  0  0
 28 27  1  0  0  0  0
 29 28  1  0  0  0  0
 30 29  2  0  0  0  0
M  END
>  <MODEL>
3

>  <REMARK>
 VINA RESULT:      -6.8      2.561      7.635
  Name = 
  6 active torsions:
  status: ('A' for Active; 'I' for Inactive)
    1  A    between atoms: C_2  and  C_20
    2  A    between atoms: C_2  and  C_22
    3  A    between atoms: C_3  and  C_10
    4  A    between atoms: C_4  and  C_27
    5  A    between atoms: C_10  and  O_25
    6  A    between atoms: C_23  and  O_25
                            x       y       z     vdW  Elec       q    Type
                         _______ _______ _______ _____ _____    ______ ____

>  <TORSDO>
F 6

$$$$
=
 OpenBabel11052417123D

 30 32  0  0  1  0  0  0  0  0999 V2000
  193.0340  174.7220  143.2160 C   0  0  0  0  0  2  0  0  0  0  0  0
  193.2890  174.3200  141.8250 C   0  0  2  0  0  3  0  0  0  0  0  0
  192.5630  176.0500  143.3290 C   0  0  0  0  0  2  0  0  0  0  0  0
  191.4900  172.6410  139.4460 O   0  0  0  0  0  0  0  0  0  0  0  0
  187.2520  175.3730  141.9590 O   0  0  0  0  0  0  0  0  0  0  0  0
  191.9950  173.9540  141.0310 C   0  0  2  0  0  3  0  0  0  0  0  0
  190.6590  172.3150  140.5710 C   0  0  2  0  0  0  0  0  0  0  0  0
  191.4630  172.8020  141.6170 O   0  0  0  0  0  0  0  0  0  0  0  0
  191.9110  173.8530  139.6670 O   0  0  0  0  0  0  0  0  0  0  0  0
  188.2110  174.8320  142.5210 C   0  0  0  0  0  0  0  0  0  0  0  0
  188.9240  175.6440  143.4340 N   0  0  0  0  0  2  0  0  0  0  0  0
  190.5410  170.9920  140.6400 O   0  0  0  0  0  1  0  0  0  0  0  0
  190.7860  176.9660  144.7000 C   0  0  2  0  0  3  0  0  0  0  0  0
  189.3170  173.1130  140.5660 C   0  0  0  0  0  2  0  0  0  0  0  0
  192.2630  176.7950  144.5860 C   0  0  1  0  0  3  0  0  0  0  0  0
  188.4650  176.9710  144.0170 C   0  0  1  0  0  3  0  0  0  0  0  0
  190.6970  178.1490  143.6890 C   0  0  0  0  0  2  0  0  0  0  0  0
  188.6240  173.0560  142.2630 S   0  0  0  0  0  0  0  0  0  0  0  0
  189.5770  177.8620  144.5830 C   0  0  2  0  0  3  0  0  0  0  0  0
  192.6860  176.3730  146.0000 C   0  0  0  0  0  0  0  0  0  0  0  0
  191.9920  175.4290  146.5080 C   0  0  0  0  0  2  0  0  0  0  0  0
  194.9320  177.7660  146.2380 O   0  0  0  0  0  0  0  0  0  0  0  0
  194.1550  176.5600  146.3750 C   0  0  0  0  0  0  0  0  0  0  0  0
  194.8290  175.5110  146.5110 O   0  0  0  0  0  1  0  0  0  0  0  0
  194.4340  173.3830  141.7880 C   0  0  0  0  0  2  0  0  0  0  0  0
  194.4640  172.8960  143.1270 O   0  0  0  0  0  1  0  0  0  0  0  0
  187.5340  177.7360  143.3020 O   0  0  0  0  0  0  0  0  0  0  0  0
  186.6570  178.2920  144.2450 C   0  0  0  0  0  2  0  0  0  0  0  0
  185.7190  179.1660  143.5730 C   0  0  0  0  0  3  0  0  0  0  0  0
  185.4640  180.2180  144.1010 O   0  0  0  0  0  0  0  0  0  0  0  0
  1  3  1  0  0  0  0
  2 25  1  1  0  0  0
  2  1  1  0  0  0  0
  3 15  1  0  0  0  0
  4  9  1  0  0  0  0
  4  7  1  0  0  0  0
  5 10  2  0  0  0  0
  6  9  1  6  0  0  0
  6  8  1  0  0  0  0
  6  2  1  0  0  0  0
  7 12  1  1  0  0  0
  7  8  1  0  0  0  0
 10 11  1  0  0  0  0
 11 16  1  0  0  0  0
 13 17  1  6  0  0  0
 14  7  1  0  0  0  0
 14 18  1  0  0  0  0
 15 13  1  0  0  0  0
 15 20  1  1  0  0  0
 16 27  1  6  0  0  0
 16 19  1  0  0  0  0
 18 10  1  0  0  0  0
 19 17  1  6  0  0  0
 19 13  1  0  0  0  0
 20 23  1  0  0  0  0
 20 21  2  0  0  0  0
 22 23  2  0  0  0  0
 23 24  1  0  0  0  0
 25 26  1  0  0  0  0
 27 28  1  0  0  0  0
 29 30  2  0  0  0  0
 29 28  1  0  0  0  0
M  END
>  <MODEL>
4

>  <REMARK>
 VINA RESULT:      -6.4      2.769      7.733
  Name = 
  6 active torsions:
  status: ('A' for Active; 'I' for Inactive)
    1  A    between atoms: C_2  and  C_20
    2  A    between atoms: C_2  and  C_22
    3  A    between atoms: C_3  and  C_10
    4  A    between atoms: C_4  and  C_27
    5  A    between atoms: C_10  and  O_25
    6  A    between atoms: C_23  and  O_25
                            x       y       z     vdW  Elec       q    Type
                         _______ _______ _______ _____ _____    ______ ____

>  <TORSDO>
F 6

$$$$
=
 OpenBabel11052417123D

 30 32  0  0  1  0  0  0  0  0999 V2000
  192.0650  174.4030  144.5370 C   0  0  0  0  0  2  0  0  0  0  0  0
  192.9740  173.9770  143.4630 C   0  0  2  0  0  3  0  0  0  0  0  0
  191.7310  175.7740  144.4660 C   0  0  0  0  0  2  0  0  0  0  0  0
  192.5440  172.5090  140.4000 O   0  0  0  0  0  0  0  0  0  0  0  0
  187.8940  175.6880  140.4900 O   0  0  0  0  0  0  0  0  0  0  0  0
  192.2610  173.7570  142.0910 C   0  0  2  0  0  3  0  0  0  0  0  0
  191.2200  172.2760  140.9060 C   0  0  2  0  0  0  0  0  0  0  0  0
  191.3970  172.6690  142.2440 O   0  0  0  0  0  0  0  0  0  0  0  0
  192.8970  173.6670  140.8810 O   0  0  0  0  0  0  0  0  0  0  0  0
  188.3600  175.0440  141.4370 C   0  0  0  0  0  0  0  0  0  0  0  0
  188.5600  175.7720  142.6340 N   0  0  0  0  0  2  0  0  0  0  0  0
  190.9600  170.9740  140.8250 O   0  0  0  0  0  1  0  0  0  0  0  0
  189.5940  176.8790  144.7600 C   0  0  2  0  0  3  0  0  0  0  0  0
  190.1610  173.2170  140.2480 C   0  0  0  0  0  2  0  0  0  0  0  0
  190.8870  176.5460  145.4250 C   0  0  1  0  0  3  0  0  0  0  0  0
  187.9890  177.1410  142.9690 C   0  0  1  0  0  3  0  0  0  0  0  0
  190.1590  178.0660  143.9240 C   0  0  0  0  0  2  0  0  0  0  0  0
  188.6790  173.2340  141.3280 S   0  0  0  0  0  0  0  0  0  0  0  0
  188.7150  177.9020  144.0830 C   0  0  2  0  0  3  0  0  0  0  0  0
  190.4630  176.0780  146.8230 C   0  0  0  0  0  0  0  0  0  0  0  0
  190.9230  176.7800  147.7860 C   0  0  0  0  0  2  0  0  0  0  0  0
  187.8430  175.9700  147.2270 O   0  0  0  0  0  1  0  0  0  0  0  0
  189.1180  175.3630  146.9420 C   0  0  0  0  0  0  0  0  0  0  0  0
  189.1660  174.1230  147.1270 O   0  0  0  0  0  0  0  0  0  0  0  0
  193.8750  172.9190  143.9730 C   0  0  0  0  0  2  0  0  0  0  0  0
  193.3440  172.6760  145.2740 O   0  0  0  0  0  1  0  0  0  0  0  0
  187.6480  178.0040  141.9200 O   0  0  0  0  0  0  0  0  0  0  0  0
  186.4220  178.5950  142.2630 C   0  0  0  0  0  2  0  0  0  0  0  0
  185.3850  177.5850  142.2620 C   0  0  0  0  0  3  0  0  0  0  0  0
  184.3850  177.8160  142.8930 O   0  0  0  0  0  0  0  0  0  0  0  0
  2 25  1  1  0  0  0
  2  1  1  0  0  0  0
  3  1  1  0  0  0  0
  3 15  1  0  0  0  0
  4  9  1  0  0  0  0
  4  7  1  0  0  0  0
  5 10  2  0  0  0  0
  6  9  1  6  0  0  0
  6  8  1  0  0  0  0
  6  2  1  0  0  0  0
  7 12  1  6  0  0  0
  7  8  1  0  0  0  0
 10 11  1  0  0  0  0
 11 16  1  0  0  0  0
 13 17  1  6  0  0  0
 13 15  1  0  0  0  0
 14  7  1  0  0  0  0
 14 18  1  0  0  0  0
 15 20  1  1  0  0  0
 16 27  1  6  0  0  0
 16 19  1  0  0  0  0
 18 10  1  0  0  0  0
 19 17  1  6  0  0  0
 19 13  1  0  0  0  0
 20 23  1  0  0  0  0
 20 21  2  0  0  0  0
 23 24  2  0  0  0  0
 23 22  1  0  0  0  0
 25 26  1  0  0  0  0
 27 28  1  0  0  0  0
 29 28  1  0  0  0  0
 29 30  2  0  0  0  0
M  END
>  <MODEL>
5

>  <REMARK>
 VINA RESULT:      -6.4      2.939      7.757
  Name = 
  6 active torsions:
  status: ('A' for Active; 'I' for Inactive)
    1  A    between atoms: C_2  and  C_20
    2  A    between atoms: C_2  and  C_22
    3  A    between atoms: C_3  and  C_10
    4  A    between atoms: C_4  and  C_27
    5  A    between atoms: C_10  and  O_25
    6  A    between atoms: C_23  and  O_25
                            x       y       z     vdW  Elec       q    Type
                         _______ _______ _______ _____ _____    ______ ____

>  <TORSDO>
F 6

$$$$
=
 OpenBabel11052417123D

 30 32  0  0  1  0  0  0  0  0999 V2000
  192.2130  175.8350  144.8220 C   0  0  0  0  0  2  0  0  0  0  0  0
  193.3310  175.9440  143.8750 C   0  0  2  0  0  3  0  0  0  0  0  0
  191.2210  176.8200  144.6200 C   0  0  0  0  0  2  0  0  0  0  0  0
  194.1080  174.4400  140.8990 O   0  0  0  0  0  0  0  0  0  0  0  0
  188.5100  174.6730  140.3100 O   0  0  0  0  0  0  0  0  0  0  0  0
  193.0120  175.3660  142.4590 C   0  0  2  0  0  3  0  0  0  0  0  0
  193.0540  173.5460  141.2890 C   0  0  2  0  0  0  0  0  0  0  0  0
  192.8350  173.9870  142.6060 O   0  0  0  0  0  0  0  0  0  0  0  0
  193.7400  175.6140  141.3260 O   0  0  0  0  0  0  0  0  0  0  0  0
  189.1260  174.3840  141.3410 C   0  0  0  0  0  0  0  0  0  0  0  0
  188.7690  175.1190  142.4960 N   0  0  0  0  0  2  0  0  0  0  0  0
  193.5280  172.3030  141.2780 O   0  0  0  0  0  1  0  0  0  0  0  0
  188.8050  176.6270  144.6270 C   0  0  2  0  0  3  0  0  0  0  0  0
  191.7470  173.7760  140.4670 C   0  0  0  0  0  2  0  0  0  0  0  0
  189.9890  177.0380  145.4350 C   0  0  1  0  0  3  0  0  0  0  0  0
  187.5300  175.9810  142.6750 C   0  0  1  0  0  3  0  0  0  0  0  0
  188.7580  177.9250  143.7650 C   0  0  0  0  0  2  0  0  0  0  0  0
  190.3590  173.0170  141.3940 S   0  0  0  0  0  0  0  0  0  0  0  0
  187.6080  177.0230  143.7960 C   0  0  2  0  0  3  0  0  0  0  0  0
  189.7100  176.4310  146.8160 C   0  0  0  0  0  0  0  0  0  0  0  0
  188.7660  175.5710  146.8430 C   0  0  0  0  0  2  0  0  0  0  0  0
  191.4570  175.1410  148.3410 O   0  0  0  0  0  0  0  0  0  0  0  0
  190.8830  176.3430  147.7910 C   0  0  0  0  0  0  0  0  0  0  0  0
  191.1650  177.3960  148.4130 O   0  0  0  0  0  1  0  0  0  0  0  0
  194.5850  175.5290  144.5440 C   0  0  0  0  0  2  0  0  0  0  0  0
  195.5110  176.5060  144.0740 O   0  0  0  0  0  1  0  0  0  0  0  0
  186.9150  176.5220  141.5380 O   0  0  0  0  0  0  0  0  0  0  0  0
  185.8120  177.2630  141.9880 C   0  0  0  0  0  2  0  0  0  0  0  0
  185.4240  178.2160  140.9690 C   0  0  0  0  0  3  0  0  0  0  0  0
  184.2470  178.3460  140.7500 O   0  0  0  0  0  0  0  0  0  0  0  0
  2 25  1  1  0  0  0
  2  1  1  0  0  0  0
  3  1  1  0  0  0  0
  3 15  1  0  0  0  0
  4  7  1  0  0  0  0
  4  9  1  0  0  0  0
  5 10  2  0  0  0  0
  6  9  1  6  0  0  0
  6  8  1  0  0  0  0
  6  2  1  0  0  0  0
  7 12  1  6  0  0  0
  7  8  1  0  0  0  0
 10 18  1  0  0  0  0
 10 11  1  0  0  0  0
 11 16  1  0  0  0  0
 13 17  1  6  0  0  0
 13 15  1  0  0  0  0
 14  7  1  0  0  0  0
 14 18  1  0  0  0  0
 15 20  1  1  0  0  0
 16 27  1  6  0  0  0
 16 19  1  0  0  0  0
 19 17  1  6  0  0  0
 19 13  1  0  0  0  0
 20 21  2  0  0  0  0
 20 23  1  0  0  0  0
 23 22  2  0  0  0  0
 23 24  1  0  0  0  0
 26 25  1  0  0  0  0
 27 28  1  0  0  0  0
 29 28  1  0  0  0  0
 30 29  2  0  0  0  0
M  END
>  <MODEL>
6

>  <REMARK>
 VINA RESULT:      -6.0      3.105      8.123
  Name = 
  6 active torsions:
  status: ('A' for Active; 'I' for Inactive)
    1  A    between atoms: C_2  and  C_20
    2  A    between atoms: C_2  and  C_22
    3  A    between atoms: C_3  and  C_10
    4  A    between atoms: C_4  and  C_27
    5  A    between atoms: C_10  and  O_25
    6  A    between atoms: C_23  and  O_25
                            x       y       z     vdW  Elec       q    Type
                         _______ _______ _______ _____ _____    ______ ____

>  <TORSDO>
F 6

$$$$
=
 OpenBabel11052417123D

 30 32  0  0  1  0  0  0  0  0999 V2000
  187.7900  175.5780  142.3680 C   0  0  0  0  0  2  0  0  0  0  0  0
  187.1660  176.8910  142.5790 C   0  0  2  0  0  3  0  0  0  0  0  0
  189.1910  175.6540  142.2000 C   0  0  0  0  0  2  0  0  0  0  0  0
  186.2220  178.6820  145.3400 O   0  0  0  0  0  0  0  0  0  0  0  0
  190.8250  176.2110  147.4490 O   0  0  0  0  0  0  0  0  0  0  0  0
  187.3350  177.4390  144.0320 C   0  0  2  0  0  3  0  0  0  0  0  0
  186.4310  177.4220  145.9980 C   0  0  2  0  0  0  0  0  0  0  0  0
  186.6170  176.5910  144.8800 O   0  0  0  0  0  0  0  0  0  0  0  0
  187.1320  178.7400  144.4100 O   0  0  0  0  0  0  0  0  0  0  0  0
  189.9770  175.6810  146.7230 C   0  0  0  0  0  0  0  0  0  0  0  0
  190.4780  175.0280  145.5720 N   0  0  0  0  0  2  0  0  0  0  0  0
  185.3190  177.0970  146.6510 O   0  0  0  0  0  1  0  0  0  0  0  0
  190.9530  174.2660  143.1200 C   0  0  2  0  0  3  0  0  0  0  0  0
  187.7410  177.4090  146.8480 C   0  0  0  0  0  2  0  0  0  0  0  0
  190.1250  174.5270  141.9070 C   0  0  1  0  0  3  0  0  0  0  0  0
  191.9240  174.6470  145.3030 C   0  0  1  0  0  3  0  0  0  0  0  0
  191.9300  175.4570  142.8910 C   0  0  0  0  0  2  0  0  0  0  0  0
  188.1880  175.6580  147.1600 S   0  0  0  0  0  0  0  0  0  0  0  0
  192.2770  174.3950  143.8330 C   0  0  2  0  0  3  0  0  0  0  0  0
  189.7170  173.1230  141.4420 C   0  0  0  0  0  0  0  0  0  0  0  0
  189.3240  172.3420  142.3720 C   0  0  0  0  0  2  0  0  0  0  0  0
  187.8260  172.6510  139.6410 O   0  0  0  0  0  1  0  0  0  0  0  0
  189.1750  172.9890  140.0200 C   0  0  0  0  0  0  0  0  0  0  0  0
  190.0300  172.8430  139.1130 O   0  0  0  0  0  0  0  0  0  0  0  0
  185.8160  176.8970  141.9710 C   0  0  0  0  0  2  0  0  0  0  0  0
  185.7140  178.2340  141.4870 O   0  0  0  0  0  1  0  0  0  0  0  0
  192.9420  175.3700  145.9390 O   0  0  0  0  0  0  0  0  0  0  0  0
  194.1300  174.6470  145.7540 C   0  0  0  0  0  2  0  0  0  0  0  0
  195.2370  175.5690  145.6120 C   0  0  0  0  0  3  0  0  0  0  0  0
  195.5400  175.9060  144.4970 O   0  0  0  0  0  0  0  0  0  0  0  0
  1  2  1  0  0  0  0
  2 25  1  1  0  0  0
  2  6  1  0  0  0  0
  3  1  1  0  0  0  0
  4  7  1  0  0  0  0
  6  9  1  6  0  0  0
  6  8  1  0  0  0  0
  7 12  1  1  0  0  0
  7 14  1  0  0  0  0
  8  7  1  0  0  0  0
  9  4  1  0  0  0  0
 10 18  1  0  0  0  0
 10  5  2  0  0  0  0
 11 10  1  0  0  0  0
 13 17  1  1  0  0  0
 13 19  1  0  0  0  0
 14 18  1  0  0  0  0
 15 20  1  1  0  0  0
 15  3  1  0  0  0  0
 15 13  1  0  0  0  0
 16 11  1  0  0  0  0
 16 27  1  6  0  0  0
 19 17  1  6  0  0  0
 19 16  1  0  0  0  0
 20 21  2  0  0  0  0
 22 23  1  0  0  0  0
 23 20  1  0  0  0  0
 24 23  2  0  0  0  0
 26 25  1  0  0  0  0
 28 27  1  0  0  0  0
 29 28  1  0  0  0  0
 30 29  2  0  0  0  0
M  END
>  <MODEL>
7

>  <REMARK>
 VINA RESULT:      -6.0      1.628      1.874
  Name = 
  6 active torsions:
  status: ('A' for Active; 'I' for Inactive)
    1  A    between atoms: C_2  and  C_20
    2  A    between atoms: C_2  and  C_22
    3  A    between atoms: C_3  and  C_10
    4  A    between atoms: C_4  and  C_27
    5  A    between atoms: C_10  and  O_25
    6  A    between atoms: C_23  and  O_25
                            x       y       z     vdW  Elec       q    Type
                         _______ _______ _______ _____ _____    ______ ____

>  <TORSDO>
F 6

$$$$
=
 OpenBabel11052417123D

 30 32  0  0  1  0  0  0  0  0999 V2000
  188.0030  175.1690  142.6440 C   0  0  0  0  0  2  0  0  0  0  0  0
  187.3920  176.4560  143.0020 C   0  0  2  0  0  3  0  0  0  0  0  0
  189.3340  175.2980  142.1850 C   0  0  0  0  0  2  0  0  0  0  0  0
  186.9910  178.1880  145.9280 O   0  0  0  0  0  0  0  0  0  0  0  0
  192.0180  175.8730  146.9810 O   0  0  0  0  0  0  0  0  0  0  0  0
  187.8450  176.9980  144.3960 C   0  0  2  0  0  3  0  0  0  0  0  0
  187.3780  176.9320  146.5070 C   0  0  2  0  0  0  0  0  0  0  0  0
  187.3520  176.1170  145.3620 O   0  0  0  0  0  0  0  0  0  0  0  0
  187.6820  178.2880  144.8280 O   0  0  0  0  0  0  0  0  0  0  0  0
  191.0550  175.3180  146.4410 C   0  0  0  0  0  0  0  0  0  0  0  0
  191.3230  174.6940  145.2000 N   0  0  0  0  0  2  0  0  0  0  0  0
  186.4400  176.5600  147.3750 O   0  0  0  0  0  1  0  0  0  0  0  0
  191.2970  173.9690  142.6920 C   0  0  2  0  0  3  0  0  0  0  0  0
  188.8370  176.9600  147.0620 C   0  0  0  0  0  2  0  0  0  0  0  0
  190.2230  174.2090  141.6850 C   0  0  1  0  0  3  0  0  0  0  0  0
  192.6930  174.3680  144.6270 C   0  0  1  0  0  3  0  0  0  0  0  0
  192.1620  175.1980  142.2810 C   0  0  0  0  0  2  0  0  0  0  0  0
  189.4010  175.2250  147.2450 S   0  0  0  0  0  0  0  0  0  0  0  0
  192.7360  174.1420  143.1120 C   0  0  2  0  0  3  0  0  0  0  0  0
  189.7750  172.7950  141.2940 C   0  0  0  0  0  0  0  0  0  0  0  0
  190.0980  172.4380  140.1110 C   0  0  0  0  0  2  0  0  0  0  0  0
  188.9660  171.9520  143.6760 O   0  0  0  0  0  1  0  0  0  0  0  0
  189.6430  171.7680  142.4170 C   0  0  0  0  0  0  0  0  0  0  0  0
  190.4520  170.8090  142.3880 O   0  0  0  0  0  0  0  0  0  0  0  0
  185.9450  176.4170  142.6920 C   0  0  0  0  0  2  0  0  0  0  0  0
  185.7300  177.7010  142.1120 O   0  0  0  0  0  1  0  0  0  0  0  0
  193.7960  175.1240  145.0460 O   0  0  0  0  0  0  0  0  0  0  0  0
  194.9280  174.3090  144.8920 C   0  0  0  0  0  2  0  0  0  0  0  0
  196.0520  175.1190  144.4750 C   0  0  0  0  0  3  0  0  0  0  0  0
  195.8440  176.2830  144.2470 O   0  0  0  0  0  0  0  0  0  0  0  0
  1  2  1  0  0  0  0
  2 25  1  1  0  0  0
  2  6  1  0  0  0  0
  3  1  1  0  0  0  0
  4  7  1  0  0  0  0
  6  9  1  1  0  0  0
  6  8  1  0  0  0  0
  7 14  1  0  0  0  0
  7 12  1  1  0  0  0
  8  7  1  0  0  0  0
  9  4  1  0  0  0  0
 10  5  2  0  0  0  0
 10 18  1  0  0  0  0
 11 10  1  0  0  0  0
 13 17  1  1  0  0  0
 13 19  1  0  0  0  0
 14 18  1  0  0  0  0
 15 20  1  1  0  0  0
 15  3  1  0  0  0  0
 15 13  1  0  0  0  0
 16 27  1  6  0  0  0
 16 11  1  0  0  0  0
 19 17  1  6  0  0  0
 19 16  1  0  0  0  0
 20 23  1  0  0  0  0
 21 20  2  0  0  0  0
 23 22  1  0  0  0  0
 24 23  2  0  0  0  0
 26 25  1  0  0  0  0
 28 27  1  0  0  0  0
 29 28  1  0  0  0  0
 30 29  2  0  0  0  0
M  END
>  <MODEL>
8

>  <REMARK>
 VINA RESULT:      -5.9      2.409      2.966
  Name = 
  6 active torsions:
  status: ('A' for Active; 'I' for Inactive)
    1  A    between atoms: C_2  and  C_20
    2  A    between atoms: C_2  and  C_22
    3  A    between atoms: C_3  and  C_10
    4  A    between atoms: C_4  and  C_27
    5  A    between atoms: C_10  and  O_25
    6  A    between atoms: C_23  and  O_25
                            x       y       z     vdW  Elec       q    Type
                         _______ _______ _______ _____ _____    ______ ____

>  <TORSDO>
F 6

$$$$
=
 OpenBabel11052417123D

 30 32  0  0  1  0  0  0  0  0999 V2000
  191.1240  176.4120  145.8610 C   0  0  0  0  0  2  0  0  0  0  0  0
  190.0090  176.4650  146.8170 C   0  0  2  0  0  3  0  0  0  0  0  0
  191.4210  175.0990  145.4320 C   0  0  0  0  0  2  0  0  0  0  0  0
  186.6460  177.0470  146.5510 O   0  0  0  0  0  0  0  0  0  0  0  0
  187.4340  174.3150  141.6880 O   0  0  0  0  0  0  0  0  0  0  0  0
  188.6030  176.3390  146.1490 C   0  0  2  0  0  3  0  0  0  0  0  0
  187.0160  177.4940  145.2370 C   0  0  2  0  0  0  0  0  0  0  0  0
  188.4170  177.4780  145.3600 O   0  0  0  0  0  0  0  0  0  0  0  0
  187.4400  176.0490  146.8120 O   0  0  0  0  0  0  0  0  0  0  0  0
  188.1830  175.1670  142.1790 C   0  0  0  0  0  0  0  0  0  0  0  0
  189.5410  174.7890  142.3050 N   0  0  0  0  0  2  0  0  0  0  0  0
  186.5700  178.7360  145.0710 O   0  0  0  0  0  1  0  0  0  0  0  0
  191.9280  174.2550  143.2170 C   0  0  2  0  0  3  0  0  0  0  0  0
  186.6050  176.4750  144.1270 C   0  0  0  0  0  2  0  0  0  0  0  0
  192.5230  174.6780  144.5180 C   0  0  1  0  0  3  0  0  0  0  0  0
  190.2190  173.6060  141.6330 C   0  0  1  0  0  3  0  0  0  0  0  0
  191.4740  172.8500  143.7130 C   0  0  0  0  0  2  0  0  0  0  0  0
  187.5900  176.8510  142.6280 S   0  0  0  0  0  0  0  0  0  0  0  0
  191.5270  173.1400  142.2820 C   0  0  2  0  0  3  0  0  0  0  0  0
  193.7200  175.5410  144.1020 C   0  0  0  0  0  0  0  0  0  0  0  0
  193.4820  176.3720  143.1620 C   0  0  0  0  0  2  0  0  0  0  0  0
  194.5520  176.5110  146.4280 O   0  0  0  0  0  1  0  0  0  0  0  0
  194.7700  175.8420  145.1700 C   0  0  0  0  0  0  0  0  0  0  0  0
  195.9680  175.7970  144.7980 O   0  0  0  0  0  0  0  0  0  0  0  0
  190.2400  177.5650  147.7810 C   0  0  0  0  0  2  0  0  0  0  0  0
  191.4760  177.1810  148.3790 O   0  0  0  0  0  1  0  0  0  0  0  0
  189.4370  172.5080  141.2520 O   0  0  0  0  0  0  0  0  0  0  0  0
  190.0780  171.9160  140.1530 C   0  0  0  0  0  2  0  0  0  0  0  0
  189.1840  171.9200  139.0140 C   0  0  0  0  0  3  0  0  0  0  0  0
  188.1890  172.5930  139.0920 O   0  0  0  0  0  0  0  0  0  0  0  0
  1  2  1  0  0  0  0
  2 25  1  6  0  0  0
  3  1  1  0  0  0  0
  4  9  1  0  0  0  0
  5 10  2  0  0  0  0
  6  8  1  1  0  0  0
  6  9  1  0  0  0  0
  6  2  1  0  0  0  0
  7 12  1  6  0  0  0
  7  8  1  0  0  0  0
  7  4  1  0  0  0  0
 10 11  1  0  0  0  0
 10 18  1  0  0  0  0
 13 17  1  1  0  0  0
 13 15  1  0  0  0  0
 14  7  1  0  0  0  0
 15 20  1  6  0  0  0
 15  3  1  0  0  0  0
 16 27  1  1  0  0  0
 16 19  1  0  0  0  0
 16 11  1  0  0  0  0
 18 14  1  0  0  0  0
 19 13  1  0  0  0  0
 19 17  1  1  0  0  0
 20 23  1  0  0  0  0
 21 20  2  0  0  0  0
 23 22  1  0  0  0  0
 24 23  2  0  0  0  0
 25 26  1  0  0  0  0
 28 27  1  0  0  0  0
 29 30  2  0  0  0  0
 29 28  1  0  0  0  0
M  END
>  <MODEL>
9

>  <REMARK>
 VINA RESULT:      -5.9      2.333      6.350
  Name = 
  6 active torsions:
  status: ('A' for Active; 'I' for Inactive)
    1  A    between atoms: C_2  and  C_20
    2  A    between atoms: C_2  and  C_22
    3  A    between atoms: C_3  and  C_10
    4  A    between atoms: C_4  and  C_27
    5  A    between atoms: C_10  and  O_25
    6  A    between atoms: C_23  and  O_25
                            x       y       z     vdW  Elec       q    Type
                         _______ _______ _______ _____ _____    ______ ____

>  <TORSDO>
F 6

$$$$
