=
 OpenBabel11052421083D

 43 49  0  0  1  0  0  0  0  0999 V2000
  189.9980  176.6990  146.0380 C   0  0  2  0  0  3  0  0  0  0  0  0
  183.6890  178.5910  143.4500 C   0  0  0  0  0  0  0  0  0  0  0  0
  187.4440  176.8570  146.2900 C   0  0  2  0  0  3  0  0  0  0  0  0
  185.3090  178.3370  145.2380 C   0  0  0  0  0  0  0  0  0  0  0  0
  184.5420  177.9170  142.5720 C   0  0  0  0  0  3  0  0  0  0  0  0
  182.3720  179.0870  142.9730 C   0  0  0  0  0  1  0  0  0  0  0  0
  186.1570  177.6260  144.3530 C   0  0  0  0  0  0  0  0  0  0  0  0
  184.0710  178.7990  144.7790 C   0  0  0  0  0  3  0  0  0  0  0  0
  185.7780  177.4440  143.0180 C   0  0  0  0  0  3  0  0  0  0  0  0
  188.2350  176.0720  144.2010 C   0  0  0  0  0  2  0  0  0  0  0  0
  187.5190  177.2390  144.8380 C   0  0  2  0  0  3  0  0  0  0  0  0
  187.0920  178.0940  147.0910 C   0  0  0  0  0  2  0  0  0  0  0  0
  188.7230  176.1060  146.6400 C   0  0  1  0  0  3  0  0  0  0  0  0
  189.2170  175.6130  145.2850 C   0  0  2  0  0  0  0  0  0  0  0  0
  185.6640  178.5390  146.7030 C   0  0  0  0  0  2  0  0  0  0  0  0
  189.3230  173.4070  146.2040 O   0  0  0  0  0  0  0  0  0  0  0  0
  189.6890  174.1820  145.2820 C   0  0  0  0  0  0  0  0  0  0  0  0
  190.5010  173.6840  144.2590 O   0  0  0  0  0  0  0  0  0  0  0  0
  190.8780  173.6890  141.1280 O   0  0  0  0  0  1  0  0  0  0  0  0
  191.0020  172.3610  141.5470 C   0  0  2  0  0  0  0  0  0  0  0  0
  190.5840  172.2930  143.9460 C   0  0  1  0  0  3  0  0  0  0  0  0
  193.0310  172.5560  144.6290 C   0  0  0  0  0  1  0  0  0  0  0  0
  189.9450  172.0240  142.5950 C   0  0  1  0  0  3  0  0  0  0  0  0
  192.3400  172.1670  142.2520 C   0  0  0  0  0  2  0  0  0  0  0  0
  188.6050  172.7260  142.3970 C   0  0  0  0  0  1  0  0  0  0  0  0
  192.0310  171.8730  143.7110 C   0  0  2  0  0  3  0  0  0  0  0  0
  192.8490  172.2250  139.0780 N   0  0  0  0  0  0  0  0  0  0  0  0
  191.7360  171.3390  139.2750 C   0  0  0  0  0  0  0  0  0  0  0  0
  190.8610  171.4540  140.4090 N   0  0  0  0  0  2  0  0  0  0  0  0
  195.2670  172.5090  138.9170 C   0  0  0  0  0  2  0  0  0  0  0  0
  193.9300  174.3690  139.5170 C   0  0  0  0  0  2  0  0  0  0  0  0
  195.0440  173.9350  138.6810 N   0  0  0  0  0  2  0  0  0  0  0  0
  192.6460  173.6690  139.0800 C   0  0  0  0  0  2  0  0  0  0  0  0
  194.0580  171.7090  138.4400 C   0  0  0  0  0  2  0  0  0  0  0  0
  191.5400  170.3990  138.4590 O   0  0  0  0  0  0  0  0  0  0  0  0
  191.1970  176.1590  146.8070 C   0  0  0  0  0  2  0  0  0  0  0  0
  194.9170  176.0360  145.8370 C   0  0  0  0  0  2  0  0  0  0  0  0
  192.9250  176.4150  143.4260 C   0  0  0  0  0  2  0  0  0  0  0  0
  194.3560  175.9460  143.6940 C   0  0  0  0  0  2  0  0  0  0  0  0
  193.6670  176.4180  146.6280 C   0  0  0  0  0  2  0  0  0  0  0  0
  192.3910  176.0140  145.8840 C   0  0  2  0  0  3  0  0  0  0  0  0
  194.9840  176.7600  144.6420 O   0  0  0  0  0  0  0  0  0  0  0  0
  192.1920  176.9210  144.6740 C   0  0  0  0  0  2  0  0  0  0  0  0
  1 13  1  0  0  0  0
  1 36  1  1  0  0  0
  2  8  1  0  0  0  0
  3 13  1  0  0  0  0
  3 12  1  1  0  0  0
  4 15  1  0  0  0  0
  5  9  1  0  0  0  0
  5  2  2  0  0  0  0
  6  2  1  0  0  0  0
  7 11  1  0  0  0  0
  7  4  1  0  0  0  0
  8  4  2  0  0  0  0
  9  7  2  0  0  0  0
 10 14  1  0  0  0  0
 11 10  1  6  0  0  0
 11  3  1  0  0  0  0
 14  1  1  0  0  0  0
 14 13  1  0  0  0  0
 15 12  1  0  0  0  0
 17 14  1  0  0  0  0
 17 16  2  0  0  0  0
 18 17  1  0  0  0  0
 19 20  1  0  0  0  0
 20 24  1  0  0  0  0
 20 23  1  0  0  0  0
 21 18  1  0  0  0  0
 23 21  1  0  0  0  0
 24 26  1  0  0  0  0
 25 23  1  0  0  0  0
 26 21  1  0  0  0  0
 26 22  1  0  0  0  0
 27 33  1  0  0  0  0
 27 28  1  0  0  0  0
 28 29  1  0  0  0  0
 29 20  1  0  0  0  0
 32 30  1  0  0  0  0
 32 31  1  0  0  0  0
 33 31  1  0  0  0  0
 34 30  1  0  0  0  0
 34 27  1  0  0  0  0
 35 28  2  0  0  0  0
 37 40  1  0  0  0  0
 38 39  1  0  0  0  0
 38 43  1  0  0  0  0
 39 42  1  0  0  0  0
 41 40  1  0  0  0  0
 41 36  1  0  0  0  0
 42 37  1  0  0  0  0
 43 41  1  0  0  0  0
M  END
>  <MODEL>
1

>  <REMARK>
 VINA RESULT:      -8.7      0.000      0.000
  Name = 
  6 active torsions:
  status: ('A' for Active; 'I' for Inactive)
    1  A    between atoms: C_1  and  C_28
    2  A    between atoms: O_2  and  C_6
    3  A    between atoms: O_2  and  C_13
    4  A    between atoms: C_4  and  N_22
    5  A    between atoms: C_13  and  C_38
    6  A    between atoms: C_28  and  C_35
                            x       y       z     vdW  Elec       q    Type
                         _______ _______ _______ _____ _____    ______ ____

>  <TORSDO>
F 6

$$$$
=
 OpenBabel11052421083D

 43 49  0  0  1  0  0  0  0  0999 V2000
  190.0070  176.7190  145.7550 C   0  0  2  0  0  3  0  0  0  0  0  0
  183.8300  178.3160  142.6910 C   0  0  0  0  0  0  0  0  0  0  0  0
  187.4410  176.8530  145.8520 C   0  0  2  0  0  3  0  0  0  0  0  0
  185.3500  178.2180  144.5790 C   0  0  0  0  0  0  0  0  0  0  0  0
  184.7390  177.5940  141.9120 C   0  0  0  0  0  3  0  0  0  0  0  0
  182.5360  178.7540  142.1070 C   0  0  0  0  0  1  0  0  0  0  0  0
  186.2550  177.4590  143.7970 C   0  0  0  0  0  0  0  0  0  0  0  0
  184.1350  178.6250  144.0200 C   0  0  0  0  0  3  0  0  0  0  0  0
  185.9550  177.1750  142.4590 C   0  0  0  0  0  3  0  0  0  0  0  0
  188.3580  175.9320  143.8730 C   0  0  0  0  0  2  0  0  0  0  0  0
  187.5930  177.1310  144.3830 C   0  0  2  0  0  3  0  0  0  0  0  0
  187.0290  178.1390  146.5400 C   0  0  0  0  0  2  0  0  0  0  0  0
  188.7070  176.1500  146.3260 C   0  0  1  0  0  3  0  0  0  0  0  0
  189.2820  175.5690  145.0410 C   0  0  2  0  0  0  0  0  0  0  0  0
  185.6200  178.5310  146.0430 C   0  0  0  0  0  2  0  0  0  0  0  0
  189.4760  173.4820  146.1940 O   0  0  0  0  0  0  0  0  0  0  0  0
  189.7710  174.1490  145.1690 C   0  0  0  0  0  0  0  0  0  0  0  0
  190.5210  173.5420  144.1560 O   0  0  0  0  0  0  0  0  0  0  0  0
  190.7450  173.0980  141.0420 O   0  0  0  0  0  1  0  0  0  0  0  0
  190.9630  171.8550  141.6440 C   0  0  2  0  0  0  0  0  0  0  0  0
  190.6670  172.1260  144.0470 C   0  0  1  0  0  3  0  0  0  0  0  0
  193.1260  172.6070  144.5450 C   0  0  0  0  0  1  0  0  0  0  0  0
  189.9790  171.6280  142.7880 C   0  0  1  0  0  3  0  0  0  0  0  0
  192.3440  171.8340  142.2930 C   0  0  0  0  0  2  0  0  0  0  0  0
  188.5940  172.2260  142.5650 C   0  0  0  0  0  1  0  0  0  0  0  0
  192.1220  171.7460  143.7940 C   0  0  2  0  0  3  0  0  0  0  0  0
  189.5640  172.0640  138.9010 N   0  0  0  0  0  0  0  0  0  0  0  0
  190.2180  170.8710  139.3590 C   0  0  0  0  0  0  0  0  0  0  0  0
  190.8190  170.7830  140.6600 N   0  0  0  0  0  2  0  0  0  0  0  0
  189.5070  173.9160  137.3120 C   0  0  0  0  0  2  0  0  0  0  0  0
  188.4380  174.1700  139.4090 C   0  0  0  0  0  2  0  0  0  0  0  0
  188.2960  174.3950  137.9750 N   0  0  0  0  0  2  0  0  0  0  0  0
  188.5050  172.6730  139.6980 C   0  0  0  0  0  2  0  0  0  0  0  0
  189.6270  172.4040  137.4810 C   0  0  0  0  0  2  0  0  0  0  0  0
  190.3130  169.8810  138.5850 O   0  0  0  0  0  0  0  0  0  0  0  0
  191.1660  176.2550  146.6250 C   0  0  0  0  0  2  0  0  0  0  0  0
  194.9380  176.0310  145.9020 C   0  0  0  0  0  2  0  0  0  0  0  0
  193.1160  176.4260  143.3610 C   0  0  0  0  0  2  0  0  0  0  0  0
  194.5140  175.9260  143.7270 C   0  0  0  0  0  2  0  0  0  0  0  0
  193.6490  176.4530  146.6040 C   0  0  0  0  0  2  0  0  0  0  0  0
  192.4140  176.0700  145.7840 C   0  0  2  0  0  3  0  0  0  0  0  0
  195.1000  176.7380  144.7050 O   0  0  0  0  0  0  0  0  0  0  0  0
  192.3160  176.9650  144.5530 C   0  0  0  0  0  2  0  0  0  0  0  0
  1 13  1  0  0  0  0
  1 36  1  1  0  0  0
  2  8  1  0  0  0  0
  3 13  1  0  0  0  0
  3 12  1  1  0  0  0
  4 15  1  0  0  0  0
  5  9  1  0  0  0  0
  5  2  2  0  0  0  0
  6  2  1  0  0  0  0
  7 11  1  0  0  0  0
  7  4  1  0  0  0  0
  8  4  2  0  0  0  0
  9  7  2  0  0  0  0
 10 14  1  0  0  0  0
 11 10  1  6  0  0  0
 11  3  1  0  0  0  0
 14 17  1  0  0  0  0
 14  1  1  0  0  0  0
 14 13  1  0  0  0  0
 15 12  1  0  0  0  0
 17 16  2  0  0  0  0
 18 17  1  0  0  0  0
 19 20  1  0  0  0  0
 20 24  1  0  0  0  0
 20 23  1  0  0  0  0
 21 18  1  0  0  0  0
 23 21  1  0  0  0  0
 24 26  1  0  0  0  0
 25 23  1  0  0  0  0
 26 21  1  0  0  0  0
 26 22  1  0  0  0  0
 27 28  1  0  0  0  0
 27 33  1  0  0  0  0
 28 29  1  0  0  0  0
 29 20  1  0  0  0  0
 30 34  1  0  0  0  0
 30 32  1  0  0  0  0
 31 33  1  0  0  0  0
 32 31  1  0  0  0  0
 34 27  1  0  0  0  0
 35 28  2  0  0  0  0
 37 40  1  0  0  0  0
 38 39  1  0  0  0  0
 38 43  1  0  0  0  0
 39 42  1  0  0  0  0
 41 40  1  0  0  0  0
 41 36  1  0  0  0  0
 42 37  1  0  0  0  0
 43 41  1  0  0  0  0
M  END
>  <MODEL>
2

>  <REMARK>
 VINA RESULT:      -8.6      1.658      2.026
  Name = 
  6 active torsions:
  status: ('A' for Active; 'I' for Inactive)
    1  A    between atoms: C_1  and  C_28
    2  A    between atoms: O_2  and  C_6
    3  A    between atoms: O_2  and  C_13
    4  A    between atoms: C_4  and  N_22
    5  A    between atoms: C_13  and  C_38
    6  A    between atoms: C_28  and  C_35
                            x       y       z     vdW  Elec       q    Type
                         _______ _______ _______ _____ _____    ______ ____

>  <TORSDO>
F 6

$$$$
=
 OpenBabel11052421083D

 43 49  0  0  1  0  0  0  0  0999 V2000
  190.6680  175.4120  145.3000 C   0  0  2  0  0  3  0  0  0  0  0  0
  184.4310  178.3370  143.6780 C   0  0  0  0  0  0  0  0  0  0  0  0
  188.2230  175.9250  145.9080 C   0  0  2  0  0  3  0  0  0  0  0  0
  186.2150  177.7540  145.2140 C   0  0  0  0  0  0  0  0  0  0  0  0
  185.0480  177.5950  142.6670 C   0  0  0  0  0  3  0  0  0  0  0  0
  183.1520  179.0430  143.4050 C   0  0  0  0  0  1  0  0  0  0  0  0
  186.8220  176.9770  144.1970 C   0  0  0  0  0  0  0  0  0  0  0  0
  185.0120  178.4140  144.9470 C   0  0  0  0  0  3  0  0  0  0  0  0
  186.2470  176.9250  142.9210 C   0  0  0  0  0  3  0  0  0  0  0  0
  188.6030  175.1480  143.7040 C   0  0  0  0  0  2  0  0  0  0  0  0
  188.1620  176.3710  144.4740 C   0  0  2  0  0  3  0  0  0  0  0  0
  188.1700  177.1550  146.7920 C   0  0  0  0  0  2  0  0  0  0  0  0
  189.4090  174.9790  146.0520 C   0  0  1  0  0  3  0  0  0  0  0  0
  189.6390  174.4930  144.6260 C   0  0  2  0  0  0  0  0  0  0  0  0
  186.7870  177.8220  146.6220 C   0  0  0  0  0  2  0  0  0  0  0  0
  189.5880  172.2560  145.4700 O   0  0  0  0  0  0  0  0  0  0  0  0
  189.8850  173.0120  144.5090 C   0  0  0  0  0  0  0  0  0  0  0  0
  190.4080  172.4490  143.3400 O   0  0  0  0  0  0  0  0  0  0  0  0
  191.7560  169.9260  142.0130 O   0  0  0  0  0  1  0  0  0  0  0  0
  192.4420  171.0470  141.5360 C   0  0  2  0  0  0  0  0  0  0  0  0
  191.5180  173.0130  142.6410 C   0  0  1  0  0  3  0  0  0  0  0  0
  189.7840  173.5180  140.8350 C   0  0  0  0  0  1  0  0  0  0  0  0
  192.6900  172.0480  142.6620 C   0  0  1  0  0  3  0  0  0  0  0  0
  191.5720  171.7900  140.5260 C   0  0  0  0  0  2  0  0  0  0  0  0
  192.9470  171.4190  144.0270 C   0  0  0  0  0  1  0  0  0  0  0  0
  191.2200  173.1300  141.1500 C   0  0  2  0  0  3  0  0  0  0  0  0
  192.8370  169.3480  138.9900 N   0  0  0  0  0  0  0  0  0  0  0  0
  193.9290  169.9030  139.7400 C   0  0  0  0  0  0  0  0  0  0  0  0
  193.7200  170.6490  140.9500 N   0  0  0  0  0  2  0  0  0  0  0  0
  191.5530  169.3180  136.9150 C   0  0  0  0  0  2  0  0  0  0  0  0
  190.5270  168.5640  138.9110 C   0  0  0  0  0  2  0  0  0  0  0  0
  190.7160  168.2690  137.4950 N   0  0  0  0  0  2  0  0  0  0  0  0
  191.8630  168.4810  139.6440 C   0  0  0  0  0  2  0  0  0  0  0  0
  192.9470  169.2720  137.5350 C   0  0  0  0  0  2  0  0  0  0  0  0
  195.1050  169.7770  139.3080 O   0  0  0  0  0  0  0  0  0  0  0  0
  191.8620  174.6630  145.8760 C   0  0  0  0  0  2  0  0  0  0  0  0
  195.5950  175.3590  145.2670 C   0  0  0  0  0  2  0  0  0  0  0  0
  193.6930  176.1120  142.8710 C   0  0  0  0  0  2  0  0  0  0  0  0
  195.1660  175.7980  143.1360 C   0  0  0  0  0  2  0  0  0  0  0  0
  194.2610  175.3170  146.0090 C   0  0  0  0  0  2  0  0  0  0  0  0
  193.1090  174.9600  145.0660 C   0  0  2  0  0  3  0  0  0  0  0  0
  195.6020  176.3940  144.3240 O   0  0  0  0  0  0  0  0  0  0  0  0
  192.8240  176.1330  144.1340 C   0  0  0  0  0  2  0  0  0  0  0  0
  1 36  1  1  0  0  0
  1 13  1  0  0  0  0
  2  8  1  0  0  0  0
  3 13  1  0  0  0  0
  3 12  1  1  0  0  0
  4 15  1  0  0  0  0
  5  9  1  0  0  0  0
  5  2  2  0  0  0  0
  6  2  1  0  0  0  0
  7 11  1  0  0  0  0
  7  4  1  0  0  0  0
  8  4  2  0  0  0  0
  9  7  2  0  0  0  0
 10 14  1  0  0  0  0
 11 10  1  6  0  0  0
 11  3  1  0  0  0  0
 14  1  1  0  0  0  0
 14 13  1  0  0  0  0
 15 12  1  0  0  0  0
 17 14  1  0  0  0  0
 17 16  2  0  0  0  0
 18 17  1  0  0  0  0
 20 19  1  0  0  0  0
 20 23  1  0  0  0  0
 21 23  1  0  0  0  0
 21 18  1  0  0  0  0
 22 26  1  0  0  0  0
 23 25  1  0  0  0  0
 24 26  1  0  0  0  0
 24 20  1  0  0  0  0
 26 21  1  0  0  0  0
 27 33  1  0  0  0  0
 27 28  1  0  0  0  0
 28 29  1  0  0  0  0
 29 20  1  0  0  0  0
 30 32  1  0  0  0  0
 30 34  1  0  0  0  0
 31 33  1  0  0  0  0
 32 31  1  0  0  0  0
 34 27  1  0  0  0  0
 35 28  2  0  0  0  0
 37 40  1  0  0  0  0
 38 39  1  0  0  0  0
 38 43  1  0  0  0  0
 39 42  1  0  0  0  0
 41 36  1  0  0  0  0
 41 40  1  0  0  0  0
 42 37  1  0  0  0  0
 43 41  1  0  0  0  0
M  END
>  <MODEL>
3

>  <REMARK>
 VINA RESULT:      -8.4      1.790      2.775
  Name = 
  6 active torsions:
  status: ('A' for Active; 'I' for Inactive)
    1  A    between atoms: C_1  and  C_28
    2  A    between atoms: O_2  and  C_6
    3  A    between atoms: O_2  and  C_13
    4  A    between atoms: C_4  and  N_22
    5  A    between atoms: C_13  and  C_38
    6  A    between atoms: C_28  and  C_35
                            x       y       z     vdW  Elec       q    Type
                         _______ _______ _______ _____ _____    ______ ____

>  <TORSDO>
F 6

$$$$
=
 OpenBabel11052421083D

 43 49  0  0  1  0  0  0  0  0999 V2000
  190.6380  175.4490  145.5180 C   0  0  2  0  0  3  0  0  0  0  0  0
  184.4430  178.6650  144.3530 C   0  0  0  0  0  0  0  0  0  0  0  0
  188.1680  175.8130  146.1310 C   0  0  2  0  0  3  0  0  0  0  0  0
  186.1730  177.7520  145.7880 C   0  0  0  0  0  0  0  0  0  0  0  0
  185.1040  178.1690  143.2260 C   0  0  0  0  0  3  0  0  0  0  0  0
  183.1700  179.4160  144.1970 C   0  0  0  0  0  1  0  0  0  0  0  0
  186.8240  177.2230  144.6460 C   0  0  0  0  0  0  0  0  0  0  0  0
  184.9760  178.4560  145.6290 C   0  0  0  0  0  3  0  0  0  0  0  0
  186.2990  177.4580  143.3700 C   0  0  0  0  0  3  0  0  0  0  0  0
  188.6380  175.5500  143.8250 C   0  0  0  0  0  2  0  0  0  0  0  0
  188.1580  176.5690  144.8320 C   0  0  2  0  0  3  0  0  0  0  0  0
  188.0720  176.8130  147.2650 C   0  0  0  0  0  2  0  0  0  0  0  0
  189.3560  174.8580  146.1040 C   0  0  1  0  0  3  0  0  0  0  0  0
  189.6430  174.7050  144.6160 C   0  0  2  0  0  0  0  0  0  0  0  0
  186.6910  177.5020  147.1960 C   0  0  0  0  0  2  0  0  0  0  0  0
  189.7940  172.3510  145.0130 O   0  0  0  0  0  0  0  0  0  0  0  0
  189.9050  173.2880  144.1790 C   0  0  0  0  0  0  0  0  0  0  0  0
  190.2410  172.9810  142.8560 O   0  0  0  0  0  0  0  0  0  0  0  0
  189.8110  171.9640  139.9020 O   0  0  0  0  0  1  0  0  0  0  0  0
  191.1870  171.9230  140.1470 C   0  0  2  0  0  0  0  0  0  0  0  0
  191.5530  172.5760  142.4660 C   0  0  1  0  0  3  0  0  0  0  0  0
  191.8870  175.0590  141.9730 C   0  0  0  0  0  1  0  0  0  0  0  0
  191.4720  171.3730  141.5420 C   0  0  1  0  0  3  0  0  0  0  0  0
  191.7490  173.3410  140.1540 C   0  0  0  0  0  2  0  0  0  0  0  0
  190.4990  170.2980  142.0140 C   0  0  0  0  0  1  0  0  0  0  0  0
  192.2050  173.6270  141.5750 C   0  0  2  0  0  3  0  0  0  0  0  0
  191.2510  172.4090  137.0990 N   0  0  0  0  0  0  0  0  0  0  0  0
  191.9410  171.3210  137.7360 C   0  0  0  0  0  0  0  0  0  0  0  0
  191.8550  171.0880  139.1500 N   0  0  0  0  0  2  0  0  0  0  0  0
  191.3880  174.5020  135.8520 C   0  0  0  0  0  2  0  0  0  0  0  0
  189.4400  174.0450  137.1180 C   0  0  0  0  0  2  0  0  0  0  0  0
  189.9260  174.5410  135.8350 N   0  0  0  0  0  2  0  0  0  0  0  0
  189.8140  172.5750  137.2850 C   0  0  0  0  0  2  0  0  0  0  0  0
  191.8670  173.0560  135.9430 C   0  0  0  0  0  2  0  0  0  0  0  0
  192.6840  170.5720  137.0470 O   0  0  0  0  0  0  0  0  0  0  0  0
  191.8160  174.5890  145.9570 C   0  0  0  0  0  2  0  0  0  0  0  0
  195.2390  174.3710  144.2160 C   0  0  0  0  0  2  0  0  0  0  0  0
  194.6340  177.1250  145.6210 C   0  0  0  0  0  2  0  0  0  0  0  0
  195.5400  176.5450  144.5340 C   0  0  0  0  0  2  0  0  0  0  0  0
  194.0510  173.9370  145.0720 C   0  0  0  0  0  2  0  0  0  0  0  0
  193.1030  175.1080  145.3450 C   0  0  2  0  0  3  0  0  0  0  0  0
  196.0350  175.2900  144.9080 O   0  0  0  0  0  0  0  0  0  0  0  0
  193.7550  176.0820  146.3210 C   0  0  0  0  0  2  0  0  0  0  0  0
  1 36  1  1  0  0  0
  1 13  1  0  0  0  0
  2  8  1  0  0  0  0
  3 12  1  1  0  0  0
  4 15  1  0  0  0  0
  5  9  1  0  0  0  0
  5  2  2  0  0  0  0
  6  2  1  0  0  0  0
  7 11  1  0  0  0  0
  7  4  1  0  0  0  0
  8  4  2  0  0  0  0
  9  7  2  0  0  0  0
 10 14  1  0  0  0  0
 11 10  1  6  0  0  0
 11  3  1  0  0  0  0
 13  3  1  0  0  0  0
 14  1  1  0  0  0  0
 14 13  1  0  0  0  0
 15 12  1  0  0  0  0
 17 14  1  0  0  0  0
 17 16  2  0  0  0  0
 18 17  1  0  0  0  0
 19 20  1  0  0  0  0
 20 24  1  0  0  0  0
 20 23  1  0  0  0  0
 21 18  1  0  0  0  0
 23 25  1  0  0  0  0
 23 21  1  0  0  0  0
 24 26  1  0  0  0  0
 26 22  1  0  0  0  0
 26 21  1  0  0  0  0
 27 33  1  0  0  0  0
 27 28  1  0  0  0  0
 28 29  1  0  0  0  0
 29 20  1  0  0  0  0
 30 34  1  0  0  0  0
 31 33  1  0  0  0  0
 32 30  1  0  0  0  0
 32 31  1  0  0  0  0
 34 27  1  0  0  0  0
 35 28  2  0  0  0  0
 37 42  1  0  0  0  0
 37 40  1  0  0  0  0
 38 43  1  0  0  0  0
 39 42  1  0  0  0  0
 39 38  1  0  0  0  0
 40 41  1  0  0  0  0
 41 36  1  0  0  0  0
 41 43  1  0  0  0  0
M  END
>  <MODEL>
4

>  <REMARK>
 VINA RESULT:      -8.2      1.842      2.419
  Name = 
  6 active torsions:
  status: ('A' for Active; 'I' for Inactive)
    1  A    between atoms: C_1  and  C_28
    2  A    between atoms: O_2  and  C_6
    3  A    between atoms: O_2  and  C_13
    4  A    between atoms: C_4  and  N_22
    5  A    between atoms: C_13  and  C_38
    6  A    between atoms: C_28  and  C_35
                            x       y       z     vdW  Elec       q    Type
                         _______ _______ _______ _____ _____    ______ ____

>  <TORSDO>
F 6

$$$$
=
 OpenBabel11052421083D

 43 49  0  0  1  0  0  0  0  0999 V2000
  191.1660  174.5660  144.1850 C   0  0  2  0  0  3  0  0  0  0  0  0
  185.1150  178.0010  145.4820 C   0  0  0  0  0  0  0  0  0  0  0  0
  188.9500  174.7660  145.4750 C   0  0  2  0  0  3  0  0  0  0  0  0
  187.0740  176.7350  146.1510 C   0  0  0  0  0  0  0  0  0  0  0  0
  185.4460  177.8160  144.1370 C   0  0  0  0  0  3  0  0  0  0  0  0
  183.8980  178.7710  145.8480 C   0  0  0  0  0  1  0  0  0  0  0  0
  187.3890  176.5230  144.7860 C   0  0  0  0  0  0  0  0  0  0  0  0
  185.9260  177.4610  146.4850 C   0  0  0  0  0  3  0  0  0  0  0  0
  186.5870  177.0880  143.7880 C   0  0  0  0  0  3  0  0  0  0  0  0
  188.8260  175.1190  143.1370 C   0  0  0  0  0  2  0  0  0  0  0  0
  188.6790  175.8380  144.4570 C   0  0  2  0  0  3  0  0  0  0  0  0
  189.2030  175.4330  146.8120 C   0  0  0  0  0  2  0  0  0  0  0  0
  190.0260  173.8480  144.9070 C   0  0  1  0  0  3  0  0  0  0  0  0
  189.9320  174.0910  143.4060 C   0  0  2  0  0  0  0  0  0  0  0  0
  187.8990  176.1210  147.2720 C   0  0  0  0  0  2  0  0  0  0  0  0
  189.5720  171.7510  143.0610 O   0  0  0  0  0  0  0  0  0  0  0  0
  189.9800  172.8370  142.5720 C   0  0  0  0  0  0  0  0  0  0  0  0
  190.4380  172.8570  141.2510 O   0  0  0  0  0  0  0  0  0  0  0  0
  190.4650  174.0030  138.3130 O   0  0  0  0  0  1  0  0  0  0  0  0
  190.6860  172.6260  138.2110 C   0  0  2  0  0  0  0  0  0  0  0  0
  190.5410  171.6780  140.4510 C   0  0  1  0  0  3  0  0  0  0  0  0
  193.0360  171.8680  140.9610 C   0  0  0  0  0  1  0  0  0  0  0  0
  189.7660  171.8590  139.1570 C   0  0  1  0  0  3  0  0  0  0  0  0
  192.1010  172.2970  138.6760 C   0  0  0  0  0  2  0  0  0  0  0  0
  188.3860  172.4800  139.3470 C   0  0  0  0  0  1  0  0  0  0  0  0
  191.9680  171.4820  139.9510 C   0  0  2  0  0  3  0  0  0  0  0  0
  192.2220  173.5500  135.6990 N   0  0  0  0  0  0  0  0  0  0  0  0
  191.1900  172.5520  135.6650 C   0  0  0  0  0  0  0  0  0  0  0  0
  190.4560  172.1750  136.8400 N   0  0  0  0  0  2  0  0  0  0  0  0
  194.5850  174.0980  135.4240 C   0  0  0  0  0  2  0  0  0  0  0  0
  193.2350  175.4890  136.7840 C   0  0  0  0  0  2  0  0  0  0  0  0
  194.2590  175.4870  135.7450 N   0  0  0  0  0  2  0  0  0  0  0  0
  191.9450  174.8740  136.2460 C   0  0  0  0  0  2  0  0  0  0  0  0
  193.3700  173.4100  134.8060 C   0  0  0  0  0  2  0  0  0  0  0  0
  190.9460  171.9500  134.5850 O   0  0  0  0  0  0  0  0  0  0  0  0
  192.3510  173.6170  144.0790 C   0  0  0  0  0  2  0  0  0  0  0  0
  194.9700  175.8780  145.7600 C   0  0  0  0  0  2  0  0  0  0  0  0
  195.3280  175.5100  142.6510 C   0  0  0  0  0  2  0  0  0  0  0  0
  196.1450  175.9160  143.8790 C   0  0  0  0  0  2  0  0  0  0  0  0
  193.5970  175.2920  145.4360 C   0  0  0  0  0  2  0  0  0  0  0  0
  193.6530  174.3840  144.2060 C   0  0  2  0  0  3  0  0  0  0  0  0
  195.3960  176.7310  144.7350 O   0  0  0  0  0  0  0  0  0  0  0  0
  193.8510  175.2290  142.9510 C   0  0  0  0  0  2  0  0  0  0  0  0
  1 36  1  6  0  0  0
  1 13  1  0  0  0  0
  2  6  1  0  0  0  0
  2  8  1  0  0  0  0
  3 12  1  1  0  0  0
  4  8  2  0  0  0  0
  4 15  1  0  0  0  0
  5  2  2  0  0  0  0
  7  4  1  0  0  0  0
  9  5  1  0  0  0  0
  9  7  2  0  0  0  0
 10 14  1  0  0  0  0
 11 10  1  6  0  0  0
 11  7  1  0  0  0  0
 11  3  1  0  0  0  0
 12 15  1  0  0  0  0
 13  3  1  0  0  0  0
 14  1  1  0  0  0  0
 14 13  1  0  0  0  0
 17 16  2  0  0  0  0
 17 14  1  0  0  0  0
 18 17  1  0  0  0  0
 20 19  1  0  0  0  0
 20 24  1  0  0  0  0
 20 23  1  0  0  0  0
 21 18  1  0  0  0  0
 23 25  1  0  0  0  0
 23 21  1  0  0  0  0
 24 26  1  0  0  0  0
 26 21  1  0  0  0  0
 26 22  1  0  0  0  0
 27 33  1  0  0  0  0
 28 27  1  0  0  0  0
 28 29  1  0  0  0  0
 29 20  1  0  0  0  0
 30 32  1  0  0  0  0
 32 31  1  0  0  0  0
 33 31  1  0  0  0  0
 34 30  1  0  0  0  0
 34 27  1  0  0  0  0
 35 28  2  0  0  0  0
 36 41  1  0  0  0  0
 38 43  1  0  0  0  0
 38 39  1  0  0  0  0
 39 42  1  0  0  0  0
 40 37  1  0  0  0  0
 41 40  1  0  0  0  0
 42 37  1  0  0  0  0
 43 41  1  0  0  0  0
M  END
>  <MODEL>
5

>  <REMARK>
 VINA RESULT:      -8.2      2.103      3.025
  Name = 
  6 active torsions:
  status: ('A' for Active; 'I' for Inactive)
    1  A    between atoms: C_1  and  C_28
    2  A    between atoms: O_2  and  C_6
    3  A    between atoms: O_2  and  C_13
    4  A    between atoms: C_4  and  N_22
    5  A    between atoms: C_13  and  C_38
    6  A    between atoms: C_28  and  C_35
                            x       y       z     vdW  Elec       q    Type
                         _______ _______ _______ _____ _____    ______ ____

>  <TORSDO>
F 6

$$$$
=
 OpenBabel11052421083D

 43 49  0  0  1  0  0  0  0  0999 V2000
  191.9080  173.7500  144.7470 C   0  0  2  0  0  3  0  0  0  0  0  0
  186.4910  178.2560  145.4030 C   0  0  0  0  0  0  0  0  0  0  0  0
  189.4930  174.2370  145.4820 C   0  0  2  0  0  3  0  0  0  0  0  0
  187.9020  176.4390  146.1730 C   0  0  0  0  0  0  0  0  0  0  0  0
  187.1550  178.2620  144.1740 C   0  0  0  0  0  3  0  0  0  0  0  0
  185.3850  179.2170  145.6550 C   0  0  0  0  0  1  0  0  0  0  0  0
  188.5510  176.4260  144.9140 C   0  0  0  0  0  0  0  0  0  0  0  0
  186.8630  177.3470  146.3980 C   0  0  0  0  0  3  0  0  0  0  0  0
  188.1910  177.3560  143.9310 C   0  0  0  0  0  3  0  0  0  0  0  0
  190.1150  175.0580  143.3500 C   0  0  0  0  0  2  0  0  0  0  0  0
  189.7300  175.5200  144.7360 C   0  0  2  0  0  3  0  0  0  0  0  0
  189.4690  174.5460  146.9660 C   0  0  0  0  0  2  0  0  0  0  0  0
  190.4950  173.2100  144.9710 C   0  0  1  0  0  3  0  0  0  0  0  0
  190.8850  173.7560  143.6030 C   0  0  2  0  0  0  0  0  0  0  0  0
  188.2400  175.4330  147.2630 C   0  0  0  0  0  2  0  0  0  0  0  0
  190.1000  171.7760  142.5140 O   0  0  0  0  0  0  0  0  0  0  0  0
  190.9360  172.7180  142.5140 C   0  0  0  0  0  0  0  0  0  0  0  0
  191.8740  172.7910  141.4790 O   0  0  0  0  0  0  0  0  0  0  0  0
  194.8610  172.9410  140.4770 O   0  0  0  0  0  1  0  0  0  0  0  0
  194.1100  173.7630  139.6310 C   0  0  2  0  0  0  0  0  0  0  0  0
  191.8160  173.7810  140.4520 C   0  0  1  0  0  3  0  0  0  0  0  0
  191.0170  171.8420  138.9940 C   0  0  0  0  0  1  0  0  0  0  0  0
  193.1040  174.5860  140.4310 C   0  0  1  0  0  3  0  0  0  0  0  0
  193.2680  172.9020  138.6940 C   0  0  0  0  0  2  0  0  0  0  0  0
  193.5860  175.0130  141.8130 C   0  0  0  0  0  1  0  0  0  0  0  0
  191.8140  173.1340  139.0710 C   0  0  2  0  0  3  0  0  0  0  0  0
  196.1990  172.9400  137.5140 N   0  0  0  0  0  0  0  0  0  0  0  0
  195.9310  174.3070  137.8620 C   0  0  0  0  0  0  0  0  0  0  0  0
  194.9890  174.6620  138.8860 N   0  0  0  0  0  2  0  0  0  0  0  0
  196.1090  171.1740  135.8310 C   0  0  0  0  0  2  0  0  0  0  0  0
  196.1810  170.5750  138.1210 C   0  0  0  0  0  2  0  0  0  0  0  0
  196.7260  170.2720  136.8020 N   0  0  0  0  0  2  0  0  0  0  0  0
  196.5900  171.9840  138.5440 C   0  0  0  0  0  2  0  0  0  0  0  0
  196.5200  172.6140  136.1260 C   0  0  0  0  0  2  0  0  0  0  0  0
  196.5000  175.2320  137.2220 O   0  0  0  0  0  0  0  0  0  0  0  0
  192.8750  172.5760  144.6870 C   0  0  0  0  0  2  0  0  0  0  0  0
  196.6020  172.3320  145.6070 C   0  0  0  0  0  2  0  0  0  0  0  0
  195.4960  175.2660  145.3020 C   0  0  0  0  0  2  0  0  0  0  0  0
  196.8270  174.5130  145.2760 C   0  0  0  0  0  2  0  0  0  0  0  0
  195.1070  172.0200  145.6410 C   0  0  0  0  0  2  0  0  0  0  0  0
  194.3020  173.0600  144.8580 C   0  0  2  0  0  3  0  0  0  0  0  0
  196.8700  173.5330  146.2740 O   0  0  0  0  0  0  0  0  0  0  0  0
  194.2850  174.3810  145.6210 C   0  0  0  0  0  2  0  0  0  0  0  0
  1 36  1  6  0  0  0
  1 13  1  0  0  0  0
  2  6  1  0  0  0  0
  2  8  1  0  0  0  0
  3 12  1  1  0  0  0
  4  8  2  0  0  0  0
  4 15  1  0  0  0  0
  5  2  2  0  0  0  0
  7  4  1  0  0  0  0
  9  5  1  0  0  0  0
  9  7  2  0  0  0  0
 10 14  1  0  0  0  0
 11 10  1  6  0  0  0
 11  7  1  0  0  0  0
 11  3  1  0  0  0  0
 12 15  1  0  0  0  0
 13  3  1  0  0  0  0
 14  1  1  0  0  0  0
 14 13  1  0  0  0  0
 17 16  2  0  0  0  0
 17 14  1  0  0  0  0
 18 17  1  0  0  0  0
 20 23  1  0  0  0  0
 20 19  1  0  0  0  0
 21 18  1  0  0  0  0
 22 26  1  0  0  0  0
 23 21  1  0  0  0  0
 23 25  1  0  0  0  0
 24 26  1  0  0  0  0
 24 20  1  0  0  0  0
 26 21  1  0  0  0  0
 27 28  1  0  0  0  0
 27 33  1  0  0  0  0
 28 29  1  0  0  0  0
 29 20  1  0  0  0  0
 30 34  1  0  0  0  0
 30 32  1  0  0  0  0
 31 33  1  0  0  0  0
 32 31  1  0  0  0  0
 34 27  1  0  0  0  0
 35 28  2  0  0  0  0
 36 41  1  0  0  0  0
 37 40  1  0  0  0  0
 37 42  1  0  0  0  0
 38 43  1  0  0  0  0
 39 38  1  0  0  0  0
 39 42  1  0  0  0  0
 41 43  1  0  0  0  0
 41 40  1  0  0  0  0
M  END
>  <MODEL>
6

>  <REMARK>
 VINA RESULT:      -8.2      2.243      4.073
  Name = 
  6 active torsions:
  status: ('A' for Active; 'I' for Inactive)
    1  A    between atoms: C_1  and  C_28
    2  A    between atoms: O_2  and  C_6
    3  A    between atoms: O_2  and  C_13
    4  A    between atoms: C_4  and  N_22
    5  A    between atoms: C_13  and  C_38
    6  A    between atoms: C_28  and  C_35
                            x       y       z     vdW  Elec       q    Type
                         _______ _______ _______ _____ _____    ______ ____

>  <TORSDO>
F 6

$$$$
=
 OpenBabel11052421083D

 43 49  0  0  1  0  0  0  0  0999 V2000
  191.8550  173.5870  144.6810 C   0  0  2  0  0  3  0  0  0  0  0  0
  186.5520  178.2340  145.2880 C   0  0  0  0  0  0  0  0  0  0  0  0
  189.4750  174.1600  145.4660 C   0  0  2  0  0  3  0  0  0  0  0  0
  187.9510  176.4260  146.0990 C   0  0  0  0  0  0  0  0  0  0  0  0
  187.1760  178.1660  144.0390 C   0  0  0  0  0  3  0  0  0  0  0  0
  185.4750  179.2290  145.5270 C   0  0  0  0  0  1  0  0  0  0  0  0
  188.5590  176.3390  144.8230 C   0  0  0  0  0  0  0  0  0  0  0  0
  186.9380  177.3660  146.3130 C   0  0  0  0  0  3  0  0  0  0  0  0
  188.1860  177.2280  143.8080 C   0  0  0  0  0  3  0  0  0  0  0  0
  190.0440  174.8650  143.2790 C   0  0  0  0  0  2  0  0  0  0  0  0
  189.7140  175.4010  144.6520 C   0  0  2  0  0  3  0  0  0  0  0  0
  189.5060  174.5400  146.9330 C   0  0  0  0  0  2  0  0  0  0  0  0
  190.4400  173.0880  144.9740 C   0  0  1  0  0  3  0  0  0  0  0  0
  190.7960  173.5610  143.5700 C   0  0  2  0  0  0  0  0  0  0  0  0
  188.3050  175.4660  147.2250 C   0  0  0  0  0  2  0  0  0  0  0  0
  190.1510  171.4090  142.7480 O   0  0  0  0  0  0  0  0  0  0  0  0
  190.7920  172.4700  142.5310 C   0  0  0  0  0  0  0  0  0  0  0  0
  191.4590  172.6220  141.3110 O   0  0  0  0  0  0  0  0  0  0  0  0
  191.6140  172.6670  138.1620 O   0  0  0  0  0  1  0  0  0  0  0  0
  192.8510  172.2050  138.6200 C   0  0  2  0  0  0  0  0  0  0  0  0
  192.7300  172.0280  141.0470 C   0  0  1  0  0  3  0  0  0  0  0  0
  193.6270  174.3730  141.5100 C   0  0  0  0  0  1  0  0  0  0  0  0
  192.6680  171.2140  139.7660 C   0  0  1  0  0  3  0  0  0  0  0  0
  193.6440  173.3640  139.2170 C   0  0  0  0  0  2  0  0  0  0  0  0
  191.4270  170.3340  139.6550 C   0  0  0  0  0  1  0  0  0  0  0  0
  193.7680  173.0910  140.7060 C   0  0  2  0  0  3  0  0  0  0  0  0
  194.0510  173.5990  136.1410 N   0  0  0  0  0  0  0  0  0  0  0  0
  194.1960  172.1930  136.3980 C   0  0  0  0  0  0  0  0  0  0  0  0
  193.5860  171.5590  137.5340 N   0  0  0  0  0  2  0  0  0  0  0  0
  195.1110  175.7870  135.9370 C   0  0  0  0  0  2  0  0  0  0  0  0
  192.8030  175.6730  136.4530 C   0  0  0  0  0  2  0  0  0  0  0  0
  193.7980  176.3500  135.6280 N   0  0  0  0  0  2  0  0  0  0  0  0
  192.7230  174.1980  136.0680 C   0  0  0  0  0  2  0  0  0  0  0  0
  195.1580  174.3210  135.5180 C   0  0  0  0  0  2  0  0  0  0  0  0
  194.9160  171.4950  135.6350 O   0  0  0  0  0  0  0  0  0  0  0  0
  192.7970  172.3910  144.6470 C   0  0  0  0  0  2  0  0  0  0  0  0
  196.5030  172.0560  145.6210 C   0  0  0  0  0  2  0  0  0  0  0  0
  195.4590  175.0170  145.3540 C   0  0  0  0  0  2  0  0  0  0  0  0
  196.7750  174.2380  145.3350 C   0  0  0  0  0  2  0  0  0  0  0  0
  195.0020  171.7730  145.6260 C   0  0  0  0  0  2  0  0  0  0  0  0
  194.2300  172.8430  144.8500 C   0  0  2  0  0  3  0  0  0  0  0  0
  196.7840  173.2390  146.3140 O   0  0  0  0  0  0  0  0  0  0  0  0
  194.2270  174.1500  145.6370 C   0  0  0  0  0  2  0  0  0  0  0  0
  1 36  1  6  0  0  0
  1 13  1  0  0  0  0
  2  6  1  0  0  0  0
  2  8  1  0  0  0  0
  3 12  1  1  0  0  0
  4  8  2  0  0  0  0
  4 15  1  0  0  0  0
  5  2  2  0  0  0  0
  7  4  1  0  0  0  0
  9  5  1  0  0  0  0
  9  7  2  0  0  0  0
 10 14  1  0  0  0  0
 11 10  1  6  0  0  0
 11  7  1  0  0  0  0
 11  3  1  0  0  0  0
 12 15  1  0  0  0  0
 13  3  1  0  0  0  0
 14  1  1  0  0  0  0
 14 13  1  0  0  0  0
 17 16  2  0  0  0  0
 17 14  1  0  0  0  0
 18 17  1  0  0  0  0
 19 20  1  0  0  0  0
 20 24  1  0  0  0  0
 20 23  1  0  0  0  0
 21 18  1  0  0  0  0
 23 21  1  0  0  0  0
 24 26  1  0  0  0  0
 25 23  1  0  0  0  0
 26 21  1  0  0  0  0
 26 22  1  0  0  0  0
 27 28  1  0  0  0  0
 28 29  1  0  0  0  0
 29 20  1  0  0  0  0
 32 30  1  0  0  0  0
 32 31  1  0  0  0  0
 33 27  1  0  0  0  0
 33 31  1  0  0  0  0
 34 30  1  0  0  0  0
 34 27  1  0  0  0  0
 35 28  2  0  0  0  0
 36 41  1  0  0  0  0
 37 40  1  0  0  0  0
 37 42  1  0  0  0  0
 38 43  1  0  0  0  0
 39 38  1  0  0  0  0
 39 42  1  0  0  0  0
 41 40  1  0  0  0  0
 41 43  1  0  0  0  0
M  END
>  <MODEL>
7

>  <REMARK>
 VINA RESULT:      -8.1      2.192      3.729
  Name = 
  6 active torsions:
  status: ('A' for Active; 'I' for Inactive)
    1  A    between atoms: C_1  and  C_28
    2  A    between atoms: O_2  and  C_6
    3  A    between atoms: O_2  and  C_13
    4  A    between atoms: C_4  and  N_22
    5  A    between atoms: C_13  and  C_38
    6  A    between atoms: C_28  and  C_35
                            x       y       z     vdW  Elec       q    Type
                         _______ _______ _______ _____ _____    ______ ____

>  <TORSDO>
F 6

$$$$
=
 OpenBabel11052421083D

 43 49  0  0  1  0  0  0  0  0999 V2000
  189.3240  176.9230  143.0000 C   0  0  2  0  0  3  0  0  0  0  0  0
  182.5940  178.6160  141.6150 C   0  0  0  0  0  0  0  0  0  0  0  0
  186.8180  176.6990  143.5270 C   0  0  2  0  0  3  0  0  0  0  0  0
  184.4400  178.1230  143.1100 C   0  0  0  0  0  0  0  0  0  0  0  0
  183.3900  178.2930  140.5130 C   0  0  0  0  0  3  0  0  0  0  0  0
  181.1870  179.0510  141.4130 C   0  0  0  0  0  1  0  0  0  0  0  0
  185.2340  177.7660  141.9930 C   0  0  0  0  0  0  0  0  0  0  0  0
  183.1170  178.5300  142.9090 C   0  0  0  0  0  3  0  0  0  0  0  0
  184.7120  177.8790  140.6990 C   0  0  0  0  0  3  0  0  0  0  0  0
  187.4140  176.5650  141.2400 C   0  0  0  0  0  2  0  0  0  0  0  0
  186.6760  177.4390  142.2270 C   0  0  2  0  0  3  0  0  0  0  0  0
  186.4530  177.6440  144.6550 C   0  0  0  0  0  2  0  0  0  0  0  0
  188.1950  176.0470  143.5440 C   0  0  1  0  0  3  0  0  0  0  0  0
  188.5610  175.9730  142.0670 C   0  0  2  0  0  0  0  0  0  0  0  0
  184.9530  177.9940  144.5360 C   0  0  0  0  0  2  0  0  0  0  0  0
  188.5720  173.9570  140.7780 O   0  0  0  0  0  0  0  0  0  0  0  0
  189.1600  174.6570  141.6440 C   0  0  0  0  0  0  0  0  0  0  0  0
  190.3760  174.2070  142.1680 O   0  0  0  0  0  0  0  0  0  0  0  0
  193.5000  174.6050  142.0010 O   0  0  0  0  0  1  0  0  0  0  0  0
  193.2670  173.2260  141.9800 C   0  0  2  0  0  0  0  0  0  0  0  0
  190.8560  172.8760  141.9720 C   0  0  1  0  0  3  0  0  0  0  0  0
  190.6250  172.7030  144.5100 C   0  0  0  0  0  1  0  0  0  0  0  0
  192.0830  172.8920  141.0770 C   0  0  1  0  0  3  0  0  0  0  0  0
  192.8560  172.7540  143.3710 C   0  0  0  0  0  2  0  0  0  0  0  0
  191.9410  173.7910  139.8530 C   0  0  0  0  0  1  0  0  0  0  0  0
  191.4090  172.3010  143.2720 C   0  0  2  0  0  3  0  0  0  0  0  0
  195.9610  172.9680  143.4640 N   0  0  0  0  0  0  0  0  0  0  0  0
  195.6990  172.3430  142.1980 C   0  0  0  0  0  0  0  0  0  0  0  0
  194.4540  172.5190  141.5040 N   0  0  0  0  0  2  0  0  0  0  0  0
  196.4140  172.7090  145.8480 C   0  0  0  0  0  2  0  0  0  0  0  0
  195.4750  174.7400  145.0720 C   0  0  0  0  0  2  0  0  0  0  0  0
  196.4880  174.1660  145.9510 N   0  0  0  0  0  2  0  0  0  0  0  0
  195.8010  174.4090  143.6170 C   0  0  0  0  0  2  0  0  0  0  0  0
  196.7970  172.2690  144.4380 C   0  0  0  0  0  2  0  0  0  0  0  0
  196.5650  171.5760  141.6950 O   0  0  0  0  0  0  0  0  0  0  0  0
  190.6540  176.3580  143.4820 C   0  0  0  0  0  2  0  0  0  0  0  0
  189.8310  177.3630  147.1020 C   0  0  0  0  0  2  0  0  0  0  0  0
  192.1850  175.2910  146.7980 C   0  0  0  0  0  2  0  0  0  0  0  0
  191.1870  175.7760  147.8510 C   0  0  0  0  0  2  0  0  0  0  0  0
  190.0940  177.5290  145.6070 C   0  0  0  0  0  2  0  0  0  0  0  0
  190.6620  176.2470  144.9940 C   0  0  2  0  0  3  0  0  0  0  0  0
  191.0310  177.1650  147.7950 O   0  0  0  0  0  0  0  0  0  0  0  0
  192.0980  176.0430  145.4650 C   0  0  0  0  0  2  0  0  0  0  0  0
  1 36  1  1  0  0  0
  1 13  1  0  0  0  0
  2  8  1  0  0  0  0
  3 13  1  0  0  0  0
  3 12  1  1  0  0  0
  4 15  1  0  0  0  0
  5  9  1  0  0  0  0
  5  2  2  0  0  0  0
  6  2  1  0  0  0  0
  7 11  1  0  0  0  0
  7  4  1  0  0  0  0
  8  4  2  0  0  0  0
  9  7  2  0  0  0  0
 10 14  1  0  0  0  0
 11 10  1  6  0  0  0
 11  3  1  0  0  0  0
 14  1  1  0  0  0  0
 14 13  1  0  0  0  0
 15 12  1  0  0  0  0
 16 17  2  0  0  0  0
 17 14  1  0  0  0  0
 17 18  1  0  0  0  0
 20 19  1  0  0  0  0
 20 24  1  0  0  0  0
 21 18  1  0  0  0  0
 21 26  1  0  0  0  0
 23 21  1  0  0  0  0
 23 20  1  0  0  0  0
 25 23  1  0  0  0  0
 26 24  1  0  0  0  0
 26 22  1  0  0  0  0
 27 33  1  0  0  0  0
 27 34  1  0  0  0  0
 28 27  1  0  0  0  0
 29 20  1  0  0  0  0
 29 28  1  0  0  0  0
 30 32  1  0  0  0  0
 31 32  1  0  0  0  0
 33 31  1  0  0  0  0
 34 30  1  0  0  0  0
 35 28  2  0  0  0  0
 36 41  1  0  0  0  0
 37 42  1  0  0  0  0
 38 39  1  0  0  0  0
 40 37  1  0  0  0  0
 41 43  1  0  0  0  0
 41 40  1  0  0  0  0
 42 39  1  0  0  0  0
 43 38  1  0  0  0  0
M  END
>  <MODEL>
8

>  <REMARK>
 VINA RESULT:      -8.0      2.487      3.901
  Name = 
  6 active torsions:
  status: ('A' for Active; 'I' for Inactive)
    1  A    between atoms: C_1  and  C_28
    2  A    between atoms: O_2  and  C_6
    3  A    between atoms: O_2  and  C_13
    4  A    between atoms: C_4  and  N_22
    5  A    between atoms: C_13  and  C_38
    6  A    between atoms: C_28  and  C_35
                            x       y       z     vdW  Elec       q    Type
                         _______ _______ _______ _____ _____    ______ ____

>  <TORSDO>
F 6

$$$$
=
 OpenBabel11052421083D

 43 49  0  0  1  0  0  0  0  0999 V2000
  191.3040  174.2680  144.7310 C   0  0  2  0  0  3  0  0  0  0  0  0
  185.8680  178.7950  144.5530 C   0  0  0  0  0  0  0  0  0  0  0  0
  188.9410  174.9410  145.4880 C   0  0  2  0  0  3  0  0  0  0  0  0
  187.3650  177.2510  145.6760 C   0  0  0  0  0  0  0  0  0  0  0  0
  186.4390  178.4650  143.3210 C   0  0  0  0  0  3  0  0  0  0  0  0
  184.7670  179.7910  144.6180 C   0  0  0  0  0  1  0  0  0  0  0  0
  187.9200  176.8960  144.4220 C   0  0  0  0  0  0  0  0  0  0  0  0
  186.3290  178.1890  145.7260 C   0  0  0  0  0  3  0  0  0  0  0  0
  187.4710  177.5260  143.2550 C   0  0  0  0  0  3  0  0  0  0  0  0
  189.3890  175.1520  143.1720 C   0  0  0  0  0  2  0  0  0  0  0  0
  189.0990  175.9730  144.4070 C   0  0  2  0  0  3  0  0  0  0  0  0
  189.0220  175.6410  146.8300 C   0  0  0  0  0  2  0  0  0  0  0  0
  189.9220  173.8110  145.1990 C   0  0  1  0  0  3  0  0  0  0  0  0
  190.1990  173.9660  143.7090 C   0  0  2  0  0  0  0  0  0  0  0  0
  187.8020  176.5780  146.9680 C   0  0  0  0  0  2  0  0  0  0  0  0
  189.6350  171.6570  143.4400 O   0  0  0  0  0  0  0  0  0  0  0  0
  190.1900  172.6710  142.9400 C   0  0  0  0  0  0  0  0  0  0  0  0
  190.7570  172.5740  141.6650 O   0  0  0  0  0  0  0  0  0  0  0  0
  192.7610  171.5380  139.4620 O   0  0  0  0  0  1  0  0  0  0  0  0
  192.3080  172.7910  139.0380 C   0  0  2  0  0  0  0  0  0  0  0  0
  190.8570  173.6880  140.7770 C   0  0  1  0  0  3  0  0  0  0  0  0
  188.6900  172.7600  139.7930 C   0  0  0  0  0  1  0  0  0  0  0  0
  192.2610  173.7730  140.2050 C   0  0  1  0  0  3  0  0  0  0  0  0
  190.8660  172.6770  138.5530 C   0  0  0  0  0  2  0  0  0  0  0  0
  193.3620  173.5810  141.2430 C   0  0  0  0  0  1  0  0  0  0  0  0
  190.0100  173.4670  139.5290 C   0  0  2  0  0  3  0  0  0  0  0  0
  192.5820  171.7120  136.1590 N   0  0  0  0  0  0  0  0  0  0  0  0
  193.2890  172.8670  136.6350 C   0  0  0  0  0  0  0  0  0  0  0  0
  193.1820  173.3200  137.9930 N   0  0  0  0  0  2  0  0  0  0  0  0
  190.8850  170.7910  134.6660 C   0  0  0  0  0  2  0  0  0  0  0  0
  191.4570  169.5970  136.6290 C   0  0  0  0  0  2  0  0  0  0  0  0
  191.1920  169.4650  135.2010 N   0  0  0  0  0  2  0  0  0  0  0  0
  192.7140  170.4350  136.8510 C   0  0  0  0  0  2  0  0  0  0  0  0
  192.1130  171.6910  134.7750 C   0  0  0  0  0  2  0  0  0  0  0  0
  193.9910  173.5380  135.8310 O   0  0  0  0  0  0  0  0  0  0  0  0
  192.2860  173.1190  144.9170 C   0  0  0  0  0  2  0  0  0  0  0  0
  195.0690  175.7550  145.2410 C   0  0  0  0  0  2  0  0  0  0  0  0
  196.0500  172.7620  145.3550 C   0  0  0  0  0  2  0  0  0  0  0  0
  196.5190  174.1600  145.7630 C   0  0  0  0  0  2  0  0  0  0  0  0
  193.8090  175.0780  144.7040 C   0  0  0  0  0  2  0  0  0  0  0  0
  193.6660  173.6540  145.2480 C   0  0  2  0  0  3  0  0  0  0  0  0
  196.2160  175.1020  144.7740 O   0  0  0  0  0  0  0  0  0  0  0  0
  194.7120  172.7490  144.6050 C   0  0  0  0  0  2  0  0  0  0  0  0
  1 36  1  6  0  0  0
  1 13  1  0  0  0  0
  2  6  1  0  0  0  0
  2  8  1  0  0  0  0
  3 12  1  1  0  0  0
  4  8  2  0  0  0  0
  4 15  1  0  0  0  0
  5  2  2  0  0  0  0
  7  4  1  0  0  0  0
  9  5  1  0  0  0  0
  9  7  2  0  0  0  0
 10 14  1  0  0  0  0
 11 10  1  6  0  0  0
 11  7  1  0  0  0  0
 11  3  1  0  0  0  0
 12 15  1  0  0  0  0
 13  3  1  0  0  0  0
 14  1  1  0  0  0  0
 14 13  1  0  0  0  0
 17 16  2  0  0  0  0
 17 14  1  0  0  0  0
 18 17  1  0  0  0  0
 20 19  1  0  0  0  0
 20 23  1  0  0  0  0
 21 18  1  0  0  0  0
 23 21  1  0  0  0  0
 23 25  1  0  0  0  0
 24 20  1  0  0  0  0
 24 26  1  0  0  0  0
 26 22  1  0  0  0  0
 26 21  1  0  0  0  0
 27 28  1  0  0  0  0
 27 33  1  0  0  0  0
 28 29  1  0  0  0  0
 29 20  1  0  0  0  0
 30 34  1  0  0  0  0
 30 32  1  0  0  0  0
 31 33  1  0  0  0  0
 32 31  1  0  0  0  0
 34 27  1  0  0  0  0
 35 28  2  0  0  0  0
 36 41  1  0  0  0  0
 38 39  1  0  0  0  0
 40 37  1  0  0  0  0
 40 41  1  0  0  0  0
 42 37  1  0  0  0  0
 42 39  1  0  0  0  0
 43 41  1  0  0  0  0
 43 38  1  0  0  0  0
M  END
>  <MODEL>
9

>  <REMARK>
 VINA RESULT:      -8.0      2.185      3.684
  Name = 
  6 active torsions:
  status: ('A' for Active; 'I' for Inactive)
    1  A    between atoms: C_1  and  C_28
    2  A    between atoms: O_2  and  C_6
    3  A    between atoms: O_2  and  C_13
    4  A    between atoms: C_4  and  N_22
    5  A    between atoms: C_13  and  C_38
    6  A    between atoms: C_28  and  C_35
                            x       y       z     vdW  Elec       q    Type
                         _______ _______ _______ _____ _____    ______ ____

>  <TORSDO>
F 6

$$$$
