=
 OpenBabel11052418133D

 28 31  0  0  1  0  0  0  0  0999 V2000
  192.0940  174.7500  143.6710 C   0  0  2  0  0  3  0  0  0  0  0  0
  187.0830  176.6590  145.1410 C   0  0  0  0  0  3  0  0  0  0  0  0
  188.0750  172.2440  142.0220 C   0  0  0  0  0  1  0  0  0  0  0  0
  187.2590  177.2930  142.8030 C   0  0  0  0  0  0  0  0  0  0  0  0
  188.1730  175.0490  143.5500 C   0  0  2  0  0  3  0  0  0  0  0  0
  186.2600  178.8120  144.4060 C   0  0  0  0  0  0  0  0  0  0  0  0
  187.4730  176.3520  143.8320 C   0  0  0  0  0  0  0  0  0  0  0  0
  188.5760  175.8140  141.2780 C   0  0  0  0  0  2  0  0  0  0  0  0
  186.6430  178.5130  143.0960 C   0  0  0  0  0  3  0  0  0  0  0  0
  190.2620  173.3790  142.4660 C   0  0  1  0  0  3  0  0  0  0  0  0
  189.5840  175.0450  144.1720 C   0  0  2  0  0  3  0  0  0  0  0  0
  187.5860  176.9700  141.3750 C   0  0  0  0  0  2  0  0  0  0  0  0
  192.6500  172.7680  142.2030 C   0  0  0  0  0  2  0  0  0  0  0  0
  188.8980  173.4920  141.7620 C   0  0  2  0  0  3  0  0  0  0  0  0
  191.3190  172.8970  141.4830 C   0  0  0  0  0  2  0  0  0  0  0  0
  185.6400  180.0590  144.6980 N   0  0  0  0  0  1  0  0  0  0  0  0
  186.4770  177.8850  145.4270 C   0  0  0  0  0  3  0  0  0  0  0  0
  188.1210  174.6960  142.1080 N   0  0  1  0  0  0  0  0  0  0  0  0
  193.0920  174.1420  142.6810 C   0  0  0  0  0  2  0  0  0  0  0  0
  190.6520  174.7080  143.1220 C   0  0  1  0  0  3  0  0  0  0  0  0
  192.5990  176.4450  143.9690 S   0  0  0  0  0  0  0  0  0  0  0  0
  192.3990  176.7650  145.4250 O   0  0  0  0  0  0  0  0  0  0  0  0
  194.0570  176.5930  143.6300 O   0  0  0  0  0  0  0  0  0  0  0  0
  190.7200  178.3950  143.8820 C   0  0  0  0  0  1  0  0  0  0  0  0
  191.6560  177.5990  142.9940 C   0  0  0  0  0  2  0  0  0  0  0  0
  189.5760  174.0520  145.3340 C   0  0  0  0  0  2  0  0  0  0  0  0
  189.9760  174.7220  146.6330 C   0  0  0  0  0  2  0  0  0  0  0  0
  188.8350  174.6230  147.6230 C   0  0  0  0  0  1  0  0  0  0  0  0
  1 21  1  6  0  0  0
  2 17  1  0  0  0  0
  4  9  2  0  0  0  0
  4  7  1  0  0  0  0
  5  7  1  6  0  0  0
  5 11  1  0  0  0  0
  6 16  1  0  0  0  0
  6 17  2  0  0  0  0
  7  2  2  0  0  0  0
  8 12  1  0  0  0  0
  9  6  1  0  0  0  0
 10 15  1  6  0  0  0
 10 20  1  0  0  0  0
 11 26  1  1  0  0  0
 12  4  1  0  0  0  0
 13 19  1  0  0  0  0
 14  3  1  1  0  0  0
 14 18  1  0  0  0  0
 14 10  1  0  0  0  0
 15 13  1  0  0  0  0
 18  8  1  6  0  0  0
 18  5  1  0  0  0  0
 19  1  1  0  0  0  0
 20  1  1  0  0  0  0
 20 11  1  0  0  0  0
 21 22  2  0  0  0  0
 23 21  2  0  0  0  0
 25 24  1  0  0  0  0
 25 21  1  0  0  0  0
 26 27  1  0  0  0  0
 27 28  1  0  0  0  0
M  END
>  <MODEL>
1

>  <REMARK>
 VINA RESULT:      -6.4      0.000      0.000
  Name = 
  4 active torsions:
  status: ('A' for Active; 'I' for Inactive)
    1  A    between atoms: C_1  and  S_2
    2  A    between atoms: S_2  and  C_11
    3  A    between atoms: C_6  and  C_28
    4  A    between atoms: C_17  and  C_28
                            x       y       z     vdW  Elec       q    Type
                         _______ _______ _______ _____ _____    ______ ____

>  <TORSDO>
F 4

$$$$
=
 OpenBabel11052418133D

 28 31  0  0  1  0  0  0  0  0999 V2000
  192.9780  176.4390  144.7320 C   0  0  2  0  0  3  0  0  0  0  0  0
  188.6870  175.0150  141.4950 C   0  0  0  0  0  3  0  0  0  0  0  0
  188.6390  175.3150  146.9830 C   0  0  0  0  0  1  0  0  0  0  0  0
  189.3810  172.9000  142.4680 C   0  0  0  0  0  0  0  0  0  0  0  0
  189.4150  174.9920  143.8990 C   0  0  2  0  0  3  0  0  0  0  0  0
  188.7070  173.0090  140.1420 C   0  0  0  0  0  0  0  0  0  0  0  0
  189.1370  174.2830  142.6010 C   0  0  0  0  0  0  0  0  0  0  0  0
  190.3540  172.9250  144.7700 C   0  0  0  0  0  2  0  0  0  0  0  0
  189.1530  172.2700  141.2410 C   0  0  0  0  0  3  0  0  0  0  0  0
  190.9910  175.6990  146.2120 C   0  0  1  0  0  3  0  0  0  0  0  0
  190.6500  175.9060  143.7640 C   0  0  2  0  0  3  0  0  0  0  0  0
  189.7820  172.0650  143.6480 C   0  0  0  0  0  2  0  0  0  0  0  0
  193.0690  176.5550  147.2560 C   0  0  0  0  0  2  0  0  0  0  0  0
  189.8460  174.6770  146.3210 C   0  0  2  0  0  3  0  0  0  0  0  0
  191.9640  175.5200  147.3680 C   0  0  0  0  0  2  0  0  0  0  0  0
  188.4830  172.3630  138.8940 N   0  0  0  0  0  1  0  0  0  0  0  0
  188.4720  174.3800  140.2690 C   0  0  0  0  0  3  0  0  0  0  0  0
  189.4540  174.0480  145.0450 N   0  0  1  0  0  0  0  0  0  0  0  0
  193.8570  176.3050  145.9800 C   0  0  0  0  0  2  0  0  0  0  0  0
  191.6890  175.5980  144.8520 C   0  0  1  0  0  3  0  0  0  0  0  0
  193.9520  175.8920  143.3290 S   0  0  0  0  0  0  0  0  0  0  0  0
  193.4420  176.5700  142.0870 O   0  0  0  0  0  0  0  0  0  0  0  0
  195.3890  176.2780  143.5440 O   0  0  0  0  0  0  0  0  0  0  0  0
  193.0020  173.8040  141.8880 C   0  0  0  0  0  1  0  0  0  0  0  0
  193.8530  174.1280  143.1000 C   0  0  0  0  0  2  0  0  0  0  0  0
  190.1640  177.3540  143.8180 C   0  0  0  0  0  2  0  0  0  0  0  0
  188.6790  177.4260  144.1110 C   0  0  0  0  0  2  0  0  0  0  0  0
  187.9810  178.1680  142.9910 C   0  0  0  0  0  1  0  0  0  0  0  0
  1 21  1  6  0  0  0
  1 20  1  0  0  0  0
  1 19  1  0  0  0  0
  2  7  1  0  0  0  0
  4  7  2  0  0  0  0
  4 12  1  0  0  0  0
  5  7  1  6  0  0  0
  5 18  1  0  0  0  0
  6 17  1  0  0  0  0
  6  9  2  0  0  0  0
  9  4  1  0  0  0  0
 10 14  1  0  0  0  0
 10 15  1  1  0  0  0
 11 26  1  1  0  0  0
 11  5  1  0  0  0  0
 11 20  1  0  0  0  0
 12  8  1  0  0  0  0
 13 15  1  0  0  0  0
 14  3  1  6  0  0  0
 16  6  1  0  0  0  0
 17  2  2  0  0  0  0
 18  8  1  6  0  0  0
 18 14  1  0  0  0  0
 19 13  1  0  0  0  0
 20 10  1  0  0  0  0
 21 23  2  0  0  0  0
 22 21  2  0  0  0  0
 24 25  1  0  0  0  0
 25 21  1  0  0  0  0
 26 27  1  0  0  0  0
 28 27  1  0  0  0  0
M  END
>  <MODEL>
2

>  <REMARK>
 VINA RESULT:      -6.4      2.138      4.951
  Name = 
  4 active torsions:
  status: ('A' for Active; 'I' for Inactive)
    1  A    between atoms: C_1  and  S_2
    2  A    between atoms: S_2  and  C_11
    3  A    between atoms: C_6  and  C_28
    4  A    between atoms: C_17  and  C_28
                            x       y       z     vdW  Elec       q    Type
                         _______ _______ _______ _____ _____    ______ ____

>  <TORSDO>
F 4

$$$$
=
 OpenBabel11052418133D

 28 31  0  0  1  0  0  0  0  0999 V2000
  191.4700  174.4740  146.1390 C   0  0  2  0  0  3  0  0  0  0  0  0
  187.1140  175.5150  142.8420 C   0  0  0  0  0  3  0  0  0  0  0  0
  192.2220  174.3470  141.1810 C   0  0  0  0  0  1  0  0  0  0  0  0
  188.4390  177.5450  142.6770 C   0  0  0  0  0  0  0  0  0  0  0  0
  189.6160  175.3010  142.7670 C   0  0  2  0  0  3  0  0  0  0  0  0
  186.0220  177.6740  142.7970 C   0  0  0  0  0  0  0  0  0  0  0  0
  188.3650  176.1380  142.7410 C   0  0  0  0  0  0  0  0  0  0  0  0
  190.9230  177.3480  142.8710 C   0  0  0  0  0  2  0  0  0  0  0  0
  187.2650  178.3030  142.6940 C   0  0  0  0  0  3  0  0  0  0  0  0
  192.2550  174.5620  143.6760 C   0  0  1  0  0  3  0  0  0  0  0  0
  189.8260  174.6830  144.1640 C   0  0  2  0  0  3  0  0  0  0  0  0
  189.7520  178.2450  142.4840 C   0  0  0  0  0  2  0  0  0  0  0  0
  193.8580  173.9800  145.4740 C   0  0  0  0  0  2  0  0  0  0  0  0
  192.0600  175.3080  142.3440 C   0  0  2  0  0  3  0  0  0  0  0  0
  193.6800  174.7450  144.1740 C   0  0  0  0  0  2  0  0  0  0  0  0
  184.8310  178.4530  142.8210 N   0  0  0  0  0  1  0  0  0  0  0  0
  185.9460  176.2810  142.8690 C   0  0  0  0  0  3  0  0  0  0  0  0
  190.7850  176.0410  142.2250 N   0  0  1  0  0  0  0  0  0  0  0  0
  192.9460  174.5800  146.5320 C   0  0  0  0  0  2  0  0  0  0  0  0
  191.2210  175.0140  144.7140 C   0  0  1  0  0  3  0  0  0  0  0  0
  190.5260  175.4180  147.3360 S   0  0  0  0  0  0  0  0  0  0  0  0
  189.2420  174.6910  147.6290 O   0  0  0  0  0  0  0  0  0  0  0  0
  191.3220  175.5400  148.6070 O   0  0  0  0  0  0  0  0  0  0  0  0
  188.6460  177.1760  146.4920 C   0  0  0  0  0  1  0  0  0  0  0  0
  190.1360  177.0500  146.7370 C   0  0  0  0  0  2  0  0  0  0  0  0
  189.5900  173.1770  144.0460 C   0  0  0  0  0  2  0  0  0  0  0  0
  189.2650  172.7810  142.6200 C   0  0  0  0  0  2  0  0  0  0  0  0
  190.0040  171.5060  142.2710 C   0  0  0  0  0  1  0  0  0  0  0  0
  1 19  1  0  0  0  0
  1 21  1  1  0  0  0
  2 17  1  0  0  0  0
  4  9  2  0  0  0  0
  4  7  1  0  0  0  0
  5  7  1  1  0  0  0
  5 11  1  0  0  0  0
  6 16  1  0  0  0  0
  6 17  2  0  0  0  0
  7  2  2  0  0  0  0
  9  6  1  0  0  0  0
 10 15  1  1  0  0  0
 10 20  1  0  0  0  0
 11 26  1  6  0  0  0
 11 20  1  0  0  0  0
 12  4  1  0  0  0  0
 12  8  1  0  0  0  0
 13 19  1  0  0  0  0
 14  3  1  6  0  0  0
 14 10  1  0  0  0  0
 15 13  1  0  0  0  0
 18 14  1  0  0  0  0
 18  5  1  0  0  0  0
 18  8  1  1  0  0  0
 20  1  1  0  0  0  0
 21 22  2  0  0  0  0
 21 23  2  0  0  0  0
 24 25  1  0  0  0  0
 25 21  1  0  0  0  0
 27 26  1  0  0  0  0
 28 27  1  0  0  0  0
M  END
>  <MODEL>
3

>  <REMARK>
 VINA RESULT:      -6.3      2.186      3.374
  Name = 
  4 active torsions:
  status: ('A' for Active; 'I' for Inactive)
    1  A    between atoms: C_1  and  S_2
    2  A    between atoms: S_2  and  C_11
    3  A    between atoms: C_6  and  C_28
    4  A    between atoms: C_17  and  C_28
                            x       y       z     vdW  Elec       q    Type
                         _______ _______ _______ _____ _____    ______ ____

>  <TORSDO>
F 4

$$$$
=
 OpenBabel11052418133D

 28 31  0  0  1  0  0  0  0  0999 V2000
  187.6830  177.9200  145.0160 C   0  0  2  0  0  3  0  0  0  0  0  0
  191.3610  174.8490  142.1950 C   0  0  0  0  0  3  0  0  0  0  0  0
  187.0470  177.5010  140.0590 C   0  0  0  0  0  1  0  0  0  0  0  0
  189.3830  173.4400  142.2540 C   0  0  0  0  0  0  0  0  0  0  0  0
  189.1140  175.9400  141.9310 C   0  0  2  0  0  3  0  0  0  0  0  0
  191.5840  172.4650  142.5450 C   0  0  0  0  0  0  0  0  0  0  0  0
  189.9700  174.7140  142.1100 C   0  0  0  0  0  0  0  0  0  0  0  0
  187.1450  174.5520  142.2600 C   0  0  0  0  0  2  0  0  0  0  0  0
  190.1960  172.3210  142.4590 C   0  0  0  0  0  3  0  0  0  0  0  0
  186.9290  177.7220  142.5510 C   0  0  1  0  0  3  0  0  0  0  0  0
  189.1410  176.8110  143.2040 C   0  0  2  0  0  3  0  0  0  0  0  0
  187.9060  173.2420  142.0870 C   0  0  0  0  0  2  0  0  0  0  0  0
  185.6450  179.1300  144.1360 C   0  0  0  0  0  2  0  0  0  0  0  0
  186.8410  176.7500  141.3610 C   0  0  2  0  0  3  0  0  0  0  0  0
  185.5340  178.1520  142.9790 C   0  0  0  0  0  2  0  0  0  0  0  0
  192.4050  171.3230  142.7600 N   0  0  0  0  0  1  0  0  0  0  0  0
  192.1660  173.7280  142.4110 C   0  0  0  0  0  3  0  0  0  0  0  0
  187.7570  175.5960  141.4340 N   0  0  1  0  0  0  0  0  0  0  0  0
  186.2700  178.4220  145.3270 C   0  0  0  0  0  2  0  0  0  0  0  0
  187.7200  177.1030  143.7070 C   0  0  1  0  0  3  0  0  0  0  0  0
  188.2100  176.9070  146.4000 S   0  0  0  0  0  0  0  0  0  0  0  0
  189.3120  177.6190  147.1340 O   0  0  0  0  0  0  0  0  0  0  0  0
  187.0480  176.7040  147.3330 O   0  0  0  0  0  0  0  0  0  0  0  0
  189.4030  174.5610  147.0390 C   0  0  0  0  0  1  0  0  0  0  0  0
  188.8100  175.3170  145.8660 C   0  0  0  0  0  2  0  0  0  0  0  0
  189.9150  178.0880  142.8750 C   0  0  0  0  0  2  0  0  0  0  0  0
  190.8800  178.4480  143.9850 C   0  0  0  0  0  2  0  0  0  0  0  0
  191.6100  177.2020  144.4420 C   0  0  0  0  0  1  0  0  0  0  0  0
  1 19  1  0  0  0  0
  1 21  1  1  0  0  0
  2 17  1  0  0  0  0
  4  9  2  0  0  0  0
  5  7  1  1  0  0  0
  5 11  1  0  0  0  0
  6 16  1  0  0  0  0
  7  2  2  0  0  0  0
  7  4  1  0  0  0  0
  9  6  1  0  0  0  0
 10 15  1  1  0  0  0
 10 20  1  0  0  0  0
 11 26  1  6  0  0  0
 11 20  1  0  0  0  0
 12  4  1  0  0  0  0
 12  8  1  0  0  0  0
 13 19  1  0  0  0  0
 14  3  1  6  0  0  0
 14 18  1  0  0  0  0
 14 10  1  0  0  0  0
 15 13  1  0  0  0  0
 17  6  2  0  0  0  0
 18  5  1  0  0  0  0
 18  8  1  1  0  0  0
 20  1  1  0  0  0  0
 21 22  2  0  0  0  0
 21 23  2  0  0  0  0
 25 21  1  0  0  0  0
 25 24  1  0  0  0  0
 26 27  1  0  0  0  0
 27 28  1  0  0  0  0
M  END
>  <MODEL>
4

>  <REMARK>
 VINA RESULT:      -6.3      2.232      5.883
  Name = 
  4 active torsions:
  status: ('A' for Active; 'I' for Inactive)
    1  A    between atoms: C_1  and  S_2
    2  A    between atoms: S_2  and  C_11
    3  A    between atoms: C_6  and  C_28
    4  A    between atoms: C_17  and  C_28
                            x       y       z     vdW  Elec       q    Type
                         _______ _______ _______ _____ _____    ______ ____

>  <TORSDO>
F 4

$$$$
=
 OpenBabel11052418133D

 28 31  0  0  1  0  0  0  0  0999 V2000
  191.4240  173.1320  143.1540 C   0  0  2  0  0  3  0  0  0  0  0  0
  188.3570  177.5540  144.5560 C   0  0  0  0  0  3  0  0  0  0  0  0
  193.2380  176.1950  146.6880 C   0  0  0  0  0  1  0  0  0  0  0  0
  188.0710  176.0520  146.4450 C   0  0  0  0  0  0  0  0  0  0  0  0
  190.3430  176.2260  145.3330 C   0  0  2  0  0  3  0  0  0  0  0  0
  186.1900  177.3340  145.6110 C   0  0  0  0  0  0  0  0  0  0  0  0
  188.8990  176.6330  145.4610 C   0  0  0  0  0  0  0  0  0  0  0  0
  189.9690  174.5400  147.0440 C   0  0  0  0  0  2  0  0  0  0  0  0
  186.7240  176.4160  146.5200 C   0  0  0  0  0  3  0  0  0  0  0  0
  192.5290  174.3490  145.1500 C   0  0  1  0  0  3  0  0  0  0  0  0
  190.5580  175.3860  144.0580 C   0  0  2  0  0  3  0  0  0  0  0  0
  188.6310  175.1260  147.4830 C   0  0  0  0  0  2  0  0  0  0  0  0
  193.6460  172.3970  144.1090 C   0  0  0  0  0  2  0  0  0  0  0  0
  192.2280  175.0830  146.4690 C   0  0  2  0  0  3  0  0  0  0  0  0
  193.3380  173.0900  145.4240 C   0  0  0  0  0  2  0  0  0  0  0  0
  184.8160  177.6940  145.6890 N   0  0  0  0  0  1  0  0  0  0  0  0
  187.0070  177.9040  144.6320 C   0  0  0  0  0  3  0  0  0  0  0  0
  190.8560  175.6110  146.5840 N   0  0  1  0  0  0  0  0  0  0  0  0
  192.3440  171.9480  143.4660 C   0  0  0  0  0  2  0  0  0  0  0  0
  191.2380  174.0470  144.3830 C   0  0  1  0  0  3  0  0  0  0  0  0
  189.8450  172.4630  142.6290 S   0  0  0  0  0  0  0  0  0  0  0  0
  190.0660  171.1010  142.0310 O   0  0  0  0  0  0  0  0  0  0  0  0
  188.9420  172.3340  143.8250 O   0  0  0  0  0  0  0  0  0  0  0  0
  187.8430  174.1810  142.0160 C   0  0  0  0  0  1  0  0  0  0  0  0
  189.0560  173.5000  141.4150 C   0  0  0  0  0  2  0  0  0  0  0  0
  191.3750  176.2290  143.0780 C   0  0  0  0  0  2  0  0  0  0  0  0
  191.8910  177.4910  143.7370 C   0  0  0  0  0  2  0  0  0  0  0  0
  191.1910  178.6940  143.1380 C   0  0  0  0  0  1  0  0  0  0  0  0
  1 21  1  1  0  0  0
  1 19  1  0  0  0  0
  1 20  1  0  0  0  0
  2 17  2  0  0  0  0
  2  7  1  0  0  0  0
  4  9  1  0  0  0  0
  4 12  1  0  0  0  0
  5  7  1  1  0  0  0
  5 18  1  0  0  0  0
  6 16  1  0  0  0  0
  6  9  2  0  0  0  0
  7  4  2  0  0  0  0
  8 12  1  0  0  0  0
 10 15  1  1  0  0  0
 10 14  1  0  0  0  0
 11 26  1  6  0  0  0
 11 20  1  0  0  0  0
 11  5  1  0  0  0  0
 13 15  1  0  0  0  0
 14 18  1  0  0  0  0
 14  3  1  6  0  0  0
 17  6  1  0  0  0  0
 18  8  1  6  0  0  0
 19 13  1  0  0  0  0
 20 10  1  0  0  0  0
 21 23  2  0  0  0  0
 22 21  2  0  0  0  0
 25 24  1  0  0  0  0
 25 21  1  0  0  0  0
 26 27  1  0  0  0  0
 28 27  1  0  0  0  0
M  END
>  <MODEL>
5

>  <REMARK>
 VINA RESULT:      -6.1      2.704      4.499
  Name = 
  4 active torsions:
  status: ('A' for Active; 'I' for Inactive)
    1  A    between atoms: C_1  and  S_2
    2  A    between atoms: S_2  and  C_11
    3  A    between atoms: C_6  and  C_28
    4  A    between atoms: C_17  and  C_28
                            x       y       z     vdW  Elec       q    Type
                         _______ _______ _______ _____ _____    ______ ____

>  <TORSDO>
F 4

$$$$
=
 OpenBabel11052418133D

 28 31  0  0  1  0  0  0  0  0999 V2000
  187.0370  176.4420  143.3490 C   0  0  2  0  0  3  0  0  0  0  0  0
  191.9930  174.1380  142.3260 C   0  0  0  0  0  3  0  0  0  0  0  0
  189.6430  174.6980  147.2630 C   0  0  0  0  0  1  0  0  0  0  0  0
  192.5660  176.2880  143.3010 C   0  0  0  0  0  0  0  0  0  0  0  0
  190.5900  174.9960  144.2250 C   0  0  2  0  0  3  0  0  0  0  0  0
  193.8470  175.4150  141.4370 C   0  0  0  0  0  0  0  0  0  0  0  0
  191.7530  175.1360  143.2790 C   0  0  0  0  0  0  0  0  0  0  0  0
  191.0150  177.2600  145.0030 C   0  0  0  0  0  2  0  0  0  0  0  0
  193.6150  176.4140  142.3860 C   0  0  0  0  0  3  0  0  0  0  0  0
  188.2010  175.8740  145.5870 C   0  0  1  0  0  3  0  0  0  0  0  0
  189.2540  175.1340  143.4670 C   0  0  2  0  0  3  0  0  0  0  0  0
  192.3940  177.3400  144.3560 C   0  0  0  0  0  2  0  0  0  0  0  0
  185.8990  176.7910  145.5790 C   0  0  0  0  0  2  0  0  0  0  0  0
  189.5620  175.8720  146.3050 C   0  0  2  0  0  3  0  0  0  0  0  0
  187.2420  176.8250  146.2870 C   0  0  0  0  0  2  0  0  0  0  0  0
  194.9120  175.5530  140.5050 N   0  0  0  0  0  1  0  0  0  0  0  0
  193.0380  174.2760  141.4090 C   0  0  0  0  0  3  0  0  0  0  0  0
  190.7340  175.8810  145.4100 N   0  0  1  0  0  0  0  0  0  0  0  0
  186.0710  177.3100  144.1600 C   0  0  0  0  0  2  0  0  0  0  0  0
  188.3650  176.2130  144.1020 C   0  0  1  0  0  3  0  0  0  0  0  0
  187.3380  177.2830  141.7940 S   0  0  0  0  0  0  0  0  0  0  0  0
  188.6170  178.0680  141.9020 O   0  0  0  0  0  0  0  0  0  0  0  0
  187.4800  176.2610  140.6990 O   0  0  0  0  0  0  0  0  0  0  0  0
  185.2910  177.9160  140.1360 C   0  0  0  0  0  1  0  0  0  0  0  0
  186.0140  178.4000  141.3770 C   0  0  0  0  0  2  0  0  0  0  0  0
  188.5830  173.7600  143.4560 C   0  0  0  0  0  2  0  0  0  0  0  0
  188.4940  173.2030  142.0500 C   0  0  0  0  0  2  0  0  0  0  0  0
  189.3170  171.9350  141.9580 C   0  0  0  0  0  1  0  0  0  0  0  0
  1 21  1  6  0  0  0
  1 20  1  0  0  0  0
  1 19  1  0  0  0  0
  2  7  1  0  0  0  0
  4 12  1  0  0  0  0
  5  7  1  6  0  0  0
  5 18  1  0  0  0  0
  6  9  2  0  0  0  0
  7  4  2  0  0  0  0
  9  4  1  0  0  0  0
 10 15  1  1  0  0  0
 10 14  1  0  0  0  0
 11 26  1  1  0  0  0
 11 20  1  0  0  0  0
 11  5  1  0  0  0  0
 12  8  1  0  0  0  0
 13 15  1  0  0  0  0
 14  3  1  6  0  0  0
 16  6  1  0  0  0  0
 17  6  1  0  0  0  0
 17  2  2  0  0  0  0
 18  8  1  6  0  0  0
 18 14  1  0  0  0  0
 19 13  1  0  0  0  0
 20 10  1  0  0  0  0
 21 22  2  0  0  0  0
 23 21  2  0  0  0  0
 24 25  1  0  0  0  0
 25 21  1  0  0  0  0
 27 26  1  0  0  0  0
 28 27  1  0  0  0  0
M  END
>  <MODEL>
6

>  <REMARK>
 VINA RESULT:      -6.0      2.830      6.174
  Name = 
  4 active torsions:
  status: ('A' for Active; 'I' for Inactive)
    1  A    between atoms: C_1  and  S_2
    2  A    between atoms: S_2  and  C_11
    3  A    between atoms: C_6  and  C_28
    4  A    between atoms: C_17  and  C_28
                            x       y       z     vdW  Elec       q    Type
                         _______ _______ _______ _____ _____    ______ ____

>  <TORSDO>
F 4

$$$$
=
 OpenBabel11052418133D

 28 31  0  0  1  0  0  0  0  0999 V2000
  189.0520  173.9130  142.1630 C   0  0  2  0  0  3  0  0  0  0  0  0
  193.4310  173.3750  145.5480 C   0  0  0  0  0  3  0  0  0  0  0  0
  190.2740  177.8440  145.0280 C   0  0  0  0  0  1  0  0  0  0  0  0
  194.2680  174.8050  143.7710 C   0  0  0  0  0  0  0  0  0  0  0  0
  191.8930  175.1220  144.6010 C   0  0  2  0  0  3  0  0  0  0  0  0
  195.6780  173.0680  144.7050 C   0  0  0  0  0  0  0  0  0  0  0  0
  193.2320  174.4350  144.6540 C   0  0  0  0  0  0  0  0  0  0  0  0
  192.6600  176.3570  142.6520 C   0  0  0  0  0  2  0  0  0  0  0  0
  195.4890  174.1260  143.8110 C   0  0  0  0  0  3  0  0  0  0  0  0
  189.5410  176.1810  143.3050 C   0  0  1  0  0  3  0  0  0  0  0  0
  190.8220  174.1800  144.0170 C   0  0  2  0  0  3  0  0  0  0  0  0
  194.1240  175.9860  142.8580 C   0  0  0  0  0  2  0  0  0  0  0  0
  187.5750  175.9350  141.8160 C   0  0  0  0  0  2  0  0  0  0  0  0
  190.6770  177.1130  143.7610 C   0  0  2  0  0  3  0  0  0  0  0  0
  188.7040  176.8610  142.2320 C   0  0  0  0  0  2  0  0  0  0  0  0
  196.9210  172.3770  144.7350 N   0  0  0  0  0  1  0  0  0  0  0  0
  194.6500  172.6950  145.5740 C   0  0  0  0  0  3  0  0  0  0  0  0
  191.9830  176.4530  143.9480 N   0  0  1  0  0  0  0  0  0  0  0  0
  188.1650  174.6850  141.1830 C   0  0  0  0  0  2  0  0  0  0  0  0
  190.0950  174.8320  142.8320 C   0  0  1  0  0  3  0  0  0  0  0  0
  189.8680  172.6110  141.2390 S   0  0  0  0  0  0  0  0  0  0  0  0
  189.9700  171.3860  142.1050 O   0  0  0  0  0  0  0  0  0  0  0  0
  189.0500  172.2840  140.0200 O   0  0  0  0  0  0  0  0  0  0  0  0
  192.5470  172.2930  141.4900 C   0  0  0  0  0  1  0  0  0  0  0  0
  191.5060  173.0890  140.7270 C   0  0  0  0  0  2  0  0  0  0  0  0
  189.8660  173.8050  145.1500 C   0  0  0  0  0  2  0  0  0  0  0  0
  190.1940  174.5620  146.4200 C   0  0  0  0  0  2  0  0  0  0  0  0
  188.9130  174.8850  147.1590 C   0  0  0  0  0  1  0  0  0  0  0  0
  1 21  1  6  0  0  0
  1 20  1  0  0  0  0
  2 17  1  0  0  0  0
  4  9  2  0  0  0  0
  4  7  1  0  0  0  0
  5  7  1  6  0  0  0
  6 16  1  0  0  0  0
  6 17  2  0  0  0  0
  7  2  2  0  0  0  0
  8 12  1  0  0  0  0
  9  6  1  0  0  0  0
 10 15  1  6  0  0  0
 10 14  1  0  0  0  0
 11  5  1  0  0  0  0
 11 26  1  1  0  0  0
 12  4  1  0  0  0  0
 13 15  1  0  0  0  0
 14 18  1  0  0  0  0
 14  3  1  1  0  0  0
 18  8  1  6  0  0  0
 18  5  1  0  0  0  0
 19 13  1  0  0  0  0
 19  1  1  0  0  0  0
 20 10  1  0  0  0  0
 20 11  1  0  0  0  0
 21 22  2  0  0  0  0
 23 21  2  0  0  0  0
 25 21  1  0  0  0  0
 25 24  1  0  0  0  0
 26 27  1  0  0  0  0
 27 28  1  0  0  0  0
M  END
>  <MODEL>
7

>  <REMARK>
 VINA RESULT:      -6.0      3.327      6.341
  Name = 
  4 active torsions:
  status: ('A' for Active; 'I' for Inactive)
    1  A    between atoms: C_1  and  S_2
    2  A    between atoms: S_2  and  C_11
    3  A    between atoms: C_6  and  C_28
    4  A    between atoms: C_17  and  C_28
                            x       y       z     vdW  Elec       q    Type
                         _______ _______ _______ _____ _____    ______ ____

>  <TORSDO>
F 4

$$$$
=
 OpenBabel11052418133D

 28 31  0  0  1  0  0  0  0  0999 V2000
  188.5620  174.5070  142.7600 C   0  0  2  0  0  3  0  0  0  0  0  0
  193.2290  174.0330  145.7470 C   0  0  0  0  0  3  0  0  0  0  0  0
  189.0040  177.3700  146.8540 C   0  0  0  0  0  1  0  0  0  0  0  0
  193.5060  176.1610  144.6080 C   0  0  0  0  0  0  0  0  0  0  0  0
  191.2170  175.5140  145.4850 C   0  0  2  0  0  3  0  0  0  0  0  0
  195.3920  174.6590  144.8610 C   0  0  0  0  0  0  0  0  0  0  0  0
  192.6850  175.2410  145.2930 C   0  0  0  0  0  0  0  0  0  0  0  0
  191.4590  177.5080  144.1150 C   0  0  0  0  0  2  0  0  0  0  0  0
  194.8580  175.8680  144.4070 C   0  0  0  0  0  3  0  0  0  0  0  0
  188.5630  176.2780  144.6440 C   0  0  1  0  0  3  0  0  0  0  0  0
  190.3710  174.5810  144.5950 C   0  0  2  0  0  3  0  0  0  0  0  0
  192.9820  177.5000  144.1810 C   0  0  0  0  0  2  0  0  0  0  0  0
  186.5940  176.0430  143.1570 C   0  0  0  0  0  2  0  0  0  0  0  0
  189.4610  177.2640  145.4110 C   0  0  2  0  0  3  0  0  0  0  0  0
  187.4840  177.0350  143.8840 C   0  0  0  0  0  2  0  0  0  0  0  0
  196.7670  174.3650  144.6470 N   0  0  0  0  0  1  0  0  0  0  0  0
  194.5790  173.7430  145.5320 C   0  0  0  0  0  3  0  0  0  0  0  0
  190.9040  176.9600  145.3550 N   0  0  1  0  0  0  0  0  0  0  0  0
  187.4210  175.3010  142.1190 C   0  0  0  0  0  2  0  0  0  0  0  0
  189.3950  175.3820  143.7210 C   0  0  1  0  0  3  0  0  0  0  0  0
  189.5940  173.8810  141.4330 S   0  0  0  0  0  0  0  0  0  0  0  0
  190.9420  174.5420  141.5090 O   0  0  0  0  0  0  0  0  0  0  0  0
  189.7640  172.3960  141.5980 O   0  0  0  0  0  0  0  0  0  0  0  0
  188.2650  172.9470  139.2650 C   0  0  0  0  0  1  0  0  0  0  0  0
  188.8850  174.2090  139.8320 C   0  0  0  0  0  2  0  0  0  0  0  0
  189.6520  173.5910  145.5120 C   0  0  0  0  0  2  0  0  0  0  0  0
  189.6880  172.1880  144.9430 C   0  0  0  0  0  2  0  0  0  0  0  0
  191.0710  171.9000  144.3990 C   0  0  0  0  0  1  0  0  0  0  0  0
  1 21  1  6  0  0  0
  1 20  1  0  0  0  0
  4  7  1  0  0  0  0
  5  7  1  6  0  0  0
  6 17  2  0  0  0  0
  7  2  2  0  0  0  0
  8 12  1  0  0  0  0
  9  4  2  0  0  0  0
  9  6  1  0  0  0  0
 10 15  1  6  0  0  0
 10 14  1  0  0  0  0
 11  5  1  0  0  0  0
 11 26  1  1  0  0  0
 12  4  1  0  0  0  0
 13 15  1  0  0  0  0
 14  3  1  1  0  0  0
 16  6  1  0  0  0  0
 17  2  1  0  0  0  0
 18  8  1  6  0  0  0
 18 14  1  0  0  0  0
 18  5  1  0  0  0  0
 19  1  1  0  0  0  0
 19 13  1  0  0  0  0
 20 11  1  0  0  0  0
 20 10  1  0  0  0  0
 21 22  2  0  0  0  0
 21 23  2  0  0  0  0
 24 25  1  0  0  0  0
 25 21  1  0  0  0  0
 27 26  1  0  0  0  0
 28 27  1  0  0  0  0
M  END
>  <MODEL>
8

>  <REMARK>
 VINA RESULT:      -5.8      3.161      6.160
  Name = 
  4 active torsions:
  status: ('A' for Active; 'I' for Inactive)
    1  A    between atoms: C_1  and  S_2
    2  A    between atoms: S_2  and  C_11
    3  A    between atoms: C_6  and  C_28
    4  A    between atoms: C_17  and  C_28
                            x       y       z     vdW  Elec       q    Type
                         _______ _______ _______ _____ _____    ______ ____

>  <TORSDO>
F 4

$$$$
=
 OpenBabel11052418133D

 28 31  0  0  1  0  0  0  0  0999 V2000
  193.5680  173.1840  143.9850 C   0  0  2  0  0  3  0  0  0  0  0  0
  190.3380  177.5430  142.7640 C   0  0  0  0  0  3  0  0  0  0  0  0
  194.9430  177.6680  145.7630 C   0  0  0  0  0  1  0  0  0  0  0  0
  189.8410  177.1140  145.1030 C   0  0  0  0  0  0  0  0  0  0  0  0
  192.2260  176.8710  144.2790 C   0  0  2  0  0  3  0  0  0  0  0  0
  188.0640  177.7240  143.5710 C   0  0  0  0  0  0  0  0  0  0  0  0
  190.7750  177.2020  144.0500 C   0  0  0  0  0  0  0  0  0  0  0  0
  191.6630  176.1920  146.5440 C   0  0  0  0  0  2  0  0  0  0  0  0
  188.4920  177.3880  144.8580 C   0  0  0  0  0  3  0  0  0  0  0  0
  194.4280  175.2730  145.2440 C   0  0  1  0  0  3  0  0  0  0  0  0
  192.5930  175.5380  143.5970 C   0  0  2  0  0  3  0  0  0  0  0  0
  190.2800  176.8350  146.5100 C   0  0  0  0  0  2  0  0  0  0  0  0
  195.6680  173.1320  145.3930 C   0  0  0  0  0  2  0  0  0  0  0  0
  193.9710  176.5280  146.0080 C   0  0  2  0  0  3  0  0  0  0  0  0
  195.2040  174.3500  146.1720 C   0  0  0  0  0  2  0  0  0  0  0  0
  186.6890  177.9940  143.3270 N   0  0  0  0  0  1  0  0  0  0  0  0
  188.9870  177.8040  142.5250 C   0  0  0  0  0  3  0  0  0  0  0  0
  192.5920  176.9630  145.7160 N   0  0  1  0  0  0  0  0  0  0  0  0
  194.4510  172.3520  144.9200 C   0  0  0  0  0  2  0  0  0  0  0  0
  193.2360  174.5620  144.5940 C   0  0  1  0  0  3  0  0  0  0  0  0
  192.0650  172.2510  143.6930 S   0  0  0  0  0  0  0  0  0  0  0  0
  191.7210  172.3210  142.2310 O   0  0  0  0  0  0  0  0  0  0  0  0
  192.2940  170.8140  144.0750 O   0  0  0  0  0  0  0  0  0  0  0  0
  189.6920  173.5570  143.7150 C   0  0  0  0  0  1  0  0  0  0  0  0
  190.6950  172.8910  144.6350 C   0  0  0  0  0  2  0  0  0  0  0  0
  193.5140  175.8560  142.4190 C   0  0  0  0  0  2  0  0  0  0  0  0
  193.1380  175.0520  141.1930 C   0  0  0  0  0  2  0  0  0  0  0  0
  194.2210  175.1950  140.1440 C   0  0  0  0  0  1  0  0  0  0  0  0
  1 21  1  1  0  0  0
  1 20  1  0  0  0  0
  1 19  1  0  0  0  0
  2  7  1  0  0  0  0
  4 12  1  0  0  0  0
  5  7  1  1  0  0  0
  5 18  1  0  0  0  0
  6  9  2  0  0  0  0
  7  4  2  0  0  0  0
  9  4  1  0  0  0  0
 10 14  1  0  0  0  0
 10 15  1  1  0  0  0
 11 26  1  6  0  0  0
 11  5  1  0  0  0  0
 11 20  1  0  0  0  0
 12  8  1  0  0  0  0
 13 15  1  0  0  0  0
 14  3  1  6  0  0  0
 16  6  1  0  0  0  0
 17  2  2  0  0  0  0
 17  6  1  0  0  0  0
 18 14  1  0  0  0  0
 18  8  1  1  0  0  0
 19 13  1  0  0  0  0
 20 10  1  0  0  0  0
 21 23  2  0  0  0  0
 21 25  1  0  0  0  0
 22 21  2  0  0  0  0
 24 25  1  0  0  0  0
 27 26  1  0  0  0  0
 28 27  1  0  0  0  0
M  END
>  <MODEL>
9

>  <REMARK>
 VINA RESULT:      -5.8      3.037      5.199
  Name = 
  4 active torsions:
  status: ('A' for Active; 'I' for Inactive)
    1  A    between atoms: C_1  and  S_2
    2  A    between atoms: S_2  and  C_11
    3  A    between atoms: C_6  and  C_28
    4  A    between atoms: C_17  and  C_28
                            x       y       z     vdW  Elec       q    Type
                         _______ _______ _______ _____ _____    ______ ____

>  <TORSDO>
F 4

$$$$
