=
 OpenBabel11052418233D

 27 31  0  0  1  0  0  0  0  0999 V2000
  188.0820  176.9090  143.0400 C   0  0  0  0  0  2  0  0  0  0  0  0
  188.6630  175.8940  145.3350 C   0  0  1  0  0  3  0  0  0  0  0  0
  189.4270  173.9880  144.2040 C   0  0  0  0  0  2  0  0  0  0  0  0
  192.6010  176.4940  146.9760 C   0  0  0  0  0  3  0  0  0  0  0  0
  194.0290  176.2400  144.8870 C   0  0  0  0  0  2  0  0  0  0  0  0
  188.8750  176.2030  146.8320 C   0  0  0  0  0  2  0  0  0  0  0  0
  192.1640  174.6210  144.7940 N   0  0  0  0  0  2  0  0  0  0  0  0
  190.3090  173.1040  140.6380 C   0  0  0  0  0  3  0  0  0  0  0  0
  192.8620  175.6760  144.0640 C   0  0  0  0  0  2  0  0  0  0  0  0
  189.3760  173.8450  139.9080 C   0  0  0  0  0  3  0  0  0  0  0  0
  191.0130  175.1730  145.5310 C   0  0  1  0  0  3  0  0  0  0  0  0
  188.1250  177.1120  144.5610 C   0  0  2  0  0  3  0  0  0  0  0  0
  193.7950  176.3460  146.3800 C   0  0  0  0  0  3  0  0  0  0  0  0
  191.3180  176.5280  146.2070 C   0  0  1  0  0  3  0  0  0  0  0  0
  187.4270  175.5910  142.6380 C   0  0  0  0  0  2  0  0  0  0  0  0
  189.8400  175.3110  144.6530 N   0  0  2  0  0  0  0  0  0  0  0  0
  190.3080  173.1600  142.0340 C   0  0  0  0  0  3  0  0  0  0  0  0
  190.1590  176.9960  147.0860 C   0  0  0  0  0  2  0  0  0  0  0  0
  188.4420  174.6420  140.5740 C   0  0  0  0  0  3  0  0  0  0  0  0
  188.4290  174.7000  141.9730 C   0  0  0  0  0  0  0  0  0  0  0  0
  189.3750  173.9520  142.7100 C   0  0  0  0  0  0  0  0  0  0  0  0
  184.3480  178.4370  146.0700 C   0  0  0  0  0  3  0  0  0  0  0  0
  186.7980  177.5810  145.0830 C   0  0  0  0  0  0  0  0  0  0  0  0
  186.2900  178.8490  144.7670 C   0  0  0  0  0  3  0  0  0  0  0  0
  185.0860  179.2450  145.2620 N   0  0  0  0  0  0  0  0  0  0  0  0
  184.8200  177.1670  146.4120 C   0  0  0  0  0  3  0  0  0  0  0  0
  186.0520  176.7420  145.9150 C   0  0  0  0  0  3  0  0  0  0  0  0
  1 12  1  0  0  0  0
  2  6  1  1  0  0  0
  5 13  1  0  0  0  0
  6 18  1  0  0  0  0
  8 17  1  0  0  0  0
  9  7  1  0  0  0  0
  9  5  1  0  0  0  0
 10 19  1  0  0  0  0
 10  8  2  0  0  0  0
 11  7  1  6  0  0  0
 11 14  1  0  0  0  0
 12 23  1  1  0  0  0
 12  2  1  0  0  0  0
 13  4  2  0  0  0  0
 14  4  1  1  0  0  0
 14 18  1  0  0  0  0
 15  1  1  0  0  0  0
 16  3  1  1  0  0  0
 16  2  1  0  0  0  0
 16 11  1  0  0  0  0
 17 21  2  0  0  0  0
 19 20  2  0  0  0  0
 20 15  1  0  0  0  0
 20 21  1  0  0  0  0
 21  3  1  0  0  0  0
 22 26  1  0  0  0  0
 23 27  1  0  0  0  0
 24 23  2  0  0  0  0
 24 25  1  0  0  0  0
 25 22  2  0  0  0  0
 27 26  2  0  0  0  0
M  END
>  <MODEL>
1

>  <REMARK>
 VINA RESULT:      -8.8      0.000      0.000
  Name = 
  1 active torsions:
  status: ('A' for Active; 'I' for Inactive)
    1  A    between atoms: C_9  and  C_15
                            x       y       z     vdW  Elec       q    Type
                         _______ _______ _______ _____ _____    ______ ____

>  <TORSDO>
F 1

$$$$
=
 OpenBabel11052418233D

 27 31  0  0  1  0  0  0  0  0999 V2000
  188.6330  176.0950  146.2320 C   0  0  0  0  0  2  0  0  0  0  0  0
  188.3720  176.6700  143.7340 C   0  0  1  0  0  3  0  0  0  0  0  0
  190.7040  176.8820  143.6270 C   0  0  0  0  0  2  0  0  0  0  0  0
  188.5280  173.5100  140.8110 C   0  0  0  0  0  3  0  0  0  0  0  0
  190.3910  172.0680  141.7700 C   0  0  0  0  0  2  0  0  0  0  0  0
  187.4100  176.6380  142.5280 C   0  0  0  0  0  2  0  0  0  0  0  0
  190.9480  174.4510  142.1210 N   0  0  0  0  0  2  0  0  0  0  0  0
  193.6320  175.9240  145.8140 C   0  0  0  0  0  3  0  0  0  0  0  0
  190.8170  173.1500  142.7730 C   0  0  0  0  0  2  0  0  0  0  0  0
  193.1180  176.1100  147.1000 C   0  0  0  0  0  3  0  0  0  0  0  0
  189.6980  175.2220  142.2440 C   0  0  1  0  0  3  0  0  0  0  0  0
  187.6730  176.2650  145.0460 C   0  0  2  0  0  3  0  0  0  0  0  0
  189.4150  172.5080  140.6970 C   0  0  0  0  0  3  0  0  0  0  0  0
  188.4320  174.3630  142.0360 C   0  0  1  0  0  3  0  0  0  0  0  0
  189.5900  177.2730  146.3890 C   0  0  0  0  0  2  0  0  0  0  0  0
  189.6250  175.9070  143.5440 N   0  0  2  0  0  0  0  0  0  0  0  0
  192.8350  176.1830  144.6970 C   0  0  0  0  0  3  0  0  0  0  0  0
  187.1650  175.2170  142.0170 C   0  0  0  0  0  2  0  0  0  0  0  0
  191.8040  176.5560  147.2680 C   0  0  0  0  0  3  0  0  0  0  0  0
  190.9990  176.8250  146.1550 C   0  0  0  0  0  0  0  0  0  0  0  0
  191.5200  176.6340  144.8560 C   0  0  0  0  0  0  0  0  0  0  0  0
  184.4310  178.8810  146.0160 C   0  0  0  0  0  3  0  0  0  0  0  0
  186.5350  177.1790  145.3940 C   0  0  0  0  0  0  0  0  0  0  0  0
  185.4530  176.7430  146.1720 C   0  0  0  0  0  3  0  0  0  0  0  0
  184.4350  177.5970  146.4650 N   0  0  0  0  0  0  0  0  0  0  0  0
  185.4890  179.3540  145.2360 C   0  0  0  0  0  3  0  0  0  0  0  0
  186.5430  178.4940  144.9240 C   0  0  0  0  0  3  0  0  0  0  0  0
  1 15  1  0  0  0  0
  2  6  1  6  0  0  0
  2 12  1  0  0  0  0
  3 21  1  0  0  0  0
  5  9  1  0  0  0  0
  7  9  1  0  0  0  0
  8 10  1  0  0  0  0
 10 19  2  0  0  0  0
 11  7  1  1  0  0  0
 11 16  1  0  0  0  0
 12 23  1  1  0  0  0
 12  1  1  0  0  0  0
 13  4  2  0  0  0  0
 13  5  1  0  0  0  0
 14  4  1  6  0  0  0
 14 11  1  0  0  0  0
 16  3  1  6  0  0  0
 16  2  1  0  0  0  0
 17 21  1  0  0  0  0
 17  8  2  0  0  0  0
 18 14  1  0  0  0  0
 18  6  1  0  0  0  0
 20 15  1  0  0  0  0
 20 19  1  0  0  0  0
 21 20  2  0  0  0  0
 22 25  1  0  0  0  0
 23 24  1  0  0  0  0
 24 25  2  0  0  0  0
 26 22  2  0  0  0  0
 27 26  1  0  0  0  0
 27 23  2  0  0  0  0
M  END
>  <MODEL>
2

>  <REMARK>
 VINA RESULT:      -8.7      1.197      4.749
  Name = 
  1 active torsions:
  status: ('A' for Active; 'I' for Inactive)
    1  A    between atoms: C_9  and  C_15
                            x       y       z     vdW  Elec       q    Type
                         _______ _______ _______ _____ _____    ______ ____

>  <TORSDO>
F 1

$$$$
=
 OpenBabel11052418233D

 27 31  0  0  1  0  0  0  0  0999 V2000
  187.9900  176.2040  145.4870 C   0  0  0  0  0  2  0  0  0  0  0  0
  188.6420  176.8350  143.0760 C   0  0  1  0  0  3  0  0  0  0  0  0
  190.8820  176.8210  143.7680 C   0  0  0  0  0  2  0  0  0  0  0  0
  189.5040  173.7150  140.2330 C   0  0  0  0  0  3  0  0  0  0  0  0
  190.7990  172.0860  141.6950 C   0  0  0  0  0  2  0  0  0  0  0  0
  188.1470  176.9140  141.6160 C   0  0  0  0  0  2  0  0  0  0  0  0
  191.4090  174.3980  142.3220 N   0  0  0  0  0  2  0  0  0  0  0  0
  192.8000  175.5510  146.7670 C   0  0  0  0  0  3  0  0  0  0  0  0
  190.9520  173.1070  142.8320 C   0  0  0  0  0  2  0  0  0  0  0  0
  191.8980  175.7690  147.8110 C   0  0  0  0  0  3  0  0  0  0  0  0
  190.2640  175.2850  142.0530 C   0  0  1  0  0  3  0  0  0  0  0  0
  187.5070  176.4820  144.0560 C   0  0  2  0  0  3  0  0  0  0  0  0
  190.2860  172.6330  140.3780 C   0  0  0  0  0  3  0  0  0  0  0  0
  189.0730  174.5570  141.3930 C   0  0  1  0  0  3  0  0  0  0  0  0
  188.9360  177.2800  146.0100 C   0  0  0  0  0  2  0  0  0  0  0  0
  189.8140  175.9560  143.2830 N   0  0  2  0  0  0  0  0  0  0  0  0
  192.4540  175.9020  145.4590 C   0  0  0  0  0  3  0  0  0  0  0  0
  187.9680  175.5300  140.9880 C   0  0  0  0  0  2  0  0  0  0  0  0
  190.6490  176.3390  147.5480 C   0  0  0  0  0  3  0  0  0  0  0  0
  190.2960  176.7000  146.2430 C   0  0  0  0  0  0  0  0  0  0  0  0
  191.2080  176.4770  145.1870 C   0  0  0  0  0  0  0  0  0  0  0  0
  184.3760  179.3960  144.0180 C   0  0  0  0  0  3  0  0  0  0  0  0
  186.4030  177.4980  144.0430 C   0  0  0  0  0  0  0  0  0  0  0  0
  185.1980  177.2660  143.3650 C   0  0  0  0  0  3  0  0  0  0  0  0
  184.2190  178.2100  143.3690 N   0  0  0  0  0  0  0  0  0  0  0  0
  185.5630  179.6670  144.7030 C   0  0  0  0  0  3  0  0  0  0  0  0
  186.5790  178.7110  144.7110 C   0  0  0  0  0  3  0  0  0  0  0  0
  1 15  1  0  0  0  0
  2  6  1  6  0  0  0
  2 16  1  0  0  0  0
  2 12  1  0  0  0  0
  3 21  1  0  0  0  0
  4 13  2  0  0  0  0
  5  9  1  0  0  0  0
  7  9  1  0  0  0  0
  8 10  1  0  0  0  0
 11  7  1  1  0  0  0
 11 16  1  0  0  0  0
 12 23  1  1  0  0  0
 12  1  1  0  0  0  0
 13  5  1  0  0  0  0
 14  4  1  6  0  0  0
 14 11  1  0  0  0  0
 15 20  1  0  0  0  0
 16  3  1  6  0  0  0
 17  8  2  0  0  0  0
 18 14  1  0  0  0  0
 18  6  1  0  0  0  0
 19 10  2  0  0  0  0
 20 19  1  0  0  0  0
 21 17  1  0  0  0  0
 21 20  2  0  0  0  0
 22 26  1  0  0  0  0
 23 27  1  0  0  0  0
 24 25  1  0  0  0  0
 24 23  2  0  0  0  0
 25 22  2  0  0  0  0
 26 27  2  0  0  0  0
M  END
>  <MODEL>
3

>  <REMARK>
 VINA RESULT:      -8.1      1.512      4.784
  Name = 
  1 active torsions:
  status: ('A' for Active; 'I' for Inactive)
    1  A    between atoms: C_9  and  C_15
                            x       y       z     vdW  Elec       q    Type
                         _______ _______ _______ _____ _____    ______ ____

>  <TORSDO>
F 1

$$$$
=
 OpenBabel11052418233D

 27 31  0  0  1  0  0  0  0  0999 V2000
  188.1330  176.9680  142.3780 C   0  0  0  0  0  2  0  0  0  0  0  0
  188.6560  176.0630  144.7320 C   0  0  1  0  0  3  0  0  0  0  0  0
  189.3530  174.0680  143.7180 C   0  0  0  0  0  2  0  0  0  0  0  0
  192.6010  176.6030  146.3760 C   0  0  0  0  0  3  0  0  0  0  0  0
  194.0340  176.1770  144.3190 C   0  0  0  0  0  2  0  0  0  0  0  0
  188.8680  176.4480  146.2110 C   0  0  0  0  0  2  0  0  0  0  0  0
  192.1080  174.6290  144.2990 N   0  0  0  0  0  2  0  0  0  0  0  0
  190.2280  172.9510  140.2160 C   0  0  0  0  0  3  0  0  0  0  0  0
  192.8530  175.6120  143.5170 C   0  0  0  0  0  2  0  0  0  0  0  0
  189.3310  173.6850  139.4360 C   0  0  0  0  0  3  0  0  0  0  0  0
  190.9740  175.2650  144.9920 C   0  0  1  0  0  3  0  0  0  0  0  0
  188.1710  177.2550  143.8860 C   0  0  2  0  0  3  0  0  0  0  0  0
  193.7930  176.3760  145.8020 C   0  0  0  0  0  3  0  0  0  0  0  0
  191.3260  176.6430  145.5930 C   0  0  1  0  0  3  0  0  0  0  0  0
  187.4290  175.6560  142.0440 C   0  0  0  0  0  2  0  0  0  0  0  0
  189.8140  175.3980  144.0960 N   0  0  2  0  0  0  0  0  0  0  0  0
  190.2190  173.0860  141.6060 C   0  0  0  0  0  3  0  0  0  0  0  0
  190.1800  177.2040  146.4330 C   0  0  0  0  0  2  0  0  0  0  0  0
  188.4230  174.5540  140.0480 C   0  0  0  0  0  3  0  0  0  0  0  0
  188.4010  174.6910  141.4400 C   0  0  0  0  0  0  0  0  0  0  0  0
  189.3110  173.9500  142.2270 C   0  0  0  0  0  0  0  0  0  0  0  0
  184.4270  178.8240  145.2350 C   0  0  0  0  0  3  0  0  0  0  0  0
  186.8590  177.8030  144.3670 C   0  0  0  0  0  0  0  0  0  0  0  0
  186.1620  177.2140  145.4300 C   0  0  0  0  0  3  0  0  0  0  0  0
  184.9720  177.7330  145.8380 N   0  0  0  0  0  0  0  0  0  0  0  0
  185.0890  179.4390  144.1700 C   0  0  0  0  0  3  0  0  0  0  0  0
  186.3100  178.9220  143.7360 C   0  0  0  0  0  3  0  0  0  0  0  0
  1 12  1  0  0  0  0
  2  6  1  1  0  0  0
  5 13  1  0  0  0  0
  6 18  1  0  0  0  0
  8 17  1  0  0  0  0
  9  7  1  0  0  0  0
  9  5  1  0  0  0  0
 10 19  1  0  0  0  0
 10  8  2  0  0  0  0
 11  7  1  6  0  0  0
 11 14  1  0  0  0  0
 12 23  1  1  0  0  0
 12  2  1  0  0  0  0
 13  4  2  0  0  0  0
 14  4  1  1  0  0  0
 14 18  1  0  0  0  0
 15  1  1  0  0  0  0
 16  3  1  1  0  0  0
 16  2  1  0  0  0  0
 16 11  1  0  0  0  0
 17 21  2  0  0  0  0
 19 20  2  0  0  0  0
 20 15  1  0  0  0  0
 20 21  1  0  0  0  0
 21  3  1  0  0  0  0
 22 25  1  0  0  0  0
 23 24  1  0  0  0  0
 24 25  2  0  0  0  0
 26 22  2  0  0  0  0
 27 26  1  0  0  0  0
 27 23  2  0  0  0  0
M  END
>  <MODEL>
4

>  <REMARK>
 VINA RESULT:      -8.1      0.751      1.120
  Name = 
  1 active torsions:
  status: ('A' for Active; 'I' for Inactive)
    1  A    between atoms: C_9  and  C_15
                            x       y       z     vdW  Elec       q    Type
                         _______ _______ _______ _____ _____    ______ ____

>  <TORSDO>
F 1

$$$$
=
 OpenBabel11052418233D

 27 31  0  0  1  0  0  0  0  0999 V2000
  188.8990  175.7290  142.1970 C   0  0  0  0  0  2  0  0  0  0  0  0
  189.0280  175.5600  144.7640 C   0  0  1  0  0  3  0  0  0  0  0  0
  189.6520  173.3160  144.5010 C   0  0  0  0  0  2  0  0  0  0  0  0
  192.7650  176.3630  146.7510 C   0  0  0  0  0  3  0  0  0  0  0  0
  194.4010  175.2520  145.1510 C   0  0  0  0  0  2  0  0  0  0  0  0
  189.0860  176.3670  146.0780 C   0  0  0  0  0  2  0  0  0  0  0  0
  192.3520  173.8780  145.2990 N   0  0  0  0  0  2  0  0  0  0  0  0
  190.8540  171.1360  141.6570 C   0  0  0  0  0  3  0  0  0  0  0  0
  193.2820  174.5340  144.3830 C   0  0  0  0  0  2  0  0  0  0  0  0
  190.1380  171.6440  140.5700 C   0  0  0  0  0  3  0  0  0  0  0  0
  191.2060  174.7560  145.5930 C   0  0  1  0  0  3  0  0  0  0  0  0
  188.7730  176.4600  143.5410 C   0  0  2  0  0  3  0  0  0  0  0  0
  193.9930  175.9070  146.4550 C   0  0  0  0  0  3  0  0  0  0  0  0
  191.6110  176.2300  145.8080 C   0  0  1  0  0  3  0  0  0  0  0  0
  188.1200  174.4170  142.1630 C   0  0  0  0  0  2  0  0  0  0  0  0
  190.1880  174.6710  144.5350 N   0  0  2  0  0  0  0  0  0  0  0  0
  190.6800  171.6900  142.9280 C   0  0  0  0  0  3  0  0  0  0  0  0
  190.4260  177.0820  146.2620 C   0  0  0  0  0  2  0  0  0  0  0  0
  189.2480  172.7050  140.7540 C   0  0  0  0  0  3  0  0  0  0  0  0
  189.0630  173.2630  142.0240 C   0  0  0  0  0  0  0  0  0  0  0  0
  189.7890  172.7500  143.1230 C   0  0  0  0  0  0  0  0  0  0  0  0
  185.0590  178.5640  143.8360 C   0  0  0  0  0  3  0  0  0  0  0  0
  187.4700  177.2000  143.6360 C   0  0  0  0  0  0  0  0  0  0  0  0
  187.1980  178.3170  142.8340 C   0  0  0  0  0  3  0  0  0  0  0  0
  186.0090  178.9680  142.9500 N   0  0  0  0  0  0  0  0  0  0  0  0
  185.2920  177.4560  144.6550 C   0  0  0  0  0  3  0  0  0  0  0  0
  186.5050  176.7750  144.5520 C   0  0  0  0  0  3  0  0  0  0  0  0
  1 12  1  0  0  0  0
  2  6  1  1  0  0  0
  5 13  1  0  0  0  0
  6 18  1  0  0  0  0
  8 17  1  0  0  0  0
  9  5  1  0  0  0  0
  9  7  1  0  0  0  0
 10 19  1  0  0  0  0
 10  8  2  0  0  0  0
 11  7  1  6  0  0  0
 11 14  1  0  0  0  0
 12 23  1  1  0  0  0
 12  2  1  0  0  0  0
 13  4  2  0  0  0  0
 14 18  1  1  0  0  0
 14  4  1  0  0  0  0
 15  1  1  0  0  0  0
 16  3  1  1  0  0  0
 16  2  1  0  0  0  0
 16 11  1  0  0  0  0
 17 21  2  0  0  0  0
 19 20  2  0  0  0  0
 20 15  1  0  0  0  0
 20 21  1  0  0  0  0
 21  3  1  0  0  0  0
 22 26  1  0  0  0  0
 23 27  1  0  0  0  0
 24 25  1  0  0  0  0
 24 23  2  0  0  0  0
 25 22  2  0  0  0  0
 27 26  2  0  0  0  0
M  END
>  <MODEL>
5

>  <REMARK>
 VINA RESULT:      -7.7      1.212      1.515
  Name = 
  1 active torsions:
  status: ('A' for Active; 'I' for Inactive)
    1  A    between atoms: C_9  and  C_15
                            x       y       z     vdW  Elec       q    Type
                         _______ _______ _______ _____ _____    ______ ____

>  <TORSDO>
F 1

$$$$
=
 OpenBabel11052418233D

 27 31  0  0  1  0  0  0  0  0999 V2000
  187.3540  174.6430  142.6330 C   0  0  0  0  0  2  0  0  0  0  0  0
  189.7830  175.4860  142.4780 C   0  0  1  0  0  3  0  0  0  0  0  0
  189.0490  177.5130  143.4000 C   0  0  0  0  0  2  0  0  0  0  0  0
  192.4340  174.9240  145.8270 C   0  0  0  0  0  3  0  0  0  0  0  0
  190.8600  175.4150  147.7640 C   0  0  0  0  0  2  0  0  0  0  0  0
  191.2530  175.0620  142.2810 C   0  0  0  0  0  2  0  0  0  0  0  0
  190.3510  176.9520  145.8970 N   0  0  0  0  0  2  0  0  0  0  0  0
  185.9510  178.7300  145.1880 C   0  0  0  0  0  3  0  0  0  0  0  0
  189.7790  175.9940  146.8410 C   0  0  0  0  0  2  0  0  0  0  0  0
  184.9370  178.0130  144.5490 C   0  0  0  0  0  3  0  0  0  0  0  0
  190.6890  176.2900  144.6250 C   0  0  1  0  0  3  0  0  0  0  0  0
  188.8060  174.3150  142.2590 C   0  0  2  0  0  3  0  0  0  0  0  0
  192.2140  175.1740  147.1280 C   0  0  0  0  0  3  0  0  0  0  0  0
  191.3300  174.8990  144.8170 C   0  0  1  0  0  3  0  0  0  0  0  0
  186.8730  175.9600  142.0310 C   0  0  0  0  0  2  0  0  0  0  0  0
  189.5060  176.1760  143.7570 N   0  0  2  0  0  0  0  0  0  0  0  0
  187.2820  178.5580  144.8000 C   0  0  0  0  0  3  0  0  0  0  0  0
  191.8080  174.3080  143.4910 C   0  0  0  0  0  2  0  0  0  0  0  0
  185.2530  177.1230  143.5200 C   0  0  0  0  0  3  0  0  0  0  0  0
  186.5830  176.9470  143.1180 C   0  0  0  0  0  0  0  0  0  0  0  0
  187.6080  177.6720  143.7680 C   0  0  0  0  0  0  0  0  0  0  0  0
  189.0660  172.7160  138.3000 C   0  0  0  0  0  3  0  0  0  0  0  0
  188.8950  173.7460  140.8730 C   0  0  0  0  0  0  0  0  0  0  0  0
  189.4120  172.4650  140.6360 C   0  0  0  0  0  3  0  0  0  0  0  0
  189.4840  171.9820  139.3670 N   0  0  0  0  0  0  0  0  0  0  0  0
  188.5480  173.9990  138.4940 C   0  0  0  0  0  3  0  0  0  0  0  0
  188.4650  174.5130  139.7880 C   0  0  0  0  0  3  0  0  0  0  0  0
  2  6  1  1  0  0  0
  2 16  1  0  0  0  0
  3 21  1  0  0  0  0
  4 13  2  0  0  0  0
  6 18  1  0  0  0  0
  7  9  1  0  0  0  0
  9  5  1  0  0  0  0
 10  8  2  0  0  0  0
 11 14  1  0  0  0  0
 11  7  1  1  0  0  0
 12 23  1  6  0  0  0
 12  2  1  0  0  0  0
 12  1  1  0  0  0  0
 13  5  1  0  0  0  0
 14 18  1  6  0  0  0
 14  4  1  0  0  0  0
 15  1  1  0  0  0  0
 15 20  1  0  0  0  0
 16  3  1  6  0  0  0
 16 11  1  0  0  0  0
 17  8  1  0  0  0  0
 19 10  1  0  0  0  0
 20 19  2  0  0  0  0
 20 21  1  0  0  0  0
 21 17  2  0  0  0  0
 22 26  2  0  0  0  0
 22 25  1  0  0  0  0
 24 23  1  0  0  0  0
 25 24  2  0  0  0  0
 26 27  1  0  0  0  0
 27 23  2  0  0  0  0
M  END
>  <MODEL>
6

>  <REMARK>
 VINA RESULT:      -7.5      1.872      5.600
  Name = 
  1 active torsions:
  status: ('A' for Active; 'I' for Inactive)
    1  A    between atoms: C_9  and  C_15
                            x       y       z     vdW  Elec       q    Type
                         _______ _______ _______ _____ _____    ______ ____

>  <TORSDO>
F 1

$$$$
=
 OpenBabel11052418233D

 27 31  0  0  1  0  0  0  0  0999 V2000
  188.5590  174.4740  142.8070 C   0  0  0  0  0  2  0  0  0  0  0  0
  189.3770  176.2210  144.5130 C   0  0  1  0  0  3  0  0  0  0  0  0
  188.5050  177.8810  143.1050 C   0  0  0  0  0  2  0  0  0  0  0  0
  186.7290  177.5050  147.6600 C   0  0  0  0  0  3  0  0  0  0  0  0
  184.5260  177.6470  146.3970 C   0  0  0  0  0  2  0  0  0  0  0  0
  189.8810  176.4340  145.9560 C   0  0  0  0  0  2  0  0  0  0  0  0
  186.3540  178.4250  144.9270 N   0  0  0  0  0  2  0  0  0  0  0  0
  186.1470  177.9880  140.1540 C   0  0  0  0  0  3  0  0  0  0  0  0
  185.2120  177.5190  145.0300 C   0  0  0  0  0  2  0  0  0  0  0  0
  186.4500  176.7980  139.4870 C   0  0  0  0  0  3  0  0  0  0  0  0
  187.6010  177.7360  145.3060 C   0  0  1  0  0  3  0  0  0  0  0  0
  189.2390  174.7290  144.1590 C   0  0  2  0  0  3  0  0  0  0  0  0
  185.4450  177.8850  147.5790 C   0  0  0  0  0  3  0  0  0  0  0  0
  187.4360  176.8160  146.5350 C   0  0  1  0  0  3  0  0  0  0  0  0
  189.1510  175.3160  141.6800 C   0  0  0  0  0  2  0  0  0  0  0  0
  188.1410  176.9630  144.1770 N   0  0  2  0  0  0  0  0  0  0  0  0
  186.8270  178.3250  141.3270 C   0  0  0  0  0  3  0  0  0  0  0  0
  188.7740  176.2390  146.9940 C   0  0  0  0  0  2  0  0  0  0  0  0
  187.4340  175.9450  139.9930 C   0  0  0  0  0  3  0  0  0  0  0  0
  188.1260  176.2770  141.1640 C   0  0  0  0  0  0  0  0  0  0  0  0
  187.8170  177.4800  141.8380 C   0  0  0  0  0  0  0  0  0  0  0  0
  192.9670  172.6520  144.4550 C   0  0  0  0  0  3  0  0  0  0  0  0
  190.5430  173.9940  144.2580 C   0  0  0  0  0  0  0  0  0  0  0  0
  190.5940  172.5970  144.3620 C   0  0  0  0  0  3  0  0  0  0  0  0
  191.7940  171.9620  144.4560 N   0  0  0  0  0  0  0  0  0  0  0  0
  192.9590  174.0450  144.3560 C   0  0  0  0  0  3  0  0  0  0  0  0
  191.7390  174.7150  144.2590 C   0  0  0  0  0  3  0  0  0  0  0  0
  1 12  1  0  0  0  0
  2  6  1  1  0  0  0
  5 13  1  0  0  0  0
  6 18  1  0  0  0  0
  7  9  1  0  0  0  0
  8 17  1  0  0  0  0
  9  5  1  0  0  0  0
 10 19  1  0  0  0  0
 10  8  2  0  0  0  0
 11  7  1  6  0  0  0
 11 14  1  0  0  0  0
 12 23  1  6  0  0  0
 12  2  1  0  0  0  0
 13  4  2  0  0  0  0
 14 18  1  1  0  0  0
 14  4  1  0  0  0  0
 15  1  1  0  0  0  0
 16  3  1  6  0  0  0
 16  2  1  0  0  0  0
 16 11  1  0  0  0  0
 17 21  2  0  0  0  0
 19 20  2  0  0  0  0
 20 15  1  0  0  0  0
 20 21  1  0  0  0  0
 21  3  1  0  0  0  0
 22 25  1  0  0  0  0
 23 27  2  0  0  0  0
 23 24  1  0  0  0  0
 24 25  2  0  0  0  0
 26 22  2  0  0  0  0
 27 26  1  0  0  0  0
M  END
>  <MODEL>
7

>  <REMARK>
 VINA RESULT:      -7.4      1.828      5.864
  Name = 
  1 active torsions:
  status: ('A' for Active; 'I' for Inactive)
    1  A    between atoms: C_9  and  C_15
                            x       y       z     vdW  Elec       q    Type
                         _______ _______ _______ _____ _____    ______ ____

>  <TORSDO>
F 1

$$$$
=
 OpenBabel11052418233D

 27 31  0  0  1  0  0  0  0  0999 V2000
  188.2830  173.9290  142.3740 C   0  0  0  0  0  2  0  0  0  0  0  0
  190.6230  174.9300  141.9790 C   0  0  1  0  0  3  0  0  0  0  0  0
  189.8030  176.9610  142.8150 C   0  0  0  0  0  2  0  0  0  0  0  0
  193.5390  174.8050  145.1480 C   0  0  0  0  0  3  0  0  0  0  0  0
  192.0730  175.3220  147.1610 C   0  0  0  0  0  2  0  0  0  0  0  0
  192.1040  174.5990  141.7000 C   0  0  0  0  0  2  0  0  0  0  0  0
  191.3160  176.6790  145.2390 N   0  0  0  0  0  2  0  0  0  0  0  0
  186.7540  178.0810  144.7470 C   0  0  0  0  0  3  0  0  0  0  0  0
  190.8880  175.7540  146.2850 C   0  0  0  0  0  2  0  0  0  0  0  0
  185.7550  177.2480  144.2360 C   0  0  0  0  0  3  0  0  0  0  0  0
  191.6140  175.9520  143.9920 C   0  0  1  0  0  3  0  0  0  0  0  0
  189.7260  173.6800  141.9150 C   0  0  2  0  0  3  0  0  0  0  0  0
  193.3930  175.1330  146.4420 C   0  0  0  0  0  3  0  0  0  0  0  0
  192.3710  174.6270  144.2280 C   0  0  1  0  0  3  0  0  0  0  0  0
  187.6610  175.1610  141.7230 C   0  0  0  0  0  2  0  0  0  0  0  0
  190.3850  175.6900  143.2260 N   0  0  2  0  0  0  0  0  0  0  0  0
  188.0630  177.9760  144.2710 C   0  0  0  0  0  3  0  0  0  0  0  0
  192.7990  173.9770  142.9130 C   0  0  0  0  0  2  0  0  0  0  0  0
  186.0660  176.3100  143.2480 C   0  0  0  0  0  3  0  0  0  0  0  0
  187.3730  176.2010  142.7600 C   0  0  0  0  0  0  0  0  0  0  0  0
  188.3830  177.0430  143.2800 C   0  0  0  0  0  0  0  0  0  0  0  0
  189.8320  171.8180  138.0650 C   0  0  0  0  0  3  0  0  0  0  0  0
  189.7610  173.0190  140.5670 C   0  0  0  0  0  0  0  0  0  0  0  0
  190.1600  171.6840  140.4130 C   0  0  0  0  0  3  0  0  0  0  0  0
  190.1860  171.1180  139.1760 N   0  0  0  0  0  0  0  0  0  0  0  0
  189.4310  173.1510  138.1750 C   0  0  0  0  0  3  0  0  0  0  0  0
  189.3980  173.7510  139.4350 C   0  0  0  0  0  3  0  0  0  0  0  0
  2  6  1  1  0  0  0
  2 16  1  0  0  0  0
  3 21  1  0  0  0  0
  4 13  2  0  0  0  0
  6 18  1  0  0  0  0
  7  9  1  0  0  0  0
  9  5  1  0  0  0  0
 10  8  2  0  0  0  0
 11 14  1  0  0  0  0
 11  7  1  1  0  0  0
 12 23  1  6  0  0  0
 12  2  1  0  0  0  0
 12  1  1  0  0  0  0
 13  5  1  0  0  0  0
 14 18  1  6  0  0  0
 14  4  1  0  0  0  0
 15  1  1  0  0  0  0
 15 20  1  0  0  0  0
 16  3  1  6  0  0  0
 16 11  1  0  0  0  0
 17  8  1  0  0  0  0
 19 10  1  0  0  0  0
 20 19  2  0  0  0  0
 20 21  1  0  0  0  0
 21 17  2  0  0  0  0
 22 26  2  0  0  0  0
 22 25  1  0  0  0  0
 24 23  1  0  0  0  0
 25 24  2  0  0  0  0
 26 27  1  0  0  0  0
 27 23  2  0  0  0  0
M  END
>  <MODEL>
8

>  <REMARK>
 VINA RESULT:      -7.3      1.946      5.804
  Name = 
  1 active torsions:
  status: ('A' for Active; 'I' for Inactive)
    1  A    between atoms: C_9  and  C_15
                            x       y       z     vdW  Elec       q    Type
                         _______ _______ _______ _____ _____    ______ ____

>  <TORSDO>
F 1

$$$$
=
 OpenBabel11052418233D

 27 31  0  0  1  0  0  0  0  0999 V2000
  189.5410  177.3870  142.7140 C   0  0  0  0  0  2  0  0  0  0  0  0
  187.4790  176.1280  143.6070 C   0  0  1  0  0  3  0  0  0  0  0  0
  188.8390  175.2920  145.3240 C   0  0  0  0  0  2  0  0  0  0  0  0
  184.9510  178.0220  146.5370 C   0  0  0  0  0  3  0  0  0  0  0  0
  186.6920  179.1560  148.0030 C   0  0  0  0  0  2  0  0  0  0  0  0
  185.9410  176.0190  143.5380 C   0  0  0  0  0  2  0  0  0  0  0  0
  187.5530  176.9560  147.2780 N   0  0  0  0  0  2  0  0  0  0  0  0
  192.2450  176.1050  146.7450 C   0  0  0  0  0  3  0  0  0  0  0  0
  187.8510  178.3840  147.3580 C   0  0  0  0  0  2  0  0  0  0  0  0
  192.9600  176.4840  145.6060 C   0  0  0  0  0  3  0  0  0  0  0  0
  186.9670  176.6200  145.9680 C   0  0  1  0  0  3  0  0  0  0  0  0
  188.0410  177.1020  142.5540 C   0  0  2  0  0  3  0  0  0  0  0  0
  185.2990  178.6660  147.6620 C   0  0  0  0  0  3  0  0  0  0  0  0
  185.9430  177.6650  145.4750 C   0  0  1  0  0  3  0  0  0  0  0  0
  190.3700  176.1160  142.8750 C   0  0  0  0  0  2  0  0  0  0  0  0
  188.0150  176.4350  144.9520 N   0  0  2  0  0  0  0  0  0  0  0  0
  190.9070  175.7170  146.6340 C   0  0  0  0  0  3  0  0  0  0  0  0
  185.2430  177.2120  144.1950 C   0  0  0  0  0  2  0  0  0  0  0  0
  192.3370  176.4750  144.3550 C   0  0  0  0  0  3  0  0  0  0  0  0
  191.0000  176.0820  144.2320 C   0  0  0  0  0  0  0  0  0  0  0  0
  190.2770  175.7010  145.3860 C   0  0  0  0  0  0  0  0  0  0  0  0
  187.1160  175.9190  138.5490 C   0  0  0  0  0  3  0  0  0  0  0  0
  187.7150  176.6780  141.1520 C   0  0  0  0  0  0  0  0  0  0  0  0
  188.1250  175.4380  140.6440 C   0  0  0  0  0  3  0  0  0  0  0  0
  187.8180  175.0880  139.3660 N   0  0  0  0  0  0  0  0  0  0  0  0
  186.6910  177.1650  139.0160 C   0  0  0  0  0  3  0  0  0  0  0  0
  186.9960  177.5430  140.3240 C   0  0  0  0  0  3  0  0  0  0  0  0
  1 15  1  0  0  0  0
  2  6  1  1  0  0  0
  2 16  1  0  0  0  0
  3 21  1  0  0  0  0
  4 13  2  0  0  0  0
  6 18  1  0  0  0  0
  7  9  1  0  0  0  0
  9  5  1  0  0  0  0
 10  8  2  0  0  0  0
 11  7  1  1  0  0  0
 12 23  1  6  0  0  0
 12  1  1  0  0  0  0
 12  2  1  0  0  0  0
 13  5  1  0  0  0  0
 14 18  1  6  0  0  0
 14 11  1  0  0  0  0
 14  4  1  0  0  0  0
 15 20  1  0  0  0  0
 16  3  1  1  0  0  0
 16 11  1  0  0  0  0
 17  8  1  0  0  0  0
 19 10  1  0  0  0  0
 20 19  2  0  0  0  0
 20 21  1  0  0  0  0
 21 17  2  0  0  0  0
 22 26  2  0  0  0  0
 22 25  1  0  0  0  0
 24 23  1  0  0  0  0
 25 24  2  0  0  0  0
 26 27  1  0  0  0  0
 27 23  2  0  0  0  0
M  END
>  <MODEL>
9

>  <REMARK>
 VINA RESULT:      -7.2      2.191      5.696
  Name = 
  1 active torsions:
  status: ('A' for Active; 'I' for Inactive)
    1  A    between atoms: C_9  and  C_15
                            x       y       z     vdW  Elec       q    Type
                         _______ _______ _______ _____ _____    ______ ____

>  <TORSDO>
F 1

$$$$
