=
 OpenBabel11052418213D

 27 31  0  0  1  0  0  0  0  0999 V2000
  190.5880  173.3050  144.4780 C   0  0  2  0  0  0  0  0  0  0  0  0
  189.4530  175.2460  145.5960 C   0  0  0  0  0  0  0  0  0  0  0  0
  188.7450  174.5000  143.4150 O   0  0  0  0  0  0  0  0  0  0  0  0
  186.2960  178.2040  145.5260 C   0  0  0  0  0  2  0  0  0  0  0  0
  184.7390  179.6680  144.2650 C   0  0  0  0  0  1  0  0  0  0  0  0
  188.9990  175.7780  146.7420 C   0  0  0  0  0  3  0  0  0  0  0  0
  187.2980  177.1110  142.9940 C   0  0  0  0  0  2  0  0  0  0  0  0
  190.0660  173.9000  140.7070 C   0  0  0  0  0  1  0  0  0  0  0  0
  185.9900  177.8910  143.0650 C   0  0  0  0  0  2  0  0  0  0  0  0
  191.2990  172.1480  141.9790 C   0  0  0  0  0  2  0  0  0  0  0  0
  188.8920  175.6380  144.2340 C   0  0  1  0  0  3  0  0  0  0  0  0
  190.6780  174.3640  145.6070 C   0  0  2  0  0  3  0  0  0  0  0  0
  186.0480  178.9110  144.1970 C   0  0  2  0  0  3  0  0  0  0  0  0
  187.6000  177.4140  145.4720 C   0  0  2  0  0  3  0  0  0  0  0  0
  189.6270  172.2130  144.9350 C   0  0  0  0  0  1  0  0  0  0  0  0
  187.5650  176.3980  144.3190 C   0  0  1  0  0  3  0  0  0  0  0  0
  190.0690  173.0640  141.9730 C   0  0  1  0  0  3  0  0  0  0  0  0
  187.7880  176.6680  146.7860 C   0  0  0  0  0  2  0  0  0  0  0  0
  192.3640  172.7040  142.8120 N   0  0  0  0  0  2  0  0  0  0  0  0
  191.9500  172.6230  144.2170 C   0  0  0  0  0  2  0  0  0  0  0  0
  190.0380  173.9860  143.1950 C   0  0  2  0  0  3  0  0  0  0  0  0
  194.2860  176.7200  145.5640 C   0  0  0  0  0  3  0  0  0  0  0  0
  191.9330  175.1990  145.5760 C   0  0  0  0  0  0  0  0  0  0  0  0
  192.1260  176.1960  144.6070 C   0  0  0  0  0  3  0  0  0  0  0  0
  193.3010  176.9540  144.6020 C   0  0  0  0  0  3  0  0  0  0  0  0
  194.0970  175.7290  146.5330 C   0  0  0  0  0  3  0  0  0  0  0  0
  192.9220  174.9710  146.5370 C   0  0  0  0  0  3  0  0  0  0  0  0
  1 15  1  1  0  0  0
  1 12  1  0  0  0  0
  2 12  1  0  0  0  0
  2  6  2  0  0  0  0
  6 18  1  0  0  0  0
  7  9  1  0  0  0  0
  9 13  1  0  0  0  0
 10 19  1  0  0  0  0
 11  3  1  6  0  0  0
 11 16  1  0  0  0  0
 11  2  1  0  0  0  0
 12 23  1  6  0  0  0
 13  5  1  1  0  0  0
 13  4  1  0  0  0  0
 14  4  1  1  0  0  0
 14 18  1  0  0  0  0
 16  7  1  6  0  0  0
 16 14  1  0  0  0  0
 17  8  1  6  0  0  0
 17 10  1  0  0  0  0
 17 21  1  0  0  0  0
 19 20  1  0  0  0  0
 20  1  1  0  0  0  0
 21  3  1  1  0  0  0
 21  1  1  0  0  0  0
 22 26  1  0  0  0  0
 23 27  1  0  0  0  0
 24 23  2  0  0  0  0
 25 24  1  0  0  0  0
 25 22  2  0  0  0  0
 26 27  2  0  0  0  0
M  END
>  <MODEL>
1

>  <REMARK>
 VINA RESULT:      -8.7      0.000      0.000
  Name = 
  1 active torsions:
  status: ('A' for Active; 'I' for Inactive)
    1  A    between atoms: C_9  and  C_15
                            x       y       z     vdW  Elec       q    Type
                         _______ _______ _______ _____ _____    ______ ____

>  <TORSDO>
F 1

$$$$
=
 OpenBabel11052418213D

 27 31  0  0  1  0  0  0  0  0999 V2000
  191.7250  176.0590  144.2450 C   0  0  2  0  0  0  0  0  0  0  0  0
  189.4140  176.6130  143.4360 C   0  0  0  0  0  0  0  0  0  0  0  0
  190.0370  177.0020  145.7330 O   0  0  0  0  0  0  0  0  0  0  0  0
  185.5240  178.3080  144.2830 C   0  0  0  0  0  2  0  0  0  0  0  0
  183.7090  178.8470  145.8870 C   0  0  0  0  0  1  0  0  0  0  0  0
  188.6550  177.0960  142.4390 C   0  0  0  0  0  3  0  0  0  0  0  0
  187.1250  177.2130  146.4850 C   0  0  0  0  0  2  0  0  0  0  0  0
  191.3140  175.3930  148.0170 C   0  0  0  0  0  1  0  0  0  0  0  0
  185.9170  178.1060  146.7440 C   0  0  0  0  0  2  0  0  0  0  0  0
  193.2770  175.2560  146.4890 C   0  0  0  0  0  2  0  0  0  0  0  0
  188.9640  176.6400  144.8920 C   0  0  1  0  0  3  0  0  0  0  0  0
  190.6780  175.8520  143.1200 C   0  0  2  0  0  3  0  0  0  0  0  0
  184.8950  177.9440  145.6250 C   0  0  2  0  0  3  0  0  0  0  0  0
  186.7380  177.4260  144.0090 C   0  0  2  0  0  3  0  0  0  0  0  0
  192.3450  177.4390  144.0600 C   0  0  0  0  0  1  0  0  0  0  0  0
  187.7680  177.5620  145.1430 C   0  0  1  0  0  3  0  0  0  0  0  0
  191.9780  176.0100  146.8020 C   0  0  1  0  0  3  0  0  0  0  0  0
  187.3830  177.8550  142.6980 C   0  0  0  0  0  2  0  0  0  0  0  0
  193.0780  174.2950  145.4060 N   0  0  0  0  0  2  0  0  0  0  0  0
  192.8790  175.0340  144.1550 C   0  0  0  0  0  2  0  0  0  0  0  0
  191.0060  175.9850  145.6190 C   0  0  2  0  0  3  0  0  0  0  0  0
  189.8170  171.7290  142.2130 C   0  0  0  0  0  3  0  0  0  0  0  0
  190.3670  174.4080  142.8210 C   0  0  0  0  0  0  0  0  0  0  0  0
  189.6580  173.6070  143.7300 C   0  0  0  0  0  3  0  0  0  0  0  0
  189.3850  172.2700  143.4260 C   0  0  0  0  0  3  0  0  0  0  0  0
  190.5210  172.5230  141.3030 C   0  0  0  0  0  3  0  0  0  0  0  0
  190.7950  173.8600  141.6070 C   0  0  0  0  0  3  0  0  0  0  0  0
  1 15  1  6  0  0  0
  1 21  1  0  0  0  0
  4 13  1  0  0  0  0
  6 18  1  0  0  0  0
  6  2  2  0  0  0  0
  7  9  1  0  0  0  0
 10 17  1  0  0  0  0
 11  2  1  6  0  0  0
 11 16  1  0  0  0  0
 11  3  1  0  0  0  0
 12 23  1  1  0  0  0
 12  2  1  0  0  0  0
 12  1  1  0  0  0  0
 13  5  1  1  0  0  0
 13  9  1  0  0  0  0
 14 18  1  6  0  0  0
 14  4  1  0  0  0  0
 14 16  1  0  0  0  0
 16  7  1  1  0  0  0
 17  8  1  1  0  0  0
 19 10  1  0  0  0  0
 20  1  1  0  0  0  0
 20 19  1  0  0  0  0
 21  3  1  1  0  0  0
 21 17  1  0  0  0  0
 22 25  1  0  0  0  0
 23 24  1  0  0  0  0
 25 24  2  0  0  0  0
 26 27  1  0  0  0  0
 26 22  2  0  0  0  0
 27 23  2  0  0  0  0
M  END
>  <MODEL>
2

>  <REMARK>
 VINA RESULT:      -8.6      1.570      4.337
  Name = 
  1 active torsions:
  status: ('A' for Active; 'I' for Inactive)
    1  A    between atoms: C_9  and  C_15
                            x       y       z     vdW  Elec       q    Type
                         _______ _______ _______ _____ _____    ______ ____

>  <TORSDO>
F 1

$$$$
=
 OpenBabel11052418213D

 27 31  0  0  1  0  0  0  0  0999 V2000
  189.9820  173.0290  142.9450 C   0  0  2  0  0  0  0  0  0  0  0  0
  189.2780  174.9260  144.4300 C   0  0  0  0  0  0  0  0  0  0  0  0
  188.0810  174.4540  142.3910 O   0  0  0  0  0  0  0  0  0  0  0  0
  186.4570  178.0990  145.2640 C   0  0  0  0  0  2  0  0  0  0  0  0
  184.8200  179.7910  144.4790 C   0  0  0  0  0  1  0  0  0  0  0  0
  189.1140  175.3730  145.6860 C   0  0  0  0  0  3  0  0  0  0  0  0
  186.8260  177.1930  142.4970 C   0  0  0  0  0  2  0  0  0  0  0  0
  188.7720  174.0320  139.4270 C   0  0  0  0  0  1  0  0  0  0  0  0
  185.6360  178.0560  142.9020 C   0  0  0  0  0  2  0  0  0  0  0  0
  190.0680  172.0760  140.2660 C   0  0  0  0  0  2  0  0  0  0  0  0
  188.4930  175.4920  143.2530 C   0  0  1  0  0  3  0  0  0  0  0  0
  190.3940  173.9600  144.1140 C   0  0  2  0  0  3  0  0  0  0  0  0
  186.0140  178.9510  144.0780 C   0  0  2  0  0  3  0  0  0  0  0  0
  187.6450  177.2250  144.8740 C   0  0  2  0  0  3  0  0  0  0  0  0
  189.0360  171.9700  143.5000 C   0  0  0  0  0  1  0  0  0  0  0  0
  187.2860  176.3340  143.6740 C   0  0  1  0  0  3  0  0  0  0  0  0
  188.9510  173.0760  140.5910 C   0  0  1  0  0  3  0  0  0  0  0  0
  188.0240  176.3400  146.0540 C   0  0  0  0  0  2  0  0  0  0  0  0
  191.3250  172.4680  140.9020 N   0  0  0  0  0  2  0  0  0  0  0  0
  191.1950  172.2780  142.3500 C   0  0  0  0  0  2  0  0  0  0  0  0
  189.2510  173.8720  141.8650 C   0  0  2  0  0  3  0  0  0  0  0  0
  194.1200  176.0410  143.5170 C   0  0  0  0  0  3  0  0  0  0  0  0
  191.6880  174.7000  143.8910 C   0  0  0  0  0  0  0  0  0  0  0  0
  191.7900  175.7310  142.9420 C   0  0  0  0  0  3  0  0  0  0  0  0
  193.0040  176.3980  142.7570 C   0  0  0  0  0  3  0  0  0  0  0  0
  194.0230  175.0170  144.4640 C   0  0  0  0  0  3  0  0  0  0  0  0
  192.8090  174.3490  144.6500 C   0  0  0  0  0  3  0  0  0  0  0  0
  1 15  1  1  0  0  0
  1 12  1  0  0  0  0
  2  6  2  0  0  0  0
  6 18  1  0  0  0  0
  7  9  1  0  0  0  0
  9 13  1  0  0  0  0
 10 17  1  0  0  0  0
 10 19  1  0  0  0  0
 11  3  1  6  0  0  0
 11 16  1  0  0  0  0
 11  2  1  0  0  0  0
 12 23  1  6  0  0  0
 12  2  1  0  0  0  0
 13  5  1  1  0  0  0
 13  4  1  0  0  0  0
 14  4  1  1  0  0  0
 14 18  1  0  0  0  0
 16  7  1  6  0  0  0
 16 14  1  0  0  0  0
 17  8  1  6  0  0  0
 17 21  1  0  0  0  0
 19 20  1  0  0  0  0
 20  1  1  0  0  0  0
 21  3  1  1  0  0  0
 21  1  1  0  0  0  0
 22 26  1  0  0  0  0
 23 27  1  0  0  0  0
 24 23  2  0  0  0  0
 25 24  1  0  0  0  0
 25 22  2  0  0  0  0
 26 27  2  0  0  0  0
M  END
>  <MODEL>
3

>  <REMARK>
 VINA RESULT:      -7.8      1.294      1.508
  Name = 
  1 active torsions:
  status: ('A' for Active; 'I' for Inactive)
    1  A    between atoms: C_9  and  C_15
                            x       y       z     vdW  Elec       q    Type
                         _______ _______ _______ _____ _____    ______ ____

>  <TORSDO>
F 1

$$$$
=
 OpenBabel11052418213D

 27 31  0  0  1  0  0  0  0  0999 V2000
  189.5870  176.9420  143.7940 C   0  0  2  0  0  0  0  0  0  0  0  0
  187.9380  177.0950  141.9060 C   0  0  0  0  0  0  0  0  0  0  0  0
  187.3480  177.8560  144.1170 O   0  0  0  0  0  0  0  0  0  0  0  0
  184.0560  178.3930  140.5040 C   0  0  0  0  0  2  0  0  0  0  0  0
  181.6680  178.9080  140.9380 C   0  0  0  0  0  1  0  0  0  0  0  0
  187.7390  177.3450  140.6020 C   0  0  0  0  0  3  0  0  0  0  0  0
  184.4310  177.8020  143.3540 C   0  0  0  0  0  2  0  0  0  0  0  0
  187.4230  176.7310  146.9750 C   0  0  0  0  0  1  0  0  0  0  0  0
  183.2120  178.5660  142.8510 C   0  0  0  0  0  2  0  0  0  0  0  0
  189.8860  176.6380  146.6060 C   0  0  0  0  0  2  0  0  0  0  0  0
  186.8370  177.2570  142.9470 C   0  0  1  0  0  3  0  0  0  0  0  0
  189.2290  176.4610  142.3630 C   0  0  2  0  0  3  0  0  0  0  0  0
  182.8710  178.1330  141.4300 C   0  0  2  0  0  3  0  0  0  0  0  0
  185.2880  177.6390  140.9950 C   0  0  2  0  0  3  0  0  0  0  0  0
  190.1560  178.3520  143.6860 C   0  0  0  0  0  1  0  0  0  0  0  0
  185.6290  178.0490  142.4370 C   0  0  1  0  0  3  0  0  0  0  0  0
  188.5660  177.2610  146.1310 C   0  0  1  0  0  3  0  0  0  0  0  0
  186.4700  177.9680  140.0920 C   0  0  0  0  0  2  0  0  0  0  0  0
  190.2820  175.5260  145.7440 N   0  0  0  0  0  2  0  0  0  0  0  0
  190.6830  176.0650  144.4400 C   0  0  0  0  0  2  0  0  0  0  0  0
  188.2940  176.9610  144.6540 C   0  0  2  0  0  3  0  0  0  0  0  0
  189.1120  172.1770  141.9190 C   0  0  0  0  0  3  0  0  0  0  0  0
  189.1680  174.9630  142.2100 C   0  0  0  0  0  0  0  0  0  0  0  0
  187.9500  174.2680  142.2830 C   0  0  0  0  0  3  0  0  0  0  0  0
  187.9240  172.8770  142.1380 C   0  0  0  0  0  3  0  0  0  0  0  0
  190.3270  172.8650  141.8430 C   0  0  0  0  0  3  0  0  0  0  0  0
  190.3530  174.2550  141.9890 C   0  0  0  0  0  3  0  0  0  0  0  0
  1 15  1  6  0  0  0
  1 20  1  0  0  0  0
  1 21  1  0  0  0  0
  2 12  1  0  0  0  0
  4 14  1  0  0  0  0
  4 13  1  0  0  0  0
  6  2  2  0  0  0  0
  9  7  1  0  0  0  0
 11  2  1  6  0  0  0
 11  3  1  0  0  0  0
 12 23  1  1  0  0  0
 12  1  1  0  0  0  0
 13  5  1  6  0  0  0
 13  9  1  0  0  0  0
 14 18  1  6  0  0  0
 14 16  1  0  0  0  0
 16 11  1  0  0  0  0
 16  7  1  1  0  0  0
 17 10  1  0  0  0  0
 17  8  1  1  0  0  0
 18  6  1  0  0  0  0
 19 10  1  0  0  0  0
 20 19  1  0  0  0  0
 21  3  1  6  0  0  0
 21 17  1  0  0  0  0
 22 25  1  0  0  0  0
 23 24  1  0  0  0  0
 25 24  2  0  0  0  0
 26 22  2  0  0  0  0
 26 27  1  0  0  0  0
 27 23  2  0  0  0  0
M  END
>  <MODEL>
4

>  <REMARK>
 VINA RESULT:      -7.2      2.340      5.230
  Name = 
  1 active torsions:
  status: ('A' for Active; 'I' for Inactive)
    1  A    between atoms: C_9  and  C_15
                            x       y       z     vdW  Elec       q    Type
                         _______ _______ _______ _____ _____    ______ ____

>  <TORSDO>
F 1

$$$$
=
 OpenBabel11052418213D

 27 31  0  0  1  0  0  0  0  0999 V2000
  193.3990  174.4780  145.1370 C   0  0  2  0  0  0  0  0  0  0  0  0
  192.1380  176.4120  144.1490 C   0  0  0  0  0  0  0  0  0  0  0  0
  191.1610  174.2080  144.2010 O   0  0  0  0  0  0  0  0  0  0  0  0
  188.4820  177.9100  142.3860 C   0  0  0  0  0  2  0  0  0  0  0  0
  186.4190  177.5400  141.0590 C   0  0  0  0  0  1  0  0  0  0  0  0
  191.8340  177.7180  144.2290 C   0  0  0  0  0  3  0  0  0  0  0  0
  189.1360  175.0600  142.1370 C   0  0  0  0  0  2  0  0  0  0  0  0
  191.9780  171.3680  143.3610 C   0  0  0  0  0  1  0  0  0  0  0  0
  187.7370  175.5870  141.8380 C   0  0  0  0  0  2  0  0  0  0  0  0
  193.7960  171.6630  145.0390 C   0  0  0  0  0  2  0  0  0  0  0  0
  191.2320  175.4030  143.4550 C   0  0  1  0  0  3  0  0  0  0  0  0
  193.4970  175.9260  144.5920 C   0  0  2  0  0  3  0  0  0  0  0  0
  187.8140  177.0250  141.3380 C   0  0  2  0  0  3  0  0  0  0  0  0
  189.8830  177.3940  142.7010 C   0  0  2  0  0  3  0  0  0  0  0  0
  192.8110  174.5450  146.5420 C   0  0  0  0  0  1  0  0  0  0  0  0
  189.8220  175.9360  143.1850 C   0  0  1  0  0  3  0  0  0  0  0  0
  192.4260  172.1680  144.5690 C   0  0  1  0  0  3  0  0  0  0  0  0
  190.4990  178.2550  143.7960 C   0  0  0  0  0  2  0  0  0  0  0  0
  194.8690  172.5310  144.5570 N   0  0  0  0  0  2  0  0  0  0  0  0
  194.7880  173.8130  145.2640 C   0  0  0  0  0  2  0  0  0  0  0  0
  192.4580  173.6580  144.2130 C   0  0  2  0  0  3  0  0  0  0  0  0
  196.4320  176.4570  141.4810 C   0  0  0  0  0  3  0  0  0  0  0  0
  194.5100  176.1060  143.4890 C   0  0  0  0  0  0  0  0  0  0  0  0
  194.1940  175.8250  142.1510 C   0  0  0  0  0  3  0  0  0  0  0  0
  195.1540  176.0000  141.1500 C   0  0  0  0  0  3  0  0  0  0  0  0
  196.7500  176.7400  142.8130 C   0  0  0  0  0  3  0  0  0  0  0  0
  195.7900  176.5650  143.8140 C   0  0  0  0  0  3  0  0  0  0  0  0
  1 20  1  0  0  0  0
  1 15  1  1  0  0  0
  2  6  2  0  0  0  0
  2 12  1  0  0  0  0
  9  7  1  0  0  0  0
 11  2  1  1  0  0  0
 11  3  1  0  0  0  0
 12 23  1  6  0  0  0
 12  1  1  0  0  0  0
 13  5  1  1  0  0  0
 13  9  1  0  0  0  0
 13  4  1  0  0  0  0
 14  4  1  1  0  0  0
 14 16  1  0  0  0  0
 14 18  1  0  0  0  0
 16  7  1  6  0  0  0
 16 11  1  0  0  0  0
 17  8  1  6  0  0  0
 17 10  1  0  0  0  0
 18  6  1  0  0  0  0
 19 10  1  0  0  0  0
 19 20  1  0  0  0  0
 21  3  1  1  0  0  0
 21 17  1  0  0  0  0
 21  1  1  0  0  0  0
 22 26  1  0  0  0  0
 23 27  1  0  0  0  0
 24 23  2  0  0  0  0
 25 22  2  0  0  0  0
 25 24  1  0  0  0  0
 26 27  2  0  0  0  0
M  END
>  <MODEL>
5

>  <REMARK>
 VINA RESULT:      -7.1      2.462      3.638
  Name = 
  1 active torsions:
  status: ('A' for Active; 'I' for Inactive)
    1  A    between atoms: C_9  and  C_15
                            x       y       z     vdW  Elec       q    Type
                         _______ _______ _______ _____ _____    ______ ____

>  <TORSDO>
F 1

$$$$
=
 OpenBabel11052418213D

 27 31  0  0  1  0  0  0  0  0999 V2000
  194.8550  175.1790  143.6180 C   0  0  2  0  0  0  0  0  0  0  0  0
  192.6380  176.3490  143.4910 C   0  0  0  0  0  0  0  0  0  0  0  0
  193.1620  174.9130  145.3550 O   0  0  0  0  0  0  0  0  0  0  0  0
  188.8410  177.2600  145.3560 C   0  0  0  0  0  2  0  0  0  0  0  0
  186.9860  176.6430  146.8840 C   0  0  0  0  0  1  0  0  0  0  0  0
  191.9710  177.4670  143.1570 C   0  0  0  0  0  3  0  0  0  0  0  0
  190.2360  174.7790  146.0720 C   0  0  0  0  0  2  0  0  0  0  0  0
  194.1910  172.0470  145.7630 C   0  0  0  0  0  1  0  0  0  0  0  0
  189.0840  175.3190  146.9130 C   0  0  0  0  0  2  0  0  0  0  0  0
  196.2200  172.8740  144.5740 C   0  0  0  0  0  2  0  0  0  0  0  0
  192.1120  175.3630  144.5270 C   0  0  1  0  0  3  0  0  0  0  0  0
  193.8580  175.9380  142.7040 C   0  0  2  0  0  3  0  0  0  0  0  0
  188.1150  176.1020  146.0340 C   0  0  2  0  0  3  0  0  0  0  0  0
  190.0010  176.7390  144.5130 C   0  0  2  0  0  3  0  0  0  0  0  0
  195.5830  176.2080  144.4750 C   0  0  0  0  0  1  0  0  0  0  0  0
  190.9740  175.9270  145.3820 C   0  0  1  0  0  3  0  0  0  0  0  0
  194.9640  173.2860  145.3540 C   0  0  1  0  0  3  0  0  0  0  0  0
  190.7460  177.9190  143.9020 C   0  0  0  0  0  2  0  0  0  0  0  0
  196.0100  173.0060  143.1340 N   0  0  0  0  0  2  0  0  0  0  0  0
  195.9330  174.4320  142.8010 C   0  0  0  0  0  2  0  0  0  0  0  0
  194.0580  174.2060  144.5290 C   0  0  2  0  0  3  0  0  0  0  0  0
  192.7620  173.8080  139.1220 C   0  0  0  0  0  3  0  0  0  0  0  0
  193.4590  175.1840  141.4610 C   0  0  0  0  0  0  0  0  0  0  0  0
  192.3770  174.2890  141.4620 C   0  0  0  0  0  3  0  0  0  0  0  0
  192.0310  173.6030  140.2950 C   0  0  0  0  0  3  0  0  0  0  0  0
  193.8390  174.7000  139.1160 C   0  0  0  0  0  3  0  0  0  0  0  0
  194.1850  175.3860  140.2840 C   0  0  0  0  0  3  0  0  0  0  0  0
  1 15  1  1  0  0  0
  1 21  1  0  0  0  0
  4 13  1  0  0  0  0
  6  2  2  0  0  0  0
  6 18  1  0  0  0  0
  7  9  1  0  0  0  0
 10 17  1  0  0  0  0
 11  2  1  6  0  0  0
 11  3  1  0  0  0  0
 11 16  1  0  0  0  0
 12 23  1  6  0  0  0
 12  2  1  0  0  0  0
 12  1  1  0  0  0  0
 13  5  1  1  0  0  0
 13  9  1  0  0  0  0
 14 18  1  1  0  0  0
 14  4  1  0  0  0  0
 14 16  1  0  0  0  0
 16  7  1  6  0  0  0
 17  8  1  6  0  0  0
 19 10  1  0  0  0  0
 20 19  1  0  0  0  0
 20  1  1  0  0  0  0
 21 17  1  0  0  0  0
 21  3  1  1  0  0  0
 22 25  1  0  0  0  0
 23 24  1  0  0  0  0
 25 24  2  0  0  0  0
 26 22  2  0  0  0  0
 26 27  1  0  0  0  0
 27 23  2  0  0  0  0
M  END
>  <MODEL>
6

>  <REMARK>
 VINA RESULT:      -6.8      2.681      5.040
  Name = 
  1 active torsions:
  status: ('A' for Active; 'I' for Inactive)
    1  A    between atoms: C_9  and  C_15
                            x       y       z     vdW  Elec       q    Type
                         _______ _______ _______ _____ _____    ______ ____

>  <TORSDO>
F 1

$$$$
=
 OpenBabel11052418213D

 27 31  0  0  1  0  0  0  0  0999 V2000
  188.7030  177.4600  143.0110 C   0  0  2  0  0  0  0  0  0  0  0  0
  190.4600  176.8280  144.6880 C   0  0  0  0  0  0  0  0  0  0  0  0
  190.1670  175.5380  142.6720 O   0  0  0  0  0  0  0  0  0  0  0  0
  193.7700  174.2570  145.7630 C   0  0  0  0  0  2  0  0  0  0  0  0
  194.9390  172.0730  145.6200 C   0  0  0  0  0  1  0  0  0  0  0  0
  191.3890  177.2510  145.5600 C   0  0  0  0  0  3  0  0  0  0  0  0
  191.7300  173.2700  143.8990 C   0  0  0  0  0  2  0  0  0  0  0  0
  187.8440  174.1710  141.1980 C   0  0  0  0  0  1  0  0  0  0  0  0
  193.0700  172.5630  144.0620 C   0  0  0  0  0  2  0  0  0  0  0  0
  186.9300  176.4810  141.0130 C   0  0  0  0  0  2  0  0  0  0  0  0
  190.5180  175.4520  144.0360 C   0  0  1  0  0  3  0  0  0  0  0  0
  189.2100  177.6440  144.4640 C   0  0  2  0  0  3  0  0  0  0  0  0
  193.6020  172.7680  145.4760 C   0  0  2  0  0  3  0  0  0  0  0  0
  192.4370  174.9820  145.5990 C   0  0  2  0  0  3  0  0  0  0  0  0
  189.5840  178.3030  142.0960 C   0  0  0  0  0  1  0  0  0  0  0  0
  191.8780  174.7640  144.1840 C   0  0  1  0  0  3  0  0  0  0  0  0
  188.1920  175.6450  141.2640 C   0  0  1  0  0  3  0  0  0  0  0  0
  192.6480  176.4730  145.8270 C   0  0  0  0  0  2  0  0  0  0  0  0
  186.3590  176.9610  142.2700 N   0  0  0  0  0  2  0  0  0  0  0  0
  187.2560  177.9740  142.8350 C   0  0  0  0  0  2  0  0  0  0  0  0
  188.8240  175.9620  142.6230 C   0  0  2  0  0  3  0  0  0  0  0  0
  186.2380  176.8260  147.4750 C   0  0  0  0  0  3  0  0  0  0  0  0
  188.1810  177.3410  145.5230 C   0  0  0  0  0  0  0  0  0  0  0  0
  188.2880  176.2090  146.3470 C   0  0  0  0  0  3  0  0  0  0  0  0
  187.3170  175.9530  147.3200 C   0  0  0  0  0  3  0  0  0  0  0  0
  186.1290  177.9560  146.6590 C   0  0  0  0  0  3  0  0  0  0  0  0
  187.0990  178.2120  145.6850 C   0  0  0  0  0  3  0  0  0  0  0  0
  1 15  1  6  0  0  0
  1 12  1  0  0  0  0
  2  6  2  0  0  0  0
  6 18  1  0  0  0  0
  7  9  1  0  0  0  0
  9 13  1  0  0  0  0
 10 17  1  0  0  0  0
 10 19  1  0  0  0  0
 11  3  1  6  0  0  0
 11 16  1  0  0  0  0
 11  2  1  0  0  0  0
 12  2  1  0  0  0  0
 12 23  1  1  0  0  0
 13  5  1  6  0  0  0
 13  4  1  0  0  0  0
 14  4  1  6  0  0  0
 14 18  1  0  0  0  0
 16  7  1  1  0  0  0
 16 14  1  0  0  0  0
 17  8  1  1  0  0  0
 17 21  1  0  0  0  0
 19 20  1  0  0  0  0
 20  1  1  0  0  0  0
 21  3  1  6  0  0  0
 21  1  1  0  0  0  0
 23 27  2  0  0  0  0
 23 24  1  0  0  0  0
 24 25  2  0  0  0  0
 25 22  1  0  0  0  0
 26 22  2  0  0  0  0
 27 26  1  0  0  0  0
M  END
>  <MODEL>
7

>  <REMARK>
 VINA RESULT:      -6.8      2.189      6.248
  Name = 
  1 active torsions:
  status: ('A' for Active; 'I' for Inactive)
    1  A    between atoms: C_9  and  C_15
                            x       y       z     vdW  Elec       q    Type
                         _______ _______ _______ _____ _____    ______ ____

>  <TORSDO>
F 1

$$$$
=
 OpenBabel11052418213D

 27 31  0  0  1  0  0  0  0  0999 V2000
  189.6580  174.9620  144.5920 C   0  0  2  0  0  0  0  0  0  0  0  0
  189.5780  174.0740  142.2460 C   0  0  0  0  0  0  0  0  0  0  0  0
  191.6910  174.5440  143.3090 O   0  0  0  0  0  0  0  0  0  0  0  0
  191.7290  172.6450  138.7740 C   0  0  0  0  0  2  0  0  0  0  0  0
  193.7570  172.6420  137.3440 C   0  0  0  0  0  1  0  0  0  0  0  0
  188.9820  173.2430  141.3750 C   0  0  0  0  0  3  0  0  0  0  0  0
  193.0510  174.5060  140.6190 C   0  0  0  0  0  2  0  0  0  0  0  0
  192.9810  176.9020  144.7970 C   0  0  0  0  0  1  0  0  0  0  0  0
  193.8400  173.7180  139.5790 C   0  0  0  0  0  2  0  0  0  0  0  0
  191.1280  176.5630  146.4280 C   0  0  0  0  0  2  0  0  0  0  0  0
  191.0170  174.5460  142.0700 C   0  0  1  0  0  3  0  0  0  0  0  0
  188.7700  174.7200  143.3440 C   0  0  2  0  0  3  0  0  0  0  0  0
  192.9670  173.4370  138.3610 C   0  0  2  0  0  3  0  0  0  0  0  0
  190.9300  173.4180  139.8180 C   0  0  2  0  0  3  0  0  0  0  0  0
  189.8290  173.6300  145.3120 C   0  0  0  0  0  1  0  0  0  0  0  0
  191.8050  173.7290  141.0430 C   0  0  1  0  0  3  0  0  0  0  0  0
  191.9370  175.9200  145.2940 C   0  0  1  0  0  3  0  0  0  0  0  0
  189.7380  172.5780  140.2590 C   0  0  0  0  0  2  0  0  0  0  0  0
  189.8480  177.0710  145.9360 N   0  0  0  0  0  2  0  0  0  0  0  0
  188.9920  175.9310  145.5950 C   0  0  0  0  0  2  0  0  0  0  0  0
  191.0420  175.4900  144.1270 C   0  0  2  0  0  3  0  0  0  0  0  0
  186.7170  178.2210  141.8960 C   0  0  0  0  0  3  0  0  0  0  0  0
  188.0700  175.9530  142.8320 C   0  0  0  0  0  0  0  0  0  0  0  0
  188.7880  177.0370  142.3020 C   0  0  0  0  0  3  0  0  0  0  0  0
  188.1110  178.1680  141.8360 C   0  0  0  0  0  3  0  0  0  0  0  0
  185.9970  177.1430  142.4220 C   0  0  0  0  0  3  0  0  0  0  0  0
  186.6740  176.0120  142.8880 C   0  0  0  0  0  3  0  0  0  0  0  0
  1 15  1  1  0  0  0
  1 20  1  0  0  0  0
  2 12  1  0  0  0  0
  6  2  2  0  0  0  0
  9  7  1  0  0  0  0
 11  2  1  1  0  0  0
 11  3  1  0  0  0  0
 12 23  1  6  0  0  0
 12  1  1  0  0  0  0
 13  5  1  6  0  0  0
 13  4  1  0  0  0  0
 13  9  1  0  0  0  0
 14  4  1  6  0  0  0
 14 18  1  0  0  0  0
 14 16  1  0  0  0  0
 16  7  1  6  0  0  0
 16 11  1  0  0  0  0
 17  8  1  6  0  0  0
 17 10  1  0  0  0  0
 18  6  1  0  0  0  0
 19 10  1  0  0  0  0
 20 19  1  0  0  0  0
 21  3  1  1  0  0  0
 21  1  1  0  0  0  0
 21 17  1  0  0  0  0
 22 26  1  0  0  0  0
 23 27  1  0  0  0  0
 24 23  2  0  0  0  0
 25 22  2  0  0  0  0
 25 24  1  0  0  0  0
 26 27  2  0  0  0  0
M  END
>  <MODEL>
8

>  <REMARK>
 VINA RESULT:      -6.6      2.371      6.714
  Name = 
  1 active torsions:
  status: ('A' for Active; 'I' for Inactive)
    1  A    between atoms: C_9  and  C_15
                            x       y       z     vdW  Elec       q    Type
                         _______ _______ _______ _____ _____    ______ ____

>  <TORSDO>
F 1

$$$$
=
 OpenBabel11052418213D

 27 31  0  0  1  0  0  0  0  0999 V2000
  190.5360  174.3240  144.5240 C   0  0  2  0  0  0  0  0  0  0  0  0
  191.6210  174.4350  142.2630 C   0  0  0  0  0  0  0  0  0  0  0  0
  192.9330  174.7010  144.2680 O   0  0  0  0  0  0  0  0  0  0  0  0
  195.2500  174.7760  139.9320 C   0  0  0  0  0  2  0  0  0  0  0  0
  197.5810  175.5880  139.6760 C   0  0  0  0  0  1  0  0  0  0  0  0
  191.6680  173.9520  141.0110 C   0  0  0  0  0  3  0  0  0  0  0  0
  195.1710  175.8990  142.6420 C   0  0  0  0  0  2  0  0  0  0  0  0
  192.8210  176.4140  146.8150 C   0  0  0  0  0  1  0  0  0  0  0  0
  196.4880  175.6910  141.9030 C   0  0  0  0  0  2  0  0  0  0  0  0
  190.6650  175.2320  147.2170 C   0  0  0  0  0  2  0  0  0  0  0  0
  192.8160  175.1110  142.9240 C   0  0  1  0  0  3  0  0  0  0  0  0
  190.3050  174.4890  143.0000 C   0  0  2  0  0  3  0  0  0  0  0  0
  196.2690  175.8110  140.3980 C   0  0  2  0  0  3  0  0  0  0  0  0
  193.9260  174.9670  140.6660 C   0  0  2  0  0  3  0  0  0  0  0  0
  190.7900  172.8470  144.8020 C   0  0  0  0  0  1  0  0  0  0  0  0
  194.1360  174.8710  142.1860 C   0  0  1  0  0  3  0  0  0  0  0  0
  191.9950  175.1960  146.4520 C   0  0  1  0  0  3  0  0  0  0  0  0
  192.9510  173.8820  140.2290 C   0  0  0  0  0  2  0  0  0  0  0  0
  189.5850  175.7330  146.3680 N   0  0  0  0  0  2  0  0  0  0  0  0
  189.2890  174.7260  145.3440 C   0  0  0  0  0  2  0  0  0  0  0  0
  191.7790  175.1580  144.9360 C   0  0  2  0  0  3  0  0  0  0  0  0
  188.0560  177.9970  141.9010 C   0  0  0  0  0  3  0  0  0  0  0  0
  189.5350  175.7280  142.6200 C   0  0  0  0  0  0  0  0  0  0  0  0
  190.0960  177.0090  142.7490 C   0  0  0  0  0  3  0  0  0  0  0  0
  189.3570  178.1400  142.3900 C   0  0  0  0  0  3  0  0  0  0  0  0
  187.4940  176.7240  141.7690 C   0  0  0  0  0  3  0  0  0  0  0  0
  188.2330  175.5930  142.1280 C   0  0  0  0  0  3  0  0  0  0  0  0
  1 15  1  1  0  0  0
  1 21  1  0  0  0  0
  1 20  1  0  0  0  0
  2 12  1  0  0  0  0
  4 13  1  0  0  0  0
  6  2  2  0  0  0  0
  9  7  1  0  0  0  0
 11  2  1  6  0  0  0
 11  3  1  0  0  0  0
 12 23  1  1  0  0  0
 12  1  1  0  0  0  0
 13  5  1  6  0  0  0
 13  9  1  0  0  0  0
 14  4  1  6  0  0  0
 14 16  1  0  0  0  0
 16  7  1  1  0  0  0
 16 11  1  0  0  0  0
 17  8  1  6  0  0  0
 17 10  1  0  0  0  0
 18 14  1  0  0  0  0
 18  6  1  0  0  0  0
 19 10  1  0  0  0  0
 20 19  1  0  0  0  0
 21  3  1  6  0  0  0
 21 17  1  0  0  0  0
 22 25  1  0  0  0  0
 23 24  1  0  0  0  0
 25 24  2  0  0  0  0
 26 22  2  0  0  0  0
 26 27  1  0  0  0  0
 27 23  2  0  0  0  0
M  END
>  <MODEL>
9

>  <REMARK>
 VINA RESULT:      -6.5      3.053      6.967
  Name = 
  1 active torsions:
  status: ('A' for Active; 'I' for Inactive)
    1  A    between atoms: C_9  and  C_15
                            x       y       z     vdW  Elec       q    Type
                         _______ _______ _______ _____ _____    ______ ____

>  <TORSDO>
F 1

$$$$
