=
 OpenBabel11052418413D

 34 37  0  0  1  0  0  0  0  0999 V2000
  190.2520  176.9210  144.6500 C   0  0  0  0  0  0  0  0  0  0  0  0
  191.3640  174.6630  144.3280 C   0  0  2  0  0  3  0  0  0  0  0  0
  190.5770  171.7870  144.1570 O   0  0  0  0  0  0  0  0  0  0  0  0
  190.2450  178.1300  144.2920 O   0  0  0  0  0  0  0  0  0  0  0  0
  189.1020  174.9250  145.6320 C   0  0  0  0  0  2  0  0  0  0  0  0
  191.5440  176.1620  144.6550 C   0  0  2  0  0  3  0  0  0  0  0  0
  189.7850  172.7660  144.7820 C   0  0  0  0  0  3  0  0  0  0  0  0
  191.4540  174.3780  142.8180 C   0  0  2  0  0  3  0  0  0  0  0  0
  189.0410  176.2730  145.0830 N   0  0  0  0  0  0  0  0  0  0  0  0
  191.9130  171.9870  143.7060 C   0  0  0  0  0  2  0  0  0  0  0  0
  191.9740  172.9600  142.5260 C   0  0  1  0  0  3  0  0  0  0  0  0
  190.0840  174.0680  144.8900 C   0  0  0  0  0  0  0  0  0  0  0  0
  192.2770  175.3020  142.1690 O   0  0  0  0  0  1  0  0  0  0  0  0
  189.5840  172.2310  139.6570 C   0  0  0  0  0  0  0  0  0  0  0  0
  190.2520  171.1790  139.0140 C   0  0  0  0  0  3  0  0  0  0  0  0
  191.3770  172.3750  141.2840 C   0  0  0  0  0  0  0  0  0  0  0  0
  191.4760  170.7220  139.5060 C   0  0  0  0  0  3  0  0  0  0  0  0
  190.1440  172.8250  140.7920 C   0  0  0  0  0  3  0  0  0  0  0  0
  192.0370  171.3190  140.6410 C   0  0  0  0  0  3  0  0  0  0  0  0
  188.2770  172.7080  139.1380 C   0  0  0  0  0  1  0  0  0  0  0  0
  186.9500  176.7890  144.1420 O   0  0  0  0  0  0  0  0  0  0  0  0
  186.3010  177.9940  143.7730 C   0  0  1  0  0  3  0  0  0  0  0  0
  187.7910  177.0110  145.2520 C   0  0  1  0  0  3  0  0  0  0  0  0
  186.1070  177.6520  147.0290 C   0  0  0  0  0  2  0  0  0  0  0  0
  185.0520  177.9900  145.9800 C   0  0  0  0  0  2  0  0  0  0  0  0
  185.6690  178.8540  144.8880 C   0  0  0  0  0  2  0  0  0  0  0  0
  187.0880  176.5880  146.5420 C   0  0  0  0  0  2  0  0  0  0  0  0
  186.9890  178.7190  142.7770 O   0  0  0  0  0  0  0  0  0  0  0  0
  187.3170  177.8430  141.7330 C   0  0  0  0  0  2  0  0  0  0  0  0
  188.6950  177.7060  141.6540 F   0  0  0  0  0  0  0  0  0  0  0  0
  192.3660  176.4310  145.9220 C   0  0  2  0  0  3  0  0  0  0  0  0
  193.7740  176.8740  145.5520 C   0  0  0  0  0  1  0  0  0  0  0  0
  191.4880  175.4900  148.0630 C   0  0  0  0  0  1  0  0  0  0  0  0
  192.4090  175.2450  146.8810 C   0  0  0  0  0  2  0  0  0  0  0  0
  1  6  1  0  0  0  0
  1  9  1  0  0  0  0
  2  6  1  0  0  0  0
  2 12  1  6  0  0  0
  3  7  1  0  0  0  0
  4  1  2  0  0  0  0
  6 31  1  1  0  0  0
  7 12  2  0  0  0  0
  8 13  1  6  0  0  0
  8  2  1  0  0  0  0
  9  5  1  0  0  0  0
 10  3  1  0  0  0  0
 11 16  1  6  0  0  0
 11  8  1  0  0  0  0
 11 10  1  0  0  0  0
 12  5  1  0  0  0  0
 14 18  1  0  0  0  0
 15 17  1  0  0  0  0
 15 14  2  0  0  0  0
 17 19  2  0  0  0  0
 18 16  2  0  0  0  0
 19 16  1  0  0  0  0
 20 14  1  0  0  0  0
 21 23  1  0  0  0  0
 22 28  1  1  0  0  0
 22 21  1  0  0  0  0
 22 26  1  0  0  0  0
 23  9  1  6  0  0  0
 23 27  1  0  0  0  0
 25 24  1  0  0  0  0
 26 25  1  0  0  0  0
 27 24  1  0  0  0  0
 29 28  1  0  0  0  0
 30 29  1  0  0  0  0
 31 32  1  6  0  0  0
 31 34  1  0  0  0  0
 34 33  1  0  0  0  0
M  END
>  <MODEL>
1

>  <REMARK>
 VINA RESULT:      -7.6      0.000      0.000
  Name = 
  6 active torsions:
  status: ('A' for Active; 'I' for Inactive)
    1  A    between atoms: C_1  and  C_15
    2  A    between atoms: C_1  and  C_19
    3  A    between atoms: O_3  and  C_13
    4  A    between atoms: O_3  and  C_17
    5  A    between atoms: C_12  and  C_28
    6  A    between atoms: C_14  and  N_25
                            x       y       z     vdW  Elec       q    Type
                         _______ _______ _______ _____ _____    ______ ____

>  <TORSDO>
F 6

$$$$
=
 OpenBabel11052418413D

 34 37  0  0  1  0  0  0  0  0999 V2000
  191.3420  172.9160  143.7710 C   0  0  0  0  0  0  0  0  0  0  0  0
  190.9400  175.1010  144.9960 C   0  0  2  0  0  3  0  0  0  0  0  0
  190.0030  177.8690  144.3810 O   0  0  0  0  0  0  0  0  0  0  0  0
  191.2340  171.6600  143.8340 O   0  0  0  0  0  0  0  0  0  0  0  0
  191.5430  175.0290  142.4430 C   0  0  0  0  0  2  0  0  0  0  0  0
  191.5840  173.6970  145.0260 C   0  0  2  0  0  3  0  0  0  0  0  0
  190.5400  177.0050  143.4100 C   0  0  0  0  0  3  0  0  0  0  0  0
  189.4990  175.0970  145.5350 C   0  0  2  0  0  3  0  0  0  0  0  0
  191.2670  173.5990  142.5070 N   0  0  0  0  0  0  0  0  0  0  0  0
  190.0130  177.6250  145.7840 C   0  0  0  0  0  2  0  0  0  0  0  0
  189.1100  176.4470  146.1620 C   0  0  1  0  0  3  0  0  0  0  0  0
  190.9760  175.7560  143.6250 C   0  0  0  0  0  0  0  0  0  0  0  0
  189.3100  174.0900  146.4850 O   0  0  0  0  0  1  0  0  0  0  0  0
  185.7570  177.2340  144.5450 C   0  0  0  0  0  0  0  0  0  0  0  0
  184.9640  177.4720  145.6780 C   0  0  0  0  0  3  0  0  0  0  0  0
  187.6600  176.7680  145.9750 C   0  0  0  0  0  0  0  0  0  0  0  0
  185.5170  177.3640  146.9540 C   0  0  0  0  0  3  0  0  0  0  0  0
  187.1030  176.8860  144.6940 C   0  0  0  0  0  3  0  0  0  0  0  0
  186.8640  177.0140  147.1030 C   0  0  0  0  0  3  0  0  0  0  0  0
  185.1690  177.3600  143.1880 C   0  0  0  0  0  1  0  0  0  0  0  0
  190.7730  173.7400  140.2140 O   0  0  0  0  0  0  0  0  0  0  0  0
  189.8650  173.0730  139.3530 C   0  0  1  0  0  3  0  0  0  0  0  0
  191.1960  172.8720  141.2400 C   0  0  1  0  0  3  0  0  0  0  0  0
  192.4240  171.0990  139.9160 C   0  0  0  0  0  2  0  0  0  0  0  0
  191.7200  171.5040  138.6250 C   0  0  0  0  0  2  0  0  0  0  0  0
  190.2240  171.6500  138.8750 C   0  0  0  0  0  2  0  0  0  0  0  0
  192.5550  172.2650  140.8940 C   0  0  0  0  0  2  0  0  0  0  0  0
  188.5140  173.2590  139.7120 O   0  0  0  0  0  0  0  0  0  0  0  0
  188.3450  174.5800  140.1510 C   0  0  0  0  0  2  0  0  0  0  0  0
  188.0940  174.5910  141.5150 F   0  0  0  0  0  0  0  0  0  0  0  0
  193.0650  173.6970  145.4300 C   0  0  2  0  0  3  0  0  0  0  0  0
  193.4080  174.9790  146.1730 C   0  0  0  0  0  1  0  0  0  0  0  0
  194.8770  174.7150  144.0450 C   0  0  0  0  0  1  0  0  0  0  0  0
  194.0130  173.4840  144.2540 C   0  0  0  0  0  2  0  0  0  0  0  0
  1  4  2  0  0  0  0
  1  6  1  0  0  0  0
  2 12  1  6  0  0  0
  2  6  1  0  0  0  0
  2  8  1  0  0  0  0
  3 10  1  0  0  0  0
  5  9  1  0  0  0  0
  5 12  1  0  0  0  0
  6 31  1  6  0  0  0
  7 12  2  0  0  0  0
  7  3  1  0  0  0  0
  8 11  1  0  0  0  0
  8 13  1  1  0  0  0
  9  1  1  0  0  0  0
 10 11  1  0  0  0  0
 11 16  1  6  0  0  0
 14 18  2  0  0  0  0
 14 15  1  0  0  0  0
 15 17  2  0  0  0  0
 16 19  2  0  0  0  0
 17 19  1  0  0  0  0
 18 16  1  0  0  0  0
 20 14  1  0  0  0  0
 21 23  1  0  0  0  0
 22 28  1  1  0  0  0
 22 21  1  0  0  0  0
 23 27  1  6  0  0  0
 23  9  1  0  0  0  0
 24 27  1  0  0  0  0
 25 26  1  0  0  0  0
 25 24  1  0  0  0  0
 26 22  1  0  0  0  0
 28 29  1  0  0  0  0
 29 30  1  0  0  0  0
 31 32  1  6  0  0  0
 33 34  1  0  0  0  0
 34 31  1  0  0  0  0
M  END
>  <MODEL>
2

>  <REMARK>
 VINA RESULT:      -7.0      1.908      6.770
  Name = 
  6 active torsions:
  status: ('A' for Active; 'I' for Inactive)
    1  A    between atoms: C_1  and  C_15
    2  A    between atoms: C_1  and  C_19
    3  A    between atoms: O_3  and  C_13
    4  A    between atoms: O_3  and  C_17
    5  A    between atoms: C_12  and  C_28
    6  A    between atoms: C_14  and  N_25
                            x       y       z     vdW  Elec       q    Type
                         _______ _______ _______ _____ _____    ______ ____

>  <TORSDO>
F 6

$$$$
=
 OpenBabel11052418413D

 34 37  0  0  1  0  0  0  0  0999 V2000
  192.0280  173.2530  143.2430 C   0  0  0  0  0  0  0  0  0  0  0  0
  191.3940  175.1150  144.8460 C   0  0  2  0  0  3  0  0  0  0  0  0
  190.3700  177.9180  144.7250 O   0  0  0  0  0  0  0  0  0  0  0  0
  191.9830  172.0110  143.0320 O   0  0  0  0  0  0  0  0  0  0  0  0
  192.2390  175.6060  142.4110 C   0  0  0  0  0  2  0  0  0  0  0  0
  192.1070  173.7580  144.6510 C   0  0  2  0  0  3  0  0  0  0  0  0
  191.0430  177.2980  143.6580 C   0  0  0  0  0  3  0  0  0  0  0  0
  189.9100  174.9480  145.2200 C   0  0  2  0  0  3  0  0  0  0  0  0
  192.0360  174.1870  142.1480 N   0  0  0  0  0  0  0  0  0  0  0  0
  190.2600  177.3820  146.0400 C   0  0  0  0  0  2  0  0  0  0  0  0
  189.3910  176.1210  146.0690 C   0  0  1  0  0  3  0  0  0  0  0  0
  191.5240  176.0470  143.6530 C   0  0  0  0  0  0  0  0  0  0  0  0
  189.6860  173.7570  145.9150 O   0  0  0  0  0  1  0  0  0  0  0  0
  186.1290  176.9030  144.2730 C   0  0  0  0  0  0  0  0  0  0  0  0
  185.2660  177.0990  145.3610 C   0  0  0  0  0  3  0  0  0  0  0  0
  187.9490  176.4270  145.8030 C   0  0  0  0  0  0  0  0  0  0  0  0
  185.7430  176.9660  146.6660 C   0  0  0  0  0  3  0  0  0  0  0  0
  187.4690  176.5710  144.4940 C   0  0  0  0  0  3  0  0  0  0  0  0
  187.0840  176.6320  146.8870 C   0  0  0  0  0  3  0  0  0  0  0  0
  185.6220  177.0560  142.8860 C   0  0  0  0  0  1  0  0  0  0  0  0
  190.8630  173.8460  140.1400 O   0  0  0  0  0  0  0  0  0  0  0  0
  190.6340  172.7240  139.3050 C   0  0  1  0  0  3  0  0  0  0  0  0
  192.1260  173.7430  140.7570 C   0  0  1  0  0  3  0  0  0  0  0  0
  193.6670  173.8450  138.7530 C   0  0  0  0  0  2  0  0  0  0  0  0
  192.5370  173.4640  137.8010 C   0  0  0  0  0  2  0  0  0  0  0  0
  191.7680  172.2740  138.3600 C   0  0  0  0  0  2  0  0  0  0  0  0
  193.1570  174.5730  139.9940 C   0  0  0  0  0  2  0  0  0  0  0  0
  189.9440  171.6760  139.9500 O   0  0  0  0  0  0  0  0  0  0  0  0
  190.4630  170.4550  139.4990 C   0  0  0  0  0  2  0  0  0  0  0  0
  190.5950  169.5800  140.5670 F   0  0  0  0  0  0  0  0  0  0  0  0
  193.5410  173.7210  145.1980 C   0  0  2  0  0  3  0  0  0  0  0  0
  193.8890  172.3170  145.6670 C   0  0  0  0  0  1  0  0  0  0  0  0
  194.9260  175.6710  145.9180 C   0  0  0  0  0  1  0  0  0  0  0  0
  193.7930  174.7380  146.3070 C   0  0  0  0  0  2  0  0  0  0  0  0
  1  6  1  0  0  0  0
  2 12  1  6  0  0  0
  2  8  1  0  0  0  0
  3 10  1  0  0  0  0
  4  1  2  0  0  0  0
  5 12  1  0  0  0  0
  6  2  1  0  0  0  0
  6 31  1  6  0  0  0
  7  3  1  0  0  0  0
  8 13  1  1  0  0  0
  8 11  1  0  0  0  0
  9  5  1  0  0  0  0
  9  1  1  0  0  0  0
 10 11  1  0  0  0  0
 11 16  1  6  0  0  0
 12  7  2  0  0  0  0
 14 18  2  0  0  0  0
 14 15  1  0  0  0  0
 15 17  2  0  0  0  0
 16 19  2  0  0  0  0
 17 19  1  0  0  0  0
 18 16  1  0  0  0  0
 20 14  1  0  0  0  0
 21 23  1  0  0  0  0
 22 28  1  1  0  0  0
 22 21  1  0  0  0  0
 23 27  1  6  0  0  0
 23  9  1  0  0  0  0
 24 27  1  0  0  0  0
 25 26  1  0  0  0  0
 25 24  1  0  0  0  0
 26 22  1  0  0  0  0
 29 28  1  0  0  0  0
 29 30  1  0  0  0  0
 31 32  1  1  0  0  0
 31 34  1  0  0  0  0
 33 34  1  0  0  0  0
M  END
>  <MODEL>
3

>  <REMARK>
 VINA RESULT:      -6.7      2.498      7.014
  Name = 
  6 active torsions:
  status: ('A' for Active; 'I' for Inactive)
    1  A    between atoms: C_1  and  C_15
    2  A    between atoms: C_1  and  C_19
    3  A    between atoms: O_3  and  C_13
    4  A    between atoms: O_3  and  C_17
    5  A    between atoms: C_12  and  C_28
    6  A    between atoms: C_14  and  N_25
                            x       y       z     vdW  Elec       q    Type
                         _______ _______ _______ _____ _____    ______ ____

>  <TORSDO>
F 6

$$$$
=
 OpenBabel11052418413D

 34 37  0  0  1  0  0  0  0  0999 V2000
  191.5880  173.2250  144.1610 C   0  0  0  0  0  0  0  0  0  0  0  0
  190.9860  175.4290  145.2640 C   0  0  2  0  0  3  0  0  0  0  0  0
  189.8980  178.0980  144.4810 O   0  0  0  0  0  0  0  0  0  0  0  0
  191.5600  171.9690  144.2770 O   0  0  0  0  0  0  0  0  0  0  0  0
  191.7110  175.2870  142.7470 C   0  0  0  0  0  2  0  0  0  0  0  0
  191.7200  174.0750  145.3880 C   0  0  2  0  0  3  0  0  0  0  0  0
  190.5360  177.2310  143.5760 C   0  0  0  0  0  3  0  0  0  0  0  0
  189.5250  175.3500  145.7400 C   0  0  2  0  0  3  0  0  0  0  0  0
  191.5270  173.8460  142.8640 N   0  0  0  0  0  0  0  0  0  0  0  0
  189.8590  177.9150  145.8930 C   0  0  0  0  0  2  0  0  0  0  0  0
  189.0190  176.6960  146.2850 C   0  0  1  0  0  3  0  0  0  0  0  0
  191.0430  176.0250  143.8680 C   0  0  0  0  0  0  0  0  0  0  0  0
  189.3580  174.3750  146.7260 O   0  0  0  0  0  1  0  0  0  0  0  0
  185.7220  177.3400  144.5000 C   0  0  0  0  0  0  0  0  0  0  0  0
  184.8380  177.4080  145.5870 C   0  0  0  0  0  3  0  0  0  0  0  0
  187.5610  176.9100  146.0210 C   0  0  0  0  0  0  0  0  0  0  0  0
  185.3140  177.2340  146.8870 C   0  0  0  0  0  3  0  0  0  0  0  0
  187.0810  177.0950  144.7170 C   0  0  0  0  0  3  0  0  0  0  0  0
  186.6740  176.9870  147.1040 C   0  0  0  0  0  3  0  0  0  0  0  0
  185.2150  177.5370  143.1180 C   0  0  0  0  0  1  0  0  0  0  0  0
  190.2980  172.4930  141.3880 O   0  0  0  0  0  0  0  0  0  0  0  0
  190.4420  171.1680  140.9070 C   0  0  1  0  0  3  0  0  0  0  0  0
  191.5640  173.0620  141.6310 C   0  0  1  0  0  3  0  0  0  0  0  0
  192.5440  173.1040  139.2980 C   0  0  0  0  0  2  0  0  0  0  0  0
  191.5490  172.0580  138.8060 C   0  0  0  0  0  2  0  0  0  0  0  0
  191.4810  170.9030  139.7970 C   0  0  0  0  0  2  0  0  0  0  0  0
  191.9870  173.9370  140.4510 C   0  0  0  0  0  2  0  0  0  0  0  0
  190.3960  170.1930  141.9260 O   0  0  0  0  0  0  0  0  0  0  0  0
  191.3370  169.1960  141.6330 C   0  0  0  0  0  2  0  0  0  0  0  0
  192.1590  168.9920  142.7320 F   0  0  0  0  0  0  0  0  0  0  0  0
  193.1760  174.1930  145.8550 C   0  0  2  0  0  3  0  0  0  0  0  0
  193.4100  175.5440  146.5130 C   0  0  0  0  0  1  0  0  0  0  0  0
  195.0120  175.2050  144.4970 C   0  0  0  0  0  1  0  0  0  0  0  0
  194.1910  173.9510  144.7420 C   0  0  0  0  0  2  0  0  0  0  0  0
  1  4  2  0  0  0  0
  1  6  1  0  0  0  0
  2 12  1  6  0  0  0
  2  6  1  0  0  0  0
  2  8  1  0  0  0  0
  3 10  1  0  0  0  0
  5  9  1  0  0  0  0
  5 12  1  0  0  0  0
  6 31  1  6  0  0  0
  7 12  2  0  0  0  0
  7  3  1  0  0  0  0
  8 11  1  0  0  0  0
  8 13  1  1  0  0  0
  9  1  1  0  0  0  0
 10 11  1  0  0  0  0
 11 16  1  6  0  0  0
 14 18  2  0  0  0  0
 14 15  1  0  0  0  0
 15 17  2  0  0  0  0
 16 19  2  0  0  0  0
 17 19  1  0  0  0  0
 18 16  1  0  0  0  0
 20 14  1  0  0  0  0
 21 23  1  0  0  0  0
 22 21  1  0  0  0  0
 22 28  1  1  0  0  0
 23 27  1  6  0  0  0
 23  9  1  0  0  0  0
 24 27  1  0  0  0  0
 25 24  1  0  0  0  0
 25 26  1  0  0  0  0
 26 22  1  0  0  0  0
 29 28  1  0  0  0  0
 29 30  1  0  0  0  0
 31 32  1  6  0  0  0
 33 34  1  0  0  0  0
 34 31  1  0  0  0  0
M  END
>  <MODEL>
4

>  <REMARK>
 VINA RESULT:      -6.6      2.438      7.177
  Name = 
  6 active torsions:
  status: ('A' for Active; 'I' for Inactive)
    1  A    between atoms: C_1  and  C_15
    2  A    between atoms: C_1  and  C_19
    3  A    between atoms: O_3  and  C_13
    4  A    between atoms: O_3  and  C_17
    5  A    between atoms: C_12  and  C_28
    6  A    between atoms: C_14  and  N_25
                            x       y       z     vdW  Elec       q    Type
                         _______ _______ _______ _____ _____    ______ ____

>  <TORSDO>
F 6

$$$$
=
 OpenBabel11052418413D

 34 37  0  0  1  0  0  0  0  0999 V2000
  187.9550  177.2610  142.1890 C   0  0  0  0  0  0  0  0  0  0  0  0
  188.9440  176.3660  144.3470 C   0  0  2  0  0  3  0  0  0  0  0  0
  190.4500  173.9650  145.2910 O   0  0  0  0  0  0  0  0  0  0  0  0
  187.7730  178.2910  141.4840 O   0  0  0  0  0  0  0  0  0  0  0  0
  188.1510  174.7750  142.4170 C   0  0  0  0  0  2  0  0  0  0  0  0
  187.9950  177.3880  143.6810 C   0  0  2  0  0  3  0  0  0  0  0  0
  189.6560  173.9690  144.1300 C   0  0  0  0  0  3  0  0  0  0  0  0
  190.3800  176.9000  144.4800 C   0  0  2  0  0  3  0  0  0  0  0  0
  188.0920  175.9650  141.5770 N   0  0  0  0  0  0  0  0  0  0  0  0
  190.4880  175.0140  146.2540 C   0  0  0  0  0  2  0  0  0  0  0  0
  191.1180  176.2870  145.6830 C   0  0  1  0  0  3  0  0  0  0  0  0
  188.9590  175.0120  143.6580 C   0  0  0  0  0  0  0  0  0  0  0  0
  190.4020  178.2920  144.6030 O   0  0  0  0  0  1  0  0  0  0  0  0
  194.4760  175.9800  143.9220 C   0  0  0  0  0  0  0  0  0  0  0  0
  195.3240  175.7130  145.0070 C   0  0  0  0  0  3  0  0  0  0  0  0
  192.5850  176.1250  145.4330 C   0  0  0  0  0  0  0  0  0  0  0  0
  194.8040  175.6460  146.3010 C   0  0  0  0  0  3  0  0  0  0  0  0
  193.1100  176.1820  144.1340 C   0  0  0  0  0  3  0  0  0  0  0  0
  193.4360  175.8500  146.5130 C   0  0  0  0  0  3  0  0  0  0  0  0
  195.0300  176.0400  142.5450 C   0  0  0  0  0  1  0  0  0  0  0  0
  187.7880  174.3880  139.8620 O   0  0  0  0  0  0  0  0  0  0  0  0
  188.4860  174.0750  138.6690 C   0  0  1  0  0  3  0  0  0  0  0  0
  187.8970  175.7650  140.1420 C   0  0  1  0  0  3  0  0  0  0  0  0
  186.6890  176.7720  138.1600 C   0  0  0  0  0  2  0  0  0  0  0  0
  186.8480  175.4900  137.3480 C   0  0  0  0  0  2  0  0  0  0  0  0
  188.2840  174.9910  137.4440 C   0  0  0  0  0  2  0  0  0  0  0  0
  186.6480  176.5030  139.6630 C   0  0  0  0  0  2  0  0  0  0  0  0
  189.8160  173.6590  138.8900 O   0  0  0  0  0  0  0  0  0  0  0  0
  189.7940  172.3920  139.4900 C   0  0  0  0  0  2  0  0  0  0  0  0
  188.9340  171.5590  138.7880 F   0  0  0  0  0  0  0  0  0  0  0  0
  186.5900  177.4290  144.2950 C   0  0  2  0  0  3  0  0  0  0  0  0
  186.0740  178.8600  144.3340 C   0  0  0  0  0  1  0  0  0  0  0  0
  185.2240  177.1900  146.3730 C   0  0  0  0  0  1  0  0  0  0  0  0
  186.5130  176.7900  145.6780 C   0  0  0  0  0  2  0  0  0  0  0  0
  1  6  1  0  0  0  0
  2 12  1  6  0  0  0
  2  8  1  0  0  0  0
  3 10  1  0  0  0  0
  4  1  2  0  0  0  0
  5 12  1  0  0  0  0
  6 31  1  1  0  0  0
  6  2  1  0  0  0  0
  7  3  1  0  0  0  0
  8 13  1  1  0  0  0
  8 11  1  0  0  0  0
  9  1  1  0  0  0  0
  9  5  1  0  0  0  0
 11 16  1  6  0  0  0
 11 10  1  0  0  0  0
 12  7  2  0  0  0  0
 14 18  2  0  0  0  0
 14 15  1  0  0  0  0
 15 17  2  0  0  0  0
 16 19  2  0  0  0  0
 17 19  1  0  0  0  0
 18 16  1  0  0  0  0
 20 14  1  0  0  0  0
 21 23  1  0  0  0  0
 22 28  1  1  0  0  0
 22 21  1  0  0  0  0
 23 27  1  1  0  0  0
 23  9  1  0  0  0  0
 24 27  1  0  0  0  0
 25 26  1  0  0  0  0
 25 24  1  0  0  0  0
 26 22  1  0  0  0  0
 28 29  1  0  0  0  0
 30 29  1  0  0  0  0
 31 32  1  1  0  0  0
 31 34  1  0  0  0  0
 34 33  1  0  0  0  0
M  END
>  <MODEL>
5

>  <REMARK>
 VINA RESULT:      -6.5      2.532      6.113
  Name = 
  6 active torsions:
  status: ('A' for Active; 'I' for Inactive)
    1  A    between atoms: C_1  and  C_15
    2  A    between atoms: C_1  and  C_19
    3  A    between atoms: O_3  and  C_13
    4  A    between atoms: O_3  and  C_17
    5  A    between atoms: C_12  and  C_28
    6  A    between atoms: C_14  and  N_25
                            x       y       z     vdW  Elec       q    Type
                         _______ _______ _______ _____ _____    ______ ____

>  <TORSDO>
F 6

$$$$
=
 OpenBabel11052418413D

 34 37  0  0  1  0  0  0  0  0999 V2000
  190.5200  176.9750  144.0980 C   0  0  0  0  0  0  0  0  0  0  0  0
  191.4950  174.6340  144.1590 C   0  0  2  0  0  3  0  0  0  0  0  0
  190.5540  171.8120  143.9000 O   0  0  0  0  0  0  0  0  0  0  0  0
  190.7000  178.1600  143.7050 O   0  0  0  0  0  0  0  0  0  0  0  0
  189.0040  175.1200  144.8240 C   0  0  0  0  0  2  0  0  0  0  0  0
  191.7040  176.1340  144.4650 C   0  0  2  0  0  3  0  0  0  0  0  0
  189.7080  172.8750  144.2620 C   0  0  0  0  0  3  0  0  0  0  0  0
  191.9440  174.2580  142.7360 C   0  0  2  0  0  3  0  0  0  0  0  0
  189.1920  176.4360  144.2270 N   0  0  0  0  0  0  0  0  0  0  0  0
  191.9720  171.8960  143.8020 C   0  0  0  0  0  2  0  0  0  0  0  0
  192.4090  172.7950  142.6420 C   0  0  1  0  0  3  0  0  0  0  0  0
  190.0720  174.1580  144.3940 C   0  0  0  0  0  0  0  0  0  0  0  0
  192.9760  175.0870  142.2870 O   0  0  0  0  0  1  0  0  0  0  0  0
  190.9230  172.1900  139.1920 C   0  0  0  0  0  0  0  0  0  0  0  0
  191.4850  170.9440  138.8740 C   0  0  0  0  0  3  0  0  0  0  0  0
  192.1040  172.1820  141.3110 C   0  0  0  0  0  0  0  0  0  0  0  0
  192.3490  170.3160  139.7730 C   0  0  0  0  0  3  0  0  0  0  0  0
  191.2290  172.8050  140.4090 C   0  0  0  0  0  3  0  0  0  0  0  0
  192.6560  170.9340  140.9910 C   0  0  0  0  0  3  0  0  0  0  0  0
  189.9960  172.8510  138.2390 C   0  0  0  0  0  1  0  0  0  0  0  0
  187.9770  178.2900  145.0060 O   0  0  0  0  0  0  0  0  0  0  0  0
  186.6560  178.4790  145.4850 C   0  0  1  0  0  3  0  0  0  0  0  0
  188.0020  177.2640  144.0400 C   0  0  1  0  0  3  0  0  0  0  0  0
  186.5680  178.2680  142.2130 C   0  0  0  0  0  2  0  0  0  0  0  0
  185.9410  179.2650  143.1820 C   0  0  0  0  0  2  0  0  0  0  0  0
  185.5090  178.5470  144.4550 C   0  0  0  0  0  2  0  0  0  0  0  0
  187.9780  177.8600  142.6330 C   0  0  0  0  0  2  0  0  0  0  0  0
  186.3700  177.7340  146.6480 O   0  0  0  0  0  0  0  0  0  0  0  0
  184.9990  177.4430  146.6660 C   0  0  0  0  0  2  0  0  0  0  0  0
  184.8090  176.0770  146.5130 F   0  0  0  0  0  0  0  0  0  0  0  0
  192.1950  176.4190  145.8910 C   0  0  2  0  0  3  0  0  0  0  0  0
  193.0910  175.2890  146.3750 C   0  0  0  0  0  1  0  0  0  0  0  0
  191.1160  175.6590  148.0120 C   0  0  0  0  0  1  0  0  0  0  0  0
  191.0640  176.6720  146.8820 C   0  0  0  0  0  2  0  0  0  0  0  0
  1  9  1  0  0  0  0
  1  6  1  0  0  0  0
  2 12  1  6  0  0  0
  2  6  1  0  0  0  0
  3  7  1  0  0  0  0
  4  1  2  0  0  0  0
  6 31  1  1  0  0  0
  7 12  2  0  0  0  0
  8 13  1  1  0  0  0
  8  2  1  0  0  0  0
  9  5  1  0  0  0  0
 10  3  1  0  0  0  0
 11 16  1  6  0  0  0
 11  8  1  0  0  0  0
 11 10  1  0  0  0  0
 12  5  1  0  0  0  0
 14 18  1  0  0  0  0
 15 14  2  0  0  0  0
 15 17  1  0  0  0  0
 17 19  2  0  0  0  0
 18 16  2  0  0  0  0
 19 16  1  0  0  0  0
 20 14  1  0  0  0  0
 21 22  1  0  0  0  0
 22 28  1  1  0  0  0
 23 27  1  6  0  0  0
 23  9  1  0  0  0  0
 23 21  1  0  0  0  0
 24 27  1  0  0  0  0
 24 25  1  0  0  0  0
 25 26  1  0  0  0  0
 26 22  1  0  0  0  0
 28 29  1  0  0  0  0
 30 29  1  0  0  0  0
 31 32  1  1  0  0  0
 31 34  1  0  0  0  0
 34 33  1  0  0  0  0
M  END
>  <MODEL>
6

>  <REMARK>
 VINA RESULT:      -6.2      1.544      2.245
  Name = 
  6 active torsions:
  status: ('A' for Active; 'I' for Inactive)
    1  A    between atoms: C_1  and  C_15
    2  A    between atoms: C_1  and  C_19
    3  A    between atoms: O_3  and  C_13
    4  A    between atoms: O_3  and  C_17
    5  A    between atoms: C_12  and  C_28
    6  A    between atoms: C_14  and  N_25
                            x       y       z     vdW  Elec       q    Type
                         _______ _______ _______ _____ _____    ______ ____

>  <TORSDO>
F 6

$$$$
=
 OpenBabel11052418413D

 34 37  0  0  1  0  0  0  0  0999 V2000
  189.7340  173.9970  142.7410 C   0  0  0  0  0  0  0  0  0  0  0  0
  192.1420  174.0880  141.9480 C   0  0  2  0  0  3  0  0  0  0  0  0
  194.5850  175.7460  142.4010 O   0  0  0  0  0  0  0  0  0  0  0  0
  188.7880  173.2380  143.0870 O   0  0  0  0  0  0  0  0  0  0  0  0
  190.8660  176.2300  142.7640 C   0  0  0  0  0  2  0  0  0  0  0  0
  190.7230  173.5210  141.7210 C   0  0  2  0  0  3  0  0  0  0  0  0
  193.2820  176.2120  142.6480 C   0  0  0  0  0  3  0  0  0  0  0  0
  192.9900  173.1940  142.8690 C   0  0  2  0  0  3  0  0  0  0  0  0
  189.8550  175.3220  143.2890 N   0  0  0  0  0  0  0  0  0  0  0  0
  194.9010  174.5280  141.7350 C   0  0  0  0  0  2  0  0  0  0  0  0
  194.4930  173.3050  142.5620 C   0  0  1  0  0  3  0  0  0  0  0  0
  192.1500  175.5170  142.4650 C   0  0  0  0  0  0  0  0  0  0  0  0
  192.6110  171.8520  142.7740 O   0  0  0  0  0  1  0  0  0  0  0  0
  196.4540  171.7530  145.4300 C   0  0  0  0  0  0  0  0  0  0  0  0
  196.8440  172.9000  146.1380 C   0  0  0  0  0  3  0  0  0  0  0  0
  195.3410  173.1470  143.7860 C   0  0  0  0  0  0  0  0  0  0  0  0
  196.4790  174.1650  145.6750 C   0  0  0  0  0  3  0  0  0  0  0  0
  195.7010  171.8770  144.2580 C   0  0  0  0  0  3  0  0  0  0  0  0
  195.7270  174.2890  144.5020 C   0  0  0  0  0  3  0  0  0  0  0  0
  196.8340  170.4070  145.9290 C   0  0  0  0  0  1  0  0  0  0  0  0
  189.3980  176.8790  144.9890 O   0  0  0  0  0  0  0  0  0  0  0  0
  188.8610  176.7880  146.2980 C   0  0  1  0  0  3  0  0  0  0  0  0
  188.8280  175.8930  144.1600 C   0  0  1  0  0  3  0  0  0  0  0  0
  186.4000  176.6080  144.1360 C   0  0  0  0  0  2  0  0  0  0  0  0
  186.5820  177.4430  145.4000 C   0  0  0  0  0  2  0  0  0  0  0  0
  187.3330  176.6350  146.4510 C   0  0  0  0  0  2  0  0  0  0  0  0
  187.6920  176.4900  143.3300 C   0  0  0  0  0  2  0  0  0  0  0  0
  189.6310  175.9840  147.1650 O   0  0  0  0  0  0  0  0  0  0  0  0
  188.9330  174.7930  147.4070 C   0  0  0  0  0  2  0  0  0  0  0  0
  189.3490  173.8170  146.5130 F   0  0  0  0  0  0  0  0  0  0  0  0
  190.2020  173.6930  140.2880 C   0  0  2  0  0  3  0  0  0  0  0  0
  188.9740  172.8230  140.0660 C   0  0  0  0  0  1  0  0  0  0  0  0
  190.6530  173.5450  137.8350 C   0  0  0  0  0  1  0  0  0  0  0  0
  191.2580  173.4160  139.2220 C   0  0  0  0  0  2  0  0  0  0  0  0
  1  4  2  0  0  0  0
  1  9  1  0  0  0  0
  2 12  1  1  0  0  0
  2  8  1  0  0  0  0
  3  7  1  0  0  0  0
  5  9  1  0  0  0  0
  6 31  1  6  0  0  0
  6  2  1  0  0  0  0
  6  1  1  0  0  0  0
  8 13  1  6  0  0  0
 10  3  1  0  0  0  0
 10 11  1  0  0  0  0
 11  8  1  0  0  0  0
 11 16  1  1  0  0  0
 12  7  2  0  0  0  0
 12  5  1  0  0  0  0
 14 20  1  0  0  0  0
 14 15  1  0  0  0  0
 16 18  1  0  0  0  0
 16 19  2  0  0  0  0
 17 15  2  0  0  0  0
 18 14  2  0  0  0  0
 19 17  1  0  0  0  0
 21 22  1  0  0  0  0
 22 26  1  0  0  0  0
 22 28  1  6  0  0  0
 23  9  1  6  0  0  0
 23 21  1  0  0  0  0
 24 25  1  0  0  0  0
 25 26  1  0  0  0  0
 27 24  1  0  0  0  0
 27 23  1  0  0  0  0
 28 29  1  0  0  0  0
 30 29  1  0  0  0  0
 31 32  1  6  0  0  0
 33 34  1  0  0  0  0
 34 31  1  0  0  0  0
M  END
>  <MODEL>
7

>  <REMARK>
 VINA RESULT:      -6.1      2.866      5.791
  Name = 
  6 active torsions:
  status: ('A' for Active; 'I' for Inactive)
    1  A    between atoms: C_1  and  C_15
    2  A    between atoms: C_1  and  C_19
    3  A    between atoms: O_3  and  C_13
    4  A    between atoms: O_3  and  C_17
    5  A    between atoms: C_12  and  C_28
    6  A    between atoms: C_14  and  N_25
                            x       y       z     vdW  Elec       q    Type
                         _______ _______ _______ _____ _____    ______ ____

>  <TORSDO>
F 6

$$$$
=
 OpenBabel11052418413D

 34 37  0  0  1  0  0  0  0  0999 V2000
  193.1500  173.6540  144.9420 C   0  0  0  0  0  0  0  0  0  0  0  0
  192.1330  175.9760  145.0340 C   0  0  2  0  0  3  0  0  0  0  0  0
  190.3700  177.7140  143.3630 O   0  0  0  0  0  0  0  0  0  0  0  0
  193.4350  172.6230  145.6100 O   0  0  0  0  0  0  0  0  0  0  0  0
  192.6490  174.7750  142.7600 C   0  0  0  0  0  2  0  0  0  0  0  0
  193.1790  174.9950  145.6090 C   0  0  2  0  0  3  0  0  0  0  0  0
  191.1170  176.6440  142.8390 C   0  0  0  0  0  3  0  0  0  0  0  0
  190.7810  175.8850  145.7630 C   0  0  2  0  0  3  0  0  0  0  0  0
  192.8280  173.5580  143.5420 N   0  0  0  0  0  0  0  0  0  0  0  0
  190.4990  178.2250  144.6860 C   0  0  0  0  0  2  0  0  0  0  0  0
  190.0150  177.2190  145.7340 C   0  0  1  0  0  3  0  0  0  0  0  0
  191.9230  175.8320  143.5370 C   0  0  0  0  0  0  0  0  0  0  0  0
  190.9400  175.4880  147.0930 O   0  0  0  0  0  1  0  0  0  0  0  0
  186.4520  176.8740  144.4450 C   0  0  0  0  0  0  0  0  0  0  0  0
  185.7420  176.7660  145.6500 C   0  0  0  0  0  3  0  0  0  0  0  0
  188.5310  177.0260  145.6850 C   0  0  0  0  0  0  0  0  0  0  0  0
  186.4220  176.7930  146.8680 C   0  0  0  0  0  3  0  0  0  0  0  0
  187.8430  177.0080  144.4630 C   0  0  0  0  0  3  0  0  0  0  0  0
  187.8150  176.9250  146.8850 C   0  0  0  0  0  3  0  0  0  0  0  0
  185.7250  176.8560  143.1500 C   0  0  0  0  0  1  0  0  0  0  0  0
  192.0640  171.3440  143.3530 O   0  0  0  0  0  0  0  0  0  0  0  0
  192.6900  170.0730  143.4010 C   0  0  1  0  0  3  0  0  0  0  0  0
  192.9460  172.2990  142.8080 C   0  0  1  0  0  3  0  0  0  0  0  0
  193.2490  171.4100  140.4580 C   0  0  0  0  0  2  0  0  0  0  0  0
  192.7650  170.0220  140.8670 C   0  0  0  0  0  2  0  0  0  0  0  0
  193.4580  169.5900  142.1530 C   0  0  0  0  0  2  0  0  0  0  0  0
  192.6440  172.5120  141.3250 C   0  0  0  0  0  2  0  0  0  0  0  0
  193.3250  169.8070  144.6320 O   0  0  0  0  0  0  0  0  0  0  0  0
  193.0430  168.4840  145.0040 C   0  0  0  0  0  2  0  0  0  0  0  0
  193.5870  168.2230  146.2520 F   0  0  0  0  0  0  0  0  0  0  0  0
  194.5990  175.5690  145.6880 C   0  0  2  0  0  3  0  0  0  0  0  0
  194.5470  177.0830  145.8340 C   0  0  0  0  0  1  0  0  0  0  0  0
  195.8990  176.4030  143.7250 C   0  0  0  0  0  1  0  0  0  0  0  0
  195.4810  175.1720  144.5080 C   0  0  0  0  0  2  0  0  0  0  0  0
  1  6  1  0  0  0  0
  1  4  2  0  0  0  0
  2 12  1  6  0  0  0
  2  6  1  0  0  0  0
  2  8  1  0  0  0  0
  3 10  1  0  0  0  0
  5 12  1  0  0  0  0
  5  9  1  0  0  0  0
  6 31  1  6  0  0  0
  7  3  1  0  0  0  0
  7 12  2  0  0  0  0
  8 13  1  1  0  0  0
  9  1  1  0  0  0  0
 10 11  1  0  0  0  0
 11 16  1  6  0  0  0
 11  8  1  0  0  0  0
 14 18  2  0  0  0  0
 14 15  1  0  0  0  0
 15 17  2  0  0  0  0
 16 19  2  0  0  0  0
 17 19  1  0  0  0  0
 18 16  1  0  0  0  0
 20 14  1  0  0  0  0
 21 22  1  0  0  0  0
 22 28  1  1  0  0  0
 23 27  1  6  0  0  0
 23 21  1  0  0  0  0
 23  9  1  0  0  0  0
 24 25  1  0  0  0  0
 24 27  1  0  0  0  0
 25 26  1  0  0  0  0
 26 22  1  0  0  0  0
 28 29  1  0  0  0  0
 29 30  1  0  0  0  0
 31 32  1  6  0  0  0
 33 34  1  0  0  0  0
 34 31  1  0  0  0  0
M  END
>  <MODEL>
8

>  <REMARK>
 VINA RESULT:      -6.1      3.050      7.565
  Name = 
  6 active torsions:
  status: ('A' for Active; 'I' for Inactive)
    1  A    between atoms: C_1  and  C_15
    2  A    between atoms: C_1  and  C_19
    3  A    between atoms: O_3  and  C_13
    4  A    between atoms: O_3  and  C_17
    5  A    between atoms: C_12  and  C_28
    6  A    between atoms: C_14  and  N_25
                            x       y       z     vdW  Elec       q    Type
                         _______ _______ _______ _____ _____    ______ ____

>  <TORSDO>
F 6

$$$$
=
 OpenBabel11052418413D

 34 37  0  0  1  0  0  0  0  0999 V2000
  193.3470  173.4240  142.4430 C   0  0  0  0  0  0  0  0  0  0  0  0
  191.0280  174.1830  141.7510 C   0  0  2  0  0  3  0  0  0  0  0  0
  188.1810  173.5480  142.3970 O   0  0  0  0  0  0  0  0  0  0  0  0
  194.5220  173.7990  142.7060 O   0  0  0  0  0  0  0  0  0  0  0  0
  191.4880  171.7590  142.6420 C   0  0  0  0  0  2  0  0  0  0  0  0
  192.5400  174.1840  141.4360 C   0  0  2  0  0  3  0  0  0  0  0  0
  189.2400  172.6500  142.6210 C   0  0  0  0  0  3  0  0  0  0  0  0
  190.6150  175.3610  142.6500 C   0  0  2  0  0  3  0  0  0  0  0  0
  192.7880  172.2570  143.0730 N   0  0  0  0  0  0  0  0  0  0  0  0
  188.2890  174.7700  141.6730 C   0  0  0  0  0  2  0  0  0  0  0  0
  189.1580  175.7920  142.4090 C   0  0  1  0  0  3  0  0  0  0  0  0
  190.5330  172.8780  142.3520 C   0  0  0  0  0  0  0  0  0  0  0  0
  191.4480  176.4680  142.4610 O   0  0  0  0  0  1  0  0  0  0  0  0
  187.0010  177.8350  144.7860 C   0  0  0  0  0  0  0  0  0  0  0  0
  187.3640  177.2800  146.0220 C   0  0  0  0  0  3  0  0  0  0  0  0
  188.4970  176.2990  143.6540 C   0  0  0  0  0  0  0  0  0  0  0  0
  188.2950  176.2410  146.0750 C   0  0  0  0  0  3  0  0  0  0  0  0
  187.5690  177.3480  143.6050 C   0  0  0  0  0  3  0  0  0  0  0  0
  188.8620  175.7530  144.8920 C   0  0  0  0  0  3  0  0  0  0  0  0
  186.0180  178.9480  144.7330 C   0  0  0  0  0  1  0  0  0  0  0  0
  193.8880  172.0560  145.1400 O   0  0  0  0  0  0  0  0  0  0  0  0
  195.2240  171.7850  145.5280 C   0  0  1  0  0  3  0  0  0  0  0  0
  193.5880  171.3880  143.9350 C   0  0  1  0  0  3  0  0  0  0  0  0
  193.7950  168.9680  144.6440 C   0  0  0  0  0  2  0  0  0  0  0  0
  194.6240  169.3450  145.8690 C   0  0  0  0  0  2  0  0  0  0  0  0
  195.7200  170.3240  145.4700 C   0  0  0  0  0  2  0  0  0  0  0  0
  192.8430  170.0850  144.2240 C   0  0  0  0  0  2  0  0  0  0  0  0
  196.1480  172.7470  145.0680 O   0  0  0  0  0  0  0  0  0  0  0  0
  196.1430  173.8320  145.9570 C   0  0  0  0  0  2  0  0  0  0  0  0
  197.1400  173.6610  146.9060 F   0  0  0  0  0  0  0  0  0  0  0  0
  192.8790  173.7760  139.9960 C   0  0  2  0  0  3  0  0  0  0  0  0
  193.8410  174.7790  139.3770 C   0  0  0  0  0  1  0  0  0  0  0  0
  191.9730  173.9640  137.6760 C   0  0  0  0  0  1  0  0  0  0  0  0
  191.6490  173.5930  139.1120 C   0  0  0  0  0  2  0  0  0  0  0  0
  1  4  2  0  0  0  0
  1  9  1  0  0  0  0
  2 12  1  1  0  0  0
  2  8  1  0  0  0  0
  3  7  1  0  0  0  0
  5  9  1  0  0  0  0
  6 31  1  6  0  0  0
  6  2  1  0  0  0  0
  6  1  1  0  0  0  0
  8 13  1  6  0  0  0
 10  3  1  0  0  0  0
 10 11  1  0  0  0  0
 11  8  1  0  0  0  0
 11 16  1  1  0  0  0
 12  7  2  0  0  0  0
 12  5  1  0  0  0  0
 14 15  1  0  0  0  0
 15 17  2  0  0  0  0
 16 19  2  0  0  0  0
 18 16  1  0  0  0  0
 18 14  2  0  0  0  0
 19 17  1  0  0  0  0
 20 14  1  0  0  0  0
 21 22  1  0  0  0  0
 22 28  1  6  0  0  0
 23  9  1  6  0  0  0
 23 27  1  0  0  0  0
 23 21  1  0  0  0  0
 24 25  1  0  0  0  0
 26 22  1  0  0  0  0
 26 25  1  0  0  0  0
 27 24  1  0  0  0  0
 28 29  1  0  0  0  0
 29 30  1  0  0  0  0
 31 32  1  6  0  0  0
 33 34  1  0  0  0  0
 34 31  1  0  0  0  0
M  END
>  <MODEL>
9

>  <REMARK>
 VINA RESULT:      -6.1      3.365      7.821
  Name = 
  6 active torsions:
  status: ('A' for Active; 'I' for Inactive)
    1  A    between atoms: C_1  and  C_15
    2  A    between atoms: C_1  and  C_19
    3  A    between atoms: O_3  and  C_13
    4  A    between atoms: O_3  and  C_17
    5  A    between atoms: C_12  and  C_28
    6  A    between atoms: C_14  and  N_25
                            x       y       z     vdW  Elec       q    Type
                         _______ _______ _______ _____ _____    ______ ____

>  <TORSDO>
F 6

$$$$
