=
 OpenBabel11052419043D

 32 38  0  0  1  0  0  0  0  0999 V2000
  190.2790  176.2640  144.5020 C   0  0  1  0  0  3  0  0  0  0  0  0
  187.9520  177.3150  144.4690 C   0  0  0  0  0  0  0  0  0  0  0  0
  191.5440  176.6320  145.2330 C   0  0  0  0  0  3  0  0  0  0  0  0
  189.0640  176.8590  145.1910 C   0  0  0  0  0  0  0  0  0  0  0  0
  186.8340  177.8220  145.1620 C   0  0  0  0  0  0  0  0  0  0  0  0
  185.5610  178.2570  140.1640 C   0  0  0  0  0  2  0  0  0  0  0  0
  187.9770  177.2050  142.9650 C   0  0  2  0  0  3  0  0  0  0  0  0
  184.5780  178.6630  142.3120 O   0  0  0  0  0  0  0  0  0  0  0  0
  185.5650  177.9150  142.9810 C   0  0  2  0  0  3  0  0  0  0  0  0
  189.0660  176.9600  146.5900 C   0  0  0  0  0  0  0  0  0  0  0  0
  185.6690  178.4170  144.4160 C   0  0  0  0  0  2  0  0  0  0  0  0
  187.9800  177.4510  147.2390 N   0  0  0  0  0  0  0  0  0  0  0  0
  190.2750  176.5130  147.3660 C   0  0  0  0  0  2  0  0  0  0  0  0
  189.3790  177.5560  142.4710 C   0  0  0  0  0  2  0  0  0  0  0  0
  190.4020  176.5300  142.9850 C   0  0  2  0  0  3  0  0  0  0  0  0
  186.9230  178.0710  142.2730 C   0  0  2  0  0  3  0  0  0  0  0  0
  186.8720  177.8740  146.5710 C   0  0  0  0  0  0  0  0  0  0  0  0
  191.5390  176.7470  146.5710 C   0  0  0  0  0  3  0  0  0  0  0  0
  184.3550  178.0380  141.0730 C   0  0  0  0  0  2  0  0  0  0  0  0
  186.7830  177.6210  140.8150 C   0  0  0  0  0  2  0  0  0  0  0  0
  191.5480  173.4740  140.7580 C   0  0  2  0  0  3  0  0  0  0  0  0
  189.6280  171.5090  142.9710 C   0  0  0  0  0  1  0  0  0  0  0  0
  191.9940  173.7040  139.3290 C   0  0  0  0  0  1  0  0  0  0  0  0
  188.3670  173.6550  142.4200 C   0  0  0  0  0  2  0  0  0  0  0  0
  190.3090  175.2150  142.1910 C   0  0  2  0  0  3  0  0  0  0  0  0
  190.1510  172.8470  140.7650 C   0  0  0  0  0  2  0  0  0  0  0  0
  189.7070  174.0720  143.0190 C   0  0  2  0  0  3  0  0  0  0  0  0
  191.6500  174.7860  141.5540 C   0  0  1  0  0  3  0  0  0  0  0  0
  192.7550  174.6520  142.5920 C   0  0  0  0  0  1  0  0  0  0  0  0
  189.5890  172.8030  142.1840 C   0  0  2  0  0  0  0  0  0  0  0  0
  185.7350  178.4390  147.3560 C   0  0  0  0  0  2  0  0  0  0  0  0
  186.0870  179.6940  147.8540 O   0  0  0  0  0  1  0  0  0  0  0  0
  1  4  1  0  0  0  0
  1  3  1  1  0  0  0
  2  5  2  0  0  0  0
  2  4  1  0  0  0  0
  3 18  2  0  0  0  0
  4 10  2  0  0  0  0
  5 17  1  0  0  0  0
  6 20  1  0  0  0  0
  6 19  1  0  0  0  0
  7 14  1  6  0  0  0
  7  2  1  0  0  0  0
  8  9  1  0  0  0  0
  9 11  1  1  0  0  0
 10 12  1  0  0  0  0
 10 13  1  0  0  0  0
 11  5  1  0  0  0  0
 15 14  1  6  0  0  0
 15  1  1  0  0  0  0
 16 20  1  6  0  0  0
 16  7  1  0  0  0  0
 16  9  1  0  0  0  0
 17 12  2  0  0  0  0
 17 31  1  0  0  0  0
 18 13  1  0  0  0  0
 19  8  1  0  0  0  0
 21 23  1  6  0  0  0
 21 26  1  0  0  0  0
 21 28  1  0  0  0  0
 25 15  1  1  0  0  0
 25 27  1  0  0  0  0
 26 30  1  0  0  0  0
 27 24  1  6  0  0  0
 28 25  1  0  0  0  0
 28 29  1  1  0  0  0
 30 24  1  0  0  0  0
 30 22  1  1  0  0  0
 30 27  1  0  0  0  0
 31 32  1  0  0  0  0
M  END
>  <MODEL>
1

>  <REMARK>
 VINA RESULT:      -8.7      0.000      0.000
  Name = 
  2 active torsions:
  status: ('A' for Active; 'I' for Inactive)
    1  A    between atoms: C_13  and  CA_29
    2  A    between atoms: C_16  and  C_27
                            x       y       z     vdW  Elec       q    Type
                         _______ _______ _______ _____ _____    ______ ____

>  <TORSDO>
F 2

$$$$
=
 OpenBabel11052419043D

 32 38  0  0  1  0  0  0  0  0999 V2000
  188.8470  175.3340  142.0320 C   0  0  1  0  0  3  0  0  0  0  0  0
  186.9690  176.8930  142.7810 C   0  0  0  0  0  0  0  0  0  0  0  0
  188.8680  174.1520  141.1000 C   0  0  0  0  0  3  0  0  0  0  0  0
  187.6480  176.2210  141.7540 C   0  0  0  0  0  0  0  0  0  0  0  0
  185.8850  177.7360  142.4630 C   0  0  0  0  0  0  0  0  0  0  0  0
  186.2430  177.9880  147.6200 C   0  0  0  0  0  2  0  0  0  0  0  0
  187.4570  176.7200  144.1980 C   0  0  2  0  0  3  0  0  0  0  0  0
  184.9340  178.9530  145.8590 O   0  0  0  0  0  0  0  0  0  0  0  0
  185.8290  178.5170  144.8630 C   0  0  2  0  0  3  0  0  0  0  0  0
  187.2050  176.3600  140.4310 C   0  0  0  0  0  0  0  0  0  0  0  0
  185.0700  178.3880  143.5480 C   0  0  0  0  0  2  0  0  0  0  0  0
  186.1600  177.1770  140.1440 N   0  0  0  0  0  0  0  0  0  0  0  0
  187.9030  175.6060  139.3310 C   0  0  0  0  0  2  0  0  0  0  0  0
  187.8600  175.2620  144.4030 C   0  0  0  0  0  2  0  0  0  0  0  0
  189.0510  174.9010  143.5020 C   0  0  2  0  0  3  0  0  0  0  0  0
  186.4380  177.1580  145.2510 C   0  0  2  0  0  3  0  0  0  0  0  0
  185.4990  177.8670  141.1130 C   0  0  0  0  0  0  0  0  0  0  0  0
  188.4260  174.2810  139.8370 C   0  0  0  0  0  3  0  0  0  0  0  0
  185.7020  179.2690  146.9940 C   0  0  0  0  0  2  0  0  0  0  0  0
  187.1420  177.2920  146.6050 C   0  0  0  0  0  2  0  0  0  0  0  0
  192.3180  175.1750  145.7080 C   0  0  2  0  0  3  0  0  0  0  0  0
  193.8930  176.2370  142.7350 C   0  0  0  0  0  1  0  0  0  0  0  0
  192.2060  175.3360  147.2100 C   0  0  0  0  0  1  0  0  0  0  0  0
  191.5980  177.3310  142.9250 C   0  0  0  0  0  2  0  0  0  0  0  0
  190.3620  175.4790  144.0640 C   0  0  2  0  0  3  0  0  0  0  0  0
  192.7240  176.5100  145.0770 C   0  0  0  0  0  2  0  0  0  0  0  0
  191.3720  175.8230  142.9610 C   0  0  2  0  0  3  0  0  0  0  0  0
  191.0120  174.5890  145.1470 C   0  0  1  0  0  3  0  0  0  0  0  0
  191.2790  173.1790  144.6380 C   0  0  0  0  0  1  0  0  0  0  0  0
  192.6350  176.4350  143.5550 C   0  0  2  0  0  0  0  0  0  0  0  0
  184.3330  178.7120  140.7190 C   0  0  0  0  0  2  0  0  0  0  0  0
  183.3450  177.9120  140.1460 O   0  0  0  0  0  1  0  0  0  0  0  0
  1  3  1  6  0  0  0
  1 15  1  0  0  0  0
  2  7  1  0  0  0  0
  4  1  1  0  0  0  0
  4  2  2  0  0  0  0
  5  2  1  0  0  0  0
  5 11  1  0  0  0  0
  7 14  1  1  0  0  0
  7 16  1  0  0  0  0
  8 19  1  0  0  0  0
  9 11  1  6  0  0  0
  9 16  1  0  0  0  0
  9  8  1  0  0  0  0
 10  4  1  0  0  0  0
 12 10  2  0  0  0  0
 12 17  1  0  0  0  0
 13 18  1  0  0  0  0
 13 10  1  0  0  0  0
 15 14  1  1  0  0  0
 16 20  1  1  0  0  0
 17  5  2  0  0  0  0
 18  3  2  0  0  0  0
 19  6  1  0  0  0  0
 20  6  1  0  0  0  0
 21 23  1  1  0  0  0
 24 30  1  0  0  0  0
 25 15  1  6  0  0  0
 25 28  1  0  0  0  0
 26 21  1  0  0  0  0
 27 24  1  6  0  0  0
 27 30  1  0  0  0  0
 27 25  1  0  0  0  0
 28 29  1  6  0  0  0
 28 21  1  0  0  0  0
 30 22  1  6  0  0  0
 30 26  1  0  0  0  0
 31 17  1  0  0  0  0
 32 31  1  0  0  0  0
M  END
>  <MODEL>
2

>  <REMARK>
 VINA RESULT:      -7.9      2.148      5.206
  Name = 
  2 active torsions:
  status: ('A' for Active; 'I' for Inactive)
    1  A    between atoms: C_13  and  CA_29
    2  A    between atoms: C_16  and  C_27
                            x       y       z     vdW  Elec       q    Type
                         _______ _______ _______ _____ _____    ______ ____

>  <TORSDO>
F 2

$$$$
=
 OpenBabel11052419043D

 32 38  0  0  1  0  0  0  0  0999 V2000
  192.4700  175.4380  144.2500 C   0  0  1  0  0  3  0  0  0  0  0  0
  190.5950  176.4900  145.6260 C   0  0  0  0  0  0  0  0  0  0  0  0
  193.8800  175.8800  143.9590 C   0  0  0  0  0  3  0  0  0  0  0  0
  191.9400  176.1130  145.5010 C   0  0  0  0  0  0  0  0  0  0  0  0
  190.1460  177.0790  146.8260 C   0  0  0  0  0  0  0  0  0  0  0  0
  185.9460  176.9500  143.8040 C   0  0  0  0  0  2  0  0  0  0  0  0
  189.6600  176.2100  144.4760 C   0  0  2  0  0  3  0  0  0  0  0  0
  186.5380  177.6030  146.0330 O   0  0  0  0  0  0  0  0  0  0  0  0
  187.7740  176.9300  145.9750 C   0  0  2  0  0  3  0  0  0  0  0  0
  192.8280  176.3730  146.5550 C   0  0  0  0  0  0  0  0  0  0  0  0
  188.7360  177.5910  146.9540 C   0  0  0  0  0  2  0  0  0  0  0  0
  192.3770  176.9400  147.7020 N   0  0  0  0  0  0  0  0  0  0  0  0
  194.2810  176.0100  146.4080 C   0  0  0  0  0  2  0  0  0  0  0  0
  190.3940  176.4960  143.1670 C   0  0  0  0  0  2  0  0  0  0  0  0
  191.5760  175.5300  142.9920 C   0  0  2  0  0  3  0  0  0  0  0  0
  188.3500  176.9970  144.5490 C   0  0  2  0  0  3  0  0  0  0  0  0
  191.0720  177.2900  147.8680 C   0  0  0  0  0  0  0  0  0  0  0  0
  194.7250  176.1460  144.9690 C   0  0  0  0  0  3  0  0  0  0  0  0
  185.6180  176.8420  145.2910 C   0  0  0  0  0  2  0  0  0  0  0  0
  187.3420  176.3860  143.5710 C   0  0  0  0  0  2  0  0  0  0  0  0
  190.8160  172.4400  140.6490 C   0  0  2  0  0  3  0  0  0  0  0  0
  192.0390  170.4810  143.3150 C   0  0  0  0  0  1  0  0  0  0  0  0
  189.8000  172.5690  139.5320 C   0  0  0  0  0  1  0  0  0  0  0  0
  190.5590  172.3430  144.2320 C   0  0  0  0  0  2  0  0  0  0  0  0
  191.0880  174.1330  142.5680 C   0  0  2  0  0  3  0  0  0  0  0  0
  190.2170  171.6210  141.7950 C   0  0  0  0  0  2  0  0  0  0  0  0
  191.6760  173.0160  143.4400 C   0  0  2  0  0  3  0  0  0  0  0  0
  191.3110  173.8350  141.0680 C   0  0  1  0  0  3  0  0  0  0  0  0
  192.7720  173.9830  140.6700 C   0  0  0  0  0  1  0  0  0  0  0  0
  191.1330  171.6560  143.0170 C   0  0  2  0  0  0  0  0  0  0  0  0
  190.6650  177.9460  149.1460 C   0  0  0  0  0  2  0  0  0  0  0  0
  191.7940  178.1970  149.9250 O   0  0  0  0  0  1  0  0  0  0  0  0
  1  3  1  6  0  0  0
  1  4  1  0  0  0  0
  2  5  1  0  0  0  0
  3 18  2  0  0  0  0
  4  2  2  0  0  0  0
  4 10  1  0  0  0  0
  5 11  1  0  0  0  0
  5 17  2  0  0  0  0
  6 19  1  0  0  0  0
  7 14  1  6  0  0  0
  7 16  1  0  0  0  0
  7  2  1  0  0  0  0
  9  8  1  0  0  0  0
  9 11  1  1  0  0  0
 10 12  2  0  0  0  0
 12 17  1  0  0  0  0
 13 10  1  0  0  0  0
 15 14  1  1  0  0  0
 15  1  1  0  0  0  0
 16 20  1  6  0  0  0
 16  9  1  0  0  0  0
 17 31  1  0  0  0  0
 18 13  1  0  0  0  0
 19  8  1  0  0  0  0
 20  6  1  0  0  0  0
 21 23  1  6  0  0  0
 21 28  1  0  0  0  0
 21 26  1  0  0  0  0
 25 15  1  1  0  0  0
 25 27  1  0  0  0  0
 26 30  1  0  0  0  0
 27 24  1  1  0  0  0
 28 29  1  1  0  0  0
 28 25  1  0  0  0  0
 30 22  1  1  0  0  0
 30 27  1  0  0  0  0
 30 24  1  0  0  0  0
 31 32  1  0  0  0  0
M  END
>  <MODEL>
3

>  <REMARK>
 VINA RESULT:      -7.5      2.094      3.333
  Name = 
  2 active torsions:
  status: ('A' for Active; 'I' for Inactive)
    1  A    between atoms: C_13  and  CA_29
    2  A    between atoms: C_16  and  C_27
                            x       y       z     vdW  Elec       q    Type
                         _______ _______ _______ _____ _____    ______ ____

>  <TORSDO>
F 2

$$$$
=
 OpenBabel11052419043D

 32 38  0  0  1  0  0  0  0  0999 V2000
  189.6060  174.2020  142.0440 C   0  0  1  0  0  3  0  0  0  0  0  0
  187.8060  175.9340  141.5150 C   0  0  0  0  0  0  0  0  0  0  0  0
  189.7450  172.7470  141.6840 C   0  0  0  0  0  3  0  0  0  0  0  0
  188.6610  174.9080  141.0890 C   0  0  0  0  0  0  0  0  0  0  0  0
  186.9780  176.5840  140.5770 C   0  0  0  0  0  0  0  0  0  0  0  0
  185.8550  178.8630  145.0870 C   0  0  0  0  0  2  0  0  0  0  0  0
  187.8360  176.3380  142.9690 C   0  0  2  0  0  3  0  0  0  0  0  0
  185.2460  179.0520  142.7760 O   0  0  0  0  0  0  0  0  0  0  0  0
  186.3280  178.2550  142.3560 C   0  0  2  0  0  3  0  0  0  0  0  0
  188.6430  174.5110  139.7440 C   0  0  0  0  0  0  0  0  0  0  0  0
  185.9730  177.6150  141.0200 C   0  0  0  0  0  2  0  0  0  0  0  0
  187.8390  175.1490  138.8560 N   0  0  0  0  0  0  0  0  0  0  0  0
  189.5270  173.3810  139.2910 C   0  0  0  0  0  2  0  0  0  0  0  0
  187.9720  175.0800  143.8240 C   0  0  0  0  0  2  0  0  0  0  0  0
  189.3180  174.3880  143.5520 C   0  0  2  0  0  3  0  0  0  0  0  0
  186.6200  177.1600  143.3980 C   0  0  2  0  0  3  0  0  0  0  0  0
  187.0190  176.1690  139.2310 C   0  0  0  0  0  0  0  0  0  0  0  0
  189.7080  172.3660  140.3960 C   0  0  0  0  0  3  0  0  0  0  0  0
  185.6860  179.7910  143.8880 C   0  0  0  0  0  2  0  0  0  0  0  0
  186.9130  177.8190  144.7500 C   0  0  0  0  0  2  0  0  0  0  0  0
  192.2470  175.1180  146.1020 C   0  0  2  0  0  3  0  0  0  0  0  0
  194.0110  176.3170  143.2920 C   0  0  0  0  0  1  0  0  0  0  0  0
  191.9410  175.2910  147.5760 C   0  0  0  0  0  1  0  0  0  0  0  0
  191.5910  177.1130  143.1860 C   0  0  0  0  0  2  0  0  0  0  0  0
  190.4720  175.1390  144.2380 C   0  0  2  0  0  3  0  0  0  0  0  0
  192.5530  176.4820  145.4770 C   0  0  0  0  0  2  0  0  0  0  0  0
  191.5520  175.5890  143.2460 C   0  0  2  0  0  3  0  0  0  0  0  0
  191.0980  174.3590  145.4170 C   0  0  1  0  0  3  0  0  0  0  0  0
  191.5960  172.9860  144.9880 C   0  0  0  0  0  1  0  0  0  0  0  0
  192.6520  176.3680  143.9580 C   0  0  2  0  0  0  0  0  0  0  0  0
  186.1350  176.7900  138.2010 C   0  0  0  0  0  2  0  0  0  0  0  0
  186.4880  176.3230  136.9350 O   0  0  0  0  0  1  0  0  0  0  0  0
  1  3  1  6  0  0  0
  1 15  1  0  0  0  0
  2  7  1  0  0  0  0
  4  2  1  0  0  0  0
  4  1  1  0  0  0  0
  5 11  1  0  0  0  0
  5  2  2  0  0  0  0
  7 16  1  0  0  0  0
  7 14  1  1  0  0  0
  8 19  1  0  0  0  0
  9 11  1  6  0  0  0
  9  8  1  0  0  0  0
  9 16  1  0  0  0  0
 10  4  2  0  0  0  0
 12 17  2  0  0  0  0
 12 10  1  0  0  0  0
 13 10  1  0  0  0  0
 13 18  1  0  0  0  0
 15 14  1  6  0  0  0
 16 20  1  1  0  0  0
 17  5  1  0  0  0  0
 18  3  2  0  0  0  0
 19  6  1  0  0  0  0
 20  6  1  0  0  0  0
 21 23  1  1  0  0  0
 24 30  1  0  0  0  0
 25 15  1  6  0  0  0
 25 28  1  0  0  0  0
 26 21  1  0  0  0  0
 27 24  1  6  0  0  0
 27 30  1  0  0  0  0
 27 25  1  0  0  0  0
 28 29  1  6  0  0  0
 28 21  1  0  0  0  0
 30 22  1  6  0  0  0
 30 26  1  0  0  0  0
 31 17  1  0  0  0  0
 32 31  1  0  0  0  0
M  END
>  <MODEL>
4

>  <REMARK>
 VINA RESULT:      -7.3      2.441      5.563
  Name = 
  2 active torsions:
  status: ('A' for Active; 'I' for Inactive)
    1  A    between atoms: C_13  and  CA_29
    2  A    between atoms: C_16  and  C_27
                            x       y       z     vdW  Elec       q    Type
                         _______ _______ _______ _____ _____    ______ ____

>  <TORSDO>
F 2

$$$$
=
 OpenBabel11052419043D

 32 38  0  0  1  0  0  0  0  0999 V2000
  187.8150  176.6030  141.8190 C   0  0  1  0  0  3  0  0  0  0  0  0
  189.3560  174.5990  141.4590 C   0  0  0  0  0  0  0  0  0  0  0  0
  187.4440  177.7640  140.9350 C   0  0  0  0  0  3  0  0  0  0  0  0
  188.3340  175.4390  140.9940 C   0  0  0  0  0  0  0  0  0  0  0  0
  189.7720  173.5080  140.6680 C   0  0  0  0  0  0  0  0  0  0  0  0
  192.7830  173.2780  144.8720 C   0  0  0  0  0  2  0  0  0  0  0  0
  189.9460  174.8700  142.8200 C   0  0  2  0  0  3  0  0  0  0  0  0
  192.4100  172.0340  142.8570 O   0  0  0  0  0  0  0  0  0  0  0  0
  191.2000  172.7020  142.5890 C   0  0  2  0  0  3  0  0  0  0  0  0
  187.7770  175.2110  139.7270 C   0  0  0  0  0  0  0  0  0  0  0  0
  190.9370  172.6510  141.0880 C   0  0  0  0  0  2  0  0  0  0  0  0
  188.1910  174.1560  138.9810 N   0  0  0  0  0  0  0  0  0  0  0  0
  186.7120  176.1370  139.2060 C   0  0  0  0  0  2  0  0  0  0  0  0
  190.0860  176.3800  143.0010 C   0  0  0  0  0  2  0  0  0  0  0  0
  188.7030  177.0510  143.0020 C   0  0  2  0  0  3  0  0  0  0  0  0
  191.2840  174.1670  143.0550 C   0  0  2  0  0  3  0  0  0  0  0  0
  189.1590  173.3030  139.4150 C   0  0  0  0  0  0  0  0  0  0  0  0
  186.9280  177.5440  139.7150 C   0  0  0  0  0  3  0  0  0  0  0  0
  192.5110  171.9100  144.2540 C   0  0  0  0  0  2  0  0  0  0  0  0
  191.6120  174.1990  144.5510 C   0  0  0  0  0  2  0  0  0  0  0  0
  188.2170  176.3660  146.8640 C   0  0  2  0  0  3  0  0  0  0  0  0
  185.7370  178.8700  146.7050 C   0  0  0  0  0  1  0  0  0  0  0  0
  188.6420  175.0380  147.4560 C   0  0  0  0  0  1  0  0  0  0  0  0
  185.5580  177.3580  144.6600 C   0  0  0  0  0  2  0  0  0  0  0  0
  187.9810  176.8230  144.3420 C   0  0  2  0  0  3  0  0  0  0  0  0
  186.6910  176.4170  146.7590 C   0  0  0  0  0  2  0  0  0  0  0  0
  186.9720  177.9340  144.6610 C   0  0  2  0  0  3  0  0  0  0  0  0
  188.9450  176.5990  145.5290 C   0  0  1  0  0  3  0  0  0  0  0  0
  189.9240  177.7530  145.6920 C   0  0  0  0  0  1  0  0  0  0  0  0
  186.2460  177.6470  145.9710 C   0  0  2  0  0  0  0  0  0  0  0  0
  189.5870  172.1910  138.5160 C   0  0  0  0  0  2  0  0  0  0  0  0
  190.5630  172.6510  137.6320 O   0  0  0  0  0  1  0  0  0  0  0  0
  1  3  1  6  0  0  0
  1 15  1  0  0  0  0
  2  7  1  0  0  0  0
  4  2  1  0  0  0  0
  4  1  1  0  0  0  0
  5 11  1  0  0  0  0
  5  2  2  0  0  0  0
  7 14  1  6  0  0  0
  7 16  1  0  0  0  0
  8 19  1  0  0  0  0
  9 11  1  6  0  0  0
  9  8  1  0  0  0  0
  9 16  1  0  0  0  0
 10  4  2  0  0  0  0
 12 17  2  0  0  0  0
 12 10  1  0  0  0  0
 13 18  1  0  0  0  0
 13 10  1  0  0  0  0
 15 14  1  1  0  0  0
 16 20  1  1  0  0  0
 17  5  1  0  0  0  0
 18  3  2  0  0  0  0
 19  6  1  0  0  0  0
 20  6  1  0  0  0  0
 21 23  1  6  0  0  0
 24 30  1  0  0  0  0
 25 15  1  6  0  0  0
 25 27  1  0  0  0  0
 25 28  1  0  0  0  0
 26 21  1  0  0  0  0
 27 24  1  6  0  0  0
 27 30  1  0  0  0  0
 28 29  1  1  0  0  0
 28 21  1  0  0  0  0
 30 22  1  1  0  0  0
 30 26  1  0  0  0  0
 31 17  1  0  0  0  0
 32 31  1  0  0  0  0
M  END
>  <MODEL>
5

>  <REMARK>
 VINA RESULT:      -7.2      3.347      7.487
  Name = 
  2 active torsions:
  status: ('A' for Active; 'I' for Inactive)
    1  A    between atoms: C_13  and  CA_29
    2  A    between atoms: C_16  and  C_27
                            x       y       z     vdW  Elec       q    Type
                         _______ _______ _______ _____ _____    ______ ____

>  <TORSDO>
F 2

$$$$
=
 OpenBabel11052419043D

 32 38  0  0  1  0  0  0  0  0999 V2000
  190.2760  173.8160  141.7270 C   0  0  1  0  0  3  0  0  0  0  0  0
  189.2790  175.4590  143.4080 C   0  0  0  0  0  0  0  0  0  0  0  0
  189.6500  172.7710  140.8420 C   0  0  0  0  0  3  0  0  0  0  0  0
  189.2530  174.8570  142.1420 C   0  0  0  0  0  0  0  0  0  0  0  0
  188.3280  176.4500  143.7270 C   0  0  0  0  0  0  0  0  0  0  0  0
  191.1920  175.9830  148.0130 C   0  0  0  0  0  2  0  0  0  0  0  0
  190.3620  175.0500  144.3760 C   0  0  2  0  0  3  0  0  0  0  0  0
  189.3630  177.3070  147.2080 O   0  0  0  0  0  0  0  0  0  0  0  0
  189.5760  176.9110  145.8740 C   0  0  2  0  0  3  0  0  0  0  0  0
  188.2500  175.2160  141.2300 C   0  0  0  0  0  0  0  0  0  0  0  0
  188.2620  177.0380  145.1120 C   0  0  0  0  0  2  0  0  0  0  0  0
  187.3430  176.1720  141.5550 N   0  0  0  0  0  0  0  0  0  0  0  0
  188.1910  174.5410  139.8870 C   0  0  0  0  0  2  0  0  0  0  0  0
  190.5740  173.5420  144.2650 C   0  0  0  0  0  2  0  0  0  0  0  0
  191.0990  173.1740  142.8680 C   0  0  2  0  0  3  0  0  0  0  0  0
  190.0710  175.4550  145.8220 C   0  0  2  0  0  3  0  0  0  0  0  0
  187.3590  176.7970  142.7640 C   0  0  0  0  0  0  0  0  0  0  0  0
  188.6760  173.1120  139.9820 C   0  0  0  0  0  3  0  0  0  0  0  0
  190.6260  177.3870  147.8210 C   0  0  0  0  0  2  0  0  0  0  0  0
  191.3570  175.3320  146.6450 C   0  0  0  0  0  2  0  0  0  0  0  0
  194.9950  172.6510  142.4600 C   0  0  2  0  0  3  0  0  0  0  0  0
  194.8240  175.3180  140.1570 C   0  0  0  0  0  1  0  0  0  0  0  0
  195.7860  171.9740  143.5600 C   0  0  0  0  0  1  0  0  0  0  0  0
  193.3670  175.8420  142.1820 C   0  0  0  0  0  2  0  0  0  0  0  0
  192.5900  173.5280  142.7290 C   0  0  2  0  0  3  0  0  0  0  0  0
  195.2760  174.1550  142.4750 C   0  0  0  0  0  2  0  0  0  0  0  0
  192.8530  174.5300  141.5970 C   0  0  2  0  0  3  0  0  0  0  0  0
  193.5050  172.2900  142.5920 C   0  0  1  0  0  3  0  0  0  0  0  0
  193.1010  171.4130  141.4160 C   0  0  0  0  0  1  0  0  0  0  0  0
  194.3330  174.8890  141.5240 C   0  0  2  0  0  0  0  0  0  0  0  0
  186.3010  177.8090  143.0600 C   0  0  0  0  0  2  0  0  0  0  0  0
  186.5870  178.9970  142.3880 O   0  0  0  0  0  1  0  0  0  0  0  0
  1  3  1  1  0  0  0
  1  4  1  0  0  0  0
  1 15  1  0  0  0  0
  2  5  1  0  0  0  0
  2  7  1  0  0  0  0
  4  2  2  0  0  0  0
  5 11  1  0  0  0  0
  7 14  1  1  0  0  0
  7 16  1  0  0  0  0
  8 19  1  0  0  0  0
  9 11  1  6  0  0  0
  9  8  1  0  0  0  0
 10 12  2  0  0  0  0
 10  4  1  0  0  0  0
 12 17  1  0  0  0  0
 13 18  1  0  0  0  0
 13 10  1  0  0  0  0
 15 14  1  1  0  0  0
 16  9  1  0  0  0  0
 16 20  1  1  0  0  0
 17 31  1  0  0  0  0
 17  5  2  0  0  0  0
 18  3  2  0  0  0  0
 19  6  1  0  0  0  0
 20  6  1  0  0  0  0
 21 26  1  0  0  0  0
 21 28  1  0  0  0  0
 21 23  1  1  0  0  0
 25 15  1  6  0  0  0
 27 24  1  1  0  0  0
 27 25  1  0  0  0  0
 28 29  1  6  0  0  0
 28 25  1  0  0  0  0
 30 22  1  6  0  0  0
 30 27  1  0  0  0  0
 30 24  1  0  0  0  0
 30 26  1  0  0  0  0
 32 31  1  0  0  0  0
M  END
>  <MODEL>
6

>  <REMARK>
 VINA RESULT:      -7.1      2.217      5.510
  Name = 
  2 active torsions:
  status: ('A' for Active; 'I' for Inactive)
    1  A    between atoms: C_13  and  CA_29
    2  A    between atoms: C_16  and  C_27
                            x       y       z     vdW  Elec       q    Type
                         _______ _______ _______ _____ _____    ______ ____

>  <TORSDO>
F 2

$$$$
=
 OpenBabel11052419043D

 32 38  0  0  1  0  0  0  0  0999 V2000
  194.3160  175.8670  144.6490 C   0  0  1  0  0  3  0  0  0  0  0  0
  191.8900  175.1920  144.2290 C   0  0  0  0  0  0  0  0  0  0  0  0
  194.9330  177.1130  145.2280 C   0  0  0  0  0  3  0  0  0  0  0  0
  192.8670  175.7310  145.0780 C   0  0  0  0  0  0  0  0  0  0  0  0
  190.5660  175.0510  144.6940 C   0  0  0  0  0  0  0  0  0  0  0  0
  190.4200  173.2950  139.8270 C   0  0  0  0  0  2  0  0  0  0  0  0
  192.3050  174.7380  142.8520 C   0  0  2  0  0  3  0  0  0  0  0  0
  188.9390  173.5380  141.6960 O   0  0  0  0  0  0  0  0  0  0  0  0
  190.0000  173.7700  142.5930 C   0  0  2  0  0  3  0  0  0  0  0  0
  192.5010  176.1670  146.3600 C   0  0  0  0  0  0  0  0  0  0  0  0
  189.4720  174.5760  143.7740 C   0  0  0  0  0  2  0  0  0  0  0  0
  191.2210  176.0230  146.7890 N   0  0  0  0  0  0  0  0  0  0  0  0
  193.5370  176.7870  147.2580 C   0  0  0  0  0  2  0  0  0  0  0  0
  193.3090  175.7410  142.2880 C   0  0  0  0  0  2  0  0  0  0  0  0
  194.5940  175.7500  143.1330 C   0  0  2  0  0  3  0  0  0  0  0  0
  191.1300  174.5460  141.8930 C   0  0  2  0  0  3  0  0  0  0  0  0
  190.2550  175.4760  146.0010 C   0  0  0  0  0  0  0  0  0  0  0  0
  194.5670  177.5400  146.4480 C   0  0  0  0  0  3  0  0  0  0  0  0
  189.4010  172.6180  140.7390 C   0  0  0  0  0  2  0  0  0  0  0  0
  191.6030  173.7510  140.6720 C   0  0  0  0  0  2  0  0  0  0  0  0
  197.6480  173.6130  141.8200 C   0  0  2  0  0  3  0  0  0  0  0  0
  197.3540  171.8510  144.8620 C   0  0  0  0  0  1  0  0  0  0  0  0
  197.9370  173.5400  140.3350 C   0  0  0  0  0  1  0  0  0  0  0  0
  195.0340  172.2940  143.9030 C   0  0  0  0  0  2  0  0  0  0  0  0
  195.4590  174.5140  142.8310 C   0  0  2  0  0  3  0  0  0  0  0  0
  197.0250  172.2950  142.2880 C   0  0  0  0  0  2  0  0  0  0  0  0
  195.7070  173.6530  144.0760 C   0  0  2  0  0  3  0  0  0  0  0  0
  196.7910  174.8540  142.1240 C   0  0  1  0  0  3  0  0  0  0  0  0
  197.6210  175.8480  142.9230 C   0  0  0  0  0  1  0  0  0  0  0  0
  196.5270  172.4170  143.7270 C   0  0  2  0  0  0  0  0  0  0  0  0
  188.8630  175.3910  146.5330 C   0  0  0  0  0  2  0  0  0  0  0  0
  188.8330  174.5410  147.6380 O   0  0  0  0  0  1  0  0  0  0  0  0
  1  4  1  0  0  0  0
  1  3  1  6  0  0  0
  2  5  2  0  0  0  0
  2  4  1  0  0  0  0
  3 18  2  0  0  0  0
  4 10  2  0  0  0  0
  5 17  1  0  0  0  0
  6 20  1  0  0  0  0
  6 19  1  0  0  0  0
  7 14  1  6  0  0  0
  7  2  1  0  0  0  0
  8  9  1  0  0  0  0
  9 11  1  1  0  0  0
 10 12  1  0  0  0  0
 10 13  1  0  0  0  0
 11  5  1  0  0  0  0
 15 14  1  6  0  0  0
 15  1  1  0  0  0  0
 16 20  1  6  0  0  0
 16  9  1  0  0  0  0
 16  7  1  0  0  0  0
 17 31  1  0  0  0  0
 17 12  2  0  0  0  0
 18 13  1  0  0  0  0
 19  8  1  0  0  0  0
 21 23  1  6  0  0  0
 21 28  1  0  0  0  0
 21 26  1  0  0  0  0
 25 15  1  1  0  0  0
 25 27  1  0  0  0  0
 26 30  1  0  0  0  0
 27 24  1  6  0  0  0
 28 25  1  0  0  0  0
 28 29  1  1  0  0  0
 30 24  1  0  0  0  0
 30 27  1  0  0  0  0
 30 22  1  1  0  0  0
 31 32  1  0  0  0  0
M  END
>  <MODEL>
7

>  <REMARK>
 VINA RESULT:      -7.1      3.456      5.457
  Name = 
  2 active torsions:
  status: ('A' for Active; 'I' for Inactive)
    1  A    between atoms: C_13  and  CA_29
    2  A    between atoms: C_16  and  C_27
                            x       y       z     vdW  Elec       q    Type
                         _______ _______ _______ _____ _____    ______ ____

>  <TORSDO>
F 2

$$$$
=
 OpenBabel11052419043D

 32 38  0  0  1  0  0  0  0  0999 V2000
  191.8940  172.9600  142.4690 C   0  0  1  0  0  3  0  0  0  0  0  0
  189.8700  174.1100  141.4210 C   0  0  0  0  0  0  0  0  0  0  0  0
  192.2430  171.5080  142.6630 C   0  0  0  0  0  3  0  0  0  0  0  0
  190.8670  173.1260  141.3640 C   0  0  0  0  0  0  0  0  0  0  0  0
  188.9660  174.2470  140.3470 C   0  0  0  0  0  0  0  0  0  0  0  0
  187.4850  177.8560  143.7480 C   0  0  0  0  0  2  0  0  0  0  0  0
  189.8280  175.0230  142.6210 C   0  0  2  0  0  3  0  0  0  0  0  0
  186.8780  177.0910  141.5590 O   0  0  0  0  0  0  0  0  0  0  0  0
  188.0670  176.3510  141.4140 C   0  0  2  0  0  3  0  0  0  0  0  0
  190.9190  172.2610  140.2610 C   0  0  0  0  0  0  0  0  0  0  0  0
  187.8190  175.2210  140.4230 C   0  0  0  0  0  2  0  0  0  0  0  0
  190.0400  172.4090  139.2380 N   0  0  0  0  0  0  0  0  0  0  0  0
  191.9600  171.1760  140.2170 C   0  0  0  0  0  2  0  0  0  0  0  0
  190.1340  174.2020  143.8710 C   0  0  0  0  0  2  0  0  0  0  0  0
  191.5680  173.6490  143.8140 C   0  0  2  0  0  3  0  0  0  0  0  0
  188.5020  175.7710  142.7720 C   0  0  2  0  0  3  0  0  0  0  0  0
  189.0790  173.3720  139.2470 C   0  0  0  0  0  0  0  0  0  0  0  0
  192.2740  170.6760  141.6080 C   0  0  0  0  0  3  0  0  0  0  0  0
  187.1960  178.2430  142.3010 C   0  0  0  0  0  2  0  0  0  0  0  0
  188.6850  176.9170  143.7720 C   0  0  0  0  0  2  0  0  0  0  0  0
  194.2270  175.7500  145.8470 C   0  0  2  0  0  3  0  0  0  0  0  0
  196.0700  175.7920  142.8400 C   0  0  0  0  0  1  0  0  0  0  0  0
  193.8010  176.5130  147.0840 C   0  0  0  0  0  1  0  0  0  0  0  0
  193.6020  176.1790  142.3340 C   0  0  0  0  0  2  0  0  0  0  0  0
  192.5960  174.7510  144.1240 C   0  0  2  0  0  3  0  0  0  0  0  0
  194.4500  176.7290  144.6910 C   0  0  0  0  0  2  0  0  0  0  0  0
  193.6990  174.8410  143.0620 C   0  0  2  0  0  3  0  0  0  0  0  0
  193.2040  174.6420  145.5410 C   0  0  1  0  0  3  0  0  0  0  0  0
  193.8560  173.2870  145.7760 C   0  0  0  0  0  1  0  0  0  0  0  0
  194.6680  175.9730  143.3810 C   0  0  2  0  0  0  0  0  0  0  0  0
  188.1250  173.4420  138.1010 C   0  0  0  0  0  2  0  0  0  0  0  0
  188.6650  174.2340  137.0880 O   0  0  0  0  0  1  0  0  0  0  0  0
  1  3  1  1  0  0  0
  1 15  1  0  0  0  0
  2  7  1  0  0  0  0
  4  2  1  0  0  0  0
  4  1  1  0  0  0  0
  5 11  1  0  0  0  0
  5  2  2  0  0  0  0
  6 20  1  0  0  0  0
  7 16  1  0  0  0  0
  7 14  1  1  0  0  0
  8 19  1  0  0  0  0
  9 11  1  6  0  0  0
  9  8  1  0  0  0  0
  9 16  1  0  0  0  0
 10  4  2  0  0  0  0
 12 17  2  0  0  0  0
 12 10  1  0  0  0  0
 13 10  1  0  0  0  0
 13 18  1  0  0  0  0
 15 14  1  6  0  0  0
 16 20  1  1  0  0  0
 17  5  1  0  0  0  0
 18  3  2  0  0  0  0
 19  6  1  0  0  0  0
 21 23  1  1  0  0  0
 24 30  1  0  0  0  0
 25 15  1  6  0  0  0
 25 28  1  0  0  0  0
 26 21  1  0  0  0  0
 27 24  1  6  0  0  0
 27 30  1  0  0  0  0
 27 25  1  0  0  0  0
 28 29  1  6  0  0  0
 28 21  1  0  0  0  0
 30 22  1  6  0  0  0
 30 26  1  0  0  0  0
 31 17  1  0  0  0  0
 32 31  1  0  0  0  0
M  END
>  <MODEL>
8

>  <REMARK>
 VINA RESULT:      -7.0      3.068      6.311
  Name = 
  2 active torsions:
  status: ('A' for Active; 'I' for Inactive)
    1  A    between atoms: C_13  and  CA_29
    2  A    between atoms: C_16  and  C_27
                            x       y       z     vdW  Elec       q    Type
                         _______ _______ _______ _____ _____    ______ ____

>  <TORSDO>
F 2

$$$$
=
 OpenBabel11052419043D

 32 38  0  0  1  0  0  0  0  0999 V2000
  192.1310  175.8260  145.4330 C   0  0  1  0  0  3  0  0  0  0  0  0
  193.1270  174.1390  143.7950 C   0  0  0  0  0  0  0  0  0  0  0  0
  192.6060  176.3420  146.7650 C   0  0  0  0  0  3  0  0  0  0  0  0
  193.2860  175.2530  144.6320 C   0  0  0  0  0  0  0  0  0  0  0  0
  194.2250  173.6730  143.0420 C   0  0  0  0  0  0  0  0  0  0  0  0
  190.3700  170.4330  141.8460 C   0  0  0  0  0  2  0  0  0  0  0  0
  191.7640  173.5020  143.6970 C   0  0  2  0  0  3  0  0  0  0  0  0
  192.6590  170.8040  141.2420 O   0  0  0  0  0  0  0  0  0  0  0  0
  192.6800  172.0800  141.8370 C   0  0  2  0  0  3  0  0  0  0  0  0
  194.5480  175.8550  144.7450 C   0  0  0  0  0  0  0  0  0  0  0  0
  194.1170  172.4170  142.2170 C   0  0  0  0  0  2  0  0  0  0  0  0
  195.5920  175.3920  144.0120 N   0  0  0  0  0  0  0  0  0  0  0  0
  194.7330  177.0230  145.6750 C   0  0  0  0  0  2  0  0  0  0  0  0
  191.1310  173.4840  145.0870 C   0  0  0  0  0  2  0  0  0  0  0  0
  190.8900  174.9180  145.5860 C   0  0  2  0  0  3  0  0  0  0  0  0
  191.7890  172.0980  143.0910 C   0  0  2  0  0  3  0  0  0  0  0  0
  195.4650  174.3320  143.1670 C   0  0  0  0  0  0  0  0  0  0  0  0
  193.8230  176.9020  146.8760 C   0  0  0  0  0  3  0  0  0  0  0  0
  191.3710  170.6180  140.7100 C   0  0  0  0  0  2  0  0  0  0  0  0
  190.3640  171.6950  142.7000 C   0  0  0  0  0  2  0  0  0  0  0  0
  187.5510  176.9860  145.1500 C   0  0  2  0  0  3  0  0  0  0  0  0
  189.0330  178.2120  142.1930 C   0  0  0  0  0  1  0  0  0  0  0  0
  186.2810  176.5250  145.8350 C   0  0  0  0  0  1  0  0  0  0  0  0
  189.4870  175.7120  142.4040 C   0  0  0  0  0  2  0  0  0  0  0  0
  189.6670  175.5440  144.8930 C   0  0  2  0  0  3  0  0  0  0  0  0
  187.4670  176.6800  143.6520 C   0  0  0  0  0  2  0  0  0  0  0  0
  190.0520  176.3710  143.6590 C   0  0  2  0  0  3  0  0  0  0  0  0
  188.7730  176.3670  145.8480 C   0  0  1  0  0  3  0  0  0  0  0  0
  189.5550  177.4690  146.5490 C   0  0  0  0  0  1  0  0  0  0  0  0
  188.8120  176.9340  142.9750 C   0  0  2  0  0  0  0  0  0  0  0  0
  196.6720  173.8580  142.4280 C   0  0  0  0  0  2  0  0  0  0  0  0
  197.4630  174.9500  142.0720 O   0  0  0  0  0  1  0  0  0  0  0  0
  1 15  1  0  0  0  0
  1  3  1  1  0  0  0
  2  4  1  0  0  0  0
  3 18  2  0  0  0  0
  4 10  2  0  0  0  0
  4  1  1  0  0  0  0
  5 17  1  0  0  0  0
  5  2  2  0  0  0  0
  6 20  1  0  0  0  0
  7  2  1  0  0  0  0
  7 14  1  1  0  0  0
  8  9  1  0  0  0  0
  9 11  1  1  0  0  0
  9 16  1  0  0  0  0
 10 13  1  0  0  0  0
 11  5  1  0  0  0  0
 12 10  1  0  0  0  0
 13 18  1  0  0  0  0
 15 14  1  6  0  0  0
 16 20  1  6  0  0  0
 16  7  1  0  0  0  0
 17 12  2  0  0  0  0
 19  8  1  0  0  0  0
 19  6  1  0  0  0  0
 21 23  1  1  0  0  0
 21 28  1  0  0  0  0
 24 30  1  0  0  0  0
 25 15  1  1  0  0  0
 25 28  1  0  0  0  0
 26 21  1  0  0  0  0
 27 24  1  6  0  0  0
 27 25  1  0  0  0  0
 28 29  1  6  0  0  0
 30 22  1  6  0  0  0
 30 26  1  0  0  0  0
 30 27  1  0  0  0  0
 31 17  1  0  0  0  0
 32 31  1  0  0  0  0
M  END
>  <MODEL>
9

>  <REMARK>
 VINA RESULT:      -7.0      3.919      7.348
  Name = 
  2 active torsions:
  status: ('A' for Active; 'I' for Inactive)
    1  A    between atoms: C_13  and  CA_29
    2  A    between atoms: C_16  and  C_27
                            x       y       z     vdW  Elec       q    Type
                         _______ _______ _______ _____ _____    ______ ____

>  <TORSDO>
F 2

$$$$
