=
 OpenBabel11052419533D

 37 44  0  0  1  0  0  0  0  0999 V2000
  189.7860  174.5360  143.2010 C   0  0  0  0  0  2  0  0  0  0  0  0
  191.0660  176.5760  147.2510 C   0  0  0  0  0  0  0  0  0  0  0  0
  187.3420  177.7020  145.6030 C   0  0  0  0  0  0  0  0  0  0  0  0
  190.7380  174.0530  142.1970 N   0  0  0  0  0  0  0  0  0  0  0  0
  186.2360  176.3500  142.3090 O   0  0  0  0  0  0  0  0  0  0  0  0
  188.9130  177.8320  147.4500 C   0  0  0  0  0  0  0  0  0  0  0  0
  187.4090  177.2410  144.3570 C   0  0  0  0  0  0  0  0  0  0  0  0
  188.6940  173.9900  140.7720 C   0  0  0  0  0  0  0  0  0  0  0  0
  188.5890  177.4520  146.2390 C   0  0  0  0  0  0  0  0  0  0  0  0
  186.2730  177.2910  143.3590 C   0  0  0  0  0  0  0  0  0  0  0  0
  187.8990  178.5760  148.2340 C   0  0  0  0  0  3  0  0  0  0  0  0
  190.1950  174.0600  140.8270 C   0  0  0  0  0  2  0  0  0  0  0  0
  189.4600  176.7990  145.3370 C   0  0  0  0  0  0  0  0  0  0  0  0
  190.7720  175.1900  147.7970 C   0  0  0  0  0  1  0  0  0  0  0  0
  185.7260  179.5170  145.5480 C   0  0  0  0  0  3  0  0  0  0  0  0
  186.6690  178.8210  147.7210 C   0  0  0  0  0  3  0  0  0  0  0  0
  190.8910  176.5520  145.7050 C   0  0  0  0  0  2  0  0  0  0  0  0
  187.8870  175.2490  140.8580 C   0  0  1  0  0  3  0  0  0  0  0  0
  187.2850  175.4210  142.1680 C   0  0  1  0  0  3  0  0  0  0  0  0
  186.2160  178.3550  146.3350 C   0  0  2  0  0  3  0  0  0  0  0  0
  188.7970  176.6450  144.1890 C   0  0  0  0  0  0  0  0  0  0  0  0
  190.2040  177.5350  147.9140 O   0  0  0  0  0  0  0  0  0  0  0  0
  185.2970  178.2430  143.3910 C   0  0  0  0  0  0  0  0  0  0  0  0
  192.5070  176.9130  147.5690 C   0  0  0  0  0  1  0  0  0  0  0  0
  188.4640  176.2370  141.8090 N   0  0  1  0  0  0  0  0  0  0  0  0
  188.1380  172.9090  140.6620 O   0  0  0  0  0  0  0  0  0  0  0  0
  189.3770  175.9980  142.9450 C   0  0  2  0  0  3  0  0  0  0  0  0
  185.3110  179.4370  144.2820 C   0  0  0  0  0  3  0  0  0  0  0  0
  184.5070  177.9860  141.0260 C   0  0  0  0  0  3  0  0  0  0  0  0
  184.2100  178.2300  142.3780 C   0  0  0  0  0  0  0  0  0  0  0  0
  182.8820  178.5080  142.7410 C   0  0  0  0  0  3  0  0  0  0  0  0
  180.5270  178.7950  142.1620 N   0  0  0  0  0  1  0  0  0  0  0  0
  182.1740  178.2650  140.4400 C   0  0  0  0  0  3  0  0  0  0  0  0
  181.8690  178.5200  141.7780 C   0  0  0  0  0  0  0  0  0  0  0  0
  183.4930  178.0000  140.0630 C   0  0  0  0  0  3  0  0  0  0  0  0
  190.2370  172.2520  143.7510 C   0  0  0  0  0  1  0  0  0  0  0  0
  191.0460  172.6740  142.5390 C   0  0  0  0  0  2  0  0  0  0  0  0
  2 24  1  0  0  0  0
  2 14  1  0  0  0  0
  2 22  1  0  0  0  0
  3  9  1  0  0  0  0
  3 20  1  0  0  0  0
  4 37  1  0  0  0  0
  4  1  1  0  0  0  0
  5 10  1  0  0  0  0
  6 22  1  0  0  0  0
  6 11  1  0  0  0  0
  7  3  2  0  0  0  0
  8 12  1  0  0  0  0
  9  6  2  0  0  0  0
 10 23  2  0  0  0  0
 10  7  1  0  0  0  0
 12  4  1  0  0  0  0
 13 17  1  0  0  0  0
 13  9  1  0  0  0  0
 16 11  2  0  0  0  0
 17  2  1  0  0  0  0
 18  8  1  1  0  0  0
 18 25  1  0  0  0  0
 18 19  1  0  0  0  0
 19  5  1  6  0  0  0
 20 15  1  6  0  0  0
 20 16  1  0  0  0  0
 21  7  1  0  0  0  0
 21 13  2  0  0  0  0
 23 28  1  0  0  0  0
 25 19  1  0  0  0  0
 25 27  1  0  0  0  0
 26  8  2  0  0  0  0
 27  1  1  0  0  0  0
 27 21  1  0  0  0  0
 28 15  2  0  0  0  0
 29 30  1  0  0  0  0
 30 31  2  0  0  0  0
 30 23  1  0  0  0  0
 33 34  2  0  0  0  0
 34 32  1  0  0  0  0
 34 31  1  0  0  0  0
 35 33  1  0  0  0  0
 35 29  2  0  0  0  0
 37 36  1  0  0  0  0
M  END
>  <MODEL>
1

>  <REMARK>
 VINA RESULT:      -9.7      0.000      0.000
  Name = 
  2 active torsions:
  status: ('A' for Active; 'I' for Inactive)
    1  A    between atoms: N_5  and  C_23
    2  A    between atoms: C_6  and  C_31
                            x       y       z     vdW  Elec       q    Type
                         _______ _______ _______ _____ _____    ______ ____

>  <TORSDO>
F 2

$$$$
=
 OpenBabel11052419533D

 37 44  0  0  1  0  0  0  0  0999 V2000
  190.7150  172.6810  141.2650 C   0  0  0  0  0  2  0  0  0  0  0  0
  193.9850  173.0340  144.6400 C   0  0  0  0  0  0  0  0  0  0  0  0
  190.4730  175.3400  145.0910 C   0  0  0  0  0  0  0  0  0  0  0  0
  191.0190  172.3630  139.8670 N   0  0  0  0  0  0  0  0  0  0  0  0
  187.8540  175.3510  142.4380 O   0  0  0  0  0  0  0  0  0  0  0  0
  192.5740  174.5630  146.0280 C   0  0  0  0  0  0  0  0  0  0  0  0
  189.9220  175.2950  143.8810 C   0  0  0  0  0  0  0  0  0  0  0  0
  188.6840  173.1620  139.5230 C   0  0  0  0  0  0  0  0  0  0  0  0
  191.7200  174.6590  145.0390 C   0  0  0  0  0  0  0  0  0  0  0  0
  188.5740  175.8830  143.5280 C   0  0  0  0  0  0  0  0  0  0  0  0
  192.2160  175.2060  147.3140 C   0  0  0  0  0  3  0  0  0  0  0  0
  190.0370  172.9120  138.9160 C   0  0  0  0  0  2  0  0  0  0  0  0
  191.9380  174.1670  143.7320 C   0  0  0  0  0  0  0  0  0  0  0  0
  193.4960  171.6340  144.9650 C   0  0  0  0  0  1  0  0  0  0  0  0
  189.6120  177.3610  146.1310 C   0  0  0  0  0  3  0  0  0  0  0  0
  191.0280  175.8390  147.4650 C   0  0  0  0  0  3  0  0  0  0  0  0
  193.2480  173.5380  143.3650 C   0  0  0  0  0  2  0  0  0  0  0  0
  188.4080  174.4630  140.2130 C   0  0  1  0  0  3  0  0  0  0  0  0
  188.4250  174.3260  141.6590 C   0  0  1  0  0  3  0  0  0  0  0  0
  189.9680  175.9370  146.3630 C   0  0  2  0  0  3  0  0  0  0  0  0
  190.8830  174.5190  142.9960 C   0  0  0  0  0  0  0  0  0  0  0  0
  193.7810  173.8840  145.7970 O   0  0  0  0  0  0  0  0  0  0  0  0
  188.0330  176.9490  144.1840 C   0  0  0  0  0  0  0  0  0  0  0  0
  195.4670  172.9600  144.3430 C   0  0  0  0  0  1  0  0  0  0  0  0
  189.5770  174.9630  140.9860 N   0  0  1  0  0  0  0  0  0  0  0  0
  187.8180  172.3050  139.4550 O   0  0  0  0  0  0  0  0  0  0  0  0
  190.7220  174.2000  141.5210 C   0  0  2  0  0  3  0  0  0  0  0  0
  188.7530  177.7710  145.1970 C   0  0  0  0  0  3  0  0  0  0  0  0
  185.7170  177.7220  144.7540 C   0  0  0  0  0  3  0  0  0  0  0  0
  186.7020  177.4740  143.7830 C   0  0  0  0  0  0  0  0  0  0  0  0
  186.3870  177.6830  142.4300 C   0  0  0  0  0  3  0  0  0  0  0  0
  184.8220  178.3660  140.6840 N   0  0  0  0  0  1  0  0  0  0  0  0
  184.1580  178.4050  143.0330 C   0  0  0  0  0  3  0  0  0  0  0  0
  185.1240  178.1510  142.0570 C   0  0  0  0  0  0  0  0  0  0  0  0
  184.4530  178.1890  144.3810 C   0  0  0  0  0  3  0  0  0  0  0  0
  190.8210  170.2900  141.1220 C   0  0  0  0  0  1  0  0  0  0  0  0
  190.9830  170.9150  139.7490 C   0  0  0  0  0  2  0  0  0  0  0  0
  1 27  1  0  0  0  0
  2 14  1  0  0  0  0
  2 22  1  0  0  0  0
  3 20  1  0  0  0  0
  4  1  1  0  0  0  0
  5 10  1  0  0  0  0
  6 11  1  0  0  0  0
  7  3  2  0  0  0  0
  9  3  1  0  0  0  0
  9  6  2  0  0  0  0
 10  7  1  0  0  0  0
 10 23  2  0  0  0  0
 11 16  2  0  0  0  0
 12  8  1  0  0  0  0
 12  4  1  0  0  0  0
 13  9  1  0  0  0  0
 17 13  1  0  0  0  0
 17  2  1  0  0  0  0
 18  8  1  6  0  0  0
 18 25  1  0  0  0  0
 18 19  1  0  0  0  0
 19  5  1  1  0  0  0
 20 15  1  6  0  0  0
 20 16  1  0  0  0  0
 21 13  2  0  0  0  0
 21  7  1  0  0  0  0
 22  6  1  0  0  0  0
 23 28  1  0  0  0  0
 24  2  1  0  0  0  0
 25 27  1  0  0  0  0
 25 19  1  0  0  0  0
 26  8  2  0  0  0  0
 27 21  1  0  0  0  0
 28 15  2  0  0  0  0
 30 23  1  0  0  0  0
 30 29  2  0  0  0  0
 31 30  1  0  0  0  0
 32 34  1  0  0  0  0
 33 35  2  0  0  0  0
 34 31  2  0  0  0  0
 34 33  1  0  0  0  0
 35 29  1  0  0  0  0
 37  4  1  0  0  0  0
 37 36  1  0  0  0  0
M  END
>  <MODEL>
2

>  <REMARK>
 VINA RESULT:      -9.3      2.250      3.802
  Name = 
  2 active torsions:
  status: ('A' for Active; 'I' for Inactive)
    1  A    between atoms: N_5  and  C_23
    2  A    between atoms: C_6  and  C_31
                            x       y       z     vdW  Elec       q    Type
                         _______ _______ _______ _____ _____    ______ ____

>  <TORSDO>
F 2

$$$$
=
 OpenBabel11052419533D

 37 44  0  0  1  0  0  0  0  0999 V2000
  190.9410  173.1300  141.0580 C   0  0  0  0  0  2  0  0  0  0  0  0
  195.1020  173.6520  143.2070 C   0  0  0  0  0  0  0  0  0  0  0  0
  191.7360  175.4350  145.0360 C   0  0  0  0  0  0  0  0  0  0  0  0
  190.7880  172.9620  139.6100 N   0  0  0  0  0  0  0  0  0  0  0  0
  188.3910  175.3040  143.3950 O   0  0  0  0  0  0  0  0  0  0  0  0
  194.0960  174.8720  145.1440 C   0  0  0  0  0  0  0  0  0  0  0  0
  190.8190  175.4100  144.0730 C   0  0  0  0  0  0  0  0  0  0  0  0
  188.4060  173.4710  140.1360 C   0  0  0  0  0  0  0  0  0  0  0  0
  192.9540  174.9300  144.5040 C   0  0  0  0  0  0  0  0  0  0  0  0
  189.3790  175.8420  144.2470 C   0  0  0  0  0  0  0  0  0  0  0  0
  194.1290  175.3620  146.5420 C   0  0  0  0  0  3  0  0  0  0  0  0
  189.4940  173.4470  139.0990 C   0  0  0  0  0  2  0  0  0  0  0  0
  192.7690  174.5710  143.1490 C   0  0  0  0  0  0  0  0  0  0  0  0
  194.8920  172.1790  143.5090 C   0  0  0  0  0  1  0  0  0  0  0  0
  191.0800  177.2400  146.5240 C   0  0  0  0  0  3  0  0  0  0  0  0
  193.0040  175.8210  147.1420 C   0  0  0  0  0  3  0  0  0  0  0  0
  193.9340  174.1490  142.3070 C   0  0  0  0  0  2  0  0  0  0  0  0
  188.2510  174.6680  141.0240 C   0  0  1  0  0  3  0  0  0  0  0  0
  188.7660  174.4250  142.3600 C   0  0  1  0  0  3  0  0  0  0  0  0
  191.6320  175.8620  146.4630 C   0  0  2  0  0  3  0  0  0  0  0  0
  191.4990  174.8370  142.8400 C   0  0  0  0  0  0  0  0  0  0  0  0
  195.2160  174.3770  144.4570 O   0  0  0  0  0  0  0  0  0  0  0  0
  188.9870  176.7740  145.1610 C   0  0  0  0  0  0  0  0  0  0  0  0
  196.3980  173.7960  142.4390 C   0  0  0  0  0  1  0  0  0  0  0  0
  189.5560  175.2570  141.4280 N   0  0  1  0  0  0  0  0  0  0  0  0
  187.6560  172.5150  140.2550 O   0  0  0  0  0  0  0  0  0  0  0  0
  190.8840  174.6130  141.4710 C   0  0  2  0  0  3  0  0  0  0  0  0
  189.9210  177.6040  145.9740 C   0  0  0  0  0  3  0  0  0  0  0  0
  186.7320  176.5150  146.2240 C   0  0  0  0  0  3  0  0  0  0  0  0
  187.5540  177.1490  145.2760 C   0  0  0  0  0  0  0  0  0  0  0  0
  186.9850  178.0990  144.4130 C   0  0  0  0  0  3  0  0  0  0  0  0
  185.0690  179.3970  143.6340 N   0  0  0  0  0  1  0  0  0  0  0  0
  184.8260  177.7990  145.4630 C   0  0  0  0  0  3  0  0  0  0  0  0
  185.6300  178.4270  144.5090 C   0  0  0  0  0  0  0  0  0  0  0  0
  185.3760  176.8420  146.3190 C   0  0  0  0  0  3  0  0  0  0  0  0
  190.9140  170.7690  140.6520 C   0  0  0  0  0  1  0  0  0  0  0  0
  190.8570  171.5350  139.3440 C   0  0  0  0  0  2  0  0  0  0  0  0
  1 27  1  0  0  0  0
  2 14  1  0  0  0  0
  2 22  1  0  0  0  0
  3 20  1  0  0  0  0
  4  1  1  0  0  0  0
  5 10  1  0  0  0  0
  6 11  1  0  0  0  0
  7 10  1  0  0  0  0
  7  3  2  0  0  0  0
  8 26  2  0  0  0  0
  9  3  1  0  0  0  0
  9  6  2  0  0  0  0
 10 23  2  0  0  0  0
 11 16  2  0  0  0  0
 12  4  1  0  0  0  0
 12  8  1  0  0  0  0
 13  9  1  0  0  0  0
 17 13  1  0  0  0  0
 17  2  1  0  0  0  0
 18  8  1  6  0  0  0
 18 25  1  0  0  0  0
 18 19  1  0  0  0  0
 19  5  1  1  0  0  0
 20 15  1  6  0  0  0
 20 16  1  0  0  0  0
 21 13  2  0  0  0  0
 21  7  1  0  0  0  0
 22  6  1  0  0  0  0
 23 30  1  0  0  0  0
 23 28  1  0  0  0  0
 24  2  1  0  0  0  0
 25 27  1  0  0  0  0
 25 19  1  0  0  0  0
 27 21  1  0  0  0  0
 28 15  2  0  0  0  0
 29 35  1  0  0  0  0
 30 29  2  0  0  0  0
 31 34  2  0  0  0  0
 31 30  1  0  0  0  0
 32 34  1  0  0  0  0
 33 35  2  0  0  0  0
 34 33  1  0  0  0  0
 37  4  1  0  0  0  0
 37 36  1  0  0  0  0
M  END
>  <MODEL>
3

>  <REMARK>
 VINA RESULT:      -9.0      2.585      4.775
  Name = 
  2 active torsions:
  status: ('A' for Active; 'I' for Inactive)
    1  A    between atoms: N_5  and  C_23
    2  A    between atoms: C_6  and  C_31
                            x       y       z     vdW  Elec       q    Type
                         _______ _______ _______ _____ _____    ______ ____

>  <TORSDO>
F 2

$$$$
=
 OpenBabel11052419533D

 37 44  0  0  1  0  0  0  0  0999 V2000
  194.1830  175.0180  143.7970 C   0  0  0  0  0  2  0  0  0  0  0  0
  193.4390  172.2770  140.0370 C   0  0  0  0  0  0  0  0  0  0  0  0
  190.1350  174.4300  141.5540 C   0  0  0  0  0  0  0  0  0  0  0  0
  195.2100  174.7520  144.8080 N   0  0  0  0  0  0  0  0  0  0  0  0
  190.4700  176.4990  144.6370 O   0  0  0  0  0  0  0  0  0  0  0  0
  191.0520  172.9930  139.8250 C   0  0  0  0  0  0  0  0  0  0  0  0
  190.5530  174.8220  142.7540 C   0  0  2  0  0  3  0  0  0  0  0  0
  193.9120  176.4450  146.0960 C   0  0  0  0  0  0  0  0  0  0  0  0
  191.1450  173.6150  140.9750 C   0  0  0  0  0  0  0  0  0  0  0  0
  189.7740  175.7280  143.6820 C   0  0  0  0  0  0  0  0  0  0  0  0
  189.7980  173.1530  139.0540 C   0  0  0  0  0  3  0  0  0  0  0  0
  194.8750  175.2910  146.1380 C   0  0  0  0  0  2  0  0  0  0  0  0
  192.2400  173.5110  141.8630 C   0  0  0  0  0  0  0  0  0  0  0  0
  194.2450  173.3650  139.3490 C   0  0  0  0  0  1  0  0  0  0  0  0
  187.7080  174.4020  141.6790 C   0  0  0  0  0  3  0  0  0  0  0  0
  188.7990  173.9460  139.5120 C   0  0  0  0  0  3  0  0  0  0  0  0
  193.3800  172.5870  141.5610 C   0  0  0  0  0  2  0  0  0  0  0  0
  192.4370  176.1810  146.0780 C   0  0  1  0  0  3  0  0  0  0  0  0
  191.8670  176.3680  144.7550 C   0  0  1  0  0  3  0  0  0  0  0  0
  188.8730  174.7390  140.8190 C   0  0  0  0  0  0  0  0  0  0  0  0
  191.9360  174.2220  142.9500 C   0  0  0  0  0  0  0  0  0  0  0  0
  192.1320  172.1950  139.4140 O   0  0  0  0  0  0  0  0  0  0  0  0
  188.4120  175.8020  143.6790 C   0  0  0  0  0  0  0  0  0  0  0  0
  194.1580  170.9600  139.8390 C   0  0  0  0  0  1  0  0  0  0  0  0
  192.0750  174.9940  145.2580 N   0  0  1  0  0  0  0  0  0  0  0  0
  194.3330  177.5900  146.0720 O   0  0  0  0  0  0  0  0  0  0  0  0
  192.8370  174.3640  144.1620 C   0  0  2  0  0  3  0  0  0  0  0  0
  187.5190  174.8950  142.9050 C   0  0  0  0  0  3  0  0  0  0  0  0
  187.7220  176.4520  146.0000 C   0  0  0  0  0  3  0  0  0  0  0  0
  187.7130  176.7160  144.6200 C   0  0  0  0  0  0  0  0  0  0  0  0
  186.9940  177.8260  144.1470 C   0  0  0  0  0  3  0  0  0  0  0  0
  185.5990  179.7900  144.5420 N   0  0  0  0  0  1  0  0  0  0  0  0
  186.3430  178.4000  146.4050 C   0  0  0  0  0  3  0  0  0  0  0  0
  186.3160  178.6660  145.0340 C   0  0  0  0  0  0  0  0  0  0  0  0
  187.0440  177.2930  146.8880 C   0  0  0  0  0  3  0  0  0  0  0  0
  196.1260  176.2560  143.1330 C   0  0  0  0  0  1  0  0  0  0  0  0
  196.4230  175.4140  144.3590 C   0  0  0  0  0  2  0  0  0  0  0  0
  1 27  1  0  0  0  0
  1  4  1  0  0  0  0
  2 17  1  0  0  0  0
  4 12  1  0  0  0  0
  6  9  1  0  0  0  0
  7  3  1  6  0  0  0
  7 21  1  0  0  0  0
  7 10  1  0  0  0  0
  8 12  1  0  0  0  0
  9  3  2  0  0  0  0
  9 13  1  0  0  0  0
 10  5  1  0  0  0  0
 11 16  1  0  0  0  0
 11  6  2  0  0  0  0
 13 21  2  0  0  0  0
 14  2  1  0  0  0  0
 15 28  2  0  0  0  0
 16 20  2  0  0  0  0
 17 13  1  0  0  0  0
 18  8  1  6  0  0  0
 19  5  1  1  0  0  0
 19 25  1  0  0  0  0
 19 18  1  0  0  0  0
 20  3  1  0  0  0  0
 20 15  1  0  0  0  0
 21 27  1  0  0  0  0
 22  6  1  0  0  0  0
 22  2  1  0  0  0  0
 23 10  2  0  0  0  0
 23 30  1  0  0  0  0
 24  2  1  0  0  0  0
 25 18  1  0  0  0  0
 26  8  2  0  0  0  0
 27 25  1  0  0  0  0
 28 23  1  0  0  0  0
 29 35  1  0  0  0  0
 30 29  2  0  0  0  0
 31 30  1  0  0  0  0
 31 34  2  0  0  0  0
 32 34  1  0  0  0  0
 33 35  2  0  0  0  0
 34 33  1  0  0  0  0
 36 37  1  0  0  0  0
 37  4  1  0  0  0  0
M  END
>  <MODEL>
4

>  <REMARK>
 VINA RESULT:      -8.8      2.951      6.864
  Name = 
  2 active torsions:
  status: ('A' for Active; 'I' for Inactive)
    1  A    between atoms: N_5  and  C_23
    2  A    between atoms: C_6  and  C_31
                            x       y       z     vdW  Elec       q    Type
                         _______ _______ _______ _____ _____    ______ ____

>  <TORSDO>
F 2

$$$$
=
 OpenBabel11052419533D

 37 44  0  0  1  0  0  0  0  0999 V2000
  189.3360  175.8820  145.2320 C   0  0  0  0  0  2  0  0  0  0  0  0
  186.0150  178.7390  146.9670 C   0  0  0  0  0  0  0  0  0  0  0  0
  185.6950  177.6350  142.9010 C   0  0  0  0  0  0  0  0  0  0  0  0
  190.7120  175.8330  145.7350 N   0  0  0  0  0  0  0  0  0  0  0  0
  188.3260  175.5420  141.2880 O   0  0  0  0  0  0  0  0  0  0  0  0
  184.7230  178.7510  144.8260 C   0  0  0  0  0  0  0  0  0  0  0  0
  186.8960  177.1320  142.6270 C   0  0  0  0  0  0  0  0  0  0  0  0
  191.0930  174.5850  143.6130 C   0  0  0  0  0  0  0  0  0  0  0  0
  185.7100  178.1230  144.2360 C   0  0  2  0  0  3  0  0  0  0  0  0
  187.2780  176.4870  141.3130 C   0  0  0  0  0  0  0  0  0  0  0  0
  183.4810  178.9670  144.0480 C   0  0  0  0  0  3  0  0  0  0  0  0
  191.6910  175.4080  144.7200 C   0  0  0  0  0  2  0  0  0  0  0  0
  186.9830  177.9000  144.8100 C   0  0  0  0  0  0  0  0  0  0  0  0
  185.5930  177.4670  147.6810 C   0  0  0  0  0  1  0  0  0  0  0  0
  184.7870  178.3680  140.7690 C   0  0  0  0  0  3  0  0  0  0  0  0
  183.3640  178.4980  142.7830 C   0  0  0  0  0  3  0  0  0  0  0  0
  187.3160  178.4530  146.1620 C   0  0  0  0  0  2  0  0  0  0  0  0
  190.4900  175.2660  142.4220 C   0  0  1  0  0  3  0  0  0  0  0  0
  189.0380  175.2600  142.4700 C   0  0  1  0  0  3  0  0  0  0  0  0
  184.4630  177.7110  142.0620 C   0  0  0  0  0  0  0  0  0  0  0  0
  187.7340  177.3020  143.8840 C   0  0  0  0  0  0  0  0  0  0  0  0
  184.9160  179.2020  146.1410 O   0  0  0  0  0  0  0  0  0  0  0  0
  186.6910  176.8130  140.1260 C   0  0  0  0  0  0  0  0  0  0  0  0
  186.3160  179.7910  148.0130 C   0  0  0  0  0  1  0  0  0  0  0  0
  189.7600  176.5120  142.7820 N   0  0  1  0  0  0  0  0  0  0  0  0
  191.0970  173.3660  143.6880 O   0  0  0  0  0  0  0  0  0  0  0  0
  189.1830  176.8980  144.0850 C   0  0  2  0  0  3  0  0  0  0  0  0
  185.7410  177.9450  139.9370 C   0  0  0  0  0  3  0  0  0  0  0  0
  186.7820  176.6860  137.6240 C   0  0  0  0  0  3  0  0  0  0  0  0
  187.1180  176.1370  138.8730 C   0  0  0  0  0  0  0  0  0  0  0  0
  187.8160  174.9190  138.9130 C   0  0  0  0  0  3  0  0  0  0  0  0
  188.9050  173.0470  137.7860 N   0  0  0  0  0  1  0  0  0  0  0  0
  187.8620  174.8370  136.4950 C   0  0  0  0  0  3  0  0  0  0  0  0
  188.1910  174.2750  137.7300 C   0  0  0  0  0  0  0  0  0  0  0  0
  187.1560  176.0410  136.4410 C   0  0  0  0  0  3  0  0  0  0  0  0
  189.3160  174.5560  147.2630 C   0  0  0  0  0  1  0  0  0  0  0  0
  190.7330  174.8480  146.8040 C   0  0  0  0  0  2  0  0  0  0  0  0
  1  4  1  0  0  0  0
  2 14  1  0  0  0  0
  2 24  1  0  0  0  0
  4 37  1  0  0  0  0
  5 10  1  0  0  0  0
  6 22  1  0  0  0  0
  7  3  2  0  0  0  0
  7 21  1  0  0  0  0
  8 26  2  0  0  0  0
  8 12  1  0  0  0  0
  9  3  1  6  0  0  0
  9 13  1  0  0  0  0
  9  6  1  0  0  0  0
 10  7  1  0  0  0  0
 11  6  2  0  0  0  0
 12  4  1  0  0  0  0
 13 17  1  0  0  0  0
 15 20  1  0  0  0  0
 16 11  1  0  0  0  0
 17  2  1  0  0  0  0
 18 19  1  0  0  0  0
 18 25  1  0  0  0  0
 18  8  1  1  0  0  0
 19  5  1  6  0  0  0
 19 25  1  0  0  0  0
 20 16  2  0  0  0  0
 20  3  1  0  0  0  0
 21 27  1  0  0  0  0
 21 13  2  0  0  0  0
 22  2  1  0  0  0  0
 23 10  2  0  0  0  0
 25 27  1  0  0  0  0
 27  1  1  0  0  0  0
 28 23  1  0  0  0  0
 28 15  2  0  0  0  0
 29 30  1  0  0  0  0
 30 31  2  0  0  0  0
 30 23  1  0  0  0  0
 33 34  2  0  0  0  0
 34 32  1  0  0  0  0
 34 31  1  0  0  0  0
 35 33  1  0  0  0  0
 35 29  2  0  0  0  0
 37 36  1  0  0  0  0
M  END
>  <MODEL>
5

>  <REMARK>
 VINA RESULT:      -8.6      2.454      4.937
  Name = 
  2 active torsions:
  status: ('A' for Active; 'I' for Inactive)
    1  A    between atoms: N_5  and  C_23
    2  A    between atoms: C_6  and  C_31
                            x       y       z     vdW  Elec       q    Type
                         _______ _______ _______ _____ _____    ______ ____

>  <TORSDO>
F 2

$$$$
=
 OpenBabel11052419533D

 37 44  0  0  1  0  0  0  0  0999 V2000
  189.3150  174.3530  140.9170 C   0  0  0  0  0  2  0  0  0  0  0  0
  186.7020  177.1390  143.6770 C   0  0  0  0  0  0  0  0  0  0  0  0
  190.4560  175.9000  145.1680 C   0  0  0  0  0  0  0  0  0  0  0  0
  188.7530  173.4260  139.9310 N   0  0  0  0  0  0  0  0  0  0  0  0
  192.5870  173.5380  143.2240 O   0  0  0  0  0  0  0  0  0  0  0  0
  188.4710  177.2720  145.4400 C   0  0  0  0  0  0  0  0  0  0  0  0
  190.7920  174.9020  144.3560 C   0  0  0  0  0  0  0  0  0  0  0  0
  191.0680  172.5040  139.9680 C   0  0  0  0  0  0  0  0  0  0  0  0
  189.1550  176.3480  144.8110 C   0  0  0  0  0  0  0  0  0  0  0  0
  192.1150  174.1700  144.3940 C   0  0  0  0  0  0  0  0  0  0  0  0
  189.1010  177.9160  146.6160 C   0  0  0  0  0  3  0  0  0  0  0  0
  189.6150  172.2610  139.6670 C   0  0  0  0  0  2  0  0  0  0  0  0
  188.6740  175.5890  143.7190 C   0  0  0  0  0  0  0  0  0  0  0  0
  187.0930  178.1760  142.6390 C   0  0  0  0  0  1  0  0  0  0  0  0
  191.6780  175.5070  147.2320 C   0  0  0  0  0  3  0  0  0  0  0  0
  190.3550  177.5800  147.0010 C   0  0  0  0  0  3  0  0  0  0  0  0
  187.2650  175.7560  143.2380 C   0  0  0  0  0  2  0  0  0  0  0  0
  191.5850  172.2900  141.3580 C   0  0  1  0  0  3  0  0  0  0  0  0
  191.7940  173.5440  142.0600 C   0  0  1  0  0  3  0  0  0  0  0  0
  191.2220  176.5480  146.2740 C   0  0  2  0  0  3  0  0  0  0  0  0
  189.6230  174.7060  143.4040 C   0  0  0  0  0  0  0  0  0  0  0  0
  187.1800  177.5710  144.9760 O   0  0  0  0  0  0  0  0  0  0  0  0
  192.8630  174.0440  145.5270 C   0  0  0  0  0  0  0  0  0  0  0  0
  185.1910  177.0550  143.7150 C   0  0  0  0  0  1  0  0  0  0  0  0
  190.6170  172.7170  142.4040 N   0  0  1  0  0  0  0  0  0  0  0  0
  191.8190  172.8790  139.0820 O   0  0  0  0  0  0  0  0  0  0  0  0
  189.5050  173.6810  142.2900 C   0  0  2  0  0  3  0  0  0  0  0  0
  192.4080  174.4450  146.8880 C   0  0  0  0  0  3  0  0  0  0  0  0
  194.1910  171.9280  145.7330 C   0  0  0  0  0  3  0  0  0  0  0  0
  194.1550  173.3120  145.4890 C   0  0  0  0  0  0  0  0  0  0  0  0
  195.3630  173.9910  145.2610 C   0  0  0  0  0  3  0  0  0  0  0  0
  197.7920  174.0000  145.0130 N   0  0  0  0  0  1  0  0  0  0  0  0
  196.5990  171.9230  145.4850 C   0  0  0  0  0  3  0  0  0  0  0  0
  196.5780  173.3000  145.2530 C   0  0  0  0  0  0  0  0  0  0  0  0
  195.4070  171.2370  145.7260 C   0  0  0  0  0  3  0  0  0  0  0  0
  188.5820  173.2020  137.5160 C   0  0  0  0  0  1  0  0  0  0  0  0
  188.6220  174.1660  138.6870 C   0  0  0  0  0  2  0  0  0  0  0  0
  1 27  1  0  0  0  0
  2 24  1  0  0  0  0
  2 22  1  0  0  0  0
  3 20  1  0  0  0  0
  4  1  1  0  0  0  0
  5 10  1  0  0  0  0
  6 11  1  0  0  0  0
  7 10  1  0  0  0  0
  7  3  2  0  0  0  0
  9  3  1  0  0  0  0
  9  6  2  0  0  0  0
 10 23  2  0  0  0  0
 11 16  2  0  0  0  0
 12  4  1  0  0  0  0
 12  8  1  0  0  0  0
 13  9  1  0  0  0  0
 14  2  1  0  0  0  0
 17  2  1  0  0  0  0
 17 13  1  0  0  0  0
 18  8  1  6  0  0  0
 18 19  1  0  0  0  0
 18 25  1  0  0  0  0
 19 25  1  0  0  0  0
 19  5  1  1  0  0  0
 20 16  1  1  0  0  0
 20 15  1  0  0  0  0
 21 13  2  0  0  0  0
 21  7  1  0  0  0  0
 22  6  1  0  0  0  0
 23 28  1  0  0  0  0
 26  8  2  0  0  0  0
 27 25  1  0  0  0  0
 27 21  1  0  0  0  0
 28 15  2  0  0  0  0
 30 23  1  0  0  0  0
 30 29  2  0  0  0  0
 31 30  1  0  0  0  0
 32 34  1  0  0  0  0
 33 35  2  0  0  0  0
 34 31  2  0  0  0  0
 34 33  1  0  0  0  0
 35 29  1  0  0  0  0
 36 37  1  0  0  0  0
 37  4  1  0  0  0  0
M  END
>  <MODEL>
6

>  <REMARK>
 VINA RESULT:      -8.6      3.093      7.918
  Name = 
  2 active torsions:
  status: ('A' for Active; 'I' for Inactive)
    1  A    between atoms: N_5  and  C_23
    2  A    between atoms: C_6  and  C_31
                            x       y       z     vdW  Elec       q    Type
                         _______ _______ _______ _____ _____    ______ ____

>  <TORSDO>
F 2

$$$$
=
 OpenBabel11052419533D

 37 44  0  0  1  0  0  0  0  0999 V2000
  192.6330  172.0980  141.2560 C   0  0  0  0  0  2  0  0  0  0  0  0
  195.8820  173.4220  144.4010 C   0  0  0  0  0  0  0  0  0  0  0  0
  192.1780  175.4550  144.4640 C   0  0  0  0  0  0  0  0  0  0  0  0
  192.9540  171.5270  139.9450 N   0  0  0  0  0  0  0  0  0  0  0  0
  189.5500  174.6910  141.9330 O   0  0  0  0  0  0  0  0  0  0  0  0
  194.3490  175.0740  145.4840 C   0  0  0  0  0  0  0  0  0  0  0  0
  191.6250  175.1140  143.3030 C   0  0  0  0  0  0  0  0  0  0  0  0
  190.5530  172.0310  139.5050 C   0  0  0  0  0  0  0  0  0  0  0  0
  193.4820  174.8900  144.5190 C   0  0  0  0  0  0  0  0  0  0  0  0
  190.2260  175.4970  142.8730 C   0  0  0  0  0  0  0  0  0  0  0  0
  193.9430  175.9340  146.6200 C   0  0  0  0  0  3  0  0  0  0  0  0
  191.9190  171.7800  138.9280 C   0  0  0  0  0  2  0  0  0  0  0  0
  193.7350  174.1600  143.3350 C   0  0  0  0  0  0  0  0  0  0  0  0
  195.5250  172.0820  145.0180 C   0  0  0  0  0  1  0  0  0  0  0  0
  191.1460  177.5640  145.0910 C   0  0  0  0  0  3  0  0  0  0  0  0
  192.7040  176.4780  146.6700 C   0  0  0  0  0  3  0  0  0  0  0  0
  195.0930  173.5860  143.0690 C   0  0  0  0  0  2  0  0  0  0  0  0
  190.1650  173.4170  139.9230 C   0  0  1  0  0  3  0  0  0  0  0  0
  190.2060  173.5820  141.3650 C   0  0  1  0  0  3  0  0  0  0  0  0
  191.6320  176.2540  145.6000 C   0  0  2  0  0  3  0  0  0  0  0  0
  192.6460  174.2600  142.5700 C   0  0  0  0  0  0  0  0  0  0  0  0
  195.6110  174.4710  145.3650 O   0  0  0  0  0  0  0  0  0  0  0  0
  189.5950  176.6240  143.3110 C   0  0  0  0  0  0  0  0  0  0  0  0
  197.3630  173.4190  144.0870 C   0  0  0  0  0  1  0  0  0  0  0  0
  191.2900  174.1650  140.5460 N   0  0  1  0  0  0  0  0  0  0  0  0
  189.7680  171.1060  139.6370 O   0  0  0  0  0  0  0  0  0  0  0  0
  192.5030  173.6320  141.1960 C   0  0  2  0  0  3  0  0  0  0  0  0
  190.2460  177.6970  144.1160 C   0  0  0  0  0  3  0  0  0  0  0  0
  187.9650  177.1400  141.4790 C   0  0  0  0  0  3  0  0  0  0  0  0
  188.2190  176.9370  142.8460 C   0  0  0  0  0  0  0  0  0  0  0  0
  187.1640  177.0830  143.7610 C   0  0  0  0  0  3  0  0  0  0  0  0
  184.8170  177.5410  144.2560 N   0  0  0  0  0  1  0  0  0  0  0  0
  185.6350  177.5920  141.9560 C   0  0  0  0  0  3  0  0  0  0  0  0
  185.8780  177.4040  143.3180 C   0  0  0  0  0  0  0  0  0  0  0  0
  186.6780  177.4620  141.0370 C   0  0  0  0  0  3  0  0  0  0  0  0
  192.7510  169.7300  141.5690 C   0  0  0  0  0  1  0  0  0  0  0  0
  193.0480  170.0880  140.1250 C   0  0  0  0  0  2  0  0  0  0  0  0
  2 14  1  0  0  0  0
  2 22  1  0  0  0  0
  3  9  1  0  0  0  0
  3 20  1  0  0  0  0
  4 37  1  0  0  0  0
  4  1  1  0  0  0  0
  5 10  1  0  0  0  0
  6 11  1  0  0  0  0
  7  3  2  0  0  0  0
  8 26  2  0  0  0  0
  9  6  2  0  0  0  0
 10  7  1  0  0  0  0
 10 23  2  0  0  0  0
 11 16  2  0  0  0  0
 12  8  1  0  0  0  0
 12  4  1  0  0  0  0
 13  9  1  0  0  0  0
 17 13  1  0  0  0  0
 17  2  1  0  0  0  0
 18  8  1  1  0  0  0
 18 25  1  0  0  0  0
 18 19  1  0  0  0  0
 19  5  1  6  0  0  0
 20 15  1  6  0  0  0
 20 16  1  0  0  0  0
 21  7  1  0  0  0  0
 21 13  2  0  0  0  0
 22  6  1  0  0  0  0
 23 28  1  0  0  0  0
 24  2  1  0  0  0  0
 25 27  1  0  0  0  0
 25 19  1  0  0  0  0
 27  1  1  0  0  0  0
 27 21  1  0  0  0  0
 28 15  2  0  0  0  0
 29 30  1  0  0  0  0
 30 23  1  0  0  0  0
 30 31  2  0  0  0  0
 33 34  2  0  0  0  0
 34 31  1  0  0  0  0
 34 32  1  0  0  0  0
 35 29  2  0  0  0  0
 35 33  1  0  0  0  0
 37 36  1  0  0  0  0
M  END
>  <MODEL>
7

>  <REMARK>
 VINA RESULT:      -7.8      3.042      4.928
  Name = 
  2 active torsions:
  status: ('A' for Active; 'I' for Inactive)
    1  A    between atoms: N_5  and  C_23
    2  A    between atoms: C_6  and  C_31
                            x       y       z     vdW  Elec       q    Type
                         _______ _______ _______ _____ _____    ______ ____

>  <TORSDO>
F 2

$$$$
=
 OpenBabel11052419533D

 37 44  0  0  1  0  0  0  0  0999 V2000
  195.3450  174.4550  141.3860 C   0  0  0  0  0  2  0  0  0  0  0  0
  193.6840  172.3830  137.4940 C   0  0  0  0  0  0  0  0  0  0  0  0
  190.8700  173.5590  140.4180 C   0  0  0  0  0  0  0  0  0  0  0  0
  196.6770  174.1980  141.9400 N   0  0  0  0  0  0  0  0  0  0  0  0
  191.9950  175.0350  143.6510 O   0  0  0  0  0  0  0  0  0  0  0  0
  191.3020  172.6690  138.2000 C   0  0  0  0  0  0  0  0  0  0  0  0
  191.6230  173.7890  141.4900 C   0  0  2  0  0  3  0  0  0  0  0  0
  195.7100  175.3470  143.9280 C   0  0  0  0  0  0  0  0  0  0  0  0
  191.7090  173.0700  139.3800 C   0  0  0  0  0  0  0  0  0  0  0  0
  191.1080  174.3430  142.8000 C   0  0  0  0  0  0  0  0  0  0  0  0
  189.8500  172.7360  137.9120 C   0  0  0  0  0  3  0  0  0  0  0  0
  196.7550  174.4050  143.3960 C   0  0  0  0  0  2  0  0  0  0  0  0
  193.0450  173.0050  139.8390 C   0  0  0  0  0  0  0  0  0  0  0  0
  194.0790  173.7110  136.8740 C   0  0  0  0  0  1  0  0  0  0  0  0
  188.6490  173.0580  141.2700 C   0  0  0  0  0  3  0  0  0  0  0  0
  188.9830  173.2290  138.8290 C   0  0  0  0  0  3  0  0  0  0  0  0
  194.1110  172.3830  138.9900 C   0  0  0  0  0  2  0  0  0  0  0  0
  194.3570  174.8220  144.3000 C   0  0  1  0  0  3  0  0  0  0  0  0
  193.3540  175.1460  143.3010 C   0  0  1  0  0  3  0  0  0  0  0  0
  189.4070  173.7610  140.2010 C   0  0  0  0  0  0  0  0  0  0  0  0
  193.0490  173.4300  141.1030 C   0  0  0  0  0  0  0  0  0  0  0  0
  192.2610  172.1780  137.3000 O   0  0  0  0  0  0  0  0  0  0  0  0
  189.8270  174.1620  143.2320 C   0  0  0  0  0  0  0  0  0  0  0  0
  194.4370  171.2830  136.7760 C   0  0  0  0  0  1  0  0  0  0  0  0
  193.8750  173.7640  143.3720 N   0  0  1  0  0  0  0  0  0  0  0  0
  195.9660  176.5340  144.0510 O   0  0  0  0  0  0  0  0  0  0  0  0
  194.2860  173.5050  141.9780 C   0  0  2  0  0  3  0  0  0  0  0  0
  188.8330  173.2670  142.5740 C   0  0  0  0  0  3  0  0  0  0  0  0
  189.6920  174.0740  145.7340 C   0  0  0  0  0  3  0  0  0  0  0  0
  189.3910  174.7360  144.5310 C   0  0  0  0  0  0  0  0  0  0  0  0
  188.6310  175.9170  144.5790 C   0  0  0  0  0  3  0  0  0  0  0  0
  187.4390  177.6370  145.8360 N   0  0  0  0  0  1  0  0  0  0  0  0
  188.5170  175.7770  146.9910 C   0  0  0  0  0  3  0  0  0  0  0  0
  188.2010  176.4370  145.8020 C   0  0  0  0  0  0  0  0  0  0  0  0
  189.2600  174.5950  146.9570 C   0  0  0  0  0  3  0  0  0  0  0  0
  196.9310  175.7400  140.0780 C   0  0  0  0  0  1  0  0  0  0  0  0
  197.5820  175.1460  141.3130 C   0  0  0  0  0  2  0  0  0  0  0  0
  1  4  1  0  0  0  0
  1 27  1  0  0  0  0
  2 17  1  0  0  0  0
  4 12  1  0  0  0  0
  6  9  1  0  0  0  0
  7  3  1  6  0  0  0
  7 10  1  0  0  0  0
  8 26  2  0  0  0  0
  9 13  1  0  0  0  0
  9  3  2  0  0  0  0
 10 23  2  0  0  0  0
 10  5  1  0  0  0  0
 11  6  2  0  0  0  0
 11 16  1  0  0  0  0
 12  8  1  0  0  0  0
 13 21  2  0  0  0  0
 14  2  1  0  0  0  0
 15 28  2  0  0  0  0
 16 20  2  0  0  0  0
 17 13  1  0  0  0  0
 18  8  1  6  0  0  0
 19 25  1  0  0  0  0
 19  5  1  1  0  0  0
 19 18  1  0  0  0  0
 20  3  1  0  0  0  0
 20 15  1  0  0  0  0
 21  7  1  0  0  0  0
 21 27  1  0  0  0  0
 22  2  1  0  0  0  0
 22  6  1  0  0  0  0
 23 30  1  0  0  0  0
 24  2  1  0  0  0  0
 25 18  1  0  0  0  0
 27 25  1  0  0  0  0
 28 23  1  0  0  0  0
 29 35  1  0  0  0  0
 30 31  1  0  0  0  0
 30 29  2  0  0  0  0
 31 34  2  0  0  0  0
 34 32  1  0  0  0  0
 34 33  1  0  0  0  0
 35 33  2  0  0  0  0
 36 37  1  0  0  0  0
 37  4  1  0  0  0  0
M  END
>  <MODEL>
8

>  <REMARK>
 VINA RESULT:      -7.7      4.128      8.331
  Name = 
  2 active torsions:
  status: ('A' for Active; 'I' for Inactive)
    1  A    between atoms: N_5  and  C_23
    2  A    between atoms: C_6  and  C_31
                            x       y       z     vdW  Elec       q    Type
                         _______ _______ _______ _____ _____    ______ ____

>  <TORSDO>
F 2

$$$$
=
 OpenBabel11052419533D

 37 44  0  0  1  0  0  0  0  0999 V2000
  194.5760  174.2550  144.3020 C   0  0  0  0  0  2  0  0  0  0  0  0
  194.2730  170.5050  141.4670 C   0  0  0  0  0  0  0  0  0  0  0  0
  190.9520  173.1140  141.5950 C   0  0  0  0  0  0  0  0  0  0  0  0
  195.3810  174.2880  145.5270 N   0  0  0  0  0  0  0  0  0  0  0  0
  190.9150  176.0280  143.9200 O   0  0  0  0  0  0  0  0  0  0  0  0
  192.0320  171.1860  140.5890 C   0  0  0  0  0  0  0  0  0  0  0  0
  191.1840  173.8480  142.6800 C   0  0  2  0  0  3  0  0  0  0  0  0
  194.0280  176.3320  145.9690 C   0  0  0  0  0  0  0  0  0  0  0  0
  191.9750  172.1310  141.4950 C   0  0  0  0  0  0  0  0  0  0  0  0
  190.3350  175.0180  143.1240 C   0  0  0  0  0  0  0  0  0  0  0  0
  190.9520  171.1330  139.5770 C   0  0  0  0  0  3  0  0  0  0  0  0
  194.8650  175.2220  146.5420 C   0  0  0  0  0  2  0  0  0  0  0  0
  192.8820  172.2770  142.5690 C   0  0  0  0  0  0  0  0  0  0  0  0
  195.2790  171.3020  140.6550 C   0  0  0  0  0  1  0  0  0  0  0  0
  188.5480  173.1940  141.2480 C   0  0  0  0  0  3  0  0  0  0  0  0
  189.9610  172.0570  139.5730 C   0  0  0  0  0  3  0  0  0  0  0  0
  193.9730  171.2740  142.7860 C   0  0  0  0  0  2  0  0  0  0  0  0
  192.5620  176.1180  145.7440 C   0  0  1  0  0  3  0  0  0  0  0  0
  192.2530  175.9010  144.3420 C   0  0  1  0  0  3  0  0  0  0  0  0
  189.8710  173.2140  140.5710 C   0  0  0  0  0  0  0  0  0  0  0  0
  192.4530  173.2990  143.3120 C   0  0  0  0  0  0  0  0  0  0  0  0
  193.0950  170.2700  140.6550 O   0  0  0  0  0  0  0  0  0  0  0  0
  189.0070  175.1260  142.8340 C   0  0  0  0  0  0  0  0  0  0  0  0
  194.8990  169.1720  141.8160 C   0  0  0  0  0  1  0  0  0  0  0  0
  192.2490  174.7450  145.2640 N   0  0  1  0  0  0  0  0  0  0  0  0
  194.5440  177.4020  145.6860 O   0  0  0  0  0  0  0  0  0  0  0  0
  193.1350  173.7850  144.5770 C   0  0  2  0  0  3  0  0  0  0  0  0
  188.1890  174.0480  142.2080 C   0  0  0  0  0  3  0  0  0  0  0  0
  187.7830  177.2660  142.3810 C   0  0  0  0  0  3  0  0  0  0  0  0
  188.2350  176.3060  143.3020 C   0  0  0  0  0  0  0  0  0  0  0  0
  187.9870  176.5100  144.6690 C   0  0  0  0  0  3  0  0  0  0  0  0
  187.0340  177.8260  146.4920 N   0  0  0  0  0  1  0  0  0  0  0  0
  186.8300  178.5770  144.1790 C   0  0  0  0  0  3  0  0  0  0  0  0
  187.2840  177.6370  145.1050 C   0  0  0  0  0  0  0  0  0  0  0  0
  187.0810  178.3940  142.8170 C   0  0  0  0  0  3  0  0  0  0  0  0
  196.7540  174.9960  143.6500 C   0  0  0  0  0  1  0  0  0  0  0  0
  196.7070  174.7440  145.1450 C   0  0  0  0  0  2  0  0  0  0  0  0
  1 27  1  0  0  0  0
  1  4  1  0  0  0  0
  2 24  1  0  0  0  0
  2 17  1  0  0  0  0
  4 12  1  0  0  0  0
  6 22  1  0  0  0  0
  6  9  1  0  0  0  0
  7  3  1  6  0  0  0
  7 10  1  0  0  0  0
  7 21  1  0  0  0  0
  8 12  1  0  0  0  0
  9  3  2  0  0  0  0
  9 13  1  0  0  0  0
 10  5  1  0  0  0  0
 11  6  2  0  0  0  0
 13 17  1  0  0  0  0
 13 21  2  0  0  0  0
 14  2  1  0  0  0  0
 15 28  2  0  0  0  0
 16 11  1  0  0  0  0
 16 20  2  0  0  0  0
 18  8  1  6  0  0  0
 19  5  1  1  0  0  0
 19 25  1  0  0  0  0
 19 18  1  0  0  0  0
 20 15  1  0  0  0  0
 20  3  1  0  0  0  0
 21 27  1  0  0  0  0
 22  2  1  0  0  0  0
 23 10  2  0  0  0  0
 23 30  1  0  0  0  0
 25 18  1  0  0  0  0
 26  8  2  0  0  0  0
 27 25  1  0  0  0  0
 28 23  1  0  0  0  0
 29 35  2  0  0  0  0
 29 30  1  0  0  0  0
 30 31  2  0  0  0  0
 31 34  1  0  0  0  0
 33 34  2  0  0  0  0
 34 32  1  0  0  0  0
 35 33  1  0  0  0  0
 36 37  1  0  0  0  0
 37  4  1  0  0  0  0
M  END
>  <MODEL>
9

>  <REMARK>
 VINA RESULT:      -7.7      3.240      7.266
  Name = 
  2 active torsions:
  status: ('A' for Active; 'I' for Inactive)
    1  A    between atoms: N_5  and  C_23
    2  A    between atoms: C_6  and  C_31
                            x       y       z     vdW  Elec       q    Type
                         _______ _______ _______ _____ _____    ______ ____

>  <TORSDO>
F 2

$$$$
