=
 OpenBabel11052417283D

 25 28  0  0  1  0  0  0  0  0999 V2000
  188.4720  178.1180  142.8410 C   0  0  0  0  0  0  0  0  0  0  0  0
  189.3270  177.8730  143.9780 N   0  0  0  0  0  0  0  0  0  0  0  0
  190.3830  175.2620  142.3240 C   0  0  1  0  0  3  0  0  0  0  0  0
  189.5130  174.9130  144.6310 C   0  0  2  0  0  3  0  0  0  0  0  0
  191.5880  177.3220  143.0720 C   0  0  0  0  0  2  0  0  0  0  0  0
  190.8920  175.4730  144.6670 C   0  0  0  0  0  0  0  0  0  0  0  0
  191.5330  175.6190  145.6950 O   0  0  0  0  0  0  0  0  0  0  0  0
  189.2740  174.6230  143.1430 C   0  0  2  0  0  0  0  0  0  0  0  0
  188.8310  177.3700  145.2580 C   0  0  0  0  0  2  0  0  0  0  0  0
  188.9990  178.3180  141.7120 O   0  0  0  0  0  0  0  0  0  0  0  0
  191.4150  175.8110  143.3100 C   0  0  1  0  0  3  0  0  0  0  0  0
  190.3060  173.7370  142.4320 C   0  0  1  0  0  3  0  0  0  0  0  0
  188.4510  175.8820  145.2000 C   0  0  0  0  0  2  0  0  0  0  0  0
  190.7370  178.2580  143.9460 C   0  0  0  0  0  2  0  0  0  0  0  0
  187.8850  174.7830  142.5260 C   0  0  0  0  0  1  0  0  0  0  0  0
  186.9930  178.1550  142.9550 C   0  0  0  0  0  0  0  0  0  0  0  0
  184.1920  178.2970  143.1680 C   0  0  0  0  0  3  0  0  0  0  0  0
  186.1710  177.7210  141.8940 C   0  0  0  0  0  0  0  0  0  0  0  0
  184.7790  177.7880  142.0090 C   0  0  0  0  0  3  0  0  0  0  0  0
  184.9960  178.7410  144.2180 C   0  0  0  0  0  3  0  0  0  0  0  0
  186.7070  177.2090  140.7570 F   0  0  0  0  0  0  0  0  0  0  0  0
  186.3870  178.6740  144.1100 C   0  0  0  0  0  3  0  0  0  0  0  0
  189.8180  173.1430  141.1450 C   0  0  0  0  0  0  0  0  0  0  0  0
  189.9260  173.8520  139.9560 O   0  0  0  0  0  0  0  0  0  0  0  0
  189.3460  171.9760  141.1340 O   0  0  0  0  0  1  0  0  0  0  0  0
  1 16  1  0  0  0  0
  1  2  1  0  0  0  0
  2  9  1  0  0  0  0
  3 12  1  0  0  0  0
  3  8  1  0  0  0  0
  3 11  1  0  0  0  0
  4  6  1  0  0  0  0
  4 13  1  0  0  0  0
  5 11  1  0  0  0  0
  5 14  1  0  0  0  0
  6  7  2  0  0  0  0
  8  4  1  0  0  0  0
 10  1  2  0  0  0  0
 11  6  1  0  0  0  0
 12  8  1  0  0  0  0
 13  9  1  0  0  0  0
 14  2  1  0  0  0  0
 15  8  1  0  0  0  0
 16 22  1  0  0  0  0
 17 20  1  0  0  0  0
 18 19  1  0  0  0  0
 18 16  2  0  0  0  0
 19 17  2  0  0  0  0
 21 18  1  0  0  0  0
 22 20  2  0  0  0  0
 23 12  1  0  0  0  0
 24 23  2  0  0  0  0
 25 23  1  0  0  0  0
M  END
>  <MODEL>
1

>  <REMARK>
 VINA RESULT:      -7.0      0.000      0.000
  Name = 
  2 active torsions:
  status: ('A' for Active; 'I' for Inactive)
    1  A    between atoms: C_1  and  C_5
    2  A    between atoms: C_2  and  C_21
                            x       y       z     vdW  Elec       q    Type
                         _______ _______ _______ _____ _____    ______ ____

>  <TORSDO>
F 2

$$$$
=
 OpenBabel11052417283D

 25 28  0  0  1  0  0  0  0  0999 V2000
  187.9420  176.2720  143.5060 C   0  0  0  0  0  0  0  0  0  0  0  0
  189.1260  176.3920  142.6910 N   0  0  0  0  0  0  0  0  0  0  0  0
  190.7800  175.5420  145.3760 C   0  0  1  0  0  3  0  0  0  0  0  0
  191.4270  177.6510  144.2210 C   0  0  2  0  0  3  0  0  0  0  0  0
  190.5380  174.3890  143.1700 C   0  0  0  0  0  2  0  0  0  0  0  0
  191.9600  176.4670  143.4930 C   0  0  0  0  0  0  0  0  0  0  0  0
  192.7100  176.5460  142.5340 O   0  0  0  0  0  0  0  0  0  0  0  0
  190.8310  177.0550  145.5040 C   0  0  2  0  0  0  0  0  0  0  0  0
  189.6760  177.6770  142.2640 C   0  0  0  0  0  2  0  0  0  0  0  0
  187.6700  175.1560  144.0290 O   0  0  0  0  0  0  0  0  0  0  0  0
  191.5010  175.1730  144.0790 C   0  0  1  0  0  3  0  0  0  0  0  0
  191.7580  176.1840  146.3620 C   0  0  1  0  0  3  0  0  0  0  0  0
  190.3680  178.4330  143.4100 C   0  0  0  0  0  2  0  0  0  0  0  0
  189.7630  175.2050  142.1220 C   0  0  0  0  0  2  0  0  0  0  0  0
  189.5820  177.6610  146.1420 C   0  0  0  0  0  1  0  0  0  0  0  0
  187.0240  177.4130  143.7450 C   0  0  0  0  0  0  0  0  0  0  0  0
  185.3410  179.6160  144.2180 C   0  0  0  0  0  3  0  0  0  0  0  0
  186.3660  178.0540  142.6750 C   0  0  0  0  0  0  0  0  0  0  0  0
  185.5260  179.1450  142.9170 C   0  0  0  0  0  3  0  0  0  0  0  0
  185.9970  178.9980  145.2820 C   0  0  0  0  0  3  0  0  0  0  0  0
  186.5130  177.6150  141.4000 F   0  0  0  0  0  0  0  0  0  0  0  0
  186.8360  177.9070  145.0460 C   0  0  0  0  0  3  0  0  0  0  0  0
  191.2840  175.9940  147.7720 C   0  0  0  0  0  0  0  0  0  0  0  0
  191.5930  176.9300  148.7510 O   0  0  0  0  0  1  0  0  0  0  0  0
  190.5650  175.0020  148.0620 O   0  0  0  0  0  0  0  0  0  0  0  0
  1 16  1  0  0  0  0
  1 10  2  0  0  0  0
  2  1  1  0  0  0  0
  3  8  1  0  0  0  0
  3 12  1  0  0  0  0
  4  8  1  0  0  0  0
  5 11  1  0  0  0  0
  6 11  1  0  0  0  0
  6  4  1  0  0  0  0
  7  6  2  0  0  0  0
  8 15  1  0  0  0  0
  8 12  1  0  0  0  0
  9  2  1  0  0  0  0
  9 13  1  0  0  0  0
 11  3  1  0  0  0  0
 12 23  1  0  0  0  0
 13  4  1  0  0  0  0
 14  2  1  0  0  0  0
 14  5  1  0  0  0  0
 16 22  1  0  0  0  0
 17 20  1  0  0  0  0
 18 19  1  0  0  0  0
 18 16  2  0  0  0  0
 19 17  2  0  0  0  0
 21 18  1  0  0  0  0
 22 20  2  0  0  0  0
 23 25  2  0  0  0  0
 23 24  1  0  0  0  0
M  END
>  <MODEL>
2

>  <REMARK>
 VINA RESULT:      -6.9      2.043      3.935
  Name = 
  2 active torsions:
  status: ('A' for Active; 'I' for Inactive)
    1  A    between atoms: C_1  and  C_5
    2  A    between atoms: C_2  and  C_21
                            x       y       z     vdW  Elec       q    Type
                         _______ _______ _______ _____ _____    ______ ____

>  <TORSDO>
F 2

$$$$
=
 OpenBabel11052417283D

 25 28  0  0  1  0  0  0  0  0999 V2000
  190.0490  175.7900  145.7990 C   0  0  0  0  0  0  0  0  0  0  0  0
  189.4340  177.0070  145.3260 N   0  0  0  0  0  0  0  0  0  0  0  0
  188.0440  175.1400  143.0350 C   0  0  1  0  0  3  0  0  0  0  0  0
  189.3510  177.1260  142.2930 C   0  0  2  0  0  3  0  0  0  0  0  0
  187.0330  176.4790  144.8910 C   0  0  0  0  0  2  0  0  0  0  0  0
  188.0130  177.5350  142.8000 C   0  0  0  0  0  0  0  0  0  0  0  0
  187.5890  178.6790  142.7390 O   0  0  0  0  0  0  0  0  0  0  0  0
  189.2860  175.5920  142.2870 C   0  0  2  0  0  0  0  0  0  0  0  0
  190.1690  178.0490  144.6120 C   0  0  0  0  0  2  0  0  0  0  0  0
  189.3110  174.8430  146.1880 O   0  0  0  0  0  0  0  0  0  0  0  0
  187.2340  176.3950  143.3670 C   0  0  1  0  0  3  0  0  0  0  0  0
  188.1240  174.9470  141.5200 C   0  0  1  0  0  3  0  0  0  0  0  0
  190.5140  177.6440  143.1700 C   0  0  0  0  0  2  0  0  0  0  0  0
  188.0500  177.3260  145.6740 C   0  0  0  0  0  2  0  0  0  0  0  0
  190.5270  174.7550  142.5950 C   0  0  0  0  0  1  0  0  0  0  0  0
  191.5210  175.6150  145.8530 C   0  0  0  0  0  0  0  0  0  0  0  0
  194.3180  175.3170  145.8940 C   0  0  0  0  0  3  0  0  0  0  0  0
  192.3010  176.3050  146.8050 C   0  0  0  0  0  0  0  0  0  0  0  0
  193.6910  176.1470  146.8240 C   0  0  0  0  0  3  0  0  0  0  0  0
  193.5570  174.6400  144.9400 C   0  0  0  0  0  3  0  0  0  0  0  0
  191.7240  177.1100  147.7320 F   0  0  0  0  0  0  0  0  0  0  0  0
  192.1690  174.7920  144.9180 C   0  0  0  0  0  3  0  0  0  0  0  0
  188.3420  173.5030  141.1840 C   0  0  0  0  0  0  0  0  0  0  0  0
  187.9940  172.5090  142.0910 O   0  0  0  0  0  1  0  0  0  0  0  0
  188.8010  173.1830  140.0560 O   0  0  0  0  0  0  0  0  0  0  0  0
  1 16  1  0  0  0  0
  1 10  2  0  0  0  0
  2 14  1  0  0  0  0
  2  1  1  0  0  0  0
  3 11  1  0  0  0  0
  4  6  1  0  0  0  0
  4 13  1  0  0  0  0
  5 14  1  0  0  0  0
  6 11  1  0  0  0  0
  7  6  2  0  0  0  0
  8  4  1  0  0  0  0
  8 15  1  0  0  0  0
  8  3  1  0  0  0  0
  9  2  1  0  0  0  0
 11  5  1  0  0  0  0
 12  8  1  0  0  0  0
 12  3  1  0  0  0  0
 13  9  1  0  0  0  0
 16 18  1  0  0  0  0
 17 19  1  0  0  0  0
 18 19  2  0  0  0  0
 18 21  1  0  0  0  0
 20 17  2  0  0  0  0
 22 20  1  0  0  0  0
 22 16  2  0  0  0  0
 23 12  1  0  0  0  0
 23 24  1  0  0  0  0
 25 23  2  0  0  0  0
M  END
>  <MODEL>
3

>  <REMARK>
 VINA RESULT:      -6.7      2.482      5.489
  Name = 
  2 active torsions:
  status: ('A' for Active; 'I' for Inactive)
    1  A    between atoms: C_1  and  C_5
    2  A    between atoms: C_2  and  C_21
                            x       y       z     vdW  Elec       q    Type
                         _______ _______ _______ _____ _____    ______ ____

>  <TORSDO>
F 2

$$$$
=
 OpenBabel11052417283D

 25 28  0  0  1  0  0  0  0  0999 V2000
  190.4650  174.0580  144.8200 C   0  0  0  0  0  0  0  0  0  0  0  0
  190.7260  174.9530  145.9220 N   0  0  0  0  0  0  0  0  0  0  0  0
  187.9660  176.4630  145.0420 C   0  0  1  0  0  3  0  0  0  0  0  0
  190.0420  177.8280  145.2250 C   0  0  2  0  0  3  0  0  0  0  0  0
  188.5660  175.2420  147.1410 C   0  0  0  0  0  2  0  0  0  0  0  0
  189.4790  177.5420  146.5730 C   0  0  0  0  0  0  0  0  0  0  0  0
  189.9220  178.0210  147.6040 O   0  0  0  0  0  0  0  0  0  0  0  0
  188.9770  177.2860  144.2610 C   0  0  2  0  0  0  0  0  0  0  0  0
  191.7740  175.9710  145.8940 C   0  0  0  0  0  2  0  0  0  0  0  0
  189.4020  173.3770  144.8230 O   0  0  0  0  0  0  0  0  0  0  0  0
  188.3000  176.6270  146.5260 C   0  0  1  0  0  3  0  0  0  0  0  0
  187.5440  177.8060  144.4420 C   0  0  1  0  0  3  0  0  0  0  0  0
  191.4160  177.1610  144.9890 C   0  0  0  0  0  2  0  0  0  0  0  0
  190.0330  174.7840  147.1980 C   0  0  0  0  0  2  0  0  0  0  0  0
  189.3750  176.6620  142.9240 C   0  0  0  0  0  1  0  0  0  0  0  0
  191.4090  173.9000  143.6860 C   0  0  0  0  0  0  0  0  0  0  0  0
  193.2020  173.6720  141.5310 C   0  0  0  0  0  3  0  0  0  0  0  0
  192.7130  173.4030  143.8890 C   0  0  0  0  0  0  0  0  0  0  0  0
  193.5980  173.2860  142.8120 C   0  0  0  0  0  3  0  0  0  0  0  0
  191.9180  174.1770  141.3210 C   0  0  0  0  0  3  0  0  0  0  0  0
  193.1280  173.0060  145.1180 F   0  0  0  0  0  0  0  0  0  0  0  0
  191.0300  174.2940  142.3930 C   0  0  0  0  0  3  0  0  0  0  0  0
  186.6630  177.5950  143.2490 C   0  0  0  0  0  0  0  0  0  0  0  0
  185.9420  176.4160  143.1050 O   0  0  0  0  0  1  0  0  0  0  0  0
  186.5390  178.5090  142.3920 O   0  0  0  0  0  0  0  0  0  0  0  0
  1 10  2  0  0  0  0
  1  2  1  0  0  0  0
  2 14  1  0  0  0  0
  3 11  1  0  0  0  0
  4  6  1  0  0  0  0
  5 14  1  0  0  0  0
  6  7  2  0  0  0  0
  8 12  1  0  0  0  0
  8  3  1  0  0  0  0
  8  4  1  0  0  0  0
  9  2  1  0  0  0  0
 11  6  1  0  0  0  0
 11  5  1  0  0  0  0
 12  3  1  0  0  0  0
 13  4  1  0  0  0  0
 13  9  1  0  0  0  0
 15  8  1  0  0  0  0
 16 18  1  0  0  0  0
 16  1  1  0  0  0  0
 17 19  1  0  0  0  0
 18 21  1  0  0  0  0
 19 18  2  0  0  0  0
 20 17  2  0  0  0  0
 20 22  1  0  0  0  0
 22 16  2  0  0  0  0
 23 12  1  0  0  0  0
 24 23  1  0  0  0  0
 25 23  2  0  0  0  0
M  END
>  <MODEL>
4

>  <REMARK>
 VINA RESULT:      -6.7      2.858      5.938
  Name = 
  2 active torsions:
  status: ('A' for Active; 'I' for Inactive)
    1  A    between atoms: C_1  and  C_5
    2  A    between atoms: C_2  and  C_21
                            x       y       z     vdW  Elec       q    Type
                         _______ _______ _______ _____ _____    ______ ____

>  <TORSDO>
F 2

$$$$
=
 OpenBabel11052417283D

 25 28  0  0  1  0  0  0  0  0999 V2000
  189.3090  177.1830  144.4630 C   0  0  0  0  0  0  0  0  0  0  0  0
  190.4570  176.3930  144.8390 N   0  0  0  0  0  0  0  0  0  0  0  0
  190.1400  174.9660  141.9190 C   0  0  1  0  0  3  0  0  0  0  0  0
  190.1850  173.5070  143.9370 C   0  0  2  0  0  3  0  0  0  0  0  0
  191.9870  176.3610  142.8660 C   0  0  0  0  0  2  0  0  0  0  0  0
  191.5570  173.9640  143.5870 C   0  0  0  0  0  0  0  0  0  0  0  0
  192.5650  173.5690  144.1510 O   0  0  0  0  0  0  0  0  0  0  0  0
  189.3230  174.0080  142.7690 C   0  0  2  0  0  0  0  0  0  0  0  0
  190.3980  175.3180  145.8270 C   0  0  0  0  0  2  0  0  0  0  0  0
  189.3830  177.9220  143.4420 O   0  0  0  0  0  0  0  0  0  0  0  0
  191.5720  174.9370  142.4540 C   0  0  1  0  0  3  0  0  0  0  0  0
  189.7570  173.5950  141.3570 C   0  0  1  0  0  3  0  0  0  0  0  0
  189.6890  174.0630  145.2910 C   0  0  0  0  0  2  0  0  0  0  0  0
  191.7900  176.7340  144.3450 C   0  0  0  0  0  2  0  0  0  0  0  0
  187.8830  174.4650  142.9990 C   0  0  0  0  0  1  0  0  0  0  0  0
  188.0450  177.1670  145.2400 C   0  0  0  0  0  0  0  0  0  0  0  0
  185.6470  177.0630  146.7070 C   0  0  0  0  0  3  0  0  0  0  0  0
  188.0310  177.4890  146.6130 C   0  0  0  0  0  0  0  0  0  0  0  0
  186.8340  177.4420  147.3350 C   0  0  0  0  0  3  0  0  0  0  0  0
  185.6530  176.7290  145.3520 C   0  0  0  0  0  3  0  0  0  0  0  0
  189.1640  177.8740  147.2530 F   0  0  0  0  0  0  0  0  0  0  0  0
  186.8440  176.7760  144.6260 C   0  0  0  0  0  3  0  0  0  0  0  0
  188.6800  173.7330  140.3230 C   0  0  0  0  0  0  0  0  0  0  0  0
  188.3510  174.9810  139.8110 O   0  0  0  0  0  0  0  0  0  0  0  0
  188.1000  172.7060  139.8820 O   0  0  0  0  0  1  0  0  0  0  0  0
  1  2  1  0  0  0  0
  1 16  1  0  0  0  0
  2  9  1  0  0  0  0
  3 11  1  0  0  0  0
  3  8  1  0  0  0  0
  4 13  1  0  0  0  0
  5 14  1  0  0  0  0
  6  4  1  0  0  0  0
  6  7  2  0  0  0  0
  8 15  1  0  0  0  0
  8  4  1  0  0  0  0
 10  1  2  0  0  0  0
 11  5  1  0  0  0  0
 11  6  1  0  0  0  0
 12  3  1  0  0  0  0
 12  8  1  0  0  0  0
 13  9  1  0  0  0  0
 14  2  1  0  0  0  0
 16 18  1  0  0  0  0
 17 19  1  0  0  0  0
 18 21  1  0  0  0  0
 18 19  2  0  0  0  0
 20 17  2  0  0  0  0
 22 16  2  0  0  0  0
 22 20  1  0  0  0  0
 23 12  1  0  0  0  0
 24 23  2  0  0  0  0
 25 23  1  0  0  0  0
M  END
>  <MODEL>
5

>  <REMARK>
 VINA RESULT:      -6.6      2.311      2.808
  Name = 
  2 active torsions:
  status: ('A' for Active; 'I' for Inactive)
    1  A    between atoms: C_1  and  C_5
    2  A    between atoms: C_2  and  C_21
                            x       y       z     vdW  Elec       q    Type
                         _______ _______ _______ _____ _____    ______ ____

>  <TORSDO>
F 2

$$$$
=
 OpenBabel11052417283D

 25 28  0  0  1  0  0  0  0  0999 V2000
  190.9380  177.5960  143.9800 C   0  0  0  0  0  0  0  0  0  0  0  0
  190.1190  177.0210  142.9400 N   0  0  0  0  0  0  0  0  0  0  0  0
  187.5890  177.6500  144.9080 C   0  0  1  0  0  3  0  0  0  0  0  0
  187.8790  175.3180  144.0820 C   0  0  2  0  0  3  0  0  0  0  0  0
  188.1610  178.5410  142.6420 C   0  0  0  0  0  2  0  0  0  0  0  0
  187.2960  176.1840  143.0210 C   0  0  0  0  0  0  0  0  0  0  0  0
  186.9080  175.7620  141.9440 O   0  0  0  0  0  0  0  0  0  0  0  0
  187.8960  176.2210  145.3240 C   0  0  2  0  0  0  0  0  0  0  0  0
  190.0720  175.5870  142.6620 C   0  0  0  0  0  2  0  0  0  0  0  0
  190.7460  178.7980  144.3150 O   0  0  0  0  0  0  0  0  0  0  0  0
  187.2100  177.6190  143.4270 C   0  0  1  0  0  3  0  0  0  0  0  0
  186.5660  176.8670  145.7330 C   0  0  1  0  0  3  0  0  0  0  0  0
  189.2940  174.8040  143.7320 C   0  0  0  0  0  2  0  0  0  0  0  0
  189.3930  177.8770  142.0040 C   0  0  0  0  0  2  0  0  0  0  0  0
  189.0150  176.1090  146.3580 C   0  0  0  0  0  1  0  0  0  0  0  0
  192.0080  176.8290  144.6630 C   0  0  0  0  0  0  0  0  0  0  0  0
  193.9900  175.3180  145.9680 C   0  0  0  0  0  3  0  0  0  0  0  0
  193.1240  176.3430  143.9500 C   0  0  0  0  0  0  0  0  0  0  0  0
  194.1100  175.5980  144.6060 C   0  0  0  0  0  3  0  0  0  0  0  0
  192.8840  175.7830  146.6800 C   0  0  0  0  0  3  0  0  0  0  0  0
  193.2790  176.6070  142.6280 F   0  0  0  0  0  0  0  0  0  0  0  0
  191.8980  176.5280  146.0310 C   0  0  0  0  0  3  0  0  0  0  0  0
  186.5380  177.3640  147.1470 C   0  0  0  0  0  0  0  0  0  0  0  0
  186.8950  178.6750  147.4390 O   0  0  0  0  0  0  0  0  0  0  0  0
  186.1480  176.6040  148.0710 O   0  0  0  0  0  1  0  0  0  0  0  0
  1 10  2  0  0  0  0
  1 16  1  0  0  0  0
  2  1  1  0  0  0  0
  3  8  1  0  0  0  0
  3 12  1  0  0  0  0
  4  8  1  0  0  0  0
  5 11  1  0  0  0  0
  6 11  1  0  0  0  0
  6  4  1  0  0  0  0
  7  6  2  0  0  0  0
  8 12  1  0  0  0  0
  8 15  1  0  0  0  0
  9  2  1  0  0  0  0
  9 13  1  0  0  0  0
 11  3  1  0  0  0  0
 12 23  1  0  0  0  0
 13  4  1  0  0  0  0
 14  5  1  0  0  0  0
 14  2  1  0  0  0  0
 16 22  1  0  0  0  0
 17 20  1  0  0  0  0
 18 19  1  0  0  0  0
 18 16  2  0  0  0  0
 19 17  2  0  0  0  0
 21 18  1  0  0  0  0
 22 20  2  0  0  0  0
 23 24  2  0  0  0  0
 23 25  1  0  0  0  0
M  END
>  <MODEL>
6

>  <REMARK>
 VINA RESULT:      -6.6      2.861      6.012
  Name = 
  2 active torsions:
  status: ('A' for Active; 'I' for Inactive)
    1  A    between atoms: C_1  and  C_5
    2  A    between atoms: C_2  and  C_21
                            x       y       z     vdW  Elec       q    Type
                         _______ _______ _______ _____ _____    ______ ____

>  <TORSDO>
F 2

$$$$
=
 OpenBabel11052417283D

 25 28  0  0  1  0  0  0  0  0999 V2000
  187.7560  175.4500  142.6220 C   0  0  0  0  0  0  0  0  0  0  0  0
  189.1710  175.5720  142.8790 N   0  0  0  0  0  0  0  0  0  0  0  0
  188.3190  176.1860  145.9720 C   0  0  1  0  0  3  0  0  0  0  0  0
  189.7750  177.8370  144.8090 C   0  0  2  0  0  3  0  0  0  0  0  0
  189.6330  174.3040  144.9790 C   0  0  0  0  0  2  0  0  0  0  0  0
  190.5640  176.6510  145.2400 C   0  0  0  0  0  0  0  0  0  0  0  0
  191.7780  176.5740  145.1360 O   0  0  0  0  0  0  0  0  0  0  0  0
  188.3920  177.6050  145.4330 C   0  0  2  0  0  0  0  0  0  0  0  0
  189.9670  176.7170  142.4410 C   0  0  0  0  0  2  0  0  0  0  0  0
  187.0980  174.5630  143.2320 O   0  0  0  0  0  0  0  0  0  0  0  0
  189.7160  175.5780  145.8390 C   0  0  1  0  0  3  0  0  0  0  0  0
  188.3450  177.3640  146.9480 C   0  0  1  0  0  3  0  0  0  0  0  0
  189.6900  177.9800  143.2720 C   0  0  0  0  0  2  0  0  0  0  0  0
  189.9170  174.4660  143.4770 C   0  0  0  0  0  2  0  0  0  0  0  0
  187.1220  178.0560  144.7140 C   0  0  0  0  0  1  0  0  0  0  0  0
  187.0470  176.3250  141.6560 C   0  0  0  0  0  0  0  0  0  0  0  0
  185.7390  178.0410  139.8520 C   0  0  0  0  0  3  0  0  0  0  0  0
  187.3020  176.2380  140.2720 C   0  0  0  0  0  0  0  0  0  0  0  0
  186.6430  177.0900  139.3790 C   0  0  0  0  0  3  0  0  0  0  0  0
  185.4890  178.1450  141.2210 C   0  0  0  0  0  3  0  0  0  0  0  0
  188.1650  175.3160  139.7760 F   0  0  0  0  0  0  0  0  0  0  0  0
  186.1420  177.2960  142.1160 C   0  0  0  0  0  3  0  0  0  0  0  0
  186.9910  177.5720  147.5570 C   0  0  0  0  0  0  0  0  0  0  0  0
  186.6100  178.8270  148.0160 O   0  0  0  0  0  1  0  0  0  0  0  0
  186.1750  176.6150  147.6130 O   0  0  0  0  0  0  0  0  0  0  0  0
  1  2  1  0  0  0  0
  1 10  2  0  0  0  0
  2 14  1  0  0  0  0
  3 12  1  0  0  0  0
  4  6  1  0  0  0  0
  4  8  1  0  0  0  0
  5 11  1  0  0  0  0
  6 11  1  0  0  0  0
  7  6  2  0  0  0  0
  8  3  1  0  0  0  0
  8 12  1  0  0  0  0
  9  2  1  0  0  0  0
  9 13  1  0  0  0  0
 11  3  1  0  0  0  0
 12 23  1  0  0  0  0
 13  4  1  0  0  0  0
 14  5  1  0  0  0  0
 15  8  1  0  0  0  0
 16 22  1  0  0  0  0
 16  1  1  0  0  0  0
 17 20  1  0  0  0  0
 18 16  2  0  0  0  0
 19 17  2  0  0  0  0
 19 18  1  0  0  0  0
 20 22  2  0  0  0  0
 21 18  1  0  0  0  0
 23 25  2  0  0  0  0
 23 24  1  0  0  0  0
M  END
>  <MODEL>
7

>  <REMARK>
 VINA RESULT:      -6.6      2.451      4.445
  Name = 
  2 active torsions:
  status: ('A' for Active; 'I' for Inactive)
    1  A    between atoms: C_1  and  C_5
    2  A    between atoms: C_2  and  C_21
                            x       y       z     vdW  Elec       q    Type
                         _______ _______ _______ _____ _____    ______ ____

>  <TORSDO>
F 2

$$$$
=
 OpenBabel11052417283D

 25 28  0  0  1  0  0  0  0  0999 V2000
  189.3080  177.5260  143.5140 C   0  0  0  0  0  0  0  0  0  0  0  0
  190.2740  177.0730  144.4860 N   0  0  0  0  0  0  0  0  0  0  0  0
  191.0580  174.7840  142.2920 C   0  0  1  0  0  3  0  0  0  0  0  0
  190.4360  174.0430  144.5870 C   0  0  2  0  0  3  0  0  0  0  0  0
  192.4030  176.6640  143.2470 C   0  0  0  0  0  2  0  0  0  0  0  0
  191.8270  174.5710  144.5630 C   0  0  0  0  0  0  0  0  0  0  0  0
  192.5830  174.5250  145.5210 O   0  0  0  0  0  0  0  0  0  0  0  0
  190.0250  174.0230  143.1080 C   0  0  2  0  0  0  0  0  0  0  0  0
  189.9060  176.3590  145.7060 C   0  0  0  0  0  2  0  0  0  0  0  0
  189.7130  177.9160  142.3850 O   0  0  0  0  0  0  0  0  0  0  0  0
  192.2090  175.1370  143.2350 C   0  0  1  0  0  3  0  0  0  0  0  0
  190.9450  173.2650  142.1410 C   0  0  1  0  0  3  0  0  0  0  0  0
  189.4750  174.9080  145.4340 C   0  0  0  0  0  2  0  0  0  0  0  0
  191.6830  177.4410  144.3620 C   0  0  0  0  0  2  0  0  0  0  0  0
  188.5830  174.3070  142.6910 C   0  0  0  0  0  1  0  0  0  0  0  0
  187.8520  177.5600  143.8000 C   0  0  0  0  0  0  0  0  0  0  0  0
  185.0970  177.6970  144.3510 C   0  0  0  0  0  3  0  0  0  0  0  0
  186.9050  177.3060  142.7860 C   0  0  0  0  0  0  0  0  0  0  0  0
  185.5370  177.3690  143.0680 C   0  0  0  0  0  3  0  0  0  0  0  0
  186.0250  177.9630  145.3580 C   0  0  0  0  0  3  0  0  0  0  0  0
  187.2970  176.9720  141.5310 F   0  0  0  0  0  0  0  0  0  0  0  0
  187.3930  177.9000  145.0830 C   0  0  0  0  0  3  0  0  0  0  0  0
  190.2990  172.9140  140.8340 C   0  0  0  0  0  0  0  0  0  0  0  0
  190.3240  173.8090  139.7730 O   0  0  0  0  0  0  0  0  0  0  0  0
  189.7680  171.7820  140.6820 O   0  0  0  0  0  1  0  0  0  0  0  0
  1 16  1  0  0  0  0
  1  2  1  0  0  0  0
  2  9  1  0  0  0  0
  3  8  1  0  0  0  0
  3 11  1  0  0  0  0
  4 13  1  0  0  0  0
  5 14  1  0  0  0  0
  6  4  1  0  0  0  0
  6  7  2  0  0  0  0
  8  4  1  0  0  0  0
 10  1  2  0  0  0  0
 11  5  1  0  0  0  0
 11  6  1  0  0  0  0
 12  3  1  0  0  0  0
 12  8  1  0  0  0  0
 13  9  1  0  0  0  0
 14  2  1  0  0  0  0
 15  8  1  0  0  0  0
 16 22  1  0  0  0  0
 17 20  1  0  0  0  0
 18 19  1  0  0  0  0
 18 16  2  0  0  0  0
 19 17  2  0  0  0  0
 21 18  1  0  0  0  0
 22 20  2  0  0  0  0
 23 12  1  0  0  0  0
 24 23  2  0  0  0  0
 25 23  1  0  0  0  0
M  END
>  <MODEL>
8

>  <REMARK>
 VINA RESULT:      -6.5      1.137      1.213
  Name = 
  2 active torsions:
  status: ('A' for Active; 'I' for Inactive)
    1  A    between atoms: C_1  and  C_5
    2  A    between atoms: C_2  and  C_21
                            x       y       z     vdW  Elec       q    Type
                         _______ _______ _______ _____ _____    ______ ____

>  <TORSDO>
F 2

$$$$
=
 OpenBabel11052417283D

 25 28  0  0  1  0  0  0  0  0999 V2000
  191.6650  175.8400  145.3280 C   0  0  0  0  0  0  0  0  0  0  0  0
  190.7370  176.9450  145.2970 N   0  0  0  0  0  0  0  0  0  0  0  0
  188.7030  174.8920  143.7760 C   0  0  1  0  0  3  0  0  0  0  0  0
  189.2140  177.0660  142.6740 C   0  0  2  0  0  3  0  0  0  0  0  0
  188.5160  176.0410  145.9900 C   0  0  0  0  0  2  0  0  0  0  0  0
  188.2320  177.2520  143.7770 C   0  0  0  0  0  0  0  0  0  0  0  0
  187.6760  178.3130  144.0130 O   0  0  0  0  0  0  0  0  0  0  0  0
  189.3680  175.5410  142.5740 C   0  0  2  0  0  0  0  0  0  0  0  0
  190.8940  178.0950  144.4090 C   0  0  0  0  0  2  0  0  0  0  0  0
  191.3380  174.7850  145.9390 O   0  0  0  0  0  0  0  0  0  0  0  0
  187.9810  175.9980  144.5470 C   0  0  1  0  0  3  0  0  0  0  0  0
  188.0830  174.7230  142.3880 C   0  0  1  0  0  3  0  0  0  0  0  0
  190.5680  177.7590  142.9450 C   0  0  0  0  0  2  0  0  0  0  0  0
  189.6540  177.0350  146.2740 C   0  0  0  0  0  2  0  0  0  0  0  0
  190.7090  174.9130  142.1990 C   0  0  0  0  0  1  0  0  0  0  0  0
  192.9960  175.9030  144.6760 C   0  0  0  0  0  0  0  0  0  0  0  0
  195.4910  176.0650  143.3880 C   0  0  0  0  0  3  0  0  0  0  0  0
  194.0710  176.5870  145.2810 C   0  0  0  0  0  0  0  0  0  0  0  0
  195.3110  176.6590  144.6380 C   0  0  0  0  0  3  0  0  0  0  0  0
  194.4310  175.3970  142.7760 C   0  0  0  0  0  3  0  0  0  0  0  0
  193.9350  177.1660  146.5000 F   0  0  0  0  0  0  0  0  0  0  0  0
  193.1910  175.3200  143.4130 C   0  0  0  0  0  3  0  0  0  0  0  0
  188.3140  173.3330  141.8740 C   0  0  0  0  0  0  0  0  0  0  0  0
  188.5720  172.2910  142.7550 O   0  0  0  0  0  1  0  0  0  0  0  0
  188.2300  173.1000  140.6400 O   0  0  0  0  0  0  0  0  0  0  0  0
  1 10  2  0  0  0  0
  2  1  1  0  0  0  0
  2 14  1  0  0  0  0
  3 11  1  0  0  0  0
  4 13  1  0  0  0  0
  4  6  1  0  0  0  0
  5 14  1  0  0  0  0
  6  7  2  0  0  0  0
  6 11  1  0  0  0  0
  8  4  1  0  0  0  0
  8  3  1  0  0  0  0
  9  2  1  0  0  0  0
 11  5  1  0  0  0  0
 12  8  1  0  0  0  0
 12  3  1  0  0  0  0
 13  9  1  0  0  0  0
 15  8  1  0  0  0  0
 16 18  1  0  0  0  0
 16  1  1  0  0  0  0
 17 19  1  0  0  0  0
 18 21  1  0  0  0  0
 19 18  2  0  0  0  0
 20 17  2  0  0  0  0
 20 22  1  0  0  0  0
 22 16  2  0  0  0  0
 23 12  1  0  0  0  0
 23 24  1  0  0  0  0
 25 23  2  0  0  0  0
M  END
>  <MODEL>
9

>  <REMARK>
 VINA RESULT:      -6.5      2.707      5.730
  Name = 
  2 active torsions:
  status: ('A' for Active; 'I' for Inactive)
    1  A    between atoms: C_1  and  C_5
    2  A    between atoms: C_2  and  C_21
                            x       y       z     vdW  Elec       q    Type
                         _______ _______ _______ _____ _____    ______ ____

>  <TORSDO>
F 2

$$$$
