=
 OpenBabel11052420433D

 43 48  0  0  1  0  0  0  0  0999 V2000
  185.7770  178.4310  146.6800 C   0  0  1  0  0  3  0  0  0  0  0  0
  190.3160  176.1730  146.2940 C   0  0  0  0  0  0  0  0  0  0  0  0
  189.9180  173.9160  144.6140 C   0  0  0  0  0  0  0  0  0  0  0  0
  188.0970  177.6450  147.1760 C   0  0  0  0  0  0  0  0  0  0  0  0
  185.5430  177.0950  146.0270 C   0  0  0  0  0  3  0  0  0  0  0  0
  184.6000  178.8800  147.2760 O   0  0  0  0  0  1  0  0  0  0  0  0
  187.9180  176.5840  146.2660 C   0  0  0  0  0  0  0  0  0  0  0  0
  186.8990  178.3720  147.7210 C   0  0  0  0  0  2  0  0  0  0  0  0
  186.5580  176.2570  145.7990 C   0  0  0  0  0  3  0  0  0  0  0  0
  188.8580  174.7560  144.9700 O   0  0  0  0  0  0  0  0  0  0  0  0
  189.0280  175.8400  145.8370 C   0  0  2  0  0  3  0  0  0  0  0  0
  190.4800  177.2260  147.2050 C   0  0  0  0  0  3  0  0  0  0  0  0
  191.5230  175.4270  145.7900 C   0  0  0  0  0  0  0  0  0  0  0  0
  191.1680  174.1850  145.0130 C   0  0  0  0  0  3  0  0  0  0  0  0
  189.3730  177.9510  147.6520 C   0  0  0  0  0  3  0  0  0  0  0  0
  189.6230  172.6930  143.8060 C   0  0  1  0  0  3  0  0  0  0  0  0
  189.4190  171.5900  144.6390 O   0  0  0  0  0  1  0  0  0  0  0  0
  188.4090  172.9150  142.9140 C   0  0  0  0  0  2  0  0  0  0  0  0
  188.6810  174.0090  141.8950 C   0  0  1  0  0  3  0  0  0  0  0  0
  188.4260  173.4640  140.5040 C   0  0  0  0  0  1  0  0  0  0  0  0
  187.8340  175.0980  142.1300 O   0  0  0  0  0  0  0  0  0  0  0  0
  188.3990  176.1670  141.4200 C   0  0  2  0  0  3  0  0  0  0  0  0
  188.0490  178.0820  142.8560 C   0  0  0  0  0  2  0  0  0  0  0  0
  189.7380  176.5140  142.0410 C   0  0  0  0  0  2  0  0  0  0  0  0
  187.5670  177.4360  141.5700 C   0  0  1  0  0  0  0  0  0  0  0  0
  187.8440  178.2780  140.5060 F   0  0  0  0  0  0  0  0  0  0  0  0
  189.4620  177.5760  143.0930 C   0  0  0  0  0  2  0  0  0  0  0  0
  186.0660  177.1490  141.6140 C   0  0  0  0  0  2  0  0  0  0  0  0
  185.2940  178.3820  141.5320 N   0  0  0  0  0  0  0  0  0  0  0  0
  181.8750  178.0180  140.3200 N   0  0  0  0  0  1  0  0  0  0  0  0
  183.1070  178.2980  142.3390 N   0  0  0  0  0  0  0  0  0  0  0  0
  183.0760  178.1800  141.0640 C   0  0  0  0  0  0  0  0  0  0  0  0
  184.4590  178.4230  142.6680 N   0  0  0  0  0  2  0  0  0  0  0  0
  184.3670  178.2160  140.4860 N   0  0  0  0  0  2  0  0  0  0  0  0
  192.3760  176.3450  144.9220 C   0  0  0  0  0  2  0  0  0  0  0  0
  196.0780  175.5570  144.4220 C   0  0  0  0  0  2  0  0  0  0  0  0
  195.9110  174.1190  144.9360 C   0  0  0  0  0  0  0  0  0  0  0  0
  196.0100  173.1610  143.7650 C   0  0  0  0  0  1  0  0  0  0  0  0
  194.0600  175.1530  146.3330 C   0  0  0  0  0  2  0  0  0  0  0  0
  194.7350  176.1990  144.0870 C   0  0  0  0  0  2  0  0  0  0  0  0
  193.8400  176.2970  145.3330 C   0  0  0  0  0  3  0  0  0  0  0  0
  197.0390  173.8160  145.9000 C   0  0  0  0  0  1  0  0  0  0  0  0
  194.5670  173.8860  145.6450 C   0  0  0  0  0  2  0  0  0  0  0  0
  1  6  1  1  0  0  0
  1  8  1  0  0  0  0
  2 12  1  0  0  0  0
  3 10  1  0  0  0  0
  3 14  2  0  0  0  0
  4 15  1  0  0  0  0
  4  8  1  0  0  0  0
  5  1  1  0  0  0  0
  7  4  2  0  0  0  0
  9  5  2  0  0  0  0
  9  7  1  0  0  0  0
 11 10  1  1  0  0  0
 11  7  1  0  0  0  0
 11  2  1  0  0  0  0
 12 15  2  0  0  0  0
 13  2  2  0  0  0  0
 14 13  1  0  0  0  0
 16  3  1  0  0  0  0
 16 17  1  1  0  0  0
 18 16  1  0  0  0  0
 19 20  1  6  0  0  0
 19 21  1  0  0  0  0
 19 18  1  0  0  0  0
 22 25  1  0  0  0  0
 22 24  1  0  0  0  0
 22 21  1  1  0  0  0
 23 27  1  0  0  0  0
 24 27  1  0  0  0  0
 25 26  1  6  0  0  0
 25 28  1  0  0  0  0
 25 23  1  0  0  0  0
 29 28  1  0  0  0  0
 29 33  1  0  0  0  0
 30 32  1  0  0  0  0
 31 33  1  0  0  0  0
 32 31  2  0  0  0  0
 34 32  1  0  0  0  0
 34 29  1  0  0  0  0
 35 41  1  0  0  0  0
 35 13  1  0  0  0  0
 36 37  1  0  0  0  0
 37 43  1  0  0  0  0
 37 42  1  0  0  0  0
 38 37  1  0  0  0  0
 40 36  1  0  0  0  0
 40 41  1  0  0  0  0
 41 39  1  0  0  0  0
 43 39  1  0  0  0  0
M  END
>  <MODEL>
1

>  <REMARK>
 VINA RESULT:      -8.3      0.000      0.000
  Name = 
  9 active torsions:
  status: ('A' for Active; 'I' for Inactive)
    1  A    between atoms: C_1  and  C_34
    2  A    between atoms: C_1  and  C_35
    3  A    between atoms: C_2  and  C_6
    4  A    between atoms: C_2  and  C_13
    5  A    between atoms: O_3  and  C_4
    6  A    between atoms: O_3  and  C_12
    7  A    between atoms: C_6  and  C_12
    8  A    between atoms: N_11  and  C_14
    9  A    between atoms: C_14  and  C_22
                            x       y       z     vdW  Elec       q    Type
                         _______ _______ _______ _____ _____    ______ ____

>  <TORSDO>
F 9

$$$$
=
 OpenBabel11052420433D

 43 48  0  0  1  0  0  0  0  0999 V2000
  196.4720  174.9520  138.9610 C   0  0  1  0  0  3  0  0  0  0  0  0
  195.4410  175.6780  143.8870 C   0  0  0  0  0  0  0  0  0  0  0  0
  192.6130  175.5050  144.1190 C   0  0  0  0  0  0  0  0  0  0  0  0
  196.6150  175.7060  141.3390 C   0  0  0  0  0  0  0  0  0  0  0  0
  194.9830  175.1370  139.0700 C   0  0  0  0  0  3  0  0  0  0  0  0
  196.8940  175.2540  137.6680 O   0  0  0  0  0  1  0  0  0  0  0  0
  195.2250  175.5240  141.4680 C   0  0  0  0  0  0  0  0  0  0  0  0
  197.2330  175.8150  139.9730 C   0  0  0  0  0  2  0  0  0  0  0  0
  194.4040  175.3610  140.2540 C   0  0  0  0  0  3  0  0  0  0  0  0
  193.2520  175.3900  142.8800 O   0  0  0  0  0  0  0  0  0  0  0  0
  194.6370  175.5240  142.7420 C   0  0  2  0  0  3  0  0  0  0  0  0
  196.8220  175.8660  143.7450 C   0  0  0  0  0  3  0  0  0  0  0  0
  194.8320  175.6130  145.2630 C   0  0  0  0  0  0  0  0  0  0  0  0
  193.3250  175.6470  145.2450 C   0  0  0  0  0  3  0  0  0  0  0  0
  197.4050  175.8910  142.4760 C   0  0  0  0  0  3  0  0  0  0  0  0
  191.1190  175.5010  144.1580 C   0  0  1  0  0  3  0  0  0  0  0  0
  190.6290  174.1930  144.1450 O   0  0  0  0  0  1  0  0  0  0  0  0
  190.6080  176.2460  145.3830 C   0  0  0  0  0  2  0  0  0  0  0  0
  189.6490  177.3550  144.9800 C   0  0  1  0  0  3  0  0  0  0  0  0
  190.0430  177.8770  143.6130 C   0  0  0  0  0  1  0  0  0  0  0  0
  188.3420  176.8560  144.9290 O   0  0  0  0  0  0  0  0  0  0  0  0
  187.5380  177.8700  145.4690 C   0  0  2  0  0  3  0  0  0  0  0  0
  185.4760  176.7430  146.0440 C   0  0  0  0  0  2  0  0  0  0  0  0
  187.5120  177.7210  146.9780 C   0  0  0  0  0  2  0  0  0  0  0  0
  186.0820  177.7100  145.0440 C   0  0  1  0  0  0  0  0  0  0  0  0
  185.4500  178.9370  145.1550 F   0  0  0  0  0  0  0  0  0  0  0  0
  186.3230  176.8330  147.3030 C   0  0  0  0  0  2  0  0  0  0  0  0
  185.9450  177.1940  143.6110 C   0  0  0  0  0  2  0  0  0  0  0  0
  186.2450  178.2440  142.6450 N   0  0  0  0  0  0  0  0  0  0  0  0
  186.5380  177.1530  139.1790 N   0  0  0  0  0  1  0  0  0  0  0  0
  185.0140  178.2210  140.6650 N   0  0  0  0  0  0  0  0  0  0  0  0
  186.1510  177.6760  140.4440 C   0  0  0  0  0  0  0  0  0  0  0  0
  185.0310  178.5840  142.0140 N   0  0  0  0  0  2  0  0  0  0  0  0
  186.9680  177.6420  141.5990 N   0  0  0  0  0  2  0  0  0  0  0  0
  195.3050  174.3540  145.9800 C   0  0  0  0  0  2  0  0  0  0  0  0
  194.4760  170.7850  144.9060 C   0  0  0  0  0  2  0  0  0  0  0  0
  195.6930  170.2080  145.6450 C   0  0  0  0  0  0  0  0  0  0  0  0
  195.2160  169.4690  146.8800 C   0  0  0  0  0  1  0  0  0  0  0  0
  196.7090  172.4740  145.1190 C   0  0  0  0  0  2  0  0  0  0  0  0
  194.1650  172.2110  145.3520 C   0  0  0  0  0  2  0  0  0  0  0  0
  195.3370  173.1570  145.0410 C   0  0  0  0  0  3  0  0  0  0  0  0
  196.3880  169.2190  144.7330 C   0  0  0  0  0  1  0  0  0  0  0  0
  196.6990  171.2850  146.0800 C   0  0  0  0  0  2  0  0  0  0  0  0
  1  6  1  6  0  0  0
  1  5  1  0  0  0  0
  1  8  1  0  0  0  0
  2 13  2  0  0  0  0
  3 16  1  0  0  0  0
  3 14  2  0  0  0  0
  4  7  2  0  0  0  0
  4 15  1  0  0  0  0
  5  9  2  0  0  0  0
  8  4  1  0  0  0  0
  9  7  1  0  0  0  0
 10  3  1  0  0  0  0
 11  7  1  6  0  0  0
 11 10  1  0  0  0  0
 11  2  1  0  0  0  0
 12  2  1  0  0  0  0
 13 35  1  0  0  0  0
 14 13  1  0  0  0  0
 15 12  2  0  0  0  0
 16 17  1  1  0  0  0
 16 18  1  0  0  0  0
 19 20  1  6  0  0  0
 19 18  1  0  0  0  0
 21 19  1  0  0  0  0
 22 21  1  6  0  0  0
 22 24  1  0  0  0  0
 23 27  1  0  0  0  0
 24 27  1  0  0  0  0
 25 26  1  1  0  0  0
 25 22  1  0  0  0  0
 25 23  1  0  0  0  0
 28 25  1  0  0  0  0
 29 28  1  0  0  0  0
 30 32  1  0  0  0  0
 31 33  1  0  0  0  0
 32 31  2  0  0  0  0
 32 34  1  0  0  0  0
 33 29  1  0  0  0  0
 34 29  1  0  0  0  0
 36 40  1  0  0  0  0
 36 37  1  0  0  0  0
 37 43  1  0  0  0  0
 37 38  1  0  0  0  0
 39 43  1  0  0  0  0
 41 39  1  0  0  0  0
 41 40  1  0  0  0  0
 41 35  1  0  0  0  0
 42 37  1  0  0  0  0
M  END
>  <MODEL>
2

>  <REMARK>
 VINA RESULT:      -7.9      3.015      6.422
  Name = 
  9 active torsions:
  status: ('A' for Active; 'I' for Inactive)
    1  A    between atoms: C_1  and  C_34
    2  A    between atoms: C_1  and  C_35
    3  A    between atoms: C_2  and  C_6
    4  A    between atoms: C_2  and  C_13
    5  A    between atoms: O_3  and  C_4
    6  A    between atoms: O_3  and  C_12
    7  A    between atoms: C_6  and  C_12
    8  A    between atoms: N_11  and  C_14
    9  A    between atoms: C_14  and  C_22
                            x       y       z     vdW  Elec       q    Type
                         _______ _______ _______ _____ _____    ______ ____

>  <TORSDO>
F 9

$$$$
=
 OpenBabel11052420433D

 43 48  0  0  1  0  0  0  0  0999 V2000
  196.1550  174.1120  144.6580 C   0  0  1  0  0  3  0  0  0  0  0  0
  191.1720  173.4100  143.9320 C   0  0  0  0  0  0  0  0  0  0  0  0
  190.1060  175.9780  143.3390 C   0  0  0  0  0  0  0  0  0  0  0  0
  193.8370  173.1850  144.7770 C   0  0  0  0  0  0  0  0  0  0  0  0
  195.5260  175.4790  144.6130 C   0  0  0  0  0  3  0  0  0  0  0  0
  197.3690  174.1710  145.3390 O   0  0  0  0  0  1  0  0  0  0  0  0
  193.3280  174.4400  144.3880 C   0  0  0  0  0  0  0  0  0  0  0  0
  195.2360  173.0800  145.3190 C   0  0  0  0  0  2  0  0  0  0  0  0
  194.2080  175.6220  144.4420 C   0  0  0  0  0  3  0  0  0  0  0  0
  191.4620  175.8010  143.6350 O   0  0  0  0  0  0  0  0  0  0  0  0
  191.9910  174.5530  143.9790 C   0  0  2  0  0  3  0  0  0  0  0  0
  191.6870  172.1690  144.3290 C   0  0  0  0  0  3  0  0  0  0  0  0
  189.7550  173.5050  143.4320 C   0  0  0  0  0  0  0  0  0  0  0  0
  189.2780  174.9270  143.2730 C   0  0  0  0  0  3  0  0  0  0  0  0
  193.0110  172.0590  144.7600 C   0  0  0  0  0  3  0  0  0  0  0  0
  189.5940  177.3660  143.1300 C   0  0  1  0  0  3  0  0  0  0  0  0
  190.6450  178.2410  142.8450 O   0  0  0  0  0  1  0  0  0  0  0  0
  188.5590  177.3980  142.0150 C   0  0  0  0  0  2  0  0  0  0  0  0
  187.2120  177.8660  142.5410 C   0  0  1  0  0  3  0  0  0  0  0  0
  186.1820  176.7810  142.2980 C   0  0  0  0  0  1  0  0  0  0  0  0
  187.3010  178.1220  143.9140 O   0  0  0  0  0  0  0  0  0  0  0  0
  186.0720  177.7130  144.4480 C   0  0  2  0  0  3  0  0  0  0  0  0
  186.2540  178.2200  146.8070 C   0  0  0  0  0  2  0  0  0  0  0  0
  185.2200  178.9400  144.7120 C   0  0  0  0  0  2  0  0  0  0  0  0
  186.2480  177.0670  145.8190 C   0  0  1  0  0  0  0  0  0  0  0  0
  185.1540  176.2560  146.0720 F   0  0  0  0  0  0  0  0  0  0  0  0
  185.5100  179.3660  146.1410 C   0  0  0  0  0  2  0  0  0  0  0  0
  187.5290  176.2390  145.9140 C   0  0  0  0  0  2  0  0  0  0  0  0
  188.3090  176.6140  147.0870 N   0  0  0  0  0  0  0  0  0  0  0  0
  191.5100  174.9080  147.4560 N   0  0  0  0  0  1  0  0  0  0  0  0
  190.5860  176.9860  146.7480 N   0  0  0  0  0  0  0  0  0  0  0  0
  190.4320  175.8030  147.2140 C   0  0  0  0  0  0  0  0  0  0  0  0
  189.2980  177.5200  146.6530 N   0  0  0  0  0  2  0  0  0  0  0  0
  189.0720  175.4870  147.4470 N   0  0  0  0  0  2  0  0  0  0  0  0
  189.6240  172.7720  142.1020 C   0  0  0  0  0  2  0  0  0  0  0  0
  188.8590  173.9530  138.5530 C   0  0  0  0  0  2  0  0  0  0  0  0
  190.0530  173.1840  137.9670 C   0  0  0  0  0  0  0  0  0  0  0  0
  189.5380  171.9830  137.1980 C   0  0  0  0  0  1  0  0  0  0  0  0
  191.0710  173.6240  140.2510 C   0  0  0  0  0  2  0  0  0  0  0  0
  188.5230  173.4880  139.9670 C   0  0  0  0  0  2  0  0  0  0  0  0
  189.6970  173.7360  140.9270 C   0  0  0  0  0  3  0  0  0  0  0  0
  190.7870  174.0920  137.0030 C   0  0  0  0  0  1  0  0  0  0  0  0
  191.0350  172.6900  139.0410 C   0  0  0  0  0  2  0  0  0  0  0  0
  1  8  1  0  0  0  0
  1  6  1  1  0  0  0
  2 11  1  0  0  0  0
  2 12  1  0  0  0  0
  3 10  1  0  0  0  0
  4  8  1  0  0  0  0
  5  1  1  0  0  0  0
  7  9  1  0  0  0  0
  7  4  2  0  0  0  0
  9  5  2  0  0  0  0
 11 10  1  1  0  0  0
 11  7  1  0  0  0  0
 12 15  2  0  0  0  0
 13  2  2  0  0  0  0
 14  3  2  0  0  0  0
 14 13  1  0  0  0  0
 15  4  1  0  0  0  0
 16 17  1  6  0  0  0
 16  3  1  0  0  0  0
 18 19  1  0  0  0  0
 18 16  1  0  0  0  0
 19 20  1  1  0  0  0
 19 21  1  0  0  0  0
 22 21  1  1  0  0  0
 22 24  1  0  0  0  0
 22 25  1  0  0  0  0
 24 27  1  0  0  0  0
 25 28  1  0  0  0  0
 25 26  1  1  0  0  0
 25 23  1  0  0  0  0
 27 23  1  0  0  0  0
 28 29  1  0  0  0  0
 29 34  1  0  0  0  0
 31 32  2  0  0  0  0
 32 34  1  0  0  0  0
 32 30  1  0  0  0  0
 33 31  1  0  0  0  0
 33 29  1  0  0  0  0
 35 13  1  0  0  0  0
 36 40  1  0  0  0  0
 37 36  1  0  0  0  0
 37 43  1  0  0  0  0
 38 37  1  0  0  0  0
 39 41  1  0  0  0  0
 40 41  1  0  0  0  0
 41 35  1  0  0  0  0
 42 37  1  0  0  0  0
 43 39  1  0  0  0  0
M  END
>  <MODEL>
3

>  <REMARK>
 VINA RESULT:      -7.9      3.525      7.262
  Name = 
  9 active torsions:
  status: ('A' for Active; 'I' for Inactive)
    1  A    between atoms: C_1  and  C_34
    2  A    between atoms: C_1  and  C_35
    3  A    between atoms: C_2  and  C_6
    4  A    between atoms: C_2  and  C_13
    5  A    between atoms: O_3  and  C_4
    6  A    between atoms: O_3  and  C_12
    7  A    between atoms: C_6  and  C_12
    8  A    between atoms: N_11  and  C_14
    9  A    between atoms: C_14  and  C_22
                            x       y       z     vdW  Elec       q    Type
                         _______ _______ _______ _____ _____    ______ ____

>  <TORSDO>
F 9

$$$$
=
 OpenBabel11052420433D

 43 48  0  0  1  0  0  0  0  0999 V2000
  191.9670  173.3230  139.6100 C   0  0  1  0  0  3  0  0  0  0  0  0
  193.8390  175.1980  143.9500 C   0  0  0  0  0  0  0  0  0  0  0  0
  191.7020  175.0990  145.8210 C   0  0  0  0  0  0  0  0  0  0  0  0
  193.3370  174.6160  141.2510 C   0  0  0  0  0  0  0  0  0  0  0  0
  190.7960  173.5360  140.5310 C   0  0  0  0  0  3  0  0  0  0  0  0
  191.5320  173.3080  138.2860 O   0  0  0  0  0  1  0  0  0  0  0  0
  192.3070  174.4780  142.2020 C   0  0  0  0  0  0  0  0  0  0  0  0
  193.0440  174.3970  139.7930 C   0  0  0  0  0  2  0  0  0  0  0  0
  190.9710  174.0360  141.7580 C   0  0  0  0  0  3  0  0  0  0  0  0
  191.5290  174.6910  144.4940 O   0  0  0  0  0  0  0  0  0  0  0  0
  192.5560  174.7810  143.5490 C   0  0  0  0  0  0  0  0  0  0  0  0
  194.8530  175.3400  142.9930 C   0  0  0  0  0  2  0  0  0  0  0  0
  194.1380  175.4630  145.4010 C   0  0  0  0  0  0  0  0  0  0  0  0
  192.9010  175.5000  146.2630 C   0  0  0  0  0  3  0  0  0  0  0  0
  194.6000  175.0610  141.6480 C   0  0  0  0  0  3  0  0  0  0  0  0
  190.5130  175.1120  146.7270 C   0  0  1  0  0  3  0  0  0  0  0  0
  190.6060  176.1600  147.6470 O   0  0  0  0  0  1  0  0  0  0  0  0
  189.2240  175.2230  145.9250 C   0  0  0  0  0  2  0  0  0  0  0  0
  188.7590  176.6680  145.8480 C   0  0  1  0  0  3  0  0  0  0  0  0
  189.2930  177.2920  144.5750 C   0  0  0  0  0  1  0  0  0  0  0  0
  187.3600  176.7160  145.8380 O   0  0  0  0  0  0  0  0  0  0  0  0
  187.0350  178.0680  146.0170 C   0  0  2  0  0  3  0  0  0  0  0  0
  184.6160  178.0940  146.0590 C   0  0  0  0  0  2  0  0  0  0  0  0
  186.6120  178.2830  147.4570 C   0  0  0  0  0  2  0  0  0  0  0  0
  185.8100  178.4590  145.1960 C   0  0  1  0  0  0  0  0  0  0  0  0
  185.8270  179.8290  144.9980 F   0  0  0  0  0  0  0  0  0  0  0  0
  185.1060  178.0870  147.4970 C   0  0  0  0  0  2  0  0  0  0  0  0
  185.7630  177.7490  143.8420 C   0  0  0  0  0  2  0  0  0  0  0  0
  185.8190  178.7080  142.7460 N   0  0  0  0  0  0  0  0  0  0  0  0
  186.5510  177.3010  139.4640 N   0  0  0  0  0  1  0  0  0  0  0  0
  184.7310  178.1000  140.7750 N   0  0  0  0  0  0  0  0  0  0  0  0
  185.9810  177.8580  140.6420 C   0  0  0  0  0  0  0  0  0  0  0  0
  184.5890  178.6250  142.0630 N   0  0  0  0  0  2  0  0  0  0  0  0
  186.7240  178.1930  141.7990 N   0  0  0  0  0  2  0  0  0  0  0  0
  195.0990  174.4070  145.9340 C   0  0  0  0  0  2  0  0  0  0  0  0
  194.6530  170.6810  145.2270 C   0  0  0  0  0  2  0  0  0  0  0  0
  196.0970  170.3600  145.6440 C   0  0  0  0  0  0  0  0  0  0  0  0
  196.0780  169.6500  146.9840 C   0  0  0  0  0  1  0  0  0  0  0  0
  196.5450  172.7120  144.8000 C   0  0  0  0  0  2  0  0  0  0  0  0
  194.2240  172.0700  145.6920 C   0  0  0  0  0  2  0  0  0  0  0  0
  195.1000  173.1630  145.0580 C   0  0  0  0  0  3  0  0  0  0  0  0
  196.7010  169.4270  144.6150 C   0  0  0  0  0  1  0  0  0  0  0  0
  196.9790  171.6120  145.7680 C   0  0  0  0  0  2  0  0  0  0  0  0
  1  6  1  6  0  0  0
  1  8  1  0  0  0  0
  1  5  1  0  0  0  0
  2 13  2  0  0  0  0
  3 14  2  0  0  0  0
  3 16  1  0  0  0  0
  4 15  2  0  0  0  0
  4  7  1  0  0  0  0
  5  9  2  0  0  0  0
  7 11  2  0  0  0  0
  8  4  1  0  0  0  0
  9  7  1  0  0  0  0
 10  3  1  0  0  0  0
 11  2  1  0  0  0  0
 11 10  1  0  0  0  0
 12  2  1  0  0  0  0
 13 35  1  0  0  0  0
 13 14  1  0  0  0  0
 15 12  1  0  0  0  0
 16 17  1  1  0  0  0
 18 16  1  0  0  0  0
 19 20  1  6  0  0  0
 19 18  1  0  0  0  0
 21 19  1  0  0  0  0
 22 21  1  1  0  0  0
 22 24  1  0  0  0  0
 23 27  1  0  0  0  0
 24 27  1  0  0  0  0
 25 26  1  6  0  0  0
 25 22  1  0  0  0  0
 25 23  1  0  0  0  0
 28 25  1  0  0  0  0
 29 28  1  0  0  0  0
 30 32  1  0  0  0  0
 31 33  1  0  0  0  0
 32 31  2  0  0  0  0
 32 34  1  0  0  0  0
 33 29  1  0  0  0  0
 34 29  1  0  0  0  0
 36 37  1  0  0  0  0
 36 40  1  0  0  0  0
 37 43  1  0  0  0  0
 37 38  1  0  0  0  0
 39 41  1  0  0  0  0
 39 43  1  0  0  0  0
 41 40  1  0  0  0  0
 41 35  1  0  0  0  0
 42 37  1  0  0  0  0
M  END
>  <MODEL>
4

>  <REMARK>
 VINA RESULT:      -7.9      2.493      5.504
  Name = 
  9 active torsions:
  status: ('A' for Active; 'I' for Inactive)
    1  A    between atoms: C_1  and  C_34
    2  A    between atoms: C_1  and  C_35
    3  A    between atoms: C_2  and  C_6
    4  A    between atoms: C_2  and  C_13
    5  A    between atoms: O_3  and  C_4
    6  A    between atoms: O_3  and  C_12
    7  A    between atoms: C_6  and  C_12
    8  A    between atoms: N_11  and  C_14
    9  A    between atoms: C_14  and  C_22
                            x       y       z     vdW  Elec       q    Type
                         _______ _______ _______ _____ _____    ______ ____

>  <TORSDO>
F 9

$$$$
=
 OpenBabel11052420433D

 43 48  0  0  1  0  0  0  0  0999 V2000
  195.7950  174.7120  139.0130 C   0  0  1  0  0  3  0  0  0  0  0  0
  195.6040  175.4600  144.0380 C   0  0  0  0  0  0  0  0  0  0  0  0
  192.8470  175.3930  144.7270 C   0  0  0  0  0  0  0  0  0  0  0  0
  196.3510  175.4520  141.3340 C   0  0  0  0  0  0  0  0  0  0  0  0
  194.3510  174.9520  139.3610 C   0  0  0  0  0  3  0  0  0  0  0  0
  196.0130  175.0020  137.6670 O   0  0  0  0  0  1  0  0  0  0  0  0
  194.9930  175.3220  141.6870 C   0  0  0  0  0  0  0  0  0  0  0  0
  196.7420  175.5430  139.8850 C   0  0  0  0  0  2  0  0  0  0  0  0
  193.9810  175.1940  140.6220 C   0  0  0  0  0  3  0  0  0  0  0  0
  193.2720  175.2580  143.4010 O   0  0  0  0  0  0  0  0  0  0  0  0
  194.6200  175.3400  143.0400 C   0  0  2  0  0  3  0  0  0  0  0  0
  196.9500  175.5970  143.6740 C   0  0  0  0  0  3  0  0  0  0  0  0
  195.2250  175.4140  145.4950 C   0  0  0  0  0  0  0  0  0  0  0  0
  193.7370  175.5040  145.7220 C   0  0  0  0  0  3  0  0  0  0  0  0
  197.3210  175.6040  142.3270 C   0  0  0  0  0  3  0  0  0  0  0  0
  191.3800  175.4450  145.0080 C   0  0  1  0  0  3  0  0  0  0  0  0
  190.9540  174.2640  145.6200 O   0  0  0  0  0  1  0  0  0  0  0  0
  191.0380  176.6460  145.8770 C   0  0  0  0  0  2  0  0  0  0  0  0
  190.0310  177.5470  145.1820 C   0  0  1  0  0  3  0  0  0  0  0  0
  190.7260  178.2900  144.0590 C   0  0  0  0  0  1  0  0  0  0  0  0
  188.9890  176.7770  144.6550 O   0  0  0  0  0  0  0  0  0  0  0  0
  188.1870  177.6780  143.9410 C   0  0  2  0  0  3  0  0  0  0  0  0
  186.3350  176.3290  143.1600 C   0  0  0  0  0  2  0  0  0  0  0  0
  186.9800  178.0360  144.7880 C   0  0  0  0  0  2  0  0  0  0  0  0
  187.5980  177.0290  142.6920 C   0  0  1  0  0  0  0  0  0  0  0  0
  187.2600  178.0250  141.7920 F   0  0  0  0  0  0  0  0  0  0  0  0
  185.8910  177.0380  144.4290 C   0  0  0  0  0  2  0  0  0  0  0  0
  188.5690  176.0520  142.0290 C   0  0  0  0  0  2  0  0  0  0  0  0
  188.0340  174.6960  142.0360 N   0  0  0  0  0  0  0  0  0  0  0  0
  189.5650  172.3910  139.6620 N   0  0  0  0  0  1  0  0  0  0  0  0
  189.5920  172.9620  141.9740 N   0  0  0  0  0  0  0  0  0  0  0  0
  189.1410  173.1460  140.7900 C   0  0  0  0  0  0  0  0  0  0  0  0
  188.9350  173.9010  142.7740 N   0  0  0  0  0  2  0  0  0  0  0  0
  188.1870  174.1900  140.7310 N   0  0  0  0  0  2  0  0  0  0  0  0
  195.7600  174.1360  146.1300 C   0  0  0  0  0  2  0  0  0  0  0  0
  194.4230  170.6690  145.2490 C   0  0  0  0  0  2  0  0  0  0  0  0
  195.6500  169.9690  145.8520 C   0  0  0  0  0  0  0  0  0  0  0  0
  195.2490  169.3000  147.1520 C   0  0  0  0  0  1  0  0  0  0  0  0
  196.8370  172.1020  145.1530 C   0  0  0  0  0  2  0  0  0  0  0  0
  194.3270  172.1260  145.6940 C   0  0  0  0  0  2  0  0  0  0  0  0
  195.5470  172.9320  145.2230 C   0  0  0  0  0  3  0  0  0  0  0  0
  196.1180  168.8980  144.8870 C   0  0  0  0  0  1  0  0  0  0  0  0
  196.8130  170.9320  146.1370 C   0  0  0  0  0  2  0  0  0  0  0  0
  1  6  1  6  0  0  0
  1  5  1  0  0  0  0
  1  8  1  0  0  0  0
  2 13  2  0  0  0  0
  3 16  1  0  0  0  0
  3 14  2  0  0  0  0
  4  7  2  0  0  0  0
  4 15  1  0  0  0  0
  5  9  2  0  0  0  0
  8  4  1  0  0  0  0
  9  7  1  0  0  0  0
 10  3  1  0  0  0  0
 11  7  1  6  0  0  0
 11 10  1  0  0  0  0
 11  2  1  0  0  0  0
 12  2  1  0  0  0  0
 13 14  1  0  0  0  0
 13 35  1  0  0  0  0
 15 12  2  0  0  0  0
 16 17  1  1  0  0  0
 16 18  1  0  0  0  0
 19 20  1  6  0  0  0
 19 18  1  0  0  0  0
 21 19  1  0  0  0  0
 22 21  1  1  0  0  0
 22 24  1  0  0  0  0
 23 27  1  0  0  0  0
 25 26  1  6  0  0  0
 25 23  1  0  0  0  0
 25 22  1  0  0  0  0
 27 24  1  0  0  0  0
 28 29  1  0  0  0  0
 28 25  1  0  0  0  0
 29 33  1  0  0  0  0
 30 32  1  0  0  0  0
 31 33  1  0  0  0  0
 32 31  2  0  0  0  0
 34 32  1  0  0  0  0
 34 29  1  0  0  0  0
 36 40  1  0  0  0  0
 36 37  1  0  0  0  0
 37 43  1  0  0  0  0
 37 38  1  0  0  0  0
 39 41  1  0  0  0  0
 39 43  1  0  0  0  0
 41 40  1  0  0  0  0
 41 35  1  0  0  0  0
 42 37  1  0  0  0  0
M  END
>  <MODEL>
5

>  <REMARK>
 VINA RESULT:      -7.5      3.512      6.708
  Name = 
  9 active torsions:
  status: ('A' for Active; 'I' for Inactive)
    1  A    between atoms: C_1  and  C_34
    2  A    between atoms: C_1  and  C_35
    3  A    between atoms: C_2  and  C_6
    4  A    between atoms: C_2  and  C_13
    5  A    between atoms: O_3  and  C_4
    6  A    between atoms: O_3  and  C_12
    7  A    between atoms: C_6  and  C_12
    8  A    between atoms: N_11  and  C_14
    9  A    between atoms: C_14  and  C_22
                            x       y       z     vdW  Elec       q    Type
                         _______ _______ _______ _____ _____    ______ ____

>  <TORSDO>
F 9

$$$$
=
 OpenBabel11052420433D

 43 48  0  0  1  0  0  0  0  0999 V2000
  196.6820  173.7250  145.1560 C   0  0  1  0  0  3  0  0  0  0  0  0
  192.0140  171.7960  144.5670 C   0  0  0  0  0  0  0  0  0  0  0  0
  190.2190  173.9350  145.0990 C   0  0  0  0  0  0  0  0  0  0  0  0
  194.7530  172.1380  145.0670 C   0  0  0  0  0  0  0  0  0  0  0  0
  195.7180  174.7490  145.6930 C   0  0  0  0  0  3  0  0  0  0  0  0
  197.9410  173.9190  145.7200 O   0  0  0  0  0  1  0  0  0  0  0  0
  193.8690  173.2210  145.2360 C   0  0  0  0  0  0  0  0  0  0  0  0
  196.2050  172.2930  145.4250 C   0  0  0  0  0  2  0  0  0  0  0  0
  194.4010  174.5210  145.6850 C   0  0  0  0  0  3  0  0  0  0  0  0
  191.6040  174.1000  145.2070 O   0  0  0  0  0  0  0  0  0  0  0  0
  192.4980  173.0450  144.9990 C   0  0  0  0  0  0  0  0  0  0  0  0
  192.9020  170.7230  144.4110 C   0  0  0  0  0  2  0  0  0  0  0  0
  190.5550  171.6110  144.2450 C   0  0  0  0  0  0  0  0  0  0  0  0
  189.7000  172.7710  144.6880 C   0  0  0  0  0  3  0  0  0  0  0  0
  194.2650  170.8910  144.6700 C   0  0  0  0  0  3  0  0  0  0  0  0
  189.3300  175.0720  145.4860 C   0  0  1  0  0  3  0  0  0  0  0  0
  189.5440  175.4340  146.8180 O   0  0  0  0  0  1  0  0  0  0  0  0
  189.5520  176.2670  144.5700 C   0  0  0  0  0  2  0  0  0  0  0  0
  188.2690  176.6340  143.8410 C   0  0  1  0  0  3  0  0  0  0  0  0
  188.0610  175.6700  142.6910 C   0  0  0  0  0  1  0  0  0  0  0  0
  187.1840  176.5510  144.7200 O   0  0  0  0  0  0  0  0  0  0  0  0
  186.9630  177.8640  145.1600 C   0  0  2  0  0  3  0  0  0  0  0  0
  184.7990  177.7680  146.2400 C   0  0  0  0  0  2  0  0  0  0  0  0
  187.2030  177.9260  146.6560 C   0  0  0  0  0  2  0  0  0  0  0  0
  185.5010  178.2680  144.9900 C   0  0  1  0  0  0  0  0  0  0  0  0
  185.4250  179.6500  144.9470 F   0  0  0  0  0  0  0  0  0  0  0  0
  185.8640  177.6540  147.3190 C   0  0  0  0  0  2  0  0  0  0  0  0
  184.8760  177.6840  143.7230 C   0  0  0  0  0  2  0  0  0  0  0  0
  184.8400  178.6720  142.6530 N   0  0  0  0  0  0  0  0  0  0  0  0
  186.3490  177.6310  139.5020 N   0  0  0  0  0  1  0  0  0  0  0  0
  184.2230  177.8980  140.5410 N   0  0  0  0  0  0  0  0  0  0  0  0
  185.5000  177.9790  140.5880 C   0  0  0  0  0  0  0  0  0  0  0  0
  183.7770  178.3170  141.7980 N   0  0  0  0  0  2  0  0  0  0  0  0
  185.9670  178.4380  141.8430 N   0  0  0  0  0  2  0  0  0  0  0  0
  190.3790  171.3900  142.7470 C   0  0  0  0  0  2  0  0  0  0  0  0
  190.0490  173.7490  139.7640 C   0  0  0  0  0  2  0  0  0  0  0  0
  191.1840  173.0500  139.0000 C   0  0  0  0  0  0  0  0  0  0  0  0
  190.5900  172.2480  137.8580 C   0  0  0  0  0  1  0  0  0  0  0  0
  192.0620  172.5810  141.3350 C   0  0  0  0  0  2  0  0  0  0  0  0
  189.5470  172.9040  140.9310 C   0  0  0  0  0  2  0  0  0  0  0  0
  190.6620  172.6610  141.9600 C   0  0  0  0  0  3  0  0  0  0  0  0
  192.0970  174.1090  138.4170 C   0  0  0  0  0  1  0  0  0  0  0  0
  192.0100  172.1030  139.8840 C   0  0  0  0  0  2  0  0  0  0  0  0
  1  8  1  0  0  0  0
  1  5  1  0  0  0  0
  1  6  1  1  0  0  0
  2 11  1  0  0  0  0
  3 10  1  0  0  0  0
  3 16  1  0  0  0  0
  4  7  1  0  0  0  0
  4  8  1  0  0  0  0
  7  9  1  0  0  0  0
  9  5  2  0  0  0  0
 11 10  1  0  0  0  0
 11  7  2  0  0  0  0
 12  2  1  0  0  0  0
 12 15  1  0  0  0  0
 13  2  2  0  0  0  0
 13 14  1  0  0  0  0
 14  3  2  0  0  0  0
 15  4  2  0  0  0  0
 16 17  1  1  0  0  0
 18 16  1  0  0  0  0
 19 20  1  6  0  0  0
 19 18  1  0  0  0  0
 19 21  1  0  0  0  0
 22 21  1  1  0  0  0
 22 24  1  0  0  0  0
 23 27  1  0  0  0  0
 24 27  1  0  0  0  0
 25 26  1  6  0  0  0
 25 22  1  0  0  0  0
 25 23  1  0  0  0  0
 28 25  1  0  0  0  0
 29 28  1  0  0  0  0
 30 32  1  0  0  0  0
 31 32  2  0  0  0  0
 31 33  1  0  0  0  0
 32 34  1  0  0  0  0
 33 29  1  0  0  0  0
 34 29  1  0  0  0  0
 35 13  1  0  0  0  0
 36 40  1  0  0  0  0
 37 36  1  0  0  0  0
 37 43  1  0  0  0  0
 38 37  1  0  0  0  0
 39 41  1  0  0  0  0
 40 41  1  0  0  0  0
 41 35  1  0  0  0  0
 42 37  1  0  0  0  0
 43 39  1  0  0  0  0
M  END
>  <MODEL>
6

>  <REMARK>
 VINA RESULT:      -7.4      2.572      6.318
  Name = 
  9 active torsions:
  status: ('A' for Active; 'I' for Inactive)
    1  A    between atoms: C_1  and  C_34
    2  A    between atoms: C_1  and  C_35
    3  A    between atoms: C_2  and  C_6
    4  A    between atoms: C_2  and  C_13
    5  A    between atoms: O_3  and  C_4
    6  A    between atoms: O_3  and  C_12
    7  A    between atoms: C_6  and  C_12
    8  A    between atoms: N_11  and  C_14
    9  A    between atoms: C_14  and  C_22
                            x       y       z     vdW  Elec       q    Type
                         _______ _______ _______ _____ _____    ______ ____

>  <TORSDO>
F 9

$$$$
=
 OpenBabel11052420433D

 43 48  0  0  1  0  0  0  0  0999 V2000
  189.4960  173.3840  137.3730 C   0  0  1  0  0  3  0  0  0  0  0  0
  188.2930  175.2420  141.9510 C   0  0  0  0  0  0  0  0  0  0  0  0
  189.6070  173.5690  143.8350 C   0  0  0  0  0  0  0  0  0  0  0  0
  188.2860  174.5240  139.2390 C   0  0  0  0  0  0  0  0  0  0  0  0
  189.9480  172.3680  138.3870 C   0  0  0  0  0  3  0  0  0  0  0  0
  189.3130  172.7710  136.1350 O   0  0  0  0  0  1  0  0  0  0  0  0
  189.0140  173.7540  140.1660 C   0  0  0  0  0  0  0  0  0  0  0  0
  188.2040  174.0870  137.8030 C   0  0  0  0  0  2  0  0  0  0  0  0
  189.7570  172.5710  139.6940 C   0  0  0  0  0  3  0  0  0  0  0  0
  189.6880  173.3240  142.4600 O   0  0  0  0  0  0  0  0  0  0  0  0
  189.0060  174.1070  141.5240 C   0  0  0  0  0  0  0  0  0  0  0  0
  187.5650  175.9960  141.0200 C   0  0  0  0  0  2  0  0  0  0  0  0
  188.3300  175.6710  143.3940 C   0  0  0  0  0  0  0  0  0  0  0  0
  188.9480  174.6370  144.3020 C   0  0  0  0  0  3  0  0  0  0  0  0
  187.5530  175.6320  139.6710 C   0  0  0  0  0  3  0  0  0  0  0  0
  190.2420  172.5960  144.7750 C   0  0  1  0  0  3  0  0  0  0  0  0
  189.3700  171.5410  145.0560 O   0  0  0  0  0  1  0  0  0  0  0  0
  191.5480  172.0650  144.2020 C   0  0  0  0  0  2  0  0  0  0  0  0
  192.7410  172.7300  144.8710 C   0  0  1  0  0  3  0  0  0  0  0  0
  193.9160  171.7740  144.8480 C   0  0  0  0  0  1  0  0  0  0  0  0
  193.0790  173.9000  144.1820 O   0  0  0  0  0  0  0  0  0  0  0  0
  193.6660  174.7370  145.1410 C   0  0  2  0  0  3  0  0  0  0  0  0
  192.5560  176.8650  144.8250 C   0  0  0  0  0  2  0  0  0  0  0  0
  192.6960  174.9150  146.2940 C   0  0  0  0  0  2  0  0  0  0  0  0
  193.8740  176.1470  144.5960 C   0  0  1  0  0  0  0  0  0  0  0  0
  194.8660  176.7670  145.3370 F   0  0  0  0  0  0  0  0  0  0  0  0
  191.8640  176.1450  145.9710 C   0  0  0  0  0  2  0  0  0  0  0  0
  194.2650  176.1490  143.1180 C   0  0  0  0  0  2  0  0  0  0  0  0
  195.6050  175.6080  142.9290 N   0  0  0  0  0  0  0  0  0  0  0  0
  196.4670  174.7070  139.5040 N   0  0  0  0  0  1  0  0  0  0  0  0
  196.8140  176.4290  141.1120 N   0  0  0  0  0  0  0  0  0  0  0  0
  196.3000  175.3030  140.7840 C   0  0  0  0  0  0  0  0  0  0  0  0
  196.4070  176.6540  142.4300 N   0  0  0  0  0  2  0  0  0  0  0  0
  195.5390  174.7300  141.8310 N   0  0  0  0  0  2  0  0  0  0  0  0
  189.0890  176.9850  143.5260 C   0  0  0  0  0  2  0  0  0  0  0  0
  187.0300  178.0530  146.5590 C   0  0  0  0  0  2  0  0  0  0  0  0
  185.7060  177.6790  145.8750 C   0  0  0  0  0  0  0  0  0  0  0  0
  185.1600  176.4160  146.5130 C   0  0  0  0  0  1  0  0  0  0  0  0
  186.9700  178.2910  143.7610 C   0  0  0  0  0  2  0  0  0  0  0  0
  188.2310  177.4510  145.8350 C   0  0  0  0  0  2  0  0  0  0  0  0
  188.3340  177.9800  144.3950 C   0  0  0  0  0  3  0  0  0  0  0  0
  184.7120  178.7990  146.1040 C   0  0  0  0  0  1  0  0  0  0  0  0
  185.8550  177.4380  144.3650 C   0  0  0  0  0  2  0  0  0  0  0  0
  1  6  1  6  0  0  0
  1  8  1  0  0  0  0
  1  5  1  0  0  0  0
  2 13  2  0  0  0  0
  3 14  2  0  0  0  0
  3 16  1  0  0  0  0
  4 15  2  0  0  0  0
  4  7  1  0  0  0  0
  5  9  2  0  0  0  0
  7 11  2  0  0  0  0
  8  4  1  0  0  0  0
  9  7  1  0  0  0  0
 10  3  1  0  0  0  0
 11  2  1  0  0  0  0
 11 10  1  0  0  0  0
 12  2  1  0  0  0  0
 13 35  1  0  0  0  0
 13 14  1  0  0  0  0
 15 12  1  0  0  0  0
 16 17  1  6  0  0  0
 18 16  1  0  0  0  0
 18 19  1  0  0  0  0
 19 20  1  6  0  0  0
 21 19  1  0  0  0  0
 22 21  1  6  0  0  0
 22 24  1  0  0  0  0
 23 27  1  0  0  0  0
 25 23  1  0  0  0  0
 25 22  1  0  0  0  0
 25 26  1  1  0  0  0
 27 24  1  0  0  0  0
 28 25  1  0  0  0  0
 29 28  1  0  0  0  0
 30 32  1  0  0  0  0
 31 33  1  0  0  0  0
 32 31  2  0  0  0  0
 32 34  1  0  0  0  0
 33 29  1  0  0  0  0
 34 29  1  0  0  0  0
 35 41  1  0  0  0  0
 37 42  1  0  0  0  0
 37 38  1  0  0  0  0
 37 36  1  0  0  0  0
 39 43  1  0  0  0  0
 39 41  1  0  0  0  0
 40 36  1  0  0  0  0
 41 40  1  0  0  0  0
 43 37  1  0  0  0  0
M  END
>  <MODEL>
7

>  <REMARK>
 VINA RESULT:      -7.4      4.876      8.515
  Name = 
  9 active torsions:
  status: ('A' for Active; 'I' for Inactive)
    1  A    between atoms: C_1  and  C_34
    2  A    between atoms: C_1  and  C_35
    3  A    between atoms: C_2  and  C_6
    4  A    between atoms: C_2  and  C_13
    5  A    between atoms: O_3  and  C_4
    6  A    between atoms: O_3  and  C_12
    7  A    between atoms: C_6  and  C_12
    8  A    between atoms: N_11  and  C_14
    9  A    between atoms: C_14  and  C_22
                            x       y       z     vdW  Elec       q    Type
                         _______ _______ _______ _____ _____    ______ ____

>  <TORSDO>
F 9

$$$$
=
 OpenBabel11052420433D

 43 48  0  0  1  0  0  0  0  0999 V2000
  184.6670  177.9230  146.2890 C   0  0  1  0  0  3  0  0  0  0  0  0
  188.9770  177.4350  143.6360 C   0  0  0  0  0  0  0  0  0  0  0  0
  190.9710  176.7050  145.5250 C   0  0  0  0  0  0  0  0  0  0  0  0
  186.4320  178.1930  144.5400 C   0  0  0  0  0  0  0  0  0  0  0  0
  185.7830  177.8070  147.2910 C   0  0  0  0  0  3  0  0  0  0  0  0
  183.5690  178.5530  146.8720 O   0  0  0  0  0  1  0  0  0  0  0  0
  187.3960  177.7370  145.4600 C   0  0  0  0  0  0  0  0  0  0  0  0
  185.1010  178.6880  145.0340 C   0  0  0  0  0  2  0  0  0  0  0  0
  187.0520  177.6760  146.8930 C   0  0  0  0  0  3  0  0  0  0  0  0
  189.6530  176.9610  145.9180 O   0  0  0  0  0  0  0  0  0  0  0  0
  188.6730  177.3710  145.0080 C   0  0  0  0  0  0  0  0  0  0  0  0
  188.0120  177.8980  142.7310 C   0  0  0  0  0  2  0  0  0  0  0  0
  190.3210  176.9820  143.1280 C   0  0  0  0  0  0  0  0  0  0  0  0
  191.3190  176.7430  144.2330 C   0  0  0  0  0  3  0  0  0  0  0  0
  186.7480  178.2850  143.1830 C   0  0  0  0  0  3  0  0  0  0  0  0
  191.9900  176.4190  146.5810 C   0  0  1  0  0  3  0  0  0  0  0  0
  191.4200  176.5100  147.8530 O   0  0  0  0  0  1  0  0  0  0  0  0
  192.6100  175.0450  146.3760 C   0  0  0  0  0  2  0  0  0  0  0  0
  193.9170  175.1520  145.6070 C   0  0  1  0  0  3  0  0  0  0  0  0
  194.6000  176.4540  145.9730 C   0  0  0  0  0  1  0  0  0  0  0  0
  194.7530  174.0800  145.9400 O   0  0  0  0  0  0  0  0  0  0  0  0
  194.6380  173.1770  144.8740 C   0  0  2  0  0  3  0  0  0  0  0  0
  196.4890  171.6510  145.1900 C   0  0  0  0  0  2  0  0  0  0  0  0
  194.0630  171.8730  145.3950 C   0  0  0  0  0  2  0  0  0  0  0  0
  196.0070  172.7960  144.3180 C   0  0  1  0  0  0  0  0  0  0  0  0
  195.8480  172.3430  143.0190 F   0  0  0  0  0  0  0  0  0  0  0  0
  195.2480  171.0060  145.7850 C   0  0  0  0  0  2  0  0  0  0  0  0
  196.9900  173.9670  144.3330 C   0  0  0  0  0  2  0  0  0  0  0  0
  197.1910  174.4990  142.9920 N   0  0  0  0  0  0  0  0  0  0  0  0
  194.6130  176.7900  141.8090 N   0  0  0  0  0  1  0  0  0  0  0  0
  196.8170  176.7840  142.7120 N   0  0  0  0  0  0  0  0  0  0  0  0
  195.7770  176.1500  142.3170 C   0  0  0  0  0  0  0  0  0  0  0  0
  197.7140  175.8010  143.1380 N   0  0  0  0  0  2  0  0  0  0  0  0
  195.9130  174.7480  142.4560 N   0  0  0  0  0  2  0  0  0  0  0  0
  190.1620  175.7130  142.3010 C   0  0  0  0  0  2  0  0  0  0  0  0
  192.5130  172.7350  141.8730 C   0  0  0  0  0  2  0  0  0  0  0  0
  191.3510  171.7300  141.8820 C   0  0  0  0  0  0  0  0  0  0  0  0
  191.1460  171.1970  140.4780 C   0  0  0  0  0  1  0  0  0  0  0  0
  190.2610  173.4620  143.3840 C   0  0  0  0  0  2  0  0  0  0  0  0
  192.0240  174.1640  141.6550 C   0  0  0  0  0  2  0  0  0  0  0  0
  191.0900  174.6100  142.7900 C   0  0  0  0  0  3  0  0  0  0  0  0
  191.7220  170.5710  142.7850 C   0  0  0  0  0  1  0  0  0  0  0  0
  190.0290  172.3440  142.3690 C   0  0  0  0  0  2  0  0  0  0  0  0
  1  6  1  1  0  0  0
  1  5  1  0  0  0  0
  2 11  1  0  0  0  0
  3 10  1  0  0  0  0
  3 16  1  0  0  0  0
  4  8  1  0  0  0  0
  4  7  1  0  0  0  0
  7  9  1  0  0  0  0
  8  1  1  0  0  0  0
  9  5  2  0  0  0  0
 11  7  2  0  0  0  0
 11 10  1  0  0  0  0
 12 15  1  0  0  0  0
 12  2  1  0  0  0  0
 13  2  2  0  0  0  0
 13 14  1  0  0  0  0
 14  3  2  0  0  0  0
 15  4  2  0  0  0  0
 16 17  1  1  0  0  0
 18 16  1  0  0  0  0
 19 21  1  0  0  0  0
 19 20  1  1  0  0  0
 19 18  1  0  0  0  0
 22 24  1  0  0  0  0
 22 21  1  1  0  0  0
 23 27  1  0  0  0  0
 24 27  1  0  0  0  0
 25 26  1  6  0  0  0
 25 28  1  0  0  0  0
 25 22  1  0  0  0  0
 25 23  1  0  0  0  0
 29 33  1  0  0  0  0
 29 28  1  0  0  0  0
 30 32  1  0  0  0  0
 31 33  1  0  0  0  0
 32 34  1  0  0  0  0
 32 31  2  0  0  0  0
 34 29  1  0  0  0  0
 35 41  1  0  0  0  0
 35 13  1  0  0  0  0
 36 37  1  0  0  0  0
 37 43  1  0  0  0  0
 37 42  1  0  0  0  0
 38 37  1  0  0  0  0
 40 36  1  0  0  0  0
 40 41  1  0  0  0  0
 41 39  1  0  0  0  0
 43 39  1  0  0  0  0
M  END
>  <MODEL>
8

>  <REMARK>
 VINA RESULT:      -7.4      4.720      7.380
  Name = 
  9 active torsions:
  status: ('A' for Active; 'I' for Inactive)
    1  A    between atoms: C_1  and  C_34
    2  A    between atoms: C_1  and  C_35
    3  A    between atoms: C_2  and  C_6
    4  A    between atoms: C_2  and  C_13
    5  A    between atoms: O_3  and  C_4
    6  A    between atoms: O_3  and  C_12
    7  A    between atoms: C_6  and  C_12
    8  A    between atoms: N_11  and  C_14
    9  A    between atoms: C_14  and  C_22
                            x       y       z     vdW  Elec       q    Type
                         _______ _______ _______ _____ _____    ______ ____

>  <TORSDO>
F 9

$$$$
=
 OpenBabel11052420433D

 43 48  0  0  1  0  0  0  0  0999 V2000
  185.7130  178.8530  144.1510 C   0  0  1  0  0  3  0  0  0  0  0  0
  189.4530  175.6310  145.3680 C   0  0  0  0  0  0  0  0  0  0  0  0
  189.5650  173.7390  143.2490 C   0  0  0  0  0  0  0  0  0  0  0  0
  187.3470  177.4830  145.4530 C   0  0  0  0  0  0  0  0  0  0  0  0
  185.6150  177.6950  143.1960 C   0  0  0  0  0  3  0  0  0  0  0  0
  184.4820  179.5010  144.2370 O   0  0  0  0  0  1  0  0  0  0  0  0
  187.4650  176.6050  144.3580 C   0  0  0  0  0  0  0  0  0  0  0  0
  186.1680  178.4100  145.5460 C   0  0  0  0  0  2  0  0  0  0  0  0
  186.4680  176.6680  143.2730 C   0  0  0  0  0  3  0  0  0  0  0  0
  188.6120  174.7630  143.2630 O   0  0  0  0  0  0  0  0  0  0  0  0
  188.5110  175.6700  144.3230 C   0  0  2  0  0  3  0  0  0  0  0  0
  189.3200  176.5040  146.4560 C   0  0  0  0  0  3  0  0  0  0  0  0
  190.6180  174.6790  145.3110 C   0  0  0  0  0  0  0  0  0  0  0  0
  190.4910  173.6540  144.2130 C   0  0  0  0  0  3  0  0  0  0  0  0
  188.2650  177.4180  146.5030 C   0  0  0  0  0  3  0  0  0  0  0  0
  189.5070  172.7220  142.1560 C   0  0  1  0  0  3  0  0  0  0  0  0
  189.3100  171.4430  142.6820 O   0  0  0  0  0  1  0  0  0  0  0  0
  188.4060  173.0610  141.1610 C   0  0  0  0  0  2  0  0  0  0  0  0
  188.9700  173.1960  139.7560 C   0  0  1  0  0  3  0  0  0  0  0  0
  188.2900  174.3570  139.0600 C   0  0  0  0  0  1  0  0  0  0  0  0
  190.3480  173.4330  139.8190 O   0  0  0  0  0  0  0  0  0  0  0  0
  190.8890  172.7620  138.7130 C   0  0  2  0  0  3  0  0  0  0  0  0
  192.8900  171.7130  139.5810 C   0  0  0  0  0  2  0  0  0  0  0  0
  190.5990  171.2800  138.8490 C   0  0  0  0  0  2  0  0  0  0  0  0
  192.4120  172.8530  138.6990 C   0  0  1  0  0  0  0  0  0  0  0  0
  192.8580  172.6440  137.4050 F   0  0  0  0  0  0  0  0  0  0  0  0
  191.7810  170.6750  139.5870 C   0  0  0  0  0  2  0  0  0  0  0  0
  192.9220  174.2040  139.2020 C   0  0  0  0  0  2  0  0  0  0  0  0
  193.6770  174.0520  140.4390 N   0  0  0  0  0  0  0  0  0  0  0  0
  195.8280  176.8590  141.3210 N   0  0  0  0  0  1  0  0  0  0  0  0
  193.7200  175.8960  141.8660 N   0  0  0  0  0  0  0  0  0  0  0  0
  194.8060  175.8800  141.1880 C   0  0  0  0  0  0  0  0  0  0  0  0
  192.9930  174.7830  141.4320 N   0  0  0  0  0  2  0  0  0  0  0  0
  194.8640  174.7910  140.2860 N   0  0  0  0  0  2  0  0  0  0  0  0
  191.9160  175.4570  145.1340 C   0  0  0  0  0  2  0  0  0  0  0  0
  195.5490  175.0070  146.2220 C   0  0  0  0  0  2  0  0  0  0  0  0
  195.7980  173.9130  145.1730 C   0  0  0  0  0  0  0  0  0  0  0  0
  196.6690  174.4780  144.0680 C   0  0  0  0  0  1  0  0  0  0  0  0
  193.3300  173.4330  145.5250 C   0  0  0  0  0  2  0  0  0  0  0  0
  194.2690  175.7880  145.9340 C   0  0  0  0  0  2  0  0  0  0  0  0
  193.0370  174.8700  145.9800 C   0  0  0  0  0  3  0  0  0  0  0  0
  196.5420  172.7710  145.8330 C   0  0  0  0  0  1  0  0  0  0  0  0
  194.5020  173.3750  144.5460 C   0  0  0  0  0  2  0  0  0  0  0  0
  1  6  1  1  0  0  0
  1  8  1  0  0  0  0
  2 12  1  0  0  0  0
  3 10  1  0  0  0  0
  3 14  2  0  0  0  0
  4  8  1  0  0  0  0
  4 15  1  0  0  0  0
  5  9  2  0  0  0  0
  5  1  1  0  0  0  0
  7  4  2  0  0  0  0
  9  7  1  0  0  0  0
 11 10  1  1  0  0  0
 11  7  1  0  0  0  0
 11  2  1  0  0  0  0
 12 15  2  0  0  0  0
 13  2  2  0  0  0  0
 14 13  1  0  0  0  0
 16 17  1  1  0  0  0
 16  3  1  0  0  0  0
 18 16  1  0  0  0  0
 19 20  1  1  0  0  0
 19 21  1  0  0  0  0
 19 18  1  0  0  0  0
 22 24  1  0  0  0  0
 22 21  1  1  0  0  0
 23 27  1  0  0  0  0
 24 27  1  0  0  0  0
 25 26  1  6  0  0  0
 25 22  1  0  0  0  0
 25 28  1  0  0  0  0
 25 23  1  0  0  0  0
 28 29  1  0  0  0  0
 29 33  1  0  0  0  0
 32 30  1  0  0  0  0
 32 31  2  0  0  0  0
 33 31  1  0  0  0  0
 34 29  1  0  0  0  0
 34 32  1  0  0  0  0
 35 13  1  0  0  0  0
 35 41  1  0  0  0  0
 37 42  1  0  0  0  0
 37 36  1  0  0  0  0
 38 37  1  0  0  0  0
 39 41  1  0  0  0  0
 40 41  1  0  0  0  0
 40 36  1  0  0  0  0
 43 37  1  0  0  0  0
 43 39  1  0  0  0  0
M  END
>  <MODEL>
9

>  <REMARK>
 VINA RESULT:      -7.3      4.078      5.408
  Name = 
  9 active torsions:
  status: ('A' for Active; 'I' for Inactive)
    1  A    between atoms: C_1  and  C_34
    2  A    between atoms: C_1  and  C_35
    3  A    between atoms: C_2  and  C_6
    4  A    between atoms: C_2  and  C_13
    5  A    between atoms: O_3  and  C_4
    6  A    between atoms: O_3  and  C_12
    7  A    between atoms: C_6  and  C_12
    8  A    between atoms: N_11  and  C_14
    9  A    between atoms: C_14  and  C_22
                            x       y       z     vdW  Elec       q    Type
                         _______ _______ _______ _____ _____    ______ ____

>  <TORSDO>
F 9

$$$$
