=
 OpenBabel11052418193D

 27 31  0  0  1  0  0  0  0  0999 V2000
  191.1650  176.7210  143.5230 N   0  0  0  0  0  2  0  0  0  0  0  0
  188.8420  175.5520  142.5860 C   0  0  0  0  0  0  0  0  0  0  0  0
  190.0180  176.7100  144.4480 C   0  0  1  0  0  3  0  0  0  0  0  0
  184.9790  178.3010  143.3240 C   0  0  0  0  0  3  0  0  0  0  0  0
  185.6400  179.9810  144.8490 O   0  0  0  0  0  0  0  0  0  0  0  0
  187.3670  175.5080  141.7710 S   0  0  0  0  0  0  0  0  0  0  0  0
  187.1460  178.1190  144.7680 C   0  0  1  0  0  3  0  0  0  0  0  0
  186.8790  177.5250  146.1380 C   0  0  0  0  0  1  0  0  0  0  0  0
  187.5120  177.0280  143.7890 C   0  0  0  0  0  0  0  0  0  0  0  0
  190.0960  175.0600  142.1040 N   0  0  0  0  0  0  0  0  0  0  0  0
  185.9090  178.8700  144.3260 C   0  0  0  0  0  0  0  0  0  0  0  0
  185.3070  177.2230  142.6090 C   0  0  0  0  0  3  0  0  0  0  0  0
  191.3150  175.4190  142.8430 C   0  0  0  0  0  2  0  0  0  0  0  0
  188.7700  176.4120  143.6640 C   0  0  0  0  0  0  0  0  0  0  0  0
  186.6160  176.5990  142.8130 C   0  0  0  0  0  0  0  0  0  0  0  0
  191.1800  170.2980  140.9310 C   0  0  0  0  0  1  0  0  0  0  0  0
  190.1330  174.0530  141.0490 C   0  0  2  0  0  3  0  0  0  0  0  0
  189.5240  172.4420  141.6810 S   0  0  0  0  0  0  0  0  0  0  0  0
  191.0480  171.7180  141.1910 N   0  0  0  0  0  0  0  0  0  0  0  0
  191.9390  172.6620  140.6320 C   0  0  0  0  0  3  0  0  0  0  0  0
  191.4980  173.8700  140.5660 N   0  0  0  0  0  0  0  0  0  0  0  0
  189.2440  174.5720  147.4380 N   0  0  0  0  0  2  0  0  0  0  0  0
  190.4380  175.2770  147.8990 C   0  0  0  0  0  2  0  0  0  0  0  0
  189.0430  174.9330  146.0380 C   0  0  0  0  0  2  0  0  0  0  0  0
  190.2150  177.5610  147.1540 N   0  0  0  0  0  1  0  0  0  0  0  0
  190.8400  176.2830  146.8440 C   0  0  2  0  0  3  0  0  0  0  0  0
  190.2680  175.6860  145.5760 C   0  0  2  0  0  3  0  0  0  0  0  0
  2 14  2  0  0  0  0
  3  1  1  6  0  0  0
  3 27  1  0  0  0  0
  4 11  1  0  0  0  0
  6  2  1  0  0  0  0
  6 15  1  0  0  0  0
  7  8  1  1  0  0  0
  9  7  1  0  0  0  0
 10  2  1  0  0  0  0
 10 13  1  0  0  0  0
 11  7  1  0  0  0  0
 11  5  2  0  0  0  0
 12 15  1  0  0  0  0
 12  4  2  0  0  0  0
 13  1  1  0  0  0  0
 14  9  1  0  0  0  0
 14  3  1  0  0  0  0
 15  9  2  0  0  0  0
 16 19  1  0  0  0  0
 17 18  1  0  0  0  0
 17 10  1  1  0  0  0
 19 18  1  0  0  0  0
 20 19  1  0  0  0  0
 21 20  2  0  0  0  0
 21 17  1  0  0  0  0
 22 23  1  0  0  0  0
 24 22  1  0  0  0  0
 26 25  1  1  0  0  0
 26 23  1  0  0  0  0
 27 24  1  1  0  0  0
 27 26  1  0  0  0  0
M  END
>  <MODEL>
1

>  <REMARK>
 VINA RESULT:      -7.0      0.000      0.000
  Name = 
  2 active torsions:
  status: ('A' for Active; 'I' for Inactive)
    1  A    between atoms: C_3  and  C_26
    2  A    between atoms: C_9  and  N_15
                            x       y       z     vdW  Elec       q    Type
                         _______ _______ _______ _____ _____    ______ ____

>  <TORSDO>
F 2

$$$$
=
 OpenBabel11052418193D

 27 31  0  0  1  0  0  0  0  0999 V2000
  189.1320  174.5050  144.1930 N   0  0  0  0  0  2  0  0  0  0  0  0
  189.7740  176.6260  145.8460 C   0  0  0  0  0  0  0  0  0  0  0  0
  188.3190  175.7240  144.0410 C   0  0  1  0  0  3  0  0  0  0  0  0
  185.9210  178.4960  148.0100 C   0  0  0  0  0  3  0  0  0  0  0  0
  184.0360  177.6170  146.8870 O   0  0  0  0  0  0  0  0  0  0  0  0
  189.7210  177.5390  147.2630 S   0  0  0  0  0  0  0  0  0  0  0  0
  186.0800  177.3670  145.6620 C   0  0  1  0  0  3  0  0  0  0  0  0
  185.8130  178.3420  144.5320 C   0  0  0  0  0  1  0  0  0  0  0  0
  187.5590  177.3140  145.9670 C   0  0  0  0  0  0  0  0  0  0  0  0
  190.8170  175.7310  145.4480 N   0  0  0  0  0  0  0  0  0  0  0  0
  185.2800  177.8040  146.8680 C   0  0  0  0  0  0  0  0  0  0  0  0
  187.2500  178.5560  148.1240 C   0  0  0  0  0  3  0  0  0  0  0  0
  190.5670  174.8330  144.3120 C   0  0  0  0  0  2  0  0  0  0  0  0
  188.5310  176.5990  145.2450 C   0  0  0  0  0  0  0  0  0  0  0  0
  188.0860  177.9150  147.1070 C   0  0  0  0  0  0  0  0  0  0  0  0
  195.7520  175.5680  144.5290 C   0  0  0  0  0  1  0  0  0  0  0  0
  192.1570  175.8690  146.0090 C   0  0  2  0  0  3  0  0  0  0  0  0
  193.2420  176.7910  144.8530 S   0  0  0  0  0  0  0  0  0  0  0  0
  194.3500  175.4270  144.8670 N   0  0  0  0  0  0  0  0  0  0  0  0
  193.8810  174.3590  145.6650 C   0  0  0  0  0  3  0  0  0  0  0  0
  192.7480  174.5570  146.2460 N   0  0  0  0  0  0  0  0  0  0  0  0
  188.5660  178.5260  141.5500 N   0  0  0  0  0  2  0  0  0  0  0  0
  187.9310  177.4870  140.7410 C   0  0  0  0  0  2  0  0  0  0  0  0
  188.9070  177.9240  142.8350 C   0  0  0  0  0  2  0  0  0  0  0  0
  186.3000  176.4160  142.1610 N   0  0  0  0  0  1  0  0  0  0  0  0
  187.6490  176.2940  141.6260 C   0  0  2  0  0  3  0  0  0  0  0  0
  188.6870  176.4340  142.7190 C   0  0  2  0  0  3  0  0  0  0  0  0
  1 13  1  0  0  0  0
  2  6  1  0  0  0  0
  3  1  1  1  0  0  0
  3 14  1  0  0  0  0
  4 12  2  0  0  0  0
  7  8  1  6  0  0  0
  7  9  1  0  0  0  0
  7 11  1  0  0  0  0
  9 15  2  0  0  0  0
 10  2  1  0  0  0  0
 11  5  2  0  0  0  0
 11  4  1  0  0  0  0
 13 10  1  0  0  0  0
 14  2  2  0  0  0  0
 14  9  1  0  0  0  0
 15  6  1  0  0  0  0
 15 12  1  0  0  0  0
 16 19  1  0  0  0  0
 17 10  1  6  0  0  0
 17 21  1  0  0  0  0
 18 19  1  0  0  0  0
 18 17  1  0  0  0  0
 19 20  1  0  0  0  0
 20 21  2  0  0  0  0
 22 24  1  0  0  0  0
 23 22  1  0  0  0  0
 23 26  1  0  0  0  0
 26 25  1  1  0  0  0
 26 27  1  0  0  0  0
 27 24  1  1  0  0  0
 27  3  1  0  0  0  0
M  END
>  <MODEL>
2

>  <REMARK>
 VINA RESULT:      -6.6      3.089      4.946
  Name = 
  2 active torsions:
  status: ('A' for Active; 'I' for Inactive)
    1  A    between atoms: C_3  and  C_26
    2  A    between atoms: C_9  and  N_15
                            x       y       z     vdW  Elec       q    Type
                         _______ _______ _______ _____ _____    ______ ____

>  <TORSDO>
F 2

$$$$
=
 OpenBabel11052418193D

 27 31  0  0  1  0  0  0  0  0999 V2000
  188.9720  176.6000  142.8460 N   0  0  0  0  0  2  0  0  0  0  0  0
  189.6000  176.1300  145.4970 C   0  0  0  0  0  0  0  0  0  0  0  0
  190.0890  175.6740  143.1000 C   0  0  1  0  0  3  0  0  0  0  0  0
  194.3000  176.5470  146.3700 C   0  0  0  0  0  3  0  0  0  0  0  0
  195.3680  176.5720  144.2620 O   0  0  0  0  0  0  0  0  0  0  0  0
  190.3570  176.4340  146.9720 S   0  0  0  0  0  0  0  0  0  0  0  0
  193.1150  175.7590  144.1820 C   0  0  1  0  0  3  0  0  0  0  0  0
  193.3900  174.3010  143.8690 C   0  0  0  0  0  1  0  0  0  0  0  0
  191.8570  175.8870  145.0090 C   0  0  0  0  0  0  0  0  0  0  0  0
  188.2420  176.4280  145.1600 N   0  0  0  0  0  0  0  0  0  0  0  0
  194.3160  176.3250  144.9060 C   0  0  0  0  0  0  0  0  0  0  0  0
  193.1640  176.4760  147.0670 C   0  0  0  0  0  3  0  0  0  0  0  0
  187.8360  176.3280  143.7500 C   0  0  0  0  0  2  0  0  0  0  0  0
  190.5380  175.8390  144.5260 C   0  0  0  0  0  0  0  0  0  0  0  0
  191.9110  176.1840  146.3680 C   0  0  0  0  0  0  0  0  0  0  0  0
  183.9270  178.6330  146.4840 C   0  0  0  0  0  1  0  0  0  0  0  0
  187.2460  176.6020  146.2110 C   0  0  2  0  0  3  0  0  0  0  0  0
  185.5540  176.5600  145.5040 S   0  0  0  0  0  0  0  0  0  0  0  0
  185.2630  178.1460  146.2050 N   0  0  0  0  0  0  0  0  0  0  0  0
  186.3960  178.6520  146.8810 C   0  0  0  0  0  3  0  0  0  0  0  0
  187.4310  177.8850  146.8810 N   0  0  0  0  0  0  0  0  0  0  0  0
  190.2840  171.9230  142.9900 N   0  0  0  0  0  2  0  0  0  0  0  0
  190.0640  172.2340  141.5790 C   0  0  0  0  0  2  0  0  0  0  0  0
  190.1740  173.1760  143.7300 C   0  0  0  0  0  2  0  0  0  0  0  0
  191.4180  174.1700  141.0870 N   0  0  0  0  0  1  0  0  0  0  0  0
  190.0670  173.7370  141.4120 C   0  0  2  0  0  3  0  0  0  0  0  0
  189.6490  174.2280  142.7810 C   0  0  2  0  0  3  0  0  0  0  0  0
  1 13  1  0  0  0  0
  2  6  1  0  0  0  0
  3  1  1  1  0  0  0
  3 14  1  0  0  0  0
  4 12  2  0  0  0  0
  5 11  2  0  0  0  0
  7  8  1  1  0  0  0
  7 11  1  0  0  0  0
  7  9  1  0  0  0  0
  9 15  2  0  0  0  0
 10  2  1  0  0  0  0
 11  4  1  0  0  0  0
 13 10  1  0  0  0  0
 14  9  1  0  0  0  0
 14  2  2  0  0  0  0
 15  6  1  0  0  0  0
 15 12  1  0  0  0  0
 17 10  1  6  0  0  0
 17 21  1  0  0  0  0
 18 19  1  0  0  0  0
 18 17  1  0  0  0  0
 19 16  1  0  0  0  0
 19 20  1  0  0  0  0
 20 21  2  0  0  0  0
 22 24  1  0  0  0  0
 23 22  1  0  0  0  0
 26 25  1  1  0  0  0
 26 23  1  0  0  0  0
 26 27  1  0  0  0  0
 27  3  1  0  0  0  0
 27 24  1  1  0  0  0
M  END
>  <MODEL>
3

>  <REMARK>
 VINA RESULT:      -6.5      3.277      6.987
  Name = 
  2 active torsions:
  status: ('A' for Active; 'I' for Inactive)
    1  A    between atoms: C_3  and  C_26
    2  A    between atoms: C_9  and  N_15
                            x       y       z     vdW  Elec       q    Type
                         _______ _______ _______ _____ _____    ______ ____

>  <TORSDO>
F 2

$$$$
=
 OpenBabel11052418193D

 27 31  0  0  1  0  0  0  0  0999 V2000
  188.0980  173.6390  142.2970 N   0  0  0  0  0  2  0  0  0  0  0  0
  190.6080  174.6460  141.7200 C   0  0  0  0  0  0  0  0  0  0  0  0
  188.4110  174.9720  142.8410 C   0  0  1  0  0  3  0  0  0  0  0  0
  192.8380  176.3490  145.6130 C   0  0  0  0  0  3  0  0  0  0  0  0
  191.1930  176.5200  147.3010 O   0  0  0  0  0  0  0  0  0  0  0  0
  192.2630  174.8690  141.9530 S   0  0  0  0  0  0  0  0  0  0  0  0
  190.2810  176.2970  145.0960 C   0  0  1  0  0  3  0  0  0  0  0  0
  189.6960  177.6860  144.9280 C   0  0  0  0  0  1  0  0  0  0  0  0
  190.7260  175.7530  143.7590 C   0  0  0  0  0  0  0  0  0  0  0  0
  189.9920  173.7670  140.7750 N   0  0  0  0  0  0  0  0  0  0  0  0
  191.4320  176.3790  146.0740 C   0  0  0  0  0  0  0  0  0  0  0  0
  193.1480  176.0210  144.3560 C   0  0  0  0  0  3  0  0  0  0  0  0
  188.5480  173.5160  140.8950 C   0  0  0  0  0  2  0  0  0  0  0  0
  189.8980  175.1840  142.7760 C   0  0  0  0  0  0  0  0  0  0  0  0
  192.0750  175.6730  143.4220 C   0  0  0  0  0  0  0  0  0  0  0  0
  189.7580  171.3290  136.3890 C   0  0  0  0  0  1  0  0  0  0  0  0
  190.7310  173.3190  139.5990 C   0  0  2  0  0  3  0  0  0  0  0  0
  189.7340  173.5740  138.0810 S   0  0  0  0  0  0  0  0  0  0  0  0
  189.9010  171.8600  137.7300 N   0  0  0  0  0  0  0  0  0  0  0  0
  190.6280  171.1740  138.7290 C   0  0  0  0  0  3  0  0  0  0  0  0
  191.0480  171.8990  139.7070 N   0  0  0  0  0  0  0  0  0  0  0  0
  187.3400  178.4160  141.7890 N   0  0  0  0  0  2  0  0  0  0  0  0
  186.0530  177.8160  142.1350 C   0  0  0  0  0  2  0  0  0  0  0  0
  188.3470  177.3640  141.8840 C   0  0  0  0  0  2  0  0  0  0  0  0
  186.4170  176.5270  144.1420 N   0  0  0  0  0  1  0  0  0  0  0  0
  186.3020  176.4340  142.6930 C   0  0  2  0  0  3  0  0  0  0  0  0
  187.6230  176.0500  142.0630 C   0  0  2  0  0  3  0  0  0  0  0  0
  2  6  1  0  0  0  0
  2 14  2  0  0  0  0
  3  1  1  6  0  0  0
  4 11  1  0  0  0  0
  6 15  1  0  0  0  0
  7  8  1  6  0  0  0
  7 11  1  0  0  0  0
  9  7  1  0  0  0  0
 10 13  1  0  0  0  0
 10  2  1  0  0  0  0
 11  5  2  0  0  0  0
 12  4  2  0  0  0  0
 13  1  1  0  0  0  0
 14  3  1  0  0  0  0
 14  9  1  0  0  0  0
 15  9  2  0  0  0  0
 15 12  1  0  0  0  0
 16 19  1  0  0  0  0
 17 21  1  0  0  0  0
 17 10  1  1  0  0  0
 18 17  1  0  0  0  0
 19 18  1  0  0  0  0
 19 20  1  0  0  0  0
 20 21  2  0  0  0  0
 22 24  1  0  0  0  0
 22 23  1  0  0  0  0
 23 26  1  0  0  0  0
 26 25  1  1  0  0  0
 27 24  1  1  0  0  0
 27 26  1  0  0  0  0
 27  3  1  0  0  0  0
M  END
>  <MODEL>
4

>  <REMARK>
 VINA RESULT:      -6.5      2.813      4.915
  Name = 
  2 active torsions:
  status: ('A' for Active; 'I' for Inactive)
    1  A    between atoms: C_3  and  C_26
    2  A    between atoms: C_9  and  N_15
                            x       y       z     vdW  Elec       q    Type
                         _______ _______ _______ _____ _____    ______ ____

>  <TORSDO>
F 2

$$$$
=
 OpenBabel11052418193D

 27 31  0  0  1  0  0  0  0  0999 V2000
  189.6180  176.5450  142.2670 N   0  0  0  0  0  2  0  0  0  0  0  0
  190.0440  176.5640  144.9990 C   0  0  0  0  0  0  0  0  0  0  0  0
  190.3950  175.4210  142.8170 C   0  0  1  0  0  3  0  0  0  0  0  0
  194.6370  175.7740  146.1420 C   0  0  0  0  0  3  0  0  0  0  0  0
  195.6830  174.9750  144.1790 O   0  0  0  0  0  0  0  0  0  0  0  0
  190.8440  176.9770  146.4240 S   0  0  0  0  0  0  0  0  0  0  0  0
  193.2910  174.8680  144.0980 C   0  0  1  0  0  3  0  0  0  0  0  0
  193.1090  173.3630  144.1470 C   0  0  0  0  0  1  0  0  0  0  0  0
  192.1240  175.5560  144.7670 C   0  0  0  0  0  0  0  0  0  0  0  0
  188.8470  177.1590  144.4910 N   0  0  0  0  0  0  0  0  0  0  0  0
  194.6000  175.2110  144.7730 C   0  0  0  0  0  0  0  0  0  0  0  0
  193.5270  176.2110  146.7400 C   0  0  0  0  0  3  0  0  0  0  0  0
  188.4440  176.8470  143.1120 C   0  0  0  0  0  2  0  0  0  0  0  0
  190.8580  175.7850  144.2000 C   0  0  0  0  0  0  0  0  0  0  0  0
  192.2520  176.1420  146.0240 C   0  0  0  0  0  0  0  0  0  0  0  0
  184.3550  177.1410  146.7400 C   0  0  0  0  0  1  0  0  0  0  0  0
  187.9410  177.8670  145.3890 C   0  0  2  0  0  3  0  0  0  0  0  0
  187.1220  176.6890  146.5320 S   0  0  0  0  0  0  0  0  0  0  0  0
  185.5670  177.2720  145.9560 N   0  0  0  0  0  0  0  0  0  0  0  0
  185.6990  178.2540  144.9490 C   0  0  0  0  0  3  0  0  0  0  0  0
  186.9080  178.5620  144.6280 N   0  0  0  0  0  0  0  0  0  0  0  0
  189.4610  171.8510  143.5230 N   0  0  0  0  0  2  0  0  0  0  0  0
  189.3090  171.8980  142.0700 C   0  0  0  0  0  2  0  0  0  0  0  0
  189.7480  173.2100  143.9720 C   0  0  0  0  0  2  0  0  0  0  0  0
  191.1660  173.1900  141.2310 N   0  0  0  0  0  1  0  0  0  0  0  0
  189.7550  173.2580  141.5840 C   0  0  2  0  0  3  0  0  0  0  0  0
  189.5360  174.1360  142.7980 C   0  0  2  0  0  3  0  0  0  0  0  0
  1 13  1  0  0  0  0
  2  6  1  0  0  0  0
  3  1  1  1  0  0  0
  3 14  1  0  0  0  0
  4 12  2  0  0  0  0
  5 11  2  0  0  0  0
  7  8  1  1  0  0  0
  7  9  1  0  0  0  0
  7 11  1  0  0  0  0
  9 15  2  0  0  0  0
 10  2  1  0  0  0  0
 11  4  1  0  0  0  0
 13 10  1  0  0  0  0
 14  9  1  0  0  0  0
 14  2  2  0  0  0  0
 15  6  1  0  0  0  0
 15 12  1  0  0  0  0
 17 10  1  6  0  0  0
 17 18  1  0  0  0  0
 19 18  1  0  0  0  0
 19 16  1  0  0  0  0
 20 19  1  0  0  0  0
 21 20  2  0  0  0  0
 21 17  1  0  0  0  0
 22 24  1  0  0  0  0
 23 22  1  0  0  0  0
 26 25  1  1  0  0  0
 26 23  1  0  0  0  0
 26 27  1  0  0  0  0
 27  3  1  0  0  0  0
 27 24  1  1  0  0  0
M  END
>  <MODEL>
5

>  <REMARK>
 VINA RESULT:      -6.3      3.518      6.911
  Name = 
  2 active torsions:
  status: ('A' for Active; 'I' for Inactive)
    1  A    between atoms: C_3  and  C_26
    2  A    between atoms: C_9  and  N_15
                            x       y       z     vdW  Elec       q    Type
                         _______ _______ _______ _____ _____    ______ ____

>  <TORSDO>
F 2

$$$$
=
 OpenBabel11052418193D

 27 31  0  0  1  0  0  0  0  0999 V2000
  189.5240  174.1890  145.9880 N   0  0  0  0  0  2  0  0  0  0  0  0
  188.7770  175.5440  143.6960 C   0  0  0  0  0  0  0  0  0  0  0  0
  190.4520  174.1070  144.8460 C   0  0  1  0  0  3  0  0  0  0  0  0
  189.1670  172.8340  139.7550 C   0  0  0  0  0  3  0  0  0  0  0  0
  190.4410  170.9420  140.3730 O   0  0  0  0  0  0  0  0  0  0  0  0
  187.9900  175.7430  142.2190 S   0  0  0  0  0  0  0  0  0  0  0  0
  190.6020  172.7520  141.9340 C   0  0  1  0  0  3  0  0  0  0  0  0
  192.0430  173.1600  141.6920 C   0  0  0  0  0  1  0  0  0  0  0  0
  189.7790  173.9560  142.3280 C   0  0  0  0  0  0  0  0  0  0  0  0
  188.3560  176.0600  144.9620 N   0  0  0  0  0  0  0  0  0  0  0  0
  190.0730  172.1060  140.6730 C   0  0  0  0  0  0  0  0  0  0  0  0
  188.6040  173.9900  140.1120 C   0  0  0  0  0  3  0  0  0  0  0  0
  189.0280  175.5680  146.1730 C   0  0  0  0  0  2  0  0  0  0  0  0
  189.7280  174.5460  143.6030 C   0  0  0  0  0  0  0  0  0  0  0  0
  188.8800  174.5410  141.4410 C   0  0  0  0  0  0  0  0  0  0  0  0
  184.8300  178.4350  147.6370 C   0  0  0  0  0  1  0  0  0  0  0  0
  187.4490  177.2010  145.0240 C   0  0  2  0  0  3  0  0  0  0  0  0
  187.4340  177.9160  146.7130 S   0  0  0  0  0  0  0  0  0  0  0  0
  185.6930  177.6720  146.7580 N   0  0  0  0  0  0  0  0  0  0  0  0
  185.2040  177.0590  145.5830 C   0  0  0  0  0  3  0  0  0  0  0  0
  186.0900  176.7910  144.6870 N   0  0  0  0  0  0  0  0  0  0  0  0
  193.7090  175.8450  144.1490 N   0  0  0  0  0  2  0  0  0  0  0  0
  194.0640  175.0410  145.3170 C   0  0  0  0  0  2  0  0  0  0  0  0
  192.2740  175.6850  143.9350 C   0  0  0  0  0  2  0  0  0  0  0  0
  193.0160  172.8900  145.0110 N   0  0  0  0  0  1  0  0  0  0  0  0
  192.8800  174.1750  145.6820 C   0  0  2  0  0  3  0  0  0  0  0  0
  191.7080  174.9590  145.1330 C   0  0  2  0  0  3  0  0  0  0  0  0
  1 13  1  0  0  0  0
  2 10  1  0  0  0  0
  3 14  1  6  0  0  0
  3 27  1  0  0  0  0
  3  1  1  0  0  0  0
  4 12  2  0  0  0  0
  4 11  1  0  0  0  0
  5 11  2  0  0  0  0
  6  2  1  0  0  0  0
  7  8  1  6  0  0  0
  7  9  1  0  0  0  0
  9 14  1  0  0  0  0
 10 13  1  0  0  0  0
 11  7  1  0  0  0  0
 12 15  1  0  0  0  0
 14  2  2  0  0  0  0
 15  6  1  0  0  0  0
 15  9  2  0  0  0  0
 17 10  1  1  0  0  0
 17 18  1  0  0  0  0
 18 19  1  0  0  0  0
 19 16  1  0  0  0  0
 20 19  1  0  0  0  0
 21 17  1  0  0  0  0
 21 20  2  0  0  0  0
 22 23  1  0  0  0  0
 23 26  1  0  0  0  0
 24 22  1  0  0  0  0
 26 25  1  6  0  0  0
 27 24  1  6  0  0  0
 27 26  1  0  0  0  0
M  END
>  <MODEL>
6

>  <REMARK>
 VINA RESULT:      -6.2      3.351      6.343
  Name = 
  2 active torsions:
  status: ('A' for Active; 'I' for Inactive)
    1  A    between atoms: C_3  and  C_26
    2  A    between atoms: C_9  and  N_15
                            x       y       z     vdW  Elec       q    Type
                         _______ _______ _______ _____ _____    ______ ____

>  <TORSDO>
F 2

$$$$
=
 OpenBabel11052418193D

 27 31  0  0  1  0  0  0  0  0999 V2000
  189.3670  175.0300  146.2080 N   0  0  0  0  0  2  0  0  0  0  0  0
  188.9420  174.9110  143.4790 C   0  0  0  0  0  0  0  0  0  0  0  0
  190.5410  174.7150  145.3750 C   0  0  1  0  0  3  0  0  0  0  0  0
  190.8090  170.9560  141.5040 C   0  0  0  0  0  3  0  0  0  0  0  0
  192.2480  170.0180  143.1280 O   0  0  0  0  0  0  0  0  0  0  0  0
  188.5120  174.1760  142.0240 S   0  0  0  0  0  0  0  0  0  0  0  0
  191.6600  172.2980  143.5750 C   0  0  1  0  0  3  0  0  0  0  0  0
  193.0050  172.9540  143.3260 C   0  0  0  0  0  1  0  0  0  0  0  0
  190.5420  173.2480  143.2160 C   0  0  0  0  0  0  0  0  0  0  0  0
  188.1310  175.7960  144.2580 N   0  0  0  0  0  0  0  0  0  0  0  0
  191.5920  171.0260  142.7590 C   0  0  0  0  0  0  0  0  0  0  0  0
  189.9560  171.9260  141.1660 C   0  0  0  0  0  3  0  0  0  0  0  0
  188.5740  176.1290  145.6200 C   0  0  0  0  0  2  0  0  0  0  0  0
  190.0660  174.3080  144.0080 C   0  0  0  0  0  0  0  0  0  0  0  0
  189.7860  173.0730  142.0600 C   0  0  0  0  0  0  0  0  0  0  0  0
  185.3740  179.9950  144.2630 C   0  0  0  0  0  1  0  0  0  0  0  0
  187.0260  176.5180  143.6360 C   0  0  2  0  0  3  0  0  0  0  0  0
  187.4520  178.2900  143.4370 S   0  0  0  0  0  0  0  0  0  0  0  0
  186.0170  178.7000  144.3650 N   0  0  0  0  0  0  0  0  0  0  0  0
  185.3170  177.5550  144.8080 C   0  0  0  0  0  3  0  0  0  0  0  0
  185.8270  176.4240  144.4620 N   0  0  0  0  0  0  0  0  0  0  0  0
  193.4880  176.7910  144.3170 N   0  0  0  0  0  2  0  0  0  0  0  0
  193.6530  176.7890  145.7690 C   0  0  0  0  0  2  0  0  0  0  0  0
  192.2200  176.1290  144.0260 C   0  0  0  0  0  2  0  0  0  0  0  0
  193.1420  174.5510  146.5120 N   0  0  0  0  0  1  0  0  0  0  0  0
  192.5950  175.8930  146.3720 C   0  0  2  0  0  3  0  0  0  0  0  0
  191.4930  175.9300  145.3350 C   0  0  2  0  0  3  0  0  0  0  0  0
  2 14  2  0  0  0  0
  2 10  1  0  0  0  0
  3 14  1  6  0  0  0
  3  1  1  0  0  0  0
  4 11  1  0  0  0  0
  6 15  1  0  0  0  0
  6  2  1  0  0  0  0
  7  8  1  6  0  0  0
  9  7  1  0  0  0  0
  9 14  1  0  0  0  0
 10 13  1  0  0  0  0
 11  5  2  0  0  0  0
 11  7  1  0  0  0  0
 12  4  2  0  0  0  0
 12 15  1  0  0  0  0
 13  1  1  0  0  0  0
 15  9  2  0  0  0  0
 16 19  1  0  0  0  0
 17 10  1  1  0  0  0
 17 21  1  0  0  0  0
 18 17  1  0  0  0  0
 18 19  1  0  0  0  0
 19 20  1  0  0  0  0
 21 20  2  0  0  0  0
 22 23  1  0  0  0  0
 23 26  1  0  0  0  0
 24 22  1  0  0  0  0
 26 25  1  6  0  0  0
 27 24  1  6  0  0  0
 27  3  1  0  0  0  0
 27 26  1  0  0  0  0
M  END
>  <MODEL>
7

>  <REMARK>
 VINA RESULT:      -6.0      3.371      6.447
  Name = 
  2 active torsions:
  status: ('A' for Active; 'I' for Inactive)
    1  A    between atoms: C_3  and  C_26
    2  A    between atoms: C_9  and  N_15
                            x       y       z     vdW  Elec       q    Type
                         _______ _______ _______ _____ _____    ______ ____

>  <TORSDO>
F 2

$$$$
=
 OpenBabel11052418193D

 27 31  0  0  1  0  0  0  0  0999 V2000
  191.9700  177.4910  144.2360 N   0  0  0  0  0  2  0  0  0  0  0  0
  191.7100  174.9610  143.1510 C   0  0  0  0  0  0  0  0  0  0  0  0
  190.6060  176.9340  144.1900 C   0  0  1  0  0  3  0  0  0  0  0  0
  188.1920  174.7150  139.8970 C   0  0  0  0  0  3  0  0  0  0  0  0
  186.9150  176.6880  140.1480 O   0  0  0  0  0  0  0  0  0  0  0  0
  191.5220  173.8350  141.9100 S   0  0  0  0  0  0  0  0  0  0  0  0
  188.3440  176.2310  142.0160 C   0  0  1  0  0  3  0  0  0  0  0  0
  187.2940  175.8830  143.0530 C   0  0  0  0  0  1  0  0  0  0  0  0
  189.6140  175.4570  142.2800 C   0  0  0  0  0  0  0  0  0  0  0  0
  192.9290  175.2940  143.8210 N   0  0  0  0  0  0  0  0  0  0  0  0
  187.7820  175.9250  140.6460 C   0  0  0  0  0  0  0  0  0  0  0  0
  189.2310  173.9770  140.2920 C   0  0  0  0  0  3  0  0  0  0  0  0
  192.9440  176.4780  144.6920 C   0  0  0  0  0  2  0  0  0  0  0  0
  190.5930  175.7690  143.2400 C   0  0  0  0  0  0  0  0  0  0  0  0
  189.9850  174.3790  141.4810 C   0  0  0  0  0  0  0  0  0  0  0  0
  197.1110  173.7910  146.1630 C   0  0  0  0  0  1  0  0  0  0  0  0
  194.0490  174.3590  143.8150 C   0  0  2  0  0  3  0  0  0  0  0  0
  194.3770  173.7420  145.5110 S   0  0  0  0  0  0  0  0  0  0  0  0
  196.0280  174.3260  145.3620 N   0  0  0  0  0  0  0  0  0  0  0  0
  196.2630  174.9670  144.1250 C   0  0  0  0  0  3  0  0  0  0  0  0
  195.2570  175.0120  143.3230 N   0  0  0  0  0  0  0  0  0  0  0  0
  188.5730  175.2280  146.8480 N   0  0  0  0  0  2  0  0  0  0  0  0
  188.4620  176.6250  147.2640 C   0  0  0  0  0  2  0  0  0  0  0  0
  189.5090  175.1840  145.7290 C   0  0  0  0  0  2  0  0  0  0  0  0
  188.1570  177.9160  145.2480 N   0  0  0  0  0  1  0  0  0  0  0  0
  189.1450  177.4900  146.2290 C   0  0  2  0  0  3  0  0  0  0  0  0
  190.1540  176.5450  145.6140 C   0  0  2  0  0  3  0  0  0  0  0  0
  1 13  1  0  0  0  0
  2 14  2  0  0  0  0
  2 10  1  0  0  0  0
  3 14  1  6  0  0  0
  3  1  1  0  0  0  0
  3 27  1  0  0  0  0
  4 12  2  0  0  0  0
  4 11  1  0  0  0  0
  5 11  2  0  0  0  0
  6  2  1  0  0  0  0
  7  9  1  0  0  0  0
  7  8  1  1  0  0  0
  9 14  1  0  0  0  0
 10 13  1  0  0  0  0
 11  7  1  0  0  0  0
 12 15  1  0  0  0  0
 15  6  1  0  0  0  0
 15  9  2  0  0  0  0
 17 10  1  1  0  0  0
 17 18  1  0  0  0  0
 19 18  1  0  0  0  0
 19 16  1  0  0  0  0
 20 19  1  0  0  0  0
 21 17  1  0  0  0  0
 21 20  2  0  0  0  0
 22 23  1  0  0  0  0
 24 22  1  0  0  0  0
 26 25  1  6  0  0  0
 26 23  1  0  0  0  0
 27 24  1  6  0  0  0
 27 26  1  0  0  0  0
M  END
>  <MODEL>
8

>  <REMARK>
 VINA RESULT:      -5.9      3.134      4.300
  Name = 
  2 active torsions:
  status: ('A' for Active; 'I' for Inactive)
    1  A    between atoms: C_3  and  C_26
    2  A    between atoms: C_9  and  N_15
                            x       y       z     vdW  Elec       q    Type
                         _______ _______ _______ _____ _____    ______ ____

>  <TORSDO>
F 2

$$$$
=
 OpenBabel11052418193D

 27 31  0  0  1  0  0  0  0  0999 V2000
  191.5500  173.3910  143.2850 N   0  0  0  0  0  2  0  0  0  0  0  0
  192.9330  175.2120  144.8390 C   0  0  0  0  0  0  0  0  0  0  0  0
  192.9640  173.0780  143.5590 C   0  0  1  0  0  3  0  0  0  0  0  0
  197.1670  176.4130  142.9260 C   0  0  0  0  0  3  0  0  0  0  0  0
  197.5960  174.8360  141.2190 O   0  0  0  0  0  0  0  0  0  0  0  0
  193.8480  176.5970  145.1320 S   0  0  0  0  0  0  0  0  0  0  0  0
  195.8860  174.1450  142.7490 C   0  0  1  0  0  3  0  0  0  0  0  0
  196.6180  173.0130  143.4430 C   0  0  0  0  0  1  0  0  0  0  0  0
  194.9180  174.8030  143.7040 C   0  0  0  0  0  0  0  0  0  0  0  0
  191.5270  175.0570  145.0570 N   0  0  0  0  0  0  0  0  0  0  0  0
  196.9120  175.1290  142.2330 C   0  0  0  0  0  0  0  0  0  0  0  0
  196.3520  176.8530  143.8870 C   0  0  0  0  0  3  0  0  0  0  0  0
  190.8640  173.8690  144.5020 C   0  0  0  0  0  2  0  0  0  0  0  0
  193.6450  174.3230  144.0580 C   0  0  0  0  0  0  0  0  0  0  0  0
  195.1800  176.0550  144.2540 C   0  0  0  0  0  0  0  0  0  0  0  0
  187.0740  176.4850  146.8890 C   0  0  0  0  0  1  0  0  0  0  0  0
  190.8290  175.9340  145.9900 C   0  0  2  0  0  3  0  0  0  0  0  0
  189.4760  175.0260  146.8320 S   0  0  0  0  0  0  0  0  0  0  0  0
  188.3480  176.2380  146.2440 N   0  0  0  0  0  0  0  0  0  0  0  0
  188.9780  177.2170  145.4430 C   0  0  0  0  0  3  0  0  0  0  0  0
  190.2470  177.0710  145.2830 N   0  0  0  0  0  0  0  0  0  0  0  0
  194.5760  170.6100  145.8880 N   0  0  0  0  0  2  0  0  0  0  0  0
  193.8170  169.7170  145.0140 C   0  0  0  0  0  2  0  0  0  0  0  0
  194.2210  171.9770  145.5200 C   0  0  0  0  0  2  0  0  0  0  0  0
  194.0670  170.5780  142.7740 N   0  0  0  0  0  1  0  0  0  0  0  0
  193.1740  170.5440  143.9240 C   0  0  2  0  0  3  0  0  0  0  0  0
  193.0530  171.9090  144.5650 C   0  0  2  0  0  3  0  0  0  0  0  0
  1 13  1  0  0  0  0
  2 10  1  0  0  0  0
  2  6  1  0  0  0  0
  3  1  1  1  0  0  0
  3 14  1  0  0  0  0
  3 27  1  0  0  0  0
  4 12  2  0  0  0  0
  5 11  2  0  0  0  0
  7  8  1  1  0  0  0
  7  9  1  0  0  0  0
  9 14  1  0  0  0  0
  9 15  2  0  0  0  0
 11  7  1  0  0  0  0
 11  4  1  0  0  0  0
 12 15  1  0  0  0  0
 13 10  1  0  0  0  0
 14  2  2  0  0  0  0
 15  6  1  0  0  0  0
 17 10  1  6  0  0  0
 17 18  1  0  0  0  0
 19 18  1  0  0  0  0
 19 16  1  0  0  0  0
 20 19  1  0  0  0  0
 21 20  2  0  0  0  0
 21 17  1  0  0  0  0
 23 22  1  0  0  0  0
 24 22  1  0  0  0  0
 26 25  1  6  0  0  0
 26 27  1  0  0  0  0
 26 23  1  0  0  0  0
 27 24  1  1  0  0  0
M  END
>  <MODEL>
9

>  <REMARK>
 VINA RESULT:      -5.9      4.805      7.900
  Name = 
  2 active torsions:
  status: ('A' for Active; 'I' for Inactive)
    1  A    between atoms: C_3  and  C_26
    2  A    between atoms: C_9  and  N_15
                            x       y       z     vdW  Elec       q    Type
                         _______ _______ _______ _____ _____    ______ ____

>  <TORSDO>
F 2

$$$$
