=
 OpenBabel11052417193D

 30 33  0  0  1  0  0  0  0  0999 V2000
  187.8130  177.4830  141.4730 C   0  0  0  0  0  3  0  0  0  0  0  0
  186.6240  177.8530  140.6070 C   0  0  0  0  0  0  0  0  0  0  0  0
  185.4650  177.1100  145.7680 C   0  0  0  0  0  2  0  0  0  0  0  0
  188.6160  176.9490  143.8250 C   0  0  0  0  0  0  0  0  0  0  0  0
  186.1050  177.0910  147.1630 C   0  0  0  0  0  2  0  0  0  0  0  0
  185.2850  177.9490  141.3400 C   0  0  0  0  0  0  0  0  0  0  0  0
  186.5260  176.9550  139.5600 F   0  0  0  0  0  0  0  0  0  0  0  0
  186.5280  177.2170  144.7220 C   0  0  0  0  0  0  0  0  0  0  0  0
  184.0660  178.2980  140.5640 C   0  0  0  0  0  1  0  0  0  0  0  0
  187.6560  177.3140  142.7820 C   0  0  0  0  0  0  0  0  0  0  0  0
  187.9290  176.8650  144.9690 C   0  0  2  0  0  3  0  0  0  0  0  0
  187.2610  176.0830  147.2360 C   0  0  0  0  0  2  0  0  0  0  0  0
  188.4300  176.4970  146.3310 C   0  0  0  0  0  2  0  0  0  0  0  0
  185.1730  177.7740  142.6650 C   0  0  0  0  0  3  0  0  0  0  0  0
  186.3780  177.4600  143.4290 C   0  0  0  0  0  0  0  0  0  0  0  0
  191.5130  175.6550  142.1490 O   0  0  0  0  0  0  0  0  0  0  0  0
  190.4530  175.5420  142.8250 C   0  0  0  0  0  0  0  0  0  0  0  0
  190.0110  176.6440  143.6390 N   0  0  0  0  0  0  0  0  0  0  0  0
  189.8770  173.3510  143.6930 N   0  0  0  0  0  0  0  0  0  0  0  0
  188.7550  173.9230  141.8120 N   0  0  0  0  0  2  0  0  0  0  0  0
  189.7210  174.2630  142.7990 C   0  0  0  0  0  0  0  0  0  0  0  0
  189.0320  172.2810  143.3950 N   0  0  0  0  0  0  0  0  0  0  0  0
  188.2840  172.5980  142.1870 C   0  0  0  0  0  3  0  0  0  0  0  0
  191.0070  177.5120  144.2550 C   0  0  0  0  0  2  0  0  0  0  0  0
  191.8280  176.7290  145.2670 C   0  0  0  0  0  2  0  0  0  0  0  0
  193.3080  176.8900  144.9740 C   0  0  0  0  0  2  0  0  0  0  0  0
  194.0560  175.8110  145.6020 N   0  0  0  0  0  2  0  0  0  0  0  0
  195.9280  176.0650  144.2280 O   0  0  0  0  0  0  0  0  0  0  0  0
  195.3690  175.4520  145.1760 C   0  0  0  0  0  0  0  0  0  0  0  0
  196.0830  174.3400  145.8560 C   0  0  0  0  0  1  0  0  0  0  0  0
  1 10  1  0  0  0  0
  2  6  1  0  0  0  0
  2  1  2  0  0  0  0
  3  5  1  0  0  0  0
  4 11  1  0  0  0  0
  5 12  1  0  0  0  0
  6 14  2  0  0  0  0
  7  2  1  0  0  0  0
  8 11  1  0  0  0  0
  8  3  1  0  0  0  0
  9  6  1  0  0  0  0
 10 15  1  0  0  0  0
 10  4  2  0  0  0  0
 11 13  1  1  0  0  0
 13 12  1  0  0  0  0
 14 15  1  0  0  0  0
 15  8  2  0  0  0  0
 16 17  2  0  0  0  0
 17 18  1  0  0  0  0
 18  4  1  0  0  0  0
 18 24  1  0  0  0  0
 20 23  1  0  0  0  0
 20 21  1  0  0  0  0
 21 17  1  0  0  0  0
 21 19  2  0  0  0  0
 22 19  1  0  0  0  0
 23 22  2  0  0  0  0
 24 25  1  0  0  0  0
 26 25  1  0  0  0  0
 26 27  1  0  0  0  0
 28 29  2  0  0  0  0
 29 27  1  0  0  0  0
 29 30  1  0  0  0  0
M  END
>  <MODEL>
1

>  <REMARK>
 VINA RESULT:      -7.5      0.000      0.000
  Name = 
  6 active torsions:
  status: ('A' for Active; 'I' for Inactive)
    1  A    between atoms: C_4  and  N_13
    2  A    between atoms: N_7  and  C_16
    3  A    between atoms: C_8  and  C_12
    4  A    between atoms: N_13  and  C_27
    5  A    between atoms: C_16  and  C_30
    6  A    between atoms: C_27  and  C_30
                            x       y       z     vdW  Elec       q    Type
                         _______ _______ _______ _____ _____    ______ ____

>  <TORSDO>
F 6

$$$$
=
 OpenBabel11052417193D

 30 33  0  0  1  0  0  0  0  0999 V2000
  187.7530  177.3680  143.5110 C   0  0  0  0  0  3  0  0  0  0  0  0
  187.2050  177.8240  142.1720 C   0  0  0  0  0  0  0  0  0  0  0  0
  189.3450  172.9310  142.1430 C   0  0  0  0  0  2  0  0  0  0  0  0
  188.8700  175.4780  144.7920 C   0  0  0  0  0  0  0  0  0  0  0  0
  189.7150  171.7650  143.0700 C   0  0  0  0  0  2  0  0  0  0  0  0
  187.3560  176.8210  141.0270 C   0  0  0  0  0  0  0  0  0  0  0  0
  187.7920  179.0280  141.8250 F   0  0  0  0  0  0  0  0  0  0  0  0
  188.9250  174.1130  142.9560 C   0  0  0  0  0  0  0  0  0  0  0  0
  186.8540  177.1920  139.6770 C   0  0  0  0  0  1  0  0  0  0  0  0
  188.2720  176.1510  143.6380 C   0  0  0  0  0  0  0  0  0  0  0  0
  189.2810  174.2790  144.3670 C   0  0  2  0  0  3  0  0  0  0  0  0
  190.6660  172.2170  144.1880 C   0  0  0  0  0  2  0  0  0  0  0  0
  189.9840  173.2080  145.1430 C   0  0  0  0  0  2  0  0  0  0  0  0
  187.8840  175.6010  141.2000 C   0  0  0  0  0  3  0  0  0  0  0  0
  188.3490  175.2280  142.5340 C   0  0  0  0  0  0  0  0  0  0  0  0
  190.0380  177.8360  147.2310 O   0  0  0  0  0  0  0  0  0  0  0  0
  190.1880  176.8820  146.4190 C   0  0  0  0  0  0  0  0  0  0  0  0
  189.0660  176.0370  146.1040 N   0  0  0  0  0  0  0  0  0  0  0  0
  192.3990  175.8830  146.4270 N   0  0  0  0  0  0  0  0  0  0  0  0
  191.9660  177.1530  144.6040 N   0  0  0  0  0  2  0  0  0  0  0  0
  191.5240  176.6300  145.8500 C   0  0  0  0  0  0  0  0  0  0  0  0
  193.5420  175.8330  145.6290 N   0  0  0  0  0  0  0  0  0  0  0  0
  193.3180  176.6390  144.4380 C   0  0  0  0  0  3  0  0  0  0  0  0
  188.0660  175.7770  147.1320 C   0  0  0  0  0  2  0  0  0  0  0  0
  186.7200  176.3410  146.7070 C   0  0  0  0  0  2  0  0  0  0  0  0
  186.5440  177.7440  147.2560 C   0  0  0  0  0  2  0  0  0  0  0  0
  186.3940  178.6890  146.1600 N   0  0  0  0  0  2  0  0  0  0  0  0
  184.0880  178.3730  145.9620 O   0  0  0  0  0  0  0  0  0  0  0  0
  185.1290  178.9560  145.5570 C   0  0  0  0  0  0  0  0  0  0  0  0
  185.0390  179.9310  144.4400 C   0  0  0  0  0  1  0  0  0  0  0  0
  1 10  1  0  0  0  0
  2  1  2  0  0  0  0
  3  8  1  0  0  0  0
  3  5  1  0  0  0  0
  4 18  1  0  0  0  0
  5 12  1  0  0  0  0
  6 14  2  0  0  0  0
  6  2  1  0  0  0  0
  7  2  1  0  0  0  0
  8 11  1  0  0  0  0
  9  6  1  0  0  0  0
 10  4  2  0  0  0  0
 11  4  1  0  0  0  0
 11 13  1  1  0  0  0
 12 13  1  0  0  0  0
 14 15  1  0  0  0  0
 15  8  2  0  0  0  0
 15 10  1  0  0  0  0
 17 16  2  0  0  0  0
 18 17  1  0  0  0  0
 18 24  1  0  0  0  0
 20 21  1  0  0  0  0
 21 17  1  0  0  0  0
 21 19  2  0  0  0  0
 22 19  1  0  0  0  0
 23 20  1  0  0  0  0
 23 22  2  0  0  0  0
 25 24  1  0  0  0  0
 25 26  1  0  0  0  0
 27 26  1  0  0  0  0
 29 28  2  0  0  0  0
 29 27  1  0  0  0  0
 30 29  1  0  0  0  0
M  END
>  <MODEL>
2

>  <REMARK>
 VINA RESULT:      -7.4      2.713      5.886
  Name = 
  6 active torsions:
  status: ('A' for Active; 'I' for Inactive)
    1  A    between atoms: C_4  and  N_13
    2  A    between atoms: N_7  and  C_16
    3  A    between atoms: C_8  and  C_12
    4  A    between atoms: N_13  and  C_27
    5  A    between atoms: C_16  and  C_30
    6  A    between atoms: C_27  and  C_30
                            x       y       z     vdW  Elec       q    Type
                         _______ _______ _______ _____ _____    ______ ____

>  <TORSDO>
F 6

$$$$
=
 OpenBabel11052417193D

 30 33  0  0  1  0  0  0  0  0999 V2000
  188.7960  177.1870  142.2050 C   0  0  0  0  0  3  0  0  0  0  0  0
  187.4430  177.8670  142.1160 C   0  0  0  0  0  0  0  0  0  0  0  0
  189.3740  177.4050  147.0750 C   0  0  0  0  0  2  0  0  0  0  0  0
  190.6750  176.4370  143.7440 C   0  0  0  0  0  0  0  0  0  0  0  0
  190.6820  177.2030  147.8520 C   0  0  0  0  0  2  0  0  0  0  0  0
  186.8430  178.3060  143.4530 C   0  0  0  0  0  0  0  0  0  0  0  0
  186.5590  177.0370  141.4500 F   0  0  0  0  0  0  0  0  0  0  0  0
  189.6210  177.2380  145.6100 C   0  0  0  0  0  0  0  0  0  0  0  0
  185.5130  178.9720  143.4580 C   0  0  0  0  0  1  0  0  0  0  0  0
  189.3980  177.0530  143.3830 C   0  0  0  0  0  0  0  0  0  0  0  0
  190.7840  176.5260  145.0730 C   0  0  2  0  0  3  0  0  0  0  0  0
  191.4070  175.9250  147.4080 C   0  0  0  0  0  2  0  0  0  0  0  0
  191.8880  176.0250  145.9530 C   0  0  0  0  0  2  0  0  0  0  0  0
  187.4860  178.1530  144.6190 C   0  0  0  0  0  3  0  0  0  0  0  0
  188.8050  177.5250  144.6080 C   0  0  0  0  0  0  0  0  0  0  0  0
  191.6820  174.3580  140.9980 O   0  0  0  0  0  0  0  0  0  0  0  0
  191.2510  174.5560  142.1670 C   0  0  0  0  0  0  0  0  0  0  0  0
  191.5910  175.7760  142.8510 N   0  0  0  0  0  0  0  0  0  0  0  0
  189.4060  172.9840  142.2740 N   0  0  0  0  0  0  0  0  0  0  0  0
  190.7560  172.9480  144.0910 N   0  0  0  0  0  0  0  0  0  0  0  0
  190.4470  173.5070  142.8200 C   0  0  0  0  0  0  0  0  0  0  0  0
  188.8890  172.0140  143.1340 N   0  0  0  0  0  2  0  0  0  0  0  0
  189.7220  171.9520  144.3250 C   0  0  0  0  0  3  0  0  0  0  0  0
  192.8870  176.3920  142.5950 C   0  0  0  0  0  2  0  0  0  0  0  0
  194.0040  175.4070  142.9010 C   0  0  0  0  0  2  0  0  0  0  0  0
  195.1110  176.0970  143.6770 C   0  0  0  0  0  2  0  0  0  0  0  0
  196.0420  175.1070  144.1960 N   0  0  0  0  0  2  0  0  0  0  0  0
  195.1670  175.1530  146.3620 O   0  0  0  0  0  0  0  0  0  0  0  0
  196.0120  174.6790  145.5560 C   0  0  0  0  0  0  0  0  0  0  0  0
  196.9890  173.6640  146.0290 C   0  0  0  0  0  1  0  0  0  0  0  0
  1 10  1  0  0  0  0
  2  1  2  0  0  0  0
  2  6  1  0  0  0  0
  3  5  1  0  0  0  0
  4 11  1  0  0  0  0
  6  9  1  0  0  0  0
  6 14  2  0  0  0  0
  7  2  1  0  0  0  0
  8  3  1  0  0  0  0
 10  4  2  0  0  0  0
 10 15  1  0  0  0  0
 11  8  1  0  0  0  0
 11 13  1  6  0  0  0
 12  5  1  0  0  0  0
 13 12  1  0  0  0  0
 15 14  1  0  0  0  0
 15  8  2  0  0  0  0
 16 17  2  0  0  0  0
 17 21  1  0  0  0  0
 17 18  1  0  0  0  0
 18  4  1  0  0  0  0
 19 21  2  0  0  0  0
 19 22  1  0  0  0  0
 20 23  2  0  0  0  0
 21 20  1  0  0  0  0
 22 23  1  0  0  0  0
 24 18  1  0  0  0  0
 24 25  1  0  0  0  0
 25 26  1  0  0  0  0
 26 27  1  0  0  0  0
 27 29  1  0  0  0  0
 29 30  1  0  0  0  0
 29 28  2  0  0  0  0
M  END
>  <MODEL>
3

>  <REMARK>
 VINA RESULT:      -7.1      1.771      2.628
  Name = 
  6 active torsions:
  status: ('A' for Active; 'I' for Inactive)
    1  A    between atoms: C_4  and  N_13
    2  A    between atoms: N_7  and  C_16
    3  A    between atoms: C_8  and  C_12
    4  A    between atoms: N_13  and  C_27
    5  A    between atoms: C_16  and  C_30
    6  A    between atoms: C_27  and  C_30
                            x       y       z     vdW  Elec       q    Type
                         _______ _______ _______ _____ _____    ______ ____

>  <TORSDO>
F 6

$$$$
=
 OpenBabel11052417193D

 30 33  0  0  1  0  0  0  0  0999 V2000
  192.6430  175.7660  142.1470 C   0  0  0  0  0  3  0  0  0  0  0  0
  194.1550  175.8740  142.0930 C   0  0  0  0  0  0  0  0  0  0  0  0
  192.1140  175.7450  147.0270 C   0  0  0  0  0  2  0  0  0  0  0  0
  190.6000  175.5860  143.6490 C   0  0  0  0  0  0  0  0  0  0  0  0
  190.8660  175.3180  147.8110 C   0  0  0  0  0  2  0  0  0  0  0  0
  194.8560  175.9350  143.4510 C   0  0  0  0  0  0  0  0  0  0  0  0
  194.5070  176.9730  141.3300 F   0  0  0  0  0  0  0  0  0  0  0  0
  191.8590  175.6210  145.5590 C   0  0  0  0  0  0  0  0  0  0  0  0
  196.3380  176.0510  143.4900 C   0  0  0  0  0  1  0  0  0  0  0  0
  192.0230  175.6830  143.3200 C   0  0  0  0  0  0  0  0  0  0  0  0
  190.5130  175.5800  144.9830 C   0  0  2  0  0  3  0  0  0  0  0  0
  189.6000  175.9920  147.2620 C   0  0  0  0  0  2  0  0  0  0  0  0
  189.2830  175.5220  145.8350 C   0  0  0  0  0  2  0  0  0  0  0  0
  194.1900  175.8450  144.6120 C   0  0  0  0  0  3  0  0  0  0  0  0
  192.7370  175.7020  144.5700 C   0  0  0  0  0  0  0  0  0  0  0  0
  187.5530  174.4480  142.1350 O   0  0  0  0  0  0  0  0  0  0  0  0
  188.7940  174.3940  142.3560 C   0  0  0  0  0  0  0  0  0  0  0  0
  189.5020  175.5940  142.7180 N   0  0  0  0  0  0  0  0  0  0  0  0
  189.3210  172.1110  142.9860 N   0  0  0  0  0  0  0  0  0  0  0  0
  190.3970  172.8290  141.1270 N   0  0  0  0  0  2  0  0  0  0  0  0
  189.4940  173.1070  142.1900 C   0  0  0  0  0  0  0  0  0  0  0  0
  190.1080  171.0450  142.5460 N   0  0  0  0  0  0  0  0  0  0  0  0
  190.8260  171.4560  141.3490 C   0  0  0  0  0  3  0  0  0  0  0  0
  189.0630  176.8680  142.1630 C   0  0  0  0  0  2  0  0  0  0  0  0
  188.4310  177.7210  143.2510 C   0  0  0  0  0  2  0  0  0  0  0  0
  186.9220  177.7290  143.0990 C   0  0  0  0  0  2  0  0  0  0  0  0
  186.3110  176.9920  144.1960 N   0  0  0  0  0  2  0  0  0  0  0  0
  185.9250  178.8930  145.4980 O   0  0  0  0  0  0  0  0  0  0  0  0
  185.8320  177.6430  145.3710 C   0  0  0  0  0  0  0  0  0  0  0  0
  185.2180  176.8370  146.4580 C   0  0  0  0  0  1  0  0  0  0  0  0
  1 10  1  0  0  0  0
  2  1  2  0  0  0  0
  2  6  1  0  0  0  0
  3  5  1  0  0  0  0
  4 11  1  0  0  0  0
  6  9  1  0  0  0  0
  6 14  2  0  0  0  0
  7  2  1  0  0  0  0
  8  3  1  0  0  0  0
 10  4  2  0  0  0  0
 10 15  1  0  0  0  0
 11  8  1  0  0  0  0
 11 13  1  6  0  0  0
 12  5  1  0  0  0  0
 13 12  1  0  0  0  0
 15 14  1  0  0  0  0
 15  8  2  0  0  0  0
 16 17  2  0  0  0  0
 17 18  1  0  0  0  0
 18  4  1  0  0  0  0
 20 23  1  0  0  0  0
 20 21  1  0  0  0  0
 21 17  1  0  0  0  0
 21 19  2  0  0  0  0
 22 19  1  0  0  0  0
 23 22  2  0  0  0  0
 24 18  1  0  0  0  0
 24 25  1  0  0  0  0
 26 25  1  0  0  0  0
 26 27  1  0  0  0  0
 27 29  1  0  0  0  0
 29 28  2  0  0  0  0
 29 30  1  0  0  0  0
M  END
>  <MODEL>
4

>  <REMARK>
 VINA RESULT:      -7.0      2.992      6.354
  Name = 
  6 active torsions:
  status: ('A' for Active; 'I' for Inactive)
    1  A    between atoms: C_4  and  N_13
    2  A    between atoms: N_7  and  C_16
    3  A    between atoms: C_8  and  C_12
    4  A    between atoms: N_13  and  C_27
    5  A    between atoms: C_16  and  C_30
    6  A    between atoms: C_27  and  C_30
                            x       y       z     vdW  Elec       q    Type
                         _______ _______ _______ _____ _____    ______ ____

>  <TORSDO>
F 6

$$$$
=
 OpenBabel11052417193D

 30 33  0  0  1  0  0  0  0  0999 V2000
  193.1970  174.8940  142.3260 C   0  0  0  0  0  3  0  0  0  0  0  0
  194.5800  175.5100  142.2350 C   0  0  0  0  0  0  0  0  0  0  0  0
  192.2820  175.9200  147.0390 C   0  0  0  0  0  2  0  0  0  0  0  0
  191.2160  174.3900  143.8370 C   0  0  0  0  0  0  0  0  0  0  0  0
  191.1910  175.2930  147.9180 C   0  0  0  0  0  2  0  0  0  0  0  0
  195.0960  176.1540  143.5230 C   0  0  0  0  0  0  0  0  0  0  0  0
  194.6010  176.4310  141.2040 F   0  0  0  0  0  0  0  0  0  0  0  0
  192.2150  175.3480  145.6590 C   0  0  0  0  0  0  0  0  0  0  0  0
  196.4400  176.7910  143.5180 C   0  0  0  0  0  1  0  0  0  0  0  0
  192.5430  174.8970  143.4840 C   0  0  0  0  0  0  0  0  0  0  0  0
  191.0200  174.6910  145.1250 C   0  0  2  0  0  3  0  0  0  0  0  0
  189.8250  175.3170  147.2180 C   0  0  0  0  0  2  0  0  0  0  0  0
  189.8130  174.4210  145.9700 C   0  0  0  0  0  2  0  0  0  0  0  0
  194.4030  176.1320  144.6700 C   0  0  0  0  0  3  0  0  0  0  0  0
  193.0950  175.4800  144.6790 C   0  0  0  0  0  0  0  0  0  0  0  0
  188.8750  171.9160  142.7090 O   0  0  0  0  0  0  0  0  0  0  0  0
  190.0370  172.3550  142.9300 C   0  0  0  0  0  0  0  0  0  0  0  0
  190.2670  173.7760  142.9460 N   0  0  0  0  0  0  0  0  0  0  0  0
  191.6790  171.1660  144.2630 N   0  0  0  0  0  0  0  0  0  0  0  0
  191.6940  170.6110  142.0680 N   0  0  0  0  0  2  0  0  0  0  0  0
  191.1410  171.3960  143.1170 C   0  0  0  0  0  0  0  0  0  0  0  0
  192.6740  170.2000  144.1050 N   0  0  0  0  0  0  0  0  0  0  0  0
  192.7280  169.8070  142.7050 C   0  0  0  0  0  3  0  0  0  0  0  0
  189.4770  174.6290  142.0670 C   0  0  0  0  0  2  0  0  0  0  0  0
  188.3180  175.2430  142.8370 C   0  0  0  0  0  2  0  0  0  0  0  0
  188.1910  176.7170  142.5020 C   0  0  0  0  0  2  0  0  0  0  0  0
  189.4900  177.3630  142.6100 N   0  0  0  0  0  2  0  0  0  0  0  0
  189.2550  177.8630  144.8800 O   0  0  0  0  0  0  0  0  0  0  0  0
  189.9610  177.9160  143.8370 C   0  0  0  0  0  0  0  0  0  0  0  0
  191.2970  178.5640  143.8860 C   0  0  0  0  0  1  0  0  0  0  0  0
  1 10  1  0  0  0  0
  2  1  2  0  0  0  0
  2  6  1  0  0  0  0
  3  5  1  0  0  0  0
  4 11  1  0  0  0  0
  6 14  2  0  0  0  0
  7  2  1  0  0  0  0
  8  3  1  0  0  0  0
  9  6  1  0  0  0  0
 10  4  2  0  0  0  0
 10 15  1  0  0  0  0
 11  8  1  0  0  0  0
 11 13  1  1  0  0  0
 12  5  1  0  0  0  0
 13 12  1  0  0  0  0
 14 15  1  0  0  0  0
 15  8  2  0  0  0  0
 16 17  2  0  0  0  0
 17 18  1  0  0  0  0
 17 21  1  0  0  0  0
 18  4  1  0  0  0  0
 20 23  1  0  0  0  0
 20 21  1  0  0  0  0
 21 19  2  0  0  0  0
 22 19  1  0  0  0  0
 23 22  2  0  0  0  0
 24 25  1  0  0  0  0
 24 18  1  0  0  0  0
 26 27  1  0  0  0  0
 26 25  1  0  0  0  0
 27 29  1  0  0  0  0
 29 30  1  0  0  0  0
 29 28  2  0  0  0  0
M  END
>  <MODEL>
5

>  <REMARK>
 VINA RESULT:      -6.9      3.230      6.135
  Name = 
  6 active torsions:
  status: ('A' for Active; 'I' for Inactive)
    1  A    between atoms: C_4  and  N_13
    2  A    between atoms: N_7  and  C_16
    3  A    between atoms: C_8  and  C_12
    4  A    between atoms: N_13  and  C_27
    5  A    between atoms: C_16  and  C_30
    6  A    between atoms: C_27  and  C_30
                            x       y       z     vdW  Elec       q    Type
                         _______ _______ _______ _____ _____    ______ ____

>  <TORSDO>
F 6

$$$$
=
 OpenBabel11052417193D

 30 33  0  0  1  0  0  0  0  0999 V2000
  189.7530  177.1050  143.2180 C   0  0  0  0  0  3  0  0  0  0  0  0
  188.6500  177.6870  142.3550 C   0  0  0  0  0  0  0  0  0  0  0  0
  189.4490  172.4470  141.7010 C   0  0  0  0  0  2  0  0  0  0  0  0
  191.0160  175.0010  143.8800 C   0  0  0  0  0  0  0  0  0  0  0  0
  190.0460  171.2160  142.3960 C   0  0  0  0  0  2  0  0  0  0  0  0
  187.9470  176.6910  141.4320 C   0  0  0  0  0  0  0  0  0  0  0  0
  189.1580  178.7400  141.6150 F   0  0  0  0  0  0  0  0  0  0  0  0
  189.7830  173.6810  142.4750 C   0  0  0  0  0  0  0  0  0  0  0  0
  186.8590  177.1790  140.5440 C   0  0  0  0  0  1  0  0  0  0  0  0
  190.0160  175.8030  143.1740 C   0  0  0  0  0  0  0  0  0  0  0  0
  190.8880  173.7470  143.4350 C   0  0  2  0  0  3  0  0  0  0  0  0
  191.5230  171.4360  142.7570 C   0  0  0  0  0  2  0  0  0  0  0  0
  191.6880  172.5380  143.8140 C   0  0  0  0  0  2  0  0  0  0  0  0
  188.2420  175.3820  141.4220 C   0  0  0  0  0  3  0  0  0  0  0  0
  189.2920  174.9000  142.3170 C   0  0  0  0  0  0  0  0  0  0  0  0
  193.6800  177.0980  145.0540 O   0  0  0  0  0  0  0  0  0  0  0  0
  193.2040  176.1580  144.3600 C   0  0  0  0  0  0  0  0  0  0  0  0
  192.0100  175.4860  144.8020 N   0  0  0  0  0  0  0  0  0  0  0  0
  194.6850  174.7130  143.0940 N   0  0  0  0  0  0  0  0  0  0  0  0
  193.7920  176.4070  141.8860 N   0  0  0  0  0  0  0  0  0  0  0  0
  193.9130  175.7410  143.1380 C   0  0  0  0  0  0  0  0  0  0  0  0
  195.1820  174.5810  141.7970 N   0  0  0  0  0  2  0  0  0  0  0  0
  194.6390  175.6510  140.9750 C   0  0  0  0  0  3  0  0  0  0  0  0
  191.7710  175.3350  146.2320 C   0  0  0  0  0  2  0  0  0  0  0  0
  190.7280  176.3380  146.6970 C   0  0  0  0  0  2  0  0  0  0  0  0
  189.5090  175.6120  147.2370 C   0  0  0  0  0  2  0  0  0  0  0  0
  188.4180  175.6980  146.2780 N   0  0  0  0  0  2  0  0  0  0  0  0
  187.5990  177.7190  147.1180 O   0  0  0  0  0  0  0  0  0  0  0  0
  187.4960  176.7870  146.2760 C   0  0  0  0  0  0  0  0  0  0  0  0
  186.4010  176.8200  145.2730 C   0  0  0  0  0  1  0  0  0  0  0  0
  2  1  2  0  0  0  0
  3  5  1  0  0  0  0
  3  8  1  0  0  0  0
  4 18  1  0  0  0  0
  5 12  1  0  0  0  0
  6  2  1  0  0  0  0
  7  2  1  0  0  0  0
  8 11  1  0  0  0  0
  9  6  1  0  0  0  0
 10  1  1  0  0  0  0
 10  4  2  0  0  0  0
 11 13  1  1  0  0  0
 11  4  1  0  0  0  0
 12 13  1  0  0  0  0
 14  6  2  0  0  0  0
 14 15  1  0  0  0  0
 15  8  2  0  0  0  0
 15 10  1  0  0  0  0
 17 18  1  0  0  0  0
 17 16  2  0  0  0  0
 18 24  1  0  0  0  0
 19 21  2  0  0  0  0
 20 21  1  0  0  0  0
 21 17  1  0  0  0  0
 22 19  1  0  0  0  0
 23 22  1  0  0  0  0
 23 20  2  0  0  0  0
 24 25  1  0  0  0  0
 25 26  1  0  0  0  0
 27 26  1  0  0  0  0
 29 27  1  0  0  0  0
 29 28  2  0  0  0  0
 30 29  1  0  0  0  0
M  END
>  <MODEL>
6

>  <REMARK>
 VINA RESULT:      -6.8      2.548      5.424
  Name = 
  6 active torsions:
  status: ('A' for Active; 'I' for Inactive)
    1  A    between atoms: C_4  and  N_13
    2  A    between atoms: N_7  and  C_16
    3  A    between atoms: C_8  and  C_12
    4  A    between atoms: N_13  and  C_27
    5  A    between atoms: C_16  and  C_30
    6  A    between atoms: C_27  and  C_30
                            x       y       z     vdW  Elec       q    Type
                         _______ _______ _______ _____ _____    ______ ____

>  <TORSDO>
F 6

$$$$
=
 OpenBabel11052417193D

 30 33  0  0  1  0  0  0  0  0999 V2000
  188.9860  176.8770  145.8240 C   0  0  0  0  0  3  0  0  0  0  0  0
  188.2190  177.1870  147.0950 C   0  0  2  0  0  3  0  0  0  0  0  0
  185.4160  177.8390  142.5960 C   0  0  0  0  0  2  0  0  0  0  0  0
  188.8840  176.7330  143.2890 C   0  0  0  0  0  0  0  0  0  0  0  0
  185.3770  177.4160  141.1200 C   0  0  0  0  0  2  0  0  0  0  0  0
  186.7730  177.6420  146.8920 C   0  0  0  0  0  0  0  0  0  0  0  0
  188.9140  178.1330  147.8270 F   0  0  0  0  0  0  0  0  0  0  0  0
  186.6860  177.3640  143.2270 C   0  0  0  0  0  0  0  0  0  0  0  0
  185.9510  177.9770  148.0850 C   0  0  0  0  0  1  0  0  0  0  0  0
  188.3810  176.9610  144.6440 C   0  0  0  0  0  0  0  0  0  0  0  0
  187.8760  177.0040  142.4530 C   0  0  0  0  0  0  0  0  0  0  0  0
  186.6880  177.7650  140.4020 C   0  0  0  0  0  2  0  0  0  0  0  0
  187.8700  176.9560  140.9560 C   0  0  0  0  0  2  0  0  0  0  0  0
  186.2000  177.7110  145.6810 C   0  0  0  0  0  3  0  0  0  0  0  0
  187.0010  177.3540  144.5130 C   0  0  0  0  0  0  0  0  0  0  0  0
  191.4720  174.8820  141.6310 O   0  0  0  0  0  0  0  0  0  0  0  0
  190.5920  175.0460  142.5200 C   0  0  0  0  0  0  0  0  0  0  0  0
  190.2310  176.3800  142.9210 N   0  0  0  0  0  0  0  0  0  0  0  0
  189.2260  173.0410  142.5300 N   0  0  0  0  0  0  0  0  0  0  0  0
  190.2220  173.4900  144.5130 N   0  0  0  0  0  0  0  0  0  0  0  0
  189.9920  173.8610  143.1590 C   0  0  0  0  0  0  0  0  0  0  0  0
  188.8430  172.0240  143.4060 N   0  0  0  0  0  2  0  0  0  0  0  0
  189.4570  172.2660  144.7030 C   0  0  0  0  0  3  0  0  0  0  0  0
  191.2490  177.4230  142.9080 C   0  0  0  0  0  2  0  0  0  0  0  0
  192.0060  177.4310  144.2270 C   0  0  0  0  0  2  0  0  0  0  0  0
  193.3000  176.6500  144.0910 C   0  0  0  0  0  2  0  0  0  0  0  0
  193.2640  175.4800  144.9560 N   0  0  0  0  0  2  0  0  0  0  0  0
  194.2550  174.0630  143.3840 O   0  0  0  0  0  0  0  0  0  0  0  0
  193.7620  174.2110  144.5350 C   0  0  0  0  0  0  0  0  0  0  0  0
  193.6980  173.0520  145.4620 C   0  0  0  0  0  1  0  0  0  0  0  0
  1  2  1  0  0  0  0
  2  7  1  6  0  0  0
  3  8  1  0  0  0  0
  4 10  1  0  0  0  0
  5  3  1  0  0  0  0
  6  2  1  0  0  0  0
  6  9  1  0  0  0  0
  8 15  2  0  0  0  0
 10  1  2  0  0  0  0
 11  8  1  0  0  0  0
 11  4  2  0  0  0  0
 12 13  1  0  0  0  0
 12  5  1  0  0  0  0
 13 11  1  0  0  0  0
 14  6  2  0  0  0  0
 15 10  1  0  0  0  0
 15 14  1  0  0  0  0
 16 17  2  0  0  0  0
 17 18  1  0  0  0  0
 17 21  1  0  0  0  0
 18  4  1  0  0  0  0
 19 21  2  0  0  0  0
 19 22  1  0  0  0  0
 20 23  2  0  0  0  0
 21 20  1  0  0  0  0
 22 23  1  0  0  0  0
 24 18  1  0  0  0  0
 24 25  1  0  0  0  0
 26 25  1  0  0  0  0
 26 27  1  0  0  0  0
 28 29  2  0  0  0  0
 29 27  1  0  0  0  0
 29 30  1  0  0  0  0
M  END
>  <MODEL>
7

>  <REMARK>
 VINA RESULT:      -6.8      1.997      3.800
  Name = 
  6 active torsions:
  status: ('A' for Active; 'I' for Inactive)
    1  A    between atoms: C_4  and  N_13
    2  A    between atoms: N_7  and  C_16
    3  A    between atoms: C_8  and  C_12
    4  A    between atoms: N_13  and  C_27
    5  A    between atoms: C_16  and  C_30
    6  A    between atoms: C_27  and  C_30
                            x       y       z     vdW  Elec       q    Type
                         _______ _______ _______ _____ _____    ______ ____

>  <TORSDO>
F 6

$$$$
=
 OpenBabel11052417193D

 30 33  0  0  1  0  0  0  0  0999 V2000
  189.3910  174.8240  145.5680 C   0  0  0  0  0  3  0  0  0  0  0  0
  189.5900  175.4870  146.9180 C   0  0  2  0  0  3  0  0  0  0  0  0
  193.6740  176.0860  143.5290 C   0  0  0  0  0  2  0  0  0  0  0  0
  190.3850  174.4000  143.2670 C   0  0  0  0  0  0  0  0  0  0  0  0
  194.0270  176.0410  142.0360 C   0  0  0  0  0  2  0  0  0  0  0  0
  190.9230  176.2130  147.1000 C   0  0  0  0  0  0  0  0  0  0  0  0
  189.4250  174.5440  147.9170 F   0  0  0  0  0  0  0  0  0  0  0  0
  192.2750  175.6020  143.7370 C   0  0  0  0  0  0  0  0  0  0  0  0
  191.2040  176.8830  148.3980 C   0  0  0  0  0  1  0  0  0  0  0  0
  190.3220  174.9400  144.6260 C   0  0  0  0  0  0  0  0  0  0  0  0
  191.5640  174.7750  142.7590 C   0  0  0  0  0  0  0  0  0  0  0  0
  193.6570  174.6870  141.4130 C   0  0  0  0  0  2  0  0  0  0  0  0
  192.1370  174.4620  141.4110 C   0  0  0  0  0  2  0  0  0  0  0  0
  191.8340  176.3090  146.1210 C   0  0  0  0  0  3  0  0  0  0  0  0
  191.5420  175.6750  144.8370 C   0  0  0  0  0  0  0  0  0  0  0  0
  188.0830  173.3430  140.7270 O   0  0  0  0  0  0  0  0  0  0  0  0
  188.4360  174.0560  141.7060 C   0  0  0  0  0  0  0  0  0  0  0  0
  189.4100  173.5490  142.6360 N   0  0  0  0  0  0  0  0  0  0  0  0
  188.1780  176.4270  141.2630 N   0  0  0  0  0  0  0  0  0  0  0  0
  186.7020  175.6040  142.7690 N   0  0  0  0  0  0  0  0  0  0  0  0
  187.8030  175.3730  141.8970 C   0  0  0  0  0  0  0  0  0  0  0  0
  187.3700  177.4960  141.6520 N   0  0  0  0  0  2  0  0  0  0  0  0
  186.4000  177.0200  142.6270 C   0  0  0  0  0  3  0  0  0  0  0  0
  189.4470  172.1180  142.9120 C   0  0  0  0  0  2  0  0  0  0  0  0
  190.4410  171.4330  141.9880 C   0  0  0  0  0  2  0  0  0  0  0  0
  191.4130  170.5940  142.7960 C   0  0  0  0  0  2  0  0  0  0  0  0
  191.8580  171.3400  143.9630 N   0  0  0  0  0  2  0  0  0  0  0  0
  194.0360  171.6330  143.1700 O   0  0  0  0  0  0  0  0  0  0  0  0
  193.1920  171.8330  144.0830 C   0  0  0  0  0  0  0  0  0  0  0  0
  193.5890  172.5890  145.3000 C   0  0  0  0  0  1  0  0  0  0  0  0
  1  2  1  0  0  0  0
  2  6  1  0  0  0  0
  2  7  1  1  0  0  0
  3  8  1  0  0  0  0
  4 10  1  0  0  0  0
  5  3  1  0  0  0  0
  6  9  1  0  0  0  0
  8 15  2  0  0  0  0
 10 15  1  0  0  0  0
 10  1  2  0  0  0  0
 11  4  2  0  0  0  0
 11  8  1  0  0  0  0
 12  5  1  0  0  0  0
 13 12  1  0  0  0  0
 13 11  1  0  0  0  0
 14  6  2  0  0  0  0
 15 14  1  0  0  0  0
 16 17  2  0  0  0  0
 17 21  1  0  0  0  0
 17 18  1  0  0  0  0
 18 24  1  0  0  0  0
 18  4  1  0  0  0  0
 19 22  1  0  0  0  0
 19 21  2  0  0  0  0
 21 20  1  0  0  0  0
 22 23  1  0  0  0  0
 23 20  2  0  0  0  0
 25 26  1  0  0  0  0
 25 24  1  0  0  0  0
 26 27  1  0  0  0  0
 27 29  1  0  0  0  0
 28 29  2  0  0  0  0
 29 30  1  0  0  0  0
M  END
>  <MODEL>
8

>  <REMARK>
 VINA RESULT:      -6.8      3.086      6.146
  Name = 
  6 active torsions:
  status: ('A' for Active; 'I' for Inactive)
    1  A    between atoms: C_4  and  N_13
    2  A    between atoms: N_7  and  C_16
    3  A    between atoms: C_8  and  C_12
    4  A    between atoms: N_13  and  C_27
    5  A    between atoms: C_16  and  C_30
    6  A    between atoms: C_27  and  C_30
                            x       y       z     vdW  Elec       q    Type
                         _______ _______ _______ _____ _____    ______ ____

>  <TORSDO>
F 6

$$$$
=
 OpenBabel11052417193D

 30 33  0  0  1  0  0  0  0  0999 V2000
  193.0580  174.8410  142.3030 C   0  0  0  0  0  3  0  0  0  0  0  0
  194.4460  175.4410  142.1830 C   0  0  0  0  0  0  0  0  0  0  0  0
  192.2510  175.8780  147.0330 C   0  0  0  0  0  2  0  0  0  0  0  0
  191.1020  174.3600  143.8540 C   0  0  0  0  0  0  0  0  0  0  0  0
  191.1710  175.2630  147.9340 C   0  0  0  0  0  2  0  0  0  0  0  0
  194.9950  176.0800  143.4600 C   0  0  0  0  0  0  0  0  0  0  0  0
  194.4560  176.3620  141.1510 F   0  0  0  0  0  0  0  0  0  0  0  0
  192.1490  175.3070  145.6550 C   0  0  0  0  0  0  0  0  0  0  0  0
  196.3460  176.7010  143.4280 C   0  0  0  0  0  1  0  0  0  0  0  0
  192.4270  174.8510  143.4730 C   0  0  0  0  0  0  0  0  0  0  0  0
  190.9360  174.6630  145.1460 C   0  0  2  0  0  3  0  0  0  0  0  0
  189.7910  175.3030  147.2620 C   0  0  0  0  0  2  0  0  0  0  0  0
  189.7440  174.4070  146.0150 C   0  0  0  0  0  2  0  0  0  0  0  0
  194.3250  176.0650  144.6220 C   0  0  0  0  0  3  0  0  0  0  0  0
  193.0100  175.4290  144.6570 C   0  0  0  0  0  0  0  0  0  0  0  0
  188.9720  174.0820  140.9800 O   0  0  0  0  0  0  0  0  0  0  0  0
  189.2870  174.5380  142.1140 C   0  0  0  0  0  0  0  0  0  0  0  0
  190.1280  173.7560  142.9820 N   0  0  0  0  0  0  0  0  0  0  0  0
  189.2550  176.9630  142.1750 N   0  0  0  0  0  0  0  0  0  0  0  0
  187.5870  175.9870  143.3560 N   0  0  0  0  0  0  0  0  0  0  0  0
  188.7420  175.8400  142.5380 C   0  0  0  0  0  0  0  0  0  0  0  0
  188.4990  177.9990  142.7250 N   0  0  0  0  0  2  0  0  0  0  0  0
  187.4100  177.4240  143.5010 C   0  0  0  0  0  3  0  0  0  0  0  0
  190.0280  172.3030  142.9440 C   0  0  0  0  0  2  0  0  0  0  0  0
  191.1650  171.7230  142.1180 C   0  0  0  0  0  2  0  0  0  0  0  0
  191.8380  170.5940  142.8760 C   0  0  0  0  0  2  0  0  0  0  0  0
  192.3400  171.0850  144.1510 N   0  0  0  0  0  2  0  0  0  0  0  0
  194.4490  171.6410  143.3130 O   0  0  0  0  0  0  0  0  0  0  0  0
  193.6630  171.5980  144.2970 C   0  0  0  0  0  0  0  0  0  0  0  0
  194.1190  172.0850  145.6240 C   0  0  0  0  0  1  0  0  0  0  0  0
  1 10  1  0  0  0  0
  2  1  2  0  0  0  0
  2  6  1  0  0  0  0
  3  5  1  0  0  0  0
  4 11  1  0  0  0  0
  6 14  2  0  0  0  0
  7  2  1  0  0  0  0
  8  3  1  0  0  0  0
  9  6  1  0  0  0  0
 10  4  2  0  0  0  0
 10 15  1  0  0  0  0
 11  8  1  0  0  0  0
 11 13  1  1  0  0  0
 12  5  1  0  0  0  0
 13 12  1  0  0  0  0
 14 15  1  0  0  0  0
 15  8  2  0  0  0  0
 16 17  2  0  0  0  0
 17 21  1  0  0  0  0
 17 18  1  0  0  0  0
 18  4  1  0  0  0  0
 19 21  2  0  0  0  0
 19 22  1  0  0  0  0
 20 23  2  0  0  0  0
 21 20  1  0  0  0  0
 22 23  1  0  0  0  0
 24 18  1  0  0  0  0
 25 26  1  0  0  0  0
 25 24  1  0  0  0  0
 26 27  1  0  0  0  0
 27 29  1  0  0  0  0
 28 29  2  0  0  0  0
 29 30  1  0  0  0  0
M  END
>  <MODEL>
9

>  <REMARK>
 VINA RESULT:      -6.7      2.931      5.933
  Name = 
  6 active torsions:
  status: ('A' for Active; 'I' for Inactive)
    1  A    between atoms: C_4  and  N_13
    2  A    between atoms: N_7  and  C_16
    3  A    between atoms: C_8  and  C_12
    4  A    between atoms: N_13  and  C_27
    5  A    between atoms: C_16  and  C_30
    6  A    between atoms: C_27  and  C_30
                            x       y       z     vdW  Elec       q    Type
                         _______ _______ _______ _____ _____    ______ ____

>  <TORSDO>
F 6

$$$$
