=
 OpenBabel11052419313D

 55 59  0  0  1  0  0  0  0  0999 V2000
  196.4730  174.6330  142.6940 C   0  0  0  0  0  2  0  0  0  0  0  0
  190.7240  171.9410  143.0790 O   0  0  0  0  0  0  0  0  0  0  0  0
  189.4500  171.9840  139.6710 N   0  0  0  0  0  2  0  0  0  0  0  0
  190.0280  172.7700  136.7970 C   0  0  0  0  0  3  0  0  0  0  0  0
  190.7640  172.7030  135.6120 C   0  0  0  0  0  3  0  0  0  0  0  0
  191.9570  173.6870  137.9560 C   0  0  0  0  0  0  0  0  0  0  0  0
  192.6880  173.6170  136.7580 C   0  0  0  0  0  3  0  0  0  0  0  0
  188.5880  174.1980  139.0790 C   0  0  0  0  0  1  0  0  0  0  0  0
  192.0940  173.1280  135.5920 C   0  0  0  0  0  3  0  0  0  0  0  0
  190.6150  173.2680  137.9710 C   0  0  0  0  0  0  0  0  0  0  0  0
  195.5740  173.2450  144.3570 C   0  0  1  0  0  3  0  0  0  0  0  0
  195.5790  175.7930  140.6400 C   0  0  0  0  0  2  0  0  0  0  0  0
  195.0700  171.8030  144.4110 C   0  0  0  0  0  2  0  0  0  0  0  0
  194.1720  175.2120  140.5560 C   0  0  0  0  0  2  0  0  0  0  0  0
  193.5490  171.6830  144.3930 C   0  0  0  0  0  2  0  0  0  0  0  0
  192.5460  174.1630  139.1360 O   0  0  0  0  0  0  0  0  0  0  0  0
  190.6880  171.5600  141.7270 C   0  0  0  0  0  2  0  0  0  0  0  0
  189.3640  171.9930  141.1240 C   0  0  0  0  0  2  0  0  0  0  0  0
  191.9020  172.6850  143.3100 C   0  0  1  0  0  3  0  0  0  0  0  0
  196.5770  174.7790  141.1840 C   0  0  0  0  0  2  0  0  0  0  0  0
  189.8250  173.3270  139.2460 C   0  0  2  0  0  3  0  0  0  0  0  0
  195.3100  173.8340  143.0520 N   0  0  0  0  0  2  0  0  0  0  0  0
  193.0510  171.9130  143.1080 O   0  0  0  0  0  0  0  0  0  0  0  0
  193.9420  174.4180  139.2730 C   0  0  2  0  0  3  0  0  0  0  0  0
  194.8930  169.6540  139.2010 C   0  0  0  0  0  2  0  0  0  0  0  0
  194.6900  173.1210  139.2960 C   0  0  0  0  0  0  0  0  0  0  0  0
  195.0770  169.4640  141.6700 C   0  0  0  0  0  1  0  0  0  0  0  0
  195.4070  170.9810  139.7060 C   0  0  2  0  0  0  0  0  0  0  0  0
  195.7750  172.8970  138.5620 C   0  0  0  0  0  3  0  0  0  0  0  0
  196.2550  171.6140  138.7760 O   0  0  0  0  0  0  0  0  0  0  0  0
  195.8520  169.7010  140.3880 C   0  0  2  0  0  3  0  0  0  0  0  0
  194.3080  171.9360  140.1280 C   0  0  0  0  0  2  0  0  0  0  0  0
  191.9600  173.9790  142.5000 C   0  0  0  0  0  2  0  0  0  0  0  0
  191.2760  175.1140  143.2430 C   0  0  0  0  0  2  0  0  0  0  0  0
  190.3620  177.9080  144.7240 C   0  0  0  0  0  1  0  0  0  0  0  0
  189.3280  175.9430  142.1460 C   0  0  0  0  0  2  0  0  0  0  0  0
  188.4160  176.4680  144.6010 C   0  0  2  0  0  3  0  0  0  0  0  0
  189.8270  174.9850  143.1410 N   0  0  0  0  0  0  0  0  0  0  0  0
  189.2330  175.1740  144.4760 C   0  0  0  0  0  2  0  0  0  0  0  0
  189.1110  177.6360  144.0260 N   0  0  0  0  0  0  0  0  0  0  0  0
  189.4480  177.4140  142.6110 C   0  0  2  0  0  3  0  0  0  0  0  0
  188.3350  175.6600  146.9870 C   0  0  0  0  0  1  0  0  0  0  0  0
  186.3020  176.7310  146.0190 C   0  0  0  0  0  1  0  0  0  0  0  0
  187.8220  176.6920  146.0000 C   0  0  0  0  0  3  0  0  0  0  0  0
  188.6470  178.2270  141.8070 O   0  0  0  0  0  0  0  0  0  0  0  0
  187.7080  177.3630  141.2350 C   0  0  0  0  0  2  0  0  0  0  0  0
  186.2920  177.8350  141.5390 C   0  0  2  0  0  3  0  0  0  0  0  0
  185.6150  178.1050  140.3470 O   0  0  0  0  0  1  0  0  0  0  0  0
  186.3240  178.9840  142.3330 O   0  0  0  0  0  0  0  0  0  0  0  0
  185.3160  179.8190  144.3180 C   0  0  0  0  0  1  0  0  0  0  0  0
  185.1680  178.9130  143.1130 C   0  0  0  0  0  2  0  0  0  0  0  0
  194.9660  174.0910  145.4760 C   0  0  0  0  0  2  0  0  0  0  0  0
  194.2990  175.2310  144.9520 O   0  0  0  0  0  0  0  0  0  0  0  0
  194.7420  177.5370  145.8870 N   0  0  0  0  0  0  0  0  0  0  0  0
  194.5390  176.4790  145.4600 C   0  0  0  0  0  0  0  0  0  0  0  0
  1 22  1  0  0  0  0
  2 19  1  0  0  0  0
  3 18  1  0  0  0  0
  4 10  1  0  0  0  0
  5  4  2  0  0  0  0
  6 10  2  0  0  0  0
  6 16  1  0  0  0  0
  7  6  1  0  0  0  0
  9  5  1  0  0  0  0
  9  7  2  0  0  0  0
 10 21  1  0  0  0  0
 11 13  1  0  0  0  0
 11 52  1  1  0  0  0
 12 20  1  0  0  0  0
 14 12  1  0  0  0  0
 15 13  1  0  0  0  0
 16 24  1  0  0  0  0
 17  2  1  0  0  0  0
 18 17  1  0  0  0  0
 19 33  1  6  0  0  0
 20  1  1  0  0  0  0
 21  8  1  6  0  0  0
 21  3  1  0  0  0  0
 22 11  1  0  0  0  0
 23 19  1  0  0  0  0
 23 15  1  0  0  0  0
 24 26  1  1  0  0  0
 24 14  1  0  0  0  0
 25 31  1  0  0  0  0
 26 32  1  0  0  0  0
 28 25  1  6  0  0  0
 28 32  1  0  0  0  0
 28 31  1  0  0  0  0
 29 30  1  0  0  0  0
 29 26  2  0  0  0  0
 30 28  1  0  0  0  0
 31 27  1  1  0  0  0
 33 34  1  0  0  0  0
 36 41  1  0  0  0  0
 36 38  1  0  0  0  0
 37 44  1  1  0  0  0
 38 34  1  0  0  0  0
 38 39  1  0  0  0  0
 39 37  1  0  0  0  0
 40 37  1  0  0  0  0
 40 35  1  0  0  0  0
 41 45  1  6  0  0  0
 41 40  1  0  0  0  0
 44 43  1  0  0  0  0
 44 42  1  0  0  0  0
 46 47  1  0  0  0  0
 46 45  1  0  0  0  0
 47 48  1  6  0  0  0
 47 49  1  0  0  0  0
 49 51  1  0  0  0  0
 51 50  1  0  0  0  0
 53 55  1  0  0  0  0
 53 52  1  0  0  0  0
 55 54  3  0  0  0  0
M  END
>  <MODEL>
1

>  <REMARK>
 VINA RESULT:      -7.0      0.000      0.000
  Name = 
  13 active torsions:
  status: ('A' for Active; 'I' for Inactive)
    1  A    between atoms: C_3  and  C_6
    2  A    between atoms: C_3  and  O_21
    3  A    between atoms: C_6  and  O_25
    4  A    between atoms: C_8  and  N_20
    5  A    between atoms: C_8  and  C_22
    6  A    between atoms: C_12  and  C_50
    7  A    between atoms: C_13  and  C_52
    8  A    between atoms: O_21  and  C_53
    9  A    between atoms: C_22  and  C_43
   10  A    between atoms: O_25  and  C_38
   11  A    between atoms: C_27  and  C_54
   12  A    between atoms: C_41  and  O_55
   13  A    between atoms: C_54  and  O_55
                            x       y       z     vdW  Elec       q    Type
                         _______ _______ _______ _____ _____    ______ ____

>  <TORSDO>
F 13

$$$$
=
 OpenBabel11052419313D

 55 59  0  0  1  0  0  0  0  0999 V2000
  195.1270  175.3490  144.0890 C   0  0  0  0  0  2  0  0  0  0  0  0
  190.2960  171.9440  141.7410 O   0  0  0  0  0  0  0  0  0  0  0  0
  190.8310  171.9350  138.1420 N   0  0  0  0  0  2  0  0  0  0  0  0
  192.6200  172.8780  135.8790 C   0  0  0  0  0  3  0  0  0  0  0  0
  193.8390  172.9420  135.2000 C   0  0  0  0  0  3  0  0  0  0  0  0
  193.6190  173.9940  137.7940 C   0  0  0  0  0  0  0  0  0  0  0  0
  194.8390  174.0540  137.1000 C   0  0  0  0  0  3  0  0  0  0  0  0
  190.0920  174.0400  137.1350 C   0  0  0  0  0  1  0  0  0  0  0  0
  194.9480  173.5320  135.8100 C   0  0  0  0  0  3  0  0  0  0  0  0
  192.5000  173.4090  137.1740 C   0  0  0  0  0  0  0  0  0  0  0  0
  193.7190  173.8070  145.1570 C   0  0  1  0  0  3  0  0  0  0  0  0
  195.1980  176.4520  141.8210 C   0  0  0  0  0  2  0  0  0  0  0  0
  193.4380  172.3120  145.0090 C   0  0  0  0  0  2  0  0  0  0  0  0
  194.0920  175.7010  141.0870 C   0  0  0  0  0  2  0  0  0  0  0  0
  192.1430  172.0020  144.2620 C   0  0  0  0  0  2  0  0  0  0  0  0
  193.4990  174.5020  139.0950 O   0  0  0  0  0  0  0  0  0  0  0  0
  190.9650  171.6040  140.5530 C   0  0  0  0  0  2  0  0  0  0  0  0
  190.0550  171.8870  139.3720 C   0  0  0  0  0  2  0  0  0  0  0  0
  191.1120  172.8230  142.4870 C   0  0  1  0  0  3  0  0  0  0  0  0
  195.9280  175.5550  142.8130 C   0  0  0  0  0  2  0  0  0  0  0  0
  191.1930  173.3270  137.9060 C   0  0  2  0  0  3  0  0  0  0  0  0
  194.0460  174.3990  143.8670 N   0  0  0  0  0  2  0  0  0  0  0  0
  192.3030  172.2080  142.8910 O   0  0  0  0  0  0  0  0  0  0  0  0
  194.6120  174.9260  139.8800 C   0  0  2  0  0  3  0  0  0  0  0  0
  196.0630  170.3240  140.4430 C   0  0  0  0  0  2  0  0  0  0  0  0
  195.4120  173.7330  140.3050 C   0  0  0  0  0  0  0  0  0  0  0  0
  195.0660  170.0900  142.7040 C   0  0  0  0  0  1  0  0  0  0  0  0
  196.1040  171.6900  141.0840 C   0  0  2  0  0  0  0  0  0  0  0  0
  196.7340  173.6690  140.1870 C   0  0  0  0  0  3  0  0  0  0  0  0
  197.2080  172.4510  140.6500 O   0  0  0  0  0  0  0  0  0  0  0  0
  196.3240  170.4580  141.9410 C   0  0  2  0  0  3  0  0  0  0  0  0
  194.8290  172.4870  140.8950 C   0  0  0  0  0  2  0  0  0  0  0  0
  191.3910  174.1380  141.7630 C   0  0  0  0  0  2  0  0  0  0  0  0
  190.8090  175.3120  142.5310 C   0  0  0  0  0  2  0  0  0  0  0  0
  190.1640  177.9640  144.3730 C   0  0  0  0  0  1  0  0  0  0  0  0
  188.6050  176.0670  142.0170 C   0  0  0  0  0  2  0  0  0  0  0  0
  188.3270  176.4080  144.6510 C   0  0  2  0  0  3  0  0  0  0  0  0
  189.3900  175.0940  142.7890 N   0  0  0  0  0  0  0  0  0  0  0  0
  189.1490  175.1780  144.2410 C   0  0  0  0  0  2  0  0  0  0  0  0
  188.7920  177.6450  143.9970 N   0  0  0  0  0  0  0  0  0  0  0  0
  188.7670  177.5170  142.5310 C   0  0  2  0  0  3  0  0  0  0  0  0
  188.5640  175.2710  146.8880 C   0  0  0  0  0  1  0  0  0  0  0  0
  186.6640  176.8480  146.5460 C   0  0  0  0  0  1  0  0  0  0  0  0
  188.1000  176.5220  146.1660 C   0  0  0  0  0  3  0  0  0  0  0  0
  187.7460  178.3160  142.0100 O   0  0  0  0  0  0  0  0  0  0  0  0
  186.8410  177.4200  141.4330 C   0  0  0  0  0  2  0  0  0  0  0  0
  185.4120  177.9160  141.6090 C   0  0  2  0  0  3  0  0  0  0  0  0
  184.9650  178.5070  140.4240 O   0  0  0  0  0  1  0  0  0  0  0  0
  185.3460  178.8440  142.6510 O   0  0  0  0  0  0  0  0  0  0  0  0
  184.4100  179.1460  144.8160 C   0  0  0  0  0  1  0  0  0  0  0  0
  184.4450  178.2930  143.5650 C   0  0  0  0  0  2  0  0  0  0  0  0
  192.5470  174.5340  145.8150 C   0  0  0  0  0  2  0  0  0  0  0  0
  192.9950  175.4060  146.8420 O   0  0  0  0  0  0  0  0  0  0  0  0
  191.3880  176.9730  148.0050 N   0  0  0  0  0  0  0  0  0  0  0  0
  192.1240  176.2540  147.4730 C   0  0  0  0  0  0  0  0  0  0  0  0
  2 19  1  0  0  0  0
  3 18  1  0  0  0  0
  4 10  1  0  0  0  0
  5  9  1  0  0  0  0
  5  4  2  0  0  0  0
  6 16  1  0  0  0  0
  7  6  1  0  0  0  0
  9  7  2  0  0  0  0
 10  6  2  0  0  0  0
 10 21  1  0  0  0  0
 11 52  1  6  0  0  0
 12 20  1  0  0  0  0
 13 11  1  0  0  0  0
 14 12  1  0  0  0  0
 15 13  1  0  0  0  0
 16 24  1  0  0  0  0
 17  2  1  0  0  0  0
 18 17  1  0  0  0  0
 19 33  1  6  0  0  0
 19 23  1  0  0  0  0
 20  1  1  0  0  0  0
 21  8  1  6  0  0  0
 21  3  1  0  0  0  0
 22  1  1  0  0  0  0
 22 11  1  0  0  0  0
 23 15  1  0  0  0  0
 24 26  1  1  0  0  0
 24 14  1  0  0  0  0
 25 31  1  0  0  0  0
 26 32  1  0  0  0  0
 28 25  1  6  0  0  0
 28 31  1  0  0  0  0
 29 26  2  0  0  0  0
 29 30  1  0  0  0  0
 30 28  1  0  0  0  0
 31 27  1  1  0  0  0
 32 28  1  0  0  0  0
 33 34  1  0  0  0  0
 34 38  1  0  0  0  0
 36 41  1  0  0  0  0
 36 38  1  0  0  0  0
 37 44  1  1  0  0  0
 38 39  1  0  0  0  0
 39 37  1  0  0  0  0
 40 35  1  0  0  0  0
 40 37  1  0  0  0  0
 41 45  1  1  0  0  0
 41 40  1  0  0  0  0
 44 43  1  0  0  0  0
 44 42  1  0  0  0  0
 46 47  1  0  0  0  0
 46 45  1  0  0  0  0
 47 48  1  6  0  0  0
 47 49  1  0  0  0  0
 49 51  1  0  0  0  0
 51 50  1  0  0  0  0
 52 53  1  0  0  0  0
 53 55  1  0  0  0  0
 55 54  3  0  0  0  0
M  END
>  <MODEL>
2

>  <REMARK>
 VINA RESULT:      -7.0      1.423      1.690
  Name = 
  13 active torsions:
  status: ('A' for Active; 'I' for Inactive)
    1  A    between atoms: C_3  and  C_6
    2  A    between atoms: C_3  and  O_21
    3  A    between atoms: C_6  and  O_25
    4  A    between atoms: C_8  and  N_20
    5  A    between atoms: C_8  and  C_22
    6  A    between atoms: C_12  and  C_50
    7  A    between atoms: C_13  and  C_52
    8  A    between atoms: O_21  and  C_53
    9  A    between atoms: C_22  and  C_43
   10  A    between atoms: O_25  and  C_38
   11  A    between atoms: C_27  and  C_54
   12  A    between atoms: C_41  and  O_55
   13  A    between atoms: C_54  and  O_55
                            x       y       z     vdW  Elec       q    Type
                         _______ _______ _______ _____ _____    ______ ____

>  <TORSDO>
F 13

$$$$
=
 OpenBabel11052419313D

 55 59  0  0  1  0  0  0  0  0999 V2000
  197.0470  175.4180  142.9260 C   0  0  0  0  0  2  0  0  0  0  0  0
  191.9490  171.6200  143.1390 O   0  0  0  0  0  0  0  0  0  0  0  0
  190.5750  171.7240  139.7720 N   0  0  0  0  0  2  0  0  0  0  0  0
  190.8890  172.8700  136.9790 C   0  0  0  0  0  3  0  0  0  0  0  0
  191.5830  173.0590  135.7820 C   0  0  0  0  0  3  0  0  0  0  0  0
  192.6420  174.0390  138.1910 C   0  0  0  0  0  0  0  0  0  0  0  0
  193.3300  174.2250  136.9800 C   0  0  0  0  0  3  0  0  0  0  0  0
  189.2780  173.7690  139.4110 C   0  0  0  0  0  1  0  0  0  0  0  0
  192.8030  173.7380  135.7820 C   0  0  0  0  0  3  0  0  0  0  0  0
  191.4080  173.3640  138.1860 C   0  0  0  0  0  0  0  0  0  0  0  0
  196.4940  173.7330  144.4620 C   0  0  1  0  0  3  0  0  0  0  0  0
  195.8730  176.5630  141.0090 C   0  0  0  0  0  2  0  0  0  0  0  0
  196.2830  172.2210  144.3830 C   0  0  0  0  0  2  0  0  0  0  0  0
  194.6050  175.7250  140.8910 C   0  0  0  0  0  2  0  0  0  0  0  0
  194.8140  171.8050  144.3770 C   0  0  0  0  0  2  0  0  0  0  0  0
  193.1660  174.5110  139.4020 O   0  0  0  0  0  0  0  0  0  0  0  0
  191.9420  171.3650  141.7580 C   0  0  0  0  0  2  0  0  0  0  0  0
  190.5400  171.5830  141.2200 C   0  0  0  0  0  2  0  0  0  0  0  0
  192.9670  172.5580  143.4230 C   0  0  1  0  0  3  0  0  0  0  0  0
  197.0690  175.7200  141.4360 C   0  0  0  0  0  2  0  0  0  0  0  0
  190.6660  173.1480  139.4730 C   0  0  2  0  0  3  0  0  0  0  0  0
  196.0750  174.3760  143.2240 N   0  0  0  0  0  2  0  0  0  0  0  0
  194.2380  172.0500  143.1290 O   0  0  0  0  0  0  0  0  0  0  0  0
  194.4900  175.0230  139.5410 C   0  0  2  0  0  3  0  0  0  0  0  0
  196.3490  170.5680  138.9940 C   0  0  0  0  0  2  0  0  0  0  0  0
  195.4770  173.9030  139.4270 C   0  0  0  0  0  0  0  0  0  0  0  0
  196.6520  170.1930  141.4290 C   0  0  0  0  0  1  0  0  0  0  0  0
  196.6110  171.9180  139.6160 C   0  0  2  0  0  0  0  0  0  0  0  0
  196.5580  173.9660  138.6570 C   0  0  0  0  0  3  0  0  0  0  0  0
  197.2870  172.7880  138.7380 O   0  0  0  0  0  0  0  0  0  0  0  0
  197.3210  170.6940  140.1640 C   0  0  2  0  0  3  0  0  0  0  0  0
  195.3630  172.5950  140.1460 C   0  0  0  0  0  2  0  0  0  0  0  0
  192.7440  173.9060  142.7410 C   0  0  0  0  0  2  0  0  0  0  0  0
  191.9960  174.8590  143.6580 C   0  0  0  0  0  2  0  0  0  0  0  0
  190.8750  177.6020  145.0920 C   0  0  0  0  0  1  0  0  0  0  0  0
  189.9630  175.4910  142.5830 C   0  0  0  0  0  2  0  0  0  0  0  0
  189.0570  175.9990  145.0440 C   0  0  2  0  0  3  0  0  0  0  0  0
  190.5610  174.6040  143.5900 N   0  0  0  0  0  0  0  0  0  0  0  0
  189.9790  174.7770  144.9330 C   0  0  0  0  0  2  0  0  0  0  0  0
  189.6380  177.2070  144.4270 N   0  0  0  0  0  0  0  0  0  0  0  0
  189.9660  176.9780  143.0110 C   0  0  2  0  0  3  0  0  0  0  0  0
  188.7550  175.0140  147.3440 C   0  0  0  0  0  1  0  0  0  0  0  0
  186.9880  176.5300  146.4530 C   0  0  0  0  0  1  0  0  0  0  0  0
  188.4730  176.2070  146.4500 C   0  0  0  0  0  3  0  0  0  0  0  0
  189.0820  177.7000  142.2050 O   0  0  0  0  0  0  0  0  0  0  0  0
  188.1530  176.7600  141.7500 C   0  0  0  0  0  2  0  0  0  0  0  0
  186.7900  177.0060  142.3810 C   0  0  2  0  0  3  0  0  0  0  0  0
  186.2610  175.8020  142.8550 O   0  0  0  0  0  1  0  0  0  0  0  0
  185.9160  177.5660  141.4450 O   0  0  0  0  0  0  0  0  0  0  0  0
  185.7440  179.1740  143.1890 C   0  0  0  0  0  1  0  0  0  0  0  0
  184.9990  178.2960  142.2040 C   0  0  0  0  0  2  0  0  0  0  0  0
  195.7720  174.3360  145.6660 C   0  0  0  0  0  2  0  0  0  0  0  0
  194.8830  175.3700  145.2670 O   0  0  0  0  0  0  0  0  0  0  0  0
  194.0560  177.0800  146.9350 N   0  0  0  0  0  0  0  0  0  0  0  0
  194.4350  176.2970  146.1690 C   0  0  0  0  0  0  0  0  0  0  0  0
  1 22  1  0  0  0  0
  2 19  1  0  0  0  0
  3 18  1  0  0  0  0
  4 10  1  0  0  0  0
  5  9  1  0  0  0  0
  5  4  2  0  0  0  0
  6 16  1  0  0  0  0
  7  6  1  0  0  0  0
  9  7  2  0  0  0  0
 10  6  2  0  0  0  0
 10 21  1  0  0  0  0
 11 52  1  1  0  0  0
 12 20  1  0  0  0  0
 13 11  1  0  0  0  0
 14 12  1  0  0  0  0
 15 13  1  0  0  0  0
 16 24  1  0  0  0  0
 17  2  1  0  0  0  0
 18 17  1  0  0  0  0
 19 33  1  6  0  0  0
 20  1  1  0  0  0  0
 21  8  1  6  0  0  0
 21  3  1  0  0  0  0
 22 11  1  0  0  0  0
 23 19  1  0  0  0  0
 23 15  1  0  0  0  0
 24 26  1  1  0  0  0
 24 14  1  0  0  0  0
 25 31  1  0  0  0  0
 26 32  1  0  0  0  0
 28 25  1  6  0  0  0
 28 32  1  0  0  0  0
 28 31  1  0  0  0  0
 29 30  1  0  0  0  0
 29 26  2  0  0  0  0
 30 28  1  0  0  0  0
 31 27  1  1  0  0  0
 33 34  1  0  0  0  0
 36 41  1  0  0  0  0
 36 38  1  0  0  0  0
 37 44  1  1  0  0  0
 38 34  1  0  0  0  0
 38 39  1  0  0  0  0
 39 37  1  0  0  0  0
 40 37  1  0  0  0  0
 40 35  1  0  0  0  0
 41 45  1  6  0  0  0
 41 40  1  0  0  0  0
 44 43  1  0  0  0  0
 44 42  1  0  0  0  0
 46 45  1  0  0  0  0
 46 47  1  0  0  0  0
 47 48  1  6  0  0  0
 49 51  1  0  0  0  0
 49 47  1  0  0  0  0
 51 50  1  0  0  0  0
 53 52  1  0  0  0  0
 53 55  1  0  0  0  0
 55 54  3  0  0  0  0
M  END
>  <MODEL>
3

>  <REMARK>
 VINA RESULT:      -6.8      1.093      1.186
  Name = 
  13 active torsions:
  status: ('A' for Active; 'I' for Inactive)
    1  A    between atoms: C_3  and  C_6
    2  A    between atoms: C_3  and  O_21
    3  A    between atoms: C_6  and  O_25
    4  A    between atoms: C_8  and  N_20
    5  A    between atoms: C_8  and  C_22
    6  A    between atoms: C_12  and  C_50
    7  A    between atoms: C_13  and  C_52
    8  A    between atoms: O_21  and  C_53
    9  A    between atoms: C_22  and  C_43
   10  A    between atoms: O_25  and  C_38
   11  A    between atoms: C_27  and  C_54
   12  A    between atoms: C_41  and  O_55
   13  A    between atoms: C_54  and  O_55
                            x       y       z     vdW  Elec       q    Type
                         _______ _______ _______ _____ _____    ______ ____

>  <TORSDO>
F 13

$$$$
=
 OpenBabel11052419313D

 55 59  0  0  1  0  0  0  0  0999 V2000
  190.3540  170.8490  139.6970 C   0  0  0  0  0  2  0  0  0  0  0  0
  194.3650  175.6370  140.8940 O   0  0  0  0  0  0  0  0  0  0  0  0
  196.2230  174.5760  143.8370 N   0  0  0  0  0  2  0  0  0  0  0  0
  196.6090  172.3720  145.8880 C   0  0  0  0  0  3  0  0  0  0  0  0
  196.9290  171.0660  146.2680 C   0  0  0  0  0  3  0  0  0  0  0  0
  194.6960  171.5480  144.6350 C   0  0  0  0  0  0  0  0  0  0  0  0
  195.0270  170.2400  145.0250 C   0  0  0  0  0  3  0  0  0  0  0  0
  194.9100  174.9080  145.8760 C   0  0  0  0  0  1  0  0  0  0  0  0
  196.1370  170.0010  145.8370 C   0  0  0  0  0  3  0  0  0  0  0  0
  195.4890  172.6220  145.0790 C   0  0  0  0  0  0  0  0  0  0  0  0
  191.1000  172.5690  138.2880 C   0  0  1  0  0  3  0  0  0  0  0  0
  190.5640  170.3140  142.1540 C   0  0  0  0  0  2  0  0  0  0  0  0
  192.4550  172.9960  137.7220 C   0  0  0  0  0  2  0  0  0  0  0  0
  191.5580  171.3780  142.6080 C   0  0  0  0  0  2  0  0  0  0  0  0
  193.0720  174.1920  138.4420 C   0  0  0  0  0  2  0  0  0  0  0  0
  193.5920  171.8010  143.8090 O   0  0  0  0  0  0  0  0  0  0  0  0
  195.2790  174.8420  141.6060 C   0  0  0  0  0  2  0  0  0  0  0  0
  195.6180  175.5270  142.9160 C   0  0  0  0  0  2  0  0  0  0  0  0
  193.2480  174.8450  140.5470 C   0  0  1  0  0  3  0  0  0  0  0  0
  190.8470  169.8490  140.7310 C   0  0  0  0  0  2  0  0  0  0  0  0
  195.1550  174.0240  144.6620 C   0  0  2  0  0  3  0  0  0  0  0  0
  191.2570  171.9870  139.6140 N   0  0  0  0  0  2  0  0  0  0  0  0
  193.5980  173.8060  139.6760 O   0  0  0  0  0  0  0  0  0  0  0  0
  192.8530  170.7770  143.1470 C   0  0  2  0  0  3  0  0  0  0  0  0
  196.5590  169.9610  140.1130 C   0  0  0  0  0  2  0  0  0  0  0  0
  193.6800  170.1920  142.0440 C   0  0  0  0  0  0  0  0  0  0  0  0
  195.5910  171.3130  138.2700 C   0  0  0  0  0  1  0  0  0  0  0  0
  195.0570  169.8630  140.2400 C   0  0  2  0  0  0  0  0  0  0  0  0
  193.8220  168.8840  141.8610 C   0  0  0  0  0  3  0  0  0  0  0  0
  194.6450  168.6280  140.7750 O   0  0  0  0  0  0  0  0  0  0  0  0
  195.6870  169.9200  138.8610 C   0  0  2  0  0  3  0  0  0  0  0  0
  194.4420  170.9960  141.0370 C   0  0  0  0  0  2  0  0  0  0  0  0
  192.4940  174.3110  141.7630 C   0  0  0  0  0  2  0  0  0  0  0  0
  191.6480  175.4030  142.3970 C   0  0  0  0  0  2  0  0  0  0  0  0
  190.5990  177.8510  144.3320 C   0  0  0  0  0  1  0  0  0  0  0  0
  189.2940  175.6440  142.0950 C   0  0  0  0  0  2  0  0  0  0  0  0
  189.1880  175.9250  144.7490 C   0  0  2  0  0  3  0  0  0  0  0  0
  190.3430  174.8740  142.7780 N   0  0  0  0  0  0  0  0  0  0  0  0
  190.2220  174.9080  144.2460 C   0  0  0  0  0  2  0  0  0  0  0  0
  189.3040  177.2320  144.0750 N   0  0  0  0  0  0  0  0  0  0  0  0
  189.1750  177.0950  142.6160 C   0  0  2  0  0  3  0  0  0  0  0  0
  189.2370  174.6180  146.9030 C   0  0  0  0  0  1  0  0  0  0  0  0
  187.8030  176.6530  146.7740 C   0  0  0  0  0  1  0  0  0  0  0  0
  189.0800  175.9920  146.2790 C   0  0  0  0  0  3  0  0  0  0  0  0
  187.9590  177.6440  142.2010 O   0  0  0  0  0  0  0  0  0  0  0  0
  187.0410  176.5920  142.2740 C   0  0  0  0  0  2  0  0  0  0  0  0
  185.6730  177.1030  142.7040 C   0  0  2  0  0  3  0  0  0  0  0  0
  185.4820  178.4040  142.2310 O   0  0  0  0  0  1  0  0  0  0  0  0
  185.5660  177.0900  144.0980 O   0  0  0  0  0  0  0  0  0  0  0  0
  184.4660  178.1940  145.8930 C   0  0  0  0  0  1  0  0  0  0  0  0
  184.7500  178.1800  144.4050 C   0  0  0  0  0  2  0  0  0  0  0  0
  190.1120  173.7350  138.3120 C   0  0  0  0  0  2  0  0  0  0  0  0
  189.1820  173.6410  137.2420 O   0  0  0  0  0  0  0  0  0  0  0  0
  189.2780  175.2560  135.3010 N   0  0  0  0  0  0  0  0  0  0  0  0
  189.2340  174.5150  136.1900 C   0  0  0  0  0  0  0  0  0  0  0  0
  1 20  1  0  0  0  0
  2 17  1  0  0  0  0
  3 21  1  0  0  0  0
  4  5  1  0  0  0  0
  6  7  2  0  0  0  0
  6 10  1  0  0  0  0
  7  9  1  0  0  0  0
  9  5  2  0  0  0  0
 10  4  2  0  0  0  0
 11 52  1  1  0  0  0
 11 22  1  0  0  0  0
 12 14  1  0  0  0  0
 13 11  1  0  0  0  0
 13 15  1  0  0  0  0
 14 24  1  0  0  0  0
 15 23  1  0  0  0  0
 16  6  1  0  0  0  0
 17 18  1  0  0  0  0
 18  3  1  0  0  0  0
 19  2  1  0  0  0  0
 19 33  1  1  0  0  0
 20 12  1  0  0  0  0
 21 10  1  0  0  0  0
 21  8  1  1  0  0  0
 22  1  1  0  0  0  0
 23 19  1  0  0  0  0
 24 26  1  6  0  0  0
 24 16  1  0  0  0  0
 28 25  1  1  0  0  0
 28 30  1  0  0  0  0
 28 32  1  0  0  0  0
 29 26  2  0  0  0  0
 30 29  1  0  0  0  0
 31 27  1  1  0  0  0
 31 25  1  0  0  0  0
 31 28  1  0  0  0  0
 32 26  1  0  0  0  0
 33 34  1  0  0  0  0
 34 38  1  0  0  0  0
 36 41  1  0  0  0  0
 36 38  1  0  0  0  0
 37 44  1  1  0  0  0
 38 39  1  0  0  0  0
 39 37  1  0  0  0  0
 40 35  1  0  0  0  0
 40 37  1  0  0  0  0
 41 45  1  1  0  0  0
 41 40  1  0  0  0  0
 44 43  1  0  0  0  0
 44 42  1  0  0  0  0
 45 46  1  0  0  0  0
 46 47  1  0  0  0  0
 47 48  1  1  0  0  0
 47 49  1  0  0  0  0
 49 51  1  0  0  0  0
 51 50  1  0  0  0  0
 53 52  1  0  0  0  0
 54 55  3  0  0  0  0
 55 53  1  0  0  0  0
M  END
>  <MODEL>
4

>  <REMARK>
 VINA RESULT:      -6.7      1.745      6.011
  Name = 
  13 active torsions:
  status: ('A' for Active; 'I' for Inactive)
    1  A    between atoms: C_3  and  C_6
    2  A    between atoms: C_3  and  O_21
    3  A    between atoms: C_6  and  O_25
    4  A    between atoms: C_8  and  N_20
    5  A    between atoms: C_8  and  C_22
    6  A    between atoms: C_12  and  C_50
    7  A    between atoms: C_13  and  C_52
    8  A    between atoms: O_21  and  C_53
    9  A    between atoms: C_22  and  C_43
   10  A    between atoms: O_25  and  C_38
   11  A    between atoms: C_27  and  C_54
   12  A    between atoms: C_41  and  O_55
   13  A    between atoms: C_54  and  O_55
                            x       y       z     vdW  Elec       q    Type
                         _______ _______ _______ _____ _____    ______ ____

>  <TORSDO>
F 13

$$$$
=
 OpenBabel11052419313D

 55 59  0  0  1  0  0  0  0  0999 V2000
  189.6110  177.6450  142.5480 C   0  0  0  0  0  2  0  0  0  0  0  0
  190.6320  171.4060  141.8570 O   0  0  0  0  0  0  0  0  0  0  0  0
  193.8810  170.8230  143.3860 N   0  0  0  0  0  2  0  0  0  0  0  0
  196.2310  172.0980  144.8240 C   0  0  0  0  0  3  0  0  0  0  0  0
  196.8110  172.7980  145.8840 C   0  0  0  0  0  3  0  0  0  0  0  0
  194.8840  174.0410  144.2640 C   0  0  0  0  0  0  0  0  0  0  0  0
  195.4750  174.7370  145.3330 C   0  0  0  0  0  3  0  0  0  0  0  0
  195.6960  171.4850  141.8820 C   0  0  0  0  0  1  0  0  0  0  0  0
  196.4330  174.1180  146.1380 C   0  0  0  0  0  3  0  0  0  0  0  0
  195.2730  172.7150  144.0040 C   0  0  0  0  0  0  0  0  0  0  0  0
  188.0870  175.9130  142.1290 C   0  0  1  0  0  3  0  0  0  0  0  0
  192.1240  177.8500  142.6410 C   0  0  0  0  0  2  0  0  0  0  0  0
  187.6300  174.6640  142.8840 C   0  0  0  0  0  2  0  0  0  0  0  0
  192.5480  176.3900  142.5270 C   0  0  0  0  0  2  0  0  0  0  0  0
  188.2550  173.3710  142.3680 C   0  0  0  0  0  2  0  0  0  0  0  0
  193.9100  174.6460  143.4570 O   0  0  0  0  0  0  0  0  0  0  0  0
  191.5410  171.3220  142.9250 C   0  0  0  0  0  2  0  0  0  0  0  0
  192.7820  170.5810  142.4630 C   0  0  0  0  0  2  0  0  0  0  0  0
  190.2640  172.7580  141.6780 C   0  0  1  0  0  3  0  0  0  0  0  0
  190.8150  177.9990  143.4070 C   0  0  0  0  0  2  0  0  0  0  0  0
  194.6430  171.9560  142.8740 C   0  0  2  0  0  3  0  0  0  0  0  0
  189.4860  176.2010  142.4120 N   0  0  0  0  0  2  0  0  0  0  0  0
  189.5810  173.2620  142.7910 O   0  0  0  0  0  0  0  0  0  0  0  0
  193.3060  175.9020  143.7590 C   0  0  2  0  0  3  0  0  0  0  0  0
  189.9950  176.9040  147.1710 C   0  0  0  0  0  2  0  0  0  0  0  0
  192.3900  175.7500  144.9340 C   0  0  0  0  0  0  0  0  0  0  0  0
  191.6810  177.4070  148.9220 C   0  0  0  0  0  1  0  0  0  0  0  0
  191.2040  176.0490  146.8740 C   0  0  2  0  0  0  0  0  0  0  0  0
  191.5970  174.6980  145.1040 C   0  0  0  0  0  3  0  0  0  0  0  0
  190.8570  174.8250  146.2700 O   0  0  0  0  0  0  0  0  0  0  0  0
  190.8160  176.3180  148.3160 C   0  0  2  0  0  3  0  0  0  0  0  0
  192.2540  176.7520  146.0380 C   0  0  0  0  0  2  0  0  0  0  0  0
  191.4440  173.6540  141.3060 C   0  0  0  0  0  2  0  0  0  0  0  0
  191.6210  173.7160  139.7980 C   0  0  0  0  0  2  0  0  0  0  0  0
  191.8960  174.5200  136.6180 C   0  0  0  0  0  1  0  0  0  0  0  0
  193.8370  173.2000  139.0820 C   0  0  0  0  0  2  0  0  0  0  0  0
  192.6820  172.2410  136.8730 C   0  0  2  0  0  3  0  0  0  0  0  0
  192.5040  172.6450  139.3480 N   0  0  0  0  0  0  0  0  0  0  0  0
  191.9030  171.9910  138.1720 C   0  0  0  0  0  2  0  0  0  0  0  0
  193.0680  173.6550  136.7050 N   0  0  0  0  0  0  0  0  0  0  0  0
  193.8680  174.1300  137.8450 C   0  0  2  0  0  3  0  0  0  0  0  0
  190.7980  170.8090  136.0050 C   0  0  0  0  0  1  0  0  0  0  0  0
  193.0010  170.7170  134.8420 C   0  0  0  0  0  1  0  0  0  0  0  0
  192.0440  171.5920  135.6360 C   0  0  0  0  0  3  0  0  0  0  0  0
  195.1900  174.3260  137.4380 O   0  0  0  0  0  0  0  0  0  0  0  0
  195.9600  174.1090  138.5850 C   0  0  0  0  0  2  0  0  0  0  0  0
  196.8850  175.2910  138.8390 C   0  0  2  0  0  3  0  0  0  0  0  0
  197.9270  175.2880  137.9080 O   0  0  0  0  0  1  0  0  0  0  0  0
  197.4100  175.2260  140.1330 O   0  0  0  0  0  0  0  0  0  0  0  0
  196.0660  176.7910  141.3160 C   0  0  0  0  0  1  0  0  0  0  0  0
  196.3020  175.3340  140.9750 C   0  0  0  0  0  2  0  0  0  0  0  0
  187.8460  175.7760  140.6260 C   0  0  0  0  0  2  0  0  0  0  0  0
  187.0670  176.8560  140.1310 O   0  0  0  0  0  0  0  0  0  0  0  0
  185.6520  178.2550  141.6890 N   0  0  0  0  0  0  0  0  0  0  0  0
  186.3010  177.6130  140.9760 C   0  0  0  0  0  0  0  0  0  0  0  0
  1 20  1  0  0  0  0
  2 17  1  0  0  0  0
  4  5  1  0  0  0  0
  5  9  2  0  0  0  0
  6  7  2  0  0  0  0
  7  9  1  0  0  0  0
 10  6  1  0  0  0  0
 10  4  2  0  0  0  0
 11 52  1  6  0  0  0
 11 22  1  0  0  0  0
 11 13  1  0  0  0  0
 12 20  1  0  0  0  0
 14 12  1  0  0  0  0
 14 24  1  0  0  0  0
 15 23  1  0  0  0  0
 15 13  1  0  0  0  0
 16 24  1  0  0  0  0
 16  6  1  0  0  0  0
 18 17  1  0  0  0  0
 18  3  1  0  0  0  0
 19 33  1  1  0  0  0
 19  2  1  0  0  0  0
 19 23  1  0  0  0  0
 21  8  1  6  0  0  0
 21  3  1  0  0  0  0
 21 10  1  0  0  0  0
 22  1  1  0  0  0  0
 24 26  1  1  0  0  0
 25 31  1  0  0  0  0
 26 29  2  0  0  0  0
 26 32  1  0  0  0  0
 28 32  1  6  0  0  0
 28 25  1  0  0  0  0
 28 31  1  0  0  0  0
 29 30  1  0  0  0  0
 30 28  1  0  0  0  0
 31 27  1  1  0  0  0
 34 33  1  0  0  0  0
 35 40  1  0  0  0  0
 36 38  1  0  0  0  0
 37 44  1  6  0  0  0
 37 39  1  0  0  0  0
 38 34  1  0  0  0  0
 39 38  1  0  0  0  0
 40 37  1  0  0  0  0
 40 41  1  0  0  0  0
 41 45  1  6  0  0  0
 41 36  1  0  0  0  0
 43 44  1  0  0  0  0
 44 42  1  0  0  0  0
 45 46  1  0  0  0  0
 46 47  1  0  0  0  0
 47 48  1  6  0  0  0
 47 49  1  0  0  0  0
 49 51  1  0  0  0  0
 51 50  1  0  0  0  0
 53 52  1  0  0  0  0
 53 55  1  0  0  0  0
 55 54  3  0  0  0  0
M  END
>  <MODEL>
5

>  <REMARK>
 VINA RESULT:      -6.3      2.268      8.594
  Name = 
  13 active torsions:
  status: ('A' for Active; 'I' for Inactive)
    1  A    between atoms: C_3  and  C_6
    2  A    between atoms: C_3  and  O_21
    3  A    between atoms: C_6  and  O_25
    4  A    between atoms: C_8  and  N_20
    5  A    between atoms: C_8  and  C_22
    6  A    between atoms: C_12  and  C_50
    7  A    between atoms: C_13  and  C_52
    8  A    between atoms: O_21  and  C_53
    9  A    between atoms: C_22  and  C_43
   10  A    between atoms: O_25  and  C_38
   11  A    between atoms: C_27  and  C_54
   12  A    between atoms: C_41  and  O_55
   13  A    between atoms: C_54  and  O_55
                            x       y       z     vdW  Elec       q    Type
                         _______ _______ _______ _____ _____    ______ ____

>  <TORSDO>
F 13

$$$$
=
 OpenBabel11052419313D

 55 59  0  0  1  0  0  0  0  0999 V2000
  196.6700  175.5680  143.4420 C   0  0  0  0  0  2  0  0  0  0  0  0
  191.3960  172.0680  144.0620 O   0  0  0  0  0  0  0  0  0  0  0  0
  190.0660  171.7900  140.6870 N   0  0  0  0  0  2  0  0  0  0  0  0
  190.4660  172.5420  137.7740 C   0  0  0  0  0  3  0  0  0  0  0  0
  191.1810  172.5400  136.5740 C   0  0  0  0  0  3  0  0  0  0  0  0
  192.2580  173.7800  138.8510 C   0  0  0  0  0  0  0  0  0  0  0  0
  192.9680  173.7740  137.6390 C   0  0  0  0  0  3  0  0  0  0  0  0
  188.8720  173.8270  140.0380 C   0  0  0  0  0  1  0  0  0  0  0  0
  192.4320  173.1570  136.5070 C   0  0  0  0  0  3  0  0  0  0  0  0
  190.9940  173.1670  138.9140 C   0  0  0  0  0  0  0  0  0  0  0  0
  196.0200  174.1280  145.1750 C   0  0  1  0  0  3  0  0  0  0  0  0
  195.5740  176.5030  141.3710 C   0  0  0  0  0  2  0  0  0  0  0  0
  195.7390  172.6290  145.2910 C   0  0  0  0  0  2  0  0  0  0  0  0
  194.2680  175.7160  141.3410 C   0  0  0  0  0  2  0  0  0  0  0  0
  194.2530  172.2840  145.3140 C   0  0  0  0  0  2  0  0  0  0  0  0
  192.7910  174.3830  140.0000 O   0  0  0  0  0  0  0  0  0  0  0  0
  191.3920  171.6340  142.7260 C   0  0  0  0  0  2  0  0  0  0  0  0
  190.0080  171.8420  142.1400 C   0  0  0  0  0  2  0  0  0  0  0  0
  192.4540  172.9880  144.2380 C   0  0  1  0  0  3  0  0  0  0  0  0
  196.7230  175.6700  141.9250 C   0  0  0  0  0  2  0  0  0  0  0  0
  190.2280  173.1560  140.2050 C   0  0  2  0  0  3  0  0  0  0  0  0
  195.6460  174.6200  143.8560 N   0  0  0  0  0  2  0  0  0  0  0  0
  193.7020  172.3880  144.0350 O   0  0  0  0  0  0  0  0  0  0  0  0
  194.1360  174.8480  140.0930 C   0  0  2  0  0  3  0  0  0  0  0  0
  195.7870  170.2790  140.1740 C   0  0  0  0  0  2  0  0  0  0  0  0
  195.0700  173.6780  140.1440 C   0  0  0  0  0  0  0  0  0  0  0  0
  196.0530  170.2220  142.6420 C   0  0  0  0  0  1  0  0  0  0  0  0
  196.1080  171.6880  140.6130 C   0  0  2  0  0  0  0  0  0  0  0  0
  196.1590  173.5880  139.3880 C   0  0  0  0  0  3  0  0  0  0  0  0
  196.8300  172.4000  139.6370 O   0  0  0  0  0  0  0  0  0  0  0  0
  196.7550  170.5170  141.3300 C   0  0  2  0  0  3  0  0  0  0  0  0
  194.8880  172.4860  141.0300 C   0  0  0  0  0  2  0  0  0  0  0  0
  192.3020  174.2430  143.3810 C   0  0  0  0  0  2  0  0  0  0  0  0
  190.8650  174.7350  143.3920 C   0  0  0  0  0  2  0  0  0  0  0  0
  187.6280  175.2770  143.1330 C   0  0  0  0  0  1  0  0  0  0  0  0
  190.1680  176.0320  145.2680 C   0  0  0  0  0  2  0  0  0  0  0  0
  188.7070  177.4150  143.5120 C   0  0  2  0  0  3  0  0  0  0  0  0
  190.7960  176.0840  143.9410 N   0  0  0  0  0  0  0  0  0  0  0  0
  190.0750  176.9520  142.9930 C   0  0  0  0  0  2  0  0  0  0  0  0
  187.9260  176.3170  144.1120 N   0  0  0  0  0  0  0  0  0  0  0  0
  188.6640  175.6740  145.2110 C   0  0  2  0  0  3  0  0  0  0  0  0
  186.5580  178.6480  143.0500 C   0  0  0  0  0  1  0  0  0  0  0  0
  187.8160  177.6810  141.1270 C   0  0  0  0  0  1  0  0  0  0  0  0
  187.9320  178.2910  142.5160 C   0  0  0  0  0  3  0  0  0  0  0  0
  188.0590  175.9910  146.4290 O   0  0  0  0  0  0  0  0  0  0  0  0
  188.1510  177.3830  146.5290 C   0  0  0  0  0  2  0  0  0  0  0  0
  186.8240  177.9740  146.9850 C   0  0  2  0  0  3  0  0  0  0  0  0
  187.0000  178.6660  148.1860 O   0  0  0  0  0  1  0  0  0  0  0  0
  185.8760  176.9620  147.1600 O   0  0  0  0  0  0  0  0  0  0  0  0
  184.3150  178.5310  146.2900 C   0  0  0  0  0  1  0  0  0  0  0  0
  184.9460  177.1620  146.1380 C   0  0  0  0  0  2  0  0  0  0  0  0
  195.3140  174.9160  146.2770 C   0  0  0  0  0  2  0  0  0  0  0  0
  194.2860  175.7370  145.7420 O   0  0  0  0  0  0  0  0  0  0  0  0
  192.6960  176.9810  147.2640 N   0  0  0  0  0  0  0  0  0  0  0  0
  193.4260  176.4110  146.5680 C   0  0  0  0  0  0  0  0  0  0  0  0
  1 22  1  0  0  0  0
  2 19  1  0  0  0  0
  3 18  1  0  0  0  0
  4 10  1  0  0  0  0
  5  4  2  0  0  0  0
  6 10  2  0  0  0  0
  6 16  1  0  0  0  0
  7  6  1  0  0  0  0
  9  5  1  0  0  0  0
  9  7  2  0  0  0  0
 10 21  1  0  0  0  0
 11 13  1  0  0  0  0
 11 52  1  1  0  0  0
 12 20  1  0  0  0  0
 13 15  1  0  0  0  0
 14 12  1  0  0  0  0
 16 24  1  0  0  0  0
 17  2  1  0  0  0  0
 18 17  1  0  0  0  0
 19 33  1  6  0  0  0
 20  1  1  0  0  0  0
 21  8  1  6  0  0  0
 21  3  1  0  0  0  0
 22 11  1  0  0  0  0
 23 19  1  0  0  0  0
 23 15  1  0  0  0  0
 24 26  1  1  0  0  0
 24 14  1  0  0  0  0
 25 31  1  0  0  0  0
 26 32  1  0  0  0  0
 28 25  1  6  0  0  0
 28 32  1  0  0  0  0
 28 31  1  0  0  0  0
 29 30  1  0  0  0  0
 29 26  2  0  0  0  0
 30 28  1  0  0  0  0
 31 27  1  1  0  0  0
 33 34  1  0  0  0  0
 34 38  1  0  0  0  0
 35 40  1  0  0  0  0
 37 44  1  6  0  0  0
 37 40  1  0  0  0  0
 38 36  1  0  0  0  0
 39 37  1  0  0  0  0
 39 38  1  0  0  0  0
 40 41  1  0  0  0  0
 41 36  1  0  0  0  0
 41 45  1  1  0  0  0
 43 44  1  0  0  0  0
 44 42  1  0  0  0  0
 45 46  1  0  0  0  0
 46 47  1  0  0  0  0
 47 49  1  0  0  0  0
 47 48  1  1  0  0  0
 51 50  1  0  0  0  0
 51 49  1  0  0  0  0
 53 52  1  0  0  0  0
 53 55  1  0  0  0  0
 55 54  3  0  0  0  0
M  END
>  <MODEL>
6

>  <REMARK>
 VINA RESULT:      -5.9      1.824      2.605
  Name = 
  13 active torsions:
  status: ('A' for Active; 'I' for Inactive)
    1  A    between atoms: C_3  and  C_6
    2  A    between atoms: C_3  and  O_21
    3  A    between atoms: C_6  and  O_25
    4  A    between atoms: C_8  and  N_20
    5  A    between atoms: C_8  and  C_22
    6  A    between atoms: C_12  and  C_50
    7  A    between atoms: C_13  and  C_52
    8  A    between atoms: O_21  and  C_53
    9  A    between atoms: C_22  and  C_43
   10  A    between atoms: O_25  and  C_38
   11  A    between atoms: C_27  and  C_54
   12  A    between atoms: C_41  and  O_55
   13  A    between atoms: C_54  and  O_55
                            x       y       z     vdW  Elec       q    Type
                         _______ _______ _______ _____ _____    ______ ____

>  <TORSDO>
F 13

$$$$
=
 OpenBabel11052419313D

 55 59  0  0  1  0  0  0  0  0999 V2000
  197.2180  173.2290  143.3210 C   0  0  0  0  0  2  0  0  0  0  0  0
  191.8130  170.1240  142.0590 O   0  0  0  0  0  0  0  0  0  0  0  0
  190.5050  171.7210  139.0630 N   0  0  0  0  0  2  0  0  0  0  0  0
  190.9590  173.8840  136.9830 C   0  0  0  0  0  3  0  0  0  0  0  0
  191.6850  174.4900  135.9550 C   0  0  0  0  0  3  0  0  0  0  0  0
  192.7850  174.2990  138.5310 C   0  0  0  0  0  0  0  0  0  0  0  0
  193.5060  174.9090  137.4900 C   0  0  0  0  0  3  0  0  0  0  0  0
  189.3930  173.8340  139.6030 C   0  0  0  0  0  1  0  0  0  0  0  0
  192.9580  175.0040  136.2100 C   0  0  0  0  0  3  0  0  0  0  0  0
  191.4990  173.7920  138.2760 C   0  0  0  0  0  0  0  0  0  0  0  0
  196.5000  171.1150  144.0380 C   0  0  1  0  0  3  0  0  0  0  0  0
  196.1760  175.1570  142.0700 C   0  0  0  0  0  2  0  0  0  0  0  0
  196.1620  169.7930  143.3490 C   0  0  0  0  0  2  0  0  0  0  0  0
  194.8430  174.5520  141.6440 C   0  0  0  0  0  2  0  0  0  0  0  0
  194.6640  169.5420  143.2030 C   0  0  0  0  0  2  0  0  0  0  0  0
  193.3300  174.1840  139.8180 O   0  0  0  0  0  0  0  0  0  0  0  0
  191.8050  170.4620  140.6960 C   0  0  0  0  0  2  0  0  0  0  0  0
  190.4350  170.9990  140.3250 C   0  0  0  0  0  2  0  0  0  0  0  0
  192.9030  170.7730  142.6820 C   0  0  1  0  0  3  0  0  0  0  0  0
  197.2890  174.1150  142.0870 C   0  0  0  0  0  2  0  0  0  0  0  0
  190.7220  173.1280  139.3740 C   0  0  2  0  0  3  0  0  0  0  0  0
  196.1560  172.2430  143.1830 N   0  0  0  0  0  2  0  0  0  0  0  0
  194.1290  170.3260  142.1790 O   0  0  0  0  0  0  0  0  0  0  0  0
  194.6900  174.4800  140.1270 C   0  0  2  0  0  3  0  0  0  0  0  0
  196.1700  170.5050  137.7590 C   0  0  0  0  0  2  0  0  0  0  0  0
  195.5790  173.4280  139.5410 C   0  0  0  0  0  0  0  0  0  0  0  0
  196.4060  169.1390  139.8180 C   0  0  0  0  0  1  0  0  0  0  0  0
  196.5380  171.4540  138.8740 C   0  0  2  0  0  0  0  0  0  0  0  0
  196.6730  173.7110  138.8420 C   0  0  0  0  0  3  0  0  0  0  0  0
  197.2970  172.5480  138.4160 O   0  0  0  0  0  0  0  0  0  0  0  0
  197.1330  170.0580  138.8550 C   0  0  2  0  0  3  0  0  0  0  0  0
  195.3440  171.9540  139.6630 C   0  0  0  0  0  2  0  0  0  0  0  0
  192.8050  172.2960  142.6200 C   0  0  0  0  0  2  0  0  0  0  0  0
  191.5290  172.7840  143.2840 C   0  0  0  0  0  2  0  0  0  0  0  0
  192.1900  176.0080  143.2360 C   0  0  0  0  0  1  0  0  0  0  0  0
  190.6210  173.7660  145.2590 C   0  0  0  0  0  2  0  0  0  0  0  0
  192.9090  175.1390  145.3820 C   0  0  2  0  0  3  0  0  0  0  0  0
  191.7540  173.0110  144.7070 N   0  0  0  0  0  0  0  0  0  0  0  0
  193.0470  173.6940  144.8850 C   0  0  0  0  0  2  0  0  0  0  0  0
  191.8700  175.8930  144.6540 N   0  0  0  0  0  0  0  0  0  0  0  0
  190.5620  175.2250  144.7460 C   0  0  2  0  0  3  0  0  0  0  0  0
  195.3520  174.9170  145.9580 C   0  0  0  0  0  1  0  0  0  0  0  0
  194.1920  177.0600  146.4830 C   0  0  0  0  0  1  0  0  0  0  0  0
  194.2500  175.8710  145.5370 C   0  0  0  0  0  3  0  0  0  0  0  0
  189.7110  175.9750  145.5610 O   0  0  0  0  0  0  0  0  0  0  0  0
  189.6560  177.2380  144.9650 C   0  0  0  0  0  2  0  0  0  0  0  0
  188.6100  177.2640  143.8590 C   0  0  2  0  0  3  0  0  0  0  0  0
  189.1190  177.9230  142.7380 O   0  0  0  0  0  1  0  0  0  0  0  0
  187.4530  177.9120  144.3010 O   0  0  0  0  0  0  0  0  0  0  0  0
  185.4450  178.8990  143.4970 C   0  0  0  0  0  1  0  0  0  0  0  0
  186.7040  178.1340  143.1440 C   0  0  0  0  0  2  0  0  0  0  0  0
  195.8130  171.2270  145.3990 C   0  0  0  0  0  2  0  0  0  0  0  0
  196.3320  170.2720  146.3150 O   0  0  0  0  0  0  0  0  0  0  0  0
  194.8100  168.5860  147.4230 N   0  0  0  0  0  0  0  0  0  0  0  0
  195.5090  169.3580  146.9160 C   0  0  0  0  0  0  0  0  0  0  0  0
  2 19  1  0  0  0  0
  3 21  1  0  0  0  0
  3 18  1  0  0  0  0
  4 10  1  0  0  0  0
  5  9  1  0  0  0  0
  5  4  2  0  0  0  0
  6 16  1  0  0  0  0
  7  6  1  0  0  0  0
  9  7  2  0  0  0  0
 10  6  2  0  0  0  0
 10 21  1  0  0  0  0
 11 52  1  1  0  0  0
 12 20  1  0  0  0  0
 13 11  1  0  0  0  0
 14 12  1  0  0  0  0
 15 13  1  0  0  0  0
 16 24  1  0  0  0  0
 17  2  1  0  0  0  0
 18 17  1  0  0  0  0
 19 33  1  6  0  0  0
 20  1  1  0  0  0  0
 21  8  1  6  0  0  0
 22  1  1  0  0  0  0
 22 11  1  0  0  0  0
 23 19  1  0  0  0  0
 23 15  1  0  0  0  0
 24 26  1  1  0  0  0
 24 14  1  0  0  0  0
 25 31  1  0  0  0  0
 26 32  1  0  0  0  0
 28 25  1  6  0  0  0
 28 32  1  0  0  0  0
 29 26  2  0  0  0  0
 30 29  1  0  0  0  0
 30 28  1  0  0  0  0
 31 28  1  0  0  0  0
 31 27  1  1  0  0  0
 33 34  1  0  0  0  0
 34 38  1  0  0  0  0
 35 40  1  0  0  0  0
 37 44  1  6  0  0  0
 38 39  1  0  0  0  0
 38 36  1  0  0  0  0
 39 37  1  0  0  0  0
 40 41  1  0  0  0  0
 40 37  1  0  0  0  0
 41 36  1  0  0  0  0
 41 45  1  1  0  0  0
 44 42  1  0  0  0  0
 44 43  1  0  0  0  0
 46 45  1  0  0  0  0
 47 48  1  6  0  0  0
 47 49  1  0  0  0  0
 47 46  1  0  0  0  0
 51 50  1  0  0  0  0
 51 49  1  0  0  0  0
 52 53  1  0  0  0  0
 53 55  1  0  0  0  0
 55 54  3  0  0  0  0
M  END
>  <MODEL>
7

>  <REMARK>
 VINA RESULT:      -5.9      2.041      3.336
  Name = 
  13 active torsions:
  status: ('A' for Active; 'I' for Inactive)
    1  A    between atoms: C_3  and  C_6
    2  A    between atoms: C_3  and  O_21
    3  A    between atoms: C_6  and  O_25
    4  A    between atoms: C_8  and  N_20
    5  A    between atoms: C_8  and  C_22
    6  A    between atoms: C_12  and  C_50
    7  A    between atoms: C_13  and  C_52
    8  A    between atoms: O_21  and  C_53
    9  A    between atoms: C_22  and  C_43
   10  A    between atoms: O_25  and  C_38
   11  A    between atoms: C_27  and  C_54
   12  A    between atoms: C_41  and  O_55
   13  A    between atoms: C_54  and  O_55
                            x       y       z     vdW  Elec       q    Type
                         _______ _______ _______ _____ _____    ______ ____

>  <TORSDO>
F 13

$$$$
=
 OpenBabel11052419313D

 55 59  0  0  1  0  0  0  0  0999 V2000
  193.8940  176.7520  145.5380 C   0  0  0  0  0  2  0  0  0  0  0  0
  188.9210  173.3880  143.4400 O   0  0  0  0  0  0  0  0  0  0  0  0
  190.0980  171.8040  140.3830 N   0  0  0  0  0  2  0  0  0  0  0  0
  192.4470  171.4580  138.4920 C   0  0  0  0  0  3  0  0  0  0  0  0
  193.7510  171.0630  138.1860 C   0  0  0  0  0  3  0  0  0  0  0  0
  193.3050  173.1200  140.0440 C   0  0  0  0  0  0  0  0  0  0  0  0
  194.6130  172.7150  139.7270 C   0  0  0  0  0  3  0  0  0  0  0  0
  190.0730  173.3770  138.5080 C   0  0  0  0  0  1  0  0  0  0  0  0
  194.8340  171.6920  138.8020 C   0  0  0  0  0  3  0  0  0  0  0  0
  192.2160  172.4910  139.4140 C   0  0  0  0  0  0  0  0  0  0  0  0
  191.9910  176.0100  146.6910 C   0  0  1  0  0  3  0  0  0  0  0  0
  194.6400  176.7880  143.1290 C   0  0  0  0  0  2  0  0  0  0  0  0
  191.3990  174.6440  147.0410 C   0  0  0  0  0  2  0  0  0  0  0  0
  193.5460  175.9610  142.4630 C   0  0  0  0  0  2  0  0  0  0  0  0
  190.2300  174.2350  146.1500 C   0  0  0  0  0  2  0  0  0  0  0  0
  193.0690  174.1360  140.9810 O   0  0  0  0  0  0  0  0  0  0  0  0
  189.7010  172.4940  142.6860 C   0  0  0  0  0  2  0  0  0  0  0  0
  189.1180  172.3820  141.2900 C   0  0  0  0  0  2  0  0  0  0  0  0
  189.7680  174.3750  143.9920 C   0  0  1  0  0  3  0  0  0  0  0  0
  194.9430  176.2940  144.5380 C   0  0  0  0  0  2  0  0  0  0  0  0
  190.8140  172.9050  139.7500 C   0  0  2  0  0  3  0  0  0  0  0  0
  192.6810  175.9580  145.4090 N   0  0  0  0  0  2  0  0  0  0  0  0
  190.6850  173.8260  144.8950 O   0  0  0  0  0  0  0  0  0  0  0  0
  194.0840  174.6890  141.8160 C   0  0  2  0  0  3  0  0  0  0  0  0
  196.4000  172.5970  145.5390 C   0  0  0  0  0  2  0  0  0  0  0  0
  194.4890  173.6830  142.8490 C   0  0  0  0  0  0  0  0  0  0  0  0
  197.9370  171.2920  144.0910 C   0  0  0  0  0  1  0  0  0  0  0  0
  195.6520  172.3000  144.2610 C   0  0  2  0  0  0  0  0  0  0  0  0
  193.6140  173.0230  143.5990 C   0  0  0  0  0  3  0  0  0  0  0  0
  194.2670  172.1650  144.4720 O   0  0  0  0  0  0  0  0  0  0  0  0
  196.6090  171.2660  144.8230 C   0  0  2  0  0  3  0  0  0  0  0  0
  195.9050  173.3130  143.1620 C   0  0  0  0  0  2  0  0  0  0  0  0
  190.4760  175.2150  142.9320 C   0  0  0  0  0  2  0  0  0  0  0  0
  189.4790  175.7830  141.9360 C   0  0  0  0  0  2  0  0  0  0  0  0
  186.2890  175.8380  142.7500 C   0  0  0  0  0  1  0  0  0  0  0  0
  189.1560  177.4660  143.5960 C   0  0  0  0  0  2  0  0  0  0  0  0
  186.9560  178.1090  142.2240 C   0  0  2  0  0  3  0  0  0  0  0  0
  189.3050  177.2150  142.1560 N   0  0  0  0  0  0  0  0  0  0  0  0
  188.1550  177.6850  141.3640 C   0  0  0  0  0  2  0  0  0  0  0  0
  186.6550  177.1400  143.2960 N   0  0  0  0  0  0  0  0  0  0  0  0
  187.8220  176.9280  144.1670 C   0  0  2  0  0  3  0  0  0  0  0  0
  184.4470  178.3440  142.1690 C   0  0  0  0  0  1  0  0  0  0  0  0
  185.6560  177.9320  140.0270 C   0  0  0  0  0  1  0  0  0  0  0  0
  185.7400  178.5680  141.4060 C   0  0  0  0  0  3  0  0  0  0  0  0
  187.5810  177.5020  145.4170 O   0  0  0  0  0  0  0  0  0  0  0  0
  186.4390  176.8570  145.9010 C   0  0  0  0  0  2  0  0  0  0  0  0
  185.4400  177.8710  146.4420 C   0  0  2  0  0  3  0  0  0  0  0  0
  185.6540  179.1150  145.8430 O   0  0  0  0  0  1  0  0  0  0  0  0
  185.5700  177.9870  147.8280 O   0  0  0  0  0  0  0  0  0  0  0  0
  187.5160  178.9790  148.7660 C   0  0  0  0  0  1  0  0  0  0  0  0
  186.2150  179.2100  148.0260 C   0  0  0  0  0  2  0  0  0  0  0  0
  190.9200  177.1000  146.6950 C   0  0  0  0  0  2  0  0  0  0  0  0
  190.3330  177.2380  147.9820 O   0  0  0  0  0  0  0  0  0  0  0  0
  191.6200  178.2920  149.8840 N   0  0  0  0  0  0  0  0  0  0  0  0
  191.0300  177.8080  149.0130 C   0  0  0  0  0  0  0  0  0  0  0  0
  2 19  1  0  0  0  0
  3 18  1  0  0  0  0
  4 10  1  0  0  0  0
  5  4  2  0  0  0  0
  5  9  1  0  0  0  0
  6 16  1  0  0  0  0
  7  6  1  0  0  0  0
  9  7  2  0  0  0  0
 10 21  1  0  0  0  0
 10  6  2  0  0  0  0
 11 52  1  6  0  0  0
 11 13  1  0  0  0  0
 12 20  1  0  0  0  0
 14 12  1  0  0  0  0
 15 13  1  0  0  0  0
 16 24  1  0  0  0  0
 17  2  1  0  0  0  0
 18 17  1  0  0  0  0
 19 33  1  6  0  0  0
 19 23  1  0  0  0  0
 20  1  1  0  0  0  0
 21  8  1  6  0  0  0
 21  3  1  0  0  0  0
 22  1  1  0  0  0  0
 22 11  1  0  0  0  0
 23 15  1  0  0  0  0
 24 14  1  0  0  0  0
 24 26  1  1  0  0  0
 26 32  1  0  0  0  0
 26 29  2  0  0  0  0
 28 32  1  6  0  0  0
 28 30  1  0  0  0  0
 28 31  1  0  0  0  0
 28 25  1  0  0  0  0
 29 30  1  0  0  0  0
 31 27  1  6  0  0  0
 31 25  1  0  0  0  0
 34 38  1  0  0  0  0
 34 33  1  0  0  0  0
 35 40  1  0  0  0  0
 36 41  1  0  0  0  0
 37 44  1  6  0  0  0
 37 40  1  0  0  0  0
 38 36  1  0  0  0  0
 39 38  1  0  0  0  0
 39 37  1  0  0  0  0
 40 41  1  0  0  0  0
 41 45  1  1  0  0  0
 43 44  1  0  0  0  0
 44 42  1  0  0  0  0
 45 46  1  0  0  0  0
 46 47  1  0  0  0  0
 47 48  1  6  0  0  0
 47 49  1  0  0  0  0
 49 51  1  0  0  0  0
 51 50  1  0  0  0  0
 52 53  1  0  0  0  0
 53 55  1  0  0  0  0
 55 54  3  0  0  0  0
M  END
>  <MODEL>
8

>  <REMARK>
 VINA RESULT:      -5.5      2.316      4.151
  Name = 
  13 active torsions:
  status: ('A' for Active; 'I' for Inactive)
    1  A    between atoms: C_3  and  C_6
    2  A    between atoms: C_3  and  O_21
    3  A    between atoms: C_6  and  O_25
    4  A    between atoms: C_8  and  N_20
    5  A    between atoms: C_8  and  C_22
    6  A    between atoms: C_12  and  C_50
    7  A    between atoms: C_13  and  C_52
    8  A    between atoms: O_21  and  C_53
    9  A    between atoms: C_22  and  C_43
   10  A    between atoms: O_25  and  C_38
   11  A    between atoms: C_27  and  C_54
   12  A    between atoms: C_41  and  O_55
   13  A    between atoms: C_54  and  O_55
                            x       y       z     vdW  Elec       q    Type
                         _______ _______ _______ _____ _____    ______ ____

>  <TORSDO>
F 13

$$$$
=
 OpenBabel11052419313D

 55 59  0  0  1  0  0  0  0  0999 V2000
  189.7640  177.3780  142.3900 C   0  0  0  0  0  2  0  0  0  0  0  0
  190.6840  171.1210  141.7190 O   0  0  0  0  0  0  0  0  0  0  0  0
  193.8850  170.4780  143.3250 N   0  0  0  0  0  2  0  0  0  0  0  0
  196.2230  171.7080  144.8180 C   0  0  0  0  0  3  0  0  0  0  0  0
  196.7910  172.3980  145.8920 C   0  0  0  0  0  3  0  0  0  0  0  0
  194.9260  173.6770  144.2280 C   0  0  0  0  0  0  0  0  0  0  0  0
  195.5050  174.3610  145.3100 C   0  0  0  0  0  3  0  0  0  0  0  0
  195.7460  171.1060  141.8640 C   0  0  0  0  0  1  0  0  0  0  0  0
  196.4320  173.7250  146.1370 C   0  0  0  0  0  3  0  0  0  0  0  0
  195.2960  172.3440  143.9770 C   0  0  0  0  0  0  0  0  0  0  0  0
  188.2170  175.6750  141.9340 C   0  0  1  0  0  3  0  0  0  0  0  0
  192.2770  177.5360  142.5420 C   0  0  0  0  0  2  0  0  0  0  0  0
  187.7190  174.4350  142.6780 C   0  0  0  0  0  2  0  0  0  0  0  0
  192.6760  176.0680  142.4370 C   0  0  0  0  0  2  0  0  0  0  0  0
  188.3330  173.1310  142.1760 C   0  0  0  0  0  2  0  0  0  0  0  0
  193.9830  174.3000  143.3980 O   0  0  0  0  0  0  0  0  0  0  0  0
  191.5660  171.0210  142.8080 C   0  0  0  0  0  2  0  0  0  0  0  0
  192.8030  170.2570  142.3760 C   0  0  0  0  0  2  0  0  0  0  0  0
  190.3460  172.4800  141.5330 C   0  0  1  0  0  3  0  0  0  0  0  0
  190.9530  177.7100  143.2770 C   0  0  0  0  0  2  0  0  0  0  0  0
  194.6790  171.5960  142.8310 C   0  0  2  0  0  3  0  0  0  0  0  0
  189.6150  175.9370  142.2500 N   0  0  0  0  0  2  0  0  0  0  0  0
  189.6460  172.9960  142.6300 O   0  0  0  0  0  0  0  0  0  0  0  0
  193.3950  175.5660  143.6860 C   0  0  2  0  0  3  0  0  0  0  0  0
  190.0260  176.6300  147.0200 C   0  0  0  0  0  2  0  0  0  0  0  0
  192.4500  175.4320  144.8400 C   0  0  0  0  0  0  0  0  0  0  0  0
  191.6790  177.1000  148.8120 C   0  0  0  0  0  1  0  0  0  0  0  0
  191.2240  175.7520  146.7520 C   0  0  2  0  0  0  0  0  0  0  0  0
  191.6330  174.3950  144.9900 C   0  0  0  0  0  3  0  0  0  0  0  0
  190.8690  174.5360  146.1380 O   0  0  0  0  0  0  0  0  0  0  0  0
  190.8080  176.0280  148.1840 C   0  0  2  0  0  3  0  0  0  0  0  0
  192.3070  176.4360  145.9410 C   0  0  0  0  0  2  0  0  0  0  0  0
  191.5500  173.3540  141.1890 C   0  0  0  0  0  2  0  0  0  0  0  0
  192.0430  173.0660  139.7810 C   0  0  0  0  0  2  0  0  0  0  0  0
  193.8240  171.4900  137.5040 C   0  0  0  0  0  1  0  0  0  0  0  0
  192.4020  174.5500  137.9490 C   0  0  0  0  0  2  0  0  0  0  0  0
  194.9040  173.6150  137.9450 C   0  0  2  0  0  3  0  0  0  0  0  0
  192.8570  174.1740  139.2940 N   0  0  0  0  0  0  0  0  0  0  0  0
  194.2770  173.7810  139.3360 C   0  0  0  0  0  2  0  0  0  0  0  0
  194.0450  172.8500  137.0230 N   0  0  0  0  0  0  0  0  0  0  0  0
  192.7200  173.4760  136.8820 C   0  0  2  0  0  3  0  0  0  0  0  0
  197.1100  173.7940  139.1510 C   0  0  0  0  0  1  0  0  0  0  0  0
  197.1230  173.4390  136.6830 C   0  0  0  0  0  1  0  0  0  0  0  0
  196.3740  173.1710  137.9790 C   0  0  0  0  0  3  0  0  0  0  0  0
  192.6000  174.0310  135.6060 O   0  0  0  0  0  0  0  0  0  0  0  0
  191.2290  174.0190  135.3310 C   0  0  0  0  0  2  0  0  0  0  0  0
  190.8090  175.3130  134.6460 C   0  0  2  0  0  3  0  0  0  0  0  0
  191.7380  176.3190  134.9210 O   0  0  0  0  0  1  0  0  0  0  0  0
  189.5440  175.7070  135.0880 O   0  0  0  0  0  0  0  0  0  0  0  0
  188.0020  177.5130  134.9660 C   0  0  0  0  0  1  0  0  0  0  0  0
  189.3430  176.9670  134.5210 C   0  0  0  0  0  2  0  0  0  0  0  0
  188.0100  175.5430  140.4260 C   0  0  0  0  0  2  0  0  0  0  0  0
  187.1070  176.5280  139.9440 O   0  0  0  0  0  0  0  0  0  0  0  0
  186.2040  178.3200  141.4810 N   0  0  0  0  0  0  0  0  0  0  0  0
  186.6170  177.4980  140.7770 C   0  0  0  0  0  0  0  0  0  0  0  0
  1 20  1  0  0  0  0
  2 17  1  0  0  0  0
  4  5  1  0  0  0  0
  5  9  2  0  0  0  0
  6  7  2  0  0  0  0
  7  9  1  0  0  0  0
 10  6  1  0  0  0  0
 10  4  2  0  0  0  0
 11 52  1  6  0  0  0
 11 22  1  0  0  0  0
 11 13  1  0  0  0  0
 12 20  1  0  0  0  0
 14 12  1  0  0  0  0
 14 24  1  0  0  0  0
 15 23  1  0  0  0  0
 15 13  1  0  0  0  0
 16 24  1  0  0  0  0
 16  6  1  0  0  0  0
 18 17  1  0  0  0  0
 18  3  1  0  0  0  0
 19 33  1  1  0  0  0
 19  2  1  0  0  0  0
 19 23  1  0  0  0  0
 21  8  1  6  0  0  0
 21  3  1  0  0  0  0
 21 10  1  0  0  0  0
 22  1  1  0  0  0  0
 24 26  1  1  0  0  0
 25 31  1  0  0  0  0
 26 29  2  0  0  0  0
 26 32  1  0  0  0  0
 28 32  1  6  0  0  0
 28 25  1  0  0  0  0
 28 31  1  0  0  0  0
 29 30  1  0  0  0  0
 30 28  1  0  0  0  0
 31 27  1  1  0  0  0
 34 33  1  0  0  0  0
 36 38  1  0  0  0  0
 37 44  1  1  0  0  0
 37 39  1  0  0  0  0
 38 39  1  0  0  0  0
 38 34  1  0  0  0  0
 40 35  1  0  0  0  0
 40 37  1  0  0  0  0
 41 45  1  6  0  0  0
 41 40  1  0  0  0  0
 41 36  1  0  0  0  0
 43 44  1  0  0  0  0
 44 42  1  0  0  0  0
 46 45  1  0  0  0  0
 47 48  1  1  0  0  0
 47 49  1  0  0  0  0
 47 46  1  0  0  0  0
 51 50  1  0  0  0  0
 51 49  1  0  0  0  0
 53 52  1  0  0  0  0
 53 55  1  0  0  0  0
 55 54  3  0  0  0  0
M  END
>  <MODEL>
9

>  <REMARK>
 VINA RESULT:      -5.5      2.551      8.201
  Name = 
  13 active torsions:
  status: ('A' for Active; 'I' for Inactive)
    1  A    between atoms: C_3  and  C_6
    2  A    between atoms: C_3  and  O_21
    3  A    between atoms: C_6  and  O_25
    4  A    between atoms: C_8  and  N_20
    5  A    between atoms: C_8  and  C_22
    6  A    between atoms: C_12  and  C_50
    7  A    between atoms: C_13  and  C_52
    8  A    between atoms: O_21  and  C_53
    9  A    between atoms: C_22  and  C_43
   10  A    between atoms: O_25  and  C_38
   11  A    between atoms: C_27  and  C_54
   12  A    between atoms: C_41  and  O_55
   13  A    between atoms: C_54  and  O_55
                            x       y       z     vdW  Elec       q    Type
                         _______ _______ _______ _____ _____    ______ ____

>  <TORSDO>
F 13

$$$$
