=
 OpenBabel11052418193D

 27 31  0  0  1  0  0  0  0  0999 V2000
  188.6940  177.4710  143.6320 O   0  0  0  0  0  0  0  0  0  0  0  0
  188.9470  175.2060  142.9270 C   0  0  0  0  0  0  0  0  0  0  0  0
  187.3110  176.3450  141.4080 N   0  0  0  0  0  2  0  0  0  0  0  0
  189.9780  172.7820  139.5500 C   0  0  0  0  0  2  0  0  0  0  0  0
  189.8500  174.0020  137.4360 N   0  0  0  0  0  1  0  0  0  0  0  0
  189.9200  174.1950  143.1020 C   0  0  0  0  0  3  0  0  0  0  0  0
  188.3190  174.4810  139.2340 C   0  0  0  0  0  0  0  0  0  0  0  0
  184.2620  177.8600  142.9170 C   0  0  0  0  0  2  0  0  0  0  0  0
  187.4360  175.2230  138.7300 O   0  0  0  0  0  0  0  0  0  0  0  0
  184.3520  179.1750  143.6970 C   0  0  0  0  0  2  0  0  0  0  0  0
  188.7580  174.5340  140.6100 C   0  0  0  0  0  0  0  0  0  0  0  0
  188.5800  176.1360  144.0650 C   0  0  1  0  0  3  0  0  0  0  0  0
  189.0480  173.4100  138.4930 C   0  0  2  0  0  3  0  0  0  0  0  0
  189.7070  173.5620  140.7960 C   0  0  0  0  0  0  0  0  0  0  0  0
  187.4160  177.9670  143.2810 C   0  0  2  0  0  3  0  0  0  0  0  0
  188.3340  175.3670  141.6550 C   0  0  0  0  0  0  0  0  0  0  0  0
  185.3390  177.7090  141.8510 C   0  0  0  0  0  2  0  0  0  0  0  0
  190.3020  173.3660  142.0390 C   0  0  0  0  0  3  0  0  0  0  0  0
  185.7650  179.6500  144.0550 C   0  0  0  0  0  2  0  0  0  0  0  0
  186.6890  178.5260  144.5010 C   0  0  0  0  0  2  0  0  0  0  0  0
  186.5390  176.9980  142.4580 C   0  0  1  0  0  3  0  0  0  0  0  0
  190.8260  175.5880  147.6920 C   0  0  0  0  0  3  0  0  0  0  0  0
  189.3590  175.9260  145.3290 C   0  0  0  0  0  0  0  0  0  0  0  0
  190.5690  176.6070  145.5100 C   0  0  0  0  0  3  0  0  0  0  0  0
  191.3010  176.4370  146.6880 C   0  0  0  0  0  3  0  0  0  0  0  0
  189.6160  174.9080  147.5180 C   0  0  0  0  0  3  0  0  0  0  0  0
  188.8830  175.0790  146.3400 C   0  0  0  0  0  3  0  0  0  0  0  0
  1 12  1  0  0  0  0
  2  6  1  0  0  0  0
  2 12  1  0  0  0  0
  3 16  1  0  0  0  0
  3 21  1  0  0  0  0
  4 14  1  0  0  0  0
  7 11  1  0  0  0  0
  8 10  1  0  0  0  0
  9  7  2  0  0  0  0
 10 19  1  0  0  0  0
 11 14  2  0  0  0  0
 11 16  1  0  0  0  0
 12 23  1  1  0  0  0
 13  5  1  6  0  0  0
 13  7  1  0  0  0  0
 13  4  1  0  0  0  0
 14 18  1  0  0  0  0
 15  1  1  0  0  0  0
 15 20  1  1  0  0  0
 16  2  2  0  0  0  0
 17  8  1  0  0  0  0
 18  6  2  0  0  0  0
 19 20  1  0  0  0  0
 21 17  1  6  0  0  0
 21 15  1  0  0  0  0
 23 24  2  0  0  0  0
 23 27  1  0  0  0  0
 24 25  1  0  0  0  0
 25 22  2  0  0  0  0
 26 22  1  0  0  0  0
 27 26  2  0  0  0  0
M  END
>  <MODEL>
1

>  <REMARK>
 VINA RESULT:      -8.4      0.000      0.000
  Name = 
  1 active torsions:
  status: ('A' for Active; 'I' for Inactive)
    1  A    between atoms: C_9  and  C_15
                            x       y       z     vdW  Elec       q    Type
                         _______ _______ _______ _____ _____    ______ ____

>  <TORSDO>
F 1

$$$$
=
 OpenBabel11052418193D

 27 31  0  0  1  0  0  0  0  0999 V2000
  188.1440  177.6770  143.1740 O   0  0  0  0  0  0  0  0  0  0  0  0
  188.9780  176.8730  145.2590 C   0  0  0  0  0  0  0  0  0  0  0  0
  190.3950  175.9460  143.4120 N   0  0  0  0  0  2  0  0  0  0  0  0
  192.5040  176.7020  147.6820 C   0  0  0  0  0  2  0  0  0  0  0  0
  194.5460  177.1560  146.4150 N   0  0  0  0  0  1  0  0  0  0  0  0
  188.8800  177.2760  146.6110 C   0  0  0  0  0  3  0  0  0  0  0  0
  192.6900  176.0040  145.3980 C   0  0  0  0  0  0  0  0  0  0  0  0
  188.7390  173.9160  140.7660 C   0  0  0  0  0  2  0  0  0  0  0  0
  193.1340  175.5590  144.3070 O   0  0  0  0  0  0  0  0  0  0  0  0
  187.8890  174.5920  139.6850 C   0  0  0  0  0  2  0  0  0  0  0  0
  191.3230  176.4110  145.6330 C   0  0  0  0  0  0  0  0  0  0  0  0
  187.7830  176.9650  144.3330 C   0  0  1  0  0  3  0  0  0  0  0  0
  193.5060  176.1670  146.6380 C   0  0  2  0  0  3  0  0  0  0  0  0
  191.2120  176.8100  146.9400 C   0  0  0  0  0  0  0  0  0  0  0  0
  188.4390  176.7690  142.1300 C   0  0  2  0  0  3  0  0  0  0  0  0
  190.2260  176.4080  144.7610 C   0  0  0  0  0  0  0  0  0  0  0  0
  189.8340  174.8110  141.3270 C   0  0  0  0  0  2  0  0  0  0  0  0
  189.9960  177.2430  147.4590 C   0  0  0  0  0  3  0  0  0  0  0  0
  187.5370  176.0640  139.9280 C   0  0  0  0  0  2  0  0  0  0  0  0
  187.1750  176.3710  141.3740 C   0  0  0  0  0  2  0  0  0  0  0  0
  189.2940  175.5500  142.5420 C   0  0  1  0  0  3  0  0  0  0  0  0
  184.2320  178.6800  146.0520 C   0  0  0  0  0  3  0  0  0  0  0  0
  186.5490  177.5550  144.9490 C   0  0  0  0  0  0  0  0  0  0  0  0
  186.1580  178.8510  144.5920 C   0  0  0  0  0  3  0  0  0  0  0  0
  185.0020  179.4130  145.1430 C   0  0  0  0  0  3  0  0  0  0  0  0
  184.6180  177.3840  146.4090 C   0  0  0  0  0  3  0  0  0  0  0  0
  185.7720  176.8210  145.8570 C   0  0  0  0  0  3  0  0  0  0  0  0
  1 12  1  0  0  0  0
  2  6  1  0  0  0  0
  3 16  1  0  0  0  0
  6 18  2  0  0  0  0
  7 11  1  0  0  0  0
  7 13  1  0  0  0  0
  8 17  1  0  0  0  0
  9  7  2  0  0  0  0
 10 19  1  0  0  0  0
 10  8  1  0  0  0  0
 11 14  2  0  0  0  0
 12 23  1  1  0  0  0
 12  2  1  0  0  0  0
 13  5  1  6  0  0  0
 13  4  1  0  0  0  0
 14 18  1  0  0  0  0
 14  4  1  0  0  0  0
 15 20  1  1  0  0  0
 15 21  1  0  0  0  0
 15  1  1  0  0  0  0
 16  2  2  0  0  0  0
 16 11  1  0  0  0  0
 19 20  1  0  0  0  0
 21 17  1  6  0  0  0
 21  3  1  0  0  0  0
 22 26  1  0  0  0  0
 23 27  1  0  0  0  0
 24 23  2  0  0  0  0
 24 25  1  0  0  0  0
 25 22  2  0  0  0  0
 27 26  2  0  0  0  0
M  END
>  <MODEL>
2

>  <REMARK>
 VINA RESULT:      -8.1      2.529      6.015
  Name = 
  1 active torsions:
  status: ('A' for Active; 'I' for Inactive)
    1  A    between atoms: C_9  and  C_15
                            x       y       z     vdW  Elec       q    Type
                         _______ _______ _______ _____ _____    ______ ____

>  <TORSDO>
F 1

$$$$
=
 OpenBabel11052418193D

 27 31  0  0  1  0  0  0  0  0999 V2000
  188.4410  175.5500  145.6120 O   0  0  0  0  0  0  0  0  0  0  0  0
  188.2260  176.0290  143.2850 C   0  0  0  0  0  0  0  0  0  0  0  0
  190.4540  174.9530  143.6840 N   0  0  0  0  0  2  0  0  0  0  0  0
  188.3520  174.2180  139.4070 C   0  0  0  0  0  2  0  0  0  0  0  0
  189.4570  172.0370  139.4170 N   0  0  0  0  0  1  0  0  0  0  0  0
  187.1520  176.2730  142.3980 C   0  0  0  0  0  3  0  0  0  0  0  0
  190.1860  173.7990  140.8890 C   0  0  0  0  0  0  0  0  0  0  0  0
  192.8010  176.5900  146.0660 C   0  0  0  0  0  2  0  0  0  0  0  0
  191.2780  173.3980  141.3710 O   0  0  0  0  0  0  0  0  0  0  0  0
  192.5630  176.5020  147.5770 C   0  0  0  0  0  2  0  0  0  0  0  0
  189.2430  174.6550  141.5730 C   0  0  0  0  0  0  0  0  0  0  0  0
  188.2140  176.5900  144.6920 C   0  0  1  0  0  3  0  0  0  0  0  0
  189.6930  173.4660  139.5200 C   0  0  2  0  0  3  0  0  0  0  0  0
  188.1920  174.8990  140.7270 C   0  0  0  0  0  0  0  0  0  0  0  0
  189.8010  175.5480  146.0010 C   0  0  2  0  0  3  0  0  0  0  0  0
  189.3100  175.2160  142.8560 C   0  0  0  0  0  0  0  0  0  0  0  0
  192.2300  175.4120  145.2900 C   0  0  0  0  0  2  0  0  0  0  0  0
  187.1320  175.7130  141.1140 C   0  0  0  0  0  3  0  0  0  0  0  0
  191.1910  175.9740  148.0130 C   0  0  0  0  0  2  0  0  0  0  0  0
  190.0410  176.5020  147.1680 C   0  0  0  0  0  2  0  0  0  0  0  0
  190.8130  175.7490  144.8510 C   0  0  1  0  0  3  0  0  0  0  0  0
  184.6690  178.7640  145.7930 C   0  0  0  0  0  3  0  0  0  0  0  0
  186.9760  177.3540  145.0570 C   0  0  0  0  0  0  0  0  0  0  0  0
  186.0640  176.7910  145.9570 C   0  0  0  0  0  3  0  0  0  0  0  0
  184.9120  177.4930  146.3230 C   0  0  0  0  0  3  0  0  0  0  0  0
  185.5790  179.3330  144.8960 C   0  0  0  0  0  3  0  0  0  0  0  0
  186.7320  178.6310  144.5310 C   0  0  0  0  0  3  0  0  0  0  0  0
  1 15  1  0  0  0  0
  2 12  1  0  0  0  0
  3 21  1  0  0  0  0
  4 13  1  0  0  0  0
  4 14  1  0  0  0  0
  6  2  2  0  0  0  0
  7  9  2  0  0  0  0
  7 11  1  0  0  0  0
  8 10  1  0  0  0  0
 10 19  1  0  0  0  0
 11 16  2  0  0  0  0
 12 23  1  1  0  0  0
 12  1  1  0  0  0  0
 13  5  1  1  0  0  0
 13  7  1  0  0  0  0
 14 18  2  0  0  0  0
 14 11  1  0  0  0  0
 15 20  1  1  0  0  0
 16  2  1  0  0  0  0
 16  3  1  0  0  0  0
 17  8  1  0  0  0  0
 18  6  1  0  0  0  0
 20 19  1  0  0  0  0
 21 17  1  1  0  0  0
 21 15  1  0  0  0  0
 22 25  1  0  0  0  0
 23 24  1  0  0  0  0
 24 25  2  0  0  0  0
 26 22  2  0  0  0  0
 27 26  1  0  0  0  0
 27 23  2  0  0  0  0
M  END
>  <MODEL>
3

>  <REMARK>
 VINA RESULT:      -8.0      1.906      4.939
  Name = 
  1 active torsions:
  status: ('A' for Active; 'I' for Inactive)
    1  A    between atoms: C_9  and  C_15
                            x       y       z     vdW  Elec       q    Type
                         _______ _______ _______ _____ _____    ______ ____

>  <TORSDO>
F 1

$$$$
=
 OpenBabel11052418193D

 27 31  0  0  1  0  0  0  0  0999 V2000
  188.4590  177.1230  142.7040 O   0  0  0  0  0  0  0  0  0  0  0  0
  189.1030  176.6190  144.9450 C   0  0  0  0  0  0  0  0  0  0  0  0
  190.5570  175.3140  143.3760 N   0  0  0  0  0  2  0  0  0  0  0  0
  192.4530  176.6230  147.6130 C   0  0  0  0  0  2  0  0  0  0  0  0
  194.5950  176.7340  146.4410 N   0  0  0  0  0  1  0  0  0  0  0  0
  188.9530  177.2430  146.2050 C   0  0  0  0  0  3  0  0  0  0  0  0
  192.7250  175.5510  145.4880 C   0  0  0  0  0  0  0  0  0  0  0  0
  188.9190  172.9890  140.9740 C   0  0  0  0  0  2  0  0  0  0  0  0
  193.2000  174.9070  144.5170 O   0  0  0  0  0  0  0  0  0  0  0  0
  188.1900  173.5310  139.7400 C   0  0  0  0  0  2  0  0  0  0  0  0
  191.3800  176.0770  145.5570 C   0  0  0  0  0  0  0  0  0  0  0  0
  187.9770  176.6340  143.9320 C   0  0  1  0  0  3  0  0  0  0  0  0
  193.4730  175.8630  146.7420 C   0  0  2  0  0  3  0  0  0  0  0  0
  191.2190  176.6900  146.7720 C   0  0  0  0  0  0  0  0  0  0  0  0
  188.7490  176.0390  141.8420 C   0  0  2  0  0  3  0  0  0  0  0  0
  190.3410  176.0010  144.6190 C   0  0  0  0  0  0  0  0  0  0  0  0
  190.0420  173.8920  141.4630 C   0  0  0  0  0  2  0  0  0  0  0  0
  190.0090  177.2780  147.1260 C   0  0  0  0  0  3  0  0  0  0  0  0
  187.9340  175.0430  139.7210 C   0  0  0  0  0  2  0  0  0  0  0  0
  187.5070  175.6040  141.0690 C   0  0  0  0  0  2  0  0  0  0  0  0
  189.4850  174.8530  142.5030 C   0  0  1  0  0  3  0  0  0  0  0  0
  184.4840  178.8010  145.2020 C   0  0  0  0  0  3  0  0  0  0  0  0
  186.7550  177.3940  144.3570 C   0  0  0  0  0  0  0  0  0  0  0  0
  185.9290  176.8620  145.3530 C   0  0  0  0  0  3  0  0  0  0  0  0
  184.7950  177.5630  145.7750 C   0  0  0  0  0  3  0  0  0  0  0  0
  185.3090  179.3370  144.2080 C   0  0  0  0  0  3  0  0  0  0  0  0
  186.4430  178.6380  143.7880 C   0  0  0  0  0  3  0  0  0  0  0  0
  1 12  1  0  0  0  0
  2  6  1  0  0  0  0
  3 16  1  0  0  0  0
  6 18  2  0  0  0  0
  7 11  1  0  0  0  0
  7 13  1  0  0  0  0
  8 17  1  0  0  0  0
  9  7  2  0  0  0  0
 10  8  1  0  0  0  0
 11 14  2  0  0  0  0
 12 23  1  1  0  0  0
 12  2  1  0  0  0  0
 13  5  1  6  0  0  0
 13  4  1  0  0  0  0
 14 18  1  0  0  0  0
 14  4  1  0  0  0  0
 15 20  1  1  0  0  0
 15 21  1  0  0  0  0
 15  1  1  0  0  0  0
 16  2  2  0  0  0  0
 16 11  1  0  0  0  0
 19 10  1  0  0  0  0
 19 20  1  0  0  0  0
 21 17  1  6  0  0  0
 21  3  1  0  0  0  0
 22 25  1  0  0  0  0
 23 24  1  0  0  0  0
 24 25  2  0  0  0  0
 26 22  2  0  0  0  0
 27 26  1  0  0  0  0
 27 23  2  0  0  0  0
M  END
>  <MODEL>
4

>  <REMARK>
 VINA RESULT:      -7.8      2.462      6.200
  Name = 
  1 active torsions:
  status: ('A' for Active; 'I' for Inactive)
    1  A    between atoms: C_9  and  C_15
                            x       y       z     vdW  Elec       q    Type
                         _______ _______ _______ _____ _____    ______ ____

>  <TORSDO>
F 1

$$$$
=
 OpenBabel11052418193D

 27 31  0  0  1  0  0  0  0  0999 V2000
  189.8490  175.2170  145.5620 O   0  0  0  0  0  0  0  0  0  0  0  0
  189.0420  175.5900  143.3490 C   0  0  0  0  0  0  0  0  0  0  0  0
  191.4240  174.8230  143.2190 N   0  0  0  0  0  2  0  0  0  0  0  0
  188.5100  173.6880  139.5490 C   0  0  0  0  0  2  0  0  0  0  0  0
  189.8660  171.6690  139.3040 N   0  0  0  0  0  1  0  0  0  0  0  0
  187.7700  175.6660  142.7350 C   0  0  0  0  0  3  0  0  0  0  0  0
  190.6750  173.5560  140.5650 C   0  0  0  0  0  0  0  0  0  0  0  0
  194.0200  176.8230  144.9880 C   0  0  0  0  0  2  0  0  0  0  0  0
  191.8920  173.3150  140.7790 O   0  0  0  0  0  0  0  0  0  0  0  0
  194.1500  176.7540  146.5130 C   0  0  0  0  0  2  0  0  0  0  0  0
  189.8100  174.3050  141.4480 C   0  0  0  0  0  0  0  0  0  0  0  0
  189.2810  176.1900  144.7190 C   0  0  1  0  0  3  0  0  0  0  0  0
  189.9280  173.1190  139.3480 C   0  0  2  0  0  3  0  0  0  0  0  0
  188.5700  174.3840  140.8700 C   0  0  0  0  0  0  0  0  0  0  0  0
  191.2510  175.4030  145.6240 C   0  0  2  0  0  3  0  0  0  0  0  0
  190.0960  174.9100  142.6790 C   0  0  0  0  0  0  0  0  0  0  0  0
  193.4470  175.5570  144.3680 C   0  0  0  0  0  2  0  0  0  0  0  0
  187.5290  175.0670  141.4910 C   0  0  0  0  0  3  0  0  0  0  0  0
  192.9980  176.0670  147.2560 C   0  0  0  0  0  2  0  0  0  0  0  0
  191.6240  176.4160  146.7020 C   0  0  0  0  0  2  0  0  0  0  0  0
  191.9350  175.6950  144.2700 C   0  0  1  0  0  3  0  0  0  0  0  0
  185.8330  177.9310  146.6120 C   0  0  0  0  0  3  0  0  0  0  0  0
  188.0700  176.7990  145.3620 C   0  0  0  0  0  0  0  0  0  0  0  0
  187.5830  176.2570  146.5570 C   0  0  0  0  0  3  0  0  0  0  0  0
  186.4660  176.8210  147.1800 C   0  0  0  0  0  3  0  0  0  0  0  0
  186.3180  178.4780  145.4200 C   0  0  0  0  0  3  0  0  0  0  0  0
  187.4360  177.9160  144.7970 C   0  0  0  0  0  3  0  0  0  0  0  0
  1 15  1  0  0  0  0
  2 12  1  0  0  0  0
  3 21  1  0  0  0  0
  4 14  1  0  0  0  0
  6  2  1  0  0  0  0
  7  9  2  0  0  0  0
  7 11  1  0  0  0  0
  8 10  1  0  0  0  0
 10 19  1  0  0  0  0
 11 16  1  0  0  0  0
 12 23  1  1  0  0  0
 12  1  1  0  0  0  0
 13  5  1  1  0  0  0
 13  4  1  0  0  0  0
 13  7  1  0  0  0  0
 14 11  2  0  0  0  0
 14 18  1  0  0  0  0
 15 20  1  1  0  0  0
 16  3  1  0  0  0  0
 16  2  2  0  0  0  0
 17  8  1  0  0  0  0
 18  6  2  0  0  0  0
 20 19  1  0  0  0  0
 21 17  1  1  0  0  0
 21 15  1  0  0  0  0
 22 25  1  0  0  0  0
 23 24  1  0  0  0  0
 24 25  2  0  0  0  0
 26 22  2  0  0  0  0
 27 23  2  0  0  0  0
 27 26  1  0  0  0  0
M  END
>  <MODEL>
5

>  <REMARK>
 VINA RESULT:      -7.7      2.259      4.999
  Name = 
  1 active torsions:
  status: ('A' for Active; 'I' for Inactive)
    1  A    between atoms: C_9  and  C_15
                            x       y       z     vdW  Elec       q    Type
                         _______ _______ _______ _____ _____    ______ ____

>  <TORSDO>
F 1

$$$$
=
 OpenBabel11052418193D

 27 31  0  0  1  0  0  0  0  0999 V2000
  189.1200  173.8190  143.5730 O   0  0  0  0  0  0  0  0  0  0  0  0
  188.6890  176.1630  143.4750 C   0  0  0  0  0  0  0  0  0  0  0  0
  188.4000  175.1950  141.1820 N   0  0  0  0  0  2  0  0  0  0  0  0
  185.7300  179.0410  142.3360 C   0  0  0  0  0  2  0  0  0  0  0  0
  184.0300  178.1110  140.8450 N   0  0  0  0  0  1  0  0  0  0  0  0
  188.3380  177.1670  144.4080 C   0  0  0  0  0  3  0  0  0  0  0  0
  186.3170  177.3570  140.7370 C   0  0  0  0  0  0  0  0  0  0  0  0
  191.2860  173.4150  139.6430 C   0  0  0  0  0  2  0  0  0  0  0  0
  186.3890  176.6670  139.6870 O   0  0  0  0  0  0  0  0  0  0  0  0
  191.6750  172.0100  140.1140 C   0  0  0  0  0  2  0  0  0  0  0  0
  187.0980  177.1330  141.9310 C   0  0  0  0  0  0  0  0  0  0  0  0
  189.6850  175.0800  143.8370 C   0  0  1  0  0  3  0  0  0  0  0  0
  185.4170  178.5360  140.9130 C   0  0  2  0  0  3  0  0  0  0  0  0
  186.7670  178.0960  142.8490 C   0  0  0  0  0  0  0  0  0  0  0  0
  189.5860  173.3420  142.3250 C   0  0  2  0  0  3  0  0  0  0  0  0
  188.0690  176.1580  142.1960 C   0  0  0  0  0  0  0  0  0  0  0  0
  189.8100  173.7340  139.8310 C   0  0  0  0  0  2  0  0  0  0  0  0
  187.3790  178.1400  144.0980 C   0  0  0  0  0  3  0  0  0  0  0  0
  191.0120  171.5280  141.4100 C   0  0  0  0  0  2  0  0  0  0  0  0
  190.9150  172.6060  142.4800 C   0  0  0  0  0  2  0  0  0  0  0  0
  189.6150  174.3890  141.1900 C   0  0  1  0  0  3  0  0  0  0  0  0
  191.1890  175.2990  147.8610 C   0  0  0  0  0  3  0  0  0  0  0  0
  190.2000  175.1400  145.2450 C   0  0  0  0  0  0  0  0  0  0  0  0
  191.5250  175.5280  145.4730 C   0  0  0  0  0  3  0  0  0  0  0  0
  192.0200  175.6060  146.7790 C   0  0  0  0  0  3  0  0  0  0  0  0
  189.8640  174.9140  147.6380 C   0  0  0  0  0  3  0  0  0  0  0  0
  189.3690  174.8370  146.3330 C   0  0  0  0  0  3  0  0  0  0  0  0
  1 12  1  0  0  0  0
  2 12  1  0  0  0  0
  2  6  1  0  0  0  0
  3 21  1  0  0  0  0
  3 16  1  0  0  0  0
  4 14  1  0  0  0  0
  7 13  1  0  0  0  0
  7 11  1  0  0  0  0
  8 17  1  0  0  0  0
  8 10  1  0  0  0  0
  9  7  2  0  0  0  0
 10 19  1  0  0  0  0
 11 16  1  0  0  0  0
 11 14  2  0  0  0  0
 12 23  1  1  0  0  0
 13  5  1  1  0  0  0
 13  4  1  0  0  0  0
 14 18  1  0  0  0  0
 15 20  1  1  0  0  0
 15  1  1  0  0  0  0
 16  2  2  0  0  0  0
 18  6  2  0  0  0  0
 19 20  1  0  0  0  0
 21 17  1  6  0  0  0
 21 15  1  0  0  0  0
 23 24  2  0  0  0  0
 23 27  1  0  0  0  0
 24 25  1  0  0  0  0
 25 22  2  0  0  0  0
 26 22  1  0  0  0  0
 27 26  2  0  0  0  0
M  END
>  <MODEL>
6

>  <REMARK>
 VINA RESULT:      -7.4      1.618      5.272
  Name = 
  1 active torsions:
  status: ('A' for Active; 'I' for Inactive)
    1  A    between atoms: C_9  and  C_15
                            x       y       z     vdW  Elec       q    Type
                         _______ _______ _______ _____ _____    ______ ____

>  <TORSDO>
F 1

$$$$
=
 OpenBabel11052418193D

 27 31  0  0  1  0  0  0  0  0999 V2000
  188.9650  176.7480  142.8020 O   0  0  0  0  0  0  0  0  0  0  0  0
  190.0080  176.1850  144.8720 C   0  0  0  0  0  0  0  0  0  0  0  0
  191.1640  174.9490  143.0240 N   0  0  0  0  0  2  0  0  0  0  0  0
  193.7860  176.1540  146.8880 C   0  0  0  0  0  2  0  0  0  0  0  0
  195.6800  176.3300  145.3520 N   0  0  0  0  0  1  0  0  0  0  0  0
  190.0850  176.7690  146.1580 C   0  0  0  0  0  3  0  0  0  0  0  0
  193.6770  175.1510  144.7160 C   0  0  0  0  0  0  0  0  0  0  0  0
  189.1360  172.6750  140.8840 C   0  0  0  0  0  2  0  0  0  0  0  0
  193.9730  174.5430  143.6540 O   0  0  0  0  0  0  0  0  0  0  0  0
  188.1910  173.2450  139.8210 C   0  0  0  0  0  2  0  0  0  0  0  0
  192.3630  175.6560  145.0430 C   0  0  0  0  0  0  0  0  0  0  0  0
  188.7170  176.2160  144.0810 C   0  0  1  0  0  3  0  0  0  0  0  0
  194.6380  175.4350  145.8230 C   0  0  2  0  0  3  0  0  0  0  0  0
  192.4200  176.2300  146.2870 C   0  0  0  0  0  0  0  0  0  0  0  0
  189.1020  175.6950  141.8670 C   0  0  2  0  0  3  0  0  0  0  0  0
  191.1710  175.5940  144.3080 C   0  0  0  0  0  0  0  0  0  0  0  0
  190.3220  173.5780  141.1920 C   0  0  0  0  0  2  0  0  0  0  0  0
  191.2900  176.7910  146.8730 C   0  0  0  0  0  3  0  0  0  0  0  0
  187.9240  174.7520  139.8970 C   0  0  0  0  0  2  0  0  0  0  0  0
  187.7440  175.2670  141.3180 C   0  0  0  0  0  2  0  0  0  0  0  0
  189.9550  174.4990  142.3460 C   0  0  1  0  0  3  0  0  0  0  0  0
  185.4550  178.3220  145.9310 C   0  0  0  0  0  3  0  0  0  0  0  0
  187.5860  176.9460  144.7440 C   0  0  0  0  0  0  0  0  0  0  0  0
  187.1480  178.1620  144.2060 C   0  0  0  0  0  3  0  0  0  0  0  0
  186.0850  178.8490  144.7990 C   0  0  0  0  0  3  0  0  0  0  0  0
  185.8870  177.1070  146.4690 C   0  0  0  0  0  3  0  0  0  0  0  0
  186.9490  176.4180  145.8760 C   0  0  0  0  0  3  0  0  0  0  0  0
  1 12  1  0  0  0  0
  2  6  1  0  0  0  0
  3 16  1  0  0  0  0
  6 18  2  0  0  0  0
  7 11  1  0  0  0  0
  7 13  1  0  0  0  0
  8 17  1  0  0  0  0
  9  7  2  0  0  0  0
 10 19  1  0  0  0  0
 10  8  1  0  0  0  0
 11 14  2  0  0  0  0
 12 23  1  1  0  0  0
 12  2  1  0  0  0  0
 13  5  1  6  0  0  0
 13  4  1  0  0  0  0
 14 18  1  0  0  0  0
 14  4  1  0  0  0  0
 15 20  1  1  0  0  0
 15 21  1  0  0  0  0
 15  1  1  0  0  0  0
 16  2  2  0  0  0  0
 16 11  1  0  0  0  0
 19 20  1  0  0  0  0
 21 17  1  6  0  0  0
 21  3  1  0  0  0  0
 22 26  1  0  0  0  0
 23 27  1  0  0  0  0
 24 23  2  0  0  0  0
 24 25  1  0  0  0  0
 25 22  2  0  0  0  0
 27 26  2  0  0  0  0
M  END
>  <MODEL>
7

>  <REMARK>
 VINA RESULT:      -7.3      2.778      5.930
  Name = 
  1 active torsions:
  status: ('A' for Active; 'I' for Inactive)
    1  A    between atoms: C_9  and  C_15
                            x       y       z     vdW  Elec       q    Type
                         _______ _______ _______ _____ _____    ______ ____

>  <TORSDO>
F 1

$$$$
=
 OpenBabel11052418193D

 27 31  0  0  1  0  0  0  0  0999 V2000
  190.9290  173.6490  143.6240 O   0  0  0  0  0  0  0  0  0  0  0  0
  190.3200  175.8690  144.2480 C   0  0  0  0  0  0  0  0  0  0  0  0
  188.5410  174.9350  142.7500 N   0  0  0  0  0  2  0  0  0  0  0  0
  187.1960  178.1600  146.0730 C   0  0  0  0  0  2  0  0  0  0  0  0
  185.0620  176.9690  146.1380 N   0  0  0  0  0  1  0  0  0  0  0  0
  190.6650  176.7570  145.2930 C   0  0  0  0  0  3  0  0  0  0  0  0
  186.5900  176.6710  144.2980 C   0  0  0  0  0  0  0  0  0  0  0  0
  189.5240  173.7910  139.3450 C   0  0  0  0  0  2  0  0  0  0  0  0
  185.9380  176.0410  143.4250 O   0  0  0  0  0  0  0  0  0  0  0  0
  190.2810  172.4720  139.1570 C   0  0  0  0  0  2  0  0  0  0  0  0
  188.0160  176.5640  144.5060 C   0  0  0  0  0  0  0  0  0  0  0  0
  191.3660  174.9860  143.6000 C   0  0  1  0  0  3  0  0  0  0  0  0
  185.9940  177.6500  145.2550 C   0  0  2  0  0  3  0  0  0  0  0  0
  188.3680  177.4160  145.5210 C   0  0  0  0  0  0  0  0  0  0  0  0
  190.3730  173.3090  142.3680 C   0  0  2  0  0  3  0  0  0  0  0  0
  188.9640  175.7850  143.8280 C   0  0  0  0  0  0  0  0  0  0  0  0
  188.6430  173.8150  140.5860 C   0  0  0  0  0  2  0  0  0  0  0  0
  189.6920  177.5370  145.9310 C   0  0  0  0  0  3  0  0  0  0  0  0
  190.8450  171.8320  140.4300 C   0  0  0  0  0  2  0  0  0  0  0  0
  191.4520  172.8370  141.3980 C   0  0  0  0  0  2  0  0  0  0  0  0
  189.4440  174.3770  141.7510 C   0  0  1  0  0  3  0  0  0  0  0  0
  195.3120  175.2560  145.2930 C   0  0  0  0  0  3  0  0  0  0  0  0
  192.7410  175.1000  144.1900 C   0  0  0  0  0  0  0  0  0  0  0  0
  193.1230  174.2220  145.2110 C   0  0  0  0  0  3  0  0  0  0  0  0
  194.4050  174.3010  145.7630 C   0  0  0  0  0  3  0  0  0  0  0  0
  194.9360  176.1330  144.2700 C   0  0  0  0  0  3  0  0  0  0  0  0
  193.6550  176.0540  143.7180 C   0  0  0  0  0  3  0  0  0  0  0  0
  2  6  1  0  0  0  0
  3 16  1  0  0  0  0
  6 18  2  0  0  0  0
  7 11  1  0  0  0  0
  7 13  1  0  0  0  0
  8 17  1  0  0  0  0
  9  7  2  0  0  0  0
 10  8  1  0  0  0  0
 10 19  1  0  0  0  0
 11 14  2  0  0  0  0
 12  1  1  0  0  0  0
 12 23  1  1  0  0  0
 12  2  1  0  0  0  0
 13  4  1  0  0  0  0
 13  5  1  1  0  0  0
 14 18  1  0  0  0  0
 14  4  1  0  0  0  0
 15 20  1  6  0  0  0
 15  1  1  0  0  0  0
 16  2  2  0  0  0  0
 16 11  1  0  0  0  0
 19 20  1  0  0  0  0
 21 17  1  6  0  0  0
 21 15  1  0  0  0  0
 21  3  1  0  0  0  0
 22 25  1  0  0  0  0
 23 24  1  0  0  0  0
 24 25  2  0  0  0  0
 26 22  2  0  0  0  0
 27 23  2  0  0  0  0
 27 26  1  0  0  0  0
M  END
>  <MODEL>
8

>  <REMARK>
 VINA RESULT:      -7.2      2.551      6.086
  Name = 
  1 active torsions:
  status: ('A' for Active; 'I' for Inactive)
    1  A    between atoms: C_9  and  C_15
                            x       y       z     vdW  Elec       q    Type
                         _______ _______ _______ _____ _____    ______ ____

>  <TORSDO>
F 1

$$$$
=
 OpenBabel11052418193D

 27 31  0  0  1  0  0  0  0  0999 V2000
  188.9600  175.1030  144.4930 O   0  0  0  0  0  0  0  0  0  0  0  0
  189.1990  174.9190  142.1270 C   0  0  0  0  0  0  0  0  0  0  0  0
  191.2190  173.9170  143.2220 N   0  0  0  0  0  2  0  0  0  0  0  0
  189.8430  172.0920  138.9760 C   0  0  0  0  0  2  0  0  0  0  0  0
  190.7310  169.9620  139.7820 N   0  0  0  0  0  1  0  0  0  0  0  0
  188.3240  174.9440  141.0170 C   0  0  0  0  0  3  0  0  0  0  0  0
  191.3440  172.0380  140.8410 C   0  0  0  0  0  0  0  0  0  0  0  0
  193.2480  176.0680  145.4840 C   0  0  0  0  0  2  0  0  0  0  0  0
  192.2950  171.7480  141.6130 O   0  0  0  0  0  0  0  0  0  0  0  0
  192.7420  176.4160  146.8880 C   0  0  0  0  0  2  0  0  0  0  0  0
  190.3760  173.0850  141.0750 C   0  0  0  0  0  0  0  0  0  0  0  0
  188.9910  175.8520  143.3020 C   0  0  1  0  0  3  0  0  0  0  0  0
  191.0720  171.3530  139.5420 C   0  0  2  0  0  3  0  0  0  0  0  0
  189.5150  173.1200  140.0090 C   0  0  0  0  0  0  0  0  0  0  0  0
  190.2260  175.1600  145.1230 C   0  0  2  0  0  3  0  0  0  0  0  0
  190.2660  173.9800  142.1480 C   0  0  0  0  0  0  0  0  0  0  0  0
  192.7200  174.7420  144.9570 C   0  0  0  0  0  2  0  0  0  0  0  0
  188.4790  174.0480  139.9510 C   0  0  0  0  0  3  0  0  0  0  0  0
  191.2740  176.0800  147.1760 C   0  0  0  0  0  2  0  0  0  0  0  0
  190.3410  176.3930  146.0160 C   0  0  0  0  0  2  0  0  0  0  0  0
  191.4370  174.9940  144.1790 C   0  0  1  0  0  3  0  0  0  0  0  0
  185.5100  178.3680  143.0730 C   0  0  0  0  0  3  0  0  0  0  0  0
  187.7800  176.7320  143.2030 C   0  0  0  0  0  0  0  0  0  0  0  0
  186.6150  176.3740  143.8900 C   0  0  0  0  0  3  0  0  0  0  0  0
  185.4820  177.1890  143.8250 C   0  0  0  0  0  3  0  0  0  0  0  0
  186.6730  178.7320  142.3880 C   0  0  0  0  0  3  0  0  0  0  0  0
  187.8070  177.9180  142.4540 C   0  0  0  0  0  3  0  0  0  0  0  0
  1 15  1  0  0  0  0
  2 16  1  0  0  0  0
  2 12  1  0  0  0  0
  3 21  1  0  0  0  0
  4 13  1  0  0  0  0
  4 14  1  0  0  0  0
  6  2  2  0  0  0  0
  7 11  1  0  0  0  0
  7  9  2  0  0  0  0
  8 10  1  0  0  0  0
 10 19  1  0  0  0  0
 11 16  2  0  0  0  0
 12 23  1  6  0  0  0
 12  1  1  0  0  0  0
 13  5  1  1  0  0  0
 13  7  1  0  0  0  0
 14 11  1  0  0  0  0
 15 20  1  6  0  0  0
 16  3  1  0  0  0  0
 17  8  1  0  0  0  0
 18 14  2  0  0  0  0
 18  6  1  0  0  0  0
 20 19  1  0  0  0  0
 21 17  1  1  0  0  0
 21 15  1  0  0  0  0
 22 25  1  0  0  0  0
 23 24  1  0  0  0  0
 25 24  2  0  0  0  0
 26 27  1  0  0  0  0
 26 22  2  0  0  0  0
 27 23  2  0  0  0  0
M  END
>  <MODEL>
9

>  <REMARK>
 VINA RESULT:      -7.0      2.301      5.196
  Name = 
  1 active torsions:
  status: ('A' for Active; 'I' for Inactive)
    1  A    between atoms: C_9  and  C_15
                            x       y       z     vdW  Elec       q    Type
                         _______ _______ _______ _____ _____    ______ ____

>  <TORSDO>
F 1

$$$$
