=
 OpenBabel11052420293D

 34 39  0  0  1  0  0  0  0  0999 V2000
  194.1900  174.5960  143.4090 C   0  0  0  0  0  0  0  0  0  0  0  0
  192.8410  174.0520  140.0460 C   0  0  0  0  0  2  0  0  0  0  0  0
  194.7660  175.5430  140.7780 O   0  0  0  0  0  0  0  0  0  0  0  0
  196.1390  176.1720  143.9340 C   0  0  0  0  0  3  0  0  0  0  0  0
  196.8850  176.9510  143.0980 N   0  0  0  0  0  0  0  0  0  0  0  0
  195.4740  175.9620  141.8220 C   0  0  0  0  0  0  0  0  0  0  0  0
  195.2150  175.5110  143.1590 C   0  0  0  0  0  0  0  0  0  0  0  0
  196.4920  176.8290  141.8310 N   0  0  0  0  0  0  0  0  0  0  0  0
  191.9490  173.1970  140.8680 N   0  0  2  0  0  0  0  0  0  0  0  0
  193.7800  174.6710  141.0130 C   0  0  0  0  0  0  0  0  0  0  0  0
  192.4150  173.3340  142.1700 O   0  0  0  0  0  0  0  0  0  0  0  0
  193.4770  174.2000  142.2650 C   0  0  0  0  0  0  0  0  0  0  0  0
  191.0960  171.3200  139.5280 C   0  0  2  0  0  0  0  0  0  0  0  0
  191.4570  170.2660  138.6910 O   0  0  0  0  0  1  0  0  0  0  0  0
  189.7250  172.3980  139.0020 S   0  0  0  0  0  1  0  0  0  0  0  0
  192.1840  171.8150  140.4670 C   0  0  2  0  0  3  0  0  0  0  0  0
  191.0530  170.9260  140.9830 C   0  0  0  0  0  2  0  0  0  0  0  0
  193.8470  174.1160  144.7810 C   0  0  0  0  0  2  0  0  0  0  0  0
  192.7030  174.8960  145.3290 C   0  0  0  0  0  0  0  0  0  0  0  0
  192.9250  175.9790  145.9340 O   0  0  0  0  0  0  0  0  0  0  0  0
  191.3670  174.4180  145.1250 N   0  0  0  0  0  2  0  0  0  0  0  0
  188.4380  175.3580  147.2300 C   0  0  0  0  0  3  0  0  0  0  0  0
  189.4840  175.9760  144.7060 C   0  0  0  0  0  3  0  0  0  0  0  0
  185.9220  177.7880  146.0110 C   0  0  0  0  0  0  0  0  0  0  0  0
  186.5890  176.8730  146.8370 C   0  0  0  0  0  3  0  0  0  0  0  0
  187.7720  176.2690  146.4070 C   0  0  0  0  0  0  0  0  0  0  0  0
  187.6360  177.4920  144.3110 C   0  0  0  0  0  3  0  0  0  0  0  0
  188.3000  176.5810  145.1340 C   0  0  0  0  0  0  0  0  0  0  0  0
  186.4520  178.0930  144.7480 C   0  0  0  0  0  3  0  0  0  0  0  0
  190.1530  175.0610  145.5330 C   0  0  0  0  0  0  0  0  0  0  0  0
  189.6230  174.7570  146.7920 C   0  0  0  0  0  3  0  0  0  0  0  0
  184.6750  178.4220  146.4700 C   0  0  0  0  0  0  0  0  0  0  0  0
  184.4100  178.4940  147.7010 O   0  0  0  0  0  1  0  0  0  0  0  0
  183.7770  178.9490  145.5490 O   0  0  0  0  0  0  0  0  0  0  0  0
  1 18  1  0  0  0  0
  2 10  1  0  0  0  0
  3 10  1  0  0  0  0
  3  6  1  0  0  0  0
  5  4  2  0  0  0  0
  6  8  2  0  0  0  0
  6  7  1  0  0  0  0
  7  1  2  0  0  0  0
  7  4  1  0  0  0  0
  8  5  1  0  0  0  0
  9  2  1  6  0  0  0
  9 11  1  0  0  0  0
 10 12  2  0  0  0  0
 11 12  1  0  0  0  0
 12  1  1  0  0  0  0
 13 14  1  6  0  0  0
 13 16  1  0  0  0  0
 13 17  1  0  0  0  0
 15 13  1  0  0  0  0
 16  9  1  0  0  0  0
 16 17  1  1  0  0  0
 18 19  1  0  0  0  0
 19 20  2  0  0  0  0
 21 19  1  0  0  0  0
 21 30  1  0  0  0  0
 23 28  2  0  0  0  0
 23 30  1  0  0  0  0
 24 32  1  0  0  0  0
 24 25  2  0  0  0  0
 26 25  1  0  0  0  0
 26 22  2  0  0  0  0
 27 29  2  0  0  0  0
 27 28  1  0  0  0  0
 28 26  1  0  0  0  0
 29 24  1  0  0  0  0
 30 31  2  0  0  0  0
 31 22  1  0  0  0  0
 32 33  1  0  0  0  0
 34 32  2  0  0  0  0
M  END
>  <MODEL>
1

>  <REMARK>
 VINA RESULT:      -7.8      0.000      0.000
  Name = 
  5 active torsions:
  status: ('A' for Active; 'I' for Inactive)
    1  A    between atoms: C_1  and  C_9
    2  A    between atoms: C_7  and  C_11
    3  A    between atoms: C_8  and  C_9
    4  A    between atoms: N_18  and  C_30
    5  A    between atoms: N_23  and  C_25
                            x       y       z     vdW  Elec       q    Type
                         _______ _______ _______ _____ _____    ______ ____

>  <TORSDO>
F 5

$$$$
=
 OpenBabel11052420293D

 34 39  0  0  1  0  0  0  0  0999 V2000
  187.0250  177.0140  145.0450 C   0  0  0  0  0  0  0  0  0  0  0  0
  187.4570  176.0790  141.5290 C   0  0  0  0  0  2  0  0  0  0  0  0
  186.3790  178.1610  142.5120 O   0  0  0  0  0  0  0  0  0  0  0  0
  185.8820  179.1690  145.8250 C   0  0  0  0  0  3  0  0  0  0  0  0
  185.3330  180.1820  145.0960 N   0  0  0  0  0  0  0  0  0  0  0  0
  186.0640  178.7860  143.6420 C   0  0  0  0  0  0  0  0  0  0  0  0
  186.3700  178.2420  144.9340 C   0  0  0  0  0  0  0  0  0  0  0  0
  185.4400  179.9590  143.7860 N   0  0  0  0  0  0  0  0  0  0  0  0
  188.0490  174.9090  142.2240 N   0  0  2  0  0  0  0  0  0  0  0  0
  187.0010  176.9820  142.6130 C   0  0  0  0  0  0  0  0  0  0  0  0
  187.9420  175.2010  143.5780 O   0  0  0  0  0  0  0  0  0  0  0  0
  187.3230  176.4040  143.8150 C   0  0  0  0  0  0  0  0  0  0  0  0
  189.7730  173.8480  140.8280 C   0  0  2  0  0  0  0  0  0  0  0  0
  190.9260  174.0750  140.0790 O   0  0  0  0  0  1  0  0  0  0  0  0
  188.4590  172.8280  140.0870 S   0  0  0  0  0  1  0  0  0  0  0  0
  189.4700  174.8850  141.8970 C   0  0  2  0  0  3  0  0  0  0  0  0
  190.0650  173.5290  142.2730 C   0  0  0  0  0  2  0  0  0  0  0  0
  187.3400  176.3780  146.3580 C   0  0  0  0  0  2  0  0  0  0  0  0
  188.7350  175.8570  146.3580 C   0  0  0  0  0  0  0  0  0  0  0  0
  188.9510  174.6670  146.7120 O   0  0  0  0  0  0  0  0  0  0  0  0
  189.8010  176.7090  145.9200 N   0  0  0  0  0  2  0  0  0  0  0  0
  193.3360  176.0340  146.8930 C   0  0  0  0  0  3  0  0  0  0  0  0
  191.7670  176.0250  144.5720 C   0  0  0  0  0  3  0  0  0  0  0  0
  195.8470  175.0330  144.3610 C   0  0  0  0  0  0  0  0  0  0  0  0
  195.2680  175.3690  145.5920 C   0  0  0  0  0  3  0  0  0  0  0  0
  193.9130  175.6990  145.6660 C   0  0  0  0  0  0  0  0  0  0  0  0
  193.6980  175.3600  143.2690 C   0  0  0  0  0  3  0  0  0  0  0  0
  193.1220  175.6940  144.4960 C   0  0  0  0  0  0  0  0  0  0  0  0
  195.0550  175.0300  143.2020 C   0  0  0  0  0  3  0  0  0  0  0  0
  191.1860  176.3610  145.8050 C   0  0  0  0  0  0  0  0  0  0  0  0
  191.9780  176.3640  146.9590 C   0  0  0  0  0  3  0  0  0  0  0  0
  197.2760  174.6850  144.2890 C   0  0  0  0  0  0  0  0  0  0  0  0
  197.9410  174.9300  143.2470 O   0  0  0  0  0  0  0  0  0  0  0  0
  197.9060  174.0820  145.3720 O   0  0  0  0  0  1  0  0  0  0  0  0
  1 18  1  0  0  0  0
  2 10  1  0  0  0  0
  3 10  1  0  0  0  0
  3  6  1  0  0  0  0
  5  4  2  0  0  0  0
  6  8  2  0  0  0  0
  6  7  1  0  0  0  0
  7  1  2  0  0  0  0
  7  4  1  0  0  0  0
  8  5  1  0  0  0  0
  9  2  1  6  0  0  0
  9 11  1  0  0  0  0
 10 12  2  0  0  0  0
 11 12  1  0  0  0  0
 12  1  1  0  0  0  0
 13 14  1  6  0  0  0
 13 16  1  0  0  0  0
 13 17  1  0  0  0  0
 15 13  1  0  0  0  0
 16  9  1  0  0  0  0
 16 17  1  1  0  0  0
 19 18  1  0  0  0  0
 19 20  2  0  0  0  0
 21 19  1  0  0  0  0
 22 31  1  0  0  0  0
 23 30  1  0  0  0  0
 24 25  2  0  0  0  0
 25 26  1  0  0  0  0
 26 22  2  0  0  0  0
 27 28  1  0  0  0  0
 28 23  2  0  0  0  0
 28 26  1  0  0  0  0
 29 27  2  0  0  0  0
 29 24  1  0  0  0  0
 30 21  1  0  0  0  0
 30 31  2  0  0  0  0
 32 24  1  0  0  0  0
 32 34  1  0  0  0  0
 33 32  2  0  0  0  0
M  END
>  <MODEL>
2

>  <REMARK>
 VINA RESULT:      -7.8      3.252      7.856
  Name = 
  5 active torsions:
  status: ('A' for Active; 'I' for Inactive)
    1  A    between atoms: C_1  and  C_9
    2  A    between atoms: C_7  and  C_11
    3  A    between atoms: C_8  and  C_9
    4  A    between atoms: N_18  and  C_30
    5  A    between atoms: N_23  and  C_25
                            x       y       z     vdW  Elec       q    Type
                         _______ _______ _______ _____ _____    ______ ____

>  <TORSDO>
F 5

$$$$
=
 OpenBabel11052420293D

 34 39  0  0  1  0  0  0  0  0999 V2000
  184.2340  178.3750  142.6250 C   0  0  0  0  0  0  0  0  0  0  0  0
  181.2630  178.4780  140.4840 C   0  0  0  0  0  2  0  0  0  0  0  0
  183.6750  177.9790  139.8540 O   0  0  0  0  0  0  0  0  0  0  0  0
  186.5960  177.8660  141.7760 C   0  0  0  0  0  3  0  0  0  0  0  0
  187.0300  177.5790  140.5160 N   0  0  0  0  0  0  0  0  0  0  0  0
  184.9150  177.8660  140.3210 C   0  0  0  0  0  0  0  0  0  0  0  0
  185.2360  178.0590  141.7060 C   0  0  0  0  0  0  0  0  0  0  0  0
  186.0270  177.5760  139.6380 N   0  0  0  0  0  0  0  0  0  0  0  0
  180.6910  178.8340  141.8060 N   0  0  2  0  0  0  0  0  0  0  0  0
  182.7130  178.2870  140.7300 C   0  0  0  0  0  0  0  0  0  0  0  0
  181.7650  178.7950  142.6870 O   0  0  0  0  0  0  0  0  0  0  0  0
  182.9500  178.4860  142.0660 C   0  0  0  0  0  0  0  0  0  0  0  0
  178.4310  177.9130  141.4990 C   0  0  2  0  0  0  0  0  0  0  0  0
  177.6930  176.7400  141.3560 O   0  0  0  0  0  1  0  0  0  0  0  0
  178.0980  179.2800  140.3420 S   0  0  0  0  0  1  0  0  0  0  0  0
  179.7790  177.7620  142.1850 C   0  0  2  0  0  3  0  0  0  0  0  0
  178.5810  178.3410  142.9370 C   0  0  0  0  0  2  0  0  0  0  0  0
  184.5090  178.6230  144.0710 C   0  0  0  0  0  2  0  0  0  0  0  0
  185.6530  177.7870  144.5300 C   0  0  0  0  0  0  0  0  0  0  0  0
  185.4950  176.5450  144.6700 O   0  0  0  0  0  0  0  0  0  0  0  0
  186.9230  178.4080  144.7680 N   0  0  0  0  0  2  0  0  0  0  0  0
  189.3660  176.5040  146.8430 C   0  0  0  0  0  3  0  0  0  0  0  0
  189.2620  177.7160  144.3200 C   0  0  0  0  0  3  0  0  0  0  0  0
  192.7740  175.7810  145.5850 C   0  0  0  0  0  0  0  0  0  0  0  0
  191.6520  175.8220  146.4240 C   0  0  0  0  0  3  0  0  0  0  0  0
  190.4840  176.4630  146.0070 C   0  0  0  0  0  0  0  0  0  0  0  0
  191.5490  177.0350  143.8990 C   0  0  0  0  0  3  0  0  0  0  0  0
  190.4310  177.0750  144.7350 C   0  0  0  0  0  0  0  0  0  0  0  0
  192.7150  176.3910  144.3220 C   0  0  0  0  0  3  0  0  0  0  0  0
  188.1380  177.7560  145.1590 C   0  0  0  0  0  0  0  0  0  0  0  0
  188.1990  177.1480  146.4190 C   0  0  0  0  0  3  0  0  0  0  0  0
  194.0030  175.1030  146.0300 C   0  0  0  0  0  0  0  0  0  0  0  0
  194.9380  175.7590  146.5610 O   0  0  0  0  0  1  0  0  0  0  0  0
  194.1420  173.7290  145.8670 O   0  0  0  0  0  0  0  0  0  0  0  0
  1 18  1  0  0  0  0
  2 10  1  0  0  0  0
  3  6  1  0  0  0  0
  3 10  1  0  0  0  0
  5  4  2  0  0  0  0
  6  7  1  0  0  0  0
  7  4  1  0  0  0  0
  7  1  2  0  0  0  0
  8  6  2  0  0  0  0
  8  5  1  0  0  0  0
  9  2  1  6  0  0  0
  9 16  1  0  0  0  0
  9 11  1  0  0  0  0
 10 12  2  0  0  0  0
 12  1  1  0  0  0  0
 12 11  1  0  0  0  0
 13 15  1  6  0  0  0
 13 16  1  0  0  0  0
 13 17  1  0  0  0  0
 14 13  1  0  0  0  0
 16 17  1  1  0  0  0
 18 19  1  0  0  0  0
 19 20  2  0  0  0  0
 19 21  1  0  0  0  0
 21 30  1  0  0  0  0
 23 28  2  0  0  0  0
 23 30  1  0  0  0  0
 24 32  1  0  0  0  0
 24 25  2  0  0  0  0
 26 25  1  0  0  0  0
 26 22  2  0  0  0  0
 27 29  2  0  0  0  0
 27 28  1  0  0  0  0
 28 26  1  0  0  0  0
 29 24  1  0  0  0  0
 30 31  2  0  0  0  0
 31 22  1  0  0  0  0
 32 33  1  0  0  0  0
 34 32  2  0  0  0  0
M  END
>  <MODEL>
3

>  <REMARK>
 VINA RESULT:      -7.5      5.210      9.899
  Name = 
  5 active torsions:
  status: ('A' for Active; 'I' for Inactive)
    1  A    between atoms: C_1  and  C_9
    2  A    between atoms: C_7  and  C_11
    3  A    between atoms: C_8  and  C_9
    4  A    between atoms: N_18  and  C_30
    5  A    between atoms: N_23  and  C_25
                            x       y       z     vdW  Elec       q    Type
                         _______ _______ _______ _____ _____    ______ ____

>  <TORSDO>
F 5

$$$$
=
 OpenBabel11052420293D

 34 39  0  0  1  0  0  0  0  0999 V2000
  187.1670  177.6920  144.4300 C   0  0  0  0  0  0  0  0  0  0  0  0
  189.8420  177.0860  146.8600 C   0  0  0  0  0  2  0  0  0  0  0  0
  187.4260  177.7630  147.2720 O   0  0  0  0  0  0  0  0  0  0  0  0
  184.7870  178.3930  145.0630 C   0  0  0  0  0  3  0  0  0  0  0  0
  184.2350  178.6070  146.2910 N   0  0  0  0  0  0  0  0  0  0  0  0
  186.2690  178.0540  146.6860 C   0  0  0  0  0  0  0  0  0  0  0  0
  186.0990  178.0300  145.2620 C   0  0  0  0  0  0  0  0  0  0  0  0
  185.1180  178.4050  147.2690 N   0  0  0  0  0  0  0  0  0  0  0  0
  190.5490  176.8610  145.5750 N   0  0  2  0  0  0  0  0  0  0  0  0
  188.4540  177.4440  146.4780 C   0  0  0  0  0  0  0  0  0  0  0  0
  189.5850  177.0530  144.5930 O   0  0  0  0  0  0  0  0  0  0  0  0
  188.3620  177.4020  145.1110 C   0  0  0  0  0  0  0  0  0  0  0  0
  192.4470  175.2970  145.5670 C   0  0  2  0  0  0  0  0  0  0  0  0
  192.9130  174.0750  146.0490 O   0  0  0  0  0  1  0  0  0  0  0  0
  193.5560  176.7380  145.6740 S   0  0  0  0  0  1  0  0  0  0  0  0
  190.9350  175.4560  145.5340 C   0  0  2  0  0  3  0  0  0  0  0  0
  191.7190  175.1710  144.2530 C   0  0  0  0  0  2  0  0  0  0  0  0
  187.0660  177.6840  142.9400 C   0  0  0  0  0  2  0  0  0  0  0  0
  187.3010  176.3110  142.4140 C   0  0  0  0  0  0  0  0  0  0  0  0
  186.5290  175.3760  142.7570 O   0  0  0  0  0  0  0  0  0  0  0  0
  188.3800  176.0870  141.4970 N   0  0  0  0  0  2  0  0  0  0  0  0
  188.4800  173.3870  138.9280 C   0  0  0  0  0  3  0  0  0  0  0  0
  189.5650  173.9090  141.4580 C   0  0  0  0  0  3  0  0  0  0  0  0
  190.4740  170.3140  139.4760 C   0  0  0  0  0  0  0  0  0  0  0  0
  189.6280  171.2540  138.8730 C   0  0  0  0  0  3  0  0  0  0  0  0
  189.3240  172.4500  139.5290 C   0  0  0  0  0  0  0  0  0  0  0  0
  190.7140  171.7760  141.4050 C   0  0  0  0  0  3  0  0  0  0  0  0
  189.8710  172.7130  140.8040 C   0  0  0  0  0  0  0  0  0  0  0  0
  191.0140  170.5820  140.7440 C   0  0  0  0  0  3  0  0  0  0  0  0
  188.7180  174.8510  140.8540 C   0  0  0  0  0  0  0  0  0  0  0  0
  188.1800  174.5820  139.5910 C   0  0  0  0  0  3  0  0  0  0  0  0
  190.7920  169.0560  138.7800 C   0  0  0  0  0  0  0  0  0  0  0  0
  191.6310  168.2510  139.2670 O   0  0  0  0  0  1  0  0  0  0  0  0
  190.1670  168.7430  137.5780 O   0  0  0  0  0  0  0  0  0  0  0  0
  1 12  1  0  0  0  0
  1  7  2  0  0  0  0
  4  7  1  0  0  0  0
  4  5  2  0  0  0  0
  5  8  1  0  0  0  0
  6  8  2  0  0  0  0
  6  3  1  0  0  0  0
  7  6  1  0  0  0  0
  9  2  1  1  0  0  0
 10  2  1  0  0  0  0
 10  3  1  0  0  0  0
 11 12  1  0  0  0  0
 11  9  1  0  0  0  0
 12 10  2  0  0  0  0
 13 15  1  1  0  0  0
 13 14  1  0  0  0  0
 16 17  1  6  0  0  0
 16 13  1  0  0  0  0
 16  9  1  0  0  0  0
 17 13  1  0  0  0  0
 18  1  1  0  0  0  0
 19 20  2  0  0  0  0
 19 18  1  0  0  0  0
 21 19  1  0  0  0  0
 22 26  2  0  0  0  0
 22 31  1  0  0  0  0
 24 29  1  0  0  0  0
 25 24  2  0  0  0  0
 25 26  1  0  0  0  0
 26 28  1  0  0  0  0
 28 27  1  0  0  0  0
 28 23  2  0  0  0  0
 29 27  2  0  0  0  0
 30 23  1  0  0  0  0
 30 21  1  0  0  0  0
 31 30  2  0  0  0  0
 32 33  1  0  0  0  0
 32 24  1  0  0  0  0
 34 32  2  0  0  0  0
M  END
>  <MODEL>
4

>  <REMARK>
 VINA RESULT:      -7.5      3.464      9.046
  Name = 
  5 active torsions:
  status: ('A' for Active; 'I' for Inactive)
    1  A    between atoms: C_1  and  C_9
    2  A    between atoms: C_7  and  C_11
    3  A    between atoms: C_8  and  C_9
    4  A    between atoms: N_18  and  C_30
    5  A    between atoms: N_23  and  C_25
                            x       y       z     vdW  Elec       q    Type
                         _______ _______ _______ _____ _____    ______ ____

>  <TORSDO>
F 5

$$$$
=
 OpenBabel11052420293D

 34 39  0  0  1  0  0  0  0  0999 V2000
  195.7020  174.7710  144.8350 C   0  0  0  0  0  0  0  0  0  0  0  0
  195.9270  171.2990  143.6880 C   0  0  0  0  0  2  0  0  0  0  0  0
  196.3890  173.4440  142.4030 O   0  0  0  0  0  0  0  0  0  0  0  0
  196.1970  176.8040  143.3580 C   0  0  0  0  0  3  0  0  0  0  0  0
  196.5890  176.8630  142.0540 N   0  0  0  0  0  0  0  0  0  0  0  0
  196.4060  174.7710  142.4830 C   0  0  0  0  0  0  0  0  0  0  0  0
  196.0670  175.4740  143.6860 C   0  0  0  0  0  0  0  0  0  0  0  0
  196.7180  175.6470  141.5230 N   0  0  0  0  0  0  0  0  0  0  0  0
  195.4660  171.1220  145.0870 N   0  0  2  0  0  0  0  0  0  0  0  0
  196.0350  172.7660  143.5000 C   0  0  0  0  0  0  0  0  0  0  0  0
  195.3770  172.4090  145.6040 O   0  0  0  0  0  0  0  0  0  0  0  0
  195.6980  173.3740  144.6820 C   0  0  0  0  0  0  0  0  0  0  0  0
  196.3250  168.9320  145.8040 C   0  0  2  0  0  0  0  0  0  0  0  0
  197.4760  168.1660  145.9790 O   0  0  0  0  0  1  0  0  0  0  0  0
  194.9100  168.1660  144.9510 S   0  0  0  0  0  1  0  0  0  0  0  0
  196.5320  170.4380  145.8100 C   0  0  2  0  0  3  0  0  0  0  0  0
  195.9540  169.7240  147.0320 C   0  0  0  0  0  2  0  0  0  0  0  0
  195.3030  175.4450  146.1070 C   0  0  0  0  0  2  0  0  0  0  0  0
  194.0540  176.2300  145.9040 C   0  0  0  0  0  0  0  0  0  0  0  0
  194.0630  177.4720  146.1140 O   0  0  0  0  0  0  0  0  0  0  0  0
  192.8740  175.5620  145.4380 N   0  0  0  0  0  2  0  0  0  0  0  0
  190.1710  177.2660  143.5170 C   0  0  0  0  0  3  0  0  0  0  0  0
  190.5900  176.2660  146.1000 C   0  0  0  0  0  3  0  0  0  0  0  0
  186.9220  178.0640  145.1060 C   0  0  0  0  0  0  0  0  0  0  0  0
  187.9380  177.9630  144.1470 C   0  0  0  0  0  3  0  0  0  0  0  0
  189.1580  177.3660  144.4730 C   0  0  0  0  0  0  0  0  0  0  0  0
  188.3570  176.9620  146.7320 C   0  0  0  0  0  3  0  0  0  0  0  0
  189.3690  176.8620  145.7760 C   0  0  0  0  0  0  0  0  0  0  0  0
  187.1380  177.5600  146.3980 C   0  0  0  0  0  3  0  0  0  0  0  0
  191.6080  176.1640  145.1400 C   0  0  0  0  0  0  0  0  0  0  0  0
  191.3900  176.6670  143.8520 C   0  0  0  0  0  3  0  0  0  0  0  0
  185.6370  178.6930  144.7560 C   0  0  0  0  0  0  0  0  0  0  0  0
  184.5510  178.1910  145.1520 O   0  0  0  0  0  1  0  0  0  0  0  0
  185.6110  179.8490  143.9840 O   0  0  0  0  0  0  0  0  0  0  0  0
  1 18  1  0  0  0  0
  3  6  1  0  0  0  0
  3 10  1  0  0  0  0
  4  7  1  0  0  0  0
  5  4  2  0  0  0  0
  6  7  1  0  0  0  0
  7  1  2  0  0  0  0
  8  5  1  0  0  0  0
  8  6  2  0  0  0  0
  9  2  1  6  0  0  0
  9 11  1  0  0  0  0
  9 16  1  0  0  0  0
 10  2  1  0  0  0  0
 10 12  2  0  0  0  0
 12  1  1  0  0  0  0
 12 11  1  0  0  0  0
 13 15  1  6  0  0  0
 13 16  1  0  0  0  0
 13 14  1  0  0  0  0
 13 17  1  0  0  0  0
 16 17  1  1  0  0  0
 19 18  1  0  0  0  0
 19 20  2  0  0  0  0
 21 19  1  0  0  0  0
 22 31  2  0  0  0  0
 22 26  1  0  0  0  0
 24 29  1  0  0  0  0
 25 26  1  0  0  0  0
 25 24  2  0  0  0  0
 26 28  2  0  0  0  0
 28 23  1  0  0  0  0
 28 27  1  0  0  0  0
 29 27  2  0  0  0  0
 30 21  1  0  0  0  0
 30 23  2  0  0  0  0
 31 30  1  0  0  0  0
 32 24  1  0  0  0  0
 32 33  1  0  0  0  0
 34 32  2  0  0  0  0
M  END
>  <MODEL>
5

>  <REMARK>
 VINA RESULT:      -7.3      3.285      4.197
  Name = 
  5 active torsions:
  status: ('A' for Active; 'I' for Inactive)
    1  A    between atoms: C_1  and  C_9
    2  A    between atoms: C_7  and  C_11
    3  A    between atoms: C_8  and  C_9
    4  A    between atoms: N_18  and  C_30
    5  A    between atoms: N_23  and  C_25
                            x       y       z     vdW  Elec       q    Type
                         _______ _______ _______ _____ _____    ______ ____

>  <TORSDO>
F 5

$$$$
=
 OpenBabel11052420293D

 34 39  0  0  1  0  0  0  0  0999 V2000
  191.7620  172.4900  141.2530 C   0  0  0  0  0  0  0  0  0  0  0  0
  194.7640  174.5020  140.6480 C   0  0  0  0  0  2  0  0  0  0  0  0
  192.8260  174.0040  139.0800 O   0  0  0  0  0  0  0  0  0  0  0  0
  189.9260  172.0960  139.5120 C   0  0  0  0  0  3  0  0  0  0  0  0
  189.8210  172.5530  138.2320 N   0  0  0  0  0  0  0  0  0  0  0  0
  191.6670  173.3640  138.9610 C   0  0  0  0  0  0  0  0  0  0  0  0
  191.1000  172.5930  140.0290 C   0  0  0  0  0  0  0  0  0  0  0  0
  190.8610  173.3150  137.8950 N   0  0  0  0  0  0  0  0  0  0  0  0
  194.9940  174.0320  142.0370 N   0  0  2  0  0  0  0  0  0  0  0  0
  193.4670  173.9030  140.2490 C   0  0  0  0  0  0  0  0  0  0  0  0
  193.8750  173.2700  142.3520 O   0  0  0  0  0  0  0  0  0  0  0  0
  192.9830  173.1820  141.3110 C   0  0  0  0  0  0  0  0  0  0  0  0
  196.3810  175.7170  143.1700 C   0  0  2  0  0  0  0  0  0  0  0  0
  196.4770  177.0650  143.5130 O   0  0  0  0  0  1  0  0  0  0  0  0
  197.8440  174.9140  142.4400 S   0  0  0  0  0  1  0  0  0  0  0  0
  194.9750  175.2070  142.9000 C   0  0  2  0  0  3  0  0  0  0  0  0
  195.6800  174.8930  144.2190 C   0  0  0  0  0  2  0  0  0  0  0  0
  191.2430  171.6740  142.3910 C   0  0  0  0  0  2  0  0  0  0  0  0
  190.2290  172.4470  143.1600 C   0  0  0  0  0  0  0  0  0  0  0  0
  189.0690  171.9770  143.3020 O   0  0  0  0  0  0  0  0  0  0  0  0
  190.6050  173.6950  143.7570 N   0  0  0  0  0  2  0  0  0  0  0  0
  188.9410  175.1060  146.7800 C   0  0  0  0  0  3  0  0  0  0  0  0
  189.0220  175.5860  144.0210 C   0  0  0  0  0  3  0  0  0  0  0  0
  186.6330  177.9910  146.5080 C   0  0  0  0  0  0  0  0  0  0  0  0
  187.3910  176.9470  147.0570 C   0  0  0  0  0  3  0  0  0  0  0  0
  188.1850  176.1460  146.2340 C   0  0  0  0  0  0  0  0  0  0  0  0
  187.4720  177.4270  144.2950 C   0  0  0  0  0  3  0  0  0  0  0  0
  188.2260  176.3880  144.8420 C   0  0  0  0  0  0  0  0  0  0  0  0
  186.6790  178.2250  145.1250 C   0  0  0  0  0  3  0  0  0  0  0  0
  189.7810  174.5410  144.5700 C   0  0  0  0  0  0  0  0  0  0  0  0
  189.7340  174.3080  145.9490 C   0  0  0  0  0  3  0  0  0  0  0  0
  185.7980  178.8330  147.3810 C   0  0  0  0  0  0  0  0  0  0  0  0
  186.3060  179.7950  148.0170 O   0  0  0  0  0  1  0  0  0  0  0  0
  184.4380  178.5730  147.5120 O   0  0  0  0  0  0  0  0  0  0  0  0
  1 12  1  0  0  0  0
  1 18  1  0  0  0  0
  3 10  1  0  0  0  0
  4  7  1  0  0  0  0
  5  4  2  0  0  0  0
  6  3  1  0  0  0  0
  6  7  1  0  0  0  0
  7  1  2  0  0  0  0
  8  5  1  0  0  0  0
  8  6  2  0  0  0  0
  9  2  1  6  0  0  0
  9 11  1  0  0  0  0
  9 16  1  0  0  0  0
 10  2  1  0  0  0  0
 10 12  2  0  0  0  0
 12 11  1  0  0  0  0
 13 15  1  6  0  0  0
 13 14  1  0  0  0  0
 13 17  1  0  0  0  0
 16 13  1  0  0  0  0
 16 17  1  1  0  0  0
 18 19  1  0  0  0  0
 19 20  2  0  0  0  0
 19 21  1  0  0  0  0
 21 30  1  0  0  0  0
 23 30  2  0  0  0  0
 23 28  1  0  0  0  0
 24 25  1  0  0  0  0
 24 32  1  0  0  0  0
 26 22  1  0  0  0  0
 26 25  2  0  0  0  0
 27 28  2  0  0  0  0
 27 29  1  0  0  0  0
 28 26  1  0  0  0  0
 29 24  2  0  0  0  0
 30 31  1  0  0  0  0
 31 22  2  0  0  0  0
 32 34  2  0  0  0  0
 32 33  1  0  0  0  0
M  END
>  <MODEL>
6

>  <REMARK>
 VINA RESULT:      -7.3      2.459      4.675
  Name = 
  5 active torsions:
  status: ('A' for Active; 'I' for Inactive)
    1  A    between atoms: C_1  and  C_9
    2  A    between atoms: C_7  and  C_11
    3  A    between atoms: C_8  and  C_9
    4  A    between atoms: N_18  and  C_30
    5  A    between atoms: N_23  and  C_25
                            x       y       z     vdW  Elec       q    Type
                         _______ _______ _______ _____ _____    ______ ____

>  <TORSDO>
F 5

$$$$
=
 OpenBabel11052420293D

 34 39  0  0  1  0  0  0  0  0999 V2000
  191.8980  172.9310  140.7910 C   0  0  0  0  0  0  0  0  0  0  0  0
  194.6940  174.6570  142.4130 C   0  0  0  0  0  2  0  0  0  0  0  0
  193.9690  174.7190  139.9760 O   0  0  0  0  0  0  0  0  0  0  0  0
  191.3520  173.1170  138.2950 C   0  0  0  0  0  3  0  0  0  0  0  0
  191.9720  173.8340  137.3150 N   0  0  0  0  0  0  0  0  0  0  0  0
  193.0840  174.2580  139.0980 C   0  0  0  0  0  0  0  0  0  0  0  0
  192.0300  173.3570  139.4680 C   0  0  0  0  0  0  0  0  0  0  0  0
  193.0110  174.5210  137.7900 N   0  0  0  0  0  0  0  0  0  0  0  0
  194.1170  173.8910  143.5450 N   0  0  2  0  0  0  0  0  0  0  0  0
  193.8500  174.3080  141.2440 C   0  0  0  0  0  0  0  0  0  0  0  0
  193.0260  173.2190  143.0100 O   0  0  0  0  0  0  0  0  0  0  0  0
  192.8680  173.4490  141.6650 C   0  0  0  0  0  0  0  0  0  0  0  0
  194.5610  175.0540  145.6670 C   0  0  2  0  0  0  0  0  0  0  0  0
  194.4570  176.2710  146.3380 O   0  0  0  0  0  1  0  0  0  0  0  0
  196.1480  174.1640  145.7510 S   0  0  0  0  0  1  0  0  0  0  0  0
  193.6010  174.8610  144.5050 C   0  0  2  0  0  3  0  0  0  0  0  0
  193.3490  174.1770  145.8480 C   0  0  0  0  0  2  0  0  0  0  0  0
  190.8460  171.9680  141.2320 C   0  0  0  0  0  2  0  0  0  0  0  0
  189.8280  172.6630  142.0670 C   0  0  0  0  0  0  0  0  0  0  0  0
  189.1750  172.0060  142.9210 O   0  0  0  0  0  0  0  0  0  0  0  0
  189.6360  174.0740  141.9070 N   0  0  0  0  0  2  0  0  0  0  0  0
  186.6350  176.1140  142.7620 C   0  0  0  0  0  3  0  0  0  0  0  0
  189.0550  175.3530  143.9510 C   0  0  0  0  0  3  0  0  0  0  0  0
  186.3620  177.8120  146.0430 C   0  0  0  0  0  0  0  0  0  0  0  0
  186.0510  177.3710  144.7490 C   0  0  0  0  0  3  0  0  0  0  0  0
  186.9440  176.5540  144.0510 C   0  0  0  0  0  0  0  0  0  0  0  0
  188.4740  176.6090  145.9390 C   0  0  0  0  0  3  0  0  0  0  0  0
  188.1640  176.1700  144.6510 C   0  0  0  0  0  0  0  0  0  0  0  0
  187.5760  177.4270  146.6320 C   0  0  0  0  0  3  0  0  0  0  0  0
  188.7440  174.9100  142.6560 C   0  0  0  0  0  0  0  0  0  0  0  0
  187.5330  175.2960  142.0690 C   0  0  0  0  0  3  0  0  0  0  0  0
  185.4170  178.6730  146.7750 C   0  0  0  0  0  0  0  0  0  0  0  0
  185.8230  179.4240  147.7020 O   0  0  0  0  0  1  0  0  0  0  0  0
  184.0660  178.6650  146.4480 O   0  0  0  0  0  0  0  0  0  0  0  0
  1 18  1  0  0  0  0
  1 12  1  0  0  0  0
  3 10  1  0  0  0  0
  4  7  1  0  0  0  0
  5  8  1  0  0  0  0
  5  4  2  0  0  0  0
  6  7  1  0  0  0  0
  6  3  1  0  0  0  0
  7  1  2  0  0  0  0
  8  6  2  0  0  0  0
  9  2  1  6  0  0  0
  9 16  1  0  0  0  0
 10 12  2  0  0  0  0
 10  2  1  0  0  0  0
 11  9  1  0  0  0  0
 12 11  1  0  0  0  0
 13 15  1  6  0  0  0
 13 17  1  0  0  0  0
 13 14  1  0  0  0  0
 16 13  1  0  0  0  0
 16 17  1  1  0  0  0
 18 19  1  0  0  0  0
 19 20  2  0  0  0  0
 21 19  1  0  0  0  0
 21 30  1  0  0  0  0
 22 26  1  0  0  0  0
 23 28  1  0  0  0  0
 24 29  1  0  0  0  0
 24 32  1  0  0  0  0
 25 24  2  0  0  0  0
 26 28  2  0  0  0  0
 26 25  1  0  0  0  0
 27 29  2  0  0  0  0
 28 27  1  0  0  0  0
 30 23  2  0  0  0  0
 31 30  1  0  0  0  0
 31 22  2  0  0  0  0
 32 33  1  0  0  0  0
 34 32  2  0  0  0  0
M  END
>  <MODEL>
7

>  <REMARK>
 VINA RESULT:      -7.3      2.532      4.744
  Name = 
  5 active torsions:
  status: ('A' for Active; 'I' for Inactive)
    1  A    between atoms: C_1  and  C_9
    2  A    between atoms: C_7  and  C_11
    3  A    between atoms: C_8  and  C_9
    4  A    between atoms: N_18  and  C_30
    5  A    between atoms: N_23  and  C_25
                            x       y       z     vdW  Elec       q    Type
                         _______ _______ _______ _____ _____    ______ ____

>  <TORSDO>
F 5

$$$$
=
 OpenBabel11052420293D

 34 39  0  0  1  0  0  0  0  0999 V2000
  193.3150  172.5150  143.6920 C   0  0  0  0  0  0  0  0  0  0  0  0
  191.2950  170.7520  141.1940 C   0  0  0  0  0  2  0  0  0  0  0  0
  192.4880  169.8210  143.2380 O   0  0  0  0  0  0  0  0  0  0  0  0
  194.4550  171.3720  145.6800 C   0  0  0  0  0  3  0  0  0  0  0  0
  194.4560  170.0600  146.0530 N   0  0  0  0  0  0  0  0  0  0  0  0
  193.2540  170.1310  144.2790 C   0  0  0  0  0  0  0  0  0  0  0  0
  193.6910  171.4730  144.5400 C   0  0  0  0  0  0  0  0  0  0  0  0
  193.7360  169.3110  145.2180 N   0  0  0  0  0  0  0  0  0  0  0  0
  191.2580  172.1440  140.6810 N   0  0  2  0  0  0  0  0  0  0  0  0
  192.1300  170.8160  142.4190 C   0  0  0  0  0  0  0  0  0  0  0  0
  191.9920  172.8870  141.5970 O   0  0  0  0  0  0  0  0  0  0  0  0
  192.5120  172.1190  142.6080 C   0  0  0  0  0  0  0  0  0  0  0  0
  189.1980  172.5590  139.4030 C   0  0  2  0  0  0  0  0  0  0  0  0
  187.8080  172.4570  139.4250 O   0  0  0  0  0  1  0  0  0  0  0  0
  190.0750  171.9770  137.9170 S   0  0  0  0  0  1  0  0  0  0  0  0
  189.8750  172.5980  140.7640 C   0  0  2  0  0  3  0  0  0  0  0  0
  189.6980  173.8750  139.9430 C   0  0  0  0  0  2  0  0  0  0  0  0
  193.7660  173.9250  143.8890 C   0  0  0  0  0  2  0  0  0  0  0  0
  192.6110  174.7890  144.2580 C   0  0  0  0  0  0  0  0  0  0  0  0
  192.5650  175.9750  143.8350 O   0  0  0  0  0  0  0  0  0  0  0  0
  191.5560  174.2430  145.0600 N   0  0  0  0  0  2  0  0  0  0  0  0
  188.6480  175.2520  147.1630 C   0  0  0  0  0  3  0  0  0  0  0  0
  189.6920  175.8210  144.6270 C   0  0  0  0  0  3  0  0  0  0  0  0
  186.1600  177.7000  145.9210 C   0  0  0  0  0  0  0  0  0  0  0  0
  186.8190  176.7870  146.7570 C   0  0  0  0  0  3  0  0  0  0  0  0
  187.9920  176.1610  146.3300 C   0  0  0  0  0  0  0  0  0  0  0  0
  187.8630  177.3570  144.2180 C   0  0  0  0  0  3  0  0  0  0  0  0
  188.5180  176.4480  145.0510 C   0  0  0  0  0  0  0  0  0  0  0  0
  186.6890  177.9800  144.6510 C   0  0  0  0  0  3  0  0  0  0  0  0
  190.3520  174.9080  145.4640 C   0  0  0  0  0  0  0  0  0  0  0  0
  189.8230  174.6290  146.7290 C   0  0  0  0  0  3  0  0  0  0  0  0
  184.9240  178.3570  146.3760 C   0  0  0  0  0  0  0  0  0  0  0  0
  184.6800  178.4760  147.6070 O   0  0  0  0  0  1  0  0  0  0  0  0
  184.0130  178.8540  145.4510 O   0  0  0  0  0  0  0  0  0  0  0  0
  1 18  1  0  0  0  0
  1  7  2  0  0  0  0
  2 10  1  0  0  0  0
  3  6  1  0  0  0  0
  4  5  2  0  0  0  0
  6  7  1  0  0  0  0
  6  8  2  0  0  0  0
  7  4  1  0  0  0  0
  8  5  1  0  0  0  0
  9 16  1  0  0  0  0
  9  2  1  1  0  0  0
  9 11  1  0  0  0  0
 10 12  2  0  0  0  0
 10  3  1  0  0  0  0
 11 12  1  0  0  0  0
 12  1  1  0  0  0  0
 13 15  1  6  0  0  0
 13 14  1  0  0  0  0
 13 17  1  0  0  0  0
 13 16  1  0  0  0  0
 16 17  1  6  0  0  0
 18 19  1  0  0  0  0
 19 21  1  0  0  0  0
 20 19  2  0  0  0  0
 21 30  1  0  0  0  0
 23 28  2  0  0  0  0
 23 30  1  0  0  0  0
 24 32  1  0  0  0  0
 24 25  2  0  0  0  0
 26 25  1  0  0  0  0
 26 22  2  0  0  0  0
 27 29  2  0  0  0  0
 27 28  1  0  0  0  0
 28 26  1  0  0  0  0
 29 24  1  0  0  0  0
 30 31  2  0  0  0  0
 31 22  1  0  0  0  0
 32 33  1  0  0  0  0
 34 32  2  0  0  0  0
M  END
>  <MODEL>
8

>  <REMARK>
 VINA RESULT:      -7.2      2.286      3.315
  Name = 
  5 active torsions:
  status: ('A' for Active; 'I' for Inactive)
    1  A    between atoms: C_1  and  C_9
    2  A    between atoms: C_7  and  C_11
    3  A    between atoms: C_8  and  C_9
    4  A    between atoms: N_18  and  C_30
    5  A    between atoms: N_23  and  C_25
                            x       y       z     vdW  Elec       q    Type
                         _______ _______ _______ _____ _____    ______ ____

>  <TORSDO>
F 5

$$$$
=
 OpenBabel11052420293D

 34 39  0  0  1  0  0  0  0  0999 V2000
  194.2990  174.7270  144.3160 C   0  0  0  0  0  0  0  0  0  0  0  0
  192.2470  172.2380  142.5770 C   0  0  0  0  0  2  0  0  0  0  0  0
  194.2450  171.8800  144.1080 O   0  0  0  0  0  0  0  0  0  0  0  0
  196.2980  174.1470  145.8080 C   0  0  0  0  0  3  0  0  0  0  0  0
  196.8200  172.9310  146.1380 N   0  0  0  0  0  0  0  0  0  0  0  0
  195.1630  172.4910  144.8500 C   0  0  0  0  0  0  0  0  0  0  0  0
  195.2240  173.9190  144.9790 C   0  0  0  0  0  0  0  0  0  0  0  0
  196.1440  171.9340  145.5680 N   0  0  0  0  0  0  0  0  0  0  0  0
  191.6230  173.5070  142.1280 N   0  0  2  0  0  0  0  0  0  0  0  0
  193.3600  172.6500  143.4660 C   0  0  0  0  0  0  0  0  0  0  0  0
  192.3400  174.5110  142.7680 O   0  0  0  0  0  0  0  0  0  0  0  0
  193.3620  174.0200  143.5440 C   0  0  0  0  0  0  0  0  0  0  0  0
  189.2630  173.0070  141.6490 C   0  0  2  0  0  0  0  0  0  0  0  0
  188.0790  172.5020  142.1830 O   0  0  0  0  0  1  0  0  0  0  0  0
  189.7850  172.4090  140.0100 S   0  0  0  0  0  1  0  0  0  0  0  0
  190.2670  173.5360  142.6620 C   0  0  2  0  0  3  0  0  0  0  0  0
  189.4060  174.4960  141.8410 C   0  0  0  0  0  2  0  0  0  0  0  0
  194.3310  176.2180  144.3800 C   0  0  0  0  0  2  0  0  0  0  0  0
  192.9460  176.7630  144.4100 C   0  0  0  0  0  0  0  0  0  0  0  0
  192.5490  177.4970  143.4660 O   0  0  0  0  0  0  0  0  0  0  0  0
  192.0780  176.4110  145.4950 N   0  0  0  0  0  2  0  0  0  0  0  0
  188.8670  177.3100  147.1620 C   0  0  0  0  0  3  0  0  0  0  0  0
  189.8660  177.0290  144.5600 C   0  0  0  0  0  3  0  0  0  0  0  0
  185.8580  178.1460  145.1690 C   0  0  0  0  0  0  0  0  0  0  0  0
  186.6980  177.9130  146.2670 C   0  0  0  0  0  3  0  0  0  0  0  0
  188.0300  177.5420  146.0680 C   0  0  0  0  0  0  0  0  0  0  0  0
  187.6980  177.6320  143.6620 C   0  0  0  0  0  3  0  0  0  0  0  0
  188.5340  177.4000  144.7560 C   0  0  0  0  0  0  0  0  0  0  0  0
  186.3660  178.0030  143.8680 C   0  0  0  0  0  3  0  0  0  0  0  0
  190.7070  176.7970  145.6590 C   0  0  0  0  0  0  0  0  0  0  0  0
  190.2000  176.9390  146.9550 C   0  0  0  0  0  3  0  0  0  0  0  0
  184.4550  178.5370  145.3840 C   0  0  0  0  0  0  0  0  0  0  0  0
  183.9290  178.4270  146.5240 O   0  0  0  0  0  1  0  0  0  0  0  0
  183.6970  179.0340  144.3300 O   0  0  0  0  0  0  0  0  0  0  0  0
  1 18  1  0  0  0  0
  1  7  2  0  0  0  0
  2 10  1  0  0  0  0
  3  6  1  0  0  0  0
  4  5  2  0  0  0  0
  6  7  1  0  0  0  0
  6  8  2  0  0  0  0
  7  4  1  0  0  0  0
  8  5  1  0  0  0  0
  9  2  1  1  0  0  0
  9 16  1  0  0  0  0
  9 11  1  0  0  0  0
 10 12  2  0  0  0  0
 10  3  1  0  0  0  0
 11 12  1  0  0  0  0
 12  1  1  0  0  0  0
 13 15  1  6  0  0  0
 13 17  1  0  0  0  0
 13 14  1  0  0  0  0
 13 16  1  0  0  0  0
 16 17  1  6  0  0  0
 18 19  1  0  0  0  0
 19 21  1  0  0  0  0
 20 19  2  0  0  0  0
 21 30  1  0  0  0  0
 23 28  2  0  0  0  0
 23 30  1  0  0  0  0
 24 32  1  0  0  0  0
 24 25  2  0  0  0  0
 26 25  1  0  0  0  0
 26 22  2  0  0  0  0
 27 29  2  0  0  0  0
 27 28  1  0  0  0  0
 28 26  1  0  0  0  0
 29 24  1  0  0  0  0
 30 31  2  0  0  0  0
 31 22  1  0  0  0  0
 32 33  1  0  0  0  0
 34 32  2  0  0  0  0
M  END
>  <MODEL>
9

>  <REMARK>
 VINA RESULT:      -7.0      2.416      2.787
  Name = 
  5 active torsions:
  status: ('A' for Active; 'I' for Inactive)
    1  A    between atoms: C_1  and  C_9
    2  A    between atoms: C_7  and  C_11
    3  A    between atoms: C_8  and  C_9
    4  A    between atoms: N_18  and  C_30
    5  A    between atoms: N_23  and  C_25
                            x       y       z     vdW  Elec       q    Type
                         _______ _______ _______ _____ _____    ______ ____

>  <TORSDO>
F 5

$$$$
