=
 OpenBabel11052419583D

 37 44  0  0  1  0  0  0  0  0999 V2000
  190.2210  176.3360  144.0290 C   0  0  0  0  0  0  0  0  0  0  0  0
  192.6010  174.6130  144.8560 C   0  0  1  0  0  0  0  0  0  0  0  0
  188.8030  175.9170  144.2330 C   0  0  1  0  0  3  0  0  0  0  0  0
  193.6410  175.7210  144.7540 C   0  0  1  0  0  0  0  0  0  0  0  0
  190.1910  171.9420  142.9690 C   0  0  0  0  0  2  0  0  0  0  0  0
  192.2540  177.6230  144.6470 C   0  0  0  0  0  2  0  0  0  0  0  0
  188.6900  175.2050  145.4470 O   0  0  0  0  0  0  0  0  0  0  0  0
  191.1940  174.3060  142.7180 C   0  0  1  0  0  3  0  0  0  0  0  0
  191.1680  171.7140  144.1000 C   0  0  0  0  0  2  0  0  0  0  0  0
  189.1300  177.0400  147.0690 C   0  0  1  0  0  3  0  0  0  0  0  0
  190.9140  175.8340  142.7700 C   0  0  0  0  0  2  0  0  0  0  0  0
  192.5010  172.2890  143.6750 C   0  0  0  0  0  2  0  0  0  0  0  0
  190.5270  176.5200  147.2720 C   0  0  0  0  0  2  0  0  0  0  0  0
  193.2340  176.9210  145.4730 N   0  0  0  0  0  2  0  0  0  0  0  0
  192.4190  173.8150  143.5490 C   0  0  2  0  0  3  0  0  0  0  0  0
  190.8610  177.1230  144.9320 C   0  0  0  0  0  0  0  0  0  0  0  0
  189.9120  173.4320  142.7580 C   0  0  1  0  0  3  0  0  0  0  0  0
  193.9390  174.5080  145.6400 C   0  0  1  0  0  0  0  0  0  0  0  0
  190.2900  177.6290  146.2460 C   0  0  1  0  0  3  0  0  0  0  0  0
  188.1580  176.0280  146.4500 C   0  0  0  0  0  2  0  0  0  0  0  0
  192.6850  173.8270  146.1490 C   0  0  0  0  0  2  0  0  0  0  0  0
  194.1060  175.7660  142.2530 C   0  0  0  0  0  3  0  0  0  0  0  0
  194.5600  175.9400  143.5670 C   0  0  0  0  0  0  0  0  0  0  0  0
  195.8510  176.4490  143.7810 C   0  0  0  0  0  3  0  0  0  0  0  0
  197.9410  177.2030  142.9170 F   0  0  0  0  0  0  0  0  0  0  0  0
  196.2380  176.5220  141.3930 C   0  0  0  0  0  3  0  0  0  0  0  0
  196.6910  176.7270  142.6990 C   0  0  0  0  0  0  0  0  0  0  0  0
  194.9440  176.0450  141.1700 C   0  0  0  0  0  3  0  0  0  0  0  0
  189.1160  173.5840  141.4570 C   0  0  0  0  0  0  0  0  0  0  0  0
  187.7710  174.2660  141.5450 C   0  0  0  0  0  2  0  0  0  0  0  0
  189.8250  173.6920  140.1180 C   0  0  0  0  0  1  0  0  0  0  0  0
  187.8500  172.7550  141.3980 C   0  0  0  0  0  2  0  0  0  0  0  0
  188.0480  177.7570  142.6580 C   0  0  0  0  0  1  0  0  0  0  0  0
  187.7740  177.0400  143.9680 C   0  0  0  0  0  2  0  0  0  0  0  0
  194.9060  173.4830  145.0440 C   0  0  0  0  0  2  0  0  0  0  0  0
  197.1910  173.4860  146.4240 C   0  0  0  0  0  3  0  0  0  0  0  0
  196.1600  173.4840  145.8000 C   0  0  0  0  0  0  0  0  0  0  0  0
  1  3  1  0  0  0  0
  1 16  2  0  0  0  0
  2 18  1  0  0  0  0
  2 21  1  1  0  0  0
  3 34  1  1  0  0  0
  3  7  1  0  0  0  0
  4 23  1  6  0  0  0
  4  2  1  0  0  0  0
  4 14  1  0  0  0  0
  4 18  1  0  0  0  0
  5  9  1  0  0  0  0
  6 16  1  0  0  0  0
  6 14  1  0  0  0  0
  7 20  1  0  0  0  0
  8 17  1  0  0  0  0
  8 11  1  1  0  0  0
  8 15  1  0  0  0  0
 10 20  1  6  0  0  0
 10 13  1  0  0  0  0
 11  1  1  0  0  0  0
 12  9  1  0  0  0  0
 15 12  1  1  0  0  0
 15  2  1  0  0  0  0
 16 19  1  0  0  0  0
 17 29  1  6  0  0  0
 17  5  1  0  0  0  0
 18 35  1  6  0  0  0
 18 21  1  0  0  0  0
 19 10  1  0  0  0  0
 19 13  1  1  0  0  0
 22 23  1  0  0  0  0
 23 24  2  0  0  0  0
 26 27  2  0  0  0  0
 27 25  1  0  0  0  0
 27 24  1  0  0  0  0
 28 26  1  0  0  0  0
 28 22  2  0  0  0  0
 29 30  1  0  0  0  0
 31 29  1  0  0  0  0
 32 29  1  0  0  0  0
 32 30  1  0  0  0  0
 33 34  1  0  0  0  0
 35 37  1  0  0  0  0
 37 36  3  0  0  0  0
M  END
>  <MODEL>
1

>  <REMARK>
 VINA RESULT:      -7.5      0.000      0.000
  Name = 
  5 active torsions:
  status: ('A' for Active; 'I' for Inactive)
    1  A    between atoms: C_3  and  C_30
    2  A    between atoms: C_5  and  C_23
    3  A    between atoms: C_6  and  C_7
    4  A    between atoms: C_14  and  C_31
    5  A    between atoms: C_14  and  C_37
                            x       y       z     vdW  Elec       q    Type
                         _______ _______ _______ _____ _____    ______ ____

>  <TORSDO>
F 5

$$$$
=
 OpenBabel11052419583D

 37 44  0  0  1  0  0  0  0  0999 V2000
  190.1240  176.1010  143.8340 C   0  0  0  0  0  0  0  0  0  0  0  0
  192.6760  174.6650  144.6950 C   0  0  1  0  0  0  0  0  0  0  0  0
  188.7580  175.5850  144.1390 C   0  0  1  0  0  3  0  0  0  0  0  0
  193.6110  175.8410  144.4470 C   0  0  1  0  0  0  0  0  0  0  0  0
  190.4350  171.6410  143.1640 C   0  0  0  0  0  2  0  0  0  0  0  0
  192.0600  177.6030  144.2400 C   0  0  0  0  0  2  0  0  0  0  0  0
  188.7550  174.9800  145.4150 O   0  0  0  0  0  0  0  0  0  0  0  0
  191.2180  174.0470  142.6600 C   0  0  1  0  0  3  0  0  0  0  0  0
  191.4730  171.6000  144.2630 C   0  0  0  0  0  2  0  0  0  0  0  0
  189.0970  176.9850  146.8480 C   0  0  1  0  0  3  0  0  0  0  0  0
  190.8080  175.5450  142.5920 C   0  0  0  0  0  2  0  0  0  0  0  0
  192.7330  172.2430  143.7270 C   0  0  0  0  0  2  0  0  0  0  0  0
  190.5410  176.6040  147.0300 C   0  0  0  0  0  2  0  0  0  0  0  0
  193.1300  177.0630  145.0770 N   0  0  0  0  0  2  0  0  0  0  0  0
  192.5130  173.7380  143.4720 C   0  0  2  0  0  3  0  0  0  0  0  0
  190.7290  177.0170  144.6330 C   0  0  0  0  0  0  0  0  0  0  0  0
  190.0190  173.0780  142.8360 C   0  0  1  0  0  3  0  0  0  0  0  0
  194.0490  174.7420  145.4210 C   0  0  1  0  0  0  0  0  0  0  0  0
  190.1680  177.5920  145.9230 C   0  0  1  0  0  3  0  0  0  0  0  0
  188.1930  175.8430  146.3670 C   0  0  0  0  0  2  0  0  0  0  0  0
  192.8800  174.0090  146.0460 C   0  0  0  0  0  2  0  0  0  0  0  0
  195.8030  176.4180  143.2910 C   0  0  0  0  0  3  0  0  0  0  0  0
  194.4600  176.0270  143.2040 C   0  0  0  0  0  0  0  0  0  0  0  0
  193.9310  175.6800  141.9510 C   0  0  0  0  0  3  0  0  0  0  0  0
  194.1920  175.4520  139.5920 F   0  0  0  0  0  0  0  0  0  0  0  0
  196.0460  176.1930  140.8940 C   0  0  0  0  0  3  0  0  0  0  0  0
  194.7170  175.7740  140.7990 C   0  0  0  0  0  0  0  0  0  0  0  0
  196.5900  176.5120  142.1410 C   0  0  0  0  0  3  0  0  0  0  0  0
  189.1620  173.0430  141.5670 C   0  0  0  0  0  0  0  0  0  0  0  0
  189.6960  172.2560  140.3930 C   0  0  0  0  0  2  0  0  0  0  0  0
  187.6500  173.1700  141.6440 C   0  0  0  0  0  1  0  0  0  0  0  0
  189.7640  173.7750  140.3850 C   0  0  0  0  0  2  0  0  0  0  0  0
  187.4890  176.8390  142.3350 C   0  0  0  0  0  1  0  0  0  0  0  0
  187.6240  176.5890  143.8260 C   0  0  0  0  0  2  0  0  0  0  0  0
  195.0760  173.7520  144.8720 C   0  0  0  0  0  2  0  0  0  0  0  0
  197.1920  173.6440  146.4970 C   0  0  0  0  0  3  0  0  0  0  0  0
  196.2360  173.6920  145.7640 C   0  0  0  0  0  0  0  0  0  0  0  0
  1  3  1  0  0  0  0
  1 16  2  0  0  0  0
  2 18  1  0  0  0  0
  2 21  1  1  0  0  0
  3 34  1  1  0  0  0
  3  7  1  0  0  0  0
  4 23  1  6  0  0  0
  4  2  1  0  0  0  0
  4 14  1  0  0  0  0
  4 18  1  0  0  0  0
  5  9  1  0  0  0  0
  6 16  1  0  0  0  0
  6 14  1  0  0  0  0
  7 20  1  0  0  0  0
  8 11  1  1  0  0  0
  8 17  1  0  0  0  0
  8 15  1  0  0  0  0
 10 20  1  6  0  0  0
 10 13  1  0  0  0  0
 11  1  1  0  0  0  0
 12  9  1  0  0  0  0
 15 12  1  1  0  0  0
 15  2  1  0  0  0  0
 16 19  1  0  0  0  0
 17 29  1  6  0  0  0
 17  5  1  0  0  0  0
 18 35  1  6  0  0  0
 18 21  1  0  0  0  0
 19 10  1  0  0  0  0
 19 13  1  1  0  0  0
 23 22  1  0  0  0  0
 24 23  2  0  0  0  0
 25 27  1  0  0  0  0
 26 28  1  0  0  0  0
 27 26  2  0  0  0  0
 27 24  1  0  0  0  0
 28 22  2  0  0  0  0
 29 31  1  0  0  0  0
 30 29  1  0  0  0  0
 32 30  1  0  0  0  0
 32 29  1  0  0  0  0
 33 34  1  0  0  0  0
 35 37  1  0  0  0  0
 37 36  3  0  0  0  0
M  END
>  <MODEL>
2

>  <REMARK>
 VINA RESULT:      -7.3      0.992      1.464
  Name = 
  5 active torsions:
  status: ('A' for Active; 'I' for Inactive)
    1  A    between atoms: C_3  and  C_30
    2  A    between atoms: C_5  and  C_23
    3  A    between atoms: C_6  and  C_7
    4  A    between atoms: C_14  and  C_31
    5  A    between atoms: C_14  and  C_37
                            x       y       z     vdW  Elec       q    Type
                         _______ _______ _______ _____ _____    ______ ____

>  <TORSDO>
F 5

$$$$
=
 OpenBabel11052419583D

 37 44  0  0  1  0  0  0  0  0999 V2000
  188.2570  177.6230  145.0420 C   0  0  0  0  0  0  0  0  0  0  0  0
  189.8310  175.0160  144.8480 C   0  0  1  0  0  0  0  0  0  0  0  0
  186.8020  177.7210  144.7270 C   0  0  1  0  0  3  0  0  0  0  0  0
  191.0390  175.5000  145.6390 C   0  0  1  0  0  0  0  0  0  0  0  0
  187.7340  175.0430  141.3690 C   0  0  0  0  0  2  0  0  0  0  0  0
  190.1680  177.4580  146.6200 C   0  0  0  0  0  2  0  0  0  0  0  0
  186.1470  176.5420  145.1460 O   0  0  0  0  0  0  0  0  0  0  0  0
  189.2020  176.5430  142.8680 C   0  0  1  0  0  3  0  0  0  0  0  0
  188.2050  173.8650  142.1910 C   0  0  0  0  0  2  0  0  0  0  0  0
  186.3580  176.7820  147.6140 C   0  0  1  0  0  3  0  0  0  0  0  0
  189.2250  177.7300  143.8720 C   0  0  0  0  0  2  0  0  0  0  0  0
  189.6880  174.0400  142.4330 C   0  0  0  0  0  2  0  0  0  0  0  0
  187.4740  175.7720  147.6130 C   0  0  0  0  0  2  0  0  0  0  0  0
  190.6540  176.1090  146.9050 N   0  0  0  0  0  2  0  0  0  0  0  0
  189.9520  175.2550  143.3280 C   0  0  2  0  0  3  0  0  0  0  0  0
  188.6930  177.4410  146.3160 C   0  0  0  0  0  0  0  0  0  0  0  0
  187.8390  176.3540  142.1510 C   0  0  1  0  0  3  0  0  0  0  0  0
  190.7760  173.9940  145.5410 C   0  0  1  0  0  0  0  0  0  0  0  0
  187.8200  177.2610  147.5460 C   0  0  1  0  0  3  0  0  0  0  0  0
  185.4760  176.7580  146.3590 C   0  0  0  0  0  2  0  0  0  0  0  0
  189.3170  173.6640  145.3030 C   0  0  0  0  0  2  0  0  0  0  0  0
  193.4300  176.3500  145.8250 C   0  0  0  0  0  3  0  0  0  0  0  0
  192.3300  176.0080  145.0260 C   0  0  0  0  0  0  0  0  0  0  0  0
  192.4730  176.0150  143.6300 C   0  0  0  0  0  3  0  0  0  0  0  0
  193.8000  176.4300  141.6930 F   0  0  0  0  0  0  0  0  0  0  0  0
  194.7590  176.7770  143.8480 C   0  0  0  0  0  3  0  0  0  0  0  0
  193.6780  176.4100  143.0430 C   0  0  0  0  0  0  0  0  0  0  0  0
  194.6360  176.7430  145.2400 C   0  0  0  0  0  3  0  0  0  0  0  0
  187.5780  177.5080  141.1780 C   0  0  0  0  0  0  0  0  0  0  0  0
  186.1370  177.8300  140.8580 C   0  0  0  0  0  2  0  0  0  0  0  0
  188.5550  178.6660  141.0620 C   0  0  0  0  0  1  0  0  0  0  0  0
  186.9930  177.0840  139.8470 C   0  0  0  0  0  2  0  0  0  0  0  0
  185.5660  179.7880  143.9300 C   0  0  0  0  0  1  0  0  0  0  0  0
  186.1630  179.0710  145.1270 C   0  0  0  0  0  2  0  0  0  0  0  0
  191.6680  173.2360  144.5570 C   0  0  0  0  0  2  0  0  0  0  0  0
  193.9380  172.5140  145.7630 C   0  0  0  0  0  3  0  0  0  0  0  0
  192.9140  172.8410  145.2180 C   0  0  0  0  0  0  0  0  0  0  0  0
  1 16  2  0  0  0  0
  2 21  1  1  0  0  0
  2 18  1  0  0  0  0
  2  4  1  0  0  0  0
  3  1  1  0  0  0  0
  3 34  1  1  0  0  0
  3  7  1  0  0  0  0
  4 23  1  6  0  0  0
  4 14  1  0  0  0  0
  5 17  1  0  0  0  0
  5  9  1  0  0  0  0
  6 14  1  0  0  0  0
  7 20  1  0  0  0  0
  8 15  1  0  0  0  0
  8 11  1  1  0  0  0
  9 12  1  0  0  0  0
 10 20  1  6  0  0  0
 11  1  1  0  0  0  0
 13 10  1  0  0  0  0
 15 12  1  6  0  0  0
 15  2  1  0  0  0  0
 16  6  1  0  0  0  0
 16 19  1  0  0  0  0
 17 29  1  6  0  0  0
 17  8  1  0  0  0  0
 18 35  1  6  0  0  0
 18  4  1  0  0  0  0
 19 13  1  1  0  0  0
 19 10  1  0  0  0  0
 21 18  1  0  0  0  0
 23 22  2  0  0  0  0
 24 23  1  0  0  0  0
 25 27  1  0  0  0  0
 26 28  2  0  0  0  0
 27 24  2  0  0  0  0
 27 26  1  0  0  0  0
 28 22  1  0  0  0  0
 30 29  1  0  0  0  0
 31 29  1  0  0  0  0
 32 30  1  0  0  0  0
 32 29  1  0  0  0  0
 33 34  1  0  0  0  0
 35 37  1  0  0  0  0
 37 36  3  0  0  0  0
M  END
>  <MODEL>
3

>  <REMARK>
 VINA RESULT:      -6.8      1.975      3.398
  Name = 
  5 active torsions:
  status: ('A' for Active; 'I' for Inactive)
    1  A    between atoms: C_3  and  C_30
    2  A    between atoms: C_5  and  C_23
    3  A    between atoms: C_6  and  C_7
    4  A    between atoms: C_14  and  C_31
    5  A    between atoms: C_14  and  C_37
                            x       y       z     vdW  Elec       q    Type
                         _______ _______ _______ _____ _____    ______ ____

>  <TORSDO>
F 5

$$$$
=
 OpenBabel11052419583D

 37 44  0  0  1  0  0  0  0  0999 V2000
  192.5250  173.4380  142.2840 C   0  0  0  0  0  0  0  0  0  0  0  0
  191.0300  174.7670  144.5890 C   0  0  1  0  0  0  0  0  0  0  0  0
  193.8730  172.8170  142.4390 C   0  0  1  0  0  3  0  0  0  0  0  0
  189.6740  174.8080  143.8950 C   0  0  1  0  0  0  0  0  0  0  0  0
  194.7730  176.3000  144.9640 C   0  0  0  0  0  2  0  0  0  0  0  0
  190.0510  173.3270  142.1010 C   0  0  0  0  0  2  0  0  0  0  0  0
  193.9670  172.2010  143.7070 O   0  0  0  0  0  0  0  0  0  0  0  0
  192.9330  175.8360  143.2170 C   0  0  1  0  0  3  0  0  0  0  0  0
  193.7390  176.0310  146.0340 C   0  0  0  0  0  2  0  0  0  0  0  0
  192.3520  170.3320  143.4020 C   0  0  1  0  0  3  0  0  0  0  0  0
  192.4830  174.9380  142.0300 C   0  0  0  0  0  2  0  0  0  0  0  0
  192.4530  176.7030  145.6060 C   0  0  0  0  0  2  0  0  0  0  0  0
  191.3310  171.0880  144.2070 C   0  0  0  0  0  2  0  0  0  0  0  0
  189.3040  173.5120  143.3440 N   0  0  0  0  0  2  0  0  0  0  0  0
  191.8820  176.0320  144.3520 C   0  0  2  0  0  3  0  0  0  0  0  0
  191.3910  172.6960  142.3730 C   0  0  0  0  0  0  0  0  0  0  0  0
  194.4080  175.6170  143.6440 C   0  0  1  0  0  3  0  0  0  0  0  0
  189.7230  174.8680  145.4250 C   0  0  1  0  0  0  0  0  0  0  0  0
  191.3130  171.2100  142.6830 C   0  0  1  0  0  3  0  0  0  0  0  0
  193.7960  170.8130  143.5920 C   0  0  0  0  0  2  0  0  0  0  0  0
  190.9660  174.2220  146.0020 C   0  0  0  0  0  2  0  0  0  0  0  0
  189.9090  177.1080  142.8320 C   0  0  0  0  0  3  0  0  0  0  0  0
  189.1000  176.0180  143.1840 C   0  0  0  0  0  0  0  0  0  0  0  0
  187.7630  175.9960  142.7560 C   0  0  0  0  0  3  0  0  0  0  0  0
  185.9350  177.0440  141.6420 F   0  0  0  0  0  0  0  0  0  0  0  0
  188.0390  178.1630  141.7160 C   0  0  0  0  0  3  0  0  0  0  0  0
  187.2310  177.0680  142.0360 C   0  0  0  0  0  0  0  0  0  0  0  0
  189.3790  178.1800  142.1100 C   0  0  0  0  0  3  0  0  0  0  0  0
  195.3650  176.1340  142.5640 C   0  0  0  0  0  0  0  0  0  0  0  0
  196.6840  175.4140  142.4070 C   0  0  0  0  0  2  0  0  0  0  0  0
  194.8340  176.8200  141.3170 C   0  0  0  0  0  1  0  0  0  0  0  0
  196.6320  176.7660  143.1010 C   0  0  0  0  0  2  0  0  0  0  0  0
  195.0170  172.8620  140.1750 C   0  0  0  0  0  1  0  0  0  0  0  0
  194.3290  171.9930  141.2130 C   0  0  0  0  0  2  0  0  0  0  0  0
  189.5040  176.2540  146.0340 C   0  0  0  0  0  2  0  0  0  0  0  0
  187.0000  176.4620  146.9370 C   0  0  0  0  0  3  0  0  0  0  0  0
  188.1300  176.3690  146.5280 C   0  0  0  0  0  0  0  0  0  0  0  0
  1 16  2  0  0  0  0
  1  3  1  0  0  0  0
  2 18  1  0  0  0  0
  2 21  1  1  0  0  0
  3 34  1  6  0  0  0
  3  7  1  0  0  0  0
  4 23  1  6  0  0  0
  4  2  1  0  0  0  0
  4 18  1  0  0  0  0
  5  9  1  0  0  0  0
  6 16  1  0  0  0  0
  6 14  1  0  0  0  0
  8 11  1  1  0  0  0
  8 17  1  0  0  0  0
  8 15  1  0  0  0  0
 10 20  1  1  0  0  0
 10 13  1  0  0  0  0
 11  1  1  0  0  0  0
 12  9  1  0  0  0  0
 14  4  1  0  0  0  0
 15  2  1  0  0  0  0
 15 12  1  1  0  0  0
 16 19  1  0  0  0  0
 17 29  1  6  0  0  0
 17  5  1  0  0  0  0
 18 21  1  0  0  0  0
 18 35  1  1  0  0  0
 19 10  1  0  0  0  0
 19 13  1  1  0  0  0
 20  7  1  0  0  0  0
 22 23  1  0  0  0  0
 24 23  2  0  0  0  0
 25 27  1  0  0  0  0
 26 27  2  0  0  0  0
 26 28  1  0  0  0  0
 27 24  1  0  0  0  0
 28 22  2  0  0  0  0
 29 32  1  0  0  0  0
 30 29  1  0  0  0  0
 30 32  1  0  0  0  0
 31 29  1  0  0  0  0
 33 34  1  0  0  0  0
 35 37  1  0  0  0  0
 37 36  3  0  0  0  0
M  END
>  <MODEL>
4

>  <REMARK>
 VINA RESULT:      -6.8      2.909      6.758
  Name = 
  5 active torsions:
  status: ('A' for Active; 'I' for Inactive)
    1  A    between atoms: C_3  and  C_30
    2  A    between atoms: C_5  and  C_23
    3  A    between atoms: C_6  and  C_7
    4  A    between atoms: C_14  and  C_31
    5  A    between atoms: C_14  and  C_37
                            x       y       z     vdW  Elec       q    Type
                         _______ _______ _______ _____ _____    ______ ____

>  <TORSDO>
F 5

$$$$
=
 OpenBabel11052419583D

 37 44  0  0  1  0  0  0  0  0999 V2000
  194.8690  174.1800  144.6740 C   0  0  0  0  0  0  0  0  0  0  0  0
  192.3040  174.6090  143.0760 C   0  0  1  0  0  0  0  0  0  0  0  0
  196.0300  173.3990  144.1540 C   0  0  1  0  0  3  0  0  0  0  0  0
  191.7620  175.7360  143.9470 C   0  0  1  0  0  0  0  0  0  0  0  0
  192.9920  170.6350  142.5900 C   0  0  0  0  0  2  0  0  0  0  0  0
  193.6860  176.3030  145.1830 C   0  0  0  0  0  2  0  0  0  0  0  0
  196.1670  173.6220  142.7660 O   0  0  0  0  0  0  0  0  0  0  0  0
  192.9160  172.4790  144.3930 C   0  0  1  0  0  3  0  0  0  0  0  0
  192.3140  171.6090  141.6530 C   0  0  0  0  0  2  0  0  0  0  0  0
  196.8620  176.0120  142.7770 C   0  0  1  0  0  3  0  0  0  0  0  0
  193.7490  173.3900  145.3370 C   0  0  0  0  0  2  0  0  0  0  0  0
  191.2310  172.3190  142.4360 C   0  0  0  0  0  2  0  0  0  0  0  0
  195.4690  176.4140  142.3730 C   0  0  0  0  0  2  0  0  0  0  0  0
  192.7520  176.7810  144.1650 N   0  0  0  0  0  2  0  0  0  0  0  0
  191.8430  173.2060  143.5250 C   0  0  2  0  0  3  0  0  0  0  0  0
  194.8150  175.5310  144.5510 C   0  0  0  0  0  0  0  0  0  0  0  0
  193.7450  171.3600  143.7080 C   0  0  1  0  0  3  0  0  0  0  0  0
  191.2620  175.6120  142.5040 C   0  0  1  0  0  0  0  0  0  0  0  0
  195.8410  176.4110  143.8570 C   0  0  1  0  0  3  0  0  0  0  0  0
  197.1990  174.5380  142.5160 C   0  0  0  0  0  2  0  0  0  0  0  0
  192.2550  174.9190  141.5930 C   0  0  0  0  0  2  0  0  0  0  0  0
  190.4150  174.2980  145.5570 C   0  0  0  0  0  3  0  0  0  0  0  0
  190.7280  175.5640  145.0430 C   0  0  0  0  0  0  0  0  0  0  0  0
  190.1650  176.7010  145.6430 C   0  0  0  0  0  3  0  0  0  0  0  0
  188.7140  177.6740  147.2650 F   0  0  0  0  0  0  0  0  0  0  0  0
  188.9370  175.3020  147.1890 C   0  0  0  0  0  3  0  0  0  0  0  0
  189.2640  176.5710  146.7040 C   0  0  0  0  0  0  0  0  0  0  0  0
  189.5160  174.1660  146.6170 C   0  0  0  0  0  3  0  0  0  0  0  0
  194.1900  170.3130  144.7340 C   0  0  0  0  0  0  0  0  0  0  0  0
  194.8630  169.0690  144.2050 C   0  0  0  0  0  2  0  0  0  0  0  0
  194.5720  170.7220  146.1470 C   0  0  0  0  0  1  0  0  0  0  0  0
  193.4190  169.0120  144.6760 C   0  0  0  0  0  2  0  0  0  0  0  0
  196.9870  173.4170  146.5040 C   0  0  0  0  0  1  0  0  0  0  0  0
  197.3040  173.5180  145.0220 C   0  0  0  0  0  2  0  0  0  0  0  0
  189.8680  175.0040  142.3430 C   0  0  0  0  0  2  0  0  0  0  0  0
  188.1090  176.9200  141.7400 C   0  0  0  0  0  3  0  0  0  0  0  0
  188.9030  176.0550  142.0130 C   0  0  0  0  0  0  0  0  0  0  0  0
  1 11  1  0  0  0  0
  2 21  1  6  0  0  0
  2 15  1  0  0  0  0
  2  4  1  0  0  0  0
  3  1  1  0  0  0  0
  3 34  1  1  0  0  0
  4 14  1  0  0  0  0
  4 23  1  1  0  0  0
  7  3  1  0  0  0  0
  8 11  1  6  0  0  0
  9 12  1  0  0  0  0
  9  5  1  0  0  0  0
 10 13  1  6  0  0  0
 10 19  1  0  0  0  0
 14  6  1  0  0  0  0
 15 12  1  6  0  0  0
 15  8  1  0  0  0  0
 16  1  2  0  0  0  0
 16  6  1  0  0  0  0
 17  5  1  6  0  0  0
 17  8  1  0  0  0  0
 17 29  1  0  0  0  0
 18 35  1  6  0  0  0
 18  2  1  0  0  0  0
 18  4  1  0  0  0  0
 19 13  1  6  0  0  0
 19 16  1  0  0  0  0
 20  7  1  0  0  0  0
 20 10  1  0  0  0  0
 21 18  1  0  0  0  0
 22 28  1  0  0  0  0
 23 22  2  0  0  0  0
 23 24  1  0  0  0  0
 24 27  2  0  0  0  0
 27 26  1  0  0  0  0
 27 25  1  0  0  0  0
 28 26  2  0  0  0  0
 29 31  1  0  0  0  0
 30 32  1  0  0  0  0
 30 29  1  0  0  0  0
 32 29  1  0  0  0  0
 34 33  1  0  0  0  0
 36 37  3  0  0  0  0
 37 35  1  0  0  0  0
M  END
>  <MODEL>
5

>  <REMARK>
 VINA RESULT:      -6.7      2.731      6.703
  Name = 
  5 active torsions:
  status: ('A' for Active; 'I' for Inactive)
    1  A    between atoms: C_3  and  C_30
    2  A    between atoms: C_5  and  C_23
    3  A    between atoms: C_6  and  C_7
    4  A    between atoms: C_14  and  C_31
    5  A    between atoms: C_14  and  C_37
                            x       y       z     vdW  Elec       q    Type
                         _______ _______ _______ _____ _____    ______ ____

>  <TORSDO>
F 5

$$$$
=
 OpenBabel11052419583D

 37 44  0  0  1  0  0  0  0  0999 V2000
  193.7390  173.6140  141.2100 C   0  0  0  0  0  0  0  0  0  0  0  0
  192.5700  173.8570  144.0190 C   0  0  1  0  0  0  0  0  0  0  0  0
  194.9730  172.8330  140.9070 C   0  0  1  0  0  3  0  0  0  0  0  0
  191.2130  174.3910  143.5800 C   0  0  1  0  0  0  0  0  0  0  0  0
  196.5240  174.5490  144.6440 C   0  0  0  0  0  2  0  0  0  0  0  0
  191.2740  173.9110  141.2740 C   0  0  0  0  0  2  0  0  0  0  0  0
  195.0160  171.6810  141.7230 O   0  0  0  0  0  0  0  0  0  0  0  0
  194.5660  175.2060  143.0990 C   0  0  1  0  0  3  0  0  0  0  0  0
  195.5030  173.9320  145.5740 C   0  0  0  0  0  2  0  0  0  0  0  0
  193.1090  170.4000  140.7650 C   0  0  1  0  0  3  0  0  0  0  0  0
  193.9300  175.0460  141.6900 C   0  0  0  0  0  2  0  0  0  0  0  0
  194.3270  174.8800  145.6540 C   0  0  0  0  0  2  0  0  0  0  0  0
  192.2560  170.8000  141.9390 C   0  0  0  0  0  2  0  0  0  0  0  0
  190.6160  173.5720  142.5340 N   0  0  0  0  0  2  0  0  0  0  0  0
  193.6060  174.9650  144.3040 C   0  0  2  0  0  3  0  0  0  0  0  0
  192.5030  173.0660  141.0690 C   0  0  0  0  0  0  0  0  0  0  0  0
  196.0020  174.6290  143.2080 C   0  0  1  0  0  3  0  0  0  0  0  0
  191.3310  173.7080  144.9460 C   0  0  1  0  0  0  0  0  0  0  0  0
  192.1980  171.6360  140.6580 C   0  0  1  0  0  3  0  0  0  0  0  0
  194.6190  170.5490  140.9950 C   0  0  0  0  0  2  0  0  0  0  0  0
  192.4750  172.7170  145.0130 C   0  0  0  0  0  2  0  0  0  0  0  0
  191.7790  176.8720  143.5970 C   0  0  0  0  0  3  0  0  0  0  0  0
  190.8140  175.8550  143.5820 C   0  0  0  0  0  0  0  0  0  0  0  0
  189.4610  176.2000  143.4400 C   0  0  0  0  0  3  0  0  0  0  0  0
  187.7660  177.8650  143.2450 F   0  0  0  0  0  0  0  0  0  0  0  0
  190.0440  178.5490  143.4110 C   0  0  0  0  0  3  0  0  0  0  0  0
  189.0760  177.5420  143.3660 C   0  0  0  0  0  0  0  0  0  0  0  0
  191.3960  178.2130  143.5230 C   0  0  0  0  0  3  0  0  0  0  0  0
  196.9860  175.4750  142.3930 C   0  0  0  0  0  0  0  0  0  0  0  0
  197.4610  176.7700  143.0110 C   0  0  0  0  0  2  0  0  0  0  0  0
  197.9410  174.8250  141.4060 C   0  0  0  0  0  1  0  0  0  0  0  0
  196.4220  176.7910  141.9010 C   0  0  0  0  0  2  0  0  0  0  0  0
  195.5290  173.9650  138.7060 C   0  0  0  0  0  1  0  0  0  0  0  0
  195.2410  172.6440  139.3960 C   0  0  0  0  0  2  0  0  0  0  0  0
  191.3630  174.6510  146.1500 C   0  0  0  0  0  2  0  0  0  0  0  0
  188.9410  174.7860  147.2640 C   0  0  0  0  0  3  0  0  0  0  0  0
  190.0340  174.7240  146.7600 C   0  0  0  0  0  0  0  0  0  0  0  0
  1 11  1  0  0  0  0
  2 15  1  0  0  0  0
  2 18  1  0  0  0  0
  2 21  1  6  0  0  0
  3 34  1  6  0  0  0
  3  1  1  0  0  0  0
  3  7  1  0  0  0  0
  4 23  1  6  0  0  0
  4  2  1  0  0  0  0
  4 18  1  0  0  0  0
  5  9  1  0  0  0  0
  6 14  1  0  0  0  0
  8 11  1  6  0  0  0
  8 17  1  0  0  0  0
  8 15  1  0  0  0  0
  9 12  1  0  0  0  0
 10 20  1  1  0  0  0
 10 13  1  0  0  0  0
 14  4  1  0  0  0  0
 15 12  1  1  0  0  0
 16  1  2  0  0  0  0
 16  6  1  0  0  0  0
 17 29  1  6  0  0  0
 17  5  1  0  0  0  0
 18 21  1  0  0  0  0
 18 35  1  1  0  0  0
 19 10  1  0  0  0  0
 19 16  1  0  0  0  0
 19 13  1  1  0  0  0
 20  7  1  0  0  0  0
 23 22  1  0  0  0  0
 24 23  2  0  0  0  0
 25 27  1  0  0  0  0
 26 28  1  0  0  0  0
 27 26  2  0  0  0  0
 27 24  1  0  0  0  0
 28 22  2  0  0  0  0
 29 30  1  0  0  0  0
 31 29  1  0  0  0  0
 32 29  1  0  0  0  0
 32 30  1  0  0  0  0
 33 34  1  0  0  0  0
 35 37  1  0  0  0  0
 37 36  3  0  0  0  0
M  END
>  <MODEL>
6

>  <REMARK>
 VINA RESULT:      -6.1      3.005      6.743
  Name = 
  5 active torsions:
  status: ('A' for Active; 'I' for Inactive)
    1  A    between atoms: C_3  and  C_30
    2  A    between atoms: C_5  and  C_23
    3  A    between atoms: C_6  and  C_7
    4  A    between atoms: C_14  and  C_31
    5  A    between atoms: C_14  and  C_37
                            x       y       z     vdW  Elec       q    Type
                         _______ _______ _______ _____ _____    ______ ____

>  <TORSDO>
F 5

$$$$
=
 OpenBabel11052419583D

 37 44  0  0  1  0  0  0  0  0999 V2000
  190.1950  174.6240  144.1110 C   0  0  0  0  0  0  0  0  0  0  0  0
  191.9800  173.4010  141.9580 C   0  0  1  0  0  0  0  0  0  0  0  0
  190.0340  176.0960  144.2950 C   0  0  1  0  0  3  0  0  0  0  0  0
  191.4040  171.9940  142.0550 C   0  0  1  0  0  0  0  0  0  0  0  0
  194.3610  176.2840  143.5470 C   0  0  0  0  0  2  0  0  0  0  0  0
  189.4390  172.4050  143.2900 C   0  0  0  0  0  2  0  0  0  0  0  0
  190.0510  176.7350  143.0360 O   0  0  0  0  0  0  0  0  0  0  0  0
  192.7840  174.3550  144.2140 C   0  0  1  0  0  3  0  0  0  0  0  0
  194.3330  175.7370  142.1370 C   0  0  0  0  0  2  0  0  0  0  0  0
  187.9060  175.8950  142.0940 C   0  0  1  0  0  3  0  0  0  0  0  0
  191.3920  173.9720  144.7890 C   0  0  0  0  0  2  0  0  0  0  0  0
  194.4380  174.2310  142.2290 C   0  0  0  0  0  2  0  0  0  0  0  0
  188.6680  174.9160  141.2430 C   0  0  0  0  0  2  0  0  0  0  0  0
  189.9490  171.9940  141.9830 N   0  0  0  0  0  2  0  0  0  0  0  0
  193.1880  173.6390  142.8880 C   0  0  2  0  0  3  0  0  0  0  0  0
  189.3160  173.9040  143.3660 C   0  0  0  0  0  0  0  0  0  0  0  0
  193.1200  175.8650  144.3380 C   0  0  1  0  0  3  0  0  0  0  0  0
  192.1140  172.4150  140.7640 C   0  0  1  0  0  0  0  0  0  0  0  0
  188.1280  174.4580  142.5990 C   0  0  1  0  0  3  0  0  0  0  0  0
  188.7480  177.0600  142.6320 C   0  0  0  0  0  2  0  0  0  0  0  0
  192.0840  173.9120  140.5350 C   0  0  0  0  0  2  0  0  0  0  0  0
  191.9370  169.5290  142.3880 C   0  0  0  0  0  3  0  0  0  0  0  0
  192.0290  170.8540  142.8360 C   0  0  0  0  0  0  0  0  0  0  0  0
  192.8210  171.1410  143.9590 C   0  0  0  0  0  3  0  0  0  0  0  0
  194.2150  170.3990  145.7440 F   0  0  0  0  0  0  0  0  0  0  0  0
  193.3440  168.7920  144.2140 C   0  0  0  0  0  3  0  0  0  0  0  0
  193.4660  170.1130  144.6520 C   0  0  0  0  0  0  0  0  0  0  0  0
  192.5820  168.5010  143.0790 C   0  0  0  0  0  3  0  0  0  0  0  0
  193.3420  176.2490  145.8050 C   0  0  0  0  0  0  0  0  0  0  0  0
  194.5660  177.0750  146.1250 C   0  0  0  0  0  2  0  0  0  0  0  0
  192.1660  176.4160  146.7530 C   0  0  0  0  0  1  0  0  0  0  0  0
  194.5420  175.5890  146.4500 C   0  0  0  0  0  2  0  0  0  0  0  0
  188.8070  175.5150  146.4390 C   0  0  0  0  0  1  0  0  0  0  0  0
  188.9030  176.4850  145.2750 C   0  0  0  0  0  2  0  0  0  0  0  0
  193.5330  171.8710  140.5900 C   0  0  0  0  0  2  0  0  0  0  0  0
  193.6130  170.2070  138.5030 C   0  0  0  0  0  3  0  0  0  0  0  0
  193.5780  170.9580  139.4450 C   0  0  0  0  0  0  0  0  0  0  0  0
  1  3  1  0  0  0  0
  1 11  1  0  0  0  0
  2 21  1  6  0  0  0
  2  4  1  0  0  0  0
  2 15  1  0  0  0  0
  3 34  1  6  0  0  0
  4 23  1  1  0  0  0
  6 16  1  0  0  0  0
  7  3  1  0  0  0  0
  8 17  1  0  0  0  0
  8 11  1  6  0  0  0
  9 12  1  0  0  0  0
  9  5  1  0  0  0  0
 10 13  1  6  0  0  0
 10 19  1  0  0  0  0
 10 20  1  0  0  0  0
 14  4  1  0  0  0  0
 14  6  1  0  0  0  0
 15 12  1  6  0  0  0
 15  8  1  0  0  0  0
 16  1  2  0  0  0  0
 17  5  1  6  0  0  0
 17 29  1  0  0  0  0
 18 35  1  6  0  0  0
 18  2  1  0  0  0  0
 18  4  1  0  0  0  0
 19 13  1  6  0  0  0
 19 16  1  0  0  0  0
 20  7  1  0  0  0  0
 21 18  1  0  0  0  0
 22 23  2  0  0  0  0
 22 28  1  0  0  0  0
 23 24  1  0  0  0  0
 24 27  2  0  0  0  0
 26 27  1  0  0  0  0
 27 25  1  0  0  0  0
 28 26  2  0  0  0  0
 29 30  1  0  0  0  0
 29 32  1  0  0  0  0
 29 31  1  0  0  0  0
 30 32  1  0  0  0  0
 34 33  1  0  0  0  0
 36 37  3  0  0  0  0
 37 35  1  0  0  0  0
M  END
>  <MODEL>
7

>  <REMARK>
 VINA RESULT:      -6.1      2.753      5.835
  Name = 
  5 active torsions:
  status: ('A' for Active; 'I' for Inactive)
    1  A    between atoms: C_3  and  C_30
    2  A    between atoms: C_5  and  C_23
    3  A    between atoms: C_6  and  C_7
    4  A    between atoms: C_14  and  C_31
    5  A    between atoms: C_14  and  C_37
                            x       y       z     vdW  Elec       q    Type
                         _______ _______ _______ _____ _____    ______ ____

>  <TORSDO>
F 5

$$$$
=
 OpenBabel11052419583D

 37 44  0  0  1  0  0  0  0  0999 V2000
  192.3710  175.9300  143.7950 C   0  0  0  0  0  0  0  0  0  0  0  0
  194.0440  173.4560  143.1640 C   0  0  1  0  0  0  0  0  0  0  0  0
  191.2680  175.9320  144.7990 C   0  0  1  0  0  3  0  0  0  0  0  0
  195.1530  174.1980  142.4300 C   0  0  1  0  0  0  0  0  0  0  0  0
  190.2550  171.9900  143.1400 C   0  0  0  0  0  2  0  0  0  0  0  0
  194.6940  176.4200  143.0640 C   0  0  0  0  0  2  0  0  0  0  0  0
  191.6150  175.0970  145.8840 O   0  0  0  0  0  0  0  0  0  0  0  0
  191.6830  173.9460  142.2520 C   0  0  1  0  0  3  0  0  0  0  0  0
  191.5470  171.2930  143.5040 C   0  0  0  0  0  2  0  0  0  0  0  0
  193.4790  176.4190  146.8700 C   0  0  1  0  0  3  0  0  0  0  0  0
  192.0230  175.4570  142.3900 C   0  0  0  0  0  2  0  0  0  0  0  0
  192.5160  171.5000  142.3610 C   0  0  0  0  0  2  0  0  0  0  0  0
  194.4720  175.4740  146.2490 C   0  0  0  0  0  2  0  0  0  0  0  0
  195.6560  175.3280  143.1990 N   0  0  0  0  0  2  0  0  0  0  0  0
  192.9050  172.9770  142.2400 C   0  0  2  0  0  3  0  0  0  0  0  0
  193.6280  176.3260  144.1240 C   0  0  0  0  0  0  0  0  0  0  0  0
  190.4360  173.5080  143.0650 C   0  0  1  0  0  3  0  0  0  0  0  0
  195.4570  172.8220  143.0310 C   0  0  1  0  0  0  0  0  0  0  0  0
  194.1000  176.7570  145.5030 C   0  0  1  0  0  3  0  0  0  0  0  0
  192.0530  175.8650  146.9740 C   0  0  0  0  0  2  0  0  0  0  0  0
  194.5590  172.4780  144.2020 C   0  0  0  0  0  2  0  0  0  0  0  0
  194.1240  174.3080  140.1050 C   0  0  0  0  0  3  0  0  0  0  0  0
  195.2630  174.3210  140.9220 C   0  0  0  0  0  0  0  0  0  0  0  0
  196.5150  174.5810  140.3420 C   0  0  0  0  0  3  0  0  0  0  0  0
  197.8460  175.0050  138.4100 F   0  0  0  0  0  0  0  0  0  0  0  0
  195.4920  174.7260  138.1540 C   0  0  0  0  0  3  0  0  0  0  0  0
  196.6310  174.7710  138.9620 C   0  0  0  0  0  0  0  0  0  0  0  0
  194.2380  174.4980  138.7260 C   0  0  0  0  0  3  0  0  0  0  0  0
  189.1610  174.1060  142.4610 C   0  0  0  0  0  0  0  0  0  0  0  0
  188.2680  173.1780  141.6720 C   0  0  0  0  0  2  0  0  0  0  0  0
  188.4690  175.2890  143.1170 C   0  0  0  0  0  1  0  0  0  0  0  0
  189.1580  174.1760  140.9480 C   0  0  0  0  0  2  0  0  0  0  0  0
  190.6160  178.2090  143.8910 C   0  0  0  0  0  1  0  0  0  0  0  0
  190.7260  177.3410  145.1310 C   0  0  0  0  0  2  0  0  0  0  0  0
  195.5060  171.6660  142.0310 C   0  0  0  0  0  2  0  0  0  0  0  0
  197.9410  170.5700  142.0330 C   0  0  0  0  0  3  0  0  0  0  0  0
  196.8420  171.0650  142.0310 C   0  0  0  0  0  0  0  0  0  0  0  0
  1 16  2  0  0  0  0
  1  3  1  0  0  0  0
  2 21  1  1  0  0  0
  3 34  1  1  0  0  0
  3  7  1  0  0  0  0
  4 23  1  6  0  0  0
  4 18  1  0  0  0  0
  4  2  1  0  0  0  0
  4 14  1  0  0  0  0
  5  9  1  0  0  0  0
  6 14  1  0  0  0  0
  6 16  1  0  0  0  0
  7 20  1  0  0  0  0
  8 11  1  1  0  0  0
  8 17  1  0  0  0  0
 10 13  1  6  0  0  0
 10 20  1  0  0  0  0
 11  1  1  0  0  0  0
 12  9  1  0  0  0  0
 15  8  1  0  0  0  0
 15 12  1  1  0  0  0
 15  2  1  0  0  0  0
 16 19  1  0  0  0  0
 17 29  1  6  0  0  0
 17  5  1  0  0  0  0
 18 35  1  6  0  0  0
 18  2  1  0  0  0  0
 18 21  1  0  0  0  0
 19 13  1  1  0  0  0
 19 10  1  0  0  0  0
 22 23  1  0  0  0  0
 24 23  2  0  0  0  0
 25 27  1  0  0  0  0
 26 28  1  0  0  0  0
 26 27  2  0  0  0  0
 27 24  1  0  0  0  0
 28 22  2  0  0  0  0
 29 31  1  0  0  0  0
 30 29  1  0  0  0  0
 32 30  1  0  0  0  0
 32 29  1  0  0  0  0
 33 34  1  0  0  0  0
 35 37  1  0  0  0  0
 37 36  3  0  0  0  0
M  END
>  <MODEL>
8

>  <REMARK>
 VINA RESULT:      -6.1      2.269      3.142
  Name = 
  5 active torsions:
  status: ('A' for Active; 'I' for Inactive)
    1  A    between atoms: C_3  and  C_30
    2  A    between atoms: C_5  and  C_23
    3  A    between atoms: C_6  and  C_7
    4  A    between atoms: C_14  and  C_31
    5  A    between atoms: C_14  and  C_37
                            x       y       z     vdW  Elec       q    Type
                         _______ _______ _______ _____ _____    ______ ____

>  <TORSDO>
F 5

$$$$
=
 OpenBabel11052419583D

 37 44  0  0  1  0  0  0  0  0999 V2000
  191.3560  174.5120  144.7720 C   0  0  0  0  0  0  0  0  0  0  0  0
  191.7340  173.3940  141.9570 C   0  0  1  0  0  0  0  0  0  0  0  0
  191.7500  175.8990  145.1560 C   0  0  1  0  0  3  0  0  0  0  0  0
  190.8200  172.1890  142.1410 C   0  0  1  0  0  0  0  0  0  0  0  0
  195.3150  175.1670  142.6920 C   0  0  0  0  0  2  0  0  0  0  0  0
  189.6890  172.7910  144.1180 C   0  0  0  0  0  2  0  0  0  0  0  0
  191.5040  176.7770  144.0770 O   0  0  0  0  0  0  0  0  0  0  0  0
  193.5710  173.5920  143.7550 C   0  0  1  0  0  3  0  0  0  0  0  0
  194.5980  174.9710  141.3750 C   0  0  0  0  0  2  0  0  0  0  0  0
  189.0160  176.7280  144.0370 C   0  0  1  0  0  3  0  0  0  0  0  0
  192.4450  173.4490  144.8170 C   0  0  0  0  0  2  0  0  0  0  0  0
  194.2460  173.5050  141.2590 C   0  0  0  0  0  2  0  0  0  0  0  0
  189.0570  175.8040  142.8500 C   0  0  0  0  0  2  0  0  0  0  0  0
  189.5230  172.5670  142.6830 N   0  0  0  0  0  2  0  0  0  0  0  0
  193.2080  173.1120  142.3160 C   0  0  2  0  0  3  0  0  0  0  0  0
  190.0850  174.2180  144.3920 C   0  0  0  0  0  0  0  0  0  0  0  0
  194.3890  174.9040  143.8820 C   0  0  1  0  0  3  0  0  0  0  0  0
  191.0980  172.6960  140.7220 C   0  0  1  0  0  0  0  0  0  0  0  0
  188.9390  175.2060  144.2530 C   0  0  1  0  0  3  0  0  0  0  0  0
  190.3190  177.4970  144.2910 C   0  0  0  0  0  2  0  0  0  0  0  0
  191.4630  174.1660  140.6810 C   0  0  0  0  0  2  0  0  0  0  0  0
  190.8170  169.6740  141.7580 C   0  0  0  0  0  3  0  0  0  0  0  0
  191.2920  170.7850  142.4680 C   0  0  0  0  0  0  0  0  0  0  0  0
  192.3160  170.6050  143.4110 C   0  0  0  0  0  3  0  0  0  0  0  0
  193.7950  169.1630  144.6000 F   0  0  0  0  0  0  0  0  0  0  0  0
  192.3160  168.2230  142.9840 C   0  0  0  0  0  3  0  0  0  0  0  0
  192.8180  169.3280  143.6770 C   0  0  0  0  0  0  0  0  0  0  0  0
  191.3180  168.3970  142.0220 C   0  0  0  0  0  3  0  0  0  0  0  0
  195.2450  174.8860  145.1520 C   0  0  0  0  0  0  0  0  0  0  0  0
  196.7000  174.5100  145.0000 C   0  0  0  0  0  2  0  0  0  0  0  0
  194.9170  175.7930  146.3260 C   0  0  0  0  0  1  0  0  0  0  0  0
  195.7110  173.5080  145.5740 C   0  0  0  0  0  2  0  0  0  0  0  0
  191.5670  175.2910  147.6120 C   0  0  0  0  0  1  0  0  0  0  0  0
  191.2450  176.3290  146.5530 C   0  0  0  0  0  2  0  0  0  0  0  0
  192.1010  171.8690  139.9160 C   0  0  0  0  0  2  0  0  0  0  0  0
  190.9580  170.9920  137.6690 C   0  0  0  0  0  3  0  0  0  0  0  0
  191.4730  171.3890  138.6830 C   0  0  0  0  0  0  0  0  0  0  0  0
  1 11  1  0  0  0  0
  1  3  1  0  0  0  0
  2 21  1  1  0  0  0
  2  4  1  0  0  0  0
  2 15  1  0  0  0  0
  3 34  1  1  0  0  0
  4 23  1  1  0  0  0
  4 14  1  0  0  0  0
  6 16  1  0  0  0  0
  7 20  1  0  0  0  0
  7  3  1  0  0  0  0
  8 17  1  0  0  0  0
  8 11  1  1  0  0  0
  9  5  1  0  0  0  0
 10 13  1  6  0  0  0
 10 19  1  0  0  0  0
 10 20  1  0  0  0  0
 12  9  1  0  0  0  0
 14  6  1  0  0  0  0
 15 12  1  6  0  0  0
 15  8  1  0  0  0  0
 16  1  2  0  0  0  0
 17  5  1  6  0  0  0
 17 29  1  0  0  0  0
 18 35  1  6  0  0  0
 18  2  1  0  0  0  0
 18  4  1  0  0  0  0
 19 13  1  6  0  0  0
 19 16  1  0  0  0  0
 21 18  1  0  0  0  0
 22 28  2  0  0  0  0
 22 23  1  0  0  0  0
 23 24  2  0  0  0  0
 24 27  1  0  0  0  0
 26 27  2  0  0  0  0
 27 25  1  0  0  0  0
 28 26  1  0  0  0  0
 29 32  1  0  0  0  0
 29 31  1  0  0  0  0
 30 29  1  0  0  0  0
 30 32  1  0  0  0  0
 34 33  1  0  0  0  0
 36 37  3  0  0  0  0
 37 35  1  0  0  0  0
M  END
>  <MODEL>
9

>  <REMARK>
 VINA RESULT:      -6.0      2.708      6.213
  Name = 
  5 active torsions:
  status: ('A' for Active; 'I' for Inactive)
    1  A    between atoms: C_3  and  C_30
    2  A    between atoms: C_5  and  C_23
    3  A    between atoms: C_6  and  C_7
    4  A    between atoms: C_14  and  C_31
    5  A    between atoms: C_14  and  C_37
                            x       y       z     vdW  Elec       q    Type
                         _______ _______ _______ _____ _____    ______ ____

>  <TORSDO>
F 5

$$$$
