=
 OpenBabel11052418283D

 27 31  0  0  0  0  0  0  0  0999 V2000
  190.7750  174.3590  143.5270 N   0  0  0  0  0  0  0  0  0  0  0  0
  189.8480  176.0880  145.0090 C   0  0  0  0  0  0  0  0  0  0  0  0
  188.2840  175.8890  143.0450 N   0  0  0  0  0  0  0  0  0  0  0  0
  186.7770  177.8920  147.1350 C   0  0  0  0  0  3  0  0  0  0  0  0
  184.4080  178.5400  147.4220 O   0  0  0  0  0  1  0  0  0  0  0  0
  190.0220  176.6890  146.2720 C   0  0  0  0  0  3  0  0  0  0  0  0
  186.1230  176.8800  144.5220 C   0  0  0  0  0  2  0  0  0  0  0  0
  189.0380  174.1380  139.9520 N   0  0  0  0  0  0  0  0  0  0  0  0
  185.0880  177.4930  145.4270 C   0  0  0  0  0  3  0  0  0  0  0  0
  188.2580  173.9530  138.7430 C   0  0  0  0  0  1  0  0  0  0  0  0
  187.5010  176.7720  145.1490 C   0  0  0  0  0  0  0  0  0  0  0  0
  190.9120  175.4400  144.4600 C   0  0  0  0  0  0  0  0  0  0  0  0
  185.3970  177.9700  146.6310 C   0  0  0  0  0  0  0  0  0  0  0  0
  187.7510  177.3180  146.4230 C   0  0  0  0  0  0  0  0  0  0  0  0
  189.9080  174.1260  142.5970 C   0  0  0  0  0  0  0  0  0  0  0  0
  188.5520  176.1680  144.4260 C   0  0  0  0  0  0  0  0  0  0  0  0
  188.2310  174.9640  140.8470 C   0  0  0  0  0  2  0  0  0  0  0  0
  189.0000  177.2760  146.9380 N   0  0  0  0  0  0  0  0  0  0  0  0
  189.1740  172.8250  140.5690 C   0  0  0  0  0  2  0  0  0  0  0  0
  190.1460  172.9110  141.7430 C   0  0  0  0  0  2  0  0  0  0  0  0
  188.8570  175.0850  142.2100 C   0  0  0  0  0  0  0  0  0  0  0  0
  194.9170  175.8840  145.9530 C   0  0  0  0  0  3  0  0  0  0  0  0
  192.2870  175.6140  145.0040 C   0  0  0  0  0  0  0  0  0  0  0  0
  193.0030  176.8050  144.7940 C   0  0  0  0  0  3  0  0  0  0  0  0
  194.3090  176.9410  145.2720 C   0  0  0  0  0  3  0  0  0  0  0  0
  194.2220  174.6880  146.1520 C   0  0  0  0  0  3  0  0  0  0  0  0
  192.9150  174.5530  145.6730 C   0  0  0  0  0  3  0  0  0  0  0  0
  1 12  1  0  0  0  0
  2  6  1  0  0  0  0
  3 16  1  0  0  0  0
  6 18  2  0  0  0  0
  7 11  1  0  0  0  0
  7  9  1  0  0  0  0
  8 19  1  0  0  0  0
  8 17  1  0  0  0  0
  9 13  2  0  0  0  0
 10  8  1  0  0  0  0
 11 14  1  0  0  0  0
 12 23  1  0  0  0  0
 12  2  2  0  0  0  0
 13  4  1  0  0  0  0
 13  5  1  0  0  0  0
 14 18  1  0  0  0  0
 14  4  2  0  0  0  0
 15  1  2  0  0  0  0
 16  2  1  0  0  0  0
 16 11  2  0  0  0  0
 17 21  1  0  0  0  0
 19 20  1  0  0  0  0
 20 15  1  0  0  0  0
 21 15  1  0  0  0  0
 21  3  2  0  0  0  0
 22 26  1  0  0  0  0
 23 27  1  0  0  0  0
 24 23  2  0  0  0  0
 24 25  1  0  0  0  0
 25 22  2  0  0  0  0
 27 26  2  0  0  0  0
M  END
>  <MODEL>
1

>  <REMARK>
 VINA RESULT:      -8.3      0.000      0.000
  Name = 
  1 active torsions:
  status: ('A' for Active; 'I' for Inactive)
    1  A    between atoms: C_9  and  C_15
                            x       y       z     vdW  Elec       q    Type
                         _______ _______ _______ _____ _____    ______ ____

>  <TORSDO>
F 1

$$$$
=
 OpenBabel11052418283D

 27 31  0  0  0  0  0  0  0  0999 V2000
  187.5610  176.5800  142.6050 N   0  0  0  0  0  0  0  0  0  0  0  0
  188.9920  176.4910  144.6040 C   0  0  0  0  0  0  0  0  0  0  0  0
  189.8230  174.7130  143.0240 N   0  0  0  0  0  0  0  0  0  0  0  0
  192.6600  176.3410  146.5330 C   0  0  0  0  0  3  0  0  0  0  0  0
  195.0190  175.6150  146.6840 O   0  0  0  0  0  1  0  0  0  0  0  0
  189.2630  177.1560  145.8150 C   0  0  0  0  0  3  0  0  0  0  0  0
  192.3860  174.7560  144.1470 C   0  0  0  0  0  2  0  0  0  0  0  0
  188.0310  173.5280  140.0940 N   0  0  0  0  0  0  0  0  0  0  0  0
  193.6840  174.8490  144.9030 C   0  0  0  0  0  3  0  0  0  0  0  0
  188.3680  172.5140  139.1120 C   0  0  0  0  0  1  0  0  0  0  0  0
  191.2840  175.6350  144.7090 C   0  0  0  0  0  0  0  0  0  0  0  0
  187.7810  176.7010  144.0180 C   0  0  0  0  0  0  0  0  0  0  0  0
  193.8040  175.5750  146.0140 C   0  0  0  0  0  0  0  0  0  0  0  0
  191.4850  176.3600  145.8980 C   0  0  0  0  0  0  0  0  0  0  0  0
  188.0680  175.7900  141.7170 C   0  0  0  0  0  0  0  0  0  0  0  0
  190.0300  175.6820  144.0610 C   0  0  0  0  0  0  0  0  0  0  0  0
  189.1200  173.5430  141.0690 C   0  0  0  0  0  2  0  0  0  0  0  0
  190.4700  177.0820  146.4240 N   0  0  0  0  0  0  0  0  0  0  0  0
  188.0480  174.8090  139.3980 C   0  0  0  0  0  2  0  0  0  0  0  0
  187.5140  175.8990  140.3230 C   0  0  0  0  0  2  0  0  0  0  0  0
  188.9760  174.6760  142.0480 C   0  0  0  0  0  0  0  0  0  0  0  0
  184.5020  178.5620  146.0810 C   0  0  0  0  0  3  0  0  0  0  0  0
  186.6650  177.3490  144.7620 C   0  0  0  0  0  0  0  0  0  0  0  0
  185.9100  176.6300  145.7050 C   0  0  0  0  0  3  0  0  0  0  0  0
  184.8380  177.2370  146.3650 C   0  0  0  0  0  3  0  0  0  0  0  0
  185.2350  179.2810  145.1330 C   0  0  0  0  0  3  0  0  0  0  0  0
  186.3070  178.6750  144.4720 C   0  0  0  0  0  3  0  0  0  0  0  0
  1 12  1  0  0  0  0
  2  6  1  0  0  0  0
  3 16  1  0  0  0  0
  6 18  2  0  0  0  0
  7 11  1  0  0  0  0
  7  9  1  0  0  0  0
  8 17  1  0  0  0  0
  9 13  2  0  0  0  0
 10  8  1  0  0  0  0
 11 14  1  0  0  0  0
 12  2  2  0  0  0  0
 12 23  1  0  0  0  0
 13  4  1  0  0  0  0
 13  5  1  0  0  0  0
 14 18  1  0  0  0  0
 14  4  2  0  0  0  0
 15 21  1  0  0  0  0
 15  1  2  0  0  0  0
 16  2  1  0  0  0  0
 16 11  2  0  0  0  0
 17 21  1  0  0  0  0
 19  8  1  0  0  0  0
 19 20  1  0  0  0  0
 20 15  1  0  0  0  0
 21  3  2  0  0  0  0
 22 25  1  0  0  0  0
 23 24  1  0  0  0  0
 24 25  2  0  0  0  0
 26 22  2  0  0  0  0
 27 23  2  0  0  0  0
 27 26  1  0  0  0  0
M  END
>  <MODEL>
2

>  <REMARK>
 VINA RESULT:      -8.2      2.428      5.856
  Name = 
  1 active torsions:
  status: ('A' for Active; 'I' for Inactive)
    1  A    between atoms: C_9  and  C_15
                            x       y       z     vdW  Elec       q    Type
                         _______ _______ _______ _____ _____    ______ ____

>  <TORSDO>
F 1

$$$$
=
 OpenBabel11052418283D

 27 31  0  0  0  0  0  0  0  0999 V2000
  188.9630  176.3190  145.9310 N   0  0  0  0  0  0  0  0  0  0  0  0
  188.2260  175.9690  143.6100 C   0  0  0  0  0  0  0  0  0  0  0  0
  190.7380  175.7770  143.6210 N   0  0  0  0  0  0  0  0  0  0  0  0
  188.1920  173.9290  140.0000 C   0  0  0  0  0  2  0  0  0  0  0  0
  189.2970  172.5900  138.2380 O   0  0  0  0  0  1  0  0  0  0  0  0
  187.0740  175.8110  142.8150 C   0  0  0  0  0  3  0  0  0  0  0  0
  190.7380  174.1920  141.3140 C   0  0  0  0  0  3  0  0  0  0  0  0
  192.8920  176.7850  146.3670 N   0  0  0  0  0  0  0  0  0  0  0  0
  190.5720  173.4160  140.0360 C   0  0  0  0  0  3  0  0  0  0  0  0
  194.3350  176.7530  146.5130 C   0  0  0  0  0  1  0  0  0  0  0  0
  189.4370  174.7370  141.8750 C   0  0  0  0  0  0  0  0  0  0  0  0
  188.0850  176.5710  144.8230 C   0  0  0  0  0  0  0  0  0  0  0  0
  189.3930  173.3050  139.4250 C   0  0  0  0  0  0  0  0  0  0  0  0
  188.2340  174.5930  141.1580 C   0  0  0  0  0  0  0  0  0  0  0  0
  190.2290  176.0650  145.9880 C   0  0  0  0  0  0  0  0  0  0  0  0
  189.4450  175.4410  143.0990 C   0  0  0  0  0  0  0  0  0  0  0  0
  192.5960  176.2860  145.0260 C   0  0  0  0  0  2  0  0  0  0  0  0
  187.0970  175.1450  141.6370 N   0  0  0  0  0  0  0  0  0  0  0  0
  192.3510  175.8260  147.3230 C   0  0  0  0  0  2  0  0  0  0  0  0
  190.8300  175.9470  147.3620 C   0  0  0  0  0  2  0  0  0  0  0  0
  191.1180  176.1050  144.8120 C   0  0  0  0  0  0  0  0  0  0  0  0
  184.5500  178.7460  145.9340 C   0  0  0  0  0  3  0  0  0  0  0  0
  186.8450  177.3150  145.1770 C   0  0  0  0  0  0  0  0  0  0  0  0
  186.5760  178.5780  144.6220 C   0  0  0  0  0  3  0  0  0  0  0  0
  185.4310  179.2860  144.9950 C   0  0  0  0  0  3  0  0  0  0  0  0
  184.8160  177.4990  146.5060 C   0  0  0  0  0  3  0  0  0  0  0  0
  185.9620  176.7910  146.1330 C   0  0  0  0  0  3  0  0  0  0  0  0
  1 15  1  0  0  0  0
  2 12  1  0  0  0  0
  3 21  1  0  0  0  0
  4 14  1  0  0  0  0
  5 13  1  0  0  0  0
  6  2  2  0  0  0  0
  7 11  2  0  0  0  0
  8 10  1  0  0  0  0
  8 19  1  0  0  0  0
  9  7  1  0  0  0  0
 11 16  1  0  0  0  0
 12 23  1  0  0  0  0
 12  1  2  0  0  0  0
 13  4  1  0  0  0  0
 13  9  2  0  0  0  0
 14 18  2  0  0  0  0
 14 11  1  0  0  0  0
 15 20  1  0  0  0  0
 16  2  1  0  0  0  0
 16  3  2  0  0  0  0
 17  8  1  0  0  0  0
 18  6  1  0  0  0  0
 19 20  1  0  0  0  0
 21 17  1  0  0  0  0
 21 15  2  0  0  0  0
 22 26  1  0  0  0  0
 23 27  1  0  0  0  0
 24 25  1  0  0  0  0
 24 23  2  0  0  0  0
 25 22  2  0  0  0  0
 27 26  2  0  0  0  0
M  END
>  <MODEL>
3

>  <REMARK>
 VINA RESULT:      -8.1      2.750      7.025
  Name = 
  1 active torsions:
  status: ('A' for Active; 'I' for Inactive)
    1  A    between atoms: C_9  and  C_15
                            x       y       z     vdW  Elec       q    Type
                         _______ _______ _______ _____ _____    ______ ____

>  <TORSDO>
F 1

$$$$
=
 OpenBabel11052418283D

 27 31  0  0  0  0  0  0  0  0999 V2000
  190.2750  174.2120  143.1760 N   0  0  0  0  0  0  0  0  0  0  0  0
  189.1490  176.2410  143.9920 C   0  0  0  0  0  0  0  0  0  0  0  0
  188.1500  175.7000  141.7440 N   0  0  0  0  0  0  0  0  0  0  0  0
  185.8020  178.5510  144.8050 C   0  0  0  0  0  3  0  0  0  0  0  0
  183.5110  179.3290  144.2950 O   0  0  0  0  0  1  0  0  0  0  0  0
  189.0370  177.0810  145.1170 C   0  0  0  0  0  3  0  0  0  0  0  0
  185.7750  177.0500  142.3500 C   0  0  0  0  0  2  0  0  0  0  0  0
  189.5340  173.3270  139.3670 N   0  0  0  0  0  0  0  0  0  0  0  0
  184.5970  177.8720  142.8010 C   0  0  0  0  0  3  0  0  0  0  0  0
  189.0890  172.9260  138.0460 C   0  0  0  0  0  1  0  0  0  0  0  0
  186.9210  177.0230  143.3440 C   0  0  0  0  0  0  0  0  0  0  0  0
  190.2570  175.4560  143.8920 C   0  0  0  0  0  0  0  0  0  0  0  0
  184.6180  178.5740  143.9320 C   0  0  0  0  0  0  0  0  0  0  0  0
  186.8730  177.8090  144.5110 C   0  0  0  0  0  0  0  0  0  0  0  0
  189.6680  173.8250  142.1030 C   0  0  0  0  0  0  0  0  0  0  0  0
  188.0670  176.2460  143.0680 C   0  0  0  0  0  0  0  0  0  0  0  0
  188.5980  174.3470  139.8320 C   0  0  0  0  0  2  0  0  0  0  0  0
  187.9320  177.8290  145.3510 N   0  0  0  0  0  0  0  0  0  0  0  0
  189.3820  172.1630  140.2320 C   0  0  0  0  0  2  0  0  0  0  0  0
  190.0130  172.4530  141.5920 C   0  0  0  0  0  2  0  0  0  0  0  0
  188.8490  174.7220  141.2670 C   0  0  0  0  0  0  0  0  0  0  0  0
  193.7380  176.0380  146.3430 C   0  0  0  0  0  3  0  0  0  0  0  0
  191.4490  175.6880  144.7530 C   0  0  0  0  0  0  0  0  0  0  0  0
  192.4420  176.6110  144.3820 C   0  0  0  0  0  3  0  0  0  0  0  0
  193.5780  176.7890  145.1770 C   0  0  0  0  0  3  0  0  0  0  0  0
  192.7670  175.1050  146.7130 C   0  0  0  0  0  3  0  0  0  0  0  0
  191.6300  174.9270  145.9180 C   0  0  0  0  0  3  0  0  0  0  0  0
  1 12  1  0  0  0  0
  2  6  1  0  0  0  0
  3 16  1  0  0  0  0
  6 18  2  0  0  0  0
  7  9  1  0  0  0  0
  7 11  1  0  0  0  0
  8 17  1  0  0  0  0
  8 19  1  0  0  0  0
  9 13  2  0  0  0  0
 10  8  1  0  0  0  0
 11 14  1  0  0  0  0
 12  2  2  0  0  0  0
 12 23  1  0  0  0  0
 13  5  1  0  0  0  0
 13  4  1  0  0  0  0
 14  4  2  0  0  0  0
 14 18  1  0  0  0  0
 15  1  2  0  0  0  0
 16 11  2  0  0  0  0
 16  2  1  0  0  0  0
 17 21  1  0  0  0  0
 19 20  1  0  0  0  0
 20 15  1  0  0  0  0
 21  3  2  0  0  0  0
 21 15  1  0  0  0  0
 22 26  1  0  0  0  0
 23 27  1  0  0  0  0
 24 23  2  0  0  0  0
 24 25  1  0  0  0  0
 25 22  2  0  0  0  0
 27 26  2  0  0  0  0
M  END
>  <MODEL>
4

>  <REMARK>
 VINA RESULT:      -7.9      1.433      1.665
  Name = 
  1 active torsions:
  status: ('A' for Active; 'I' for Inactive)
    1  A    between atoms: C_9  and  C_15
                            x       y       z     vdW  Elec       q    Type
                         _______ _______ _______ _____ _____    ______ ____

>  <TORSDO>
F 1

$$$$
=
 OpenBabel11052418283D

 27 31  0  0  0  0  0  0  0  0999 V2000
  190.2040  176.0930  145.4160 N   0  0  0  0  0  0  0  0  0  0  0  0
  189.0520  175.4840  143.3300 C   0  0  0  0  0  0  0  0  0  0  0  0
  191.5240  175.4440  142.8440 N   0  0  0  0  0  0  0  0  0  0  0  0
  188.4620  173.1170  139.9760 C   0  0  0  0  0  2  0  0  0  0  0  0
  189.2960  171.6880  138.1380 O   0  0  0  0  0  1  0  0  0  0  0  0
  187.7810  175.1850  142.8010 C   0  0  0  0  0  3  0  0  0  0  0  0
  191.1900  173.6530  140.7180 C   0  0  0  0  0  3  0  0  0  0  0  0
  194.0940  176.8300  145.0040 N   0  0  0  0  0  0  0  0  0  0  0  0
  190.8340  172.7520  139.5670 C   0  0  0  0  0  3  0  0  0  0  0  0
  195.5360  176.8970  144.8550 C   0  0  0  0  0  1  0  0  0  0  0  0
  189.9870  174.1690  141.4870 C   0  0  0  0  0  0  0  0  0  0  0  0
  189.1080  176.1870  144.4940 C   0  0  0  0  0  0  0  0  0  0  0  0
  189.5710  172.5150  139.2190 C   0  0  0  0  0  0  0  0  0  0  0  0
  188.6810  173.8870  141.0450 C   0  0  0  0  0  0  0  0  0  0  0  0
  191.4730  175.9210  145.2340 C   0  0  0  0  0  0  0  0  0  0  0  0
  190.1830  174.9840  142.6240 C   0  0  0  0  0  0  0  0  0  0  0  0
  193.5780  176.1910  143.7950 C   0  0  0  0  0  2  0  0  0  0  0  0
  187.6220  174.4130  141.7000 N   0  0  0  0  0  0  0  0  0  0  0  0
  193.8290  175.9340  146.1230 C   0  0  0  0  0  2  0  0  0  0  0  0
  192.3410  175.9680  146.4610 C   0  0  0  0  0  2  0  0  0  0  0  0
  192.1050  175.9040  143.9020 C   0  0  0  0  0  0  0  0  0  0  0  0
  185.7070  178.2500  146.1200 C   0  0  0  0  0  3  0  0  0  0  0  0
  187.9090  176.8860  145.0330 C   0  0  0  0  0  0  0  0  0  0  0  0
  187.3790  178.0160  144.3860 C   0  0  0  0  0  3  0  0  0  0  0  0
  186.2800  178.6900  144.9250 C   0  0  0  0  0  3  0  0  0  0  0  0
  186.2370  177.1380  146.7810 C   0  0  0  0  0  3  0  0  0  0  0  0
  187.3370  176.4640  146.2420 C   0  0  0  0  0  3  0  0  0  0  0  0
  2 12  1  0  0  0  0
  3 21  1  0  0  0  0
  4 14  1  0  0  0  0
  5 13  1  0  0  0  0
  6  2  2  0  0  0  0
  7 11  2  0  0  0  0
  8 19  1  0  0  0  0
  9  7  1  0  0  0  0
 10  8  1  0  0  0  0
 11 16  1  0  0  0  0
 12 23  1  0  0  0  0
 12  1  2  0  0  0  0
 13  9  2  0  0  0  0
 13  4  1  0  0  0  0
 14 11  1  0  0  0  0
 14 18  2  0  0  0  0
 15  1  1  0  0  0  0
 15 20  1  0  0  0  0
 16  3  2  0  0  0  0
 16  2  1  0  0  0  0
 17 21  1  0  0  0  0
 17  8  1  0  0  0  0
 18  6  1  0  0  0  0
 19 20  1  0  0  0  0
 21 15  2  0  0  0  0
 22 26  1  0  0  0  0
 23 27  1  0  0  0  0
 24 25  1  0  0  0  0
 24 23  2  0  0  0  0
 25 22  2  0  0  0  0
 27 26  2  0  0  0  0
M  END
>  <MODEL>
5

>  <REMARK>
 VINA RESULT:      -7.6      2.862      6.865
  Name = 
  1 active torsions:
  status: ('A' for Active; 'I' for Inactive)
    1  A    between atoms: C_9  and  C_15
                            x       y       z     vdW  Elec       q    Type
                         _______ _______ _______ _____ _____    ______ ____

>  <TORSDO>
F 1

$$$$
=
 OpenBabel11052418283D

 27 31  0  0  0  0  0  0  0  0999 V2000
  190.9880  173.9540  143.0940 N   0  0  0  0  0  0  0  0  0  0  0  0
  189.8580  175.9250  144.0360 C   0  0  0  0  0  0  0  0  0  0  0  0
  188.6810  175.3630  141.8800 N   0  0  0  0  0  0  0  0  0  0  0  0
  186.5060  178.0820  145.1800 C   0  0  0  0  0  3  0  0  0  0  0  0
  184.1470  178.7660  144.8920 O   0  0  0  0  0  1  0  0  0  0  0  0
  189.8140  176.7490  145.1780 C   0  0  0  0  0  3  0  0  0  0  0  0
  186.3170  176.6050  142.7180 C   0  0  0  0  0  2  0  0  0  0  0  0
  189.9400  173.0740  139.3560 N   0  0  0  0  0  0  0  0  0  0  0  0
  185.1520  177.3710  143.2850 C   0  0  0  0  0  3  0  0  0  0  0  0
  189.3930  172.6670  138.0750 C   0  0  0  0  0  1  0  0  0  0  0  0
  187.5490  176.6180  143.6030 C   0  0  0  0  0  0  0  0  0  0  0  0
  190.9840  175.1890  143.8240 C   0  0  0  0  0  0  0  0  0  0  0  0
  185.2470  178.0630  144.4190 C   0  0  0  0  0  0  0  0  0  0  0  0
  187.5760  177.3890  144.7810 C   0  0  0  0  0  0  0  0  0  0  0  0
  190.3020  173.5520  142.0750 C   0  0  0  0  0  0  0  0  0  0  0  0
  188.6970  175.8930  143.2130 C   0  0  0  0  0  0  0  0  0  0  0  0
  189.0080  174.0490  139.9180 C   0  0  0  0  0  2  0  0  0  0  0  0
  188.7050  177.4460  145.5210 N   0  0  0  0  0  0  0  0  0  0  0  0
  189.9160  171.8970  140.2160 C   0  0  0  0  0  2  0  0  0  0  0  0
  190.6560  172.2000  141.5160 C   0  0  0  0  0  2  0  0  0  0  0  0
  189.3730  174.4210  141.3290 C   0  0  0  0  0  0  0  0  0  0  0  0
  194.5530  176.0410  146.0600 C   0  0  0  0  0  3  0  0  0  0  0  0
  192.2390  175.4640  144.5770 C   0  0  0  0  0  0  0  0  0  0  0  0
  192.7630  174.5210  145.4790 C   0  0  0  0  0  3  0  0  0  0  0  0
  193.9180  174.8070  146.2120 C   0  0  0  0  0  3  0  0  0  0  0  0
  194.0320  176.9930  145.1800 C   0  0  0  0  0  3  0  0  0  0  0  0
  192.8760  176.7070  144.4470 C   0  0  0  0  0  3  0  0  0  0  0  0
  1 12  1  0  0  0  0
  2  6  1  0  0  0  0
  3 16  1  0  0  0  0
  6 18  2  0  0  0  0
  7  9  1  0  0  0  0
  7 11  1  0  0  0  0
  8 17  1  0  0  0  0
  8 19  1  0  0  0  0
  9 13  2  0  0  0  0
 10  8  1  0  0  0  0
 11 14  1  0  0  0  0
 12  2  2  0  0  0  0
 12 23  1  0  0  0  0
 13  5  1  0  0  0  0
 13  4  1  0  0  0  0
 14  4  2  0  0  0  0
 14 18  1  0  0  0  0
 15  1  2  0  0  0  0
 16 11  2  0  0  0  0
 16  2  1  0  0  0  0
 17 21  1  0  0  0  0
 19 20  1  0  0  0  0
 20 15  1  0  0  0  0
 21  3  2  0  0  0  0
 21 15  1  0  0  0  0
 22 25  1  0  0  0  0
 23 24  1  0  0  0  0
 24 25  2  0  0  0  0
 26 22  2  0  0  0  0
 27 23  2  0  0  0  0
 27 26  1  0  0  0  0
M  END
>  <MODEL>
6

>  <REMARK>
 VINA RESULT:      -7.6      1.212      1.653
  Name = 
  1 active torsions:
  status: ('A' for Active; 'I' for Inactive)
    1  A    between atoms: C_9  and  C_15
                            x       y       z     vdW  Elec       q    Type
                         _______ _______ _______ _____ _____    ______ ____

>  <TORSDO>
F 1

$$$$
=
 OpenBabel11052418283D

 27 31  0  0  1  0  0  0  0  0999 V2000
  190.7510  175.6470  142.4890 N   0  0  0  0  0  0  0  0  0  0  0  0
  188.4090  175.6930  143.2370 C   0  0  0  0  0  0  0  0  0  0  0  0
  189.8360  176.1780  145.2560 N   0  0  0  0  0  0  0  0  0  0  0  0
  185.1910  177.3750  145.2410 C   0  0  0  0  0  3  0  0  0  0  0  0
  184.2170  178.6660  147.1130 O   0  0  0  0  0  1  0  0  0  0  0  0
  187.0830  175.6410  142.7650 C   0  0  0  0  0  3  0  0  0  0  0  0
  187.7520  177.5330  146.5430 C   0  0  0  0  0  3  0  0  0  0  0  0
  193.4310  175.6860  145.4310 N   0  0  0  0  0  0  0  0  0  0  0  0
  186.5170  178.1640  147.1250 C   0  0  0  0  0  3  0  0  0  0  0  0
  194.3750  175.9010  146.5130 C   0  0  0  0  0  1  0  0  0  0  0  0
  187.5330  176.8940  145.1840 C   0  0  2  0  0  3  0  0  0  0  0  0
  189.3910  175.1930  142.4380 C   0  0  0  0  0  0  0  0  0  0  0  0
  185.3310  178.0790  146.5250 C   0  0  0  0  0  0  0  0  0  0  0  0
  186.2430  176.8300  144.6240 C   0  0  0  0  0  0  0  0  0  0  0  0
  191.4910  176.0510  143.4690 C   0  0  0  0  0  0  0  0  0  0  0  0
  188.6230  176.3110  144.5020 C   0  0  0  0  0  0  0  0  0  0  0  0
  192.1100  176.0220  145.9570 C   0  0  0  0  0  2  0  0  0  0  0  0
  186.0530  176.1950  143.4460 N   0  0  0  0  0  0  0  0  0  0  0  0
  193.7520  176.6590  144.3950 C   0  0  0  0  0  2  0  0  0  0  0  0
  192.9260  176.3650  143.1460 C   0  0  0  0  0  2  0  0  0  0  0  0
  191.0610  176.0080  144.8790 C   0  0  0  0  0  0  0  0  0  0  0  0
  188.5390  172.7860  138.9820 C   0  0  0  0  0  3  0  0  0  0  0  0
  189.0680  174.3450  141.2580 C   0  0  0  0  0  0  0  0  0  0  0  0
  189.4300  172.9860  141.2230 C   0  0  0  0  0  3  0  0  0  0  0  0
  189.1610  172.2110  140.0920 C   0  0  0  0  0  3  0  0  0  0  0  0
  188.1920  174.1390  138.9980 C   0  0  0  0  0  3  0  0  0  0  0  0
  188.4610  174.9160  140.1290 C   0  0  0  0  0  3  0  0  0  0  0  0
  1 15  1  0  0  0  0
  2 16  1  0  0  0  0
  4 13  2  0  0  0  0
  6  2  2  0  0  0  0
  6 18  1  0  0  0  0
  7  9  2  0  0  0  0
  8 17  1  0  0  0  0
  8 10  1  0  0  0  0
 11  7  1  1  0  0  0
 12  1  2  0  0  0  0
 12  2  1  0  0  0  0
 13  5  1  0  0  0  0
 13  9  1  0  0  0  0
 14 11  1  0  0  0  0
 14  4  1  0  0  0  0
 15 21  2  0  0  0  0
 16 11  1  0  0  0  0
 16  3  2  0  0  0  0
 18 14  2  0  0  0  0
 19  8  1  0  0  0  0
 20 15  1  0  0  0  0
 20 19  1  0  0  0  0
 21  3  1  0  0  0  0
 21 17  1  0  0  0  0
 22 26  2  0  0  0  0
 22 25  1  0  0  0  0
 23 12  1  0  0  0  0
 24 23  1  0  0  0  0
 25 24  2  0  0  0  0
 26 27  1  0  0  0  0
 27 23  2  0  0  0  0
M  END
>  <MODEL>
7

>  <REMARK>
 VINA RESULT:      -7.4      1.270      5.297
  Name = 
  1 active torsions:
  status: ('A' for Active; 'I' for Inactive)
    1  A    between atoms: C_9  and  C_15
                            x       y       z     vdW  Elec       q    Type
                         _______ _______ _______ _____ _____    ______ ____

>  <TORSDO>
F 1

$$$$
=
 OpenBabel11052418283D

 27 31  0  0  0  0  0  0  0  0999 V2000
  188.7350  175.2450  141.4860 N   0  0  0  0  0  0  0  0  0  0  0  0
  188.5470  176.3130  143.6930 C   0  0  0  0  0  0  0  0  0  0  0  0
  189.7290  174.1150  144.0380 N   0  0  0  0  0  0  0  0  0  0  0  0
  190.0630  177.5790  147.3400 C   0  0  0  0  0  3  0  0  0  0  0  0
  191.5650  177.3220  149.2880 O   0  0  0  0  0  1  0  0  0  0  0  0
  188.1570  177.5090  144.3270 C   0  0  0  0  0  2  0  0  0  0  0  0
  190.9630  175.0200  146.3820 C   0  0  0  0  0  3  0  0  0  0  0  0
  189.9240  171.4470  141.5810 N   0  0  0  0  0  0  0  0  0  0  0  0
  191.4880  175.6300  147.6540 C   0  0  0  0  0  3  0  0  0  0  0  0
  190.5450  170.1370  141.6380 C   0  0  0  0  0  1  0  0  0  0  0  0
  189.9970  175.9130  145.6260 C   0  0  0  0  0  0  0  0  0  0  0  0
  188.0530  176.0590  142.4510 C   0  0  0  0  0  0  0  0  0  0  0  0
  191.0610  176.8100  148.1000 C   0  0  0  0  0  0  0  0  0  0  0  0
  189.5810  177.1410  146.1740 C   0  0  0  0  0  0  0  0  0  0  0  0
  189.4790  174.1950  141.6140 C   0  0  0  0  0  0  0  0  0  0  0  0
  189.4700  175.4820  144.3890 C   0  0  0  0  0  0  0  0  0  0  0  0
  190.1380  172.0680  142.8860 C   0  0  0  0  0  2  0  0  0  0  0  0
  188.6660  177.8920  145.5220 N   0  0  0  0  0  0  0  0  0  0  0  0
  190.6690  172.2230  140.5970 C   0  0  0  0  0  2  0  0  0  0  0  0
  189.9530  173.5470  140.3420 C   0  0  0  0  0  2  0  0  0  0  0  0
  189.6910  173.5050  142.9000 C   0  0  0  0  0  0  0  0  0  0  0  0
  184.7210  178.2240  140.8130 C   0  0  0  0  0  3  0  0  0  0  0  0
  186.9100  176.8390  141.9000 C   0  0  0  0  0  0  0  0  0  0  0  0
  185.7880  177.1360  142.6930 C   0  0  0  0  0  3  0  0  0  0  0  0
  184.7020  177.8310  142.1520 C   0  0  0  0  0  3  0  0  0  0  0  0
  185.8240  177.9180  140.0100 C   0  0  0  0  0  3  0  0  0  0  0  0
  186.9100  177.2230  140.5500 C   0  0  0  0  0  3  0  0  0  0  0  0
  1 15  2  0  0  0  0
  1 12  1  0  0  0  0
  2  6  1  0  0  0  0
  2 16  1  0  0  0  0
  3 16  1  0  0  0  0
  4 13  2  0  0  0  0
  6 18  1  0  0  0  0
  7  9  2  0  0  0  0
  8 10  1  0  0  0  0
  8 17  1  0  0  0  0
  9 13  1  0  0  0  0
 11 14  1  0  0  0  0
 11  7  1  0  0  0  0
 12  2  2  0  0  0  0
 13  5  1  0  0  0  0
 14  4  1  0  0  0  0
 15 21  1  0  0  0  0
 16 11  2  0  0  0  0
 17 21  1  0  0  0  0
 18 14  2  0  0  0  0
 19  8  1  0  0  0  0
 20 19  1  0  0  0  0
 20 15  1  0  0  0  0
 21  3  2  0  0  0  0
 22 25  1  0  0  0  0
 23 12  1  0  0  0  0
 23 24  1  0  0  0  0
 25 24  2  0  0  0  0
 26 27  1  0  0  0  0
 26 22  2  0  0  0  0
 27 23  2  0  0  0  0
M  END
>  <MODEL>
8

>  <REMARK>
 VINA RESULT:      -7.3      2.597      5.526
  Name = 
  1 active torsions:
  status: ('A' for Active; 'I' for Inactive)
    1  A    between atoms: C_9  and  C_15
                            x       y       z     vdW  Elec       q    Type
                         _______ _______ _______ _____ _____    ______ ____

>  <TORSDO>
F 1

$$$$
=
 OpenBabel11052418283D

 27 31  0  0  0  0  0  0  0  0999 V2000
  189.1650  176.2650  145.0780 N   0  0  0  0  0  0  0  0  0  0  0  0
  188.7790  175.7430  142.7060 C   0  0  0  0  0  0  0  0  0  0  0  0
  191.2370  175.4050  143.1430 N   0  0  0  0  0  0  0  0  0  0  0  0
  189.1650  173.3790  139.3200 C   0  0  0  0  0  2  0  0  0  0  0  0
  190.4330  171.8190  137.8800 O   0  0  0  0  0  1  0  0  0  0  0  0
  187.7580  175.5800  141.7490 C   0  0  0  0  0  3  0  0  0  0  0  0
  191.4850  173.6140  141.0070 C   0  0  0  0  0  3  0  0  0  0  0  0
  192.9990  176.5370  146.1120 N   0  0  0  0  0  0  0  0  0  0  0  0
  191.4660  172.7330  139.7870 C   0  0  0  0  0  3  0  0  0  0  0  0
  194.3950  176.4340  146.4930 C   0  0  0  0  0  1  0  0  0  0  0  0
  190.1550  174.2850  141.3000 C   0  0  0  0  0  0  0  0  0  0  0  0
  188.4930  176.4630  143.8260 C   0  0  0  0  0  0  0  0  0  0  0  0
  190.3930  172.6350  139.0030 C   0  0  0  0  0  0  0  0  0  0  0  0
  189.0730  174.1450  140.4110 C   0  0  0  0  0  0  0  0  0  0  0  0
  190.3840  175.9440  145.3630 C   0  0  0  0  0  0  0  0  0  0  0  0
  190.0210  175.0980  142.4460 C   0  0  0  0  0  0  0  0  0  0  0  0
  192.8820  175.9330  144.7860 C   0  0  0  0  0  2  0  0  0  0  0  0
  187.9180  174.8060  140.6500 N   0  0  0  0  0  0  0  0  0  0  0  0
  192.2460  175.7050  147.0420 C   0  0  0  0  0  2  0  0  0  0  0  0
  190.7510  175.9190  146.8220 C   0  0  0  0  0  2  0  0  0  0  0  0
  191.4470  175.8200  144.3490 C   0  0  0  0  0  0  0  0  0  0  0  0
  185.0060  178.9530  144.1480 C   0  0  0  0  0  3  0  0  0  0  0  0
  187.2710  177.3090  143.9090 C   0  0  0  0  0  0  0  0  0  0  0  0
  187.0780  178.3910  143.0320 C   0  0  0  0  0  3  0  0  0  0  0  0
  185.9480  179.2040  143.1480 C   0  0  0  0  0  3  0  0  0  0  0  0
  185.1960  177.8910  145.0360 C   0  0  0  0  0  3  0  0  0  0  0  0
  186.3270  177.0780  144.9210 C   0  0  0  0  0  3  0  0  0  0  0  0
  1 15  1  0  0  0  0
  2 12  1  0  0  0  0
  3 21  1  0  0  0  0
  4 14  1  0  0  0  0
  5 13  1  0  0  0  0
  6  2  2  0  0  0  0
  7 11  2  0  0  0  0
  8 10  1  0  0  0  0
  8 19  1  0  0  0  0
  9  7  1  0  0  0  0
 11 16  1  0  0  0  0
 12 23  1  0  0  0  0
 12  1  2  0  0  0  0
 13  4  1  0  0  0  0
 13  9  2  0  0  0  0
 14 18  2  0  0  0  0
 14 11  1  0  0  0  0
 15 20  1  0  0  0  0
 16  2  1  0  0  0  0
 16  3  2  0  0  0  0
 17  8  1  0  0  0  0
 18  6  1  0  0  0  0
 20 19  1  0  0  0  0
 21 17  1  0  0  0  0
 21 15  2  0  0  0  0
 22 26  1  0  0  0  0
 23 27  1  0  0  0  0
 24 25  1  0  0  0  0
 24 23  2  0  0  0  0
 25 22  2  0  0  0  0
 27 26  2  0  0  0  0
M  END
>  <MODEL>
9

>  <REMARK>
 VINA RESULT:      -7.3      3.007      7.276
  Name = 
  1 active torsions:
  status: ('A' for Active; 'I' for Inactive)
    1  A    between atoms: C_9  and  C_15
                            x       y       z     vdW  Elec       q    Type
                         _______ _______ _______ _____ _____    ______ ____

>  <TORSDO>
F 1

$$$$
