=
 OpenBabel11052417413D

 31 35  0  0  1  0  0  0  0  0999 V2000
  186.0560  177.6220  147.3510 C   0  0  0  0  0  0  0  0  0  0  0  0
  188.4750  176.3810  144.6460 C   0  0  1  0  0  3  0  0  0  0  0  0
  189.7700  176.4580  145.4870 C   0  0  1  0  0  3  0  0  0  0  0  0
  190.7320  175.3340  147.5590 C   0  0  0  0  0  2  0  0  0  0  0  0
  187.2450  176.8790  145.3680 C   0  0  0  0  0  0  0  0  0  0  0  0
  184.8930  177.7900  146.5950 C   0  0  0  0  0  3  0  0  0  0  0  0
  189.7500  175.2330  146.4040 C   0  0  0  0  0  2  0  0  0  0  0  0
  187.3650  177.1440  142.4650 C   0  0  1  0  0  3  0  0  0  0  0  0
  186.0490  177.9000  148.6760 F   0  0  0  0  0  0  0  0  0  0  0  0
  190.9350  177.3860  143.4550 C   0  0  0  0  0  3  0  0  0  0  0  0
  192.1390  175.0410  147.0700 C   0  0  0  0  0  2  0  0  0  0  0  0
  186.0730  176.6880  143.1620 C   0  0  0  0  0  2  0  0  0  0  0  0
  188.5600  177.0380  143.3280 N   0  0  0  0  0  0  0  0  0  0  0  0
  187.2290  177.1650  146.7420 C   0  0  0  0  0  3  0  0  0  0  0  0
  192.7500  176.2700  146.4780 C   0  0  0  0  0  3  0  0  0  0  0  0
  186.0710  177.0470  144.6150 C   0  0  0  0  0  0  0  0  0  0  0  0
  184.8980  177.4990  145.2280 C   0  0  0  0  0  3  0  0  0  0  0  0
  189.7780  177.6200  142.8530 C   0  0  0  0  0  3  0  0  0  0  0  0
  191.0480  176.4560  144.6210 C   0  0  1  0  0  3  0  0  0  0  0  0
  192.2590  176.8960  145.3990 C   0  0  0  0  0  3  0  0  0  0  0  0
  187.5450  176.3490  141.1740 C   0  0  0  0  0  2  0  0  0  0  0  0
  188.7920  175.7060  141.1670 O   0  0  0  0  0  0  0  0  0  0  0  0
  187.7770  173.5080  141.8370 C   0  0  0  0  0  1  0  0  0  0  0  0
  188.0170  173.9230  138.3810 O   0  0  0  0  0  0  0  0  0  0  0  0
  188.5620  173.9890  139.5140 C   0  0  0  0  0  0  0  0  0  0  0  0
  189.7510  173.7310  140.4490 N   0  0  0  0  0  0  0  0  0  0  0  0
  188.5690  174.3530  140.8530 C   0  0  1  0  0  0  0  0  0  0  0  0
  191.1070  173.2500  140.6760 C   0  0  0  0  0  0  0  0  0  0  0  0
  191.9390  173.7360  139.6640 O   0  0  0  0  0  1  0  0  0  0  0  0
  191.1170  171.7360  140.6480 C   0  0  0  0  0  1  0  0  0  0  0  0
  191.6160  173.7350  142.0210 C   0  0  0  0  0  1  0  0  0  0  0  0
  1  9  1  0  0  0  0
  2  5  1  1  0  0  0
  2  3  1  0  0  0  0
  3  7  1  1  0  0  0
  5 14  2  0  0  0  0
  6  1  2  0  0  0  0
  7  4  1  0  0  0  0
  8 21  1  6  0  0  0
  8 12  1  0  0  0  0
  8 13  1  0  0  0  0
 11  4  1  0  0  0  0
 12 16  1  0  0  0  0
 13  2  1  0  0  0  0
 14  1  1  0  0  0  0
 15 11  1  0  0  0  0
 16 17  2  0  0  0  0
 16  5  1  0  0  0  0
 17  6  1  0  0  0  0
 18 13  1  0  0  0  0
 18 10  2  0  0  0  0
 19 10  1  6  0  0  0
 19 20  1  0  0  0  0
 19  3  1  0  0  0  0
 20 15  2  0  0  0  0
 22 21  1  0  0  0  0
 24 25  2  0  0  0  0
 25 26  1  0  0  0  0
 25 27  1  0  0  0  0
 26 28  1  0  0  0  0
 26 27  1  0  0  0  0
 27 22  1  0  0  0  0
 27 23  1  1  0  0  0
 28 31  1  0  0  0  0
 29 28  1  0  0  0  0
 30 28  1  0  0  0  0
M  END
>  <MODEL>
1

>  <REMARK>
 VINA RESULT:      -8.5      0.000      0.000
  Name = 
  4 active torsions:
  status: ('A' for Active; 'I' for Inactive)
    1  A    between atoms: C_1  and  N_19
    2  A    between atoms: O_9  and  C_22
    3  A    between atoms: O_9  and  C_23
    4  A    between atoms: C_15  and  C_23
                            x       y       z     vdW  Elec       q    Type
                         _______ _______ _______ _____ _____    ______ ____

>  <TORSDO>
F 4

$$$$
=
 OpenBabel11052417413D

 31 35  0  0  1  0  0  0  0  0999 V2000
  185.6910  177.6000  145.1020 C   0  0  0  0  0  0  0  0  0  0  0  0
  188.9550  175.6740  144.5150 C   0  0  1  0  0  3  0  0  0  0  0  0
  188.5040  174.8980  143.2570 C   0  0  1  0  0  3  0  0  0  0  0  0
  187.8160  175.4360  140.8660 C   0  0  0  0  0  2  0  0  0  0  0  0
  187.8730  176.5350  145.1250 C   0  0  0  0  0  0  0  0  0  0  0  0
  185.9470  178.1590  146.3570 C   0  0  0  0  0  3  0  0  0  0  0  0
  188.5760  175.8960  142.0990 C   0  0  0  0  0  2  0  0  0  0  0  0
  189.9260  175.4240  146.8740 C   0  0  1  0  0  3  0  0  0  0  0  0
  184.5110  177.8390  144.4820 F   0  0  0  0  0  0  0  0  0  0  0  0
  189.6710  172.8700  144.1920 C   0  0  0  0  0  3  0  0  0  0  0  0
  188.6240  174.3920  140.1170 C   0  0  0  0  0  2  0  0  0  0  0  0
  189.4510  176.8770  147.0400 C   0  0  0  0  0  2  0  0  0  0  0  0
  189.5560  174.8360  145.5710 N   0  0  0  0  0  0  0  0  0  0  0  0
  186.6510  176.7920  144.4850 C   0  0  0  0  0  3  0  0  0  0  0  0
  188.4120  173.0400  140.7200 C   0  0  0  0  0  3  0  0  0  0  0  0
  188.1260  177.1040  146.3840 C   0  0  0  0  0  0  0  0  0  0  0  0
  187.1660  177.9150  146.9960 C   0  0  0  0  0  3  0  0  0  0  0  0
  189.7710  173.4330  145.3880 C   0  0  0  0  0  3  0  0  0  0  0  0
  189.3920  173.6710  142.9600 C   0  0  1  0  0  3  0  0  0  0  0  0
  188.7470  172.7290  141.9790 C   0  0  0  0  0  3  0  0  0  0  0  0
  191.4360  175.3620  147.0980 C   0  0  0  0  0  2  0  0  0  0  0  0
  192.0720  176.4160  146.4240 O   0  0  0  0  0  0  0  0  0  0  0  0
  194.5660  176.5750  146.1770 C   0  0  0  0  0  1  0  0  0  0  0  0
  193.3410  173.3340  145.7630 O   0  0  0  0  0  0  0  0  0  0  0  0
  193.2600  174.5600  145.4860 C   0  0  0  0  0  0  0  0  0  0  0  0
  193.0820  175.6990  144.4740 N   0  0  0  0  0  0  0  0  0  0  0  0
  193.2450  175.9010  145.8450 C   0  0  1  0  0  0  0  0  0  0  0  0
  192.8500  176.1630  143.1140 C   0  0  0  0  0  0  0  0  0  0  0  0
  194.0660  176.5610  142.5520 O   0  0  0  0  0  1  0  0  0  0  0  0
  191.9010  177.3440  143.1380 C   0  0  0  0  0  1  0  0  0  0  0  0
  192.2500  175.0490  142.2760 C   0  0  0  0  0  1  0  0  0  0  0  0
  1  6  1  0  0  0  0
  2  5  1  1  0  0  0
  2 13  1  0  0  0  0
  3  7  1  6  0  0  0
  3  2  1  0  0  0  0
  4  7  1  0  0  0  0
  5 16  2  0  0  0  0
  6 17  2  0  0  0  0
  8 12  1  0  0  0  0
  8 21  1  6  0  0  0
  9  1  1  0  0  0  0
 10 18  2  0  0  0  0
 11 15  1  0  0  0  0
 11  4  1  0  0  0  0
 13  8  1  0  0  0  0
 14  1  2  0  0  0  0
 14  5  1  0  0  0  0
 15 20  2  0  0  0  0
 16 17  1  0  0  0  0
 16 12  1  0  0  0  0
 18 13  1  0  0  0  0
 19 20  1  6  0  0  0
 19  3  1  0  0  0  0
 19 10  1  0  0  0  0
 22 21  1  0  0  0  0
 25 24  2  0  0  0  0
 25 27  1  0  0  0  0
 26 25  1  0  0  0  0
 26 27  1  0  0  0  0
 27 23  1  1  0  0  0
 27 22  1  0  0  0  0
 28 30  1  0  0  0  0
 28 26  1  0  0  0  0
 29 28  1  0  0  0  0
 31 28  1  0  0  0  0
M  END
>  <MODEL>
2

>  <REMARK>
 VINA RESULT:      -8.4      2.657      5.351
  Name = 
  4 active torsions:
  status: ('A' for Active; 'I' for Inactive)
    1  A    between atoms: C_1  and  N_19
    2  A    between atoms: O_9  and  C_22
    3  A    between atoms: O_9  and  C_23
    4  A    between atoms: C_15  and  C_23
                            x       y       z     vdW  Elec       q    Type
                         _______ _______ _______ _____ _____    ______ ____

>  <TORSDO>
F 4

$$$$
=
 OpenBabel11052417413D

 31 35  0  0  1  0  0  0  0  0999 V2000
  191.5860  171.3840  142.8840 C   0  0  0  0  0  0  0  0  0  0  0  0
  190.4460  174.9670  143.6380 C   0  0  1  0  0  3  0  0  0  0  0  0
  191.4090  175.2390  144.8160 C   0  0  1  0  0  3  0  0  0  0  0  0
  193.9210  175.4360  145.1790 C   0  0  0  0  0  2  0  0  0  0  0  0
  190.5380  173.5660  143.0810 C   0  0  0  0  0  0  0  0  0  0  0  0
  190.6040  170.9920  141.9700 C   0  0  0  0  0  3  0  0  0  0  0  0
  192.7740  175.5240  144.1860 C   0  0  0  0  0  2  0  0  0  0  0  0
  187.9840  174.9680  142.9250 C   0  0  1  0  0  3  0  0  0  0  0  0
  192.5680  170.5210  143.2350 F   0  0  0  0  0  0  0  0  0  0  0  0
  189.5040  176.3820  146.0020 C   0  0  0  0  0  3  0  0  0  0  0  0
  193.9660  176.6910  146.0320 C   0  0  0  0  0  2  0  0  0  0  0  0
  188.5050  174.1430  141.7360 C   0  0  0  0  0  2  0  0  0  0  0  0
  189.0320  175.2840  143.9160 N   0  0  0  0  0  0  0  0  0  0  0  0
  191.5560  172.6680  143.4370 C   0  0  0  0  0  3  0  0  0  0  0  0
  193.0060  176.5800  147.1720 C   0  0  0  0  0  3  0  0  0  0  0  0
  189.5570  173.1660  142.1580 C   0  0  0  0  0  0  0  0  0  0  0  0
  189.5920  171.8840  141.6030 C   0  0  0  0  0  3  0  0  0  0  0  0
  188.6210  175.8730  145.1540 C   0  0  0  0  0  3  0  0  0  0  0  0
  190.9650  176.4300  145.6910 C   0  0  1  0  0  3  0  0  0  0  0  0
  191.6810  176.4570  147.0150 C   0  0  0  0  0  3  0  0  0  0  0  0
  187.3200  176.2390  142.3990 C   0  0  0  0  0  2  0  0  0  0  0  0
  185.9970  176.3220  142.8570 O   0  0  0  0  0  0  0  0  0  0  0  0
  186.7000  178.7080  142.5060 C   0  0  0  0  0  1  0  0  0  0  0  0
  183.2930  178.1780  141.9710 O   0  0  0  0  0  0  0  0  0  0  0  0
  184.3070  178.0120  142.6970 C   0  0  0  0  0  0  0  0  0  0  0  0
  184.9890  178.0080  144.0720 N   0  0  0  0  0  0  0  0  0  0  0  0
  185.6430  177.6830  142.8830 C   0  0  1  0  0  0  0  0  0  0  0  0
  184.9290  178.1680  145.5180 C   0  0  0  0  0  0  0  0  0  0  0  0
  183.6770  178.6760  145.8710 O   0  0  0  0  0  1  0  0  0  0  0  0
  186.0060  179.1350  145.9640 C   0  0  0  0  0  1  0  0  0  0  0  0
  185.1380  176.8280  146.2010 C   0  0  0  0  0  1  0  0  0  0  0  0
  1  9  1  0  0  0  0
  1 14  1  0  0  0  0
  2  5  1  1  0  0  0
  2 13  1  0  0  0  0
  2  3  1  0  0  0  0
  3  7  1  6  0  0  0
  3 19  1  0  0  0  0
  4 11  1  0  0  0  0
  5 14  2  0  0  0  0
  6  1  2  0  0  0  0
  7  4  1  0  0  0  0
  8 21  1  6  0  0  0
  8 13  1  0  0  0  0
 11 15  1  0  0  0  0
 12 16  1  0  0  0  0
 12  8  1  0  0  0  0
 13 18  1  0  0  0  0
 16  5  1  0  0  0  0
 17  6  1  0  0  0  0
 17 16  2  0  0  0  0
 18 10  2  0  0  0  0
 19 10  1  1  0  0  0
 19 20  1  0  0  0  0
 20 15  2  0  0  0  0
 21 22  1  0  0  0  0
 22 27  1  0  0  0  0
 24 25  2  0  0  0  0
 25 27  1  0  0  0  0
 25 26  1  0  0  0  0
 26 28  1  0  0  0  0
 27 23  1  6  0  0  0
 27 26  1  0  0  0  0
 28 29  1  0  0  0  0
 28 30  1  0  0  0  0
 28 31  1  0  0  0  0
M  END
>  <MODEL>
3

>  <REMARK>
 VINA RESULT:      -8.0      3.150      6.225
  Name = 
  4 active torsions:
  status: ('A' for Active; 'I' for Inactive)
    1  A    between atoms: C_1  and  N_19
    2  A    between atoms: O_9  and  C_22
    3  A    between atoms: O_9  and  C_23
    4  A    between atoms: C_15  and  C_23
                            x       y       z     vdW  Elec       q    Type
                         _______ _______ _______ _____ _____    ______ ____

>  <TORSDO>
F 4

$$$$
=
 OpenBabel11052417413D

 31 35  0  0  1  0  0  0  0  0999 V2000
  185.8310  178.0950  141.0400 C   0  0  0  0  0  0  0  0  0  0  0  0
  187.3430  176.5550  144.2100 C   0  0  1  0  0  3  0  0  0  0  0  0
  186.7450  177.5570  145.2230 C   0  0  1  0  0  3  0  0  0  0  0  0
  184.4350  178.2290  146.0580 C   0  0  0  0  0  2  0  0  0  0  0  0
  187.0230  176.8750  142.7690 C   0  0  0  0  0  0  0  0  0  0  0  0
  186.5090  177.3710  140.0570 C   0  0  0  0  0  3  0  0  0  0  0  0
  185.2810  177.1480  145.4050 C   0  0  0  0  0  2  0  0  0  0  0  0
  189.5230  175.4990  143.3730 C   0  0  1  0  0  3  0  0  0  0  0  0
  184.9260  179.0380  140.6840 F   0  0  0  0  0  0  0  0  0  0  0  0
  188.9620  177.5450  146.4200 C   0  0  0  0  0  3  0  0  0  0  0  0
  184.6930  178.2570  147.5540 C   0  0  0  0  0  2  0  0  0  0  0  0
  188.6580  175.0720  142.1760 C   0  0  0  0  0  2  0  0  0  0  0  0
  188.7970  176.3400  144.3450 N   0  0  0  0  0  0  0  0  0  0  0  0
  186.0830  177.8470  142.3930 C   0  0  0  0  0  3  0  0  0  0  0  0
  185.9130  179.0670  147.8550 C   0  0  0  0  0  3  0  0  0  0  0  0
  187.6980  176.1480  141.7740 C   0  0  0  0  0  0  0  0  0  0  0  0
  187.4400  176.3940  140.4230 C   0  0  0  0  0  3  0  0  0  0  0  0
  189.5560  176.9570  145.3900 C   0  0  0  0  0  3  0  0  0  0  0  0
  187.4750  177.5440  146.5830 C   0  0  1  0  0  3  0  0  0  0  0  0
  187.1400  178.7510  147.4180 C   0  0  0  0  0  3  0  0  0  0  0  0
  190.1000  174.2540  144.0430 C   0  0  0  0  0  2  0  0  0  0  0  0
  191.4820  174.1750  143.8180 O   0  0  0  0  0  0  0  0  0  0  0  0
  191.2480  174.2140  146.3190 C   0  0  0  0  0  1  0  0  0  0  0  0
  193.9770  172.3410  145.2160 O   0  0  0  0  0  0  0  0  0  0  0  0
  193.3100  173.4070  145.1610 C   0  0  0  0  0  0  0  0  0  0  0  0
  193.2280  174.9390  145.1240 N   0  0  0  0  0  0  0  0  0  0  0  0
  192.1120  174.1020  145.0730 C   0  0  1  0  0  0  0  0  0  0  0  0
  193.8720  176.2440  145.0960 C   0  0  0  0  0  0  0  0  0  0  0  0
  193.0120  177.1670  144.4960 O   0  0  0  0  0  1  0  0  0  0  0  0
  195.1530  176.1570  144.2920 C   0  0  0  0  0  1  0  0  0  0  0  0
  194.1910  176.7000  146.5090 C   0  0  0  0  0  1  0  0  0  0  0  0
  1 14  1  0  0  0  0
  2  5  1  6  0  0  0
  2 13  1  0  0  0  0
  2  3  1  0  0  0  0
  3  7  1  1  0  0  0
  3 19  1  0  0  0  0
  4 11  1  0  0  0  0
  6 17  1  0  0  0  0
  6  1  2  0  0  0  0
  7  4  1  0  0  0  0
  8 21  1  1  0  0  0
  8 13  1  0  0  0  0
  9  1  1  0  0  0  0
 11 15  1  0  0  0  0
 12  8  1  0  0  0  0
 13 18  1  0  0  0  0
 14  5  2  0  0  0  0
 16 12  1  0  0  0  0
 16  5  1  0  0  0  0
 17 16  2  0  0  0  0
 18 10  2  0  0  0  0
 19 10  1  6  0  0  0
 19 20  1  0  0  0  0
 20 15  2  0  0  0  0
 22 21  1  0  0  0  0
 22 27  1  0  0  0  0
 25 24  2  0  0  0  0
 26 25  1  0  0  0  0
 27 26  1  0  0  0  0
 27 25  1  0  0  0  0
 27 23  1  1  0  0  0
 28 26  1  0  0  0  0
 28 31  1  0  0  0  0
 29 28  1  0  0  0  0
 30 28  1  0  0  0  0
M  END
>  <MODEL>
4

>  <REMARK>
 VINA RESULT:      -8.0      2.860      5.545
  Name = 
  4 active torsions:
  status: ('A' for Active; 'I' for Inactive)
    1  A    between atoms: C_1  and  N_19
    2  A    between atoms: O_9  and  C_22
    3  A    between atoms: O_9  and  C_23
    4  A    between atoms: C_15  and  C_23
                            x       y       z     vdW  Elec       q    Type
                         _______ _______ _______ _____ _____    ______ ____

>  <TORSDO>
F 4

$$$$
=
 OpenBabel11052417413D

 31 35  0  0  1  0  0  0  0  0999 V2000
  186.3150  177.9260  146.7650 C   0  0  0  0  0  0  0  0  0  0  0  0
  188.8580  176.1250  144.5300 C   0  0  1  0  0  3  0  0  0  0  0  0
  190.1030  176.3650  145.4130 C   0  0  1  0  0  3  0  0  0  0  0  0
  190.9220  175.6920  147.7280 C   0  0  0  0  0  2  0  0  0  0  0  0
  187.5990  176.7740  145.0560 C   0  0  0  0  0  0  0  0  0  0  0  0
  185.2010  177.9420  145.9210 C   0  0  0  0  0  3  0  0  0  0  0  0
  190.0050  175.3590  146.5620 C   0  0  0  0  0  2  0  0  0  0  0  0
  187.8920  176.4230  142.1750 C   0  0  1  0  0  3  0  0  0  0  0  0
  186.2380  178.4770  148.0000 F   0  0  0  0  0  0  0  0  0  0  0  0
  191.4030  176.8360  143.3070 C   0  0  0  0  0  3  0  0  0  0  0  0
  192.3480  175.2910  147.3970 C   0  0  0  0  0  2  0  0  0  0  0  0
  186.5520  176.1350  142.8720 C   0  0  0  0  0  2  0  0  0  0  0  0
  189.0320  176.4900  143.1110 N   0  0  0  0  0  0  0  0  0  0  0  0
  187.5100  177.3420  146.3370 C   0  0  0  0  0  3  0  0  0  0  0  0
  193.0170  176.3630  146.5990 C   0  0  0  0  0  3  0  0  0  0  0  0
  186.4740  176.7910  144.2150 C   0  0  0  0  0  0  0  0  0  0  0  0
  185.2780  177.3710  144.6480 C   0  0  0  0  0  3  0  0  0  0  0  0
  190.2880  176.9490  142.6000 C   0  0  0  0  0  3  0  0  0  0  0  0
  191.4290  176.1700  144.6460 C   0  0  1  0  0  3  0  0  0  0  0  0
  192.6030  176.7530  145.3860 C   0  0  0  0  0  3  0  0  0  0  0  0
  188.1280  175.3730  141.0920 C   0  0  0  0  0  2  0  0  0  0  0  0
  188.1010  174.0850  141.6470 O   0  0  0  0  0  0  0  0  0  0  0  0
  188.4650  172.3160  139.9020 C   0  0  0  0  0  1  0  0  0  0  0  0
  191.1380  174.5410  140.1940 O   0  0  0  0  0  0  0  0  0  0  0  0
  190.3010  173.7840  140.7520 C   0  0  0  0  0  0  0  0  0  0  0  0
  189.9460  172.7020  141.7810 N   0  0  0  0  0  0  0  0  0  0  0  0
  189.0140  173.2950  140.9270 C   0  0  1  0  0  0  0  0  0  0  0  0
  190.3270  171.8070  142.8640 C   0  0  0  0  0  0  0  0  0  0  0  0
  190.3480  170.4940  142.3880 O   0  0  0  0  0  1  0  0  0  0  0  0
  189.3160  171.9160  143.9880 C   0  0  0  0  0  1  0  0  0  0  0  0
  191.7050  172.1740  143.3860 C   0  0  0  0  0  1  0  0  0  0  0  0
  1  9  1  0  0  0  0
  2  5  1  1  0  0  0
  2  3  1  0  0  0  0
  3  7  1  1  0  0  0
  5 14  2  0  0  0  0
  6  1  2  0  0  0  0
  7  4  1  0  0  0  0
  8 21  1  6  0  0  0
  8 12  1  0  0  0  0
  8 13  1  0  0  0  0
 11  4  1  0  0  0  0
 12 16  1  0  0  0  0
 13  2  1  0  0  0  0
 14  1  1  0  0  0  0
 15 11  1  0  0  0  0
 16 17  2  0  0  0  0
 16  5  1  0  0  0  0
 17  6  1  0  0  0  0
 18 13  1  0  0  0  0
 18 10  2  0  0  0  0
 19 10  1  6  0  0  0
 19 20  1  0  0  0  0
 19  3  1  0  0  0  0
 20 15  2  0  0  0  0
 21 22  1  0  0  0  0
 24 25  2  0  0  0  0
 25 27  1  0  0  0  0
 25 26  1  0  0  0  0
 26 28  1  0  0  0  0
 27 23  1  6  0  0  0
 27 22  1  0  0  0  0
 27 26  1  0  0  0  0
 28 31  1  0  0  0  0
 28 30  1  0  0  0  0
 29 28  1  0  0  0  0
M  END
>  <MODEL>
5

>  <REMARK>
 VINA RESULT:      -7.7      1.416      1.677
  Name = 
  4 active torsions:
  status: ('A' for Active; 'I' for Inactive)
    1  A    between atoms: C_1  and  N_19
    2  A    between atoms: O_9  and  C_22
    3  A    between atoms: O_9  and  C_23
    4  A    between atoms: C_15  and  C_23
                            x       y       z     vdW  Elec       q    Type
                         _______ _______ _______ _____ _____    ______ ____

>  <TORSDO>
F 4

$$$$
=
 OpenBabel11052417413D

 31 35  0  0  1  0  0  0  0  0999 V2000
  194.4740  174.5030  145.5220 C   0  0  0  0  0  0  0  0  0  0  0  0
  190.8740  174.3220  144.2130 C   0  0  1  0  0  3  0  0  0  0  0  0
  191.1090  173.2400  143.1340 C   0  0  1  0  0  3  0  0  0  0  0  0
  191.7840  170.7870  143.0510 C   0  0  0  0  0  2  0  0  0  0  0  0
  192.1280  174.7440  144.9410 C   0  0  0  0  0  0  0  0  0  0  0  0
  194.3870  175.6230  146.3530 C   0  0  0  0  0  3  0  0  0  0  0  0
  191.1830  171.9080  143.8830 C   0  0  0  0  0  2  0  0  0  0  0  0
  189.9760  176.6870  144.6220 C   0  0  1  0  0  3  0  0  0  0  0  0
  195.6490  173.8420  145.3960 F   0  0  0  0  0  0  0  0  0  0  0  0
  189.6100  174.5620  141.6000 C   0  0  0  0  0  3  0  0  0  0  0  0
  190.7560  170.2630  142.0650 C   0  0  0  0  0  2  0  0  0  0  0  0
  190.7330  176.5600  145.9550 C   0  0  0  0  0  2  0  0  0  0  0  0
  190.1670  175.5250  143.7320 N   0  0  0  0  0  0  0  0  0  0  0  0
  193.3490  174.0610  144.8190 C   0  0  0  0  0  3  0  0  0  0  0  0
  190.7260  171.1200  140.8410 C   0  0  0  0  0  3  0  0  0  0  0  0
  192.0470  175.8670  145.7810 C   0  0  0  0  0  0  0  0  0  0  0  0
  193.1730  176.3030  146.4860 C   0  0  0  0  0  3  0  0  0  0  0  0
  189.6740  175.6240  142.3920 C   0  0  0  0  0  3  0  0  0  0  0  0
  189.9860  173.1950  142.0750 C   0  0  1  0  0  3  0  0  0  0  0  0
  190.3920  172.4180  140.8520 C   0  0  0  0  0  3  0  0  0  0  0  0
  188.4950  176.9250  144.9090 C   0  0  0  0  0  2  0  0  0  0  0  0
  188.0980  178.1770  144.4160 O   0  0  0  0  0  0  0  0  0  0  0  0
  186.2490  179.1540  143.0260 C   0  0  0  0  0  1  0  0  0  0  0  0
  186.2500  175.6650  143.0700 O   0  0  0  0  0  0  0  0  0  0  0  0
  186.3120  176.7500  143.7050 C   0  0  0  0  0  0  0  0  0  0  0  0
  185.9010  177.6400  144.8850 N   0  0  0  0  0  0  0  0  0  0  0  0
  186.8000  178.0350  143.8940 C   0  0  1  0  0  0  0  0  0  0  0  0
  185.1670  177.8440  146.1260 C   0  0  0  0  0  0  0  0  0  0  0  0
  184.7700  176.6030  146.6320 O   0  0  0  0  0  1  0  0  0  0  0  0
  183.9390  178.6890  145.8540 C   0  0  0  0  0  1  0  0  0  0  0  0
  186.0470  178.5430  147.1460 C   0  0  0  0  0  1  0  0  0  0  0  0
  1  6  1  0  0  0  0
  2  5  1  6  0  0  0
  3  7  1  1  0  0  0
  3  2  1  0  0  0  0
  4  7  1  0  0  0  0
  5 16  2  0  0  0  0
  6 17  2  0  0  0  0
  8 21  1  1  0  0  0
  8 12  1  0  0  0  0
  9  1  1  0  0  0  0
 10 19  1  0  0  0  0
 10 18  2  0  0  0  0
 11  4  1  0  0  0  0
 13  2  1  0  0  0  0
 13  8  1  0  0  0  0
 14  5  1  0  0  0  0
 14  1  2  0  0  0  0
 15 20  2  0  0  0  0
 15 11  1  0  0  0  0
 16 12  1  0  0  0  0
 16 17  1  0  0  0  0
 18 13  1  0  0  0  0
 19 20  1  6  0  0  0
 19  3  1  0  0  0  0
 22 21  1  0  0  0  0
 24 25  2  0  0  0  0
 25 27  1  0  0  0  0
 25 26  1  0  0  0  0
 26 28  1  0  0  0  0
 27 23  1  6  0  0  0
 27 22  1  0  0  0  0
 27 26  1  0  0  0  0
 28 29  1  0  0  0  0
 28 31  1  0  0  0  0
 30 28  1  0  0  0  0
M  END
>  <MODEL>
6

>  <REMARK>
 VINA RESULT:      -7.7      3.009      6.766
  Name = 
  4 active torsions:
  status: ('A' for Active; 'I' for Inactive)
    1  A    between atoms: C_1  and  N_19
    2  A    between atoms: O_9  and  C_22
    3  A    between atoms: O_9  and  C_23
    4  A    between atoms: C_15  and  C_23
                            x       y       z     vdW  Elec       q    Type
                         _______ _______ _______ _____ _____    ______ ____

>  <TORSDO>
F 4

$$$$
=
 OpenBabel11052417413D

 31 35  0  0  1  0  0  0  0  0999 V2000
  185.7140  178.0710  140.9400 C   0  0  0  0  0  0  0  0  0  0  0  0
  187.3120  176.5680  144.0840 C   0  0  1  0  0  3  0  0  0  0  0  0
  186.6840  177.5380  145.1100 C   0  0  1  0  0  3  0  0  0  0  0  0
  184.3580  178.1130  145.9700 C   0  0  0  0  0  2  0  0  0  0  0  0
  186.9670  176.8860  142.6480 C   0  0  0  0  0  0  0  0  0  0  0  0
  186.4120  177.3820  139.9440 C   0  0  0  0  0  3  0  0  0  0  0  0
  185.2390  177.0710  145.3010 C   0  0  0  0  0  2  0  0  0  0  0  0
  189.5250  175.6040  143.2200 C   0  0  1  0  0  3  0  0  0  0  0  0
  184.7700  178.9810  140.5990 F   0  0  0  0  0  0  0  0  0  0  0  0
  188.9100  177.6030  146.2880 C   0  0  0  0  0  3  0  0  0  0  0  0
  184.6280  178.1400  147.4630 C   0  0  0  0  0  2  0  0  0  0  0  0
  188.6660  175.1530  142.0270 C   0  0  0  0  0  2  0  0  0  0  0  0
  188.7750  176.4090  144.2050 N   0  0  0  0  0  0  0  0  0  0  0  0
  185.9870  177.8240  142.2880 C   0  0  0  0  0  3  0  0  0  0  0  0
  185.8170  178.9940  147.7610 C   0  0  0  0  0  3  0  0  0  0  0  0
  187.6620  176.1930  141.6420 C   0  0  0  0  0  0  0  0  0  0  0  0
  187.3830  176.4400  140.2950 C   0  0  0  0  0  3  0  0  0  0  0  0
  189.5180  177.0470  145.2490 C   0  0  0  0  0  3  0  0  0  0  0  0
  187.4270  177.5430  146.4640 C   0  0  1  0  0  3  0  0  0  0  0  0
  187.0520  178.7300  147.3110 C   0  0  0  0  0  3  0  0  0  0  0  0
  190.1550  174.3780  143.8760 C   0  0  0  0  0  2  0  0  0  0  0  0
  190.6240  173.4880  142.8980 O   0  0  0  0  0  0  0  0  0  0  0  0
  189.7840  171.9730  144.7160 C   0  0  0  0  0  1  0  0  0  0  0  0
  190.4290  170.3090  141.7180 O   0  0  0  0  0  0  0  0  0  0  0  0
  190.8090  171.1190  142.6030 C   0  0  0  0  0  0  0  0  0  0  0  0
  191.8850  171.6660  143.5490 N   0  0  0  0  0  0  0  0  0  0  0  0
  190.5980  172.1970  143.4520 C   0  0  1  0  0  0  0  0  0  0  0  0
  193.2450  171.6490  144.0700 C   0  0  0  0  0  0  0  0  0  0  0  0
  194.1380  171.9160  143.0290 O   0  0  0  0  0  1  0  0  0  0  0  0
  193.5470  170.2820  144.6490 C   0  0  0  0  0  1  0  0  0  0  0  0
  193.4050  172.7030  145.1510 C   0  0  0  0  0  1  0  0  0  0  0  0
  1 14  1  0  0  0  0
  2  5  1  6  0  0  0
  2 13  1  0  0  0  0
  2  3  1  0  0  0  0
  3  7  1  1  0  0  0
  3 19  1  0  0  0  0
  4 11  1  0  0  0  0
  6 17  1  0  0  0  0
  6  1  2  0  0  0  0
  7  4  1  0  0  0  0
  8 21  1  1  0  0  0
  8 13  1  0  0  0  0
  9  1  1  0  0  0  0
 11 15  1  0  0  0  0
 12  8  1  0  0  0  0
 13 18  1  0  0  0  0
 14  5  2  0  0  0  0
 16 12  1  0  0  0  0
 16  5  1  0  0  0  0
 17 16  2  0  0  0  0
 18 10  2  0  0  0  0
 19 10  1  6  0  0  0
 19 20  1  0  0  0  0
 20 15  2  0  0  0  0
 22 27  1  0  0  0  0
 22 21  1  0  0  0  0
 24 25  2  0  0  0  0
 25 27  1  0  0  0  0
 25 26  1  0  0  0  0
 26 28  1  0  0  0  0
 27 26  1  0  0  0  0
 27 23  1  1  0  0  0
 28 30  1  0  0  0  0
 28 31  1  0  0  0  0
 29 28  1  0  0  0  0
M  END
>  <MODEL>
7

>  <REMARK>
 VINA RESULT:      -7.6      2.790      4.876
  Name = 
  4 active torsions:
  status: ('A' for Active; 'I' for Inactive)
    1  A    between atoms: C_1  and  N_19
    2  A    between atoms: O_9  and  C_22
    3  A    between atoms: O_9  and  C_23
    4  A    between atoms: C_15  and  C_23
                            x       y       z     vdW  Elec       q    Type
                         _______ _______ _______ _____ _____    ______ ____

>  <TORSDO>
F 4

$$$$
=
 OpenBabel11052417413D

 31 35  0  0  1  0  0  0  0  0999 V2000
  185.0730  177.7550  146.3050 C   0  0  0  0  0  0  0  0  0  0  0  0
  188.2390  177.3050  144.1890 C   0  0  1  0  0  3  0  0  0  0  0  0
  187.5390  176.9790  142.8500 C   0  0  1  0  0  3  0  0  0  0  0  0
  186.0080  178.1640  141.1960 C   0  0  0  0  0  2  0  0  0  0  0  0
  187.2890  177.4880  145.3490 C   0  0  0  0  0  0  0  0  0  0  0  0
  185.6300  177.8340  147.5840 C   0  0  0  0  0  3  0  0  0  0  0  0
  187.0420  178.3180  142.2990 C   0  0  0  0  0  2  0  0  0  0  0  0
  189.9700  176.4700  145.8850 C   0  0  1  0  0  3  0  0  0  0  0  0
  183.7310  177.8430  146.1440 F   0  0  0  0  0  0  0  0  0  0  0  0
  189.2890  175.2100  142.4600 C   0  0  0  0  0  3  0  0  0  0  0  0
  186.6910  177.7920  139.8920 C   0  0  0  0  0  2  0  0  0  0  0  0
  189.3290  177.5250  146.8020 C   0  0  0  0  0  2  0  0  0  0  0  0
  189.2960  176.3510  144.5760 N   0  0  0  0  0  0  0  0  0  0  0  0
  185.8980  177.5850  145.1890 C   0  0  0  0  0  3  0  0  0  0  0  0
  186.9330  176.3180  139.8340 C   0  0  0  0  0  3  0  0  0  0  0  0
  187.8430  177.5720  146.6380 C   0  0  0  0  0  0  0  0  0  0  0  0
  187.0160  177.7470  147.7510 C   0  0  0  0  0  3  0  0  0  0  0  0
  189.6820  175.2670  143.7250 C   0  0  0  0  0  3  0  0  0  0  0  0
  188.4780  176.2980  141.8320 C   0  0  1  0  0  3  0  0  0  0  0  0
  187.7190  175.6620  140.6990 C   0  0  0  0  0  3  0  0  0  0  0  0
  191.4540  176.7910  145.7130 C   0  0  0  0  0  2  0  0  0  0  0  0
  192.1780  175.6200  145.4460 O   0  0  0  0  0  0  0  0  0  0  0  0
  193.1560  176.1990  143.2060 C   0  0  0  0  0  1  0  0  0  0  0  0
  194.8380  177.6900  145.8760 O   0  0  0  0  0  0  0  0  0  0  0  0
  194.3350  176.6560  145.3620 C   0  0  0  0  0  0  0  0  0  0  0  0
  194.4000  175.1640  145.0100 N   0  0  0  0  0  0  0  0  0  0  0  0
  193.3140  175.9850  144.7030 C   0  0  1  0  0  0  0  0  0  0  0  0
  195.0830  173.8790  145.0510 C   0  0  0  0  0  0  0  0  0  0  0  0
  195.4830  173.5310  143.7590 O   0  0  0  0  0  1  0  0  0  0  0  0
  194.1380  172.8220  145.5840 C   0  0  0  0  0  1  0  0  0  0  0  0
  196.3050  173.9650  145.9490 C   0  0  0  0  0  1  0  0  0  0  0  0
  1  6  1  0  0  0  0
  2 13  1  0  0  0  0
  2  5  1  1  0  0  0
  3  7  1  6  0  0  0
  3  2  1  0  0  0  0
  4  7  1  0  0  0  0
  5 16  2  0  0  0  0
  6 17  2  0  0  0  0
  8 21  1  6  0  0  0
  8 12  1  0  0  0  0
  9  1  1  0  0  0  0
 10 18  2  0  0  0  0
 11  4  1  0  0  0  0
 13  8  1  0  0  0  0
 14  5  1  0  0  0  0
 14  1  2  0  0  0  0
 15 11  1  0  0  0  0
 15 20  2  0  0  0  0
 16 12  1  0  0  0  0
 16 17  1  0  0  0  0
 18 13  1  0  0  0  0
 19 20  1  6  0  0  0
 19 10  1  0  0  0  0
 19  3  1  0  0  0  0
 22 21  1  0  0  0  0
 25 24  2  0  0  0  0
 26 28  1  0  0  0  0
 26 25  1  0  0  0  0
 27 23  1  6  0  0  0
 27 26  1  0  0  0  0
 27 25  1  0  0  0  0
 27 22  1  0  0  0  0
 28 30  1  0  0  0  0
 28 31  1  0  0  0  0
 29 28  1  0  0  0  0
M  END
>  <MODEL>
8

>  <REMARK>
 VINA RESULT:      -7.6      2.907      5.563
  Name = 
  4 active torsions:
  status: ('A' for Active; 'I' for Inactive)
    1  A    between atoms: C_1  and  N_19
    2  A    between atoms: O_9  and  C_22
    3  A    between atoms: O_9  and  C_23
    4  A    between atoms: C_15  and  C_23
                            x       y       z     vdW  Elec       q    Type
                         _______ _______ _______ _____ _____    ______ ____

>  <TORSDO>
F 4

$$$$
=
 OpenBabel11052417413D

 31 35  0  0  1  0  0  0  0  0999 V2000
  194.7430  174.8340  145.1460 C   0  0  0  0  0  0  0  0  0  0  0  0
  190.9450  174.4550  144.7770 C   0  0  1  0  0  3  0  0  0  0  0  0
  190.9570  173.5190  143.5470 C   0  0  1  0  0  3  0  0  0  0  0  0
  191.7410  171.1610  142.9910 C   0  0  0  0  0  2  0  0  0  0  0  0
  192.3170  174.9150  145.2110 C   0  0  0  0  0  0  0  0  0  0  0  0
  194.8060  175.8480  146.1050 C   0  0  0  0  0  3  0  0  0  0  0  0
  191.3090  172.1280  144.0810 C   0  0  0  0  0  2  0  0  0  0  0  0
  190.0380  176.6710  145.6920 C   0  0  1  0  0  3  0  0  0  0  0  0
  195.8840  174.3030  144.6450 F   0  0  0  0  0  0  0  0  0  0  0  0
  189.0280  174.8480  142.6200 C   0  0  0  0  0  3  0  0  0  0  0  0
  190.5250  170.6490  142.2390 C   0  0  0  0  0  2  0  0  0  0  0  0
  191.1230  176.4770  146.7640 C   0  0  0  0  0  2  0  0  0  0  0  0
  190.0620  175.6300  144.6440 N   0  0  0  0  0  0  0  0  0  0  0  0
  193.5030  174.3650  144.7010 C   0  0  0  0  0  3  0  0  0  0  0  0
  190.1220  171.6230  141.1790 C   0  0  0  0  0  3  0  0  0  0  0  0
  192.3880  175.9310  146.1780 C   0  0  0  0  0  0  0  0  0  0  0  0
  193.6290  176.3940  146.6250 C   0  0  0  0  0  3  0  0  0  0  0  0
  189.2300  175.8220  143.4950 C   0  0  0  0  0  3  0  0  0  0  0  0
  189.6010  173.4800  142.8100 C   0  0  1  0  0  3  0  0  0  0  0  0
  189.7210  172.8750  141.4360 C   0  0  0  0  0  3  0  0  0  0  0  0
  188.6710  176.7380  146.3710 C   0  0  0  0  0  2  0  0  0  0  0  0
  188.0870  177.9970  146.1680 O   0  0  0  0  0  0  0  0  0  0  0  0
  186.1300  176.4400  146.3930 C   0  0  0  0  0  1  0  0  0  0  0  0
  185.6190  179.5330  147.9260 O   0  0  0  0  0  0  0  0  0  0  0  0
  185.9910  178.8800  146.9160 C   0  0  0  0  0  0  0  0  0  0  0  0
  186.0080  178.6470  145.4000 N   0  0  0  0  0  0  0  0  0  0  0  0
  186.6970  177.8480  146.3130 C   0  0  1  0  0  0  0  0  0  0  0  0
  185.6260  179.0400  144.0510 C   0  0  0  0  0  0  0  0  0  0  0  0
  185.5410  180.4330  143.9870 O   0  0  0  0  0  1  0  0  0  0  0  0
  184.2770  178.4400  143.7130 C   0  0  0  0  0  1  0  0  0  0  0  0
  186.6610  178.5540  143.0510 C   0  0  0  0  0  1  0  0  0  0  0  0
  1  6  1  0  0  0  0
  2  5  1  6  0  0  0
  3  7  1  1  0  0  0
  3  2  1  0  0  0  0
  4  7  1  0  0  0  0
  5 16  2  0  0  0  0
  6 17  2  0  0  0  0
  8 21  1  1  0  0  0
  8 12  1  0  0  0  0
  9  1  1  0  0  0  0
 10 19  1  0  0  0  0
 10 18  2  0  0  0  0
 11  4  1  0  0  0  0
 13  2  1  0  0  0  0
 13  8  1  0  0  0  0
 14  1  2  0  0  0  0
 14  5  1  0  0  0  0
 15 20  2  0  0  0  0
 15 11  1  0  0  0  0
 16 17  1  0  0  0  0
 16 12  1  0  0  0  0
 18 13  1  0  0  0  0
 19 20  1  6  0  0  0
 19  3  1  0  0  0  0
 22 27  1  0  0  0  0
 22 21  1  0  0  0  0
 25 24  2  0  0  0  0
 26 27  1  0  0  0  0
 26 25  1  0  0  0  0
 27 23  1  1  0  0  0
 27 25  1  0  0  0  0
 28 26  1  0  0  0  0
 29 28  1  0  0  0  0
 30 28  1  0  0  0  0
 31 28  1  0  0  0  0
M  END
>  <MODEL>
9

>  <REMARK>
 VINA RESULT:      -7.6      3.622      7.127
  Name = 
  4 active torsions:
  status: ('A' for Active; 'I' for Inactive)
    1  A    between atoms: C_1  and  N_19
    2  A    between atoms: O_9  and  C_22
    3  A    between atoms: O_9  and  C_23
    4  A    between atoms: C_15  and  C_23
                            x       y       z     vdW  Elec       q    Type
                         _______ _______ _______ _____ _____    ______ ____

>  <TORSDO>
F 4

$$$$
