=
 OpenBabel11052420303D

 34 39  0  0  1  0  0  0  0  0999 V2000
  186.8460  177.2540  144.7710 C   0  0  0  0  0  0  0  0  0  0  0  0
  184.5860  178.0970  143.9080 C   0  0  0  0  0  0  0  0  0  0  0  0
  184.6920  178.8060  146.2640 C   0  0  0  0  0  3  0  0  0  0  0  0
  189.2310  176.6580  146.2700 C   0  0  0  0  0  3  0  0  0  0  0  0
  187.8000  176.2540  144.3610 N   0  0  0  0  0  0  0  0  0  0  0  0
  188.1380  177.5550  146.7580 C   0  0  0  0  0  0  0  0  0  0  0  0
  187.4660  179.0950  148.4930 C   0  0  0  0  0  3  0  0  0  0  0  0
  188.3890  178.2100  147.9630 C   0  0  0  0  0  3  0  0  0  0  0  0
  188.8660  175.9220  145.0220 C   0  0  0  0  0  0  0  0  0  0  0  0
  185.9680  178.6600  146.6250 C   0  0  0  0  0  0  0  0  0  0  0  0
  186.9460  177.8120  146.0130 C   0  0  1  0  0  3  0  0  0  0  0  0
  186.2630  179.3010  147.8330 C   0  0  0  0  0  3  0  0  0  0  0  0
  183.7490  178.3430  142.8130 C   0  0  0  0  0  3  0  0  0  0  0  0
  184.2200  178.2200  141.5040 C   0  0  0  0  0  0  0  0  0  0  0  0
  185.5400  177.8350  141.2870 C   0  0  0  0  0  3  0  0  0  0  0  0
  184.0350  178.2700  145.1650 O   0  0  0  0  0  0  0  0  0  0  0  0
  186.3710  177.5630  142.3740 C   0  0  0  0  0  3  0  0  0  0  0  0
  185.9140  177.6860  143.6990 C   0  0  0  0  0  0  0  0  0  0  0  0
  191.6200  173.3090  144.8250 C   0  0  0  0  0  3  0  0  0  0  0  0
  189.6180  174.4130  143.1680 C   0  0  0  0  0  3  0  0  0  0  0  0
  191.5970  171.8700  141.3600 C   0  0  2  0  0  3  0  0  0  0  0  0
  192.2350  171.8580  142.7690 C   0  0  0  0  0  2  0  0  0  0  0  0
  191.4510  172.8830  143.5090 C   0  0  0  0  0  0  0  0  0  0  0  0
  190.5010  172.8350  141.4230 N   0  0  0  0  0  0  0  0  0  0  0  0
  190.4820  173.4170  142.7100 C   0  0  0  0  0  0  0  0  0  0  0  0
  189.7900  173.3500  140.2650 C   0  0  0  0  0  1  0  0  0  0  0  0
  189.7580  174.8690  144.4940 C   0  0  0  0  0  0  0  0  0  0  0  0
  190.7640  174.3080  145.3160 C   0  0  0  0  0  3  0  0  0  0  0  0
  191.0790  170.5120  141.0180 C   0  0  0  0  0  0  0  0  0  0  0  0
  190.5250  169.8130  141.9040 O   0  0  0  0  0  1  0  0  0  0  0  0
  191.1970  170.0170  139.7240 O   0  0  0  0  0  0  0  0  0  0  0  0
  183.3680  178.4830  140.3880 N   0  0  0  0  0  2  0  0  0  0  0  0
  182.3010  177.6970  140.1020 O   0  0  0  0  0  0  0  0  0  0  0  0
  181.1870  178.4470  140.4870 C   0  0  0  0  0  1  0  0  0  0  0  0
  2 16  1  0  0  0  0
  3 10  2  0  0  0  0
  4  6  1  0  0  0  0
  5  1  2  0  0  0  0
  5  9  1  0  0  0  0
  6  8  2  0  0  0  0
  8  7  1  0  0  0  0
  9  4  2  0  0  0  0
 10 12  1  0  0  0  0
 11  1  1  6  0  0  0
 11 10  1  0  0  0  0
 11  6  1  0  0  0  0
 12  7  2  0  0  0  0
 13  2  2  0  0  0  0
 14 13  1  0  0  0  0
 15 14  2  0  0  0  0
 15 17  1  0  0  0  0
 16  3  1  0  0  0  0
 17 18  2  0  0  0  0
 18  2  1  0  0  0  0
 18  1  1  0  0  0  0
 19 28  1  0  0  0  0
 20 27  1  0  0  0  0
 21 29  1  1  0  0  0
 21 24  1  0  0  0  0
 21 22  1  0  0  0  0
 22 23  1  0  0  0  0
 23 19  2  0  0  0  0
 24 25  1  0  0  0  0
 25 20  2  0  0  0  0
 25 23  1  0  0  0  0
 26 24  1  0  0  0  0
 27  9  1  0  0  0  0
 27 28  2  0  0  0  0
 29 30  1  0  0  0  0
 31 29  2  0  0  0  0
 32 14  1  0  0  0  0
 33 32  1  0  0  0  0
 33 34  1  0  0  0  0
M  END
>  <MODEL>
1

>  <REMARK>
 VINA RESULT:      -8.1      0.000      0.000
  Name = 
  4 active torsions:
  status: ('A' for Active; 'I' for Inactive)
    1  A    between atoms: N_3  and  O_13
    2  A    between atoms: N_3  and  C_25
    3  A    between atoms: C_7  and  C_11
    4  A    between atoms: C_18  and  C_30
                            x       y       z     vdW  Elec       q    Type
                         _______ _______ _______ _____ _____    ______ ____

>  <TORSDO>
F 4

$$$$
=
 OpenBabel11052420303D

 34 39  0  0  1  0  0  0  0  0999 V2000
  187.4270  177.5730  144.4890 C   0  0  0  0  0  0  0  0  0  0  0  0
  184.9850  177.8480  143.7660 C   0  0  0  0  0  0  0  0  0  0  0  0
  184.9730  178.0960  146.2150 C   0  0  0  0  0  3  0  0  0  0  0  0
  189.9410  177.4460  145.8870 C   0  0  0  0  0  3  0  0  0  0  0  0
  188.6170  177.0010  143.9110 N   0  0  0  0  0  0  0  0  0  0  0  0
  188.6510  177.8640  146.5200 C   0  0  0  0  0  0  0  0  0  0  0  0
  187.6240  178.7740  148.5070 C   0  0  0  0  0  3  0  0  0  0  0  0
  188.7460  178.3240  147.8320 C   0  0  0  0  0  3  0  0  0  0  0  0
  189.7600  176.8850  144.5140 C   0  0  0  0  0  0  0  0  0  0  0  0
  186.2480  178.2740  146.5640 C   0  0  0  0  0  0  0  0  0  0  0  0
  187.4080  177.8900  145.8170 C   0  0  1  0  0  3  0  0  0  0  0  0
  186.3890  178.7320  147.8780 C   0  0  0  0  0  3  0  0  0  0  0  0
  184.0680  178.0350  142.7240 C   0  0  0  0  0  3  0  0  0  0  0  0
  184.5000  178.3090  141.4250 C   0  0  0  0  0  0  0  0  0  0  0  0
  185.8650  178.3850  141.1600 C   0  0  0  0  0  3  0  0  0  0  0  0
  184.4590  177.6060  145.0220 O   0  0  0  0  0  0  0  0  0  0  0  0
  186.7830  178.1740  142.1890 C   0  0  0  0  0  3  0  0  0  0  0  0
  186.3650  177.9000  143.5050 C   0  0  0  0  0  0  0  0  0  0  0  0
  191.7570  174.8480  142.0010 C   0  0  0  0  0  3  0  0  0  0  0  0
  192.2210  176.4900  144.2520 C   0  0  0  0  0  3  0  0  0  0  0  0
  195.3890  175.1570  142.8950 C   0  0  2  0  0  3  0  0  0  0  0  0
  194.3320  174.5680  141.9310 C   0  0  0  0  0  2  0  0  0  0  0  0
  193.0470  175.0920  142.4690 C   0  0  0  0  0  0  0  0  0  0  0  0
  194.6480  175.9860  143.8450 N   0  0  0  0  0  0  0  0  0  0  0  0
  193.2690  175.8860  143.5560 C   0  0  0  0  0  0  0  0  0  0  0  0
  195.2050  176.5280  145.0730 C   0  0  0  0  0  1  0  0  0  0  0  0
  190.9020  176.2670  143.8080 C   0  0  0  0  0  0  0  0  0  0  0  0
  190.6810  175.4440  142.6790 C   0  0  0  0  0  3  0  0  0  0  0  0
  196.3740  175.9840  142.1360 C   0  0  0  0  0  0  0  0  0  0  0  0
  197.6020  175.8750  142.3830 O   0  0  0  0  0  1  0  0  0  0  0  0
  195.9430  176.8670  141.1520 O   0  0  0  0  0  0  0  0  0  0  0  0
  183.5630  178.5110  140.3650 N   0  0  0  0  0  2  0  0  0  0  0  0
  182.4910  177.6980  140.1930 O   0  0  0  0  0  0  0  0  0  0  0  0
  181.3880  178.4750  140.5540 C   0  0  0  0  0  1  0  0  0  0  0  0
  2 16  1  0  0  0  0
  3 10  2  0  0  0  0
  4  6  1  0  0  0  0
  5  1  2  0  0  0  0
  5  9  1  0  0  0  0
  6  8  2  0  0  0  0
  8  7  1  0  0  0  0
  9  4  2  0  0  0  0
 10 12  1  0  0  0  0
 11  1  1  6  0  0  0
 11  6  1  0  0  0  0
 11 10  1  0  0  0  0
 12  7  2  0  0  0  0
 13  2  2  0  0  0  0
 14 13  1  0  0  0  0
 15 14  2  0  0  0  0
 15 17  1  0  0  0  0
 16  3  1  0  0  0  0
 17 18  2  0  0  0  0
 18  2  1  0  0  0  0
 18  1  1  0  0  0  0
 19 23  2  0  0  0  0
 19 28  1  0  0  0  0
 21 29  1  6  0  0  0
 21 24  1  0  0  0  0
 22 23  1  0  0  0  0
 22 21  1  0  0  0  0
 23 25  1  0  0  0  0
 24 26  1  0  0  0  0
 25 24  1  0  0  0  0
 25 20  2  0  0  0  0
 27 20  1  0  0  0  0
 27  9  1  0  0  0  0
 28 27  2  0  0  0  0
 29 30  1  0  0  0  0
 31 29  2  0  0  0  0
 32 14  1  0  0  0  0
 33 32  1  0  0  0  0
 33 34  1  0  0  0  0
M  END
>  <MODEL>
2

>  <REMARK>
 VINA RESULT:      -8.1      3.095      3.518
  Name = 
  4 active torsions:
  status: ('A' for Active; 'I' for Inactive)
    1  A    between atoms: N_3  and  O_13
    2  A    between atoms: N_3  and  C_25
    3  A    between atoms: C_7  and  C_11
    4  A    between atoms: C_18  and  C_30
                            x       y       z     vdW  Elec       q    Type
                         _______ _______ _______ _____ _____    ______ ____

>  <TORSDO>
F 4

$$$$
=
 OpenBabel11052420303D

 34 39  0  0  1  0  0  0  0  0999 V2000
  187.6460  177.3260  144.5380 C   0  0  0  0  0  0  0  0  0  0  0  0
  185.7760  177.4790  142.7940 C   0  0  0  0  0  0  0  0  0  0  0  0
  184.7350  178.1350  144.9270 C   0  0  0  0  0  3  0  0  0  0  0  0
  189.3030  177.4330  146.8900 C   0  0  0  0  0  3  0  0  0  0  0  0
  188.9230  176.6640  144.6270 N   0  0  0  0  0  0  0  0  0  0  0  0
  187.9020  177.9530  146.8290 C   0  0  0  0  0  0  0  0  0  0  0  0
  186.1940  179.1850  148.0110 C   0  0  0  0  0  3  0  0  0  0  0  0
  187.4600  178.6260  147.9670 C   0  0  0  0  0  3  0  0  0  0  0  0
  189.6860  176.6490  145.6760 C   0  0  0  0  0  0  0  0  0  0  0  0
  185.7480  178.3670  145.7630 C   0  0  0  0  0  0  0  0  0  0  0  0
  187.0840  177.8610  145.6610 C   0  0  1  0  0  3  0  0  0  0  0  0
  185.3470  179.0400  146.9220 C   0  0  0  0  0  3  0  0  0  0  0  0
  185.4090  177.4890  141.4420 C   0  0  0  0  0  3  0  0  0  0  0  0
  186.3750  177.5400  140.4350 C   0  0  0  0  0  0  0  0  0  0  0  0
  187.7230  177.5690  140.7810 C   0  0  0  0  0  3  0  0  0  0  0  0
  184.7470  177.4520  143.7180 O   0  0  0  0  0  0  0  0  0  0  0  0
  188.0940  177.5330  142.1250 C   0  0  0  0  0  3  0  0  0  0  0  0
  187.1340  177.4850  143.1530 C   0  0  0  0  0  0  0  0  0  0  0  0
  192.2050  173.8020  145.6710 C   0  0  0  0  0  3  0  0  0  0  0  0
  192.1880  176.6230  145.5410 C   0  0  0  0  0  3  0  0  0  0  0  0
  195.6380  175.3020  145.4630 C   0  0  2  0  0  3  0  0  0  0  0  0
  194.7840  174.0150  145.5350 C   0  0  0  0  0  2  0  0  0  0  0  0
  193.3880  174.5320  145.5730 C   0  0  0  0  0  0  0  0  0  0  0  0
  194.6890  176.4130  145.4160 N   0  0  0  0  0  0  0  0  0  0  0  0
  193.3780  175.8950  145.5090 C   0  0  0  0  0  0  0  0  0  0  0  0
  195.0470  177.8100  145.5940 C   0  0  0  0  0  1  0  0  0  0  0  0
  190.9710  175.9200  145.6390 C   0  0  0  0  0  0  0  0  0  0  0  0
  190.9910  174.5070  145.7030 C   0  0  0  0  0  3  0  0  0  0  0  0
  196.4890  175.2880  144.2360 C   0  0  0  0  0  0  0  0  0  0  0  0
  197.6220  174.7440  144.2680 O   0  0  0  0  0  1  0  0  0  0  0  0
  196.0330  175.8640  143.0560 O   0  0  0  0  0  0  0  0  0  0  0  0
  185.9990  177.5630  139.0560 N   0  0  0  0  0  2  0  0  0  0  0  0
  185.7590  176.4240  138.3610 O   0  0  0  0  0  0  0  0  0  0  0  0
  186.7050  176.4220  137.3340 C   0  0  0  0  0  1  0  0  0  0  0  0
  1  5  2  0  0  0  0
  2 18  1  0  0  0  0
  2 16  1  0  0  0  0
  3 10  2  0  0  0  0
  5  9  1  0  0  0  0
  6  4  1  0  0  0  0
  6  8  2  0  0  0  0
  8  7  1  0  0  0  0
  9  4  2  0  0  0  0
 10 12  1  0  0  0  0
 11  1  1  6  0  0  0
 11 10  1  0  0  0  0
 11  6  1  0  0  0  0
 12  7  2  0  0  0  0
 13  2  2  0  0  0  0
 14 15  2  0  0  0  0
 14 13  1  0  0  0  0
 15 17  1  0  0  0  0
 16  3  1  0  0  0  0
 17 18  2  0  0  0  0
 18  1  1  0  0  0  0
 19 28  1  0  0  0  0
 20 27  1  0  0  0  0
 21 29  1  6  0  0  0
 21 22  1  0  0  0  0
 22 23  1  0  0  0  0
 23 19  2  0  0  0  0
 24 21  1  0  0  0  0
 24 25  1  0  0  0  0
 24 26  1  0  0  0  0
 25 20  2  0  0  0  0
 25 23  1  0  0  0  0
 27  9  1  0  0  0  0
 27 28  2  0  0  0  0
 29 30  1  0  0  0  0
 31 29  2  0  0  0  0
 32 14  1  0  0  0  0
 33 32  1  0  0  0  0
 34 33  1  0  0  0  0
M  END
>  <MODEL>
3

>  <REMARK>
 VINA RESULT:      -8.0      3.333      4.074
  Name = 
  4 active torsions:
  status: ('A' for Active; 'I' for Inactive)
    1  A    between atoms: N_3  and  O_13
    2  A    between atoms: N_3  and  C_25
    3  A    between atoms: C_7  and  C_11
    4  A    between atoms: C_18  and  C_30
                            x       y       z     vdW  Elec       q    Type
                         _______ _______ _______ _____ _____    ______ ____

>  <TORSDO>
F 4

$$$$
=
 OpenBabel11052420303D

 34 39  0  0  1  0  0  0  0  0999 V2000
  187.8260  176.1530  143.4120 C   0  0  0  0  0  0  0  0  0  0  0  0
  185.5640  177.3540  143.4350 C   0  0  0  0  0  0  0  0  0  0  0  0
  186.3990  177.4890  145.7470 C   0  0  0  0  0  3  0  0  0  0  0  0
  190.4140  175.0340  143.9950 C   0  0  0  0  0  2  0  0  0  0  0  0
  188.4800  175.2000  142.5500 N   0  0  0  0  0  0  0  0  0  0  0  0
  189.6330  175.8800  144.9510 C   0  0  0  0  0  0  0  0  0  0  0  0
  189.6810  177.0280  147.0750 C   0  0  0  0  0  3  0  0  0  0  0  0
  190.2900  176.2170  146.1330 C   0  0  0  0  0  3  0  0  0  0  0  0
  189.6250  174.6380  142.7900 C   0  0  0  0  0  0  0  0  0  0  0  0
  187.6900  177.1600  145.6810 C   0  0  0  0  0  0  0  0  0  0  0  0
  188.3350  176.3990  144.6540 C   0  0  0  0  0  0  0  0  0  0  0  0
  188.3880  177.4790  146.8510 C   0  0  0  0  0  3  0  0  0  0  0  0
  184.5080  177.9140  142.7050 C   0  0  0  0  0  3  0  0  0  0  0  0
  184.5880  178.0580  141.3180 C   0  0  0  0  0  0  0  0  0  0  0  0
  185.7310  177.6270  140.6510 C   0  0  0  0  0  3  0  0  0  0  0  0
  185.4010  177.2770  144.8070 O   0  0  0  0  0  0  0  0  0  0  0  0
  186.7740  177.0440  141.3710 C   0  0  0  0  0  3  0  0  0  0  0  0
  186.7130  176.8950  142.7680 C   0  0  0  0  0  0  0  0  0  0  0  0
  191.5580  171.6900  141.3680 C   0  0  0  0  0  3  0  0  0  0  0  0
  189.8820  173.7710  140.4530 C   0  0  0  0  0  3  0  0  0  0  0  0
  191.0410  171.6590  137.6510 C   0  0  2  0  0  3  0  0  0  0  0  0
  191.6930  170.9810  138.8790 C   0  0  0  0  0  2  0  0  0  0  0  0
  191.2400  171.8260  140.0180 C   0  0  0  0  0  0  0  0  0  0  0  0
  190.2500  172.7700  138.1780 N   0  0  0  0  0  0  0  0  0  0  0  0
  190.4290  172.8320  139.5770 C   0  0  0  0  0  0  0  0  0  0  0  0
  189.6720  173.8270  137.3650 C   0  0  0  0  0  1  0  0  0  0  0  0
  190.1810  173.6660  141.8260 C   0  0  0  0  0  0  0  0  0  0  0  0
  191.0210  172.6190  142.2730 C   0  0  0  0  0  3  0  0  0  0  0  0
  190.1630  170.6870  136.9330 C   0  0  0  0  0  0  0  0  0  0  0  0
  189.5900  169.7710  137.5760 O   0  0  0  0  0  1  0  0  0  0  0  0
  189.9680  170.7930  135.5610 O   0  0  0  0  0  0  0  0  0  0  0  0
  183.5150  178.6400  140.5760 N   0  0  0  0  0  2  0  0  0  0  0  0
  182.4390  177.9140  140.1840 O   0  0  0  0  0  0  0  0  0  0  0  0
  181.3610  178.4580  140.8860 C   0  0  0  0  0  1  0  0  0  0  0  0
  1 11  2  0  0  0  0
  2 16  1  0  0  0  0
  4  6  1  0  0  0  0
  5  9  2  0  0  0  0
  5  1  1  0  0  0  0
  6  8  2  0  0  0  0
  8  7  1  0  0  0  0
  9  4  1  0  0  0  0
 10  3  2  0  0  0  0
 10 12  1  0  0  0  0
 11  6  1  0  0  0  0
 11 10  1  0  0  0  0
 12  7  2  0  0  0  0
 13  2  2  0  0  0  0
 14 13  1  0  0  0  0
 15 14  2  0  0  0  0
 15 17  1  0  0  0  0
 16  3  1  0  0  0  0
 17 18  2  0  0  0  0
 18  1  1  0  0  0  0
 18  2  1  0  0  0  0
 19 28  1  0  0  0  0
 20 27  1  0  0  0  0
 21 29  1  1  0  0  0
 21 24  1  0  0  0  0
 21 22  1  0  0  0  0
 22 23  1  0  0  0  0
 23 19  2  0  0  0  0
 24 25  1  0  0  0  0
 25 23  1  0  0  0  0
 25 20  2  0  0  0  0
 26 24  1  0  0  0  0
 27 28  2  0  0  0  0
 27  9  1  0  0  0  0
 29 30  1  0  0  0  0
 31 29  2  0  0  0  0
 32 14  1  0  0  0  0
 33 32  1  0  0  0  0
 33 34  1  0  0  0  0
M  END
>  <MODEL>
4

>  <REMARK>
 VINA RESULT:      -8.0      1.776      2.789
  Name = 
  4 active torsions:
  status: ('A' for Active; 'I' for Inactive)
    1  A    between atoms: N_3  and  O_13
    2  A    between atoms: N_3  and  C_25
    3  A    between atoms: C_7  and  C_11
    4  A    between atoms: C_18  and  C_30
                            x       y       z     vdW  Elec       q    Type
                         _______ _______ _______ _____ _____    ______ ____

>  <TORSDO>
F 4

$$$$
=
 OpenBabel11052420303D

 34 39  0  0  1  0  0  0  0  0999 V2000
  192.4720  175.2000  143.1170 C   0  0  0  0  0  0  0  0  0  0  0  0
  193.3930  174.5830  140.8080 C   0  0  0  0  0  0  0  0  0  0  0  0
  195.3730  174.8980  142.2390 C   0  0  0  0  0  3  0  0  0  0  0  0
  192.0610  175.8320  145.8970 C   0  0  0  0  0  3  0  0  0  0  0  0
  191.2260  175.7140  143.6280 N   0  0  0  0  0  0  0  0  0  0  0  0
  193.3890  175.4720  145.3070 C   0  0  0  0  0  0  0  0  0  0  0  0
  195.6980  174.9610  145.7930 C   0  0  0  0  0  3  0  0  0  0  0  0
  194.4340  175.3300  146.2180 C   0  0  0  0  0  3  0  0  0  0  0  0
  191.0060  176.0510  144.8620 C   0  0  0  0  0  0  0  0  0  0  0  0
  194.9130  174.9010  143.4910 C   0  0  0  0  0  0  0  0  0  0  0  0
  193.5780  175.1930  143.9180 C   0  0  1  0  0  3  0  0  0  0  0  0
  195.9320  174.7650  144.4400 C   0  0  0  0  0  3  0  0  0  0  0  0
  193.1420  174.0950  139.5200 C   0  0  0  0  0  3  0  0  0  0  0  0
  191.8940  173.5670  139.1810 C   0  0  0  0  0  0  0  0  0  0  0  0
  190.8820  173.5370  140.1360 C   0  0  0  0  0  3  0  0  0  0  0  0
  194.6670  175.0630  141.0550 O   0  0  0  0  0  0  0  0  0  0  0  0
  191.1200  174.0450  141.4130 C   0  0  0  0  0  3  0  0  0  0  0  0
  192.3720  174.5780  141.7730 C   0  0  0  0  0  0  0  0  0  0  0  0
  188.2050  177.5390  146.9580 C   0  0  0  0  0  3  0  0  0  0  0  0
  188.6270  176.6230  144.3200 C   0  0  0  0  0  3  0  0  0  0  0  0
  185.1500  177.7820  144.7910 C   0  0  2  0  0  3  0  0  0  0  0  0
  185.7840  178.0370  146.1790 C   0  0  0  0  0  2  0  0  0  0  0  0
  187.1870  177.5700  146.0060 C   0  0  0  0  0  0  0  0  0  0  0  0
  186.2230  177.2520  143.9510 N   0  0  0  0  0  0  0  0  0  0  0  0
  187.3930  177.1270  144.7320 C   0  0  0  0  0  0  0  0  0  0  0  0
  186.0220  176.6410  142.6480 C   0  0  0  0  0  1  0  0  0  0  0  0
  189.6810  176.5770  145.2530 C   0  0  0  0  0  0  0  0  0  0  0  0
  189.4590  177.0390  146.5720 C   0  0  0  0  0  3  0  0  0  0  0  0
  184.6220  179.0580  144.2240 C   0  0  0  0  0  0  0  0  0  0  0  0
  183.4410  179.1090  143.7960 O   0  0  0  0  0  0  0  0  0  0  0  0
  185.4240  180.1920  144.1740 O   0  0  0  0  0  1  0  0  0  0  0  0
  191.6430  173.0590  137.8690 N   0  0  0  0  0  2  0  0  0  0  0  0
  190.4260  173.1690  137.2800 O   0  0  0  0  0  0  0  0  0  0  0  0
  190.5230  174.2950  136.4610 C   0  0  0  0  0  1  0  0  0  0  0  0
  1  5  2  0  0  0  0
  2 16  1  0  0  0  0
  2 18  1  0  0  0  0
  3 10  2  0  0  0  0
  5  9  1  0  0  0  0
  6  4  1  0  0  0  0
  6  8  2  0  0  0  0
  7  8  1  0  0  0  0
  9 27  1  0  0  0  0
  9  4  2  0  0  0  0
 10 11  1  0  0  0  0
 10 12  1  0  0  0  0
 11  1  1  1  0  0  0
 11  6  1  0  0  0  0
 12  7  2  0  0  0  0
 13  2  2  0  0  0  0
 14 13  1  0  0  0  0
 14 15  2  0  0  0  0
 15 17  1  0  0  0  0
 16  3  1  0  0  0  0
 17 18  2  0  0  0  0
 18  1  1  0  0  0  0
 20 25  2  0  0  0  0
 20 27  1  0  0  0  0
 21 29  1  6  0  0  0
 21 22  1  0  0  0  0
 23 22  1  0  0  0  0
 23 19  2  0  0  0  0
 24 25  1  0  0  0  0
 24 21  1  0  0  0  0
 25 23  1  0  0  0  0
 26 24  1  0  0  0  0
 27 28  2  0  0  0  0
 28 19  1  0  0  0  0
 30 29  2  0  0  0  0
 31 29  1  0  0  0  0
 32 14  1  0  0  0  0
 33 32  1  0  0  0  0
 34 33  1  0  0  0  0
M  END
>  <MODEL>
5

>  <REMARK>
 VINA RESULT:      -7.9      2.843      8.360
  Name = 
  4 active torsions:
  status: ('A' for Active; 'I' for Inactive)
    1  A    between atoms: N_3  and  O_13
    2  A    between atoms: N_3  and  C_25
    3  A    between atoms: C_7  and  C_11
    4  A    between atoms: C_18  and  C_30
                            x       y       z     vdW  Elec       q    Type
                         _______ _______ _______ _____ _____    ______ ____

>  <TORSDO>
F 4

$$$$
=
 OpenBabel11052420303D

 34 39  0  0  1  0  0  0  0  0999 V2000
  190.1340  173.1110  141.9480 C   0  0  0  0  0  0  0  0  0  0  0  0
  191.7110  171.4170  143.0450 C   0  0  0  0  0  0  0  0  0  0  0  0
  190.9250  170.3340  140.9790 C   0  0  0  0  0  3  0  0  0  0  0  0
  188.3720  174.5910  140.2170 C   0  0  0  0  0  2  0  0  0  0  0  0
  189.3900  174.2650  142.3880 N   0  0  0  0  0  0  0  0  0  0  0  0
  189.0140  173.2910  139.8460 C   0  0  0  0  0  0  0  0  0  0  0  0
  189.3890  171.7060  138.0630 C   0  0  0  0  0  3  0  0  0  0  0  0
  188.8110  172.8740  138.5310 C   0  0  0  0  0  3  0  0  0  0  0  0
  188.5550  174.9390  141.6580 C   0  0  0  0  0  0  0  0  0  0  0  0
  190.3720  171.3070  140.2530 C   0  0  0  0  0  0  0  0  0  0  0  0
  189.8600  172.5560  140.7310 C   0  0  0  0  0  0  0  0  0  0  0  0
  190.1470  170.9280  138.9250 C   0  0  0  0  0  3  0  0  0  0  0  0
  192.6820  171.1560  144.0200 C   0  0  0  0  0  3  0  0  0  0  0  0
  193.2400  172.1880  144.7760 C   0  0  0  0  0  0  0  0  0  0  0  0
  192.8140  173.4970  144.5650 C   0  0  0  0  0  3  0  0  0  0  0  0
  191.2370  170.3310  142.3310 O   0  0  0  0  0  0  0  0  0  0  0  0
  191.8290  173.7600  143.6140 C   0  0  0  0  0  3  0  0  0  0  0  0
  191.2580  172.7320  142.8400 C   0  0  0  0  0  0  0  0  0  0  0  0
  186.6800  178.2340  141.9340 C   0  0  0  0  0  3  0  0  0  0  0  0
  187.6590  176.1990  143.6300 C   0  0  0  0  0  3  0  0  0  0  0  0
  186.0220  178.8850  145.5710 C   0  0  2  0  0  3  0  0  0  0  0  0
  185.8510  179.3680  144.1120 C   0  0  0  0  0  2  0  0  0  0  0  0
  186.5120  178.2970  143.3160 C   0  0  0  0  0  0  0  0  0  0  0  0
  186.7010  177.5920  145.4890 N   0  0  0  0  0  0  0  0  0  0  0  0
  186.9850  177.3130  144.1340 C   0  0  0  0  0  0  0  0  0  0  0  0
  187.2850  176.8960  146.6230 C   0  0  0  0  0  1  0  0  0  0  0  0
  187.8470  176.1000  142.2370 C   0  0  0  0  0  0  0  0  0  0  0  0
  187.3520  177.1250  141.3970 C   0  0  0  0  0  3  0  0  0  0  0  0
  184.6880  178.7350  146.2230 C   0  0  0  0  0  0  0  0  0  0  0  0
  183.6440  178.7600  145.5220 O   0  0  0  0  0  0  0  0  0  0  0  0
  184.5910  178.5580  147.5990 O   0  0  0  0  0  1  0  0  0  0  0  0
  194.2390  171.9210  145.7620 N   0  0  0  0  0  2  0  0  0  0  0  0
  195.4400  172.5500  145.7520 O   0  0  0  0  0  0  0  0  0  0  0  0
  196.3860  171.5240  145.8060 C   0  0  0  0  0  1  0  0  0  0  0  0
  1  5  1  0  0  0  0
  1 18  1  0  0  0  0
  2 13  1  0  0  0  0
  3 16  1  0  0  0  0
  4  9  1  0  0  0  0
  6  4  1  0  0  0  0
  6 11  1  0  0  0  0
  7  8  1  0  0  0  0
  7 12  2  0  0  0  0
  8  6  2  0  0  0  0
  9 27  1  0  0  0  0
  9  5  2  0  0  0  0
 10 11  1  0  0  0  0
 10  3  2  0  0  0  0
 11  1  2  0  0  0  0
 12 10  1  0  0  0  0
 13 14  2  0  0  0  0
 14 32  1  0  0  0  0
 15 14  1  0  0  0  0
 16  2  1  0  0  0  0
 17 15  2  0  0  0  0
 18  2  2  0  0  0  0
 18 17  1  0  0  0  0
 19 23  1  0  0  0  0
 20 25  1  0  0  0  0
 21 29  1  6  0  0  0
 22 21  1  0  0  0  0
 23 22  1  0  0  0  0
 23 25  2  0  0  0  0
 24 21  1  0  0  0  0
 24 26  1  0  0  0  0
 25 24  1  0  0  0  0
 27 20  2  0  0  0  0
 28 19  2  0  0  0  0
 28 27  1  0  0  0  0
 29 31  1  0  0  0  0
 30 29  2  0  0  0  0
 33 32  1  0  0  0  0
 33 34  1  0  0  0  0
M  END
>  <MODEL>
6

>  <REMARK>
 VINA RESULT:      -7.8      2.369      9.823
  Name = 
  4 active torsions:
  status: ('A' for Active; 'I' for Inactive)
    1  A    between atoms: N_3  and  O_13
    2  A    between atoms: N_3  and  C_25
    3  A    between atoms: C_7  and  C_11
    4  A    between atoms: C_18  and  C_30
                            x       y       z     vdW  Elec       q    Type
                         _______ _______ _______ _____ _____    ______ ____

>  <TORSDO>
F 4

$$$$
=
 OpenBabel11052420303D

 34 39  0  0  1  0  0  0  0  0999 V2000
  190.8300  174.1360  141.6130 C   0  0  0  0  0  0  0  0  0  0  0  0
  193.1080  173.2190  142.3410 C   0  0  0  0  0  0  0  0  0  0  0  0
  192.1190  171.4640  140.9240 C   0  0  0  0  0  3  0  0  0  0  0  0
  188.2640  174.6400  140.4090 C   0  0  0  0  0  2  0  0  0  0  0  0
  189.9310  175.1600  142.0840 N   0  0  0  0  0  0  0  0  0  0  0  0
  189.1370  173.4740  140.0640 C   0  0  0  0  0  0  0  0  0  0  0  0
  189.4370  171.5990  138.5730 C   0  0  0  0  0  3  0  0  0  0  0  0
  188.6920  172.6820  139.0070 C   0  0  0  0  0  3  0  0  0  0  0  0
  188.7510  175.3980  141.6010 C   0  0  0  0  0  0  0  0  0  0  0  0
  191.1010  172.0480  140.2910 C   0  0  0  0  0  0  0  0  0  0  0  0
  190.3930  173.2250  140.6960 C   0  0  0  0  0  0  0  0  0  0  0  0
  190.6210  171.2820  139.2230 C   0  0  0  0  0  3  0  0  0  0  0  0
  194.3560  173.4640  142.9270 C   0  0  0  0  0  3  0  0  0  0  0  0
  194.7630  174.7640  143.2360 C   0  0  0  0  0  0  0  0  0  0  0  0
  193.9090  175.8290  142.9690 C   0  0  0  0  0  3  0  0  0  0  0  0
  192.8060  171.9000  142.0490 O   0  0  0  0  0  0  0  0  0  0  0  0
  192.6540  175.5880  142.4100 C   0  0  0  0  0  3  0  0  0  0  0  0
  192.2290  174.2850  142.0880 C   0  0  0  0  0  0  0  0  0  0  0  0
  186.4430  178.4050  141.8860 C   0  0  0  0  0  3  0  0  0  0  0  0
  187.8150  176.6130  143.5830 C   0  0  0  0  0  3  0  0  0  0  0  0
  185.9420  179.1310  145.5340 C   0  0  2  0  0  3  0  0  0  0  0  0
  185.6060  179.5150  144.0730 C   0  0  0  0  0  2  0  0  0  0  0  0
  186.3590  178.5110  143.2730 C   0  0  0  0  0  0  0  0  0  0  0  0
  186.7920  177.9440  145.4520 N   0  0  0  0  0  0  0  0  0  0  0  0
  187.0220  177.6430  144.0920 C   0  0  0  0  0  0  0  0  0  0  0  0
  187.5440  177.3930  146.5670 C   0  0  0  0  0  1  0  0  0  0  0  0
  187.9220  176.4740  142.1850 C   0  0  0  0  0  0  0  0  0  0  0  0
  187.2300  177.3770  141.3440 C   0  0  0  0  0  3  0  0  0  0  0  0
  184.6890  178.8260  146.2860 C   0  0  0  0  0  0  0  0  0  0  0  0
  183.5920  178.7660  145.6740 O   0  0  0  0  0  0  0  0  0  0  0  0
  184.7270  178.6000  147.6570 O   0  0  0  0  0  1  0  0  0  0  0  0
  196.0420  175.0140  143.8230 N   0  0  0  0  0  2  0  0  0  0  0  0
  196.6540  176.2190  143.7180 O   0  0  0  0  0  0  0  0  0  0  0  0
  197.6940  176.0170  142.8070 C   0  0  0  0  0  1  0  0  0  0  0  0
  1  5  1  0  0  0  0
  1 18  1  0  0  0  0
  2 13  1  0  0  0  0
  3 16  1  0  0  0  0
  4  9  1  0  0  0  0
  6  4  1  0  0  0  0
  6 11  1  0  0  0  0
  7  8  1  0  0  0  0
  7 12  2  0  0  0  0
  8  6  2  0  0  0  0
  9  5  2  0  0  0  0
  9 27  1  0  0  0  0
 10 11  1  0  0  0  0
 10  3  2  0  0  0  0
 11  1  2  0  0  0  0
 12 10  1  0  0  0  0
 13 14  2  0  0  0  0
 14 32  1  0  0  0  0
 15 14  1  0  0  0  0
 16  2  1  0  0  0  0
 17 15  2  0  0  0  0
 18  2  2  0  0  0  0
 18 17  1  0  0  0  0
 19 23  1  0  0  0  0
 20 25  1  0  0  0  0
 21 29  1  1  0  0  0
 22 21  1  0  0  0  0
 23 22  1  0  0  0  0
 23 25  2  0  0  0  0
 24 21  1  0  0  0  0
 24 26  1  0  0  0  0
 25 24  1  0  0  0  0
 27 20  2  0  0  0  0
 28 19  2  0  0  0  0
 28 27  1  0  0  0  0
 29 31  1  0  0  0  0
 30 29  2  0  0  0  0
 33 32  1  0  0  0  0
 34 33  1  0  0  0  0
M  END
>  <MODEL>
7

>  <REMARK>
 VINA RESULT:      -7.8      2.940      9.760
  Name = 
  4 active torsions:
  status: ('A' for Active; 'I' for Inactive)
    1  A    between atoms: N_3  and  O_13
    2  A    between atoms: N_3  and  C_25
    3  A    between atoms: C_7  and  C_11
    4  A    between atoms: C_18  and  C_30
                            x       y       z     vdW  Elec       q    Type
                         _______ _______ _______ _____ _____    ______ ____

>  <TORSDO>
F 4

$$$$
=
 OpenBabel11052420303D

 34 39  0  0  1  0  0  0  0  0999 V2000
  189.8520  174.8850  143.4430 C   0  0  0  0  0  0  0  0  0  0  0  0
  188.2980  176.8220  144.0700 C   0  0  0  0  0  0  0  0  0  0  0  0
  187.9800  176.4860  141.6520 C   0  0  0  0  0  3  0  0  0  0  0  0
  191.2950  172.7480  142.1600 C   0  0  0  0  0  3  0  0  0  0  0  0
  191.0130  174.2620  144.0270 N   0  0  0  0  0  0  0  0  0  0  0  0
  190.2040  173.5340  141.5040 C   0  0  0  0  0  0  0  0  0  0  0  0
  188.7920  173.7150  139.5530 C   0  0  0  0  0  3  0  0  0  0  0  0
  189.8180  173.0890  140.2400 C   0  0  0  0  0  3  0  0  0  0  0  0
  191.7190  173.3260  143.4720 C   0  0  0  0  0  0  0  0  0  0  0  0
  188.5260  175.2990  141.3800 C   0  0  0  0  0  0  0  0  0  0  0  0
  189.5220  174.6130  142.1460 C   0  0  1  0  0  3  0  0  0  0  0  0
  188.1670  174.8170  140.1170 C   0  0  0  0  0  3  0  0  0  0  0  0
  187.6780  177.5690  145.0790 C   0  0  0  0  0  3  0  0  0  0  0  0
  187.7470  177.1710  146.4160 C   0  0  0  0  0  0  0  0  0  0  0  0
  188.4530  176.0200  146.7500 C   0  0  0  0  0  3  0  0  0  0  0  0
  188.1520  177.2840  142.7740 O   0  0  0  0  0  0  0  0  0  0  0  0
  189.0940  175.2860  145.7520 C   0  0  0  0  0  3  0  0  0  0  0  0
  189.0330  175.6700  144.3990 C   0  0  0  0  0  0  0  0  0  0  0  0
  195.0070  173.1430  145.3700 C   0  0  0  0  0  3  0  0  0  0  0  0
  193.0530  171.3870  144.3320 C   0  0  0  0  0  3  0  0  0  0  0  0
  195.8050  169.5210  145.9470 C   0  0  2  0  0  3  0  0  0  0  0  0
  196.2250  170.9950  146.1570 C   0  0  0  0  0  2  0  0  0  0  0  0
  195.1270  171.7610  145.5060 C   0  0  0  0  0  0  0  0  0  0  0  0
  194.5150  169.5660  145.2590 N   0  0  0  0  0  0  0  0  0  0  0  0
  194.1810  170.9140  145.0050 C   0  0  0  0  0  0  0  0  0  0  0  0
  193.8720  168.4180  144.6410 C   0  0  0  0  0  1  0  0  0  0  0  0
  192.8970  172.7790  144.1770 C   0  0  0  0  0  0  0  0  0  0  0  0
  193.8820  173.6490  144.7010 C   0  0  0  0  0  3  0  0  0  0  0  0
  195.6710  168.8310  147.2640 C   0  0  0  0  0  0  0  0  0  0  0  0
  194.5650  168.8360  147.8620 O   0  0  0  0  0  1  0  0  0  0  0  0
  196.7590  168.1750  147.8300 O   0  0  0  0  0  0  0  0  0  0  0  0
  187.1040  177.9280  147.4430 N   0  0  0  0  0  2  0  0  0  0  0  0
  185.8500  177.6350  147.8690 O   0  0  0  0  0  0  0  0  0  0  0  0
  185.0460  178.6530  147.3530 C   0  0  0  0  0  1  0  0  0  0  0  0
  1  5  2  0  0  0  0
  1 18  1  0  0  0  0
  2 18  2  0  0  0  0
  2 13  1  0  0  0  0
  3 16  1  0  0  0  0
  4  9  2  0  0  0  0
  6 11  1  0  0  0  0
  6  4  1  0  0  0  0
  7 12  2  0  0  0  0
  7  8  1  0  0  0  0
  8  6  2  0  0  0  0
  9  5  1  0  0  0  0
  9 27  1  0  0  0  0
 10  3  2  0  0  0  0
 11 10  1  1  0  0  0
 11  1  1  0  0  0  0
 12 10  1  0  0  0  0
 13 14  2  0  0  0  0
 14 15  1  0  0  0  0
 14 32  1  0  0  0  0
 16  2  1  0  0  0  0
 17 15  2  0  0  0  0
 18 17  1  0  0  0  0
 19 23  1  0  0  0  0
 20 25  1  0  0  0  0
 21 22  1  0  0  0  0
 21 29  1  1  0  0  0
 23 22  1  0  0  0  0
 24 21  1  0  0  0  0
 25 24  1  0  0  0  0
 25 23  2  0  0  0  0
 26 24  1  0  0  0  0
 27 20  2  0  0  0  0
 27 28  1  0  0  0  0
 28 19  2  0  0  0  0
 29 31  2  0  0  0  0
 29 30  1  0  0  0  0
 32 33  1  0  0  0  0
 34 33  1  0  0  0  0
M  END
>  <MODEL>
8

>  <REMARK>
 VINA RESULT:      -7.7      3.514      6.414
  Name = 
  4 active torsions:
  status: ('A' for Active; 'I' for Inactive)
    1  A    between atoms: N_3  and  O_13
    2  A    between atoms: N_3  and  C_25
    3  A    between atoms: C_7  and  C_11
    4  A    between atoms: C_18  and  C_30
                            x       y       z     vdW  Elec       q    Type
                         _______ _______ _______ _____ _____    ______ ____

>  <TORSDO>
F 4

$$$$
=
 OpenBabel11052420303D

 34 39  0  0  1  0  0  0  0  0999 V2000
  188.5550  176.0050  144.0350 C   0  0  0  0  0  0  0  0  0  0  0  0
  186.2680  177.0480  144.5290 C   0  0  0  0  0  0  0  0  0  0  0  0
  187.5040  177.1470  146.6560 C   0  0  0  0  0  3  0  0  0  0  0  0
  191.2680  175.0440  144.0830 C   0  0  0  0  0  2  0  0  0  0  0  0
  189.0950  175.1350  143.0220 N   0  0  0  0  0  0  0  0  0  0  0  0
  190.6270  175.7950  145.2060 C   0  0  0  0  0  0  0  0  0  0  0  0
  190.9950  176.8580  147.3430 C   0  0  0  0  0  3  0  0  0  0  0  0
  191.4690  176.1290  146.2660 C   0  0  0  0  0  3  0  0  0  0  0  0
  190.2960  174.6440  143.0210 C   0  0  0  0  0  0  0  0  0  0  0  0
  188.7780  176.9100  146.3410 C   0  0  0  0  0  0  0  0  0  0  0  0
  189.2680  176.2360  145.1760 C   0  0  0  0  0  0  0  0  0  0  0  0
  189.6590  177.2280  147.3810 C   0  0  0  0  0  3  0  0  0  0  0  0
  185.0640  177.5640  144.0320 C   0  0  0  0  0  3  0  0  0  0  0  0
  184.8790  177.7680  142.6630 C   0  0  0  0  0  0  0  0  0  0  0  0
  185.9040  177.4430  141.7790 C   0  0  0  0  0  3  0  0  0  0  0  0
  186.3640  176.9050  145.9020 O   0  0  0  0  0  0  0  0  0  0  0  0
  187.0950  176.9050  142.2670 C   0  0  0  0  0  3  0  0  0  0  0  0
  187.3000  176.6950  143.6430 C   0  0  0  0  0  0  0  0  0  0  0  0
  192.1640  171.9460  141.1000 C   0  0  0  0  0  3  0  0  0  0  0  0
  190.1160  173.8390  140.6540 C   0  0  0  0  0  3  0  0  0  0  0  0
  190.8370  171.9030  137.5900 C   0  0  2  0  0  3  0  0  0  0  0  0
  191.8150  171.2870  138.6190 C   0  0  0  0  0  2  0  0  0  0  0  0
  191.5400  172.0620  139.8600 C   0  0  0  0  0  0  0  0  0  0  0  0
  190.0710  172.9130  138.3190 N   0  0  0  0  0  0  0  0  0  0  0  0
  190.5500  172.9770  139.6460 C   0  0  0  0  0  0  0  0  0  0  0  0
  189.2170  173.9090  137.6920 C   0  0  0  0  0  1  0  0  0  0  0  0
  190.7230  173.7510  141.9230 C   0  0  0  0  0  0  0  0  0  0  0  0
  191.7470  172.7980  142.1360 C   0  0  0  0  0  3  0  0  0  0  0  0
  189.9290  170.8490  137.0490 C   0  0  0  0  0  0  0  0  0  0  0  0
  189.5150  170.9300  135.8640 O   0  0  0  0  0  0  0  0  0  0  0  0
  189.5450  169.7730  137.8410 O   0  0  0  0  0  1  0  0  0  0  0  0
  183.6550  178.3050  142.1590 N   0  0  0  0  0  2  0  0  0  0  0  0
  183.3810  178.3360  140.8310 O   0  0  0  0  0  0  0  0  0  0  0  0
  182.0020  178.1290  140.7430 C   0  0  0  0  0  1  0  0  0  0  0  0
  1 11  2  0  0  0  0
  2 16  1  0  0  0  0
  4  6  1  0  0  0  0
  5  1  1  0  0  0  0
  6  8  2  0  0  0  0
  7 12  2  0  0  0  0
  8  7  1  0  0  0  0
  9  5  2  0  0  0  0
  9  4  1  0  0  0  0
 10  3  2  0  0  0  0
 10 12  1  0  0  0  0
 11  6  1  0  0  0  0
 11 10  1  0  0  0  0
 13  2  1  0  0  0  0
 14 13  2  0  0  0  0
 15 17  2  0  0  0  0
 15 14  1  0  0  0  0
 16  3  1  0  0  0  0
 17 18  1  0  0  0  0
 18  1  1  0  0  0  0
 18  2  2  0  0  0  0
 19 28  1  0  0  0  0
 20 27  1  0  0  0  0
 21 29  1  1  0  0  0
 21 24  1  0  0  0  0
 21 22  1  0  0  0  0
 22 23  1  0  0  0  0
 23 19  2  0  0  0  0
 24 25  1  0  0  0  0
 25 23  1  0  0  0  0
 25 20  2  0  0  0  0
 26 24  1  0  0  0  0
 27 28  2  0  0  0  0
 27  9  1  0  0  0  0
 29 31  1  0  0  0  0
 30 29  2  0  0  0  0
 32 14  1  0  0  0  0
 33 32  1  0  0  0  0
 34 33  1  0  0  0  0
M  END
>  <MODEL>
9

>  <REMARK>
 VINA RESULT:      -7.6      1.917      3.123
  Name = 
  4 active torsions:
  status: ('A' for Active; 'I' for Inactive)
    1  A    between atoms: N_3  and  O_13
    2  A    between atoms: N_3  and  C_25
    3  A    between atoms: C_7  and  C_11
    4  A    between atoms: C_18  and  C_30
                            x       y       z     vdW  Elec       q    Type
                         _______ _______ _______ _____ _____    ______ ____

>  <TORSDO>
F 4

$$$$
