=
 OpenBabel11052418153D

 28 31  0  0  1  0  0  0  0  0999 V2000
  188.9590  174.3190  145.5910 O   0  0  0  0  0  1  0  0  0  0  0  0
  191.1990  176.2060  144.6380 C   0  0  2  0  0  3  0  0  0  0  0  0
  191.6340  174.3720  146.1500 O   0  0  0  0  0  1  0  0  0  0  0  0
  188.6780  176.6700  145.9980 C   0  0  0  0  0  0  0  0  0  0  0  0
  190.5350  177.5810  144.5410 C   0  0  0  0  0  2  0  0  0  0  0  0
  188.5220  177.5460  147.2220 C   0  0  0  0  0  2  0  0  0  0  0  0
  189.4690  175.4000  146.3140 C   0  0  2  0  0  3  0  0  0  0  0  0
  187.3190  176.8170  146.6500 C   0  0  0  0  0  2  0  0  0  0  0  0
  190.9640  175.5930  146.0270 C   0  0  2  0  0  3  0  0  0  0  0  0
  189.0130  177.5030  144.7440 C   0  0  1  0  0  3  0  0  0  0  0  0
  188.2270  177.1450  143.4490 C   0  0  1  0  0  0  0  0  0  0  0  0
  186.7310  177.5290  143.5690 C   0  0  2  0  0  3  0  0  0  0  0  0
  186.6740  177.4920  141.1070 C   0  0  0  0  0  0  0  0  0  0  0  0
  188.0520  177.7090  141.0620 O   0  0  0  0  0  0  0  0  0  0  0  0
  188.8090  177.9220  142.2540 C   0  0  0  0  0  2  0  0  0  0  0  0
  186.0150  177.4080  140.0400 O   0  0  0  0  0  0  0  0  0  0  0  0
  188.3360  175.6530  143.1540 C   0  0  0  0  0  1  0  0  0  0  0  0
  186.0420  177.3010  142.3370 O   0  0  0  0  0  0  0  0  0  0  0  0
  186.5390  178.9850  143.9940 C   0  0  0  0  0  2  0  0  0  0  0  0
  185.1980  179.1590  144.6800 C   0  0  0  0  0  1  0  0  0  0  0  0
  193.5520  176.8930  145.2240 C   0  0  0  0  0  3  0  0  0  0  0  0
  193.1520  175.8490  143.0690 C   0  0  0  0  0  0  0  0  0  0  0  0
  195.3920  176.5360  143.6950 C   0  0  0  0  0  0  0  0  0  0  0  0
  192.6620  176.3150  144.3060 C   0  0  0  0  0  0  0  0  0  0  0  0
  194.5140  175.9620  142.7730 C   0  0  0  0  0  3  0  0  0  0  0  0
  192.2480  175.2310  142.0560 C   0  0  0  0  0  1  0  0  0  0  0  0
  197.0940  176.6720  143.3130 Cl  0  0  0  0  0  0  0  0  0  0  0  0
  194.9110  177.0020  144.9200 C   0  0  0  0  0  3  0  0  0  0  0  0
  2 24  1  1  0  0  0
  2  9  1  0  0  0  0
  4  7  1  0  0  0  0
  4  8  1  0  0  0  0
  4  6  1  0  0  0  0
  5  2  1  0  0  0  0
  7  1  1  6  0  0  0
  8  6  1  0  0  0  0
  9  3  1  6  0  0  0
  9  7  1  0  0  0  0
 10  5  1  6  0  0  0
 10  4  1  0  0  0  0
 11 17  1  6  0  0  0
 11 12  1  0  0  0  0
 11 10  1  0  0  0  0
 12 19  1  6  0  0  0
 13 18  1  0  0  0  0
 14 13  1  0  0  0  0
 14 15  1  0  0  0  0
 15 11  1  0  0  0  0
 16 13  2  0  0  0  0
 18 12  1  0  0  0  0
 19 20  1  0  0  0  0
 22 24  1  0  0  0  0
 23 28  2  0  0  0  0
 24 21  2  0  0  0  0
 25 22  2  0  0  0  0
 25 23  1  0  0  0  0
 26 22  1  0  0  0  0
 27 23  1  0  0  0  0
 28 21  1  0  0  0  0
M  END
>  <MODEL>
1

>  <REMARK>
 VINA RESULT:      -7.6      0.000      0.000
  Name = 
  3 active torsions:
  status: ('A' for Active; 'I' for Inactive)
    1  A    between atoms: C_1  and  C_27
    2  A    between atoms: C_2  and  C_3
    3  A    between atoms: C_10  and  C_13
                            x       y       z     vdW  Elec       q    Type
                         _______ _______ _______ _____ _____    ______ ____

>  <TORSDO>
F 3

$$$$
=
 OpenBabel11052418153D

 28 31  0  0  1  0  0  0  0  0999 V2000
  189.6050  178.0390  146.9380 O   0  0  0  0  0  1  0  0  0  0  0  0
  188.0880  177.1090  144.4230 C   0  0  2  0  0  3  0  0  0  0  0  0
  187.0220  178.4390  146.1360 O   0  0  0  0  0  1  0  0  0  0  0  0
  189.5300  175.6780  146.4950 C   0  0  0  0  0  0  0  0  0  0  0  0
  188.6450  175.7160  144.1250 C   0  0  0  0  0  2  0  0  0  0  0  0
  188.9960  174.4580  147.2120 C   0  0  0  0  0  2  0  0  0  0  0  0
  188.7480  176.9380  146.8700 C   0  0  2  0  0  3  0  0  0  0  0  0
  190.3540  175.0270  147.5850 C   0  0  0  0  0  2  0  0  0  0  0  0
  187.6050  177.1950  145.8790 C   0  0  2  0  0  3  0  0  0  0  0  0
  189.8490  175.3720  145.0170 C   0  0  1  0  0  3  0  0  0  0  0  0
  191.2040  175.9170  144.4770 C   0  0  1  0  0  0  0  0  0  0  0  0
  192.4050  175.1480  145.0800 C   0  0  2  0  0  3  0  0  0  0  0  0
  193.7060  175.9640  143.1540 C   0  0  0  0  0  0  0  0  0  0  0  0
  192.5310  176.1300  142.4180 O   0  0  0  0  0  0  0  0  0  0  0  0
  191.2630  175.7430  142.9480 C   0  0  0  0  0  2  0  0  0  0  0  0
  194.8200  176.2170  142.6280 O   0  0  0  0  0  0  0  0  0  0  0  0
  191.3490  177.4010  144.8000 C   0  0  0  0  0  1  0  0  0  0  0  0
  193.6370  175.5800  144.4940 O   0  0  0  0  0  0  0  0  0  0  0  0
  192.2680  173.6350  144.9130 C   0  0  0  0  0  2  0  0  0  0  0  0
  193.5390  172.9400  145.3560 C   0  0  0  0  0  1  0  0  0  0  0  0
  185.6530  177.2440  143.7830 C   0  0  0  0  0  3  0  0  0  0  0  0
  187.3180  177.9720  142.1720 C   0  0  0  0  0  0  0  0  0  0  0  0
  184.9590  178.0720  141.6200 C   0  0  0  0  0  0  0  0  0  0  0  0
  186.9990  177.4510  143.4420 C   0  0  0  0  0  0  0  0  0  0  0  0
  186.2950  178.2790  141.2700 C   0  0  0  0  0  3  0  0  0  0  0  0
  188.7310  178.2070  141.7580 C   0  0  0  0  0  1  0  0  0  0  0  0
  183.6860  178.4610  140.4830 Cl  0  0  0  0  0  0  0  0  0  0  0  0
  184.6380  177.5540  142.8760 C   0  0  0  0  0  3  0  0  0  0  0  0
  2 24  1  6  0  0  0
  2  9  1  0  0  0  0
  4  7  1  0  0  0  0
  4  6  1  0  0  0  0
  4  8  1  0  0  0  0
  5  2  1  0  0  0  0
  6  8  1  0  0  0  0
  7  1  1  6  0  0  0
  9  3  1  1  0  0  0
  9  7  1  0  0  0  0
 10  5  1  6  0  0  0
 10  4  1  0  0  0  0
 11 17  1  1  0  0  0
 11 10  1  0  0  0  0
 11 12  1  0  0  0  0
 12 19  1  6  0  0  0
 13 18  1  0  0  0  0
 14 15  1  0  0  0  0
 14 13  1  0  0  0  0
 15 11  1  0  0  0  0
 16 13  2  0  0  0  0
 18 12  1  0  0  0  0
 19 20  1  0  0  0  0
 22 24  2  0  0  0  0
 23 28  1  0  0  0  0
 24 21  1  0  0  0  0
 25 23  2  0  0  0  0
 25 22  1  0  0  0  0
 26 22  1  0  0  0  0
 27 23  1  0  0  0  0
 28 21  2  0  0  0  0
M  END
>  <MODEL>
2

>  <REMARK>
 VINA RESULT:      -7.5      3.442      6.682
  Name = 
  3 active torsions:
  status: ('A' for Active; 'I' for Inactive)
    1  A    between atoms: C_1  and  C_27
    2  A    between atoms: C_2  and  C_3
    3  A    between atoms: C_10  and  C_13
                            x       y       z     vdW  Elec       q    Type
                         _______ _______ _______ _____ _____    ______ ____

>  <TORSDO>
F 3

$$$$
=
 OpenBabel11052418153D

 28 31  0  0  1  0  0  0  0  0999 V2000
  192.0900  176.7320  143.1770 O   0  0  0  0  0  1  0  0  0  0  0  0
  189.5350  175.9110  144.6890 C   0  0  2  0  0  3  0  0  0  0  0  0
  190.3530  178.1850  144.7080 O   0  0  0  0  0  1  0  0  0  0  0  0
  192.2780  174.9720  144.8010 C   0  0  0  0  0  0  0  0  0  0  0  0
  189.8250  174.5020  145.2090 C   0  0  0  0  0  2  0  0  0  0  0  0
  193.0510  174.7600  146.0850 C   0  0  0  0  0  2  0  0  0  0  0  0
  192.0120  176.4550  144.5440 C   0  0  2  0  0  3  0  0  0  0  0  0
  193.7180  174.5080  144.7440 C   0  0  0  0  0  2  0  0  0  0  0  0
  190.6500  176.8800  145.1100 C   0  0  2  0  0  3  0  0  0  0  0  0
  191.1410  173.9390  144.6470 C   0  0  1  0  0  3  0  0  0  0  0  0
  190.9930  173.2810  143.2450 C   0  0  1  0  0  0  0  0  0  0  0  0
  192.0640  172.1850  143.0160 C   0  0  2  0  0  3  0  0  0  0  0  0
  190.5630  171.2860  141.2830 C   0  0  0  0  0  0  0  0  0  0  0  0
  189.4700  171.9010  141.8960 O   0  0  0  0  0  0  0  0  0  0  0  0
  189.6120  172.6110  143.1270 C   0  0  0  0  0  2  0  0  0  0  0  0
  190.3950  170.5820  140.2550 O   0  0  0  0  0  0  0  0  0  0  0  0
  191.1150  174.3330  142.1460 C   0  0  0  0  0  1  0  0  0  0  0  0
  191.8500  171.5110  141.7740 O   0  0  0  0  0  0  0  0  0  0  0  0
  192.0940  171.1600  144.1500 C   0  0  0  0  0  2  0  0  0  0  0  0
  193.5260  170.8340  144.5250 C   0  0  0  0  0  1  0  0  0  0  0  0
  187.9050  176.4570  146.5330 C   0  0  0  0  0  3  0  0  0  0  0  0
  187.1730  176.6950  144.2300 C   0  0  0  0  0  0  0  0  0  0  0  0
  185.6550  177.2010  146.0520 C   0  0  0  0  0  0  0  0  0  0  0  0
  188.1800  176.3660  145.1590 C   0  0  0  0  0  0  0  0  0  0  0  0
  185.9170  177.1110  144.6830 C   0  0  0  0  0  3  0  0  0  0  0  0
  187.4110  176.6120  142.7600 C   0  0  0  0  0  1  0  0  0  0  0  0
  184.0790  177.7230  146.6080 Cl  0  0  0  0  0  0  0  0  0  0  0  0
  186.6480  176.8730  146.9770 C   0  0  0  0  0  3  0  0  0  0  0  0
  2  9  1  0  0  0  0
  2 24  1  1  0  0  0
  2  5  1  0  0  0  0
  4  6  1  0  0  0  0
  7  1  1  6  0  0  0
  7  4  1  0  0  0  0
  7  9  1  0  0  0  0
  8  4  1  0  0  0  0
  8  6  1  0  0  0  0
  9  3  1  6  0  0  0
 10  4  1  0  0  0  0
 10  5  1  6  0  0  0
 11 17  1  6  0  0  0
 11 10  1  0  0  0  0
 12 11  1  0  0  0  0
 12 19  1  1  0  0  0
 13 18  1  0  0  0  0
 13 14  1  0  0  0  0
 14 15  1  0  0  0  0
 15 11  1  0  0  0  0
 16 13  2  0  0  0  0
 18 12  1  0  0  0  0
 19 20  1  0  0  0  0
 21 28  1  0  0  0  0
 22 25  2  0  0  0  0
 22 24  1  0  0  0  0
 23 27  1  0  0  0  0
 23 28  2  0  0  0  0
 24 21  2  0  0  0  0
 25 23  1  0  0  0  0
 26 22  1  0  0  0  0
M  END
>  <MODEL>
3

>  <REMARK>
 VINA RESULT:      -7.3      3.943      6.831
  Name = 
  3 active torsions:
  status: ('A' for Active; 'I' for Inactive)
    1  A    between atoms: C_1  and  C_27
    2  A    between atoms: C_2  and  C_3
    3  A    between atoms: C_10  and  C_13
                            x       y       z     vdW  Elec       q    Type
                         _______ _______ _______ _____ _____    ______ ____

>  <TORSDO>
F 3

$$$$
=
 OpenBabel11052418153D

 28 31  0  0  1  0  0  0  0  0999 V2000
  189.3820  172.7790  143.8820 O   0  0  0  0  0  1  0  0  0  0  0  0
  188.5060  175.5440  142.8420 C   0  0  2  0  0  3  0  0  0  0  0  0
  187.6190  173.4940  141.9190 O   0  0  0  0  0  1  0  0  0  0  0  0
  191.0970  174.2600  143.0820 C   0  0  0  0  0  0  0  0  0  0  0  0
  189.7680  176.4060  142.9180 C   0  0  0  0  0  2  0  0  0  0  0  0
  192.1320  174.2230  141.9790 C   0  0  0  0  0  2  0  0  0  0  0  0
  189.8760  173.4070  142.7360 C   0  0  2  0  0  3  0  0  0  0  0  0
  192.4070  173.5330  143.3040 C   0  0  0  0  0  2  0  0  0  0  0  0
  188.7860  174.2500  142.0610 C   0  0  2  0  0  3  0  0  0  0  0  0
  190.9170  175.6860  143.6420 C   0  0  1  0  0  3  0  0  0  0  0  0
  190.8580  175.8160  145.1920 C   0  0  1  0  0  0  0  0  0  0  0  0
  192.2740  175.7680  145.8200 C   0  0  2  0  0  3  0  0  0  0  0  0
  191.2810  176.8750  147.7830 C   0  0  0  0  0  0  0  0  0  0  0  0
  190.2480  177.3780  146.9910 O   0  0  0  0  0  0  0  0  0  0  0  0
  190.2260  177.1650  145.5790 C   0  0  0  0  0  2  0  0  0  0  0  0
  191.3320  177.1600  149.0070 O   0  0  0  0  0  0  0  0  0  0  0  0
  190.0110  174.6970  145.7900 C   0  0  0  0  0  1  0  0  0  0  0  0
  192.2180  176.0010  147.2290 O   0  0  0  0  0  0  0  0  0  0  0  0
  193.2260  176.7770  145.1770 C   0  0  0  0  0  2  0  0  0  0  0  0
  194.5330  176.8260  145.9430 C   0  0  0  0  0  1  0  0  0  0  0  0
  187.3740  176.6360  140.8720 C   0  0  0  0  0  3  0  0  0  0  0  0
  186.3130  176.7890  143.0510 C   0  0  0  0  0  0  0  0  0  0  0  0
  185.2790  177.8200  141.1150 C   0  0  0  0  0  0  0  0  0  0  0  0
  187.3750  176.3350  142.2430 C   0  0  0  0  0  0  0  0  0  0  0  0
  185.2720  177.5280  142.4810 C   0  0  0  0  0  3  0  0  0  0  0  0
  186.2680  176.5010  144.5130 C   0  0  0  0  0  1  0  0  0  0  0  0
  183.9710  178.7450  140.4120 Cl  0  0  0  0  0  0  0  0  0  0  0  0
  186.3300  177.3750  140.3100 C   0  0  0  0  0  3  0  0  0  0  0  0
  2 24  1  6  0  0  0
  2  5  1  0  0  0  0
  4  8  1  0  0  0  0
  4 10  1  0  0  0  0
  6  4  1  0  0  0  0
  6  8  1  0  0  0  0
  7  4  1  0  0  0  0
  7  1  1  1  0  0  0
  9  3  1  1  0  0  0
  9  7  1  0  0  0  0
  9  2  1  0  0  0  0
 10  5  1  6  0  0  0
 10 11  1  0  0  0  0
 11 15  1  0  0  0  0
 11 17  1  1  0  0  0
 11 12  1  0  0  0  0
 12 19  1  6  0  0  0
 12 18  1  0  0  0  0
 13 16  2  0  0  0  0
 14 13  1  0  0  0  0
 15 14  1  0  0  0  0
 18 13  1  0  0  0  0
 19 20  1  0  0  0  0
 21 24  1  0  0  0  0
 22 26  1  0  0  0  0
 23 25  2  0  0  0  0
 24 22  2  0  0  0  0
 25 22  1  0  0  0  0
 27 23  1  0  0  0  0
 28 21  2  0  0  0  0
 28 23  1  0  0  0  0
M  END
>  <MODEL>
4

>  <REMARK>
 VINA RESULT:      -7.3      3.361      7.022
  Name = 
  3 active torsions:
  status: ('A' for Active; 'I' for Inactive)
    1  A    between atoms: C_1  and  C_27
    2  A    between atoms: C_2  and  C_3
    3  A    between atoms: C_10  and  C_13
                            x       y       z     vdW  Elec       q    Type
                         _______ _______ _______ _____ _____    ______ ____

>  <TORSDO>
F 3

$$$$
=
 OpenBabel11052418153D

 28 31  0  0  1  0  0  0  0  0999 V2000
  192.5330  176.7920  142.7940 O   0  0  0  0  0  1  0  0  0  0  0  0
  190.2470  176.0890  144.7350 C   0  0  2  0  0  3  0  0  0  0  0  0
  190.6040  178.3470  143.9500 O   0  0  0  0  0  1  0  0  0  0  0  0
  193.1220  175.7270  144.8660 C   0  0  0  0  0  0  0  0  0  0  0  0
  190.8270  175.0030  145.6430 C   0  0  0  0  0  2  0  0  0  0  0  0
  193.9700  176.0880  146.0670 C   0  0  0  0  0  2  0  0  0  0  0  0
  192.5620  176.9730  144.1790 C   0  0  2  0  0  3  0  0  0  0  0  0
  194.6230  175.5270  144.8150 C   0  0  0  0  0  2  0  0  0  0  0  0
  191.1660  177.3200  144.7140 C   0  0  2  0  0  3  0  0  0  0  0  0
  192.2050  174.5230  145.1610 C   0  0  1  0  0  3  0  0  0  0  0  0
  192.1360  173.4230  144.0620 C   0  0  1  0  0  0  0  0  0  0  0  0
  193.4370  172.5840  144.0150 C   0  0  2  0  0  3  0  0  0  0  0  0
  192.1060  170.8500  142.8820 C   0  0  0  0  0  0  0  0  0  0  0  0
  190.9360  171.3690  143.4400 O   0  0  0  0  0  0  0  0  0  0  0  0
  190.9740  172.4580  144.3620 C   0  0  0  0  0  2  0  0  0  0  0  0
  192.0560  169.8270  142.1520 O   0  0  0  0  0  0  0  0  0  0  0  0
  191.9000  174.0520  142.6920 C   0  0  0  0  0  1  0  0  0  0  0  0
  193.3210  171.5080  143.0810 O   0  0  0  0  0  0  0  0  0  0  0  0
  193.8160  172.0260  145.3870 C   0  0  0  0  0  2  0  0  0  0  0  0
  195.3230  171.9460  145.5240 C   0  0  0  0  0  1  0  0  0  0  0  0
  188.5870  176.7640  146.5090 C   0  0  0  0  0  3  0  0  0  0  0  0
  187.7860  176.4170  144.2430 C   0  0  0  0  0  0  0  0  0  0  0  0
  186.2420  177.0640  145.9970 C   0  0  0  0  0  0  0  0  0  0  0  0
  188.8480  176.4330  145.1690 C   0  0  0  0  0  0  0  0  0  0  0  0
  186.4910  176.7330  144.6630 C   0  0  0  0  0  3  0  0  0  0  0  0
  188.0070  176.0680  142.8100 C   0  0  0  0  0  1  0  0  0  0  0  0
  184.6170  177.4590  146.5120 Cl  0  0  0  0  0  0  0  0  0  0  0  0
  187.2900  177.0790  146.9200 C   0  0  0  0  0  3  0  0  0  0  0  0
  2 24  1  1  0  0  0
  2  5  1  0  0  0  0
  4 10  1  0  0  0  0
  4  6  1  0  0  0  0
  7  1  1  6  0  0  0
  7  9  1  0  0  0  0
  7  4  1  0  0  0  0
  8  4  1  0  0  0  0
  8  6  1  0  0  0  0
  9  3  1  6  0  0  0
  9  2  1  0  0  0  0
 10  5  1  6  0  0  0
 11 17  1  6  0  0  0
 11 15  1  0  0  0  0
 11 10  1  0  0  0  0
 12 11  1  0  0  0  0
 12 19  1  1  0  0  0
 13 18  1  0  0  0  0
 13 14  1  0  0  0  0
 14 15  1  0  0  0  0
 16 13  2  0  0  0  0
 18 12  1  0  0  0  0
 19 20  1  0  0  0  0
 21 28  1  0  0  0  0
 22 25  2  0  0  0  0
 22 24  1  0  0  0  0
 23 27  1  0  0  0  0
 23 28  2  0  0  0  0
 24 21  2  0  0  0  0
 25 23  1  0  0  0  0
 26 22  1  0  0  0  0
M  END
>  <MODEL>
5

>  <REMARK>
 VINA RESULT:      -7.0      3.727      7.116
  Name = 
  3 active torsions:
  status: ('A' for Active; 'I' for Inactive)
    1  A    between atoms: C_1  and  C_27
    2  A    between atoms: C_2  and  C_3
    3  A    between atoms: C_10  and  C_13
                            x       y       z     vdW  Elec       q    Type
                         _______ _______ _______ _____ _____    ______ ____

>  <TORSDO>
F 3

$$$$
=
 OpenBabel11052418153D

 28 31  0  0  1  0  0  0  0  0999 V2000
  192.3990  176.2080  142.9110 O   0  0  0  0  0  1  0  0  0  0  0  0
  189.7100  175.7340  144.3360 C   0  0  2  0  0  3  0  0  0  0  0  0
  191.1470  177.5910  144.9090 O   0  0  0  0  0  1  0  0  0  0  0  0
  192.0660  174.0800  143.9760 C   0  0  0  0  0  0  0  0  0  0  0  0
  189.5800  174.2130  144.4290 C   0  0  0  0  0  2  0  0  0  0  0  0
  192.7400  173.3090  145.0900 C   0  0  0  0  0  2  0  0  0  0  0  0
  192.2390  175.5890  144.1530 C   0  0  2  0  0  3  0  0  0  0  0  0
  193.3120  173.2720  143.6840 C   0  0  0  0  0  2  0  0  0  0  0  0
  191.0550  176.1960  144.9170 C   0  0  2  0  0  3  0  0  0  0  0  0
  190.6810  173.4900  143.6360 C   0  0  1  0  0  3  0  0  0  0  0  0
  190.3560  173.3230  142.1230 C   0  0  1  0  0  0  0  0  0  0  0  0
  191.0110  172.0460  141.5400 C   0  0  2  0  0  3  0  0  0  0  0  0
  189.3370  172.1880  139.7390 C   0  0  0  0  0  0  0  0  0  0  0  0
  188.4930  172.9300  140.5670 O   0  0  0  0  0  0  0  0  0  0  0  0
  188.8340  173.1930  141.9280 C   0  0  0  0  0  2  0  0  0  0  0  0
  188.9690  171.8830  138.5750 O   0  0  0  0  0  0  0  0  0  0  0  0
  190.8420  174.5360  141.3360 C   0  0  0  0  0  1  0  0  0  0  0  0
  190.6150  171.8420  140.1810 O   0  0  0  0  0  0  0  0  0  0  0  0
  190.6770  170.7990  142.3580 C   0  0  0  0  0  2  0  0  0  0  0  0
  191.9310  169.9870  142.6130 C   0  0  0  0  0  1  0  0  0  0  0  0
  188.2080  176.0520  146.3360 C   0  0  0  0  0  3  0  0  0  0  0  0
  187.7630  177.3520  144.3340 C   0  0  0  0  0  0  0  0  0  0  0  0
  186.3570  177.6070  146.2930 C   0  0  0  0  0  0  0  0  0  0  0  0
  188.5410  176.3950  145.0160 C   0  0  0  0  0  0  0  0  0  0  0  0
  186.6770  177.9530  144.9780 C   0  0  0  0  0  3  0  0  0  0  0  0
  188.0700  177.7480  142.9300 C   0  0  0  0  0  1  0  0  0  0  0  0
  184.9950  178.3660  147.0890 Cl  0  0  0  0  0  0  0  0  0  0  0  0
  187.1220  176.6570  146.9720 C   0  0  0  0  0  3  0  0  0  0  0  0
  2  5  1  0  0  0  0
  2  9  1  0  0  0  0
  2 24  1  1  0  0  0
  4  7  1  0  0  0  0
  4  6  1  0  0  0  0
  7  1  1  6  0  0  0
  7  9  1  0  0  0  0
  8  4  1  0  0  0  0
  8  6  1  0  0  0  0
  9  3  1  6  0  0  0
 10  4  1  0  0  0  0
 10  5  1  6  0  0  0
 11 17  1  6  0  0  0
 11 10  1  0  0  0  0
 12 11  1  0  0  0  0
 12 19  1  1  0  0  0
 13 18  1  0  0  0  0
 13 14  1  0  0  0  0
 14 15  1  0  0  0  0
 15 11  1  0  0  0  0
 16 13  2  0  0  0  0
 18 12  1  0  0  0  0
 19 20  1  0  0  0  0
 21 28  1  0  0  0  0
 22 25  2  0  0  0  0
 22 24  1  0  0  0  0
 23 28  2  0  0  0  0
 23 27  1  0  0  0  0
 24 21  2  0  0  0  0
 25 23  1  0  0  0  0
 26 22  1  0  0  0  0
M  END
>  <MODEL>
6

>  <REMARK>
 VINA RESULT:      -6.8      3.967      6.496
  Name = 
  3 active torsions:
  status: ('A' for Active; 'I' for Inactive)
    1  A    between atoms: C_1  and  C_27
    2  A    between atoms: C_2  and  C_3
    3  A    between atoms: C_10  and  C_13
                            x       y       z     vdW  Elec       q    Type
                         _______ _______ _______ _____ _____    ______ ____

>  <TORSDO>
F 3

$$$$
=
 OpenBabel11052418153D

 28 31  0  0  1  0  0  0  0  0999 V2000
  191.9270  176.1850  142.5650 O   0  0  0  0  0  1  0  0  0  0  0  0
  191.9230  173.5430  144.1490 C   0  0  2  0  0  3  0  0  0  0  0  0
  192.7980  173.6800  141.9010 O   0  0  0  0  0  1  0  0  0  0  0  0
  189.8160  175.3900  143.3930 C   0  0  0  0  0  0  0  0  0  0  0  0
  190.6270  173.5780  144.9620 C   0  0  0  0  0  2  0  0  0  0  0  0
  188.5000  174.9690  142.7770 C   0  0  0  0  0  2  0  0  0  0  0  0
  190.9840  175.1620  142.4320 C   0  0  2  0  0  3  0  0  0  0  0  0
  188.7980  176.4410  143.0060 C   0  0  0  0  0  2  0  0  0  0  0  0
  191.6300  173.7900  142.6610 C   0  0  2  0  0  3  0  0  0  0  0  0
  189.9220  174.9410  144.8650 C   0  0  1  0  0  3  0  0  0  0  0  0
  190.4620  175.9990  145.8720 C   0  0  1  0  0  0  0  0  0  0  0  0
  189.3310  176.9260  146.3820 C   0  0  2  0  0  3  0  0  0  0  0  0
  190.8020  177.4250  148.2930 C   0  0  0  0  0  0  0  0  0  0  0  0
  191.4810  176.2210  148.0980 O   0  0  0  0  0  0  0  0  0  0  0  0
  191.0680  175.2910  147.0970 C   0  0  0  0  0  2  0  0  0  0  0  0
  191.1210  178.1810  149.2460 O   0  0  0  0  0  0  0  0  0  0  0  0
  191.5470  176.8500  145.2190 C   0  0  0  0  0  1  0  0  0  0  0  0
  189.8150  177.8190  147.3880 O   0  0  0  0  0  0  0  0  0  0  0  0
  188.1420  176.1390  146.9330 C   0  0  0  0  0  2  0  0  0  0  0  0
  186.8510  176.6390  146.3170 C   0  0  0  0  0  1  0  0  0  0  0  0
  192.0670  171.0340  143.9470 C   0  0  0  0  0  3  0  0  0  0  0  0
  193.8880  172.2170  145.0350 C   0  0  0  0  0  0  0  0  0  0  0  0
  193.9620  169.8040  144.8100 C   0  0  0  0  0  0  0  0  0  0  0  0
  192.6410  172.2410  144.3780 C   0  0  0  0  0  0  0  0  0  0  0  0
  194.5400  170.9980  145.2450 C   0  0  0  0  0  3  0  0  0  0  0  0
  194.5390  173.4690  145.5170 C   0  0  0  0  0  1  0  0  0  0  0  0
  194.7880  168.2840  145.0780 Cl  0  0  0  0  0  0  0  0  0  0  0  0
  192.7260  169.8210  144.1610 C   0  0  0  0  0  3  0  0  0  0  0  0
  2 24  1  6  0  0  0
  2  5  1  0  0  0  0
  4 10  1  0  0  0  0
  6  8  1  0  0  0  0
  6  4  1  0  0  0  0
  7  1  1  1  0  0  0
  7  9  1  0  0  0  0
  7  4  1  0  0  0  0
  8  4  1  0  0  0  0
  9  3  1  6  0  0  0
  9  2  1  0  0  0  0
 10  5  1  6  0  0  0
 10 11  1  0  0  0  0
 11 17  1  6  0  0  0
 11 12  1  0  0  0  0
 11 15  1  0  0  0  0
 12 19  1  1  0  0  0
 12 18  1  0  0  0  0
 13 16  2  0  0  0  0
 14 13  1  0  0  0  0
 15 14  1  0  0  0  0
 18 13  1  0  0  0  0
 20 19  1  0  0  0  0
 21 28  2  0  0  0  0
 21 24  1  0  0  0  0
 22 25  1  0  0  0  0
 22 26  1  0  0  0  0
 23 27  1  0  0  0  0
 23 25  2  0  0  0  0
 24 22  2  0  0  0  0
 28 23  1  0  0  0  0
M  END
>  <MODEL>
7

>  <REMARK>
 VINA RESULT:      -6.5      3.623      5.536
  Name = 
  3 active torsions:
  status: ('A' for Active; 'I' for Inactive)
    1  A    between atoms: C_1  and  C_27
    2  A    between atoms: C_2  and  C_3
    3  A    between atoms: C_10  and  C_13
                            x       y       z     vdW  Elec       q    Type
                         _______ _______ _______ _____ _____    ______ ____

>  <TORSDO>
F 3

$$$$
=
 OpenBabel11052418153D

 28 31  0  0  1  0  0  0  0  0999 V2000
  188.6280  178.2780  142.3690 O   0  0  0  0  0  1  0  0  0  0  0  0
  189.0490  175.2430  142.0510 C   0  0  2  0  0  3  0  0  0  0  0  0
  187.8160  176.5360  140.4240 O   0  0  0  0  0  1  0  0  0  0  0  0
  187.8770  176.8590  144.1570 C   0  0  0  0  0  0  0  0  0  0  0  0
  188.9860  174.6890  143.4760 C   0  0  0  0  0  2  0  0  0  0  0  0
  186.5490  176.5590  144.8170 C   0  0  0  0  0  2  0  0  0  0  0  0
  187.6960  177.2910  142.7010 C   0  0  2  0  0  3  0  0  0  0  0  0
  187.3420  177.7890  145.2250 C   0  0  0  0  0  2  0  0  0  0  0  0
  187.8050  176.0930  141.7500 C   0  0  2  0  0  3  0  0  0  0  0  0
  188.9440  175.8090  144.5290 C   0  0  1  0  0  3  0  0  0  0  0  0
  190.3480  176.3590  144.9140 C   0  0  1  0  0  0  0  0  0  0  0  0
  190.5760  176.3130  146.4450 C   0  0  2  0  0  3  0  0  0  0  0  0
  192.9850  176.4160  145.9430 C   0  0  0  0  0  0  0  0  0  0  0  0
  192.7510  175.9010  144.6660 O   0  0  0  0  0  0  0  0  0  0  0  0
  191.4440  175.5000  144.2570 C   0  0  0  0  0  2  0  0  0  0  0  0
  194.1600  176.6660  146.3150 O   0  0  0  0  0  0  0  0  0  0  0  0
  190.5080  177.7980  144.4300 C   0  0  0  0  0  1  0  0  0  0  0  0
  191.9070  176.7140  146.7780 O   0  0  0  0  0  0  0  0  0  0  0  0
  190.3040  174.9260  147.0290 C   0  0  0  0  0  2  0  0  0  0  0  0
  188.9180  174.8750  147.6380 C   0  0  0  0  0  1  0  0  0  0  0  0
  188.0970  173.4280  140.5830 C   0  0  0  0  0  3  0  0  0  0  0  0
  190.5040  173.7370  140.6290 C   0  0  0  0  0  0  0  0  0  0  0  0
  189.5230  172.0090  139.2410 C   0  0  0  0  0  0  0  0  0  0  0  0
  189.2200  174.1170  141.0670 C   0  0  0  0  0  0  0  0  0  0  0  0
  190.6470  172.6860  139.7190 C   0  0  0  0  0  3  0  0  0  0  0  0
  191.7300  174.4330  141.1160 C   0  0  0  0  0  1  0  0  0  0  0  0
  189.7130  170.6940  138.1020 Cl  0  0  0  0  0  0  0  0  0  0  0  0
  188.2480  172.3790  139.6730 C   0  0  0  0  0  3  0  0  0  0  0  0
  2 24  1  6  0  0  0
  2  5  1  0  0  0  0
  4 10  1  0  0  0  0
  4  6  1  0  0  0  0
  4  8  1  0  0  0  0
  6  8  1  0  0  0  0
  7  1  1  6  0  0  0
  7  4  1  0  0  0  0
  9  3  1  6  0  0  0
  9  2  1  0  0  0  0
  9  7  1  0  0  0  0
 10  5  1  6  0  0  0
 10 11  1  0  0  0  0
 11 17  1  6  0  0  0
 11 12  1  0  0  0  0
 12 18  1  0  0  0  0
 12 19  1  6  0  0  0
 13 16  2  0  0  0  0
 13 18  1  0  0  0  0
 14 13  1  0  0  0  0
 15 14  1  0  0  0  0
 15 11  1  0  0  0  0
 19 20  1  0  0  0  0
 21 24  1  0  0  0  0
 22 24  2  0  0  0  0
 22 26  1  0  0  0  0
 23 28  1  0  0  0  0
 23 25  2  0  0  0  0
 25 22  1  0  0  0  0
 27 23  1  0  0  0  0
 28 21  2  0  0  0  0
M  END
>  <MODEL>
8

>  <REMARK>
 VINA RESULT:      -6.4      3.040      5.992
  Name = 
  3 active torsions:
  status: ('A' for Active; 'I' for Inactive)
    1  A    between atoms: C_1  and  C_27
    2  A    between atoms: C_2  and  C_3
    3  A    between atoms: C_10  and  C_13
                            x       y       z     vdW  Elec       q    Type
                         _______ _______ _______ _____ _____    ______ ____

>  <TORSDO>
F 3

$$$$
=
 OpenBabel11052418153D

 28 31  0  0  1  0  0  0  0  0999 V2000
  189.2800  174.5050  146.6380 O   0  0  0  0  0  1  0  0  0  0  0  0
  191.9440  175.0270  145.1810 C   0  0  2  0  0  3  0  0  0  0  0  0
  191.8200  174.8500  147.5880 O   0  0  0  0  0  1  0  0  0  0  0  0
  189.4020  176.4250  145.1980 C   0  0  0  0  0  0  0  0  0  0  0  0
  191.5730  175.9250  143.9990 C   0  0  0  0  0  2  0  0  0  0  0  0
  189.2570  177.9210  145.3730 C   0  0  0  0  0  2  0  0  0  0  0  0
  189.8880  175.7540  146.4830 C   0  0  2  0  0  3  0  0  0  0  0  0
  188.0220  177.0500  145.2240 C   0  0  0  0  0  2  0  0  0  0  0  0
  191.4160  175.6230  146.4950 C   0  0  2  0  0  3  0  0  0  0  0  0
  190.0500  176.0740  143.8430 C   0  0  1  0  0  3  0  0  0  0  0  0
  189.3870  174.9170  143.0410 C   0  0  1  0  0  0  0  0  0  0  0  0
  188.0450  175.3610  142.4090 C   0  0  2  0  0  3  0  0  0  0  0  0
  188.3260  173.4800  140.8450 C   0  0  0  0  0  0  0  0  0  0  0  0
  189.7050  173.4910  141.0630 O   0  0  0  0  0  0  0  0  0  0  0  0
  190.3160  174.4780  141.8940 C   0  0  0  0  0  2  0  0  0  0  0  0
  187.8240  172.6640  140.0300 O   0  0  0  0  0  0  0  0  0  0  0  0
  189.1370  173.7150  143.9470 C   0  0  0  0  0  1  0  0  0  0  0  0
  187.5000  174.3290  141.5820 O   0  0  0  0  0  0  0  0  0  0  0  0
  188.1880  176.6440  141.5880 C   0  0  0  0  0  2  0  0  0  0  0  0
  187.0220  177.5730  141.8600 C   0  0  0  0  0  1  0  0  0  0  0  0
  194.3040  175.9000  145.3230 C   0  0  0  0  0  3  0  0  0  0  0  0
  193.9650  173.5040  145.1280 C   0  0  0  0  0  0  0  0  0  0  0  0
  196.2090  174.4120  145.2660 C   0  0  0  0  0  0  0  0  0  0  0  0
  193.4320  174.8060  145.2150 C   0  0  0  0  0  0  0  0  0  0  0  0
  195.3500  173.3160  145.1550 C   0  0  0  0  0  3  0  0  0  0  0  0
  193.0830  172.3080  145.0070 C   0  0  0  0  0  1  0  0  0  0  0  0
  197.9410  174.1640  145.2990 Cl  0  0  0  0  0  0  0  0  0  0  0  0
  195.6870  175.7040  145.3490 C   0  0  0  0  0  3  0  0  0  0  0  0
  2 24  1  1  0  0  0
  2  9  1  0  0  0  0
  4  8  1  0  0  0  0
  4  6  1  0  0  0  0
  4  7  1  0  0  0  0
  5  2  1  0  0  0  0
  7  9  1  0  0  0  0
  7  1  1  6  0  0  0
  8  6  1  0  0  0  0
  9  3  1  1  0  0  0
 10  5  1  1  0  0  0
 10  4  1  0  0  0  0
 11 10  1  0  0  0  0
 11 17  1  1  0  0  0
 12 19  1  6  0  0  0
 12 11  1  0  0  0  0
 13 14  1  0  0  0  0
 13 18  1  0  0  0  0
 14 15  1  0  0  0  0
 15 11  1  0  0  0  0
 16 13  2  0  0  0  0
 18 12  1  0  0  0  0
 19 20  1  0  0  0  0
 21 28  1  0  0  0  0
 22 25  2  0  0  0  0
 22 24  1  0  0  0  0
 23 27  1  0  0  0  0
 23 28  2  0  0  0  0
 24 21  2  0  0  0  0
 25 23  1  0  0  0  0
 26 22  1  0  0  0  0
M  END
>  <MODEL>
9

>  <REMARK>
 VINA RESULT:      -6.2      2.391      2.857
  Name = 
  3 active torsions:
  status: ('A' for Active; 'I' for Inactive)
    1  A    between atoms: C_1  and  C_27
    2  A    between atoms: C_2  and  C_3
    3  A    between atoms: C_10  and  C_13
                            x       y       z     vdW  Elec       q    Type
                         _______ _______ _______ _____ _____    ______ ____

>  <TORSDO>
F 3

$$$$
