=
 OpenBabel11052418573D

 34 38  0  0  1  0  0  0  0  0999 V2000
  189.0810  177.0520  143.2030 N   0  0  0  0  0  0  0  0  0  0  0  0
  187.2130  176.8220  141.6830 C   0  0  2  0  0  3  0  0  0  0  0  0
  187.9780  177.8750  143.6960 C   0  0  1  0  0  3  0  0  0  0  0  0
  186.7190  177.4430  142.9750 C   0  0  1  0  0  3  0  0  0  0  0  0
  188.6000  176.3100  142.0350 C   0  0  2  0  0  3  0  0  0  0  0  0
  187.3360  177.7810  140.6730 O   0  0  0  0  0  1  0  0  0  0  0  0
  188.4690  173.3890  140.2380 C   0  0  2  0  0  3  0  0  0  0  0  0
  189.8980  172.9370  142.1560 C   0  0  2  0  0  3  0  0  0  0  0  0
  188.5640  174.8110  142.3440 C   0  0  2  0  0  3  0  0  0  0  0  0
  190.6930  172.0960  139.8910 C   0  0  0  0  0  2  0  0  0  0  0  0
  191.0150  172.2370  141.3950 C   0  0  0  0  0  2  0  0  0  0  0  0
  189.3460  174.5050  143.6220 C   0  0  0  0  0  2  0  0  0  0  0  0
  189.3270  174.0310  141.3190 C   0  0  2  0  0  3  0  0  0  0  0  0
  189.2070  172.2990  139.5040 C   0  0  2  0  0  3  0  0  0  0  0  0
  189.0540  173.5970  138.9760 O   0  0  0  0  0  0  0  0  0  0  0  0
  190.3160  173.5130  143.3580 O   0  0  0  0  0  0  0  0  0  0  0  0
  185.7550  178.6110  142.7730 C   0  0  0  0  0  2  0  0  0  0  0  0
  184.3180  178.1690  142.9820 C   0  0  0  0  0  2  0  0  0  0  0  0
  183.6960  178.9960  143.9180 O   0  0  0  0  0  1  0  0  0  0  0  0
  190.1210  177.9560  142.7330 C   0  0  0  0  0  2  0  0  0  0  0  0
  191.1390  178.1830  143.8340 C   0  0  0  0  0  2  0  0  0  0  0  0
  192.7030  176.7320  145.0080 C   0  0  0  0  0  3  0  0  0  0  0  0
  192.0810  177.0360  143.8770 C   0  0  0  0  0  3  0  0  0  0  0  0
  195.5250  176.8230  144.4140 O   0  0  0  0  0  0  0  0  0  0  0  0
  193.6170  175.6350  145.0880 N   0  0  0  0  0  0  0  0  0  0  0  0
  194.9920  175.7430  144.7840 C   0  0  0  0  0  0  0  0  0  0  0  0
  197.1480  174.4270  144.6660 C   0  0  0  0  0  1  0  0  0  0  0  0
  194.9160  173.4150  145.3640 C   0  0  0  0  0  2  0  0  0  0  0  0
  193.1760  173.9920  145.5760 S   0  0  0  0  0  0  0  0  0  0  0  0
  195.7250  174.5420  144.9280 N   0  0  0  0  0  0  0  0  0  0  0  0
  187.8290  177.6740  145.1960 C   0  0  0  0  0  2  0  0  0  0  0  0
  186.8600  176.5450  145.4880 C   0  0  0  0  0  2  0  0  0  0  0  0
  185.9600  176.9420  146.6060 C   0  0  0  0  0  3  0  0  0  0  0  0
  184.7610  177.0540  146.4130 O   0  0  0  0  0  0  0  0  0  0  0  0
  1  3  1  0  0  0  0
  2  6  1  6  0  0  0
  2  5  1  0  0  0  0
  2  4  1  0  0  0  0
  3 31  1  1  0  0  0
  4 17  1  6  0  0  0
  4  3  1  0  0  0  0
  5  9  1  0  0  0  0
  5  1  1  1  0  0  0
  7 15  1  6  0  0  0
  7 13  1  0  0  0  0
  8 11  1  6  0  0  0
  8 16  1  0  0  0  0
  9 12  1  1  0  0  0
 10 11  1  0  0  0  0
 13  8  1  0  0  0  0
 13  9  1  0  0  0  0
 14 10  1  0  0  0  0
 14  7  1  0  0  0  0
 15 14  1  0  0  0  0
 16 12  1  0  0  0  0
 17 18  1  0  0  0  0
 18 19  1  0  0  0  0
 20  1  1  0  0  0  0
 20 21  1  0  0  0  0
 21 23  1  0  0  0  0
 22 25  1  0  0  0  0
 23 22  2  0  0  0  0
 24 26  2  0  0  0  0
 25 29  1  0  0  0  0
 26 30  1  0  0  0  0
 26 25  1  0  0  0  0
 27 30  1  0  0  0  0
 28 29  1  0  0  0  0
 30 28  1  0  0  0  0
 31 32  1  0  0  0  0
 32 33  1  0  0  0  0
 34 33  2  0  0  0  0
M  END
>  <MODEL>
1

>  <REMARK>
 VINA RESULT:      -6.7      0.000      0.000
  Name = 
  10 active torsions:
  status: ('A' for Active; 'I' for Inactive)
    1  A    between atoms: C_3  and  N_13
    2  A    between atoms: C_4  and  C_31
    3  A    between atoms: N_5  and  C_18
    4  A    between atoms: C_7  and  C_8
    5  A    between atoms: C_8  and  C_28
    6  A    between atoms: C_12  and  C_16
    7  A    between atoms: C_16  and  C_23
    8  A    between atoms: C_17  and  C_29
    9  A    between atoms: C_18  and  C_29
   10  A    between atoms: C_23  and  C_26
                            x       y       z     vdW  Elec       q    Type
                         _______ _______ _______ _____ _____    ______ ____

>  <TORSDO>
F 10

$$$$
=
 OpenBabel11052418573D

 34 38  0  0  1  0  0  0  0  0999 V2000
  188.2570  176.6060  143.3500 N   0  0  0  0  0  0  0  0  0  0  0  0
  187.9040  177.2140  145.6650 C   0  0  2  0  0  3  0  0  0  0  0  0
  187.0210  177.3810  143.4430 C   0  0  1  0  0  3  0  0  0  0  0  0
  187.0050  178.0670  144.7930 C   0  0  1  0  0  3  0  0  0  0  0  0
  188.8750  176.5860  144.6790 C   0  0  2  0  0  3  0  0  0  0  0  0
  187.1850  176.1930  146.2920 O   0  0  0  0  0  1  0  0  0  0  0  0
  191.8190  176.5520  146.4420 C   0  0  2  0  0  3  0  0  0  0  0  0
  192.4220  177.0230  144.1310 C   0  0  2  0  0  3  0  0  0  0  0  0
  190.1990  177.3540  144.6530 C   0  0  2  0  0  3  0  0  0  0  0  0
  193.8380  175.3160  145.3770 C   0  0  0  0  0  2  0  0  0  0  0  0
  193.5770  176.0370  144.0360 C   0  0  0  0  0  2  0  0  0  0  0  0
  190.5460  177.7820  143.2270 C   0  0  0  0  0  2  0  0  0  0  0  0
  191.3470  176.4580  144.9980 C   0  0  2  0  0  3  0  0  0  0  0  0
  193.2000  175.9760  146.6240 C   0  0  2  0  0  3  0  0  0  0  0  0
  192.0310  175.2620  146.9610 O   0  0  0  0  0  0  0  0  0  0  0  0
  191.8410  177.3250  142.8970 O   0  0  0  0  0  0  0  0  0  0  0  0
  185.5830  178.2200  145.3300 C   0  0  0  0  0  2  0  0  0  0  0  0
  185.5550  179.1500  146.5300 C   0  0  0  0  0  2  0  0  0  0  0  0
  184.8820  178.5400  147.5890 O   0  0  0  0  0  1  0  0  0  0  0  0
  187.8850  175.2350  143.0330 C   0  0  0  0  0  2  0  0  0  0  0  0
  189.1230  174.3590  143.0150 C   0  0  0  0  0  2  0  0  0  0  0  0
  189.3460  173.6290  140.7020 C   0  0  0  0  0  3  0  0  0  0  0  0
  189.7570  174.4320  141.6740 C   0  0  0  0  0  3  0  0  0  0  0  0
  187.9540  174.1390  138.2270 O   0  0  0  0  0  0  0  0  0  0  0  0
  189.9320  173.6700  139.3980 N   0  0  0  0  0  0  0  0  0  0  0  0
  189.1960  173.9250  138.2210 C   0  0  0  0  0  0  0  0  0  0  0  0
  189.4080  174.1620  135.7120 C   0  0  0  0  0  1  0  0  0  0  0  0
  191.3750  173.6560  137.2520 C   0  0  0  0  0  2  0  0  0  0  0  0
  191.6500  173.4120  139.0600 S   0  0  0  0  0  0  0  0  0  0  0  0
  189.9630  173.9240  137.0320 N   0  0  0  0  0  0  0  0  0  0  0  0
  186.9850  178.4090  142.3220 C   0  0  0  0  0  2  0  0  0  0  0  0
  185.7520  178.2160  141.4630 C   0  0  0  0  0  2  0  0  0  0  0  0
  186.1580  177.7170  140.1200 C   0  0  0  0  0  3  0  0  0  0  0  0
  187.0140  176.8530  140.0230 O   0  0  0  0  0  0  0  0  0  0  0  0
  1  3  1  0  0  0  0
  2  6  1  6  0  0  0
  3 31  1  6  0  0  0
  3  4  1  0  0  0  0
  4 17  1  1  0  0  0
  4  2  1  0  0  0  0
  5  1  1  6  0  0  0
  5  2  1  0  0  0  0
  7 14  1  0  0  0  0
  7 15  1  1  0  0  0
  8 11  1  6  0  0  0
  8 13  1  0  0  0  0
  9 12  1  6  0  0  0
  9  5  1  0  0  0  0
  9 13  1  0  0  0  0
 10 14  1  0  0  0  0
 11 10  1  0  0  0  0
 13  7  1  0  0  0  0
 14 15  1  0  0  0  0
 16 12  1  0  0  0  0
 16  8  1  0  0  0  0
 17 18  1  0  0  0  0
 18 19  1  0  0  0  0
 20  1  1  0  0  0  0
 21 20  1  0  0  0  0
 22 23  2  0  0  0  0
 23 21  1  0  0  0  0
 25 22  1  0  0  0  0
 26 24  2  0  0  0  0
 26 25  1  0  0  0  0
 27 30  1  0  0  0  0
 28 29  1  0  0  0  0
 29 25  1  0  0  0  0
 30 28  1  0  0  0  0
 30 26  1  0  0  0  0
 32 31  1  0  0  0  0
 33 32  1  0  0  0  0
 34 33  2  0  0  0  0
M  END
>  <MODEL>
2

>  <REMARK>
 VINA RESULT:      -6.6      2.740      6.153
  Name = 
  10 active torsions:
  status: ('A' for Active; 'I' for Inactive)
    1  A    between atoms: C_3  and  N_13
    2  A    between atoms: C_4  and  C_31
    3  A    between atoms: N_5  and  C_18
    4  A    between atoms: C_7  and  C_8
    5  A    between atoms: C_8  and  C_28
    6  A    between atoms: C_12  and  C_16
    7  A    between atoms: C_16  and  C_23
    8  A    between atoms: C_17  and  C_29
    9  A    between atoms: C_18  and  C_29
   10  A    between atoms: C_23  and  C_26
                            x       y       z     vdW  Elec       q    Type
                         _______ _______ _______ _____ _____    ______ ____

>  <TORSDO>
F 10

$$$$
=
 OpenBabel11052418573D

 34 38  0  0  1  0  0  0  0  0999 V2000
  188.2030  176.7350  144.2420 N   0  0  0  0  0  0  0  0  0  0  0  0
  187.6700  176.8970  141.8870 C   0  0  2  0  0  3  0  0  0  0  0  0
  186.9350  177.4480  144.1010 C   0  0  1  0  0  3  0  0  0  0  0  0
  186.4270  177.2180  142.6940 C   0  0  1  0  0  3  0  0  0  0  0  0
  188.6160  176.2890  142.9080 C   0  0  2  0  0  3  0  0  0  0  0  0
  188.2570  178.0580  141.3730 O   0  0  0  0  0  1  0  0  0  0  0  0
  188.2030  173.9100  140.4690 C   0  0  2  0  0  3  0  0  0  0  0  0
  189.8470  173.0070  142.0200 C   0  0  2  0  0  3  0  0  0  0  0  0
  188.5870  174.7600  142.8340 C   0  0  2  0  0  3  0  0  0  0  0  0
  190.3400  172.7690  139.5350 C   0  0  0  0  0  2  0  0  0  0  0  0
  190.8470  172.5320  140.9750 C   0  0  0  0  0  2  0  0  0  0  0  0
  189.5140  174.1520  143.8880 C   0  0  0  0  0  2  0  0  0  0  0  0
  189.2010  174.2700  141.5600 C   0  0  2  0  0  3  0  0  0  0  0  0
  188.8230  173.0470  139.4000 C   0  0  2  0  0  3  0  0  0  0  0  0
  188.6330  174.4340  139.2360 O   0  0  0  0  0  0  0  0  0  0  0  0
  190.4220  173.2670  143.2660 O   0  0  0  0  0  0  0  0  0  0  0  0
  185.6430  178.4220  142.1730 C   0  0  0  0  0  2  0  0  0  0  0  0
  184.1910  178.0550  141.9240 C   0  0  0  0  0  2  0  0  0  0  0  0
  183.8270  178.4090  140.6240 O   0  0  0  0  0  1  0  0  0  0  0  0
  189.1950  177.7000  144.6930 C   0  0  0  0  0  2  0  0  0  0  0  0
  189.8020  177.2370  146.0030 C   0  0  0  0  0  2  0  0  0  0  0  0
  191.8100  177.0650  144.6370 C   0  0  0  0  0  3  0  0  0  0  0  0
  191.1820  176.7470  145.7610 C   0  0  0  0  0  3  0  0  0  0  0  0
  192.6660  175.5840  142.3140 O   0  0  0  0  0  0  0  0  0  0  0  0
  193.1400  176.6130  144.3680 N   0  0  0  0  0  0  0  0  0  0  0  0
  193.4980  175.8900  143.2090 C   0  0  0  0  0  0  0  0  0  0  0  0
  195.4470  174.7930  142.0290 C   0  0  0  0  0  1  0  0  0  0  0  0
  195.6480  175.9890  144.2710 C   0  0  0  0  0  2  0  0  0  0  0  0
  194.5290  176.8860  145.4310 S   0  0  0  0  0  0  0  0  0  0  0  0
  194.8650  175.5370  143.1320 N   0  0  0  0  0  0  0  0  0  0  0  0
  185.9400  176.9140  145.1210 C   0  0  0  0  0  2  0  0  0  0  0  0
  185.8290  177.8600  146.3010 C   0  0  0  0  0  2  0  0  0  0  0  0
  184.4360  178.3770  146.3920 C   0  0  0  0  0  3  0  0  0  0  0  0
  183.8810  178.8110  145.3960 O   0  0  0  0  0  0  0  0  0  0  0  0
  1 20  1  0  0  0  0
  2  6  1  1  0  0  0
  2  4  1  0  0  0  0
  2  5  1  0  0  0  0
  3  1  1  0  0  0  0
  3 31  1  1  0  0  0
  4 17  1  6  0  0  0
  4  3  1  0  0  0  0
  5  1  1  1  0  0  0
  7 15  1  6  0  0  0
  7 13  1  0  0  0  0
  8 11  1  6  0  0  0
  8 16  1  0  0  0  0
  9  5  1  0  0  0  0
  9 12  1  1  0  0  0
 10 11  1  0  0  0  0
 13  8  1  0  0  0  0
 13  9  1  0  0  0  0
 14 10  1  0  0  0  0
 14  7  1  0  0  0  0
 15 14  1  0  0  0  0
 16 12  1  0  0  0  0
 18 17  1  0  0  0  0
 19 18  1  0  0  0  0
 20 21  1  0  0  0  0
 22 23  2  0  0  0  0
 23 21  1  0  0  0  0
 24 26  2  0  0  0  0
 25 22  1  0  0  0  0
 25 29  1  0  0  0  0
 26 25  1  0  0  0  0
 27 30  1  0  0  0  0
 28 29  1  0  0  0  0
 30 26  1  0  0  0  0
 30 28  1  0  0  0  0
 31 32  1  0  0  0  0
 32 33  1  0  0  0  0
 34 33  2  0  0  0  0
M  END
>  <MODEL>
3

>  <REMARK>
 VINA RESULT:      -6.6      1.558      1.808
  Name = 
  10 active torsions:
  status: ('A' for Active; 'I' for Inactive)
    1  A    between atoms: C_3  and  N_13
    2  A    between atoms: C_4  and  C_31
    3  A    between atoms: N_5  and  C_18
    4  A    between atoms: C_7  and  C_8
    5  A    between atoms: C_8  and  C_28
    6  A    between atoms: C_12  and  C_16
    7  A    between atoms: C_16  and  C_23
    8  A    between atoms: C_17  and  C_29
    9  A    between atoms: C_18  and  C_29
   10  A    between atoms: C_23  and  C_26
                            x       y       z     vdW  Elec       q    Type
                         _______ _______ _______ _____ _____    ______ ____

>  <TORSDO>
F 10

$$$$
=
 OpenBabel11052418573D

 34 38  0  0  1  0  0  0  0  0999 V2000
  188.3450  176.5860  144.1200 N   0  0  0  0  0  0  0  0  0  0  0  0
  188.4850  176.6640  146.5340 C   0  0  2  0  0  3  0  0  0  0  0  0
  187.1190  177.1920  144.6370 C   0  0  1  0  0  3  0  0  0  0  0  0
  187.3650  177.5790  146.0800 C   0  0  1  0  0  3  0  0  0  0  0  0
  189.2440  176.3570  145.2550 C   0  0  2  0  0  3  0  0  0  0  0  0
  187.9840  175.4650  147.0520 O   0  0  0  0  0  1  0  0  0  0  0  0
  192.4140  176.4310  146.5670 C   0  0  2  0  0  3  0  0  0  0  0  0
  192.6200  177.1890  144.2630 C   0  0  2  0  0  3  0  0  0  0  0  0
  190.4830  177.2480  145.1300 C   0  0  2  0  0  3  0  0  0  0  0  0
  194.3420  175.5100  145.0920 C   0  0  0  0  0  2  0  0  0  0  0  0
  193.8240  176.3340  143.8930 C   0  0  0  0  0  2  0  0  0  0  0  0
  190.5740  177.8500  143.7260 C   0  0  0  0  0  2  0  0  0  0  0  0
  191.7390  176.4380  145.2030 C   0  0  2  0  0  3  0  0  0  0  0  0
  193.8490  175.9760  146.4840 C   0  0  2  0  0  3  0  0  0  0  0  0
  192.8070  175.1220  146.9000 O   0  0  0  0  0  0  0  0  0  0  0  0
  191.8370  177.5560  143.1660 O   0  0  0  0  0  0  0  0  0  0  0  0
  186.0940  177.4680  146.9190 C   0  0  0  0  0  2  0  0  0  0  0  0
  185.4030  178.8150  147.0360 C   0  0  0  0  0  2  0  0  0  0  0  0
  184.1510  178.7630  146.4220 O   0  0  0  0  0  1  0  0  0  0  0  0
  187.9910  175.2780  143.5880 C   0  0  0  0  0  2  0  0  0  0  0  0
  188.2810  175.2340  142.1010 C   0  0  0  0  0  2  0  0  0  0  0  0
  190.2800  173.9630  142.6650 C   0  0  0  0  0  3  0  0  0  0  0  0
  189.7050  174.8710  141.8890 C   0  0  0  0  0  3  0  0  0  0  0  0
  191.9080  172.5350  144.5710 O   0  0  0  0  0  0  0  0  0  0  0  0
  191.6490  173.5870  142.4910 N   0  0  0  0  0  0  0  0  0  0  0  0
  192.3950  172.8870  143.4640 C   0  0  0  0  0  0  0  0  0  0  0  0
  194.6740  171.9020  143.9460 C   0  0  0  0  0  1  0  0  0  0  0  0
  194.0880  173.1040  141.7770 C   0  0  0  0  0  2  0  0  0  0  0  0
  192.6120  173.9360  141.0460 S   0  0  0  0  0  0  0  0  0  0  0  0
  193.7330  172.6100  143.0970 N   0  0  0  0  0  0  0  0  0  0  0  0
  186.7740  178.4190  143.8080 C   0  0  0  0  0  2  0  0  0  0  0  0
  185.4160  178.2550  143.1540 C   0  0  0  0  0  2  0  0  0  0  0  0
  185.5960  177.8750  141.7260 C   0  0  0  0  0  3  0  0  0  0  0  0
  186.6380  178.1430  141.1510 O   0  0  0  0  0  0  0  0  0  0  0  0
  1  3  1  0  0  0  0
  2  6  1  6  0  0  0
  3 31  1  6  0  0  0
  3  4  1  0  0  0  0
  4  2  1  0  0  0  0
  4 17  1  1  0  0  0
  5  1  1  6  0  0  0
  5  2  1  0  0  0  0
  7 15  1  1  0  0  0
  8 11  1  6  0  0  0
  8 13  1  0  0  0  0
  9 12  1  6  0  0  0
  9 13  1  0  0  0  0
  9  5  1  0  0  0  0
 10 14  1  0  0  0  0
 11 10  1  0  0  0  0
 13  7  1  0  0  0  0
 14  7  1  0  0  0  0
 14 15  1  0  0  0  0
 16 12  1  0  0  0  0
 16  8  1  0  0  0  0
 17 18  1  0  0  0  0
 19 18  1  0  0  0  0
 20  1  1  0  0  0  0
 21 20  1  0  0  0  0
 23 21  1  0  0  0  0
 23 22  2  0  0  0  0
 25 22  1  0  0  0  0
 25 26  1  0  0  0  0
 26 24  2  0  0  0  0
 28 30  1  0  0  0  0
 29 28  1  0  0  0  0
 29 25  1  0  0  0  0
 30 26  1  0  0  0  0
 30 27  1  0  0  0  0
 32 31  1  0  0  0  0
 33 32  1  0  0  0  0
 34 33  2  0  0  0  0
M  END
>  <MODEL>
4

>  <REMARK>
 VINA RESULT:      -6.5      2.297      4.893
  Name = 
  10 active torsions:
  status: ('A' for Active; 'I' for Inactive)
    1  A    between atoms: C_3  and  N_13
    2  A    between atoms: C_4  and  C_31
    3  A    between atoms: N_5  and  C_18
    4  A    between atoms: C_7  and  C_8
    5  A    between atoms: C_8  and  C_28
    6  A    between atoms: C_12  and  C_16
    7  A    between atoms: C_16  and  C_23
    8  A    between atoms: C_17  and  C_29
    9  A    between atoms: C_18  and  C_29
   10  A    between atoms: C_23  and  C_26
                            x       y       z     vdW  Elec       q    Type
                         _______ _______ _______ _____ _____    ______ ____

>  <TORSDO>
F 10

$$$$
=
 OpenBabel11052418573D

 34 38  0  0  1  0  0  0  0  0999 V2000
  188.0000  176.9310  144.1350 N   0  0  0  0  0  0  0  0  0  0  0  0
  188.3390  176.5530  146.5010 C   0  0  2  0  0  3  0  0  0  0  0  0
  186.8550  177.4770  144.8610 C   0  0  1  0  0  3  0  0  0  0  0  0
  187.2380  177.5800  146.3220 C   0  0  1  0  0  3  0  0  0  0  0  0
  188.9740  176.4610  145.1240 C   0  0  2  0  0  3  0  0  0  0  0  0
  187.8170  175.3000  146.8350 O   0  0  0  0  0  1  0  0  0  0  0  0
  192.0960  176.4160  146.5490 C   0  0  2  0  0  3  0  0  0  0  0  0
  192.4100  177.1890  144.2630 C   0  0  2  0  0  3  0  0  0  0  0  0
  190.2450  177.3110  145.0530 C   0  0  2  0  0  3  0  0  0  0  0  0
  194.0440  175.4450  145.1340 C   0  0  0  0  0  2  0  0  0  0  0  0
  193.5970  176.2970  143.9260 C   0  0  0  0  0  2  0  0  0  0  0  0
  190.4070  177.9230  143.6610 C   0  0  0  0  0  2  0  0  0  0  0  0
  191.4710  176.4590  145.1630 C   0  0  2  0  0  3  0  0  0  0  0  0
  193.5170  175.9130  146.5130 C   0  0  2  0  0  3  0  0  0  0  0  0
  192.4330  175.0910  146.8820 O   0  0  0  0  0  0  0  0  0  0  0  0
  191.6790  177.5920  143.1430 O   0  0  0  0  0  0  0  0  0  0  0  0
  186.0340  177.3640  147.2380 C   0  0  0  0  0  2  0  0  0  0  0  0
  185.3700  178.6860  147.5800 C   0  0  0  0  0  2  0  0  0  0  0  0
  186.3300  179.6030  148.0130 O   0  0  0  0  0  1  0  0  0  0  0  0
  187.5340  175.7590  143.4090 C   0  0  0  0  0  2  0  0  0  0  0  0
  187.7530  175.9580  141.9220 C   0  0  0  0  0  2  0  0  0  0  0  0
  189.5380  174.3100  141.7500 C   0  0  0  0  0  3  0  0  0  0  0  0
  188.3460  174.7250  141.3430 C   0  0  0  0  0  3  0  0  0  0  0  0
  189.5000  171.6880  142.9540 O   0  0  0  0  0  0  0  0  0  0  0  0
  190.1410  173.1280  141.2160 N   0  0  0  0  0  0  0  0  0  0  0  0
  190.0890  171.8700  141.8550 C   0  0  0  0  0  0  0  0  0  0  0  0
  190.8170  169.4580  141.6380 C   0  0  0  0  0  1  0  0  0  0  0  0
  191.3600  171.2540  139.9140 C   0  0  0  0  0  2  0  0  0  0  0  0
  191.0370  173.0570  139.6910 S   0  0  0  0  0  0  0  0  0  0  0  0
  190.7470  170.8270  141.1620 N   0  0  0  0  0  0  0  0  0  0  0  0
  186.5110  178.8500  144.3030 C   0  0  0  0  0  2  0  0  0  0  0  0
  185.5950  178.7210  143.1020 C   0  0  0  0  0  2  0  0  0  0  0  0
  184.2170  178.3980  143.5630 C   0  0  0  0  0  3  0  0  0  0  0  0
  183.7100  179.0410  144.4670 O   0  0  0  0  0  0  0  0  0  0  0  0
  1  3  1  0  0  0  0
  2  6  1  6  0  0  0
  3 31  1  6  0  0  0
  3  4  1  0  0  0  0
  4  2  1  0  0  0  0
  4 17  1  1  0  0  0
  5  1  1  6  0  0  0
  5  2  1  0  0  0  0
  7 15  1  1  0  0  0
  8 11  1  6  0  0  0
  8 13  1  0  0  0  0
  9 12  1  6  0  0  0
  9  5  1  0  0  0  0
  9 13  1  0  0  0  0
 10 14  1  0  0  0  0
 11 10  1  0  0  0  0
 13  7  1  0  0  0  0
 14  7  1  0  0  0  0
 14 15  1  0  0  0  0
 16 12  1  0  0  0  0
 16  8  1  0  0  0  0
 17 18  1  0  0  0  0
 18 19  1  0  0  0  0
 20  1  1  0  0  0  0
 21 20  1  0  0  0  0
 23 22  2  0  0  0  0
 23 21  1  0  0  0  0
 25 22  1  0  0  0  0
 25 26  1  0  0  0  0
 26 24  2  0  0  0  0
 28 30  1  0  0  0  0
 29 28  1  0  0  0  0
 29 25  1  0  0  0  0
 30 27  1  0  0  0  0
 30 26  1  0  0  0  0
 32 33  1  0  0  0  0
 32 31  1  0  0  0  0
 33 34  2  0  0  0  0
M  END
>  <MODEL>
5

>  <REMARK>
 VINA RESULT:      -6.4      2.688      5.548
  Name = 
  10 active torsions:
  status: ('A' for Active; 'I' for Inactive)
    1  A    between atoms: C_3  and  N_13
    2  A    between atoms: C_4  and  C_31
    3  A    between atoms: N_5  and  C_18
    4  A    between atoms: C_7  and  C_8
    5  A    between atoms: C_8  and  C_28
    6  A    between atoms: C_12  and  C_16
    7  A    between atoms: C_16  and  C_23
    8  A    between atoms: C_17  and  C_29
    9  A    between atoms: C_18  and  C_29
   10  A    between atoms: C_23  and  C_26
                            x       y       z     vdW  Elec       q    Type
                         _______ _______ _______ _____ _____    ______ ____

>  <TORSDO>
F 10

$$$$
=
 OpenBabel11052418573D

 34 38  0  0  1  0  0  0  0  0999 V2000
  188.0400  175.4170  143.0140 N   0  0  0  0  0  0  0  0  0  0  0  0
  188.1910  177.8310  143.0570 C   0  0  2  0  0  3  0  0  0  0  0  0
  189.2220  175.7950  143.7870 C   0  0  1  0  0  3  0  0  0  0  0  0
  189.1040  177.2650  144.1260 C   0  0  1  0  0  3  0  0  0  0  0  0
  187.3300  176.6470  142.6520 C   0  0  2  0  0  3  0  0  0  0  0  0
  188.9170  178.2550  141.9400 O   0  0  0  0  0  1  0  0  0  0  0  0
  186.1900  176.6490  145.8890 C   0  0  2  0  0  3  0  0  0  0  0  0
  184.7030  178.1240  144.6500 C   0  0  2  0  0  3  0  0  0  0  0  0
  185.9710  176.6950  143.3560 C   0  0  2  0  0  3  0  0  0  0  0  0
  185.5170  178.9350  146.9190 C   0  0  0  0  0  2  0  0  0  0  0  0
  184.6940  179.2670  145.6550 C   0  0  0  0  0  2  0  0  0  0  0  0
  184.9680  177.5080  142.5370 C   0  0  0  0  0  2  0  0  0  0  0  0
  186.0500  177.4850  144.6250 C   0  0  2  0  0  3  0  0  0  0  0  0
  185.8440  177.4360  147.1280 C   0  0  2  0  0  3  0  0  0  0  0  0
  187.1760  177.2070  146.7250 O   0  0  0  0  0  0  0  0  0  0  0  0
  184.4120  178.5260  143.3440 O   0  0  0  0  0  0  0  0  0  0  0  0
  190.4720  177.9400  144.1950 C   0  0  0  0  0  2  0  0  0  0  0  0
  191.4470  177.2890  143.2290 C   0  0  0  0  0  2  0  0  0  0  0  0
  192.6320  176.9700  143.8920 O   0  0  0  0  0  1  0  0  0  0  0  0
  188.5070  174.8150  141.7740 C   0  0  0  0  0  2  0  0  0  0  0  0
  187.9450  173.4130  141.6410 C   0  0  0  0  0  2  0  0  0  0  0  0
  190.2020  172.5800  142.0110 C   0  0  0  0  0  3  0  0  0  0  0  0
  188.9020  172.4410  142.2280 C   0  0  0  0  0  3  0  0  0  0  0  0
  192.1610  173.1760  144.0430 O   0  0  0  0  0  0  0  0  0  0  0  0
  191.1540  171.6640  142.5590 N   0  0  0  0  0  0  0  0  0  0  0  0
  192.0910  172.0160  143.5550 C   0  0  0  0  0  0  0  0  0  0  0  0
  193.9780  171.1080  144.9730 C   0  0  0  0  0  1  0  0  0  0  0  0
  192.6920  169.7100  143.2730 C   0  0  0  0  0  2  0  0  0  0  0  0
  191.3060  169.9650  142.0820 S   0  0  0  0  0  0  0  0  0  0  0  0
  192.9430  170.9650  143.9640 N   0  0  0  0  0  0  0  0  0  0  0  0
  189.2830  174.9580  145.0560 C   0  0  0  0  0  2  0  0  0  0  0  0
  190.3330  175.5050  146.0030 C   0  0  0  0  0  2  0  0  0  0  0  0
  189.9410  175.2000  147.4070 C   0  0  0  0  0  3  0  0  0  0  0  0
  188.9920  174.4660  147.6290 O   0  0  0  0  0  0  0  0  0  0  0  0
  1  3  1  0  0  0  0
  2  6  1  6  0  0  0
  2  4  1  0  0  0  0
  3  4  1  0  0  0  0
  3 31  1  1  0  0  0
  4 17  1  6  0  0  0
  5  1  1  1  0  0  0
  5  2  1  0  0  0  0
  5  9  1  0  0  0  0
  7 15  1  1  0  0  0
  7 14  1  0  0  0  0
  8 11  1  1  0  0  0
  9 12  1  6  0  0  0
  9 13  1  0  0  0  0
 10 14  1  0  0  0  0
 11 10  1  0  0  0  0
 12 16  1  0  0  0  0
 13  8  1  0  0  0  0
 13  7  1  0  0  0  0
 15 14  1  0  0  0  0
 16  8  1  0  0  0  0
 18 19  1  0  0  0  0
 18 17  1  0  0  0  0
 20  1  1  0  0  0  0
 21 20  1  0  0  0  0
 21 23  1  0  0  0  0
 22 23  2  0  0  0  0
 22 25  1  0  0  0  0
 25 26  1  0  0  0  0
 26 30  1  0  0  0  0
 26 24  2  0  0  0  0
 28 30  1  0  0  0  0
 29 25  1  0  0  0  0
 29 28  1  0  0  0  0
 30 27  1  0  0  0  0
 31 32  1  0  0  0  0
 32 33  1  0  0  0  0
 33 34  2  0  0  0  0
M  END
>  <MODEL>
6

>  <REMARK>
 VINA RESULT:      -6.3      2.544      5.923
  Name = 
  10 active torsions:
  status: ('A' for Active; 'I' for Inactive)
    1  A    between atoms: C_3  and  N_13
    2  A    between atoms: C_4  and  C_31
    3  A    between atoms: N_5  and  C_18
    4  A    between atoms: C_7  and  C_8
    5  A    between atoms: C_8  and  C_28
    6  A    between atoms: C_12  and  C_16
    7  A    between atoms: C_16  and  C_23
    8  A    between atoms: C_17  and  C_29
    9  A    between atoms: C_18  and  C_29
   10  A    between atoms: C_23  and  C_26
                            x       y       z     vdW  Elec       q    Type
                         _______ _______ _______ _____ _____    ______ ____

>  <TORSDO>
F 10

$$$$
=
 OpenBabel11052418573D

 34 38  0  0  1  0  0  0  0  0999 V2000
  188.9120  175.1430  143.3770 N   0  0  0  0  0  0  0  0  0  0  0  0
  189.2560  177.1930  144.6150 C   0  0  2  0  0  3  0  0  0  0  0  0
  189.9960  174.9310  144.3350 C   0  0  1  0  0  3  0  0  0  0  0  0
  189.9530  176.0600  145.3420 C   0  0  1  0  0  3  0  0  0  0  0  0
  188.3680  176.4840  143.6070 C   0  0  2  0  0  3  0  0  0  0  0  0
  190.1710  177.9900  143.9200 O   0  0  0  0  0  1  0  0  0  0  0  0
  186.7660  176.8100  146.6250 C   0  0  2  0  0  3  0  0  0  0  0  0
  185.2560  177.7370  144.9560 C   0  0  2  0  0  3  0  0  0  0  0  0
  186.9300  176.3850  144.1230 C   0  0  2  0  0  3  0  0  0  0  0  0
  185.5660  179.0620  147.1060 C   0  0  0  0  0  2  0  0  0  0  0  0
  184.9010  179.0090  145.7130 C   0  0  0  0  0  2  0  0  0  0  0  0
  185.9400  176.8380  143.0490 C   0  0  0  0  0  2  0  0  0  0  0  0
  186.6800  177.3780  145.2150 C   0  0  2  0  0  3  0  0  0  0  0  0
  186.1080  177.7110  147.6380 C   0  0  2  0  0  3  0  0  0  0  0  0
  187.5040  177.6820  147.4470 O   0  0  0  0  0  0  0  0  0  0  0  0
  185.1030  177.8490  143.5730 O   0  0  0  0  0  0  0  0  0  0  0  0
  191.3480  176.4150  145.8520 C   0  0  0  0  0  2  0  0  0  0  0  0
  191.4550  176.1770  147.3480 C   0  0  0  0  0  2  0  0  0  0  0  0
  190.3260  175.4960  147.8040 O   0  0  0  0  0  1  0  0  0  0  0  0
  189.5040  175.1470  142.0470 C   0  0  0  0  0  2  0  0  0  0  0  0
  188.4980  174.6320  141.0370 C   0  0  0  0  0  2  0  0  0  0  0  0
  189.9920  172.7670  140.5720 C   0  0  0  0  0  3  0  0  0  0  0  0
  188.7530  173.1920  140.7790 C   0  0  0  0  0  3  0  0  0  0  0  0
  189.7930  171.4260  138.0250 O   0  0  0  0  0  0  0  0  0  0  0  0
  190.2770  171.3880  140.3200 N   0  0  0  0  0  0  0  0  0  0  0  0
  190.1610  170.7870  139.0470 C   0  0  0  0  0  0  0  0  0  0  0  0
  190.4400  168.6020  137.8060 C   0  0  0  0  0  1  0  0  0  0  0  0
  190.8900  168.8750  140.3000 C   0  0  0  0  0  2  0  0  0  0  0  0
  190.8160  170.2320  141.5480 S   0  0  0  0  0  0  0  0  0  0  0  0
  190.4920  169.4130  139.0100 N   0  0  0  0  0  0  0  0  0  0  0  0
  189.8020  173.5910  145.0280 C   0  0  0  0  0  2  0  0  0  0  0  0
  190.7020  172.5380  144.4110 C   0  0  0  0  0  2  0  0  0  0  0  0
  192.0690  173.0990  144.2300 C   0  0  0  0  0  3  0  0  0  0  0  0
  192.9570  172.8070  145.0140 O   0  0  0  0  0  0  0  0  0  0  0  0
  1  3  1  0  0  0  0
  2  6  1  6  0  0  0
  2  4  1  0  0  0  0
  3 31  1  1  0  0  0
  3  4  1  0  0  0  0
  4 17  1  6  0  0  0
  5  1  1  1  0  0  0
  5  9  1  0  0  0  0
  5  2  1  0  0  0  0
  7 15  1  1  0  0  0
  7 14  1  0  0  0  0
  8 13  1  0  0  0  0
  8 11  1  1  0  0  0
  9 12  1  6  0  0  0
  9 13  1  0  0  0  0
 10 14  1  0  0  0  0
 11 10  1  0  0  0  0
 12 16  1  0  0  0  0
 13  7  1  0  0  0  0
 15 14  1  0  0  0  0
 16  8  1  0  0  0  0
 17 18  1  0  0  0  0
 18 19  1  0  0  0  0
 20  1  1  0  0  0  0
 21 20  1  0  0  0  0
 22 23  2  0  0  0  0
 23 21  1  0  0  0  0
 24 26  2  0  0  0  0
 25 22  1  0  0  0  0
 25 29  1  0  0  0  0
 26 25  1  0  0  0  0
 27 30  1  0  0  0  0
 28 29  1  0  0  0  0
 30 26  1  0  0  0  0
 30 28  1  0  0  0  0
 32 31  1  0  0  0  0
 33 32  1  0  0  0  0
 33 34  2  0  0  0  0
M  END
>  <MODEL>
7

>  <REMARK>
 VINA RESULT:      -6.3      3.091      7.190
  Name = 
  10 active torsions:
  status: ('A' for Active; 'I' for Inactive)
    1  A    between atoms: C_3  and  N_13
    2  A    between atoms: C_4  and  C_31
    3  A    between atoms: N_5  and  C_18
    4  A    between atoms: C_7  and  C_8
    5  A    between atoms: C_8  and  C_28
    6  A    between atoms: C_12  and  C_16
    7  A    between atoms: C_16  and  C_23
    8  A    between atoms: C_17  and  C_29
    9  A    between atoms: C_18  and  C_29
   10  A    between atoms: C_23  and  C_26
                            x       y       z     vdW  Elec       q    Type
                         _______ _______ _______ _____ _____    ______ ____

>  <TORSDO>
F 10

$$$$
=
 OpenBabel11052418573D

 34 38  0  0  1  0  0  0  0  0999 V2000
  190.4530  174.5810  144.8830 N   0  0  0  0  0  0  0  0  0  0  0  0
  191.8290  173.0500  143.6120 C   0  0  2  0  0  3  0  0  0  0  0  0
  191.8320  174.6970  145.3530 C   0  0  1  0  0  3  0  0  0  0  0  0
  192.7290  174.0390  144.3260 C   0  0  1  0  0  3  0  0  0  0  0  0
  190.4440  173.6620  143.7420 C   0  0  2  0  0  3  0  0  0  0  0  0
  191.8280  171.8080  144.2530 O   0  0  0  0  0  1  0  0  0  0  0  0
  191.0860  173.3790  140.3820 C   0  0  2  0  0  3  0  0  0  0  0  0
  188.7790  174.1320  140.5670 C   0  0  2  0  0  3  0  0  0  0  0  0
  190.0600  174.4150  142.4650 C   0  0  2  0  0  3  0  0  0  0  0  0
  189.2630  172.2690  138.9050 C   0  0  0  0  0  2  0  0  0  0  0  0
  188.1840  173.1550  139.5630 C   0  0  0  0  0  2  0  0  0  0  0  0
  188.6600  175.0170  142.5960 C   0  0  0  0  0  2  0  0  0  0  0  0
  189.8870  173.4730  141.3150 C   0  0  2  0  0  3  0  0  0  0  0  0
  190.7210  172.7720  139.0520 C   0  0  2  0  0  3  0  0  0  0  0  0
  191.3490  172.0320  140.0750 O   0  0  0  0  0  0  0  0  0  0  0  0
  187.8590  174.5930  141.5120 O   0  0  0  0  0  0  0  0  0  0  0  0
  193.9570  173.4030  144.9750 C   0  0  0  0  0  2  0  0  0  0  0  0
  195.2350  174.0360  144.4510 C   0  0  0  0  0  2  0  0  0  0  0  0
  194.9550  174.8140  143.3270 O   0  0  0  0  0  1  0  0  0  0  0  0
  189.6850  173.9470  145.9450 C   0  0  0  0  0  2  0  0  0  0  0  0
  189.4990  174.9190  147.0930 C   0  0  0  0  0  2  0  0  0  0  0  0
  188.2600  176.9200  146.4670 C   0  0  0  0  0  3  0  0  0  0  0  0
  188.2310  175.6680  146.9030 C   0  0  0  0  0  3  0  0  0  0  0  0
  187.4250  178.1810  144.0100 O   0  0  0  0  0  0  0  0  0  0  0  0
  187.0600  177.6730  146.2710 N   0  0  0  0  0  0  0  0  0  0  0  0
  186.7050  178.2690  145.0410 C   0  0  0  0  0  0  0  0  0  0  0  0
  184.9240  179.6560  143.9020 C   0  0  0  0  0  1  0  0  0  0  0  0
  184.8090  178.9450  146.3470 C   0  0  0  0  0  2  0  0  0  0  0  0
  185.8460  177.9740  147.5240 S   0  0  0  0  0  0  0  0  0  0  0  0
  185.4770  178.9700  145.0560 N   0  0  0  0  0  0  0  0  0  0  0  0
  192.1900  176.1680  145.5090 C   0  0  0  0  0  2  0  0  0  0  0  0
  192.9160  176.4020  146.8190 C   0  0  0  0  0  2  0  0  0  0  0  0
  194.3130  176.8360  146.5400 C   0  0  0  0  0  3  0  0  0  0  0  0
  194.5610  177.4890  145.5400 O   0  0  0  0  0  0  0  0  0  0  0  0
  1  3  1  0  0  0  0
  1 20  1  0  0  0  0
  2  5  1  0  0  0  0
  2  6  1  1  0  0  0
  2  4  1  0  0  0  0
  3 31  1  6  0  0  0
  4 17  1  1  0  0  0
  4  3  1  0  0  0  0
  5  1  1  1  0  0  0
  7 15  1  1  0  0  0
  7 13  1  0  0  0  0
  8 11  1  6  0  0  0
  8 13  1  0  0  0  0
  8 16  1  0  0  0  0
  9 12  1  1  0  0  0
  9  5  1  0  0  0  0
 10 14  1  0  0  0  0
 10 11  1  0  0  0  0
 13  9  1  0  0  0  0
 14 15  1  0  0  0  0
 14  7  1  0  0  0  0
 16 12  1  0  0  0  0
 18 17  1  0  0  0  0
 19 18  1  0  0  0  0
 20 21  1  0  0  0  0
 22 23  2  0  0  0  0
 23 21  1  0  0  0  0
 24 26  2  0  0  0  0
 25 22  1  0  0  0  0
 25 29  1  0  0  0  0
 26 30  1  0  0  0  0
 26 25  1  0  0  0  0
 27 30  1  0  0  0  0
 28 29  1  0  0  0  0
 30 28  1  0  0  0  0
 31 32  1  0  0  0  0
 33 32  1  0  0  0  0
 34 33  2  0  0  0  0
M  END
>  <MODEL>
8

>  <REMARK>
 VINA RESULT:      -6.2      2.723      7.011
  Name = 
  10 active torsions:
  status: ('A' for Active; 'I' for Inactive)
    1  A    between atoms: C_3  and  N_13
    2  A    between atoms: C_4  and  C_31
    3  A    between atoms: N_5  and  C_18
    4  A    between atoms: C_7  and  C_8
    5  A    between atoms: C_8  and  C_28
    6  A    between atoms: C_12  and  C_16
    7  A    between atoms: C_16  and  C_23
    8  A    between atoms: C_17  and  C_29
    9  A    between atoms: C_18  and  C_29
   10  A    between atoms: C_23  and  C_26
                            x       y       z     vdW  Elec       q    Type
                         _______ _______ _______ _____ _____    ______ ____

>  <TORSDO>
F 10

$$$$
=
 OpenBabel11052418573D

 34 38  0  0  1  0  0  0  0  0999 V2000
  192.0790  176.5320  144.3010 N   0  0  0  0  0  0  0  0  0  0  0  0
  190.9030  174.7680  145.4650 C   0  0  2  0  0  3  0  0  0  0  0  0
  192.3870  176.6310  145.7260 C   0  0  1  0  0  3  0  0  0  0  0  0
  191.9690  175.3320  146.3820 C   0  0  1  0  0  3  0  0  0  0  0  0
  191.2620  175.3320  144.1010 C   0  0  2  0  0  3  0  0  0  0  0  0
  189.6320  175.2320  145.8170 O   0  0  0  0  0  1  0  0  0  0  0  0
  190.7170  172.1600  142.9100 C   0  0  2  0  0  3  0  0  0  0  0  0
  191.9870  173.3180  141.1870 C   0  0  2  0  0  3  0  0  0  0  0  0
  192.0360  174.3030  143.2730 C   0  0  2  0  0  3  0  0  0  0  0  0
  190.0030  171.9210  140.4250 C   0  0  0  0  0  2  0  0  0  0  0  0
  191.1380  172.8790  140.0020 C   0  0  0  0  0  2  0  0  0  0  0  0
  192.9490  175.0010  142.2630 C   0  0  0  0  0  2  0  0  0  0  0  0
  191.1180  173.5290  142.3800 C   0  0  2  0  0  3  0  0  0  0  0  0
  190.1620  171.2740  141.8240 C   0  0  2  0  0  3  0  0  0  0  0  0
  189.3350  171.9640  142.7340 O   0  0  0  0  0  0  0  0  0  0  0  0
  192.6810  174.5100  140.9650 O   0  0  0  0  0  0  0  0  0  0  0  0
  191.5000  175.5500  147.8190 C   0  0  0  0  0  2  0  0  0  0  0  0
  191.0170  176.9760  148.0210 C   0  0  0  0  0  2  0  0  0  0  0  0
  191.6470  177.5400  149.1300 O   0  0  0  0  0  1  0  0  0  0  0  0
  191.2450  177.6750  143.9580 C   0  0  0  0  0  2  0  0  0  0  0  0
  190.3710  177.3330  142.7670 C   0  0  0  0  0  2  0  0  0  0  0  0
  188.0400  177.1660  143.4490 C   0  0  0  0  0  3  0  0  0  0  0  0
  189.0200  177.9160  142.9650 C   0  0  0  0  0  3  0  0  0  0  0  0
  186.7470  177.5720  145.9960 O   0  0  0  0  0  0  0  0  0  0  0  0
  186.7250  177.6930  143.6530 N   0  0  0  0  0  0  0  0  0  0  0  0
  186.1460  177.8680  144.9290 C   0  0  0  0  0  0  0  0  0  0  0  0
  184.0570  178.6640  146.1110 C   0  0  0  0  0  1  0  0  0  0  0  0
  184.3330  178.6730  143.5770 C   0  0  0  0  0  2  0  0  0  0  0  0
  185.6330  178.2010  142.3560 S   0  0  0  0  0  0  0  0  0  0  0  0
  184.8370  178.4040  144.9140 N   0  0  0  0  0  0  0  0  0  0  0  0
  193.8800  176.8620  145.9050 C   0  0  0  0  0  2  0  0  0  0  0  0
  194.5970  175.5470  146.1420 C   0  0  0  0  0  2  0  0  0  0  0  0
  195.3320  175.1540  144.9080 C   0  0  0  0  0  3  0  0  0  0  0  0
  196.0760  175.9510  144.3620 O   0  0  0  0  0  0  0  0  0  0  0  0
  1  3  1  0  0  0  0
  2  6  1  1  0  0  0
  2  4  1  0  0  0  0
  3 31  1  6  0  0  0
  3  4  1  0  0  0  0
  4 17  1  1  0  0  0
  5  1  1  1  0  0  0
  5  2  1  0  0  0  0
  7 15  1  1  0  0  0
  8 11  1  6  0  0  0
  8 13  1  0  0  0  0
  9 12  1  6  0  0  0
  9  5  1  0  0  0  0
 10 14  1  0  0  0  0
 11 10  1  0  0  0  0
 13  7  1  0  0  0  0
 13  9  1  0  0  0  0
 14 15  1  0  0  0  0
 14  7  1  0  0  0  0
 16  8  1  0  0  0  0
 16 12  1  0  0  0  0
 17 18  1  0  0  0  0
 18 19  1  0  0  0  0
 20  1  1  0  0  0  0
 21 23  1  0  0  0  0
 21 20  1  0  0  0  0
 22 25  1  0  0  0  0
 23 22  2  0  0  0  0
 25 26  1  0  0  0  0
 26 24  2  0  0  0  0
 28 30  1  0  0  0  0
 29 28  1  0  0  0  0
 29 25  1  0  0  0  0
 30 26  1  0  0  0  0
 30 27  1  0  0  0  0
 31 32  1  0  0  0  0
 33 32  1  0  0  0  0
 34 33  2  0  0  0  0
M  END
>  <MODEL>
9

>  <REMARK>
 VINA RESULT:      -6.2      2.793      6.907
  Name = 
  10 active torsions:
  status: ('A' for Active; 'I' for Inactive)
    1  A    between atoms: C_3  and  N_13
    2  A    between atoms: C_4  and  C_31
    3  A    between atoms: N_5  and  C_18
    4  A    between atoms: C_7  and  C_8
    5  A    between atoms: C_8  and  C_28
    6  A    between atoms: C_12  and  C_16
    7  A    between atoms: C_16  and  C_23
    8  A    between atoms: C_17  and  C_29
    9  A    between atoms: C_18  and  C_29
   10  A    between atoms: C_23  and  C_26
                            x       y       z     vdW  Elec       q    Type
                         _______ _______ _______ _____ _____    ______ ____

>  <TORSDO>
F 10

$$$$
