=
 OpenBabel11052417573D

 31 34  0  0  1  0  0  0  0  0999 V2000
  184.3420  178.4610  146.1660 C   0  0  0  0  0  3  0  0  0  0  0  0
  186.8770  177.0600  143.6190 C   0  0  0  0  0  0  0  0  0  0  0  0
  186.2210  177.3190  142.4190 C   0  0  0  0  0  0  0  0  0  0  0  0
  184.3670  178.3620  141.1780 C   0  0  0  0  0  3  0  0  0  0  0  0
  186.3930  177.4630  144.9360 C   0  0  0  0  0  0  0  0  0  0  0  0
  185.9360  178.2070  148.0550 C   0  0  0  0  0  3  0  0  0  0  0  0
  185.0100  178.0420  142.3690 C   0  0  0  0  0  3  0  0  0  0  0  0
  188.9170  176.2040  144.7010 C   0  0  0  0  0  0  0  0  0  0  0  0
  184.6660  178.5660  147.4430 C   0  0  0  0  0  3  0  0  0  0  0  0
  187.9020  176.2270  141.0840 C   0  0  0  0  0  3  0  0  0  0  0  0
  184.9240  177.9730  139.9700 C   0  0  0  0  0  3  0  0  0  0  0  0
  188.4700  176.6640  145.9210 C   0  0  0  0  0  3  0  0  0  0  0  0
  188.1340  176.3810  143.5560 C   0  0  0  0  0  0  0  0  0  0  0  0
  185.1530  177.9700  145.0490 C   0  0  0  0  0  3  0  0  0  0  0  0
  186.7640  176.8060  138.3720 Cl  0  0  0  0  0  0  0  0  0  0  0  0
  187.2360  177.2760  146.0700 C   0  0  0  0  0  0  0  0  0  0  0  0
  186.9960  177.6680  147.4690 C   0  0  0  0  0  3  0  0  0  0  0  0
  188.6310  175.7540  142.2840 C   0  0  0  0  0  3  0  0  0  0  0  0
  186.7690  176.9210  141.1560 C   0  0  0  0  0  0  0  0  0  0  0  0
  186.1190  177.2630  139.9480 C   0  0  2  0  0  3  0  0  0  0  0  0
  190.2590  175.5360  144.6520 C   0  0  0  0  0  2  0  0  0  0  0  0
  191.7120  177.5080  144.1140 C   0  0  0  0  0  1  0  0  0  0  0  0
  191.3550  176.4700  145.1640 C   0  0  2  0  0  3  0  0  0  0  0  0
  192.4110  175.1060  146.8460 O   0  0  0  0  0  1  0  0  0  0  0  0
  192.6050  175.7020  145.5950 C   0  0  2  0  0  3  0  0  0  0  0  0
  194.0640  177.0900  146.9170 O   0  0  0  0  0  1  0  0  0  0  0  0
  193.8420  176.6040  145.6250 C   0  0  1  0  0  3  0  0  0  0  0  0
  195.0970  175.8970  145.1050 C   0  0  0  0  0  2  0  0  0  0  0  0
  195.4780  176.3410  143.7300 C   0  0  0  0  0  0  0  0  0  0  0  0
  194.7110  176.1110  142.7590 O   0  0  0  0  0  0  0  0  0  0  0  0
  196.6630  177.0330  143.5270 O   0  0  0  0  0  1  0  0  0  0  0  0
  1  9  1  0  0  0  0
  2  5  2  0  0  0  0
  3  2  1  0  0  0  0
  4  7  1  0  0  0  0
  5 14  1  0  0  0  0
  5 16  1  0  0  0  0
  7  3  2  0  0  0  0
  8 12  2  0  0  0  0
  9  6  2  0  0  0  0
 10 19  2  0  0  0  0
 10 18  1  0  0  0  0
 11  4  2  0  0  0  0
 12 16  1  0  0  0  0
 13  2  1  0  0  0  0
 13  8  1  0  0  0  0
 14  1  2  0  0  0  0
 16 17  2  0  0  0  0
 17  6  1  0  0  0  0
 18 13  2  0  0  0  0
 19  3  1  0  0  0  0
 20 15  1  1  0  0  0
 20 11  1  0  0  0  0
 20 19  1  0  0  0  0
 21  8  1  0  0  0  0
 21 23  1  0  0  0  0
 23 22  1  6  0  0  0
 23 25  1  0  0  0  0
 25 27  1  0  0  0  0
 25 24  1  1  0  0  0
 27 26  1  1  0  0  0
 28 27  1  0  0  0  0
 29 28  1  0  0  0  0
 30 29  2  0  0  0  0
 31 29  1  0  0  0  0
M  END
>  <MODEL>
1

>  <REMARK>
 VINA RESULT:      -8.4      0.000      0.000
  Name = 
  6 active torsions:
  status: ('A' for Active; 'I' for Inactive)
    1  A    between atoms: C_1  and  C_24
    2  A    between atoms: C_9  and  C_22
    3  A    between atoms: C_9  and  C_23
    4  A    between atoms: C_15  and  C_23
    5  A    between atoms: C_19  and  C_22
    6  A    between atoms: C_19  and  C_24
                            x       y       z     vdW  Elec       q    Type
                         _______ _______ _______ _____ _____    ______ ____

>  <TORSDO>
F 6

$$$$
=
 OpenBabel11052417573D

 31 34  0  0  1  0  0  0  0  0999 V2000
  191.6400  174.9700  146.4030 C   0  0  0  0  0  3  0  0  0  0  0  0
  189.3320  175.4160  143.3450 C   0  0  0  0  0  0  0  0  0  0  0  0
  189.6050  174.2520  142.6330 C   0  0  0  0  0  0  0  0  0  0  0  0
  190.6830  172.0440  142.4760 C   0  0  0  0  0  3  0  0  0  0  0  0
  189.8850  175.7380  144.6580 C   0  0  0  0  0  0  0  0  0  0  0  0
  190.6430  176.9190  147.5770 C   0  0  0  0  0  3  0  0  0  0  0  0
  190.4430  173.2400  143.1460 C   0  0  0  0  0  3  0  0  0  0  0  0
  187.9860  177.4740  143.4810 C   0  0  0  0  0  0  0  0  0  0  0  0
  191.5550  175.7950  147.4320 C   0  0  0  0  0  3  0  0  0  0  0  0
  188.2020  174.8750  140.7760 C   0  0  0  0  0  3  0  0  0  0  0  0
  190.0790  171.8080  141.2510 C   0  0  0  0  0  3  0  0  0  0  0  0
  188.4660  177.7130  144.7500 C   0  0  0  0  0  3  0  0  0  0  0  0
  188.4150  176.3490  142.7680 C   0  0  0  0  0  0  0  0  0  0  0  0
  190.8580  174.9600  145.1640 C   0  0  0  0  0  3  0  0  0  0  0  0
  188.5060  172.3870  139.1320 Cl  0  0  0  0  0  0  0  0  0  0  0  0
  189.4030  176.8870  145.3500 C   0  0  0  0  0  0  0  0  0  0  0  0
  189.7540  177.3620  146.6990 C   0  0  0  0  0  3  0  0  0  0  0  0
  187.9390  176.2160  141.3500 C   0  0  0  0  0  3  0  0  0  0  0  0
  189.0020  173.9860  141.3610 C   0  0  0  0  0  0  0  0  0  0  0  0
  189.2380  172.7630  140.6920 C   0  0  2  0  0  3  0  0  0  0  0  0
  186.9900  178.4420  142.9140 C   0  0  0  0  0  2  0  0  0  0  0  0
  184.7130  177.6780  142.1970 C   0  0  0  0  0  1  0  0  0  0  0  0
  185.5730  178.1020  143.3740 C   0  0  2  0  0  3  0  0  0  0  0  0
  185.7190  180.4120  144.0420 O   0  0  0  0  0  1  0  0  0  0  0  0
  184.9170  179.2680  144.1150 C   0  0  2  0  0  3  0  0  0  0  0  0
  183.2500  178.9350  145.8210 O   0  0  0  0  0  1  0  0  0  0  0  0
  184.6260  178.9180  145.5780 C   0  0  1  0  0  3  0  0  0  0  0  0
  185.2190  177.5680  145.9870 C   0  0  0  0  0  2  0  0  0  0  0  0
  185.9810  177.6410  147.2710 C   0  0  0  0  0  0  0  0  0  0  0  0
  186.2380  178.7590  147.7890 O   0  0  0  0  0  0  0  0  0  0  0  0
  186.3820  176.4750  147.9080 O   0  0  0  0  0  1  0  0  0  0  0  0
  1  9  1  0  0  0  0
  2  5  2  0  0  0  0
  3  7  2  0  0  0  0
  3  2  1  0  0  0  0
  4  7  1  0  0  0  0
  5 14  1  0  0  0  0
  5 16  1  0  0  0  0
  8 12  2  0  0  0  0
  9  6  2  0  0  0  0
 10 18  1  0  0  0  0
 10 19  2  0  0  0  0
 11  4  2  0  0  0  0
 12 16  1  0  0  0  0
 13  2  1  0  0  0  0
 13  8  1  0  0  0  0
 14  1  2  0  0  0  0
 16 17  2  0  0  0  0
 17  6  1  0  0  0  0
 18 13  2  0  0  0  0
 19  3  1  0  0  0  0
 20 15  1  6  0  0  0
 20 11  1  0  0  0  0
 20 19  1  0  0  0  0
 21 23  1  0  0  0  0
 21  8  1  0  0  0  0
 23 22  1  6  0  0  0
 23 25  1  0  0  0  0
 25 24  1  1  0  0  0
 25 27  1  0  0  0  0
 27 26  1  6  0  0  0
 27 28  1  0  0  0  0
 28 29  1  0  0  0  0
 29 30  2  0  0  0  0
 29 31  1  0  0  0  0
M  END
>  <MODEL>
2

>  <REMARK>
 VINA RESULT:      -8.2      3.752      6.814
  Name = 
  6 active torsions:
  status: ('A' for Active; 'I' for Inactive)
    1  A    between atoms: C_1  and  C_24
    2  A    between atoms: C_9  and  C_22
    3  A    between atoms: C_9  and  C_23
    4  A    between atoms: C_15  and  C_23
    5  A    between atoms: C_19  and  C_22
    6  A    between atoms: C_19  and  C_24
                            x       y       z     vdW  Elec       q    Type
                         _______ _______ _______ _____ _____    ______ ____

>  <TORSDO>
F 6

$$$$
=
 OpenBabel11052417573D

 31 34  0  0  1  0  0  0  0  0999 V2000
  184.3150  178.4220  146.2390 C   0  0  0  0  0  3  0  0  0  0  0  0
  186.8050  177.2250  143.5470 C   0  0  0  0  0  0  0  0  0  0  0  0
  186.0630  177.4300  142.3880 C   0  0  0  0  0  0  0  0  0  0  0  0
  184.0650  178.3200  141.2570 C   0  0  0  0  0  3  0  0  0  0  0  0
  186.3660  177.5900  144.8910 C   0  0  0  0  0  0  0  0  0  0  0  0
  186.0290  178.2980  148.0340 C   0  0  0  0  0  3  0  0  0  0  0  0
  184.7980  178.0530  142.4090 C   0  0  0  0  0  3  0  0  0  0  0  0
  188.9650  176.5360  144.5100 C   0  0  0  0  0  0  0  0  0  0  0  0
  184.7020  178.5540  147.4960 C   0  0  0  0  0  3  0  0  0  0  0  0
  187.7480  176.4730  140.9560 C   0  0  0  0  0  3  0  0  0  0  0  0
  184.5820  177.9750  140.0180 C   0  0  0  0  0  3  0  0  0  0  0  0
  188.5530  176.9600  145.7540 C   0  0  0  0  0  3  0  0  0  0  0  0
  188.1060  176.6490  143.4110 C   0  0  0  0  0  0  0  0  0  0  0  0
  185.0980  177.9960  145.0760 C   0  0  0  0  0  3  0  0  0  0  0  0
  186.4160  176.9560  138.3140 Cl  0  0  0  0  0  0  0  0  0  0  0  0
  187.2850  177.4720  145.9760 C   0  0  0  0  0  0  0  0  0  0  0  0
  187.0930  177.8450  147.3870 C   0  0  0  0  0  3  0  0  0  0  0  0
  188.5790  176.0620  142.1120 C   0  0  0  0  0  3  0  0  0  0  0  0
  186.5690  177.0750  141.0950 C   0  0  0  0  0  0  0  0  0  0  0  0
  185.8270  177.3620  139.9260 C   0  0  2  0  0  3  0  0  0  0  0  0
  190.3500  175.9770  144.3820 C   0  0  0  0  0  2  0  0  0  0  0  0
  191.3450  178.0780  143.4430 C   0  0  0  0  0  1  0  0  0  0  0  0
  191.4020  177.0690  144.5770 C   0  0  2  0  0  3  0  0  0  0  0  0
  193.1240  175.7120  143.5790 O   0  0  0  0  0  1  0  0  0  0  0  0
  192.8120  176.4900  144.6980 C   0  0  2  0  0  3  0  0  0  0  0  0
  194.1980  174.9830  145.9670 O   0  0  0  0  0  1  0  0  0  0  0  0
  192.9780  175.6650  145.9780 C   0  0  1  0  0  3  0  0  0  0  0  0
  192.8610  176.5170  147.2450 C   0  0  0  0  0  2  0  0  0  0  0  0
  191.5310  176.3740  147.9120 C   0  0  0  0  0  0  0  0  0  0  0  0
  190.9970  175.2390  148.0150 O   0  0  0  0  0  0  0  0  0  0  0  0
  190.8970  177.4880  148.4430 O   0  0  0  0  0  1  0  0  0  0  0  0
  1  9  1  0  0  0  0
  2  5  2  0  0  0  0
  3  7  2  0  0  0  0
  3  2  1  0  0  0  0
  4  7  1  0  0  0  0
  5 14  1  0  0  0  0
  5 16  1  0  0  0  0
  8 12  2  0  0  0  0
  9  6  2  0  0  0  0
 10 19  2  0  0  0  0
 10 18  1  0  0  0  0
 11  4  2  0  0  0  0
 12 16  1  0  0  0  0
 13  2  1  0  0  0  0
 13  8  1  0  0  0  0
 14  1  2  0  0  0  0
 16 17  2  0  0  0  0
 17  6  1  0  0  0  0
 18 13  2  0  0  0  0
 19  3  1  0  0  0  0
 20 15  1  1  0  0  0
 20 11  1  0  0  0  0
 20 19  1  0  0  0  0
 21  8  1  0  0  0  0
 21 23  1  0  0  0  0
 23 22  1  6  0  0  0
 23 25  1  0  0  0  0
 25 24  1  6  0  0  0
 25 27  1  0  0  0  0
 27 26  1  6  0  0  0
 27 28  1  0  0  0  0
 28 29  1  0  0  0  0
 29 30  2  0  0  0  0
 29 31  1  0  0  0  0
M  END
>  <MODEL>
3

>  <REMARK>
 VINA RESULT:      -8.2      1.200      2.316
  Name = 
  6 active torsions:
  status: ('A' for Active; 'I' for Inactive)
    1  A    between atoms: C_1  and  C_24
    2  A    between atoms: C_9  and  C_22
    3  A    between atoms: C_9  and  C_23
    4  A    between atoms: C_15  and  C_23
    5  A    between atoms: C_19  and  C_22
    6  A    between atoms: C_19  and  C_24
                            x       y       z     vdW  Elec       q    Type
                         _______ _______ _______ _____ _____    ______ ____

>  <TORSDO>
F 6

$$$$
=
 OpenBabel11052417573D

 31 34  0  0  1  0  0  0  0  0999 V2000
  188.6600  174.7030  140.6680 C   0  0  0  0  0  3  0  0  0  0  0  0
  187.8170  175.8900  144.2390 C   0  0  0  0  0  0  0  0  0  0  0  0
  186.7030  176.6900  143.9990 C   0  0  0  0  0  0  0  0  0  0  0  0
  184.9700  177.5380  142.4690 C   0  0  0  0  0  3  0  0  0  0  0  0
  188.5140  175.1080  143.2230 C   0  0  0  0  0  0  0  0  0  0  0  0
  190.3470  173.0750  141.4900 C   0  0  0  0  0  3  0  0  0  0  0  0
  186.1170  176.7920  142.7200 C   0  0  0  0  0  2  0  0  0  0  0  0
  189.3190  174.9140  145.9300 C   0  0  0  0  0  0  0  0  0  0  0  0
  189.5720  173.7670  140.4720 C   0  0  0  0  0  3  0  0  0  0  0  0
  186.5180  177.3910  146.2960 C   0  0  0  0  0  3  0  0  0  0  0  0
  184.3500  178.2160  143.5070 C   0  0  0  0  0  3  0  0  0  0  0  0
  189.9080  174.1300  144.9620 C   0  0  0  0  0  3  0  0  0  0  0  0
  188.2920  175.8000  145.5850 C   0  0  0  0  0  0  0  0  0  0  0  0
  188.1900  175.2800  141.9300 C   0  0  0  0  0  3  0  0  0  0  0  0
  184.0260  179.0410  146.0600 Cl  0  0  0  0  0  0  0  0  0  0  0  0
  189.5430  174.2070  143.6280 C   0  0  0  0  0  0  0  0  0  0  0  0
  190.3250  173.2730  142.8000 C   0  0  0  0  0  3  0  0  0  0  0  0
  187.7770  176.7040  146.6680 C   0  0  0  0  0  3  0  0  0  0  0  0
  186.0470  177.4080  145.0510 C   0  0  0  0  0  0  0  0  0  0  0  0
  184.8730  178.1530  144.7940 C   0  0  0  0  0  0  0  0  0  0  0  0
  189.8030  174.7690  147.3410 C   0  0  0  0  0  2  0  0  0  0  0  0
  191.0830  176.8380  147.9460 C   0  0  0  0  0  1  0  0  0  0  0  0
  191.1900  175.3870  147.5110 C   0  0  2  0  0  3  0  0  0  0  0  0
  193.1080  174.4130  146.4260 O   0  0  0  0  0  1  0  0  0  0  0  0
  192.0250  175.2780  146.2340 C   0  0  2  0  0  3  0  0  0  0  0  0
  193.8620  176.8300  146.1090 O   0  0  0  0  0  1  0  0  0  0  0  0
  192.5210  176.6480  145.7620 C   0  0  1  0  0  3  0  0  0  0  0  0
  192.3330  176.8520  144.2560 C   0  0  0  0  0  2  0  0  0  0  0  0
  191.1060  177.6410  143.9330 C   0  0  0  0  0  0  0  0  0  0  0  0
  190.4730  178.2270  144.8500 O   0  0  0  0  0  1  0  0  0  0  0  0
  190.6780  177.7530  142.6180 O   0  0  0  0  0  0  0  0  0  0  0  0
  1 14  1  0  0  0  0
  2 13  1  0  0  0  0
  3  2  2  0  0  0  0
  3 19  1  0  0  0  0
  4  7  1  0  0  0  0
  4 11  2  0  0  0  0
  5 16  1  0  0  0  0
  5  2  1  0  0  0  0
  6 17  2  0  0  0  0
  7  3  1  0  0  0  0
  8 21  1  0  0  0  0
  9  1  2  0  0  0  0
  9  6  1  0  0  0  0
 10 18  2  0  0  0  0
 11 20  1  0  0  0  0
 12  8  1  0  0  0  0
 13  8  2  0  0  0  0
 13 18  1  0  0  0  0
 14  5  2  0  0  0  0
 16 12  2  0  0  0  0
 17 16  1  0  0  0  0
 19 10  1  0  0  0  0
 20 19  2  0  0  0  0
 20 15  1  0  0  0  0
 21 23  1  0  0  0  0
 23 22  1  6  0  0  0
 25 24  1  1  0  0  0
 25 23  1  0  0  0  0
 27 26  1  6  0  0  0
 27 25  1  0  0  0  0
 28 27  1  0  0  0  0
 29 28  1  0  0  0  0
 29 30  1  0  0  0  0
 31 29  2  0  0  0  0
M  END
>  <MODEL>
4

>  <REMARK>
 VINA RESULT:      -8.2      2.418      4.734
  Name = 
  6 active torsions:
  status: ('A' for Active; 'I' for Inactive)
    1  A    between atoms: C_1  and  C_24
    2  A    between atoms: C_9  and  C_22
    3  A    between atoms: C_9  and  C_23
    4  A    between atoms: C_15  and  C_23
    5  A    between atoms: C_19  and  C_22
    6  A    between atoms: C_19  and  C_24
                            x       y       z     vdW  Elec       q    Type
                         _______ _______ _______ _____ _____    ______ ____

>  <TORSDO>
F 6

$$$$
=
 OpenBabel11052417573D

 31 34  0  0  1  0  0  0  0  0999 V2000
  190.5210  172.4700  141.6100 C   0  0  0  0  0  3  0  0  0  0  0  0
  189.6160  175.5220  143.7880 C   0  0  0  0  0  0  0  0  0  0  0  0
  190.5180  175.3780  144.8370 C   0  0  0  0  0  0  0  0  0  0  0  0
  192.4600  174.2520  145.8480 C   0  0  0  0  0  3  0  0  0  0  0  0
  189.5680  174.6630  142.6080 C   0  0  0  0  0  0  0  0  0  0  0  0
  189.0730  173.2360  139.7420 C   0  0  0  0  0  3  0  0  0  0  0  0
  191.5130  174.3780  144.8380 C   0  0  0  0  0  2  0  0  0  0  0  0
  187.8460  176.9040  142.7740 C   0  0  0  0  0  0  0  0  0  0  0  0
  189.9990  172.3300  140.4040 C   0  0  0  0  0  3  0  0  0  0  0  0
  189.6320  177.2540  146.0610 C   0  0  0  0  0  3  0  0  0  0  0  0
  192.4550  175.1420  146.9110 C   0  0  0  0  0  3  0  0  0  0  0  0
  187.8770  176.1220  141.6400 C   0  0  0  0  0  3  0  0  0  0  0  0
  188.6920  176.6120  143.8500 C   0  0  0  0  0  0  0  0  0  0  0  0
  190.3180  173.5480  142.5820 C   0  0  0  0  0  3  0  0  0  0  0  0
  191.5650  177.2470  148.3520 Cl  0  0  0  0  0  0  0  0  0  0  0  0
  188.7010  175.0140  141.5310 C   0  0  0  0  0  0  0  0  0  0  0  0
  188.5400  174.3490  140.2270 C   0  0  0  0  0  3  0  0  0  0  0  0
  188.5230  177.4350  145.0950 C   0  0  0  0  0  3  0  0  0  0  0  0
  190.5300  176.2780  145.9530 C   0  0  0  0  0  0  0  0  0  0  0  0
  191.5050  176.1550  146.9690 C   0  0  0  0  0  0  0  0  0  0  0  0
  186.9020  178.0680  142.7990 C   0  0  0  0  0  2  0  0  0  0  0  0
  185.1210  178.2900  141.0480 C   0  0  0  0  0  1  0  0  0  0  0  0
  185.4980  177.6430  142.3700 C   0  0  2  0  0  3  0  0  0  0  0  0
  183.3430  178.6010  142.8610 O   0  0  0  0  0  1  0  0  0  0  0  0
  184.4510  177.9700  143.4360 C   0  0  2  0  0  3  0  0  0  0  0  0
  184.8600  180.1950  144.2630 O   0  0  0  0  0  1  0  0  0  0  0  0
  185.0330  178.8390  144.5550 C   0  0  1  0  0  3  0  0  0  0  0  0
  184.4310  178.5130  145.9240 C   0  0  0  0  0  2  0  0  0  0  0  0
  185.4540  178.0260  146.8990 C   0  0  0  0  0  0  0  0  0  0  0  0
  185.6110  176.7910  147.0830 O   0  0  0  0  0  0  0  0  0  0  0  0
  186.2510  178.9340  147.5810 O   0  0  0  0  0  1  0  0  0  0  0  0
  1 14  1  0  0  0  0
  2 13  1  0  0  0  0
  2  3  2  0  0  0  0
  3  7  1  0  0  0  0
  3 19  1  0  0  0  0
  4 11  2  0  0  0  0
  5  2  1  0  0  0  0
  6 17  2  0  0  0  0
  6  9  1  0  0  0  0
  7  4  1  0  0  0  0
  8 21  1  0  0  0  0
  8 13  2  0  0  0  0
  9  1  2  0  0  0  0
 11 20  1  0  0  0  0
 12  8  1  0  0  0  0
 13 18  1  0  0  0  0
 14  5  2  0  0  0  0
 16 12  2  0  0  0  0
 16  5  1  0  0  0  0
 17 16  1  0  0  0  0
 18 10  2  0  0  0  0
 19 10  1  0  0  0  0
 19 20  2  0  0  0  0
 20 15  1  0  0  0  0
 23 22  1  6  0  0  0
 23 21  1  0  0  0  0
 23 25  1  0  0  0  0
 25 24  1  6  0  0  0
 25 27  1  0  0  0  0
 27 26  1  6  0  0  0
 27 28  1  0  0  0  0
 28 29  1  0  0  0  0
 29 30  2  0  0  0  0
 29 31  1  0  0  0  0
M  END
>  <MODEL>
5

>  <REMARK>
 VINA RESULT:      -7.9      4.167      8.153
  Name = 
  6 active torsions:
  status: ('A' for Active; 'I' for Inactive)
    1  A    between atoms: C_1  and  C_24
    2  A    between atoms: C_9  and  C_22
    3  A    between atoms: C_9  and  C_23
    4  A    between atoms: C_15  and  C_23
    5  A    between atoms: C_19  and  C_22
    6  A    between atoms: C_19  and  C_24
                            x       y       z     vdW  Elec       q    Type
                         _______ _______ _______ _____ _____    ______ ____

>  <TORSDO>
F 6

$$$$
=
 OpenBabel11052417573D

 31 34  0  0  1  0  0  0  0  0999 V2000
  184.2050  178.4960  146.1240 C   0  0  0  0  0  3  0  0  0  0  0  0
  186.7950  177.1770  143.5890 C   0  0  0  0  0  0  0  0  0  0  0  0
  186.1190  177.3740  142.3890 C   0  0  0  0  0  0  0  0  0  0  0  0
  184.2050  178.2900  141.1390 C   0  0  0  0  0  3  0  0  0  0  0  0
  186.2990  177.5820  144.9010 C   0  0  0  0  0  0  0  0  0  0  0  0
  185.8220  178.3690  148.0070 C   0  0  0  0  0  3  0  0  0  0  0  0
  184.8710  178.0300  142.3320 C   0  0  0  0  0  3  0  0  0  0  0  0
  188.8850  176.4540  144.6750 C   0  0  0  0  0  0  0  0  0  0  0  0
  184.5310  178.6460  147.3960 C   0  0  0  0  0  3  0  0  0  0  0  0
  187.8480  176.3440  141.0650 C   0  0  0  0  0  3  0  0  0  0  0  0
  184.7740  177.9050  139.9350 C   0  0  0  0  0  3  0  0  0  0  0  0
  188.4220  176.9160  145.8870 C   0  0  0  0  0  3  0  0  0  0  0  0
  188.0860  176.5640  143.5310 C   0  0  0  0  0  0  0  0  0  0  0  0
  185.0340  178.0250  145.0120 C   0  0  0  0  0  3  0  0  0  0  0  0
  186.6640  176.8020  138.3490 Cl  0  0  0  0  0  0  0  0  0  0  0  0
  187.1580  177.4650  146.0330 C   0  0  0  0  0  0  0  0  0  0  0  0
  186.9050  177.8740  147.4240 C   0  0  0  0  0  3  0  0  0  0  0  0
  188.6080  175.9370  142.2700 C   0  0  0  0  0  3  0  0  0  0  0  0
  186.6790  176.9780  141.1310 C   0  0  0  0  0  0  0  0  0  0  0  0
  186.0050  177.2580  139.9200 C   0  0  2  0  0  3  0  0  0  0  0  0
  190.2590  175.8570  144.6300 C   0  0  0  0  0  2  0  0  0  0  0  0
  191.5720  177.8460  143.8490 C   0  0  0  0  0  1  0  0  0  0  0  0
  191.3190  176.8930  145.0040 C   0  0  2  0  0  3  0  0  0  0  0  0
  193.6790  177.1610  145.4080 O   0  0  0  0  0  1  0  0  0  0  0  0
  192.6290  176.2380  145.4460 C   0  0  2  0  0  3  0  0  0  0  0  0
  194.1120  175.2570  143.8220 O   0  0  0  0  0  1  0  0  0  0  0  0
  192.9680  175.0150  144.5880 C   0  0  1  0  0  3  0  0  0  0  0  0
  193.1510  173.7450  145.4230 C   0  0  0  0  0  2  0  0  0  0  0  0
  192.8720  172.5010  144.6430 C   0  0  0  0  0  0  0  0  0  0  0  0
  193.8210  171.7530  144.2910 O   0  0  0  0  0  0  0  0  0  0  0  0
  191.5650  172.1550  144.3320 O   0  0  0  0  0  1  0  0  0  0  0  0
  1  9  1  0  0  0  0
  2  5  2  0  0  0  0
  3  2  1  0  0  0  0
  4  7  1  0  0  0  0
  5 14  1  0  0  0  0
  5 16  1  0  0  0  0
  7  3  2  0  0  0  0
  8 12  2  0  0  0  0
  9  6  2  0  0  0  0
 10 19  2  0  0  0  0
 10 18  1  0  0  0  0
 11  4  2  0  0  0  0
 12 16  1  0  0  0  0
 13  2  1  0  0  0  0
 13  8  1  0  0  0  0
 14  1  2  0  0  0  0
 16 17  2  0  0  0  0
 17  6  1  0  0  0  0
 18 13  2  0  0  0  0
 19  3  1  0  0  0  0
 20 15  1  1  0  0  0
 20 11  1  0  0  0  0
 20 19  1  0  0  0  0
 21  8  1  0  0  0  0
 21 23  1  0  0  0  0
 23 22  1  6  0  0  0
 23 25  1  0  0  0  0
 25 24  1  6  0  0  0
 27 26  1  1  0  0  0
 27 28  1  0  0  0  0
 27 25  1  0  0  0  0
 29 28  1  0  0  0  0
 30 29  2  0  0  0  0
 31 29  1  0  0  0  0
M  END
>  <MODEL>
6

>  <REMARK>
 VINA RESULT:      -7.9      1.375      2.048
  Name = 
  6 active torsions:
  status: ('A' for Active; 'I' for Inactive)
    1  A    between atoms: C_1  and  C_24
    2  A    between atoms: C_9  and  C_22
    3  A    between atoms: C_9  and  C_23
    4  A    between atoms: C_15  and  C_23
    5  A    between atoms: C_19  and  C_22
    6  A    between atoms: C_19  and  C_24
                            x       y       z     vdW  Elec       q    Type
                         _______ _______ _______ _____ _____    ______ ____

>  <TORSDO>
F 6

$$$$
=
 OpenBabel11052417573D

 31 34  0  0  1  0  0  0  0  0999 V2000
  184.1580  178.4410  146.3550 C   0  0  0  0  0  3  0  0  0  0  0  0
  186.7870  177.5590  143.6760 C   0  0  0  0  0  0  0  0  0  0  0  0
  186.0280  177.6570  142.5140 C   0  0  0  0  0  0  0  0  0  0  0  0
  183.9330  178.2700  141.3740 C   0  0  0  0  0  3  0  0  0  0  0  0
  186.3020  177.8730  145.0160 C   0  0  0  0  0  0  0  0  0  0  0  0
  185.8690  178.5550  148.1530 C   0  0  0  0  0  3  0  0  0  0  0  0
  184.6920  178.1100  142.5290 C   0  0  0  0  0  3  0  0  0  0  0  0
  189.0170  177.1650  144.6460 C   0  0  0  0  0  0  0  0  0  0  0  0
  184.5200  178.6310  147.6120 C   0  0  0  0  0  3  0  0  0  0  0  0
  187.8260  176.9180  141.0910 C   0  0  0  0  0  3  0  0  0  0  0  0
  184.4930  177.9860  140.1380 C   0  0  0  0  0  3  0  0  0  0  0  0
  188.5510  177.5410  145.8860 C   0  0  0  0  0  3  0  0  0  0  0  0
  188.1530  177.1560  143.5450 C   0  0  0  0  0  0  0  0  0  0  0  0
  184.9910  178.1120  145.1960 C   0  0  0  0  0  3  0  0  0  0  0  0
  186.4480  177.2030  138.4440 Cl  0  0  0  0  0  0  0  0  0  0  0  0
  187.2260  177.8840  146.1020 C   0  0  0  0  0  0  0  0  0  0  0  0
  186.9840  178.2400  147.5110 C   0  0  0  0  0  3  0  0  0  0  0  0
  188.7010  176.6270  142.2510 C   0  0  0  0  0  3  0  0  0  0  0  0
  186.5780  177.3620  141.2240 C   0  0  0  0  0  0  0  0  0  0  0  0
  185.8080  177.5410  140.0520 C   0  0  2  0  0  3  0  0  0  0  0  0
  190.4640  176.7910  144.5240 C   0  0  0  0  0  2  0  0  0  0  0  0
  192.1030  174.9360  144.9210 C   0  0  0  0  0  1  0  0  0  0  0  0
  190.7780  175.5430  145.3480 C   0  0  2  0  0  3  0  0  0  0  0  0
  189.3170  174.0310  146.5240 O   0  0  0  0  0  1  0  0  0  0  0  0
  189.6640  174.4990  145.2520 C   0  0  2  0  0  3  0  0  0  0  0  0
  189.8780  172.1120  145.0130 O   0  0  0  0  0  1  0  0  0  0  0  0
  190.0600  173.3280  144.3480 C   0  0  1  0  0  3  0  0  0  0  0  0
  189.2930  173.3240  143.0230 C   0  0  0  0  0  2  0  0  0  0  0  0
  190.1790  173.0600  141.8480 C   0  0  0  0  0  0  0  0  0  0  0  0
  190.9720  173.9500  141.4450 O   0  0  0  0  0  1  0  0  0  0  0  0
  190.1480  171.8240  141.2190 O   0  0  0  0  0  0  0  0  0  0  0  0
  1  9  1  0  0  0  0
  2  5  2  0  0  0  0
  3  7  2  0  0  0  0
  3  2  1  0  0  0  0
  4  7  1  0  0  0  0
  5 14  1  0  0  0  0
  5 16  1  0  0  0  0
  8 12  2  0  0  0  0
  9  6  2  0  0  0  0
 10 19  2  0  0  0  0
 10 18  1  0  0  0  0
 11  4  2  0  0  0  0
 12 16  1  0  0  0  0
 13  2  1  0  0  0  0
 13  8  1  0  0  0  0
 14  1  2  0  0  0  0
 16 17  2  0  0  0  0
 17  6  1  0  0  0  0
 18 13  2  0  0  0  0
 19  3  1  0  0  0  0
 20 15  1  1  0  0  0
 20 11  1  0  0  0  0
 20 19  1  0  0  0  0
 21  8  1  0  0  0  0
 21 23  1  0  0  0  0
 23 22  1  6  0  0  0
 25 23  1  0  0  0  0
 25 24  1  1  0  0  0
 27 26  1  1  0  0  0
 27 25  1  0  0  0  0
 28 27  1  0  0  0  0
 29 28  1  0  0  0  0
 30 29  1  0  0  0  0
 31 29  2  0  0  0  0
M  END
>  <MODEL>
7

>  <REMARK>
 VINA RESULT:      -7.7      2.218      3.073
  Name = 
  6 active torsions:
  status: ('A' for Active; 'I' for Inactive)
    1  A    between atoms: C_1  and  C_24
    2  A    between atoms: C_9  and  C_22
    3  A    between atoms: C_9  and  C_23
    4  A    between atoms: C_15  and  C_23
    5  A    between atoms: C_19  and  C_22
    6  A    between atoms: C_19  and  C_24
                            x       y       z     vdW  Elec       q    Type
                         _______ _______ _______ _____ _____    ______ ____

>  <TORSDO>
F 6

$$$$
=
 OpenBabel11052417573D

 31 34  0  0  1  0  0  0  0  0999 V2000
  193.6050  175.4920  145.1040 C   0  0  0  0  0  3  0  0  0  0  0  0
  190.0800  175.1270  143.5820 C   0  0  0  0  0  0  0  0  0  0  0  0
  190.3600  174.3930  142.4340 C   0  0  0  0  0  0  0  0  0  0  0  0
  191.9410  173.1120  141.0470 C   0  0  0  0  0  3  0  0  0  0  0  0
  191.0640  175.4900  144.5990 C   0  0  0  0  0  0  0  0  0  0  0  0
  192.7130  176.4460  147.2180 C   0  0  0  0  0  3  0  0  0  0  0  0
  191.6510  173.8960  142.1590 C   0  0  0  0  0  3  0  0  0  0  0  0
  188.3400  176.1460  144.9970 C   0  0  0  0  0  0  0  0  0  0  0  0
  193.7620  175.9920  146.3180 C   0  0  0  0  0  3  0  0  0  0  0  0
  188.0850  174.4670  141.6460 C   0  0  0  0  0  3  0  0  0  0  0  0
  190.9310  172.7810  140.1570 C   0  0  0  0  0  3  0  0  0  0  0  0
  189.2770  176.4080  145.9720 C   0  0  0  0  0  3  0  0  0  0  0  0
  188.7250  175.5250  143.8040 C   0  0  0  0  0  0  0  0  0  0  0  0
  192.3670  175.2630  144.3560 C   0  0  0  0  0  3  0  0  0  0  0  0
  188.4060  172.7700  139.1950 Cl  0  0  0  0  0  0  0  0  0  0  0  0
  190.6190  176.1070  145.8050 C   0  0  0  0  0  0  0  0  0  0  0  0
  191.4090  176.4900  146.9870 C   0  0  0  0  0  3  0  0  0  0  0  0
  187.6740  175.3760  142.7410 C   0  0  0  0  0  3  0  0  0  0  0  0
  189.3380  174.0450  141.4920 C   0  0  0  0  0  0  0  0  0  0  0  0
  189.6340  173.2350  140.3720 C   0  0  2  0  0  3  0  0  0  0  0  0
  186.9170  176.5310  145.2700 C   0  0  0  0  0  2  0  0  0  0  0  0
  186.1560  176.7890  147.6450 C   0  0  0  0  0  1  0  0  0  0  0  0
  186.8250  177.4760  146.4670 C   0  0  2  0  0  3  0  0  0  0  0  0
  185.6820  179.4340  147.2830 O   0  0  0  0  0  1  0  0  0  0  0  0
  186.0850  178.7690  146.1200 C   0  0  2  0  0  3  0  0  0  0  0  0
  183.6860  178.6670  145.9300 O   0  0  0  0  0  1  0  0  0  0  0  0
  184.8770  178.5060  145.2160 C   0  0  1  0  0  3  0  0  0  0  0  0
  184.8700  179.3970  143.9710 C   0  0  0  0  0  2  0  0  0  0  0  0
  185.3480  178.6800  142.7500 C   0  0  0  0  0  0  0  0  0  0  0  0
  184.5240  178.0980  141.9980 O   0  0  0  0  0  0  0  0  0  0  0  0
  186.6990  178.6800  142.4300 O   0  0  0  0  0  1  0  0  0  0  0  0
  1  9  1  0  0  0  0
  2 13  1  0  0  0  0
  2  5  2  0  0  0  0
  3  2  1  0  0  0  0
  4  7  1  0  0  0  0
  5 16  1  0  0  0  0
  7  3  2  0  0  0  0
  8 21  1  0  0  0  0
  8 12  2  0  0  0  0
  9  6  2  0  0  0  0
 10 18  1  0  0  0  0
 11 20  1  0  0  0  0
 11  4  2  0  0  0  0
 13  8  1  0  0  0  0
 14  5  1  0  0  0  0
 14  1  2  0  0  0  0
 16 12  1  0  0  0  0
 16 17  2  0  0  0  0
 17  6  1  0  0  0  0
 18 13  2  0  0  0  0
 19 10  2  0  0  0  0
 19  3  1  0  0  0  0
 20 15  1  6  0  0  0
 20 19  1  0  0  0  0
 21 23  1  0  0  0  0
 23 22  1  1  0  0  0
 25 23  1  0  0  0  0
 25 24  1  1  0  0  0
 27 26  1  1  0  0  0
 27 25  1  0  0  0  0
 28 27  1  0  0  0  0
 29 28  1  0  0  0  0
 30 29  2  0  0  0  0
 31 29  1  0  0  0  0
M  END
>  <MODEL>
8

>  <REMARK>
 VINA RESULT:      -7.7      3.731      6.968
  Name = 
  6 active torsions:
  status: ('A' for Active; 'I' for Inactive)
    1  A    between atoms: C_1  and  C_24
    2  A    between atoms: C_9  and  C_22
    3  A    between atoms: C_9  and  C_23
    4  A    between atoms: C_15  and  C_23
    5  A    between atoms: C_19  and  C_22
    6  A    between atoms: C_19  and  C_24
                            x       y       z     vdW  Elec       q    Type
                         _______ _______ _______ _____ _____    ______ ____

>  <TORSDO>
F 6

$$$$
=
 OpenBabel11052417573D

 31 34  0  0  1  0  0  0  0  0999 V2000
  185.1380  178.8330  144.9690 C   0  0  0  0  0  3  0  0  0  0  0  0
  187.8390  176.1300  144.4500 C   0  0  0  0  0  0  0  0  0  0  0  0
  187.8060  175.9810  143.0670 C   0  0  0  0  0  0  0  0  0  0  0  0
  187.0050  176.7110  140.8570 C   0  0  0  0  0  3  0  0  0  0  0  0
  187.0550  177.1060  145.2020 C   0  0  0  0  0  0  0  0  0  0  0  0
  185.7270  179.1170  147.3660 C   0  0  0  0  0  3  0  0  0  0  0  0
  187.0100  176.8050  142.2450 C   0  0  0  0  0  3  0  0  0  0  0  0
  188.9230  175.4720  146.5630 C   0  0  0  0  0  0  0  0  0  0  0  0
  184.9730  179.3950  146.1530 C   0  0  0  0  0  3  0  0  0  0  0  0
  189.4120  174.1840  143.0670 C   0  0  0  0  0  3  0  0  0  0  0  0
  187.8160  175.7800  140.2270 C   0  0  0  0  0  3  0  0  0  0  0  0
  188.2260  176.4530  147.2330 C   0  0  0  0  0  3  0  0  0  0  0  0
  188.7320  175.2910  145.1880 C   0  0  0  0  0  0  0  0  0  0  0  0
  186.1020  177.8070  144.5630 C   0  0  0  0  0  3  0  0  0  0  0  0
  189.6340  173.7840  140.1040 Cl  0  0  0  0  0  0  0  0  0  0  0  0
  187.2990  177.2630  146.5980 C   0  0  0  0  0  0  0  0  0  0  0  0
  186.6910  178.2230  147.5340 C   0  0  0  0  0  3  0  0  0  0  0  0
  189.4380  174.1300  144.5470 C   0  0  0  0  0  3  0  0  0  0  0  0
  188.6270  175.0210  142.3910 C   0  0  0  0  0  0  0  0  0  0  0  0
  188.6300  174.9410  140.9790 C   0  0  2  0  0  3  0  0  0  0  0  0
  189.8880  174.6360  147.3480 C   0  0  0  0  0  2  0  0  0  0  0  0
  191.0540  176.7900  147.8840 C   0  0  0  0  0  1  0  0  0  0  0  0
  191.2390  175.3370  147.4810 C   0  0  2  0  0  3  0  0  0  0  0  0
  193.1460  174.3810  146.3620 O   0  0  0  0  0  1  0  0  0  0  0  0
  192.0600  175.2460  146.1940 C   0  0  2  0  0  3  0  0  0  0  0  0
  193.8920  176.8050  146.0710 O   0  0  0  0  0  1  0  0  0  0  0  0
  192.5480  176.6230  145.7340 C   0  0  1  0  0  3  0  0  0  0  0  0
  192.3460  176.8470  144.2330 C   0  0  0  0  0  2  0  0  0  0  0  0
  191.1350  177.6700  143.9330 C   0  0  0  0  0  0  0  0  0  0  0  0
  190.7250  177.7800  142.7480 O   0  0  0  0  0  0  0  0  0  0  0  0
  190.4440  178.2890  144.9650 O   0  0  0  0  0  1  0  0  0  0  0  0
  1  9  1  0  0  0  0
  2 13  1  0  0  0  0
  2  5  2  0  0  0  0
  3  2  1  0  0  0  0
  4  7  1  0  0  0  0
  5 16  1  0  0  0  0
  6 17  1  0  0  0  0
  7  3  2  0  0  0  0
  8 12  2  0  0  0  0
  8 21  1  0  0  0  0
  9  6  2  0  0  0  0
 10 18  1  0  0  0  0
 11  4  2  0  0  0  0
 11 20  1  0  0  0  0
 13  8  1  0  0  0  0
 14  1  2  0  0  0  0
 14  5  1  0  0  0  0
 16 12  1  0  0  0  0
 16 17  2  0  0  0  0
 18 13  2  0  0  0  0
 19  3  1  0  0  0  0
 19 10  2  0  0  0  0
 20 15  1  1  0  0  0
 20 19  1  0  0  0  0
 21 23  1  0  0  0  0
 23 22  1  6  0  0  0
 25 24  1  1  0  0  0
 25 23  1  0  0  0  0
 27 26  1  6  0  0  0
 27 25  1  0  0  0  0
 28 27  1  0  0  0  0
 29 28  1  0  0  0  0
 29 31  1  0  0  0  0
 30 29  2  0  0  0  0
M  END
>  <MODEL>
9

>  <REMARK>
 VINA RESULT:      -7.7      1.894      2.785
  Name = 
  6 active torsions:
  status: ('A' for Active; 'I' for Inactive)
    1  A    between atoms: C_1  and  C_24
    2  A    between atoms: C_9  and  C_22
    3  A    between atoms: C_9  and  C_23
    4  A    between atoms: C_15  and  C_23
    5  A    between atoms: C_19  and  C_22
    6  A    between atoms: C_19  and  C_24
                            x       y       z     vdW  Elec       q    Type
                         _______ _______ _______ _____ _____    ______ ____

>  <TORSDO>
F 6

$$$$
