=
 OpenBabel11052420233D

 34 39  0  0  1  0  0  0  0  0999 V2000
  189.3820  174.4710  142.3680 C   0  0  2  0  0  3  0  0  0  0  0  0
  187.7410  175.4720  140.7120 C   0  0  0  0  0  2  0  0  0  0  0  0
  190.2390  172.7130  140.1750 C   0  0  2  0  0  0  0  0  0  0  0  0
  187.3300  176.9060  142.7210 N   0  0  0  0  0  0  0  0  0  0  0  0
  190.6760  172.4500  141.6240 C   0  0  0  0  0  2  0  0  0  0  0  0
  190.6990  173.7160  142.4690 C   0  0  0  0  0  2  0  0  0  0  0  0
  188.9920  173.4930  140.1360 N   0  0  0  0  0  2  0  0  0  0  0  0
  189.0690  174.7480  140.8890 C   0  0  2  0  0  3  0  0  0  0  0  0
  189.9350  171.3430  139.5940 C   0  0  0  0  0  1  0  0  0  0  0  0
  187.7540  176.8770  141.3110 C   0  0  0  0  0  2  0  0  0  0  0  0
  189.5680  175.7730  143.1250 C   0  0  0  0  0  2  0  0  0  0  0  0
  188.2440  176.2880  143.7110 C   0  0  1  0  0  3  0  0  0  0  0  0
  189.8880  177.7480  145.0150 C   0  0  0  0  0  2  0  0  0  0  0  0
  186.7840  176.1540  146.6110 C   0  0  0  0  0  2  0  0  0  0  0  0
  184.6300  177.4620  146.4820 C   0  0  0  0  0  2  0  0  0  0  0  0
  189.1630  175.2220  146.4950 C   0  0  0  0  0  2  0  0  0  0  0  0
  192.2820  177.1390  145.3970 C   0  0  0  0  0  3  0  0  0  0  0  0
  192.9460  175.1650  146.6320 C   0  0  0  0  0  3  0  0  0  0  0  0
  185.5220  179.4610  145.7360 N   0  0  0  0  0  2  0  0  0  0  0  0
  193.2850  176.3180  145.9210 C   0  0  0  0  0  3  0  0  0  0  0  0
  190.5910  175.6490  146.3150 C   0  0  0  0  0  0  0  0  0  0  0  0
  190.9340  176.8100  145.5760 C   0  0  0  0  0  0  0  0  0  0  0  0
  191.6040  174.8300  146.8250 C   0  0  0  0  0  3  0  0  0  0  0  0
  186.0960  177.4920  146.8750 C   0  0  2  0  0  3  0  0  0  0  0  0
  184.4280  178.8210  145.9110 C   0  0  0  0  0  2  0  0  0  0  0  0
  187.4880  178.3560  144.8660 C   0  0  0  0  0  2  0  0  0  0  0  0
  186.6800  178.7100  146.1290 C   0  0  1  0  0  3  0  0  0  0  0  0
  188.2460  176.4200  146.3210 C   0  0  1  0  0  3  0  0  0  0  0  0
  188.4650  177.1670  144.9860 C   0  0  1  0  0  0  0  0  0  0  0  0
  191.3620  173.3470  139.3080 C   0  0  0  0  0  3  0  0  0  0  0  0
  192.6340  172.5110  139.3070 C   0  0  0  0  0  1  0  0  0  0  0  0
  190.9680  173.6490  137.8700 C   0  0  0  0  0  1  0  0  0  0  0  0
  184.9090  177.5350  142.5420 C   0  0  0  0  0  1  0  0  0  0  0  0
  185.9370  176.4590  142.8790 C   0  0  0  0  0  2  0  0  0  0  0  0
  1  6  1  6  0  0  0
  1 11  1  0  0  0  0
  2 10  1  0  0  0  0
  3  9  1  6  0  0  0
  3  5  1  0  0  0  0
  4 34  1  0  0  0  0
  4 12  1  0  0  0  0
  5  6  1  0  0  0  0
  7  3  1  0  0  0  0
  7  8  1  0  0  0  0
  8  2  1  1  0  0  0
  8  1  1  0  0  0  0
 10  4  1  0  0  0  0
 12 11  1  6  0  0  0
 12 29  1  0  0  0  0
 13 22  1  0  0  0  0
 14 24  1  0  0  0  0
 17 22  2  0  0  0  0
 17 20  1  0  0  0  0
 18 23  1  0  0  0  0
 19 25  1  0  0  0  0
 19 27  1  0  0  0  0
 20 18  2  0  0  0  0
 21 16  1  0  0  0  0
 21 23  2  0  0  0  0
 22 21  1  0  0  0  0
 24 15  1  6  0  0  0
 25 15  1  0  0  0  0
 27 26  1  6  0  0  0
 27 24  1  0  0  0  0
 28 16  1  6  0  0  0
 28 14  1  0  0  0  0
 29 26  1  6  0  0  0
 29 13  1  0  0  0  0
 29 28  1  0  0  0  0
 30  3  1  0  0  0  0
 31 30  1  0  0  0  0
 32 30  1  0  0  0  0
 33 34  1  0  0  0  0
M  END
>  <MODEL>
1

>  <REMARK>
 VINA RESULT:      -8.4      0.000      0.000
  Name = 
  3 active torsions:
  status: ('A' for Active; 'I' for Inactive)
    1  A    between atoms: C_7  and  C_11
    2  A    between atoms: N_9  and  C_18
    3  A    between atoms: C_33  and  C_34
                            x       y       z     vdW  Elec       q    Type
                         _______ _______ _______ _____ _____    ______ ____

>  <TORSDO>
F 3

$$$$
=
 OpenBabel11052420233D

 34 39  0  0  1  0  0  0  0  0999 V2000
  188.6220  176.2240  144.1140 C   0  0  2  0  0  3  0  0  0  0  0  0
  187.0480  175.3660  142.3200 C   0  0  0  0  0  2  0  0  0  0  0  0
  186.4210  177.9850  144.9440 C   0  0  2  0  0  0  0  0  0  0  0  0
  189.0460  173.9070  141.9430 N   0  0  0  0  0  0  0  0  0  0  0  0
  187.8460  178.1840  145.4820 C   0  0  0  0  0  2  0  0  0  0  0  0
  188.6600  176.8970  145.4780 C   0  0  0  0  0  2  0  0  0  0  0  0
  186.4410  177.2810  143.6520 N   0  0  0  0  0  2  0  0  0  0  0  0
  187.1600  176.0050  143.6970 C   0  0  2  0  0  3  0  0  0  0  0  0
  185.8910  179.3860  144.6890 C   0  0  0  0  0  1  0  0  0  0  0  0
  187.6140  173.9480  142.2830 C   0  0  0  0  0  2  0  0  0  0  0  0
  189.3380  174.8940  144.2650 C   0  0  0  0  0  2  0  0  0  0  0  0
  189.9920  174.4440  142.9500 C   0  0  1  0  0  3  0  0  0  0  0  0
  191.6580  173.5480  144.6700 C   0  0  0  0  0  2  0  0  0  0  0  0
  192.3220  173.5030  140.8900 C   0  0  0  0  0  2  0  0  0  0  0  0
  191.4900  171.4960  139.6060 C   0  0  0  0  0  2  0  0  0  0  0  0
  192.9710  175.2980  142.5930 C   0  0  0  0  0  2  0  0  0  0  0  0
  192.7710  174.9740  146.3960 C   0  0  0  0  0  3  0  0  0  0  0  0
  194.2400  176.8110  145.8230 C   0  0  0  0  0  3  0  0  0  0  0  0
  190.9510  170.1650  141.4180 N   0  0  0  0  0  2  0  0  0  0  0  0
  193.6100  176.0200  146.7870 C   0  0  0  0  0  3  0  0  0  0  0  0
  193.2080  175.5020  144.0620 C   0  0  0  0  0  0  0  0  0  0  0  0
  192.5510  174.7120  145.0400 C   0  0  0  0  0  0  0  0  0  0  0  0
  194.0360  176.5540  144.4650 C   0  0  0  0  0  3  0  0  0  0  0  0
  192.3040  171.9780  140.7930 C   0  0  2  0  0  3  0  0  0  0  0  0
  190.8210  170.2850  140.1510 C   0  0  0  0  0  2  0  0  0  0  0  0
  190.7660  172.0830  142.8790 C   0  0  0  0  0  2  0  0  0  0  0  0
  191.7090  171.2320  142.0070 C   0  0  1  0  0  3  0  0  0  0  0  0
  192.4730  173.8840  142.3480 C   0  0  1  0  0  3  0  0  0  0  0  0
  191.2310  173.5200  143.1930 C   0  0  1  0  0  0  0  0  0  0  0  0
  185.4730  177.3090  145.9720 C   0  0  0  0  0  3  0  0  0  0  0  0
  186.1730  177.0000  147.2890 C   0  0  0  0  0  1  0  0  0  0  0  0
  184.1910  178.0740  146.2620 C   0  0  0  0  0  1  0  0  0  0  0  0
  188.5880  173.6500  139.4910 C   0  0  0  0  0  1  0  0  0  0  0  0
  189.2980  174.4320  140.5910 C   0  0  0  0  0  2  0  0  0  0  0  0
  1 11  1  1  0  0  0
  1  6  1  0  0  0  0
  3  9  1  6  0  0  0
  3  5  1  0  0  0  0
  3 30  1  0  0  0  0
  4 10  1  0  0  0  0
  4 12  1  0  0  0  0
  6  5  1  0  0  0  0
  7  8  1  0  0  0  0
  7  3  1  0  0  0  0
  8  2  1  6  0  0  0
  8  1  1  0  0  0  0
 10  2  1  0  0  0  0
 12 29  1  0  0  0  0
 12 11  1  1  0  0  0
 13 22  1  0  0  0  0
 15 25  1  0  0  0  0
 16 21  1  0  0  0  0
 17 20  1  0  0  0  0
 18 20  2  0  0  0  0
 19 27  1  0  0  0  0
 21 23  2  0  0  0  0
 21 22  1  0  0  0  0
 22 17  2  0  0  0  0
 23 18  1  0  0  0  0
 24 15  1  6  0  0  0
 24 14  1  0  0  0  0
 24 27  1  0  0  0  0
 25 19  1  0  0  0  0
 27 26  1  6  0  0  0
 28 14  1  6  0  0  0
 28 16  1  0  0  0  0
 28 29  1  0  0  0  0
 29 26  1  6  0  0  0
 29 13  1  0  0  0  0
 30 32  1  0  0  0  0
 30 31  1  0  0  0  0
 33 34  1  0  0  0  0
 34  4  1  0  0  0  0
M  END
>  <MODEL>
2

>  <REMARK>
 VINA RESULT:      -7.9      1.617      6.975
  Name = 
  3 active torsions:
  status: ('A' for Active; 'I' for Inactive)
    1  A    between atoms: C_7  and  C_11
    2  A    between atoms: N_9  and  C_18
    3  A    between atoms: C_33  and  C_34
                            x       y       z     vdW  Elec       q    Type
                         _______ _______ _______ _____ _____    ______ ____

>  <TORSDO>
F 3

$$$$
=
 OpenBabel11052420233D

 34 39  0  0  1  0  0  0  0  0999 V2000
  189.0560  175.8970  143.5480 C   0  0  2  0  0  3  0  0  0  0  0  0
  190.0440  177.4900  145.2570 C   0  0  0  0  0  2  0  0  0  0  0  0
  186.5130  177.3030  143.9790 C   0  0  2  0  0  0  0  0  0  0  0  0
  192.0760  176.1970  144.5760 N   0  0  0  0  0  0  0  0  0  0  0  0
  186.5680  175.9770  143.2060 C   0  0  0  0  0  2  0  0  0  0  0  0
  187.9210  175.7370  142.5490 C   0  0  0  0  0  2  0  0  0  0  0  0
  187.6620  177.4300  144.8890 N   0  0  0  0  0  2  0  0  0  0  0  0
  188.9550  177.2770  144.2150 C   0  0  2  0  0  3  0  0  0  0  0  0
  185.2630  177.2130  144.8380 C   0  0  0  0  0  1  0  0  0  0  0  0
  191.4430  177.5250  144.6450 C   0  0  0  0  0  2  0  0  0  0  0  0
  190.3480  175.7790  142.7610 C   0  0  0  0  0  2  0  0  0  0  0  0
  191.4940  175.2240  143.6210 C   0  0  1  0  0  3  0  0  0  0  0  0
  192.2770  174.6310  141.2600 C   0  0  0  0  0  2  0  0  0  0  0  0
  193.3610  172.6750  144.3800 C   0  0  0  0  0  2  0  0  0  0  0  0
  195.4000  173.5160  145.6070 C   0  0  0  0  0  2  0  0  0  0  0  0
  191.3850  172.2100  142.8240 C   0  0  0  0  0  2  0  0  0  0  0  0
  190.7410  173.8680  139.4410 C   0  0  0  0  0  3  0  0  0  0  0  0
  189.4400  171.8330  139.5980 C   0  0  0  0  0  3  0  0  0  0  0  0
  196.1180  175.0340  144.0180 N   0  0  0  0  0  2  0  0  0  0  0  0
  189.8290  172.9690  138.8840 C   0  0  0  0  0  3  0  0  0  0  0  0
  190.8890  172.4780  141.4320 C   0  0  0  0  0  0  0  0  0  0  0  0
  191.2690  173.6420  140.7170 C   0  0  0  0  0  0  0  0  0  0  0  0
  189.9650  171.5910  140.8690 C   0  0  0  0  0  3  0  0  0  0  0  0
  194.8270  173.0910  144.2670 C   0  0  2  0  0  3  0  0  0  0  0  0
  196.2800  174.6530  145.2280 C   0  0  0  0  0  2  0  0  0  0  0  0
  193.9110  175.1850  143.0420 C   0  0  0  0  0  2  0  0  0  0  0  0
  195.1220  174.2730  143.3190 C   0  0  1  0  0  3  0  0  0  0  0  0
  192.6810  172.9650  143.0580 C   0  0  1  0  0  3  0  0  0  0  0  0
  192.5680  174.4780  142.7630 C   0  0  1  0  0  0  0  0  0  0  0  0
  186.3520  178.5400  143.0530 C   0  0  0  0  0  3  0  0  0  0  0  0
  185.5700  178.2170  141.7870 C   0  0  0  0  0  1  0  0  0  0  0  0
  185.7350  179.7620  143.7160 C   0  0  0  0  0  1  0  0  0  0  0  0
  193.3220  176.3690  146.7460 C   0  0  0  0  0  1  0  0  0  0  0  0
  192.2810  175.6230  145.9160 C   0  0  0  0  0  2  0  0  0  0  0  0
  1  6  1  6  0  0  0
  1  8  1  0  0  0  0
  3  9  1  1  0  0  0
  3  7  1  0  0  0  0
  4 10  1  0  0  0  0
  4 34  1  0  0  0  0
  5  3  1  0  0  0  0
  6  5  1  0  0  0  0
  8  7  1  0  0  0  0
  8  2  1  1  0  0  0
 10  2  1  0  0  0  0
 11  1  1  0  0  0  0
 12 11  1  6  0  0  0
 12  4  1  0  0  0  0
 17 22  1  0  0  0  0
 18 23  2  0  0  0  0
 19 25  1  0  0  0  0
 20 17  2  0  0  0  0
 20 18  1  0  0  0  0
 21 16  1  0  0  0  0
 22 13  1  0  0  0  0
 22 21  2  0  0  0  0
 23 21  1  0  0  0  0
 24 14  1  1  0  0  0
 24 15  1  0  0  0  0
 25 15  1  0  0  0  0
 27 26  1  1  0  0  0
 27 19  1  0  0  0  0
 27 24  1  0  0  0  0
 28 16  1  1  0  0  0
 28 14  1  0  0  0  0
 29 13  1  6  0  0  0
 29 26  1  0  0  0  0
 29 28  1  0  0  0  0
 29 12  1  0  0  0  0
 30 32  1  0  0  0  0
 30  3  1  0  0  0  0
 31 30  1  0  0  0  0
 34 33  1  0  0  0  0
M  END
>  <MODEL>
3

>  <REMARK>
 VINA RESULT:      -7.7      2.558      7.487
  Name = 
  3 active torsions:
  status: ('A' for Active; 'I' for Inactive)
    1  A    between atoms: C_7  and  C_11
    2  A    between atoms: N_9  and  C_18
    3  A    between atoms: C_33  and  C_34
                            x       y       z     vdW  Elec       q    Type
                         _______ _______ _______ _____ _____    ______ ____

>  <TORSDO>
F 3

$$$$
=
 OpenBabel11052420233D

 34 39  0  0  1  0  0  0  0  0999 V2000
  190.2740  175.2180  142.8990 C   0  0  2  0  0  3  0  0  0  0  0  0
  188.8630  173.3290  141.9620 C   0  0  0  0  0  2  0  0  0  0  0  0
  187.9950  176.9720  142.2970 C   0  0  2  0  0  0  0  0  0  0  0  0
  190.8990  172.0810  142.7120 N   0  0  0  0  0  0  0  0  0  0  0  0
  189.3680  177.5500  142.6720 C   0  0  0  0  0  2  0  0  0  0  0  0
  190.1910  176.6000  143.5300 C   0  0  0  0  0  2  0  0  0  0  0  0
  188.1290  175.6150  141.7450 N   0  0  0  0  0  2  0  0  0  0  0  0
  188.8540  174.6980  142.6290 C   0  0  2  0  0  3  0  0  0  0  0  0
  187.4750  177.8660  141.1840 C   0  0  0  0  0  1  0  0  0  0  0  0
  189.4430  172.2410  142.8630 C   0  0  0  0  0  2  0  0  0  0  0  0
  190.9860  174.3250  143.8990 C   0  0  0  0  0  2  0  0  0  0  0  0
  191.7530  173.1880  143.2060 C   0  0  1  0  0  3  0  0  0  0  0  0
  193.0050  173.3870  145.4260 C   0  0  0  0  0  2  0  0  0  0  0  0
  194.6160  172.0010  142.2300 C   0  0  0  0  0  2  0  0  0  0  0  0
  194.3480  169.5300  141.7920 C   0  0  0  0  0  2  0  0  0  0  0  0
  194.6200  174.4090  143.0940 C   0  0  0  0  0  2  0  0  0  0  0  0
  193.4870  175.5640  146.5560 C   0  0  0  0  0  3  0  0  0  0  0  0
  194.8600  177.2840  145.5460 C   0  0  0  0  0  3  0  0  0  0  0  0
  193.5020  168.9350  143.8600 N   0  0  0  0  0  2  0  0  0  0  0  0
  194.0870  176.8250  146.6150 C   0  0  0  0  0  3  0  0  0  0  0  0
  194.4510  175.2140  144.3500 C   0  0  0  0  0  0  0  0  0  0  0  0
  193.6500  174.7550  145.4260 C   0  0  0  0  0  0  0  0  0  0  0  0
  195.0380  176.4820  144.4150 C   0  0  0  0  0  3  0  0  0  0  0  0
  194.7780  170.5900  142.7910 C   0  0  2  0  0  3  0  0  0  0  0  0
  193.6890  168.5210  142.6640 C   0  0  0  0  0  2  0  0  0  0  0  0
  192.7550  171.1920  144.2980 C   0  0  0  0  0  2  0  0  0  0  0  0
  193.9710  170.2750  144.0700 C   0  0  1  0  0  3  0  0  0  0  0  0
  194.3480  172.9440  143.3850 C   0  0  1  0  0  3  0  0  0  0  0  0
  192.9750  172.7000  144.0510 C   0  0  1  0  0  0  0  0  0  0  0  0
  186.9700  177.0380  143.4630 C   0  0  0  0  0  3  0  0  0  0  0  0
  187.1420  178.2890  144.3140 C   0  0  0  0  0  1  0  0  0  0  0  0
  185.5130  176.9220  143.0430 C   0  0  0  0  0  1  0  0  0  0  0  0
  190.8140  170.2310  141.0200 C   0  0  0  0  0  1  0  0  0  0  0  0
  191.2590  171.6530  141.3500 C   0  0  0  0  0  2  0  0  0  0  0  0
  1  6  1  1  0  0  0
  1 11  1  0  0  0  0
  2 10  1  0  0  0  0
  3  9  1  6  0  0  0
  3  5  1  0  0  0  0
  3 30  1  0  0  0  0
  4 10  1  0  0  0  0
  4 12  1  0  0  0  0
  5  6  1  0  0  0  0
  7  3  1  0  0  0  0
  7  8  1  0  0  0  0
  8  2  1  6  0  0  0
  8  1  1  0  0  0  0
 12 11  1  1  0  0  0
 12 29  1  0  0  0  0
 14 24  1  0  0  0  0
 15 25  1  0  0  0  0
 16 28  1  0  0  0  0
 16 21  1  0  0  0  0
 17 20  1  0  0  0  0
 18 20  2  0  0  0  0
 19 27  1  0  0  0  0
 21 23  2  0  0  0  0
 21 22  1  0  0  0  0
 22 13  1  0  0  0  0
 22 17  2  0  0  0  0
 23 18  1  0  0  0  0
 24 15  1  6  0  0  0
 24 27  1  0  0  0  0
 25 19  1  0  0  0  0
 27 26  1  6  0  0  0
 28 14  1  6  0  0  0
 28 29  1  0  0  0  0
 29 26  1  1  0  0  0
 29 13  1  0  0  0  0
 30 31  1  0  0  0  0
 32 30  1  0  0  0  0
 33 34  1  0  0  0  0
 34  4  1  0  0  0  0
M  END
>  <MODEL>
4

>  <REMARK>
 VINA RESULT:      -7.5      2.798      7.315
  Name = 
  3 active torsions:
  status: ('A' for Active; 'I' for Inactive)
    1  A    between atoms: C_7  and  C_11
    2  A    between atoms: N_9  and  C_18
    3  A    between atoms: C_33  and  C_34
                            x       y       z     vdW  Elec       q    Type
                         _______ _______ _______ _____ _____    ______ ____

>  <TORSDO>
F 3

$$$$
=
 OpenBabel11052420233D

 34 39  0  0  1  0  0  0  0  0999 V2000
  190.4440  173.0740  143.0950 C   0  0  2  0  0  3  0  0  0  0  0  0
  188.9570  173.6560  141.1240 C   0  0  0  0  0  2  0  0  0  0  0  0
  191.2290  170.6930  141.5620 C   0  0  2  0  0  0  0  0  0  0  0  0
  188.5950  175.6430  142.6020 N   0  0  0  0  0  0  0  0  0  0  0  0
  191.5880  170.8370  143.0490 C   0  0  0  0  0  2  0  0  0  0  0  0
  191.6870  172.2910  143.4900 C   0  0  0  0  0  2  0  0  0  0  0  0
  190.0550  171.5130  141.2230 N   0  0  0  0  0  2  0  0  0  0  0  0
  190.2100  172.9250  141.5840 C   0  0  2  0  0  3  0  0  0  0  0  0
  190.8310  169.2370  141.3860 C   0  0  0  0  0  1  0  0  0  0  0  0
  189.0670  175.1710  141.2900 C   0  0  0  0  0  2  0  0  0  0  0  0
  190.7120  174.5240  143.4520 C   0  0  0  0  0  2  0  0  0  0  0  0
  189.4160  175.2800  143.7830 C   0  0  1  0  0  3  0  0  0  0  0  0
  190.9960  177.1780  144.4450 C   0  0  0  0  0  2  0  0  0  0  0  0
  188.3150  175.7670  146.8010 C   0  0  0  0  0  2  0  0  0  0  0  0
  186.0110  176.7870  146.6560 C   0  0  0  0  0  2  0  0  0  0  0  0
  190.7660  175.0660  146.5860 C   0  0  0  0  0  2  0  0  0  0  0  0
  193.4760  176.9180  144.6280 C   0  0  0  0  0  3  0  0  0  0  0  0
  194.5170  175.4040  146.2040 C   0  0  0  0  0  3  0  0  0  0  0  0
  186.5540  178.5980  145.3250 N   0  0  0  0  0  2  0  0  0  0  0  0
  194.6260  176.3600  145.1910 C   0  0  0  0  0  3  0  0  0  0  0  0
  192.1000  175.5650  146.1100 C   0  0  0  0  0  0  0  0  0  0  0  0
  192.2080  176.5210  145.0670 C   0  0  0  0  0  0  0  0  0  0  0  0
  193.2580  175.0050  146.6580 C   0  0  0  0  0  3  0  0  0  0  0  0
  187.4960  177.0560  146.8220 C   0  0  2  0  0  3  0  0  0  0  0  0
  185.5770  177.9250  145.8030 C   0  0  0  0  0  2  0  0  0  0  0  0
  188.5360  177.4960  144.4880 C   0  0  0  0  0  2  0  0  0  0  0  0
  187.8350  178.0880  145.7250 C   0  0  1  0  0  3  0  0  0  0  0  0
  189.6910  176.0860  146.2530 C   0  0  1  0  0  3  0  0  0  0  0  0
  189.6630  176.4770  144.7590 C   0  0  1  0  0  0  0  0  0  0  0  0
  192.4330  170.9630  140.6180 C   0  0  0  0  0  3  0  0  0  0  0  0
  193.6460  170.1120  140.9690 C   0  0  0  0  0  1  0  0  0  0  0  0
  192.1330  170.8060  139.1350 C   0  0  0  0  0  1  0  0  0  0  0  0
  186.2540  176.5170  142.3950 C   0  0  0  0  0  1  0  0  0  0  0  0
  187.1640  175.3610  142.7990 C   0  0  0  0  0  2  0  0  0  0  0  0
  1 11  1  6  0  0  0
  1  6  1  0  0  0  0
  2 10  1  0  0  0  0
  3  9  1  6  0  0  0
  3  5  1  0  0  0  0
  4 34  1  0  0  0  0
  4 12  1  0  0  0  0
  5  6  1  0  0  0  0
  7  3  1  0  0  0  0
  7  8  1  0  0  0  0
  8  2  1  1  0  0  0
  8  1  1  0  0  0  0
 10  4  1  0  0  0  0
 12 11  1  6  0  0  0
 12 29  1  0  0  0  0
 13 22  1  0  0  0  0
 14 24  1  0  0  0  0
 17 22  2  0  0  0  0
 17 20  1  0  0  0  0
 18 23  1  0  0  0  0
 19 27  1  0  0  0  0
 19 25  1  0  0  0  0
 20 18  2  0  0  0  0
 21 16  1  0  0  0  0
 21 23  2  0  0  0  0
 22 21  1  0  0  0  0
 24 15  1  6  0  0  0
 25 15  1  0  0  0  0
 26 29  1  0  0  0  0
 27 26  1  6  0  0  0
 27 24  1  0  0  0  0
 28 16  1  6  0  0  0
 28 14  1  0  0  0  0
 29 13  1  6  0  0  0
 29 28  1  0  0  0  0
 30 31  1  0  0  0  0
 30  3  1  0  0  0  0
 32 30  1  0  0  0  0
 33 34  1  0  0  0  0
M  END
>  <MODEL>
5

>  <REMARK>
 VINA RESULT:      -7.2      1.499      1.960
  Name = 
  3 active torsions:
  status: ('A' for Active; 'I' for Inactive)
    1  A    between atoms: C_7  and  C_11
    2  A    between atoms: N_9  and  C_18
    3  A    between atoms: C_33  and  C_34
                            x       y       z     vdW  Elec       q    Type
                         _______ _______ _______ _____ _____    ______ ____

>  <TORSDO>
F 3

$$$$
=
 OpenBabel11052420233D

 34 39  0  0  1  0  0  0  0  0999 V2000
  193.3090  175.0340  143.5310 C   0  0  2  0  0  3  0  0  0  0  0  0
  193.7320  176.5360  145.5310 C   0  0  0  0  0  2  0  0  0  0  0  0
  196.2310  174.8670  143.2710 C   0  0  2  0  0  0  0  0  0  0  0  0
  191.2340  176.3720  145.5730 N   0  0  0  0  0  0  0  0  0  0  0  0
  195.3020  174.3630  142.1560 C   0  0  0  0  0  2  0  0  0  0  0  0
  193.9350  173.9420  142.6760 C   0  0  0  0  0  2  0  0  0  0  0  0
  195.5570  175.8790  144.1000 N   0  0  0  0  0  2  0  0  0  0  0  0
  194.2810  175.4180  144.6560 C   0  0  2  0  0  3  0  0  0  0  0  0
  197.3780  175.5590  142.5550 C   0  0  0  0  0  1  0  0  0  0  0  0
  192.4850  176.1140  146.3070 C   0  0  0  0  0  2  0  0  0  0  0  0
  192.0300  174.4560  144.1070 C   0  0  0  0  0  2  0  0  0  0  0  0
  190.9770  175.5440  144.3700 C   0  0  1  0  0  3  0  0  0  0  0  0
  189.5230  173.4550  144.1360 C   0  0  0  0  0  2  0  0  0  0  0  0
  188.2320  176.9960  143.4160 C   0  0  0  0  0  2  0  0  0  0  0  0
  187.2940  178.2930  145.3680 C   0  0  0  0  0  2  0  0  0  0  0  0
  189.2550  175.3180  141.7800 C   0  0  0  0  0  2  0  0  0  0  0  0
  189.9710  171.6300  142.4870 C   0  0  0  0  0  3  0  0  0  0  0  0
  189.9500  172.0000  140.0940 C   0  0  0  0  0  3  0  0  0  0  0  0
  187.2050  176.5510  146.8860 N   0  0  0  0  0  2  0  0  0  0  0  0
  190.1040  171.1410  141.1850 C   0  0  0  0  0  3  0  0  0  0  0  0
  189.5120  173.8490  141.6000 C   0  0  0  0  0  0  0  0  0  0  0  0
  189.6880  172.9820  142.7090 C   0  0  0  0  0  0  0  0  0  0  0  0
  189.6590  173.3500  140.3020 C   0  0  0  0  0  3  0  0  0  0  0  0
  187.2460  176.9940  144.5820 C   0  0  2  0  0  3  0  0  0  0  0  0
  187.1200  177.8220  146.7680 C   0  0  0  0  0  2  0  0  0  0  0  0
  188.8730  175.2930  145.6700 C   0  0  0  0  0  2  0  0  0  0  0  0
  187.4510  175.8870  145.6380 C   0  0  1  0  0  3  0  0  0  0  0  0
  188.6640  175.5680  143.1550 C   0  0  1  0  0  3  0  0  0  0  0  0
  189.5190  174.9830  144.3020 C   0  0  1  0  0  0  0  0  0  0  0  0
  196.8390  173.7160  144.1200 C   0  0  0  0  0  3  0  0  0  0  0  0
  197.7660  172.8240  143.3060 C   0  0  0  0  0  1  0  0  0  0  0  0
  197.5650  174.1640  145.3800 C   0  0  0  0  0  1  0  0  0  0  0  0
  191.2840  178.2170  143.8760 C   0  0  0  0  0  1  0  0  0  0  0  0
  191.0370  177.8090  145.3250 C   0  0  0  0  0  2  0  0  0  0  0  0
  1  6  1  6  0  0  0
  1 11  1  0  0  0  0
  1  8  1  0  0  0  0
  2 10  1  0  0  0  0
  3  9  1  6  0  0  0
  3  7  1  0  0  0  0
  3 30  1  0  0  0  0
  4 10  1  0  0  0  0
  5  6  1  0  0  0  0
  5  3  1  0  0  0  0
  7  8  1  0  0  0  0
  8  2  1  6  0  0  0
 12 11  1  1  0  0  0
 12  4  1  0  0  0  0
 15 25  1  0  0  0  0
 17 22  1  0  0  0  0
 18 23  2  0  0  0  0
 18 20  1  0  0  0  0
 20 17  2  0  0  0  0
 21 16  1  0  0  0  0
 21 22  2  0  0  0  0
 22 13  1  0  0  0  0
 23 21  1  0  0  0  0
 24 14  1  6  0  0  0
 24 15  1  0  0  0  0
 24 27  1  0  0  0  0
 25 19  1  0  0  0  0
 27 26  1  1  0  0  0
 27 19  1  0  0  0  0
 28 16  1  6  0  0  0
 28 14  1  0  0  0  0
 28 29  1  0  0  0  0
 29 13  1  6  0  0  0
 29 12  1  0  0  0  0
 29 26  1  0  0  0  0
 30 32  1  0  0  0  0
 31 30  1  0  0  0  0
 33 34  1  0  0  0  0
 34  4  1  0  0  0  0
M  END
>  <MODEL>
6

>  <REMARK>
 VINA RESULT:      -7.1      3.011      5.709
  Name = 
  3 active torsions:
  status: ('A' for Active; 'I' for Inactive)
    1  A    between atoms: C_7  and  C_11
    2  A    between atoms: N_9  and  C_18
    3  A    between atoms: C_33  and  C_34
                            x       y       z     vdW  Elec       q    Type
                         _______ _______ _______ _____ _____    ______ ____

>  <TORSDO>
F 3

$$$$
=
 OpenBabel11052420233D

 34 39  0  0  1  0  0  0  0  0999 V2000
  192.2740  172.3780  143.9650 C   0  0  2  0  0  3  0  0  0  0  0  0
  190.8060  171.3150  142.1900 C   0  0  0  0  0  2  0  0  0  0  0  0
  193.7280  169.8260  144.0290 C   0  0  2  0  0  0  0  0  0  0  0  0
  189.8640  173.6330  142.2670 N   0  0  0  0  0  0  0  0  0  0  0  0
  193.9510  170.8960  145.1070 C   0  0  0  0  0  2  0  0  0  0  0  0
  193.6500  172.3030  144.6090 C   0  0  0  0  0  2  0  0  0  0  0  0
  192.4060  169.9790  143.4010 N   0  0  0  0  0  2  0  0  0  0  0  0
  192.1750  171.3200  142.8560 C   0  0  2  0  0  3  0  0  0  0  0  0
  193.7240  168.5020  144.7740 C   0  0  0  0  0  1  0  0  0  0  0  0
  190.5170  172.6100  141.4330 C   0  0  0  0  0  2  0  0  0  0  0  0
  192.1420  173.7730  143.3820 C   0  0  0  0  0  2  0  0  0  0  0  0
  190.6800  174.2420  143.3450 C   0  0  1  0  0  3  0  0  0  0  0  0
  191.9370  176.4670  143.2930 C   0  0  0  0  0  2  0  0  0  0  0  0
  188.4040  176.0920  144.7430 C   0  0  0  0  0  2  0  0  0  0  0  0
  186.4740  176.3360  143.1340 C   0  0  0  0  0  2  0  0  0  0  0  0
  190.6450  175.9340  145.9650 C   0  0  0  0  0  2  0  0  0  0  0  0
  194.0610  176.8900  144.5420 C   0  0  0  0  0  3  0  0  0  0  0  0
  194.1970  176.7880  146.9570 C   0  0  0  0  0  3  0  0  0  0  0  0
  187.6700  177.1510  141.3320 N   0  0  0  0  0  2  0  0  0  0  0  0
  194.8050  177.0060  145.7190 C   0  0  0  0  0  3  0  0  0  0  0  0
  192.0840  176.3480  145.8530 C   0  0  0  0  0  0  0  0  0  0  0  0
  192.7050  176.5500  144.5940 C   0  0  0  0  0  0  0  0  0  0  0  0
  192.8420  176.4560  147.0230 C   0  0  0  0  0  3  0  0  0  0  0  0
  187.7510  176.9610  143.6690 C   0  0  2  0  0  3  0  0  0  0  0  0
  186.5380  176.6750  141.6870 C   0  0  0  0  0  2  0  0  0  0  0  0
  189.7370  176.2220  142.1740 C   0  0  0  0  0  2  0  0  0  0  0  0
  188.6070  177.2410  142.4150 C   0  0  1  0  0  3  0  0  0  0  0  0
  189.8990  176.3330  144.7040 C   0  0  1  0  0  3  0  0  0  0  0  0
  190.5570  175.8000  143.4120 C   0  0  1  0  0  0  0  0  0  0  0  0
  194.8760  169.7680  142.9840 C   0  0  0  0  0  3  0  0  0  0  0  0
  196.2520  169.7470  143.6370 C   0  0  0  0  0  1  0  0  0  0  0  0
  194.7830  168.6190  141.9910 C   0  0  0  0  0  1  0  0  0  0  0  0
  187.5250  173.0060  141.6170 C   0  0  0  0  0  1  0  0  0  0  0  0
  188.5430  173.1870  142.7380 C   0  0  0  0  0  2  0  0  0  0  0  0
  1 11  1  6  0  0  0
  1  6  1  0  0  0  0
  3  9  1  1  0  0  0
  3  5  1  0  0  0  0
  4 34  1  0  0  0  0
  4 12  1  0  0  0  0
  6  5  1  0  0  0  0
  7  3  1  0  0  0  0
  8  2  1  1  0  0  0
  8  7  1  0  0  0  0
  8  1  1  0  0  0  0
 10  2  1  0  0  0  0
 10  4  1  0  0  0  0
 12 11  1  6  0  0  0
 12 29  1  0  0  0  0
 13 29  1  0  0  0  0
 13 22  1  0  0  0  0
 17 22  2  0  0  0  0
 17 20  1  0  0  0  0
 18 23  1  0  0  0  0
 19 25  1  0  0  0  0
 19 27  1  0  0  0  0
 20 18  2  0  0  0  0
 21 16  1  0  0  0  0
 21 23  2  0  0  0  0
 22 21  1  0  0  0  0
 24 15  1  6  0  0  0
 24 14  1  0  0  0  0
 25 15  1  0  0  0  0
 27 26  1  6  0  0  0
 27 24  1  0  0  0  0
 28 14  1  1  0  0  0
 28 16  1  0  0  0  0
 29 26  1  6  0  0  0
 29 28  1  0  0  0  0
 30 31  1  0  0  0  0
 30  3  1  0  0  0  0
 32 30  1  0  0  0  0
 33 34  1  0  0  0  0
M  END
>  <MODEL>
7

>  <REMARK>
 VINA RESULT:      -7.0      2.860      4.374
  Name = 
  3 active torsions:
  status: ('A' for Active; 'I' for Inactive)
    1  A    between atoms: C_7  and  C_11
    2  A    between atoms: N_9  and  C_18
    3  A    between atoms: C_33  and  C_34
                            x       y       z     vdW  Elec       q    Type
                         _______ _______ _______ _____ _____    ______ ____

>  <TORSDO>
F 3

$$$$
=
 OpenBabel11052420233D

 34 39  0  0  1  0  0  0  0  0999 V2000
  191.6910  173.6770  141.1380 C   0  0  2  0  0  3  0  0  0  0  0  0
  189.3950  172.6780  141.5430 C   0  0  0  0  0  2  0  0  0  0  0  0
  191.5990  172.3600  138.5130 C   0  0  2  0  0  0  0  0  0  0  0  0
  189.7100  174.0200  143.6320 N   0  0  0  0  0  0  0  0  0  0  0  0
  192.9020  172.9670  139.0540 C   0  0  0  0  0  2  0  0  0  0  0  0
  192.6570  174.0990  140.0410 C   0  0  0  0  0  2  0  0  0  0  0  0
  190.6800  172.0220  139.6110 N   0  0  0  0  0  2  0  0  0  0  0  0
  190.3960  173.1530  140.4990 C   0  0  2  0  0  3  0  0  0  0  0  0
  192.0090  171.0570  137.8480 C   0  0  0  0  0  1  0  0  0  0  0  0
  188.8860  173.8130  142.4290 C   0  0  0  0  0  2  0  0  0  0  0  0
  191.4120  174.9140  141.9710 C   0  0  0  0  0  2  0  0  0  0  0  0
  191.0760  174.5590  143.4280 C   0  0  1  0  0  3  0  0  0  0  0  0
  192.6470  176.5190  143.9030 C   0  0  0  0  0  2  0  0  0  0  0  0
  190.5570  174.8030  146.6260 C   0  0  0  0  0  2  0  0  0  0  0  0
  188.2160  175.6730  146.9910 C   0  0  0  0  0  2  0  0  0  0  0  0
  192.9540  174.2820  145.9020 C   0  0  0  0  0  2  0  0  0  0  0  0
  195.1260  176.4160  143.5920 C   0  0  0  0  0  3  0  0  0  0  0  0
  196.5360  174.8910  144.8360 C   0  0  0  0  0  3  0  0  0  0  0  0
  188.3900  177.5870  145.7050 N   0  0  0  0  0  2  0  0  0  0  0  0
  196.3930  175.9070  143.8880 C   0  0  0  0  0  3  0  0  0  0  0  0
  194.1400  174.8940  145.2150 C   0  0  0  0  0  0  0  0  0  0  0  0
  193.9920  175.9110  144.2370 C   0  0  0  0  0  0  0  0  0  0  0  0
  195.4120  174.3840  145.4940 C   0  0  0  0  0  3  0  0  0  0  0  0
  189.6880  176.0310  146.8890 C   0  0  2  0  0  3  0  0  0  0  0  0
  187.5620  176.8250  146.3150 C   0  0  0  0  0  2  0  0  0  0  0  0
  190.2290  176.6680  144.4340 C   0  0  0  0  0  2  0  0  0  0  0  0
  189.7490  177.1430  145.8190 C   0  0  1  0  0  3  0  0  0  0  0  0
  191.7800  175.2430  145.8490 C   0  0  1  0  0  3  0  0  0  0  0  0
  191.4420  175.7140  144.4170 C   0  0  1  0  0  0  0  0  0  0  0  0
  190.9240  173.2430  137.4270 C   0  0  0  0  0  3  0  0  0  0  0  0
  191.9150  173.7320  136.3800 C   0  0  0  0  0  1  0  0  0  0  0  0
  189.7380  172.6000  136.7230 C   0  0  0  0  0  1  0  0  0  0  0  0
  190.8900  171.9160  144.3170 C   0  0  0  0  0  1  0  0  0  0  0  0
  189.6910  172.8390  144.5110 C   0  0  0  0  0  2  0  0  0  0  0  0
  1  6  1  6  0  0  0
  1 11  1  0  0  0  0
  2 10  1  0  0  0  0
  3  9  1  6  0  0  0
  3  5  1  0  0  0  0
  3  7  1  0  0  0  0
  4 34  1  0  0  0  0
  5  6  1  0  0  0  0
  7  8  1  0  0  0  0
  8  1  1  0  0  0  0
  8  2  1  1  0  0  0
 10  4  1  0  0  0  0
 12 11  1  6  0  0  0
 12  4  1  0  0  0  0
 12 29  1  0  0  0  0
 13 22  1  0  0  0  0
 17 20  2  0  0  0  0
 17 22  1  0  0  0  0
 18 23  2  0  0  0  0
 19 27  1  0  0  0  0
 19 25  1  0  0  0  0
 20 18  1  0  0  0  0
 21 23  1  0  0  0  0
 21 16  1  0  0  0  0
 22 21  2  0  0  0  0
 24 14  1  6  0  0  0
 24 15  1  0  0  0  0
 25 15  1  0  0  0  0
 27 26  1  6  0  0  0
 27 24  1  0  0  0  0
 28 16  1  6  0  0  0
 28 14  1  0  0  0  0
 29 13  1  6  0  0  0
 29 26  1  0  0  0  0
 29 28  1  0  0  0  0
 30  3  1  0  0  0  0
 31 30  1  0  0  0  0
 32 30  1  0  0  0  0
 33 34  1  0  0  0  0
M  END
>  <MODEL>
8

>  <REMARK>
 VINA RESULT:      -7.0      2.146      3.663
  Name = 
  3 active torsions:
  status: ('A' for Active; 'I' for Inactive)
    1  A    between atoms: C_7  and  C_11
    2  A    between atoms: N_9  and  C_18
    3  A    between atoms: C_33  and  C_34
                            x       y       z     vdW  Elec       q    Type
                         _______ _______ _______ _____ _____    ______ ____

>  <TORSDO>
F 3

$$$$
=
 OpenBabel11052420233D

 34 39  0  0  1  0  0  0  0  0999 V2000
  190.1300  173.7910  140.3990 C   0  0  2  0  0  3  0  0  0  0  0  0
  192.5980  173.2080  140.4490 C   0  0  0  0  0  2  0  0  0  0  0  0
  189.9630  172.0780  138.0180 C   0  0  2  0  0  0  0  0  0  0  0  0
  192.3930  174.6070  142.5150 N   0  0  0  0  0  0  0  0  0  0  0  0
  188.8040  173.0050  138.4140 C   0  0  0  0  0  2  0  0  0  0  0  0
  188.7750  173.3030  139.9070 C   0  0  0  0  0  2  0  0  0  0  0  0
  191.2380  172.5660  138.5660 N   0  0  0  0  0  2  0  0  0  0  0  0
  191.2080  172.7650  140.0180 C   0  0  2  0  0  3  0  0  0  0  0  0
  190.0530  172.1750  136.5040 C   0  0  0  0  0  1  0  0  0  0  0  0
  192.7440  173.2860  141.9680 C   0  0  0  0  0  2  0  0  0  0  0  0
  190.0250  173.9160  141.9080 C   0  0  0  0  0  2  0  0  0  0  0  0
  190.9640  175.0000  142.4590 C   0  0  1  0  0  3  0  0  0  0  0  0
  188.9400  175.3150  143.9880 C   0  0  0  0  0  2  0  0  0  0  0  0
  192.0560  177.5500  144.1510 C   0  0  0  0  0  2  0  0  0  0  0  0
  193.9450  176.7750  145.6340 C   0  0  0  0  0  2  0  0  0  0  0  0
  189.9100  177.9150  142.8070 C   0  0  0  0  0  2  0  0  0  0  0  0
  186.6620  175.9340  143.1640 C   0  0  0  0  0  3  0  0  0  0  0  0
  186.2090  178.0170  142.0170 C   0  0  0  0  0  3  0  0  0  0  0  0
  192.8140  175.0750  146.7180 N   0  0  0  0  0  2  0  0  0  0  0  0
  185.7630  176.8000  142.5370 C   0  0  0  0  0  3  0  0  0  0  0  0
  188.4630  177.5200  142.7620 C   0  0  0  0  0  0  0  0  0  0  0  0
  188.0150  176.2750  143.2720 C   0  0  0  0  0  0  0  0  0  0  0  0
  187.5560  178.3730  142.1260 C   0  0  0  0  0  3  0  0  0  0  0  0
  192.4590  177.0760  145.5460 C   0  0  2  0  0  3  0  0  0  0  0  0
  193.9730  175.5750  146.5130 C   0  0  0  0  0  2  0  0  0  0  0  0
  191.1950  174.8960  144.9320 C   0  0  0  0  0  2  0  0  0  0  0  0
  191.7660  175.7910  146.0490 C   0  0  1  0  0  3  0  0  0  0  0  0
  190.6160  177.1460  143.9090 C   0  0  1  0  0  3  0  0  0  0  0  0
  190.4360  175.6150  143.7960 C   0  0  1  0  0  0  0  0  0  0  0  0
  189.6970  170.5890  138.3730 C   0  0  0  0  0  3  0  0  0  0  0  0
  189.8200  169.6740  137.1620 C   0  0  0  0  0  1  0  0  0  0  0  0
  190.5550  170.0350  139.5000 C   0  0  0  0  0  1  0  0  0  0  0  0
  194.7480  175.4640  142.4170 C   0  0  0  0  0  1  0  0  0  0  0  0
  193.2900  175.6600  142.0110 C   0  0  0  0  0  2  0  0  0  0  0  0
  1  6  1  1  0  0  0
  1 11  1  0  0  0  0
  2 10  1  0  0  0  0
  3  9  1  6  0  0  0
  3 30  1  0  0  0  0
  3  5  1  0  0  0  0
  3  7  1  0  0  0  0
  5  6  1  0  0  0  0
  7  8  1  0  0  0  0
  8  1  1  0  0  0  0
  8  2  1  6  0  0  0
 10  4  1  0  0  0  0
 12 11  1  1  0  0  0
 12  4  1  0  0  0  0
 12 29  1  0  0  0  0
 15 25  1  0  0  0  0
 17 22  1  0  0  0  0
 18 23  2  0  0  0  0
 18 20  1  0  0  0  0
 20 17  2  0  0  0  0
 21 16  1  0  0  0  0
 21 22  2  0  0  0  0
 22 13  1  0  0  0  0
 23 21  1  0  0  0  0
 24 14  1  6  0  0  0
 24 15  1  0  0  0  0
 24 27  1  0  0  0  0
 25 19  1  0  0  0  0
 27 26  1  6  0  0  0
 27 19  1  0  0  0  0
 28 16  1  6  0  0  0
 28 14  1  0  0  0  0
 29 28  1  0  0  0  0
 29 13  1  1  0  0  0
 29 26  1  0  0  0  0
 30 32  1  0  0  0  0
 31 30  1  0  0  0  0
 34 33  1  0  0  0  0
 34  4  1  0  0  0  0
M  END
>  <MODEL>
9

>  <REMARK>
 VINA RESULT:      -6.8      2.725      5.683
  Name = 
  3 active torsions:
  status: ('A' for Active; 'I' for Inactive)
    1  A    between atoms: C_7  and  C_11
    2  A    between atoms: N_9  and  C_18
    3  A    between atoms: C_33  and  C_34
                            x       y       z     vdW  Elec       q    Type
                         _______ _______ _______ _____ _____    ______ ____

>  <TORSDO>
F 3

$$$$
