=
 OpenBabel11052417383D

 25 26  0  0  1  0  0  0  0  0999 V2000
  188.7620  176.4250  142.7300 C   0  0  1  0  0  3  0  0  0  0  0  0
  188.4350  176.0820  145.2070 C   0  0  0  0  0  2  0  0  0  0  0  0
  190.6400  176.9540  144.3380 C   0  0  0  0  0  2  0  0  0  0  0  0
  190.4410  177.2540  147.8070 O   0  0  0  0  0  0  0  0  0  0  0  0
  190.2730  176.6430  146.7650 C   0  0  0  0  0  0  0  0  0  0  0  0
  191.3080  176.6800  145.6880 C   0  0  0  0  0  2  0  0  0  0  0  0
  189.4550  176.0090  144.0500 C   0  0  0  0  0  0  0  0  0  0  0  0
  189.0590  175.7930  146.5740 C   0  0  0  0  0  2  0  0  0  0  0  0
  189.9800  174.5720  143.9100 C   0  0  0  0  0  2  0  0  0  0  0  0
  191.1700  174.5370  143.1780 O   0  0  0  0  0  1  0  0  0  0  0  0
  187.0890  174.7460  142.4490 O   0  0  0  0  0  0  0  0  0  0  0  0
  188.1370  175.2760  141.9910 C   0  0  0  0  0  0  0  0  0  0  0  0
  188.7110  174.8130  140.8050 O   0  0  0  0  0  0  0  0  0  0  0  0
  188.8410  173.4280  140.5260 C   0  0  0  0  0  1  0  0  0  0  0  0
  187.7720  177.4730  142.9550 N   0  0  0  0  0  2  0  0  0  0  0  0
  187.4270  178.0210  141.6530 C   0  0  0  0  0  2  0  0  0  0  0  0
  185.9940  178.5160  141.6650 C   0  0  0  0  0  2  0  0  0  0  0  0
  185.1260  177.5040  142.2440 N   0  0  0  0  0  2  0  0  0  0  0  0
  184.0110  178.2010  142.8660 C   0  0  0  0  0  2  0  0  0  0  0  0
  184.5240  179.2900  143.7920 C   0  0  0  0  0  2  0  0  0  0  0  0
  184.1950  178.9620  145.1690 N   0  0  0  0  0  2  0  0  0  0  0  0
  185.0630  177.1260  146.4820 C   0  0  0  0  0  2  0  0  0  0  0  0
  185.2390  178.4030  147.2750 C   0  0  1  0  0  3  0  0  0  0  0  0
  186.6110  178.4090  147.9130 C   0  0  0  0  0  1  0  0  0  0  0  0
  185.3990  178.4180  145.7680 C   0  0  2  0  0  3  0  0  0  0  0  0
  1 12  1  1  0  0  0
  1 15  1  0  0  0  0
  1  7  1  0  0  0  0
  2  8  1  0  0  0  0
  3  6  1  0  0  0  0
  5  4  2  0  0  0  0
  6  5  1  0  0  0  0
  7  3  1  0  0  0  0
  7  2  1  0  0  0  0
  8  5  1  0  0  0  0
  9  7  1  0  0  0  0
 10  9  1  0  0  0  0
 12 11  2  0  0  0  0
 13 12  1  0  0  0  0
 14 13  1  0  0  0  0
 16 17  1  0  0  0  0
 16 15  1  0  0  0  0
 17 18  1  0  0  0  0
 18 19  1  0  0  0  0
 19 20  1  0  0  0  0
 20 21  1  0  0  0  0
 22 23  1  0  0  0  0
 23 24  1  1  0  0  0
 25 21  1  6  0  0  0
 25 22  1  0  0  0  0
 25 23  1  0  0  0  0
M  END
>  <MODEL>
1

>  <REMARK>
 VINA RESULT:      -5.2      0.000      0.000
  Name = 
  12 active torsions:
  status: ('A' for Active; 'I' for Inactive)
    1  A    between atoms: C_1  and  N_3
    2  A    between atoms: C_1  and  C_18
    3  A    between atoms: C_1  and  C_24
    4  A    between atoms: N_3  and  C_16
    5  A    between atoms: C_6  and  C_15
    6  A    between atoms: C_6  and  N_21
    7  A    between atoms: O_13  and  C_24
    8  A    between atoms: C_15  and  N_20
    9  A    between atoms: C_16  and  C_23
   10  A    between atoms: C_17  and  C_18
   11  A    between atoms: N_20  and  C_23
   12  A    between atoms: N_21  and  C_25
                            x       y       z     vdW  Elec       q    Type
                         _______ _______ _______ _____ _____    ______ ____

>  <TORSDO>
F 12

$$$$
=
 OpenBabel11052417383D

 25 26  0  0  1  0  0  0  0  0999 V2000
  189.3000  176.2000  142.7730 C   0  0  1  0  0  3  0  0  0  0  0  0
  189.8200  174.4790  144.5420 C   0  0  0  0  0  2  0  0  0  0  0  0
  188.7730  176.6810  145.1990 C   0  0  0  0  0  2  0  0  0  0  0  0
  188.7100  174.4120  147.8470 O   0  0  0  0  0  0  0  0  0  0  0  0
  189.2600  174.9560  146.9040 C   0  0  0  0  0  0  0  0  0  0  0  0
  189.0960  176.4230  146.6720 C   0  0  0  0  0  2  0  0  0  0  0  0
  189.7620  175.9920  144.2360 C   0  0  0  0  0  0  0  0  0  0  0  0
  190.1630  174.1770  146.0020 C   0  0  0  0  0  2  0  0  0  0  0  0
  191.1560  176.6120  144.4160 C   0  0  0  0  0  2  0  0  0  0  0  0
  191.2420  177.8540  143.7790 O   0  0  0  0  0  1  0  0  0  0  0  0
  190.7030  174.7020  141.5540 O   0  0  0  0  0  0  0  0  0  0  0  0
  189.5270  175.0020  141.8960 C   0  0  0  0  0  0  0  0  0  0  0  0
  188.4430  174.2280  141.4750 O   0  0  0  0  0  0  0  0  0  0  0  0
  188.6210  172.9710  140.8410 C   0  0  0  0  0  1  0  0  0  0  0  0
  187.9020  176.6100  142.7090 N   0  0  0  0  0  2  0  0  0  0  0  0
  187.8090  177.6510  141.6970 C   0  0  0  0  0  2  0  0  0  0  0  0
  186.4880  177.5380  140.9610 C   0  0  0  0  0  2  0  0  0  0  0  0
  185.5600  178.5430  141.4540 N   0  0  0  0  0  2  0  0  0  0  0  0
  184.4940  177.8380  142.1500 C   0  0  0  0  0  2  0  0  0  0  0  0
  184.1000  178.5930  143.4080 C   0  0  0  0  0  2  0  0  0  0  0  0
  185.2920  178.9930  144.1380 N   0  0  0  0  0  2  0  0  0  0  0  0
  184.1470  178.5200  146.2160 C   0  0  0  0  0  2  0  0  0  0  0  0
  185.5100  179.0910  146.5420 C   0  0  1  0  0  3  0  0  0  0  0  0
  186.1270  178.2950  147.6720 C   0  0  0  0  0  1  0  0  0  0  0  0
  185.3360  178.1830  145.3410 C   0  0  2  0  0  3  0  0  0  0  0  0
  1 12  1  6  0  0  0
  1  7  1  0  0  0  0
  2  8  1  0  0  0  0
  3  6  1  0  0  0  0
  5  4  2  0  0  0  0
  6  5  1  0  0  0  0
  7  9  1  0  0  0  0
  7  2  1  0  0  0  0
  7  3  1  0  0  0  0
  8  5  1  0  0  0  0
 10  9  1  0  0  0  0
 11 12  2  0  0  0  0
 13 12  1  0  0  0  0
 14 13  1  0  0  0  0
 15  1  1  0  0  0  0
 16 15  1  0  0  0  0
 17 18  1  0  0  0  0
 17 16  1  0  0  0  0
 18 19  1  0  0  0  0
 19 20  1  0  0  0  0
 20 21  1  0  0  0  0
 22 23  1  0  0  0  0
 23 24  1  1  0  0  0
 25 21  1  6  0  0  0
 25 22  1  0  0  0  0
 25 23  1  0  0  0  0
M  END
>  <MODEL>
2

>  <REMARK>
 VINA RESULT:      -5.2      1.376      1.813
  Name = 
  12 active torsions:
  status: ('A' for Active; 'I' for Inactive)
    1  A    between atoms: C_1  and  N_3
    2  A    between atoms: C_1  and  C_18
    3  A    between atoms: C_1  and  C_24
    4  A    between atoms: N_3  and  C_16
    5  A    between atoms: C_6  and  C_15
    6  A    between atoms: C_6  and  N_21
    7  A    between atoms: O_13  and  C_24
    8  A    between atoms: C_15  and  N_20
    9  A    between atoms: C_16  and  C_23
   10  A    between atoms: C_17  and  C_18
   11  A    between atoms: N_20  and  C_23
   12  A    between atoms: N_21  and  C_25
                            x       y       z     vdW  Elec       q    Type
                         _______ _______ _______ _____ _____    ______ ____

>  <TORSDO>
F 12

$$$$
=
 OpenBabel11052417383D

 25 26  0  0  1  0  0  0  0  0999 V2000
  189.2590  175.9170  143.2730 C   0  0  1  0  0  3  0  0  0  0  0  0
  190.8930  174.8610  144.8760 C   0  0  0  0  0  2  0  0  0  0  0  0
  189.4790  176.8140  145.6260 C   0  0  0  0  0  2  0  0  0  0  0  0
  191.0870  175.3070  148.3290 O   0  0  0  0  0  0  0  0  0  0  0  0
  191.0650  175.7310  147.1860 C   0  0  0  0  0  0  0  0  0  0  0  0
  190.3590  177.0070  146.8630 C   0  0  0  0  0  2  0  0  0  0  0  0
  190.2400  176.1900  144.4370 C   0  0  0  0  0  0  0  0  0  0  0  0
  191.8000  175.0150  146.0990 C   0  0  0  0  0  2  0  0  0  0  0  0
  191.3240  177.1700  143.9620 C   0  0  0  0  0  2  0  0  0  0  0  0
  190.7720  178.1980  143.1930 O   0  0  0  0  0  1  0  0  0  0  0  0
  188.8750  173.6150  142.7700 O   0  0  0  0  0  0  0  0  0  0  0  0
  189.5540  174.6480  142.5230 C   0  0  0  0  0  0  0  0  0  0  0  0
  190.5620  174.6250  141.5580 O   0  0  0  0  0  0  0  0  0  0  0  0
  191.0800  173.4070  141.0450 C   0  0  0  0  0  1  0  0  0  0  0  0
  187.8740  175.9160  143.7300 N   0  0  0  0  0  2  0  0  0  0  0  0
  187.0650  176.4460  142.6440 C   0  0  0  0  0  2  0  0  0  0  0  0
  187.3050  177.9360  142.5010 C   0  0  0  0  0  2  0  0  0  0  0  0
  186.1130  178.5810  141.9730 N   0  0  0  0  0  2  0  0  0  0  0  0
  184.9800  178.0720  142.7290 C   0  0  0  0  0  2  0  0  0  0  0  0
  184.5890  179.0590  143.8160 C   0  0  0  0  0  2  0  0  0  0  0  0
  184.3330  178.3490  145.0580 N   0  0  0  0  0  2  0  0  0  0  0  0
  185.6680  176.9110  146.4720 C   0  0  0  0  0  2  0  0  0  0  0  0
  185.3550  178.1760  147.2410 C   0  0  1  0  0  3  0  0  0  0  0  0
  186.6000  178.6410  147.9650 C   0  0  0  0  0  1  0  0  0  0  0  0
  185.6060  178.2380  145.7470 C   0  0  2  0  0  3  0  0  0  0  0  0
  1 12  1  1  0  0  0
  1 15  1  0  0  0  0
  1  7  1  0  0  0  0
  2  8  1  0  0  0  0
  3  6  1  0  0  0  0
  5  4  2  0  0  0  0
  6  5  1  0  0  0  0
  7  2  1  0  0  0  0
  7  3  1  0  0  0  0
  8  5  1  0  0  0  0
  9  7  1  0  0  0  0
 10  9  1  0  0  0  0
 12 11  2  0  0  0  0
 13 12  1  0  0  0  0
 14 13  1  0  0  0  0
 16 15  1  0  0  0  0
 17 16  1  0  0  0  0
 18 17  1  0  0  0  0
 18 19  1  0  0  0  0
 19 20  1  0  0  0  0
 20 21  1  0  0  0  0
 22 23  1  0  0  0  0
 23 24  1  1  0  0  0
 25 21  1  6  0  0  0
 25 22  1  0  0  0  0
 25 23  1  0  0  0  0
M  END
>  <MODEL>
3

>  <REMARK>
 VINA RESULT:      -5.0      1.478      1.805
  Name = 
  12 active torsions:
  status: ('A' for Active; 'I' for Inactive)
    1  A    between atoms: C_1  and  N_3
    2  A    between atoms: C_1  and  C_18
    3  A    between atoms: C_1  and  C_24
    4  A    between atoms: N_3  and  C_16
    5  A    between atoms: C_6  and  C_15
    6  A    between atoms: C_6  and  N_21
    7  A    between atoms: O_13  and  C_24
    8  A    between atoms: C_15  and  N_20
    9  A    between atoms: C_16  and  C_23
   10  A    between atoms: C_17  and  C_18
   11  A    between atoms: N_20  and  C_23
   12  A    between atoms: N_21  and  C_25
                            x       y       z     vdW  Elec       q    Type
                         _______ _______ _______ _____ _____    ______ ____

>  <TORSDO>
F 12

$$$$
=
 OpenBabel11052417383D

 25 26  0  0  1  0  0  0  0  0999 V2000
  188.5790  176.5820  144.0130 C   0  0  1  0  0  3  0  0  0  0  0  0
  186.9570  178.4850  144.3350 C   0  0  0  0  0  2  0  0  0  0  0  0
  186.7750  176.4190  145.7760 C   0  0  0  0  0  2  0  0  0  0  0  0
  184.7670  178.9940  147.0010 O   0  0  0  0  0  0  0  0  0  0  0  0
  185.2230  178.3200  146.0930 C   0  0  0  0  0  0  0  0  0  0  0  0
  185.3830  176.8430  146.2500 C   0  0  0  0  0  2  0  0  0  0  0  0
  187.1190  176.9490  144.3680 C   0  0  0  0  0  0  0  0  0  0  0  0
  185.5690  178.9500  144.7820 C   0  0  0  0  0  2  0  0  0  0  0  0
  186.1740  176.3050  143.3420 C   0  0  0  0  0  2  0  0  0  0  0  0
  186.4240  176.7880  142.0540 O   0  0  0  0  0  1  0  0  0  0  0  0
  189.7510  177.4960  145.8800 O   0  0  0  0  0  0  0  0  0  0  0  0
  189.5970  177.4990  144.6290 C   0  0  0  0  0  0  0  0  0  0  0  0
  190.3670  178.3350  143.8180 O   0  0  0  0  0  0  0  0  0  0  0  0
  191.4710  177.8460  143.0720 C   0  0  0  0  0  1  0  0  0  0  0  0
  188.8810  175.1970  144.3580 N   0  0  0  0  0  2  0  0  0  0  0  0
  189.2490  174.5200  143.1260 C   0  0  0  0  0  2  0  0  0  0  0  0
  189.5040  173.0510  143.4000 C   0  0  0  0  0  2  0  0  0  0  0  0
  190.3280  172.9050  144.5890 N   0  0  0  0  0  2  0  0  0  0  0  0
  191.4750  172.0910  144.2190 C   0  0  0  0  0  2  0  0  0  0  0  0
  192.7480  172.6830  144.8000 C   0  0  0  0  0  2  0  0  0  0  0  0
  192.7400  174.1270  144.6370 N   0  0  0  0  0  2  0  0  0  0  0  0
  192.3660  175.1480  146.7980 C   0  0  0  0  0  2  0  0  0  0  0  0
  193.0640  176.1550  145.9100 C   0  0  1  0  0  3  0  0  0  0  0  0
  194.1490  176.8510  146.7040 C   0  0  0  0  0  1  0  0  0  0  0  0
  193.4060  174.6820  145.8010 C   0  0  2  0  0  3  0  0  0  0  0  0
  1 15  1  1  0  0  0
  1  7  1  0  0  0  0
  1 12  1  0  0  0  0
  2  7  1  0  0  0  0
  2  8  1  0  0  0  0
  3  6  1  0  0  0  0
  5  6  1  0  0  0  0
  5  4  2  0  0  0  0
  7  3  1  0  0  0  0
  8  5  1  0  0  0  0
  9  7  1  0  0  0  0
 10  9  1  0  0  0  0
 12 11  2  0  0  0  0
 13 12  1  0  0  0  0
 14 13  1  0  0  0  0
 16 17  1  0  0  0  0
 16 15  1  0  0  0  0
 17 18  1  0  0  0  0
 19 18  1  0  0  0  0
 19 20  1  0  0  0  0
 21 20  1  0  0  0  0
 23 24  1  1  0  0  0
 23 22  1  0  0  0  0
 25 21  1  6  0  0  0
 25 23  1  0  0  0  0
 25 22  1  0  0  0  0
M  END
>  <MODEL>
4

>  <REMARK>
 VINA RESULT:      -5.0      2.916      6.315
  Name = 
  12 active torsions:
  status: ('A' for Active; 'I' for Inactive)
    1  A    between atoms: C_1  and  N_3
    2  A    between atoms: C_1  and  C_18
    3  A    between atoms: C_1  and  C_24
    4  A    between atoms: N_3  and  C_16
    5  A    between atoms: C_6  and  C_15
    6  A    between atoms: C_6  and  N_21
    7  A    between atoms: O_13  and  C_24
    8  A    between atoms: C_15  and  N_20
    9  A    between atoms: C_16  and  C_23
   10  A    between atoms: C_17  and  C_18
   11  A    between atoms: N_20  and  C_23
   12  A    between atoms: N_21  and  C_25
                            x       y       z     vdW  Elec       q    Type
                         _______ _______ _______ _____ _____    ______ ____

>  <TORSDO>
F 12

$$$$
=
 OpenBabel11052417383D

 25 26  0  0  1  0  0  0  0  0999 V2000
  191.3150  174.7300  144.1270 C   0  0  1  0  0  3  0  0  0  0  0  0
  189.6570  174.2730  145.9710 C   0  0  0  0  0  2  0  0  0  0  0  0
  189.9800  176.6300  145.1260 C   0  0  0  0  0  2  0  0  0  0  0  0
  187.1740  176.3990  147.1840 O   0  0  0  0  0  0  0  0  0  0  0  0
  188.3330  176.1410  146.9070 C   0  0  0  0  0  0  0  0  0  0  0  0
  189.2280  177.1920  146.3350 C   0  0  0  0  0  2  0  0  0  0  0  0
  190.6830  175.2900  145.4240 C   0  0  0  0  0  0  0  0  0  0  0  0
  188.8980  174.7880  147.1950 C   0  0  0  0  0  2  0  0  0  0  0  0
  191.7890  175.5210  146.4640 C   0  0  0  0  0  2  0  0  0  0  0  0
  192.4720  176.7170  146.2180 O   0  0  0  0  0  1  0  0  0  0  0  0
  192.5530  172.8340  144.8820 O   0  0  0  0  0  0  0  0  0  0  0  0
  192.5960  173.9800  144.3590 C   0  0  0  0  0  0  0  0  0  0  0  0
  193.8160  174.5480  143.9860 O   0  0  0  0  0  0  0  0  0  0  0  0
  193.8850  175.7100  143.1740 C   0  0  0  0  0  1  0  0  0  0  0  0
  190.3730  173.8950  143.3910 N   0  0  0  0  0  2  0  0  0  0  0  0
  190.0730  174.5840  142.1470 C   0  0  0  0  0  2  0  0  0  0  0  0
  188.6300  175.0480  142.1480 C   0  0  0  0  0  2  0  0  0  0  0  0
  188.2240  175.4060  140.7980 N   0  0  0  0  0  2  0  0  0  0  0  0
  187.3430  176.5580  140.9070 C   0  0  0  0  0  2  0  0  0  0  0  0
  187.9450  177.5940  141.8410 C   0  0  0  0  0  2  0  0  0  0  0  0
  186.9060  178.4860  142.3250 N   0  0  0  0  0  2  0  0  0  0  0  0
  185.6850  177.3650  144.0880 C   0  0  0  0  0  2  0  0  0  0  0  0
  185.5150  178.8580  144.2660 C   0  0  1  0  0  3  0  0  0  0  0  0
  185.6600  179.2050  145.7330 C   0  0  0  0  0  1  0  0  0  0  0  0
  186.8310  178.3000  143.7630 C   0  0  2  0  0  3  0  0  0  0  0  0
  1 15  1  1  0  0  0
  1 12  1  0  0  0  0
  1  7  1  0  0  0  0
  2  8  1  0  0  0  0
  3  7  1  0  0  0  0
  3  6  1  0  0  0  0
  5  4  2  0  0  0  0
  5  8  1  0  0  0  0
  6  5  1  0  0  0  0
  7  2  1  0  0  0  0
  7  9  1  0  0  0  0
 10  9  1  0  0  0  0
 12 11  2  0  0  0  0
 13 12  1  0  0  0  0
 14 13  1  0  0  0  0
 16 17  1  0  0  0  0
 16 15  1  0  0  0  0
 18 19  1  0  0  0  0
 18 17  1  0  0  0  0
 19 20  1  0  0  0  0
 20 21  1  0  0  0  0
 22 23  1  0  0  0  0
 23 24  1  1  0  0  0
 25 21  1  6  0  0  0
 25 22  1  0  0  0  0
 25 23  1  0  0  0  0
M  END
>  <MODEL>
5

>  <REMARK>
 VINA RESULT:      -4.9      2.396      3.819
  Name = 
  12 active torsions:
  status: ('A' for Active; 'I' for Inactive)
    1  A    between atoms: C_1  and  N_3
    2  A    between atoms: C_1  and  C_18
    3  A    between atoms: C_1  and  C_24
    4  A    between atoms: N_3  and  C_16
    5  A    between atoms: C_6  and  C_15
    6  A    between atoms: C_6  and  N_21
    7  A    between atoms: O_13  and  C_24
    8  A    between atoms: C_15  and  N_20
    9  A    between atoms: C_16  and  C_23
   10  A    between atoms: C_17  and  C_18
   11  A    between atoms: N_20  and  C_23
   12  A    between atoms: N_21  and  C_25
                            x       y       z     vdW  Elec       q    Type
                         _______ _______ _______ _____ _____    ______ ____

>  <TORSDO>
F 12

$$$$
=
 OpenBabel11052417383D

 25 26  0  0  1  0  0  0  0  0999 V2000
  186.8230  177.6140  145.6030 C   0  0  1  0  0  3  0  0  0  0  0  0
  185.3570  177.2310  143.5880 C   0  0  0  0  0  2  0  0  0  0  0  0
  187.6740  178.1890  143.2930 C   0  0  0  0  0  2  0  0  0  0  0  0
  186.2960  177.2510  140.2300 O   0  0  0  0  0  0  0  0  0  0  0  0
  186.2240  177.7640  141.3330 C   0  0  0  0  0  0  0  0  0  0  0  0
  187.3470  178.6000  141.8550 C   0  0  0  0  0  2  0  0  0  0  0  0
  186.4310  178.1530  144.2060 C   0  0  0  0  0  0  0  0  0  0  0  0
  184.9850  177.6220  142.1560 C   0  0  0  0  0  2  0  0  0  0  0  0
  185.8720  179.5760  144.3540 C   0  0  0  0  0  2  0  0  0  0  0  0
  184.4750  179.5660  144.4110 O   0  0  0  0  0  1  0  0  0  0  0  0
  184.8690  176.6150  146.5420 O   0  0  0  0  0  0  0  0  0  0  0  0
  185.6790  177.5810  146.5760 C   0  0  0  0  0  0  0  0  0  0  0  0
  185.5280  178.6060  147.5130 O   0  0  0  0  0  0  0  0  0  0  0  0
  186.6350  179.1510  148.2120 C   0  0  0  0  0  1  0  0  0  0  0  0
  187.4420  176.2970  145.5130 N   0  0  0  0  0  2  0  0  0  0  0  0
  188.4390  176.2200  146.5680 C   0  0  0  0  0  2  0  0  0  0  0  0
  189.5520  177.2150  146.2990 C   0  0  0  0  0  2  0  0  0  0  0  0
  190.8420  176.5490  146.3850 N   0  0  0  0  0  2  0  0  0  0  0  0
  191.0100  175.7800  145.1610 C   0  0  0  0  0  2  0  0  0  0  0  0
  191.6460  176.6410  144.0830 C   0  0  0  0  0  2  0  0  0  0  0  0
  190.9170  176.4880  142.8360 N   0  0  0  0  0  2  0  0  0  0  0  0
  190.3050  174.3480  141.8880 C   0  0  0  0  0  2  0  0  0  0  0  0
  189.1020  175.2630  141.8150 C   0  0  1  0  0  3  0  0  0  0  0  0
  187.8640  174.4930  142.2230 C   0  0  0  0  0  1  0  0  0  0  0  0
  190.0430  175.3410  143.0000 C   0  0  2  0  0  3  0  0  0  0  0  0
  1 15  1  6  0  0  0
  1 12  1  0  0  0  0
  2  7  1  0  0  0  0
  3  7  1  0  0  0  0
  4  5  2  0  0  0  0
  5  6  1  0  0  0  0
  5  8  1  0  0  0  0
  6  3  1  0  0  0  0
  7  9  1  0  0  0  0
  7  1  1  0  0  0  0
  8  2  1  0  0  0  0
  9 10  1  0  0  0  0
 11 12  2  0  0  0  0
 12 13  1  0  0  0  0
 13 14  1  0  0  0  0
 15 16  1  0  0  0  0
 17 18  1  0  0  0  0
 17 16  1  0  0  0  0
 19 18  1  0  0  0  0
 20 19  1  0  0  0  0
 21 20  1  0  0  0  0
 22 25  1  0  0  0  0
 23 22  1  0  0  0  0
 23 24  1  1  0  0  0
 23 25  1  0  0  0  0
 25 21  1  6  0  0  0
M  END
>  <MODEL>
6

>  <REMARK>
 VINA RESULT:      -4.9      2.592      6.577
  Name = 
  12 active torsions:
  status: ('A' for Active; 'I' for Inactive)
    1  A    between atoms: C_1  and  N_3
    2  A    between atoms: C_1  and  C_18
    3  A    between atoms: C_1  and  C_24
    4  A    between atoms: N_3  and  C_16
    5  A    between atoms: C_6  and  C_15
    6  A    between atoms: C_6  and  N_21
    7  A    between atoms: O_13  and  C_24
    8  A    between atoms: C_15  and  N_20
    9  A    between atoms: C_16  and  C_23
   10  A    between atoms: C_17  and  C_18
   11  A    between atoms: N_20  and  C_23
   12  A    between atoms: N_21  and  C_25
                            x       y       z     vdW  Elec       q    Type
                         _______ _______ _______ _____ _____    ______ ____

>  <TORSDO>
F 12

$$$$
=
 OpenBabel11052417383D

 25 26  0  0  1  0  0  0  0  0999 V2000
  188.3160  176.6530  144.1190 C   0  0  1  0  0  3  0  0  0  0  0  0
  186.7590  178.5870  144.5600 C   0  0  0  0  0  2  0  0  0  0  0  0
  186.4690  176.4250  145.8320 C   0  0  0  0  0  2  0  0  0  0  0  0
  184.5340  178.9750  147.2170 O   0  0  0  0  0  0  0  0  0  0  0  0
  184.9840  178.3560  146.2670 C   0  0  0  0  0  0  0  0  0  0  0  0
  185.0850  176.8660  146.3120 C   0  0  0  0  0  2  0  0  0  0  0  0
  186.8630  177.0490  144.4760 C   0  0  0  0  0  0  0  0  0  0  0  0
  185.3810  179.0710  145.0160 C   0  0  0  0  0  2  0  0  0  0  0  0
  185.9160  176.5230  143.3860 C   0  0  0  0  0  2  0  0  0  0  0  0
  185.9830  177.3140  142.2350 O   0  0  0  0  0  1  0  0  0  0  0  0
  189.6930  177.3990  145.9200 O   0  0  0  0  0  0  0  0  0  0  0  0
  189.1850  176.4130  145.3200 C   0  0  0  0  0  0  0  0  0  0  0  0
  189.4150  175.1110  145.7680 O   0  0  0  0  0  0  0  0  0  0  0  0
  189.3050  174.7590  147.1390 C   0  0  0  0  0  1  0  0  0  0  0  0
  188.3510  175.4920  143.2360 N   0  0  0  0  0  2  0  0  0  0  0  0
  189.5150  175.6440  142.3780 C   0  0  0  0  0  2  0  0  0  0  0  0
  190.1750  174.2960  142.1610 C   0  0  0  0  0  2  0  0  0  0  0  0
  191.6180  174.4260  142.2820 N   0  0  0  0  0  2  0  0  0  0  0  0
  191.8890  175.7790  142.7450 C   0  0  0  0  0  2  0  0  0  0  0  0
  193.3050  176.1850  142.3770 C   0  0  0  0  0  2  0  0  0  0  0  0
  194.1780  176.0310  143.5280 N   0  0  0  0  0  2  0  0  0  0  0  0
  194.4560  177.1440  145.6580 C   0  0  0  0  0  2  0  0  0  0  0  0
  193.8430  175.7830  145.9080 C   0  0  1  0  0  3  0  0  0  0  0  0
  192.7360  175.9150  146.9320 C   0  0  0  0  0  1  0  0  0  0  0  0
  193.4620  176.5700  144.6700 C   0  0  2  0  0  3  0  0  0  0  0  0
  1 15  1  6  0  0  0
  1  7  1  0  0  0  0
  1 12  1  0  0  0  0
  2  8  1  0  0  0  0
  3  6  1  0  0  0  0
  5  6  1  0  0  0  0
  5  4  2  0  0  0  0
  7  2  1  0  0  0  0
  7  3  1  0  0  0  0
  8  5  1  0  0  0  0
  9  7  1  0  0  0  0
 10  9  1  0  0  0  0
 12 13  1  0  0  0  0
 12 11  2  0  0  0  0
 13 14  1  0  0  0  0
 16 15  1  0  0  0  0
 17 18  1  0  0  0  0
 17 16  1  0  0  0  0
 18 19  1  0  0  0  0
 20 19  1  0  0  0  0
 20 21  1  0  0  0  0
 22 23  1  0  0  0  0
 23 24  1  1  0  0  0
 25 21  1  6  0  0  0
 25 22  1  0  0  0  0
 25 23  1  0  0  0  0
M  END
>  <MODEL>
7

>  <REMARK>
 VINA RESULT:      -4.9      2.851      6.315
  Name = 
  12 active torsions:
  status: ('A' for Active; 'I' for Inactive)
    1  A    between atoms: C_1  and  N_3
    2  A    between atoms: C_1  and  C_18
    3  A    between atoms: C_1  and  C_24
    4  A    between atoms: N_3  and  C_16
    5  A    between atoms: C_6  and  C_15
    6  A    between atoms: C_6  and  N_21
    7  A    between atoms: O_13  and  C_24
    8  A    between atoms: C_15  and  N_20
    9  A    between atoms: C_16  and  C_23
   10  A    between atoms: C_17  and  C_18
   11  A    between atoms: N_20  and  C_23
   12  A    between atoms: N_21  and  C_25
                            x       y       z     vdW  Elec       q    Type
                         _______ _______ _______ _____ _____    ______ ____

>  <TORSDO>
F 12

$$$$
=
 OpenBabel11052417383D

 25 26  0  0  1  0  0  0  0  0999 V2000
  187.9880  176.7140  143.9020 C   0  0  1  0  0  3  0  0  0  0  0  0
  185.9470  176.4070  145.3500 C   0  0  0  0  0  2  0  0  0  0  0  0
  186.6430  178.7260  144.6330 C   0  0  0  0  0  2  0  0  0  0  0  0
  183.4590  178.7460  146.0560 O   0  0  0  0  0  0  0  0  0  0  0  0
  184.6230  178.3860  146.0220 C   0  0  0  0  0  0  0  0  0  0  0  0
  185.7060  179.3530  145.6680 C   0  0  0  0  0  2  0  0  0  0  0  0
  187.1490  177.3290  145.0480 C   0  0  0  0  0  0  0  0  0  0  0  0
  184.9960  176.9890  146.3980 C   0  0  0  0  0  2  0  0  0  0  0  0
  188.0290  177.4620  146.3000 C   0  0  0  0  0  2  0  0  0  0  0  0
  188.3160  176.2100  146.8510 O   0  0  0  0  0  1  0  0  0  0  0  0
  187.0410  175.1330  142.3850 O   0  0  0  0  0  0  0  0  0  0  0  0
  187.1760  176.3480  142.6920 C   0  0  0  0  0  0  0  0  0  0  0  0
  186.5730  177.3480  141.9270 O   0  0  0  0  0  0  0  0  0  0  0  0
  186.7560  177.4290  140.5220 C   0  0  0  0  0  1  0  0  0  0  0  0
  189.0900  177.5890  143.5190 N   0  0  0  0  0  2  0  0  0  0  0  0
  190.1730  176.7350  143.0580 C   0  0  0  0  0  2  0  0  0  0  0  0
  190.4320  175.6370  144.0710 C   0  0  0  0  0  2  0  0  0  0  0  0
  191.8640  175.4460  144.2380 N   0  0  0  0  0  2  0  0  0  0  0  0
  192.4730  176.7670  144.2580 C   0  0  0  0  0  2  0  0  0  0  0  0
  193.6070  176.8060  145.2680 C   0  0  0  0  0  2  0  0  0  0  0  0
  193.7730  175.4970  145.8760 N   0  0  0  0  0  2  0  0  0  0  0  0
  195.7830  175.0480  144.6080 C   0  0  0  0  0  2  0  0  0  0  0  0
  195.5150  173.8630  145.5100 C   0  0  1  0  0  3  0  0  0  0  0  0
  196.8150  173.4100  146.1400 C   0  0  0  0  0  1  0  0  0  0  0  0
  195.2010  175.2670  145.9890 C   0  0  2  0  0  3  0  0  0  0  0  0
  1 12  1  6  0  0  0
  1  7  1  0  0  0  0
  2  8  1  0  0  0  0
  3  7  1  0  0  0  0
  3  6  1  0  0  0  0
  5  4  2  0  0  0  0
  5  8  1  0  0  0  0
  6  5  1  0  0  0  0
  7  2  1  0  0  0  0
  7  9  1  0  0  0  0
  9 10  1  0  0  0  0
 11 12  2  0  0  0  0
 13 12  1  0  0  0  0
 14 13  1  0  0  0  0
 15  1  1  0  0  0  0
 16 15  1  0  0  0  0
 16 17  1  0  0  0  0
 17 18  1  0  0  0  0
 18 19  1  0  0  0  0
 19 20  1  0  0  0  0
 20 21  1  0  0  0  0
 22 23  1  0  0  0  0
 22 25  1  0  0  0  0
 23 25  1  0  0  0  0
 23 24  1  1  0  0  0
 25 21  1  6  0  0  0
M  END
>  <MODEL>
8

>  <REMARK>
 VINA RESULT:      -4.9      3.283      6.696
  Name = 
  12 active torsions:
  status: ('A' for Active; 'I' for Inactive)
    1  A    between atoms: C_1  and  N_3
    2  A    between atoms: C_1  and  C_18
    3  A    between atoms: C_1  and  C_24
    4  A    between atoms: N_3  and  C_16
    5  A    between atoms: C_6  and  C_15
    6  A    between atoms: C_6  and  N_21
    7  A    between atoms: O_13  and  C_24
    8  A    between atoms: C_15  and  N_20
    9  A    between atoms: C_16  and  C_23
   10  A    between atoms: C_17  and  C_18
   11  A    between atoms: N_20  and  C_23
   12  A    between atoms: N_21  and  C_25
                            x       y       z     vdW  Elec       q    Type
                         _______ _______ _______ _____ _____    ______ ____

>  <TORSDO>
F 12

$$$$
=
 OpenBabel11052417383D

 25 26  0  0  1  0  0  0  0  0999 V2000
  190.6210  174.3750  144.6200 C   0  0  1  0  0  3  0  0  0  0  0  0
  192.1450  175.5040  146.2810 C   0  0  0  0  0  2  0  0  0  0  0  0
  192.7270  175.5240  143.8240 C   0  0  0  0  0  2  0  0  0  0  0  0
  194.7530  177.7230  145.6200 O   0  0  0  0  0  0  0  0  0  0  0  0
  194.1810  176.6560  145.4750 C   0  0  0  0  0  0  0  0  0  0  0  0
  194.1520  175.9850  144.1400 C   0  0  0  0  0  2  0  0  0  0  0  0
  192.0940  174.6990  144.9640 C   0  0  0  0  0  0  0  0  0  0  0  0
  193.5580  175.9660  146.6460 C   0  0  0  0  0  2  0  0  0  0  0  0
  192.8730  173.3850  145.1270 C   0  0  0  0  0  2  0  0  0  0  0  0
  192.1570  172.3050  144.6020 O   0  0  0  0  0  1  0  0  0  0  0  0
  189.3700  174.1710  146.6430 O   0  0  0  0  0  0  0  0  0  0  0  0
  189.6400  174.8830  145.6390 C   0  0  0  0  0  0  0  0  0  0  0  0
  189.0470  176.1370  145.4740 O   0  0  0  0  0  0  0  0  0  0  0  0
  188.7810  176.9900  146.5750 C   0  0  0  0  0  1  0  0  0  0  0  0
  190.2620  174.8640  143.2930 N   0  0  0  0  0  2  0  0  0  0  0  0
  189.5270  173.7990  142.6300 C   0  0  0  0  0  2  0  0  0  0  0  0
  188.1560  174.2980  142.2160 C   0  0  0  0  0  2  0  0  0  0  0  0
  188.2280  175.7080  141.8650 N   0  0  0  0  0  2  0  0  0  0  0  0
  186.9710  176.3150  142.2730 C   0  0  0  0  0  2  0  0  0  0  0  0
  187.1070  177.8280  142.3110 C   0  0  0  0  0  2  0  0  0  0  0  0
  187.0690  178.2920  143.6870 N   0  0  0  0  0  2  0  0  0  0  0  0
  185.3270  179.8840  144.2210 C   0  0  0  0  0  2  0  0  0  0  0  0
  185.5660  179.0150  145.4360 C   0  0  1  0  0  3  0  0  0  0  0  0
  184.2340  178.6240  146.0400 C   0  0  0  0  0  1  0  0  0  0  0  0
  185.6680  178.4190  144.0460 C   0  0  2  0  0  3  0  0  0  0  0  0
  1 15  1  6  0  0  0
  1  7  1  0  0  0  0
  1 12  1  0  0  0  0
  2  8  1  0  0  0  0
  3  6  1  0  0  0  0
  3  7  1  0  0  0  0
  5  4  2  0  0  0  0
  5  8  1  0  0  0  0
  6  5  1  0  0  0  0
  7  9  1  0  0  0  0
  7  2  1  0  0  0  0
 10  9  1  0  0  0  0
 12 11  2  0  0  0  0
 13 12  1  0  0  0  0
 13 14  1  0  0  0  0
 16 15  1  0  0  0  0
 17 16  1  0  0  0  0
 18 17  1  0  0  0  0
 18 19  1  0  0  0  0
 19 20  1  0  0  0  0
 20 21  1  0  0  0  0
 22 23  1  0  0  0  0
 23 24  1  1  0  0  0
 25 21  1  6  0  0  0
 25 22  1  0  0  0  0
 25 23  1  0  0  0  0
M  END
>  <MODEL>
9

>  <REMARK>
 VINA RESULT:      -4.8      2.359      3.904
  Name = 
  12 active torsions:
  status: ('A' for Active; 'I' for Inactive)
    1  A    between atoms: C_1  and  N_3
    2  A    between atoms: C_1  and  C_18
    3  A    between atoms: C_1  and  C_24
    4  A    between atoms: N_3  and  C_16
    5  A    between atoms: C_6  and  C_15
    6  A    between atoms: C_6  and  N_21
    7  A    between atoms: O_13  and  C_24
    8  A    between atoms: C_15  and  N_20
    9  A    between atoms: C_16  and  C_23
   10  A    between atoms: C_17  and  C_18
   11  A    between atoms: N_20  and  C_23
   12  A    between atoms: N_21  and  C_25
                            x       y       z     vdW  Elec       q    Type
                         _______ _______ _______ _____ _____    ______ ____

>  <TORSDO>
F 12

$$$$
