=
 OpenBabel11052417483D

 31 35  0  0  1  0  0  0  0  0999 V2000
  185.4240  177.8200  146.1040 C   0  0  0  0  0  0  0  0  0  0  0  0
  187.6770  176.0230  143.5870 C   0  0  2  0  0  3  0  0  0  0  0  0
  187.1190  176.4360  142.2460 C   0  0  0  0  0  0  0  0  0  0  0  0
  191.5550  175.2940  147.1530 O   0  0  0  0  0  0  0  0  0  0  0  0
  192.0310  175.0490  146.0110 C   0  0  0  0  0  0  0  0  0  0  0  0
  186.0800  178.0300  140.7350 C   0  0  0  0  0  0  0  0  0  0  0  0
  187.1950  176.7700  144.8110 C   0  0  0  0  0  0  0  0  0  0  0  0
  186.2800  177.9190  147.2040 C   0  0  0  0  0  3  0  0  0  0  0  0
  186.4410  177.6460  142.0300 C   0  0  0  0  0  3  0  0  0  0  0  0
  189.9030  175.8090  144.8070 C   0  0  0  0  0  0  0  0  0  0  0  0
  184.0310  178.3290  146.1980 C   0  0  0  0  0  1  0  0  0  0  0  0
  188.4490  174.1600  141.4190 S   0  0  0  0  0  0  0  0  0  0  0  0
  185.4100  179.1890  140.5350 F   0  0  0  0  0  0  0  0  0  0  0  0
  189.3520  176.2640  145.8950 N   0  0  0  0  0  0  0  0  0  0  0  0
  189.2150  175.9950  143.4750 C   0  0  1  0  0  3  0  0  0  0  0  0
  191.2350  175.2760  144.8380 N   0  0  0  0  0  2  0  0  0  0  0  0
  185.8740  177.2290  144.9200 C   0  0  0  0  0  3  0  0  0  0  0  0
  186.4360  177.2310  139.6430 C   0  0  0  0  0  3  0  0  0  0  0  0
  188.0390  176.8370  145.9360 C   0  0  0  0  0  0  0  0  0  0  0  0
  187.5820  177.4180  147.1220 C   0  0  0  0  0  3  0  0  0  0  0  0
  189.7480  175.0370  142.3820 C   0  0  0  0  0  2  0  0  0  0  0  0
  187.4760  175.6440  141.1450 C   0  0  0  0  0  0  0  0  0  0  0  0
  187.1430  176.0430  139.8470 C   0  0  0  0  0  3  0  0  0  0  0  0
  195.9650  173.3710  145.5580 C   0  0  0  0  0  0  0  0  0  0  0  0
  193.5610  173.1460  145.5980 C   0  0  0  0  0  3  0  0  0  0  0  0
  194.5320  176.7840  146.2510 C   0  0  0  0  0  1  0  0  0  0  0  0
  197.5520  172.6580  145.3690 Cl  0  0  0  0  0  0  0  0  0  0  0  0
  194.8250  172.5760  145.4470 C   0  0  0  0  0  3  0  0  0  0  0  0
  194.5760  175.3190  145.9730 C   0  0  0  0  0  0  0  0  0  0  0  0
  193.4100  174.5170  145.8620 C   0  0  0  0  0  0  0  0  0  0  0  0
  195.8390  174.7350  145.8200 C   0  0  0  0  0  3  0  0  0  0  0  0
  1 11  1  0  0  0  0
  1  8  1  0  0  0  0
  2  3  1  6  0  0  0
  2  7  1  0  0  0  0
  5  4  2  0  0  0  0
  6  9  2  0  0  0  0
  7 17  1  0  0  0  0
  7 19  2  0  0  0  0
  9  3  1  0  0  0  0
 10 16  1  0  0  0  0
 10 14  2  0  0  0  0
 12 21  1  0  0  0  0
 13  6  1  0  0  0  0
 14 19  1  0  0  0  0
 15 21  1  6  0  0  0
 15  2  1  0  0  0  0
 15 10  1  0  0  0  0
 16  5  1  0  0  0  0
 17  1  2  0  0  0  0
 18 23  2  0  0  0  0
 18  6  1  0  0  0  0
 19 20  1  0  0  0  0
 20  8  2  0  0  0  0
 22 12  1  0  0  0  0
 22  3  2  0  0  0  0
 23 22  1  0  0  0  0
 24 31  1  0  0  0  0
 25 30  2  0  0  0  0
 27 24  1  0  0  0  0
 28 24  2  0  0  0  0
 28 25  1  0  0  0  0
 29 26  1  0  0  0  0
 30 29  1  0  0  0  0
 30  5  1  0  0  0  0
 31 29  2  0  0  0  0
M  END
>  <MODEL>
1

>  <REMARK>
 VINA RESULT:      -9.4      0.000      0.000
  Name = 
  1 active torsions:
  status: ('A' for Active; 'I' for Inactive)
    1  A    between atoms: C_9  and  C_22
                            x       y       z     vdW  Elec       q    Type
                         _______ _______ _______ _____ _____    ______ ____

>  <TORSDO>
F 1

$$$$
=
 OpenBabel11052417483D

 31 35  0  0  1  0  0  0  0  0999 V2000
  186.1400  178.6830  143.0190 C   0  0  0  0  0  0  0  0  0  0  0  0
  188.9640  176.1080  143.2030 C   0  0  2  0  0  3  0  0  0  0  0  0
  189.1430  175.8760  144.6850 C   0  0  0  0  0  0  0  0  0  0  0  0
  188.2800  174.5810  138.1550 O   0  0  0  0  0  0  0  0  0  0  0  0
  189.0190  173.7290  138.7180 C   0  0  0  0  0  0  0  0  0  0  0  0
  188.3080  175.6660  146.9570 C   0  0  0  0  0  0  0  0  0  0  0  0
  187.7370  176.8700  142.7530 C   0  0  0  0  0  0  0  0  0  0  0  0
  185.6200  178.4170  141.7500 C   0  0  0  0  0  3  0  0  0  0  0  0
  188.1120  176.0390  145.6230 C   0  0  0  0  0  3  0  0  0  0  0  0
  188.7450  174.8080  141.0230 C   0  0  0  0  0  0  0  0  0  0  0  0
  185.5690  179.7810  143.8420 C   0  0  0  0  0  1  0  0  0  0  0  0
  191.6190  174.9720  143.8560 S   0  0  0  0  0  0  0  0  0  0  0  0
  187.3160  175.8440  147.8610 F   0  0  0  0  0  0  0  0  0  0  0  0
  187.8360  175.6450  140.6140 N   0  0  0  0  0  0  0  0  0  0  0  0
  189.1180  174.7510  142.4860 C   0  0  1  0  0  3  0  0  0  0  0  0
  189.2810  173.8240  140.1260 N   0  0  0  0  0  2  0  0  0  0  0  0
  187.2080  177.9260  143.5090 C   0  0  0  0  0  3  0  0  0  0  0  0
  189.5180  175.0860  147.3500 C   0  0  0  0  0  3  0  0  0  0  0  0
  187.2340  176.6330  141.4580 C   0  0  0  0  0  0  0  0  0  0  0  0
  186.1740  177.4000  140.9680 C   0  0  0  0  0  3  0  0  0  0  0  0
  190.4800  174.0600  142.7340 C   0  0  0  0  0  2  0  0  0  0  0  0
  190.3510  175.2880  145.0880 C   0  0  0  0  0  0  0  0  0  0  0  0
  190.5360  174.8870  146.4130 C   0  0  0  0  0  3  0  0  0  0  0  0
  190.7240  170.4340  136.5420 C   0  0  0  0  0  0  0  0  0  0  0  0
  189.2730  171.3070  138.2630 C   0  0  0  0  0  3  0  0  0  0  0  0
  191.0150  174.1870  136.4550 C   0  0  0  0  0  1  0  0  0  0  0  0
  191.4000  169.0730  135.6750 Cl  0  0  0  0  0  0  0  0  0  0  0  0
  189.8120  170.2200  137.5740 C   0  0  0  0  0  3  0  0  0  0  0  0
  190.5640  172.8320  136.8840 C   0  0  0  0  0  0  0  0  0  0  0  0
  189.6350  172.6240  137.9370 C   0  0  0  0  0  0  0  0  0  0  0  0
  191.0970  171.7340  136.2000 C   0  0  0  0  0  3  0  0  0  0  0  0
  1 17  1  0  0  0  0
  1 11  1  0  0  0  0
  2  7  1  1  0  0  0
  2  3  1  0  0  0  0
  3 22  2  0  0  0  0
  3  9  1  0  0  0  0
  4  5  2  0  0  0  0
  5 16  1  0  0  0  0
  6 18  1  0  0  0  0
  6 13  1  0  0  0  0
  7 17  2  0  0  0  0
  8  1  2  0  0  0  0
  9  6  2  0  0  0  0
 10 15  1  0  0  0  0
 12 22  1  0  0  0  0
 14 10  2  0  0  0  0
 14 19  1  0  0  0  0
 15 21  1  6  0  0  0
 15  2  1  0  0  0  0
 16 10  1  0  0  0  0
 19  7  1  0  0  0  0
 20 19  2  0  0  0  0
 20  8  1  0  0  0  0
 21 12  1  0  0  0  0
 22 23  1  0  0  0  0
 23 18  2  0  0  0  0
 24 28  1  0  0  0  0
 26 29  1  0  0  0  0
 27 24  1  0  0  0  0
 28 25  2  0  0  0  0
 29 30  2  0  0  0  0
 30 25  1  0  0  0  0
 30  5  1  0  0  0  0
 31 24  2  0  0  0  0
 31 29  1  0  0  0  0
M  END
>  <MODEL>
2

>  <REMARK>
 VINA RESULT:      -8.7      4.701      7.024
  Name = 
  1 active torsions:
  status: ('A' for Active; 'I' for Inactive)
    1  A    between atoms: C_9  and  C_22
                            x       y       z     vdW  Elec       q    Type
                         _______ _______ _______ _____ _____    ______ ____

>  <TORSDO>
F 1

$$$$
=
 OpenBabel11052417483D

 31 35  0  0  1  0  0  0  0  0999 V2000
  186.5190  177.4190  141.1780 C   0  0  0  0  0  0  0  0  0  0  0  0
  188.3080  176.8230  144.5080 C   0  0  2  0  0  3  0  0  0  0  0  0
  187.3430  177.3640  145.5360 C   0  0  0  0  0  0  0  0  0  0  0  0
  191.5490  173.1540  142.4310 O   0  0  0  0  0  0  0  0  0  0  0  0
  191.6400  173.0820  143.6870 C   0  0  0  0  0  0  0  0  0  0  0  0
  185.1090  177.7890  146.3920 C   0  0  0  0  0  0  0  0  0  0  0  0
  187.8030  176.6470  143.0930 C   0  0  0  0  0  0  0  0  0  0  0  0
  187.0970  176.4260  140.3840 C   0  0  0  0  0  3  0  0  0  0  0  0
  185.9540  177.4130  145.3420 C   0  0  0  0  0  3  0  0  0  0  0  0
  189.7610  174.7790  144.0610 C   0  0  0  0  0  0  0  0  0  0  0  0
  185.5250  178.3540  140.5910 C   0  0  0  0  0  1  0  0  0  0  0  0
  189.6350  177.4630  147.0750 S   0  0  0  0  0  0  0  0  0  0  0  0
  183.7710  177.8530  146.1930 F   0  0  0  0  0  0  0  0  0  0  0  0
  189.4420  174.8260  142.7990 N   0  0  0  0  0  0  0  0  0  0  0  0
  188.9410  175.5380  145.0770 C   0  0  1  0  0  3  0  0  0  0  0  0
  190.7850  173.8830  144.5160 N   0  0  0  0  0  2  0  0  0  0  0  0
  186.8860  177.5420  142.5210 C   0  0  0  0  0  3  0  0  0  0  0  0
  185.6440  178.0740  147.6520 C   0  0  0  0  0  3  0  0  0  0  0  0
  188.4110  175.6730  142.2760 C   0  0  0  0  0  0  0  0  0  0  0  0
  188.0490  175.5610  140.9310 C   0  0  0  0  0  3  0  0  0  0  0  0
  189.6860  175.7450  146.4180 C   0  0  0  0  0  2  0  0  0  0  0  0
  187.8690  177.6460  146.8050 C   0  0  0  0  0  0  0  0  0  0  0  0
  187.0230  177.9920  147.8620 C   0  0  0  0  0  3  0  0  0  0  0  0
  194.4490  170.3530  145.4660 C   0  0  0  0  0  0  0  0  0  0  0  0
  192.5420  170.8040  144.0550 C   0  0  0  0  0  3  0  0  0  0  0  0
  193.8550  174.0710  145.5400 C   0  0  0  0  0  1  0  0  0  0  0  0
  195.5760  169.2180  146.1750 Cl  0  0  0  0  0  0  0  0  0  0  0  0
  193.4390  169.8970  144.6200 C   0  0  0  0  0  3  0  0  0  0  0  0
  193.6650  172.6340  145.1880 C   0  0  0  0  0  0  0  0  0  0  0  0
  192.6340  172.1790  144.3250 C   0  0  0  0  0  0  0  0  0  0  0  0
  194.5600  171.7150  145.7470 C   0  0  0  0  0  3  0  0  0  0  0  0
  1 17  1  0  0  0  0
  2  7  1  6  0  0  0
  2 15  1  0  0  0  0
  2  3  1  0  0  0  0
  3 22  1  0  0  0  0
  4  5  2  0  0  0  0
  5 30  1  0  0  0  0
  5 16  1  0  0  0  0
  6 18  2  0  0  0  0
  8 20  1  0  0  0  0
  8  1  2  0  0  0  0
  9  3  2  0  0  0  0
  9  6  1  0  0  0  0
 10 16  1  0  0  0  0
 10 15  1  0  0  0  0
 11  1  1  0  0  0  0
 13  6  1  0  0  0  0
 14 10  2  0  0  0  0
 15 21  1  1  0  0  0
 17  7  2  0  0  0  0
 18 23  1  0  0  0  0
 19 14  1  0  0  0  0
 19  7  1  0  0  0  0
 20 19  2  0  0  0  0
 21 12  1  0  0  0  0
 22 12  1  0  0  0  0
 22 23  2  0  0  0  0
 24 31  1  0  0  0  0
 24 27  1  0  0  0  0
 25 30  2  0  0  0  0
 25 28  1  0  0  0  0
 28 24  2  0  0  0  0
 29 26  1  0  0  0  0
 29 31  2  0  0  0  0
 30 29  1  0  0  0  0
M  END
>  <MODEL>
3

>  <REMARK>
 VINA RESULT:      -8.6      2.445      4.538
  Name = 
  1 active torsions:
  status: ('A' for Active; 'I' for Inactive)
    1  A    between atoms: C_9  and  C_22
                            x       y       z     vdW  Elec       q    Type
                         _______ _______ _______ _____ _____    ______ ____

>  <TORSDO>
F 1

$$$$
=
 OpenBabel11052417483D

 31 35  0  0  1  0  0  0  0  0999 V2000
  195.3760  174.3010  145.7630 C   0  0  0  0  0  0  0  0  0  0  0  0
  192.2510  173.4940  143.7080 C   0  0  2  0  0  3  0  0  0  0  0  0
  192.3790  172.0150  143.4260 C   0  0  0  0  0  0  0  0  0  0  0  0
  189.7030  177.8640  145.3460 O   0  0  0  0  0  0  0  0  0  0  0  0
  188.8560  177.1090  144.7950 C   0  0  0  0  0  0  0  0  0  0  0  0
  193.0220  169.7490  144.0180 C   0  0  0  0  0  0  0  0  0  0  0  0
  193.1820  174.0970  144.7370 C   0  0  0  0  0  0  0  0  0  0  0  0
  194.9430  175.4200  146.4770 C   0  0  0  0  0  3  0  0  0  0  0  0
  193.0690  171.1250  144.2630 C   0  0  0  0  0  3  0  0  0  0  0  0
  190.5380  175.2010  144.5090 C   0  0  0  0  0  0  0  0  0  0  0  0
  196.7670  173.8060  145.9290 C   0  0  0  0  0  1  0  0  0  0  0  0
  190.6250  172.6430  141.3850 S   0  0  0  0  0  0  0  0  0  0  0  0
  193.7060  168.8970  144.8180 F   0  0  0  0  0  0  0  0  0  0  0  0
  191.4590  175.7980  145.2100 N   0  0  0  0  0  0  0  0  0  0  0  0
  190.7670  173.7980  143.9980 C   0  0  1  0  0  3  0  0  0  0  0  0
  189.2430  175.7980  144.3570 N   0  0  0  0  0  2  0  0  0  0  0  0
  194.5060  173.6550  144.8810 C   0  0  0  0  0  3  0  0  0  0  0  0
  192.2490  169.2510  142.9650 C   0  0  0  0  0  3  0  0  0  0  0  0
  192.7640  175.2500  145.4310 C   0  0  0  0  0  0  0  0  0  0  0  0
  193.6420  175.8990  146.3030 C   0  0  0  0  0  3  0  0  0  0  0  0
  189.8100  173.4130  142.8440 C   0  0  0  0  0  2  0  0  0  0  0  0
  191.6010  171.5070  142.3750 C   0  0  0  0  0  0  0  0  0  0  0  0
  191.5290  170.1300  142.1490 C   0  0  0  0  0  3  0  0  0  0  0  0
  184.8470  178.4750  144.0470 C   0  0  0  0  0  0  0  0  0  0  0  0
  187.1410  178.1690  143.3570 C   0  0  0  0  0  3  0  0  0  0  0  0
  186.6570  176.7910  146.8880 C   0  0  0  0  0  1  0  0  0  0  0  0
  183.2250  179.0410  143.7130 Cl  0  0  0  0  0  0  0  0  0  0  0  0
  185.8490  178.6210  143.0890 C   0  0  0  0  0  3  0  0  0  0  0  0
  186.4310  177.4190  145.5540 C   0  0  0  0  0  0  0  0  0  0  0  0
  187.4580  177.5640  144.5840 C   0  0  0  0  0  0  0  0  0  0  0  0
  185.1390  177.8760  145.2730 C   0  0  0  0  0  3  0  0  0  0  0  0
  1 11  1  0  0  0  0
  1  8  1  0  0  0  0
  2  3  1  1  0  0  0
  2 15  1  0  0  0  0
  2  7  1  0  0  0  0
  3  9  1  0  0  0  0
  5  4  2  0  0  0  0
  6  9  2  0  0  0  0
  6 13  1  0  0  0  0
  7 17  1  0  0  0  0
  7 19  2  0  0  0  0
 10 14  2  0  0  0  0
 12 22  1  0  0  0  0
 12 21  1  0  0  0  0
 14 19  1  0  0  0  0
 15 21  1  6  0  0  0
 15 10  1  0  0  0  0
 16 10  1  0  0  0  0
 16  5  1  0  0  0  0
 17  1  2  0  0  0  0
 18  6  1  0  0  0  0
 19 20  1  0  0  0  0
 20  8  2  0  0  0  0
 22  3  2  0  0  0  0
 23 22  1  0  0  0  0
 23 18  2  0  0  0  0
 24 31  1  0  0  0  0
 25 30  2  0  0  0  0
 27 24  1  0  0  0  0
 28 25  1  0  0  0  0
 28 24  2  0  0  0  0
 29 26  1  0  0  0  0
 30  5  1  0  0  0  0
 30 29  1  0  0  0  0
 31 29  2  0  0  0  0
M  END
>  <MODEL>
4

>  <REMARK>
 VINA RESULT:      -8.5      4.371      8.461
  Name = 
  1 active torsions:
  status: ('A' for Active; 'I' for Inactive)
    1  A    between atoms: C_9  and  C_22
                            x       y       z     vdW  Elec       q    Type
                         _______ _______ _______ _____ _____    ______ ____

>  <TORSDO>
F 1

$$$$
=
 OpenBabel11052417483D

 31 35  0  0  1  0  0  0  0  0999 V2000
  186.8720  177.5580  144.5550 C   0  0  0  0  0  0  0  0  0  0  0  0
  190.2440  176.2310  143.3260 C   0  0  2  0  0  3  0  0  0  0  0  0
  191.1420  176.3590  144.5330 C   0  0  0  0  0  0  0  0  0  0  0  0
  188.0490  173.6450  139.2290 O   0  0  0  0  0  0  0  0  0  0  0  0
  189.2330  173.2310  139.3560 C   0  0  0  0  0  0  0  0  0  0  0  0
  191.5740  176.2970  146.9230 C   0  0  0  0  0  0  0  0  0  0  0  0
  188.7560  176.4110  143.5330 C   0  0  0  0  0  0  0  0  0  0  0  0
  185.9950  176.8930  143.6950 C   0  0  0  0  0  3  0  0  0  0  0  0
  190.6720  176.3190  145.8540 C   0  0  0  0  0  3  0  0  0  0  0  0
  189.6140  174.5550  141.5140 C   0  0  0  0  0  0  0  0  0  0  0  0
  186.3430  178.5160  145.5610 C   0  0  0  0  0  1  0  0  0  0  0  0
  193.1140  176.2510  142.6000 S   0  0  0  0  0  0  0  0  0  0  0  0
  191.1140  176.2780  148.1960 F   0  0  0  0  0  0  0  0  0  0  0  0
  188.3680  174.9230  141.6040 N   0  0  0  0  0  0  0  0  0  0  0  0
  190.5890  174.9080  142.6120 C   0  0  1  0  0  3  0  0  0  0  0  0
  190.0350  173.6740  140.4620 N   0  0  0  0  0  2  0  0  0  0  0  0
  188.2480  177.3330  144.4600 C   0  0  0  0  0  3  0  0  0  0  0  0
  192.9500  176.2670  146.6760 C   0  0  0  0  0  3  0  0  0  0  0  0
  187.8690  175.7740  142.6430 C   0  0  0  0  0  0  0  0  0  0  0  0
  186.4950  176.0100  142.7340 C   0  0  0  0  0  3  0  0  0  0  0  0
  192.0660  174.8030  142.1630 C   0  0  0  0  0  2  0  0  0  0  0  0
  192.5240  176.3230  144.2950 C   0  0  0  0  0  0  0  0  0  0  0  0
  193.4250  176.2690  145.3610 C   0  0  0  0  0  3  0  0  0  0  0  0
  190.8650  170.3940  136.5640 C   0  0  0  0  0  0  0  0  0  0  0  0
  189.5620  170.9190  138.5290 C   0  0  0  0  0  3  0  0  0  0  0  0
  190.9520  174.1340  137.0010 C   0  0  0  0  0  1  0  0  0  0  0  0
  191.5140  169.2160  135.4450 Cl  0  0  0  0  0  0  0  0  0  0  0  0
  190.0800  169.9780  137.6380 C   0  0  0  0  0  3  0  0  0  0  0  0
  190.6190  172.7050  137.2680 C   0  0  0  0  0  0  0  0  0  0  0  0
  189.8190  172.2900  138.3650 C   0  0  0  0  0  0  0  0  0  0  0  0
  191.1320  171.7510  136.3820 C   0  0  0  0  0  3  0  0  0  0  0  0
  1 11  1  0  0  0  0
  2  7  1  1  0  0  0
  2  3  1  0  0  0  0
  3  9  1  0  0  0  0
  4  5  2  0  0  0  0
  5 16  1  0  0  0  0
  6 13  1  0  0  0  0
  7 17  2  0  0  0  0
  8  1  2  0  0  0  0
  9  6  2  0  0  0  0
 10 14  2  0  0  0  0
 10 15  1  0  0  0  0
 12 22  1  0  0  0  0
 14 19  1  0  0  0  0
 15 21  1  6  0  0  0
 15  2  1  0  0  0  0
 16 10  1  0  0  0  0
 17  1  1  0  0  0  0
 18  6  1  0  0  0  0
 19 20  2  0  0  0  0
 19  7  1  0  0  0  0
 20  8  1  0  0  0  0
 21 12  1  0  0  0  0
 22  3  2  0  0  0  0
 22 23  1  0  0  0  0
 23 18  2  0  0  0  0
 24 28  1  0  0  0  0
 26 29  1  0  0  0  0
 27 24  1  0  0  0  0
 28 25  2  0  0  0  0
 29 30  2  0  0  0  0
 30 25  1  0  0  0  0
 30  5  1  0  0  0  0
 31 24  2  0  0  0  0
 31 29  1  0  0  0  0
M  END
>  <MODEL>
5

>  <REMARK>
 VINA RESULT:      -8.4      4.755      7.069
  Name = 
  1 active torsions:
  status: ('A' for Active; 'I' for Inactive)
    1  A    between atoms: C_9  and  C_22
                            x       y       z     vdW  Elec       q    Type
                         _______ _______ _______ _____ _____    ______ ____

>  <TORSDO>
F 1

$$$$
=
 OpenBabel11052417483D

 31 35  0  0  1  0  0  0  0  0999 V2000
  185.3250  177.9370  146.1320 C   0  0  0  0  0  0  0  0  0  0  0  0
  187.5230  176.4330  143.3840 C   0  0  2  0  0  3  0  0  0  0  0  0
  186.8040  176.8010  142.1080 C   0  0  0  0  0  0  0  0  0  0  0  0
  191.7610  176.0860  146.5770 O   0  0  0  0  0  0  0  0  0  0  0  0
  192.1570  175.9110  145.3930 C   0  0  0  0  0  0  0  0  0  0  0  0
  185.4680  178.2920  140.7320 C   0  0  0  0  0  0  0  0  0  0  0  0
  187.0750  177.1060  144.6630 C   0  0  0  0  0  0  0  0  0  0  0  0
  186.2600  178.1140  147.1540 C   0  0  0  0  0  3  0  0  0  0  0  0
  185.9830  177.9320  141.9810 C   0  0  0  0  0  3  0  0  0  0  0  0
  189.8590  176.4480  144.3990 C   0  0  0  0  0  0  0  0  0  0  0  0
  183.8990  178.2890  146.3590 C   0  0  0  0  0  1  0  0  0  0  0  0
  188.2930  174.6960  141.1140 S   0  0  0  0  0  0  0  0  0  0  0  0
  184.6610  179.3730  140.6190 F   0  0  0  0  0  0  0  0  0  0  0  0
  189.3630  176.8250  145.5410 N   0  0  0  0  0  0  0  0  0  0  0  0
  189.0380  176.5760  143.1380 C   0  0  1  0  0  3  0  0  0  0  0  0
  191.2390  176.0650  144.3000 N   0  0  0  0  0  2  0  0  0  0  0  0
  185.7270  177.4160  144.8990 C   0  0  0  0  0  3  0  0  0  0  0  0
  185.8080  177.5520  139.5950 C   0  0  0  0  0  3  0  0  0  0  0  0
  188.0050  177.2500  145.7120 C   0  0  0  0  0  0  0  0  0  0  0  0
  187.5960  177.7610  146.9460 C   0  0  0  0  0  3  0  0  0  0  0  0
  189.5720  175.6980  141.9790 C   0  0  0  0  0  2  0  0  0  0  0  0
  187.1450  176.0680  140.9610 C   0  0  0  0  0  0  0  0  0  0  0  0
  186.6560  176.4460  139.7080 C   0  0  0  0  0  3  0  0  0  0  0  0
  196.2640  174.9650  144.5350 C   0  0  0  0  0  0  0  0  0  0  0  0
  194.4350  176.5370  144.6480 C   0  0  0  0  0  3  0  0  0  0  0  0
  193.2450  173.0840  145.7720 C   0  0  0  0  0  1  0  0  0  0  0  0
  197.9400  174.6110  144.1770 Cl  0  0  0  0  0  0  0  0  0  0  0  0
  195.7710  176.2570  144.3610 C   0  0  0  0  0  3  0  0  0  0  0  0
  194.0780  174.2220  145.2850 C   0  0  0  0  0  0  0  0  0  0  0  0
  193.5660  175.5350  145.1110 C   0  0  0  0  0  0  0  0  0  0  0  0
  195.4200  173.9540  144.9940 C   0  0  0  0  0  3  0  0  0  0  0  0
  1 11  1  0  0  0  0
  1  8  1  0  0  0  0
  2  3  1  6  0  0  0
  2  7  1  0  0  0  0
  5  4  2  0  0  0  0
  6  9  2  0  0  0  0
  7 17  1  0  0  0  0
  7 19  2  0  0  0  0
  9  3  1  0  0  0  0
 10 14  2  0  0  0  0
 12 21  1  0  0  0  0
 13  6  1  0  0  0  0
 14 19  1  0  0  0  0
 15 21  1  6  0  0  0
 15  2  1  0  0  0  0
 15 10  1  0  0  0  0
 16 10  1  0  0  0  0
 16  5  1  0  0  0  0
 17  1  2  0  0  0  0
 18 23  2  0  0  0  0
 18  6  1  0  0  0  0
 19 20  1  0  0  0  0
 20  8  2  0  0  0  0
 22 12  1  0  0  0  0
 22  3  2  0  0  0  0
 23 22  1  0  0  0  0
 24 31  1  0  0  0  0
 25 30  2  0  0  0  0
 27 24  1  0  0  0  0
 28 24  2  0  0  0  0
 28 25  1  0  0  0  0
 29 26  1  0  0  0  0
 30 29  1  0  0  0  0
 30  5  1  0  0  0  0
 31 29  2  0  0  0  0
M  END
>  <MODEL>
6

>  <REMARK>
 VINA RESULT:      -8.2      0.938      1.479
  Name = 
  1 active torsions:
  status: ('A' for Active; 'I' for Inactive)
    1  A    between atoms: C_9  and  C_22
                            x       y       z     vdW  Elec       q    Type
                         _______ _______ _______ _____ _____    ______ ____

>  <TORSDO>
F 1

$$$$
=
 OpenBabel11052417483D

 31 35  0  0  1  0  0  0  0  0999 V2000
  196.5420  174.9490  143.6130 C   0  0  0  0  0  0  0  0  0  0  0  0
  193.1080  173.2720  143.8060 C   0  0  2  0  0  3  0  0  0  0  0  0
  193.4310  171.8210  144.0700 C   0  0  0  0  0  0  0  0  0  0  0  0
  190.6020  177.8740  144.7130 O   0  0  0  0  0  0  0  0  0  0  0  0
  189.7950  176.9390  144.9690 C   0  0  0  0  0  0  0  0  0  0  0  0
  194.7600  170.0490  145.0690 C   0  0  0  0  0  0  0  0  0  0  0  0
  194.2290  174.2790  143.9430 C   0  0  0  0  0  0  0  0  0  0  0  0
  196.2190  176.2590  143.9720 C   0  0  0  0  0  3  0  0  0  0  0  0
  194.5950  171.3950  144.7280 C   0  0  0  0  0  3  0  0  0  0  0  0
  191.5720  175.1270  144.6360 C   0  0  0  0  0  0  0  0  0  0  0  0
  197.9410  174.6000  143.2530 C   0  0  0  0  0  1  0  0  0  0  0  0
  190.8780  171.4680  143.0740 S   0  0  0  0  0  0  0  0  0  0  0  0
  195.8930  169.6410  145.6870 F   0  0  0  0  0  0  0  0  0  0  0  0
  192.5430  175.9860  144.5210 N   0  0  0  0  0  0  0  0  0  0  0  0
  191.8680  173.6460  144.6420 C   0  0  1  0  0  3  0  0  0  0  0  0
  190.2390  175.5750  144.9220 N   0  0  0  0  0  2  0  0  0  0  0  0
  195.5470  173.9680  143.5790 C   0  0  0  0  0  3  0  0  0  0  0  0
  193.7420  169.1290  144.7970 C   0  0  0  0  0  3  0  0  0  0  0  0
  193.9030  175.6120  144.2660 C   0  0  0  0  0  0  0  0  0  0  0  0
  194.8990  176.5910  144.2880 C   0  0  0  0  0  3  0  0  0  0  0  0
  190.6210  172.7810  144.3370 C   0  0  0  0  0  2  0  0  0  0  0  0
  192.4140  170.8920  143.8060 C   0  0  0  0  0  0  0  0  0  0  0  0
  192.5640  169.5530  144.1740 C   0  0  0  0  0  3  0  0  0  0  0  0
  185.7260  177.7470  146.1050 C   0  0  0  0  0  0  0  0  0  0  0  0
  187.9750  177.0560  146.6460 C   0  0  0  0  0  3  0  0  0  0  0  0
  187.7400  177.8990  142.9260 C   0  0  0  0  0  1  0  0  0  0  0  0
  184.0770  178.0670  146.5970 Cl  0  0  0  0  0  0  0  0  0  0  0  0
  186.6620  177.3100  147.0410 C   0  0  0  0  0  3  0  0  0  0  0  0
  187.4190  177.6780  144.3660 C   0  0  0  0  0  0  0  0  0  0  0  0
  188.3790  177.2320  145.3120 C   0  0  0  0  0  0  0  0  0  0  0  0
  186.1040  177.9290  144.7750 C   0  0  0  0  0  3  0  0  0  0  0  0
  1  8  1  0  0  0  0
  2  7  1  1  0  0  0
  2  3  1  0  0  0  0
  2 15  1  0  0  0  0
  3  9  1  0  0  0  0
  4  5  2  0  0  0  0
  5 30  1  0  0  0  0
  6 13  1  0  0  0  0
  7 19  2  0  0  0  0
  8 20  2  0  0  0  0
  9  6  2  0  0  0  0
 10 15  1  0  0  0  0
 10 16  1  0  0  0  0
 11  1  1  0  0  0  0
 12 22  1  0  0  0  0
 12 21  1  0  0  0  0
 14 10  2  0  0  0  0
 15 21  1  6  0  0  0
 16  5  1  0  0  0  0
 17  1  2  0  0  0  0
 17  7  1  0  0  0  0
 18  6  1  0  0  0  0
 19 20  1  0  0  0  0
 19 14  1  0  0  0  0
 22  3  2  0  0  0  0
 22 23  1  0  0  0  0
 23 18  2  0  0  0  0
 24 27  1  0  0  0  0
 24 28  1  0  0  0  0
 25 28  2  0  0  0  0
 26 29  1  0  0  0  0
 29 31  1  0  0  0  0
 29 30  2  0  0  0  0
 30 25  1  0  0  0  0
 31 24  2  0  0  0  0
M  END
>  <MODEL>
7

>  <REMARK>
 VINA RESULT:      -8.1      4.359      8.855
  Name = 
  1 active torsions:
  status: ('A' for Active; 'I' for Inactive)
    1  A    between atoms: C_9  and  C_22
                            x       y       z     vdW  Elec       q    Type
                         _______ _______ _______ _____ _____    ______ ____

>  <TORSDO>
F 1

$$$$
=
 OpenBabel11052417483D

 31 35  0  0  1  0  0  0  0  0999 V2000
  193.0320  172.5400  139.2740 C   0  0  0  0  0  0  0  0  0  0  0  0
  193.2220  174.7170  142.4150 C   0  0  2  0  0  3  0  0  0  0  0  0
  194.6280  175.2660  142.3870 C   0  0  0  0  0  0  0  0  0  0  0  0
  187.9320  175.0870  142.8170 O   0  0  0  0  0  0  0  0  0  0  0  0
  188.4370  175.9500  143.5850 C   0  0  0  0  0  0  0  0  0  0  0  0
  196.5990  176.1060  141.2410 C   0  0  0  0  0  0  0  0  0  0  0  0
  192.7100  174.0280  141.1690 C   0  0  0  0  0  0  0  0  0  0  0  0
  191.6600  172.5620  139.0170 C   0  0  0  0  0  3  0  0  0  0  0  0
  195.3600  175.4570  141.2050 C   0  0  0  0  0  3  0  0  0  0  0  0
  190.8190  175.4850  142.7690 C   0  0  0  0  0  0  0  0  0  0  0  0
  193.9380  171.7460  138.4050 C   0  0  0  0  0  1  0  0  0  0  0  0
  194.1270  175.6380  145.0790 S   0  0  0  0  0  0  0  0  0  0  0  0
  197.3100  176.2700  140.1000 F   0  0  0  0  0  0  0  0  0  0  0  0
  190.4230  174.6950  141.8130 N   0  0  0  0  0  0  0  0  0  0  0  0
  192.2810  175.8370  142.9030 C   0  0  1  0  0  3  0  0  0  0  0  0
  189.8580  176.1560  143.5960 N   0  0  0  0  0  2  0  0  0  0  0  0
  193.5520  173.2530  140.3580 C   0  0  0  0  0  3  0  0  0  0  0  0
  197.0910  176.6080  142.4500 C   0  0  0  0  0  3  0  0  0  0  0  0
  191.3220  174.0140  140.9270 C   0  0  0  0  0  0  0  0  0  0  0  0
  190.8050  173.2900  139.8500 C   0  0  0  0  0  3  0  0  0  0  0  0
  192.6400  176.3940  144.3020 C   0  0  0  0  0  2  0  0  0  0  0  0
  195.1270  175.7790  143.5940 C   0  0  0  0  0  0  0  0  0  0  0  0
  196.3500  176.4540  143.6250 C   0  0  0  0  0  3  0  0  0  0  0  0
  185.9850  178.1850  146.3220 C   0  0  0  0  0  0  0  0  0  0  0  0
  187.4700  176.3450  145.8310 C   0  0  0  0  0  3  0  0  0  0  0  0
  186.9110  178.4340  142.6810 C   0  0  0  0  0  1  0  0  0  0  0  0
  184.9950  179.0730  147.4590 Cl  0  0  0  0  0  0  0  0  0  0  0  0
  186.6810  177.0510  146.7390 C   0  0  0  0  0  3  0  0  0  0  0  0
  186.8660  177.9110  144.0760 C   0  0  0  0  0  0  0  0  0  0  0  0
  187.5780  176.7550  144.4920 C   0  0  0  0  0  0  0  0  0  0  0  0
  186.0780  178.6110  144.9970 C   0  0  0  0  0  3  0  0  0  0  0  0
  1 17  1  0  0  0  0
  2  7  1  6  0  0  0
  2 15  1  0  0  0  0
  3  2  1  0  0  0  0
  3 22  1  0  0  0  0
  4  5  2  0  0  0  0
  5 16  1  0  0  0  0
  5 30  1  0  0  0  0
  6 18  2  0  0  0  0
  8  1  2  0  0  0  0
  8 20  1  0  0  0  0
  9  6  1  0  0  0  0
  9  3  2  0  0  0  0
 10 15  1  0  0  0  0
 10 16  1  0  0  0  0
 11  1  1  0  0  0  0
 13  6  1  0  0  0  0
 14 10  2  0  0  0  0
 15 21  1  1  0  0  0
 17  7  2  0  0  0  0
 18 23  1  0  0  0  0
 19  7  1  0  0  0  0
 19 14  1  0  0  0  0
 20 19  2  0  0  0  0
 21 12  1  0  0  0  0
 22 23  2  0  0  0  0
 22 12  1  0  0  0  0
 24 28  1  0  0  0  0
 24 27  1  0  0  0  0
 25 28  2  0  0  0  0
 26 29  1  0  0  0  0
 29 30  2  0  0  0  0
 29 31  1  0  0  0  0
 30 25  1  0  0  0  0
 31 24  2  0  0  0  0
M  END
>  <MODEL>
8

>  <REMARK>
 VINA RESULT:      -7.9      4.792      8.738
  Name = 
  1 active torsions:
  status: ('A' for Active; 'I' for Inactive)
    1  A    between atoms: C_9  and  C_22
                            x       y       z     vdW  Elec       q    Type
                         _______ _______ _______ _____ _____    ______ ____

>  <TORSDO>
F 1

$$$$
=
 OpenBabel11052417483D

 31 35  0  0  1  0  0  0  0  0999 V2000
  193.2810  172.3410  139.4170 C   0  0  0  0  0  0  0  0  0  0  0  0
  192.9940  174.6440  142.4590 C   0  0  2  0  0  3  0  0  0  0  0  0
  194.3640  175.2710  142.5650 C   0  0  0  0  0  0  0  0  0  0  0  0
  187.6810  174.7280  142.2440 O   0  0  0  0  0  0  0  0  0  0  0  0
  188.0490  175.6470  143.0250 C   0  0  0  0  0  0  0  0  0  0  0  0
  196.4070  176.1770  141.6120 C   0  0  0  0  0  0  0  0  0  0  0  0
  192.6660  173.8800  141.1950 C   0  0  0  0  0  0  0  0  0  0  0  0
  191.9480  172.2750  139.0060 C   0  0  0  0  0  3  0  0  0  0  0  0
  195.2160  175.4580  141.4660 C   0  0  0  0  0  3  0  0  0  0  0  0
  190.5290  175.2870  142.5040 C   0  0  0  0  0  0  0  0  0  0  0  0
  194.3220  171.5660  138.6920 C   0  0  0  0  0  1  0  0  0  0  0  0
  193.5370  175.7170  145.1640 S   0  0  0  0  0  0  0  0  0  0  0  0
  197.2350  176.3370  140.5530 F   0  0  0  0  0  0  0  0  0  0  0  0
  190.2890  174.4390  141.5460 N   0  0  0  0  0  0  0  0  0  0  0  0
  191.9460  175.7270  142.7870 C   0  0  1  0  0  3  0  0  0  0  0  0
  189.4460  175.9340  143.1870 N   0  0  0  0  0  2  0  0  0  0  0  0
  193.6350  173.1230  140.5190 C   0  0  0  0  0  3  0  0  0  0  0  0
  196.7290  176.7530  142.8460 C   0  0  0  0  0  3  0  0  0  0  0  0
  191.3180  173.7770  140.7990 C   0  0  0  0  0  0  0  0  0  0  0  0
  190.9670  172.9840  139.7030 C   0  0  0  0  0  3  0  0  0  0  0  0
  192.1120  176.3570  144.1920 C   0  0  0  0  0  2  0  0  0  0  0  0
  194.6930  175.8570  143.7960 C   0  0  0  0  0  0  0  0  0  0  0  0
  195.8670  176.6020  143.9350 C   0  0  0  0  0  3  0  0  0  0  0  0
  185.0860  177.9580  145.1170 C   0  0  0  0  0  0  0  0  0  0  0  0
  185.9870  177.0180  143.0840 C   0  0  0  0  0  3  0  0  0  0  0  0
  188.2000  176.0560  146.0460 C   0  0  0  0  0  1  0  0  0  0  0  0
  183.8650  178.9050  145.9400 Cl  0  0  0  0  0  0  0  0  0  0  0  0
  185.0130  177.7730  143.7380 C   0  0  0  0  0  3  0  0  0  0  0  0
  187.1160  176.6300  145.1970 C   0  0  0  0  0  0  0  0  0  0  0  0
  187.0500  176.4360  143.7920 C   0  0  0  0  0  0  0  0  0  0  0  0
  186.1330  177.3890  145.8420 C   0  0  0  0  0  3  0  0  0  0  0  0
  1 17  1  0  0  0  0
  2  7  1  6  0  0  0
  2  3  1  0  0  0  0
  2 15  1  0  0  0  0
  3 22  1  0  0  0  0
  4  5  2  0  0  0  0
  5 16  1  0  0  0  0
  5 30  1  0  0  0  0
  6 18  2  0  0  0  0
  8  1  2  0  0  0  0
  8 20  1  0  0  0  0
  9  6  1  0  0  0  0
  9  3  2  0  0  0  0
 10 15  1  0  0  0  0
 10 16  1  0  0  0  0
 11  1  1  0  0  0  0
 13  6  1  0  0  0  0
 14 10  2  0  0  0  0
 15 21  1  1  0  0  0
 17  7  2  0  0  0  0
 18 23  1  0  0  0  0
 19  7  1  0  0  0  0
 19 14  1  0  0  0  0
 20 19  2  0  0  0  0
 21 12  1  0  0  0  0
 22 23  2  0  0  0  0
 22 12  1  0  0  0  0
 24 31  1  0  0  0  0
 24 27  1  0  0  0  0
 25 28  1  0  0  0  0
 25 30  2  0  0  0  0
 28 24  2  0  0  0  0
 29 31  2  0  0  0  0
 29 26  1  0  0  0  0
 30 29  1  0  0  0  0
M  END
>  <MODEL>
9

>  <REMARK>
 VINA RESULT:      -7.8      4.867      8.856
  Name = 
  1 active torsions:
  status: ('A' for Active; 'I' for Inactive)
    1  A    between atoms: C_9  and  C_22
                            x       y       z     vdW  Elec       q    Type
                         _______ _______ _______ _____ _____    ______ ____

>  <TORSDO>
F 1

$$$$
