=
 OpenBabel11052419193D

 32 34  0  0  1  0  0  0  0  0999 V2000
  189.8140  177.5040  145.2750 S   0  0  0  0  0  0  0  0  0  0  0  0
  189.5210  175.9650  146.2050 C   0  0  1  0  0  3  0  0  0  0  0  0
  191.3130  176.7950  144.5770 C   0  0  0  0  0  0  0  0  0  0  0  0
  192.2360  176.2580  145.3890 C   0  0  0  0  0  0  0  0  0  0  0  0
  191.9990  176.2750  146.8790 C   0  0  0  0  0  2  0  0  0  0  0  0
  190.6120  175.7290  147.2640 C   0  0  0  0  0  2  0  0  0  0  0  0
  191.4430  176.7120  143.0900 C   0  0  0  0  0  2  0  0  0  0  0  0
  190.7400  175.5050  142.5730 C   0  0  0  0  0  0  0  0  0  0  0  0
  188.4590  173.1370  139.5570 C   0  0  0  0  0  2  0  0  0  0  0  0
  189.4680  175.4810  142.3640 N   0  0  0  0  0  0  0  0  0  0  0  0
  190.7360  172.8590  140.3640 C   0  0  0  0  0  2  0  0  0  0  0  0
  190.4060  173.3890  141.7580 C   0  0  1  0  0  3  0  0  0  0  0  0
  191.4250  174.3240  142.2010 N   0  0  0  0  0  2  0  0  0  0  0  0
  189.0910  174.2010  141.7830 C   0  0  2  0  0  3  0  0  0  0  0  0
  189.5570  172.1900  139.8160 N   0  0  0  0  0  2  0  0  0  0  0  0
  188.5330  174.4390  140.3760 C   0  0  0  0  0  2  0  0  0  0  0  0
  193.3830  175.6680  144.8500 O   0  0  0  0  0  0  0  0  0  0  0  0
  194.6680  176.2620  144.9630 C   0  0  0  0  0  2  0  0  0  0  0  0
  195.5940  175.6500  143.9340 C   0  0  0  0  0  2  0  0  0  0  0  0
  195.0680  175.9440  142.5480 C   0  0  0  0  0  1  0  0  0  0  0  0
  188.1430  175.9670  146.8430 C   0  0  0  0  0  2  0  0  0  0  0  0
  186.0290  177.4600  148.0540 O   0  0  0  0  0  0  0  0  0  0  0  0
  186.3230  177.7160  146.8560 C   0  0  0  0  0  0  0  0  0  0  0  0
  187.2890  176.9280  146.1600 N   0  0  0  0  0  2  0  0  0  0  0  0
  185.6850  178.8770  146.1730 C   0  0  0  0  0  2  0  0  0  0  0  0
  184.2730  178.5350  145.7130 C   0  0  0  0  0  2  0  0  0  0  0  0
  184.0650  178.9060  144.2490 C   0  0  0  0  0  2  0  0  0  0  0  0
  185.3890  178.9270  143.5010 C   0  0  0  0  0  2  0  0  0  0  0  0
  185.5250  177.7160  142.6330 C   0  0  0  0  0  0  0  0  0  0  0  0
  185.6640  176.5870  143.1710 O   0  0  0  0  0  0  0  0  0  0  0  0
  185.4760  177.8050  141.2390 O   0  0  0  0  0  0  0  0  0  0  0  0
  184.3850  178.4010  140.5510 C   0  0  0  0  0  1  0  0  0  0  0  0
  1  2  1  0  0  0  0
  2 21  1  1  0  0  0
  2  6  1  0  0  0  0
  3  1  1  0  0  0  0
  3  4  2  0  0  0  0
  4  5  1  0  0  0  0
  5  6  1  0  0  0  0
  7  3  1  0  0  0  0
  8  7  1  0  0  0  0
  9 15  1  0  0  0  0
  9 16  1  0  0  0  0
 10  8  2  0  0  0  0
 12 11  1  6  0  0  0
 12 14  1  0  0  0  0
 12 13  1  0  0  0  0
 13  8  1  0  0  0  0
 14 16  1  6  0  0  0
 14 10  1  0  0  0  0
 15 11  1  0  0  0  0
 17 18  1  0  0  0  0
 17  4  1  0  0  0  0
 19 18  1  0  0  0  0
 20 19  1  0  0  0  0
 23 22  2  0  0  0  0
 24 21  1  0  0  0  0
 24 23  1  0  0  0  0
 25 23  1  0  0  0  0
 26 25  1  0  0  0  0
 27 26  1  0  0  0  0
 28 27  1  0  0  0  0
 29 30  2  0  0  0  0
 29 28  1  0  0  0  0
 31 29  1  0  0  0  0
 32 31  1  0  0  0  0
M  END
>  <MODEL>
1

>  <REMARK>
 VINA RESULT:      -6.2      0.000      0.000
  Name = 
  13 active torsions:
  status: ('A' for Active; 'I' for Inactive)
    1  A    between atoms: C_2  and  C_5
    2  A    between atoms: C_2  and  C_6
    3  A    between atoms: C_3  and  C_19
    4  A    between atoms: C_3  and  O_22
    5  A    between atoms: C_4  and  C_27
    6  A    between atoms: C_7  and  C_19
    7  A    between atoms: C_7  and  C_26
    8  A    between atoms: C_13  and  C_29
    9  A    between atoms: C_14  and  O_18
   10  A    between atoms: C_15  and  C_20
   11  A    between atoms: C_15  and  C_26
   12  A    between atoms: O_18  and  C_29
   13  A    between atoms: N_24  and  C_27
                            x       y       z     vdW  Elec       q    Type
                         _______ _______ _______ _____ _____    ______ ____

>  <TORSDO>
F 13

$$$$
=
 OpenBabel11052419193D

 32 34  0  0  1  0  0  0  0  0999 V2000
  191.9890  176.8400  144.4510 S   0  0  0  0  0  0  0  0  0  0  0  0
  192.2540  175.7740  145.9040 C   0  0  1  0  0  3  0  0  0  0  0  0
  193.5430  176.2670  143.7500 C   0  0  0  0  0  0  0  0  0  0  0  0
  194.6640  176.3180  144.4850 C   0  0  0  0  0  0  0  0  0  0  0  0
  194.5950  176.8720  145.8870 C   0  0  0  0  0  2  0  0  0  0  0  0
  193.4750  176.2290  146.7230 C   0  0  0  0  0  2  0  0  0  0  0  0
  193.5300  175.6320  142.3970 C   0  0  0  0  0  2  0  0  0  0  0  0
  192.5700  174.4930  142.3670 C   0  0  0  0  0  0  0  0  0  0  0  0
  189.3400  171.8860  144.0030 C   0  0  0  0  0  2  0  0  0  0  0  0
  192.6770  173.4780  143.1540 N   0  0  0  0  0  0  0  0  0  0  0  0
  189.2920  173.4520  142.1420 C   0  0  0  0  0  2  0  0  0  0  0  0
  190.7580  173.2150  141.7850 C   0  0  1  0  0  3  0  0  0  0  0  0
  191.4290  174.4780  141.5310 N   0  0  0  0  0  2  0  0  0  0  0  0
  191.5520  172.5770  142.9480 C   0  0  2  0  0  3  0  0  0  0  0  0
  188.7330  172.2220  142.7030 N   0  0  0  0  0  2  0  0  0  0  0  0
  190.7290  172.5060  144.2380 C   0  0  0  0  0  2  0  0  0  0  0  0
  195.8670  175.8360  143.9600 O   0  0  0  0  0  0  0  0  0  0  0  0
  196.6240  174.8220  144.6030 C   0  0  0  0  0  2  0  0  0  0  0  0
  196.0150  173.4710  144.2930 C   0  0  0  0  0  2  0  0  0  0  0  0
  195.3820  172.9070  145.5450 C   0  0  0  0  0  1  0  0  0  0  0  0
  191.0110  175.7210  146.7760 C   0  0  0  0  0  2  0  0  0  0  0  0
  188.2810  175.1760  147.4180 O   0  0  0  0  0  0  0  0  0  0  0  0
  188.5180  175.9510  146.4550 C   0  0  0  0  0  0  0  0  0  0  0  0
  189.8570  176.1720  146.0110 N   0  0  0  0  0  2  0  0  0  0  0  0
  187.3930  176.6760  145.7980 C   0  0  0  0  0  2  0  0  0  0  0  0
  186.4050  177.2050  146.8310 C   0  0  0  0  0  2  0  0  0  0  0  0
  184.9700  177.0980  146.3270 C   0  0  0  0  0  2  0  0  0  0  0  0
  184.3950  178.4750  146.0310 C   0  0  0  0  0  2  0  0  0  0  0  0
  184.6110  178.8400  144.5960 C   0  0  0  0  0  0  0  0  0  0  0  0
  185.0480  179.9850  144.3120 O   0  0  0  0  0  0  0  0  0  0  0  0
  184.3610  177.9310  143.5640 O   0  0  0  0  0  0  0  0  0  0  0  0
  185.2560  177.7500  142.4750 C   0  0  0  0  0  1  0  0  0  0  0  0
  1  2  1  0  0  0  0
  2  6  1  0  0  0  0
  2 21  1  1  0  0  0
  3  1  1  0  0  0  0
  3  4  2  0  0  0  0
  4  5  1  0  0  0  0
  5  6  1  0  0  0  0
  7  3  1  0  0  0  0
  8  7  1  0  0  0  0
  8 10  2  0  0  0  0
  9 16  1  0  0  0  0
 11 15  1  0  0  0  0
 12 11  1  1  0  0  0
 12 14  1  0  0  0  0
 13 12  1  0  0  0  0
 13  8  1  0  0  0  0
 14 10  1  0  0  0  0
 14 16  1  1  0  0  0
 15  9  1  0  0  0  0
 17  4  1  0  0  0  0
 17 18  1  0  0  0  0
 19 18  1  0  0  0  0
 19 20  1  0  0  0  0
 23 22  2  0  0  0  0
 24 23  1  0  0  0  0
 24 21  1  0  0  0  0
 25 23  1  0  0  0  0
 25 26  1  0  0  0  0
 27 26  1  0  0  0  0
 28 27  1  0  0  0  0
 29 28  1  0  0  0  0
 30 29  2  0  0  0  0
 31 29  1  0  0  0  0
 32 31  1  0  0  0  0
M  END
>  <MODEL>
2

>  <REMARK>
 VINA RESULT:      -6.0      1.916      2.915
  Name = 
  13 active torsions:
  status: ('A' for Active; 'I' for Inactive)
    1  A    between atoms: C_2  and  C_5
    2  A    between atoms: C_2  and  C_6
    3  A    between atoms: C_3  and  C_19
    4  A    between atoms: C_3  and  O_22
    5  A    between atoms: C_4  and  C_27
    6  A    between atoms: C_7  and  C_19
    7  A    between atoms: C_7  and  C_26
    8  A    between atoms: C_13  and  C_29
    9  A    between atoms: C_14  and  O_18
   10  A    between atoms: C_15  and  C_20
   11  A    between atoms: C_15  and  C_26
   12  A    between atoms: O_18  and  C_29
   13  A    between atoms: N_24  and  C_27
                            x       y       z     vdW  Elec       q    Type
                         _______ _______ _______ _____ _____    ______ ____

>  <TORSDO>
F 13

$$$$
=
 OpenBabel11052419193D

 32 34  0  0  1  0  0  0  0  0999 V2000
  188.6990  175.7850  144.1600 S   0  0  0  0  0  0  0  0  0  0  0  0
  189.5690  176.6740  145.4910 C   0  0  1  0  0  3  0  0  0  0  0  0
  190.2790  175.2550  143.4830 C   0  0  0  0  0  0  0  0  0  0  0  0
  191.2350  176.1630  143.2360 C   0  0  0  0  0  0  0  0  0  0  0  0
  190.9540  177.6170  143.5210 C   0  0  0  0  0  2  0  0  0  0  0  0
  190.3980  177.8470  144.9370 C   0  0  0  0  0  2  0  0  0  0  0  0
  190.5370  173.7910  143.3210 C   0  0  0  0  0  2  0  0  0  0  0  0
  190.1920  173.3540  141.9390 C   0  0  0  0  0  0  0  0  0  0  0  0
  188.6950  173.9240  137.7750 C   0  0  0  0  0  2  0  0  0  0  0  0
  188.9780  173.3140  141.5080 N   0  0  0  0  0  0  0  0  0  0  0  0
  190.9440  173.4640  138.5770 C   0  0  0  0  0  2  0  0  0  0  0  0
  190.4520  172.6510  139.7730 C   0  0  1  0  0  3  0  0  0  0  0  0
  191.1750  173.0270  140.9750 N   0  0  0  0  0  2  0  0  0  0  0  0
  188.9680  172.9310  140.1040 C   0  0  2  0  0  3  0  0  0  0  0  0
  189.9990  173.3080  137.4720 N   0  0  0  0  0  2  0  0  0  0  0  0
  188.4010  174.0890  139.2770 C   0  0  0  0  0  2  0  0  0  0  0  0
  192.4800  175.7530  142.7490 O   0  0  0  0  0  0  0  0  0  0  0  0
  193.6990  176.1110  143.3810 C   0  0  0  0  0  2  0  0  0  0  0  0
  193.7620  175.4660  144.7490 C   0  0  0  0  0  2  0  0  0  0  0  0
  194.1320  176.5080  145.7790 C   0  0  0  0  0  1  0  0  0  0  0  0
  188.5960  177.1570  146.5520 C   0  0  0  0  0  2  0  0  0  0  0  0
  186.2440  178.1290  147.8520 O   0  0  0  0  0  0  0  0  0  0  0  0
  186.1100  177.5560  146.7380 C   0  0  0  0  0  0  0  0  0  0  0  0
  187.2290  176.9470  146.0940 N   0  0  0  0  0  2  0  0  0  0  0  0
  184.7780  177.5490  146.0690 C   0  0  0  0  0  2  0  0  0  0  0  0
  184.4140  178.9390  145.5590 C   0  0  0  0  0  2  0  0  0  0  0  0
  184.9050  179.1480  144.1310 C   0  0  0  0  0  2  0  0  0  0  0  0
  184.0890  178.3220  143.1490 C   0  0  0  0  0  2  0  0  0  0  0  0
  184.8890  178.0140  141.9240 C   0  0  0  0  0  0  0  0  0  0  0  0
  184.5570  178.5330  140.8260 O   0  0  0  0  0  0  0  0  0  0  0  0
  186.0120  177.1840  141.9720 O   0  0  0  0  0  0  0  0  0  0  0  0
  187.0110  177.1920  140.9620 C   0  0  0  0  0  1  0  0  0  0  0  0
  1  2  1  0  0  0  0
  2 21  1  1  0  0  0
  3  1  1  0  0  0  0
  4  3  2  0  0  0  0
  4  5  1  0  0  0  0
  5  6  1  0  0  0  0
  6  2  1  0  0  0  0
  7  3  1  0  0  0  0
  8  7  1  0  0  0  0
  9 16  1  0  0  0  0
 10  8  2  0  0  0  0
 12 11  1  6  0  0  0
 12 14  1  0  0  0  0
 12 13  1  0  0  0  0
 13  8  1  0  0  0  0
 14 16  1  6  0  0  0
 14 10  1  0  0  0  0
 15  9  1  0  0  0  0
 15 11  1  0  0  0  0
 17  4  1  0  0  0  0
 17 18  1  0  0  0  0
 18 19  1  0  0  0  0
 19 20  1  0  0  0  0
 23 22  2  0  0  0  0
 24 21  1  0  0  0  0
 24 23  1  0  0  0  0
 25 23  1  0  0  0  0
 26 25  1  0  0  0  0
 27 26  1  0  0  0  0
 28 27  1  0  0  0  0
 29 31  1  0  0  0  0
 29 28  1  0  0  0  0
 30 29  2  0  0  0  0
 32 31  1  0  0  0  0
M  END
>  <MODEL>
3

>  <REMARK>
 VINA RESULT:      -5.9      1.450      2.113
  Name = 
  13 active torsions:
  status: ('A' for Active; 'I' for Inactive)
    1  A    between atoms: C_2  and  C_5
    2  A    between atoms: C_2  and  C_6
    3  A    between atoms: C_3  and  C_19
    4  A    between atoms: C_3  and  O_22
    5  A    between atoms: C_4  and  C_27
    6  A    between atoms: C_7  and  C_19
    7  A    between atoms: C_7  and  C_26
    8  A    between atoms: C_13  and  C_29
    9  A    between atoms: C_14  and  O_18
   10  A    between atoms: C_15  and  C_20
   11  A    between atoms: C_15  and  C_26
   12  A    between atoms: O_18  and  C_29
   13  A    between atoms: N_24  and  C_27
                            x       y       z     vdW  Elec       q    Type
                         _______ _______ _______ _____ _____    ______ ____

>  <TORSDO>
F 13

$$$$
=
 OpenBabel11052419193D

 32 34  0  0  1  0  0  0  0  0999 V2000
  189.7570  177.1220  143.2620 S   0  0  0  0  0  0  0  0  0  0  0  0
  189.2530  175.9360  144.5490 C   0  0  1  0  0  3  0  0  0  0  0  0
  188.8540  176.1690  142.0320 C   0  0  0  0  0  0  0  0  0  0  0  0
  189.0730  174.8500  141.9200 C   0  0  0  0  0  0  0  0  0  0  0  0
  190.0870  174.1970  142.8260 C   0  0  0  0  0  2  0  0  0  0  0  0
  189.8700  174.5460  144.3090 C   0  0  0  0  0  2  0  0  0  0  0  0
  187.7880  176.8510  141.2370 C   0  0  0  0  0  2  0  0  0  0  0  0
  186.6850  177.3060  142.1300 C   0  0  0  0  0  0  0  0  0  0  0  0
  184.7630  178.1610  146.0640 C   0  0  0  0  0  2  0  0  0  0  0  0
  186.0440  176.4990  142.9040 N   0  0  0  0  0  0  0  0  0  0  0  0
  185.5140  179.6890  144.3280 C   0  0  0  0  0  2  0  0  0  0  0  0
  185.2160  178.7020  143.2010 C   0  0  1  0  0  3  0  0  0  0  0  0
  186.3160  178.6660  142.2530 N   0  0  0  0  0  2  0  0  0  0  0  0
  185.0900  177.2480  143.7100 C   0  0  2  0  0  3  0  0  0  0  0  0
  184.5640  179.4700  145.4180 N   0  0  0  0  0  2  0  0  0  0  0  0
  185.4780  177.1180  145.1870 C   0  0  0  0  0  2  0  0  0  0  0  0
  188.3440  174.0980  140.9940 O   0  0  0  0  0  0  0  0  0  0  0  0
  188.8600  172.9140  140.4040 C   0  0  0  0  0  2  0  0  0  0  0  0
  188.1960  172.6960  139.0610 C   0  0  0  0  0  2  0  0  0  0  0  0
  188.3030  173.9600  138.2380 C   0  0  0  0  0  1  0  0  0  0  0  0
  189.6070  176.4480  145.9340 C   0  0  0  0  0  2  0  0  0  0  0  0
  191.3480  175.5400  148.0100 O   0  0  0  0  0  0  0  0  0  0  0  0
  191.8620  176.1270  147.0210 C   0  0  0  0  0  0  0  0  0  0  0  0
  191.0390  176.7050  146.0090 N   0  0  0  0  0  2  0  0  0  0  0  0
  193.3460  176.1810  146.8880 C   0  0  0  0  0  2  0  0  0  0  0  0
  193.8520  175.0940  145.9470 C   0  0  0  0  0  2  0  0  0  0  0  0
  195.3750  175.0750  145.8950 C   0  0  0  0  0  2  0  0  0  0  0  0
  195.8660  174.5870  144.5400 C   0  0  0  0  0  2  0  0  0  0  0  0
  196.6100  175.6720  143.8270 C   0  0  0  0  0  0  0  0  0  0  0  0
  196.1360  176.8370  143.8160 O   0  0  0  0  0  0  0  0  0  0  0  0
  197.8310  175.4270  143.1930 O   0  0  0  0  0  0  0  0  0  0  0  0
  197.9320  175.2100  141.7920 C   0  0  0  0  0  1  0  0  0  0  0  0
  1  2  1  0  0  0  0
  2 21  1  1  0  0  0
  3  1  1  0  0  0  0
  4  3  2  0  0  0  0
  4  5  1  0  0  0  0
  5  6  1  0  0  0  0
  6  2  1  0  0  0  0
  7  3  1  0  0  0  0
  7  8  1  0  0  0  0
  8 13  1  0  0  0  0
  8 10  2  0  0  0  0
 10 14  1  0  0  0  0
 11 15  1  0  0  0  0
 12 14  1  0  0  0  0
 12 11  1  1  0  0  0
 13 12  1  0  0  0  0
 14 16  1  1  0  0  0
 15  9  1  0  0  0  0
 16  9  1  0  0  0  0
 17  4  1  0  0  0  0
 18 17  1  0  0  0  0
 19 18  1  0  0  0  0
 20 19  1  0  0  0  0
 21 24  1  0  0  0  0
 23 22  2  0  0  0  0
 24 23  1  0  0  0  0
 25 23  1  0  0  0  0
 26 25  1  0  0  0  0
 27 26  1  0  0  0  0
 28 27  1  0  0  0  0
 29 28  1  0  0  0  0
 30 29  2  0  0  0  0
 31 29  1  0  0  0  0
 32 31  1  0  0  0  0
M  END
>  <MODEL>
4

>  <REMARK>
 VINA RESULT:      -5.9      2.675      7.841
  Name = 
  13 active torsions:
  status: ('A' for Active; 'I' for Inactive)
    1  A    between atoms: C_2  and  C_5
    2  A    between atoms: C_2  and  C_6
    3  A    between atoms: C_3  and  C_19
    4  A    between atoms: C_3  and  O_22
    5  A    between atoms: C_4  and  C_27
    6  A    between atoms: C_7  and  C_19
    7  A    between atoms: C_7  and  C_26
    8  A    between atoms: C_13  and  C_29
    9  A    between atoms: C_14  and  O_18
   10  A    between atoms: C_15  and  C_20
   11  A    between atoms: C_15  and  C_26
   12  A    between atoms: O_18  and  C_29
   13  A    between atoms: N_24  and  C_27
                            x       y       z     vdW  Elec       q    Type
                         _______ _______ _______ _____ _____    ______ ____

>  <TORSDO>
F 13

$$$$
=
 OpenBabel11052419193D

 32 34  0  0  1  0  0  0  0  0999 V2000
  190.0340  175.4020  143.2650 S   0  0  0  0  0  0  0  0  0  0  0  0
  189.7400  176.3810  144.7730 C   0  0  1  0  0  3  0  0  0  0  0  0
  191.7970  175.3880  143.6200 C   0  0  0  0  0  0  0  0  0  0  0  0
  192.4360  176.5410  143.8650 C   0  0  0  0  0  0  0  0  0  0  0  0
  191.6570  177.8330  143.8220 C   0  0  0  0  0  2  0  0  0  0  0  0
  190.3750  177.7790  144.6700 C   0  0  0  0  0  2  0  0  0  0  0  0
  192.4920  174.0710  143.7530 C   0  0  0  0  0  2  0  0  0  0  0  0
  193.3340  173.8060  142.5520 C   0  0  0  0  0  0  0  0  0  0  0  0
  195.6040  174.9290  138.8790 C   0  0  0  0  0  2  0  0  0  0  0  0
  192.8940  173.9590  141.3510 N   0  0  0  0  0  0  0  0  0  0  0  0
  196.4090  174.1170  141.0260 C   0  0  0  0  0  2  0  0  0  0  0  0
  195.1620  173.2710  141.2770 C   0  0  1  0  0  3  0  0  0  0  0  0
  194.6990  173.4430  142.6430 N   0  0  0  0  0  2  0  0  0  0  0  0
  193.9670  173.7070  140.4000 C   0  0  2  0  0  3  0  0  0  0  0  0
  196.6590  174.1820  139.5860 N   0  0  0  0  0  2  0  0  0  0  0  0
  194.2600  174.9970  139.6260 C   0  0  0  0  0  2  0  0  0  0  0  0
  193.7980  176.5330  144.1820 O   0  0  0  0  0  0  0  0  0  0  0  0
  194.2940  177.0310  145.4150 C   0  0  0  0  0  2  0  0  0  0  0  0
  194.3740  175.8990  146.4160 C   0  0  0  0  0  2  0  0  0  0  0  0
  195.4050  174.8930  145.9560 C   0  0  0  0  0  1  0  0  0  0  0  0
  188.2550  176.4850  145.0750 C   0  0  0  0  0  2  0  0  0  0  0  0
  186.5380  176.7100  142.8030 O   0  0  0  0  0  0  0  0  0  0  0  0
  186.7910  177.7550  143.4580 C   0  0  0  0  0  0  0  0  0  0  0  0
  187.7320  177.7310  144.5320 N   0  0  0  0  0  2  0  0  0  0  0  0
  186.0720  179.0200  143.1350 C   0  0  0  0  0  2  0  0  0  0  0  0
  185.4360  179.6230  144.3820 C   0  0  0  0  0  2  0  0  0  0  0  0
  184.1830  178.8560  144.7880 C   0  0  0  0  0  2  0  0  0  0  0  0
  184.1040  178.7080  146.3000 C   0  0  0  0  0  2  0  0  0  0  0  0
  184.9850  177.5920  146.7680 C   0  0  0  0  0  0  0  0  0  0  0  0
  184.9370  176.4820  146.1780 O   0  0  0  0  0  0  0  0  0  0  0  0
  185.8770  177.7610  147.8300 O   0  0  0  0  0  0  0  0  0  0  0  0
  186.6000  178.9670  148.0330 C   0  0  0  0  0  1  0  0  0  0  0  0
  1  3  1  0  0  0  0
  1  2  1  0  0  0  0
  2 21  1  6  0  0  0
  3  7  1  0  0  0  0
  3  4  2  0  0  0  0
  4 17  1  0  0  0  0
  5  4  1  0  0  0  0
  5  6  1  0  0  0  0
  6  2  1  0  0  0  0
  8 13  1  0  0  0  0
  8  7  1  0  0  0  0
  9 15  1  0  0  0  0
  9 16  1  0  0  0  0
 10  8  2  0  0  0  0
 12 11  1  6  0  0  0
 12 13  1  0  0  0  0
 14 16  1  1  0  0  0
 14 12  1  0  0  0  0
 14 10  1  0  0  0  0
 15 11  1  0  0  0  0
 17 18  1  0  0  0  0
 18 19  1  0  0  0  0
 20 19  1  0  0  0  0
 22 23  2  0  0  0  0
 23 24  1  0  0  0  0
 24 21  1  0  0  0  0
 25 23  1  0  0  0  0
 25 26  1  0  0  0  0
 26 27  1  0  0  0  0
 27 28  1  0  0  0  0
 28 29  1  0  0  0  0
 29 31  1  0  0  0  0
 30 29  2  0  0  0  0
 31 32  1  0  0  0  0
M  END
>  <MODEL>
5

>  <REMARK>
 VINA RESULT:      -5.8      2.469      4.090
  Name = 
  13 active torsions:
  status: ('A' for Active; 'I' for Inactive)
    1  A    between atoms: C_2  and  C_5
    2  A    between atoms: C_2  and  C_6
    3  A    between atoms: C_3  and  C_19
    4  A    between atoms: C_3  and  O_22
    5  A    between atoms: C_4  and  C_27
    6  A    between atoms: C_7  and  C_19
    7  A    between atoms: C_7  and  C_26
    8  A    between atoms: C_13  and  C_29
    9  A    between atoms: C_14  and  O_18
   10  A    between atoms: C_15  and  C_20
   11  A    between atoms: C_15  and  C_26
   12  A    between atoms: O_18  and  C_29
   13  A    between atoms: N_24  and  C_27
                            x       y       z     vdW  Elec       q    Type
                         _______ _______ _______ _____ _____    ______ ____

>  <TORSDO>
F 13

$$$$
=
 OpenBabel11052419193D

 32 34  0  0  1  0  0  0  0  0999 V2000
  188.4570  177.7420  143.6020 S   0  0  0  0  0  0  0  0  0  0  0  0
  187.1070  177.7380  142.3790 C   0  0  1  0  0  3  0  0  0  0  0  0
  189.1040  176.2220  142.8910 C   0  0  0  0  0  0  0  0  0  0  0  0
  188.2910  175.1680  142.7200 C   0  0  0  0  0  0  0  0  0  0  0  0
  186.8480  175.2810  143.1450 C   0  0  0  0  0  2  0  0  0  0  0  0
  186.1620  176.5400  142.5850 C   0  0  0  0  0  2  0  0  0  0  0  0
  190.5130  176.2050  142.3930 C   0  0  0  0  0  2  0  0  0  0  0  0
  191.4640  176.0590  143.5310 C   0  0  0  0  0  0  0  0  0  0  0  0
  194.8840  174.2220  145.7290 C   0  0  0  0  0  2  0  0  0  0  0  0
  191.4610  175.0290  144.3070 N   0  0  0  0  0  0  0  0  0  0  0  0
  194.6880  176.4140  144.6960 C   0  0  0  0  0  2  0  0  0  0  0  0
  193.1890  176.5130  144.9700 C   0  0  1  0  0  3  0  0  0  0  0  0
  192.4880  176.9990  143.7950 N   0  0  0  0  0  2  0  0  0  0  0  0
  192.5530  175.1350  145.2640 C   0  0  2  0  0  3  0  0  0  0  0  0
  195.3170  175.6300  145.7570 N   0  0  0  0  0  2  0  0  0  0  0  0
  193.5350  173.9830  145.0270 C   0  0  0  0  0  2  0  0  0  0  0  0
  188.7780  173.9980  142.1300 O   0  0  0  0  0  0  0  0  0  0  0  0
  188.9070  172.7810  142.8490 C   0  0  0  0  0  2  0  0  0  0  0  0
  190.2250  172.1270  142.4930 C   0  0  0  0  0  2  0  0  0  0  0  0
  190.7290  172.6940  141.1850 C   0  0  0  0  0  1  0  0  0  0  0  0
  186.3340  179.0440  142.4140 C   0  0  0  0  0  2  0  0  0  0  0  0
  183.6170  178.7550  143.2500 O   0  0  0  0  0  0  0  0  0  0  0  0
  184.4820  179.0110  144.1290 C   0  0  0  0  0  0  0  0  0  0  0  0
  185.8350  179.2810  143.7620 N   0  0  0  0  0  2  0  0  0  0  0  0
  184.0970  178.9910  145.5690 C   0  0  0  0  0  2  0  0  0  0  0  0
  184.4600  177.6600  146.2150 C   0  0  0  0  0  2  0  0  0  0  0  0
  185.7600  177.7660  147.0040 C   0  0  0  0  0  2  0  0  0  0  0  0
  186.4350  176.4080  147.1250 C   0  0  0  0  0  2  0  0  0  0  0  0
  187.9080  176.5270  146.8900 C   0  0  0  0  0  0  0  0  0  0  0  0
  188.4860  177.6140  147.1520 O   0  0  0  0  0  0  0  0  0  0  0  0
  188.6610  175.4540  146.4080 O   0  0  0  0  0  0  0  0  0  0  0  0
  189.3320  174.5460  147.2710 C   0  0  0  0  0  1  0  0  0  0  0  0
  2 21  1  1  0  0  0
  2  6  1  0  0  0  0
  2  1  1  0  0  0  0
  3  1  1  0  0  0  0
  4  3  2  0  0  0  0
  4  5  1  0  0  0  0
  6  5  1  0  0  0  0
  7  3  1  0  0  0  0
  7  8  1  0  0  0  0
  8 13  1  0  0  0  0
  8 10  2  0  0  0  0
  9 15  1  0  0  0  0
 10 14  1  0  0  0  0
 11 15  1  0  0  0  0
 12 11  1  6  0  0  0
 12 14  1  0  0  0  0
 13 12  1  0  0  0  0
 14 16  1  6  0  0  0
 16  9  1  0  0  0  0
 17  4  1  0  0  0  0
 17 18  1  0  0  0  0
 19 18  1  0  0  0  0
 20 19  1  0  0  0  0
 21 24  1  0  0  0  0
 22 23  2  0  0  0  0
 23 25  1  0  0  0  0
 24 23  1  0  0  0  0
 25 26  1  0  0  0  0
 26 27  1  0  0  0  0
 27 28  1  0  0  0  0
 29 28  1  0  0  0  0
 29 30  2  0  0  0  0
 31 29  1  0  0  0  0
 31 32  1  0  0  0  0
M  END
>  <MODEL>
6

>  <REMARK>
 VINA RESULT:      -5.8      2.272      5.395
  Name = 
  13 active torsions:
  status: ('A' for Active; 'I' for Inactive)
    1  A    between atoms: C_2  and  C_5
    2  A    between atoms: C_2  and  C_6
    3  A    between atoms: C_3  and  C_19
    4  A    between atoms: C_3  and  O_22
    5  A    between atoms: C_4  and  C_27
    6  A    between atoms: C_7  and  C_19
    7  A    between atoms: C_7  and  C_26
    8  A    between atoms: C_13  and  C_29
    9  A    between atoms: C_14  and  O_18
   10  A    between atoms: C_15  and  C_20
   11  A    between atoms: C_15  and  C_26
   12  A    between atoms: O_18  and  C_29
   13  A    between atoms: N_24  and  C_27
                            x       y       z     vdW  Elec       q    Type
                         _______ _______ _______ _____ _____    ______ ____

>  <TORSDO>
F 13

$$$$
=
 OpenBabel11052419193D

 32 34  0  0  1  0  0  0  0  0999 V2000
  191.8390  174.8660  144.9650 S   0  0  0  0  0  0  0  0  0  0  0  0
  192.5830  175.2060  146.5930 C   0  0  1  0  0  3  0  0  0  0  0  0
  193.3870  174.1370  144.4120 C   0  0  0  0  0  0  0  0  0  0  0  0
  194.5330  174.8220  144.5500 C   0  0  0  0  0  0  0  0  0  0  0  0
  194.4910  176.2020  145.1580 C   0  0  0  0  0  2  0  0  0  0  0  0
  193.7190  176.2400  146.4890 C   0  0  0  0  0  2  0  0  0  0  0  0
  193.3800  172.7270  143.9150 C   0  0  0  0  0  2  0  0  0  0  0  0
  192.2180  172.5020  143.0100 C   0  0  0  0  0  0  0  0  0  0  0  0
  187.9260  172.7250  141.8120 C   0  0  0  0  0  2  0  0  0  0  0  0
  191.2580  171.6950  143.3060 N   0  0  0  0  0  0  0  0  0  0  0  0
  189.8660  173.8700  140.8950 C   0  0  0  0  0  2  0  0  0  0  0  0
  190.8140  172.7150  141.2110 C   0  0  1  0  0  3  0  0  0  0  0  0
  192.0440  173.2140  141.8000 N   0  0  0  0  0  2  0  0  0  0  0  0
  190.2340  171.7520  142.2720 C   0  0  2  0  0  3  0  0  0  0  0  0
  188.5350  173.3330  140.6160 N   0  0  0  0  0  2  0  0  0  0  0  0
  188.9360  172.2840  142.8870 C   0  0  0  0  0  2  0  0  0  0  0  0
  195.7440  174.2440  144.1600 O   0  0  0  0  0  0  0  0  0  0  0  0
  196.9350  174.3890  144.9190 C   0  0  0  0  0  2  0  0  0  0  0  0
  196.8830  173.4590  146.1130 C   0  0  0  0  0  2  0  0  0  0  0  0
  196.6900  172.0380  145.6340 C   0  0  0  0  0  1  0  0  0  0  0  0
  191.5320  175.6610  147.5900 C   0  0  0  0  0  2  0  0  0  0  0  0
  188.9530  174.4330  147.6720 O   0  0  0  0  0  0  0  0  0  0  0  0
  189.0690  175.5240  147.0520 C   0  0  0  0  0  0  0  0  0  0  0  0
  190.3510  176.1280  146.8760 N   0  0  0  0  0  2  0  0  0  0  0  0
  187.8510  176.2090  146.5330 C   0  0  0  0  0  2  0  0  0  0  0  0
  188.0100  176.5660  145.0600 C   0  0  0  0  0  2  0  0  0  0  0  0
  186.6620  176.8790  144.4210 C   0  0  0  0  0  2  0  0  0  0  0  0
  186.5920  178.3350  143.9850 C   0  0  0  0  0  2  0  0  0  0  0  0
  186.5120  178.4370  142.4950 C   0  0  0  0  0  0  0  0  0  0  0  0
  187.5590  178.2910  141.8120 O   0  0  0  0  0  0  0  0  0  0  0  0
  185.2990  178.6680  141.8410 O   0  0  0  0  0  0  0  0  0  0  0  0
  184.9830  178.0760  140.5890 C   0  0  0  0  0  1  0  0  0  0  0  0
  1  2  1  0  0  0  0
  2 21  1  1  0  0  0
  3  4  2  0  0  0  0
  3  1  1  0  0  0  0
  4  5  1  0  0  0  0
  5  6  1  0  0  0  0
  6  2  1  0  0  0  0
  7  3  1  0  0  0  0
  8 10  2  0  0  0  0
  8  7  1  0  0  0  0
  9 16  1  0  0  0  0
 12 11  1  1  0  0  0
 12 13  1  0  0  0  0
 12 14  1  0  0  0  0
 13  8  1  0  0  0  0
 14 16  1  1  0  0  0
 14 10  1  0  0  0  0
 15 11  1  0  0  0  0
 15  9  1  0  0  0  0
 17  4  1  0  0  0  0
 17 18  1  0  0  0  0
 18 19  1  0  0  0  0
 20 19  1  0  0  0  0
 23 22  2  0  0  0  0
 24 23  1  0  0  0  0
 24 21  1  0  0  0  0
 25 23  1  0  0  0  0
 26 25  1  0  0  0  0
 27 26  1  0  0  0  0
 28 27  1  0  0  0  0
 29 28  1  0  0  0  0
 30 29  2  0  0  0  0
 31 29  1  0  0  0  0
 32 31  1  0  0  0  0
M  END
>  <MODEL>
7

>  <REMARK>
 VINA RESULT:      -5.8      2.236      3.089
  Name = 
  13 active torsions:
  status: ('A' for Active; 'I' for Inactive)
    1  A    between atoms: C_2  and  C_5
    2  A    between atoms: C_2  and  C_6
    3  A    between atoms: C_3  and  C_19
    4  A    between atoms: C_3  and  O_22
    5  A    between atoms: C_4  and  C_27
    6  A    between atoms: C_7  and  C_19
    7  A    between atoms: C_7  and  C_26
    8  A    between atoms: C_13  and  C_29
    9  A    between atoms: C_14  and  O_18
   10  A    between atoms: C_15  and  C_20
   11  A    between atoms: C_15  and  C_26
   12  A    between atoms: O_18  and  C_29
   13  A    between atoms: N_24  and  C_27
                            x       y       z     vdW  Elec       q    Type
                         _______ _______ _______ _____ _____    ______ ____

>  <TORSDO>
F 13

$$$$
=
 OpenBabel11052419193D

 32 34  0  0  1  0  0  0  0  0999 V2000
  191.0160  175.9090  142.7640 S   0  0  0  0  0  0  0  0  0  0  0  0
  189.4140  175.5770  143.5660 C   0  0  1  0  0  3  0  0  0  0  0  0
  191.7950  176.0430  144.3800 C   0  0  0  0  0  0  0  0  0  0  0  0
  191.2710  176.8600  145.3060 C   0  0  0  0  0  0  0  0  0  0  0  0
  190.0410  177.6620  144.9620 C   0  0  0  0  0  2  0  0  0  0  0  0
  188.9180  176.7970  144.3620 C   0  0  0  0  0  2  0  0  0  0  0  0
  192.9480  175.1460  144.6980 C   0  0  0  0  0  2  0  0  0  0  0  0
  192.7000  173.7750  144.1710 C   0  0  0  0  0  0  0  0  0  0  0  0
  190.4030  170.6440  141.9740 C   0  0  0  0  0  2  0  0  0  0  0  0
  191.7390  173.0310  144.6020 N   0  0  0  0  0  0  0  0  0  0  0  0
  192.5250  171.6980  141.4260 C   0  0  0  0  0  2  0  0  0  0  0  0
  192.9160  171.8860  142.8900 C   0  0  1  0  0  3  0  0  0  0  0  0
  193.4490  173.2200  143.1070 N   0  0  0  0  0  2  0  0  0  0  0  0
  191.7010  171.7910  143.8410 C   0  0  2  0  0  3  0  0  0  0  0  0
  191.7050  170.4930  141.3010 N   0  0  0  0  0  2  0  0  0  0  0  0
  190.3750  171.7170  143.0760 C   0  0  0  0  0  2  0  0  0  0  0  0
  191.8470  176.9370  146.5770 O   0  0  0  0  0  0  0  0  0  0  0  0
  191.1370  176.5910  147.7570 C   0  0  0  0  0  2  0  0  0  0  0  0
  190.8700  175.1010  147.7600 C   0  0  0  0  0  2  0  0  0  0  0  0
  189.4090  174.8520  147.4640 C   0  0  0  0  0  1  0  0  0  0  0  0
  188.3750  175.1390  142.5490 C   0  0  0  0  0  2  0  0  0  0  0  0
  187.6090  177.0280  140.5460 O   0  0  0  0  0  0  0  0  0  0  0  0
  186.8400  176.8650  141.5300 C   0  0  0  0  0  0  0  0  0  0  0  0
  187.2200  176.0240  142.6190 N   0  0  0  0  0  2  0  0  0  0  0  0
  185.5030  177.5250  141.5370 C   0  0  0  0  0  2  0  0  0  0  0  0
  185.5330  178.8130  142.3500 C   0  0  0  0  0  2  0  0  0  0  0  0
  184.7630  178.6580  143.6570 C   0  0  0  0  0  2  0  0  0  0  0  0
  185.5230  179.2910  144.8130 C   0  0  0  0  0  2  0  0  0  0  0  0
  184.9090  178.9060  146.1220 C   0  0  0  0  0  0  0  0  0  0  0  0
  183.6620  178.7540  146.1950 O   0  0  0  0  0  0  0  0  0  0  0  0
  185.6900  178.6880  147.2600 O   0  0  0  0  0  0  0  0  0  0  0  0
  186.8660  177.8920  147.2370 C   0  0  0  0  0  1  0  0  0  0  0  0
  1  2  1  0  0  0  0
  1  3  1  0  0  0  0
  2 21  1  6  0  0  0
  2  6  1  0  0  0  0
  3  7  1  0  0  0  0
  3  4  2  0  0  0  0
  4 17  1  0  0  0  0
  5  4  1  0  0  0  0
  6  5  1  0  0  0  0
  8 10  2  0  0  0  0
  8  7  1  0  0  0  0
  9 16  1  0  0  0  0
 12 11  1  6  0  0  0
 12 13  1  0  0  0  0
 12 14  1  0  0  0  0
 13  8  1  0  0  0  0
 14 16  1  6  0  0  0
 14 10  1  0  0  0  0
 15 11  1  0  0  0  0
 15  9  1  0  0  0  0
 17 18  1  0  0  0  0
 18 19  1  0  0  0  0
 20 19  1  0  0  0  0
 21 24  1  0  0  0  0
 22 23  2  0  0  0  0
 23 25  1  0  0  0  0
 23 24  1  0  0  0  0
 25 26  1  0  0  0  0
 26 27  1  0  0  0  0
 27 28  1  0  0  0  0
 28 29  1  0  0  0  0
 29 30  2  0  0  0  0
 29 31  1  0  0  0  0
 32 31  1  0  0  0  0
M  END
>  <MODEL>
8

>  <REMARK>
 VINA RESULT:      -5.7      2.132      4.177
  Name = 
  13 active torsions:
  status: ('A' for Active; 'I' for Inactive)
    1  A    between atoms: C_2  and  C_5
    2  A    between atoms: C_2  and  C_6
    3  A    between atoms: C_3  and  C_19
    4  A    between atoms: C_3  and  O_22
    5  A    between atoms: C_4  and  C_27
    6  A    between atoms: C_7  and  C_19
    7  A    between atoms: C_7  and  C_26
    8  A    between atoms: C_13  and  C_29
    9  A    between atoms: C_14  and  O_18
   10  A    between atoms: C_15  and  C_20
   11  A    between atoms: C_15  and  C_26
   12  A    between atoms: O_18  and  C_29
   13  A    between atoms: N_24  and  C_27
                            x       y       z     vdW  Elec       q    Type
                         _______ _______ _______ _____ _____    ______ ____

>  <TORSDO>
F 13

$$$$
=
 OpenBabel11052419193D

 32 34  0  0  1  0  0  0  0  0999 V2000
  190.0500  174.4030  144.8740 S   0  0  0  0  0  0  0  0  0  0  0  0
  189.6110  176.0010  144.1180 C   0  0  1  0  0  3  0  0  0  0  0  0
  190.5800  173.7900  143.2680 C   0  0  0  0  0  0  0  0  0  0  0  0
  189.7550  173.8850  142.2140 C   0  0  0  0  0  0  0  0  0  0  0  0
  188.3880  174.4950  142.4070 C   0  0  0  0  0  2  0  0  0  0  0  0
  188.4430  175.8540  143.1260 C   0  0  0  0  0  2  0  0  0  0  0  0
  191.9820  173.2940  143.1150 C   0  0  0  0  0  2  0  0  0  0  0  0
  192.9240  174.4380  142.9640 C   0  0  0  0  0  0  0  0  0  0  0  0
  196.9130  176.4320  143.0930 C   0  0  0  0  0  2  0  0  0  0  0  0
  193.5190  174.9820  143.9690 N   0  0  0  0  0  0  0  0  0  0  0  0
  195.5110  175.8640  141.1880 C   0  0  0  0  0  2  0  0  0  0  0  0
  194.2120  176.0520  141.9690 C   0  0  1  0  0  3  0  0  0  0  0  0
  193.2950  174.9580  141.7010 N   0  0  0  0  0  2  0  0  0  0  0  0
  194.4340  176.0110  143.4990 C   0  0  2  0  0  3  0  0  0  0  0  0
  196.5220  176.7800  141.7150 N   0  0  0  0  0  2  0  0  0  0  0  0
  195.8660  175.6080  143.8640 C   0  0  0  0  0  2  0  0  0  0  0  0
  190.1760  173.4480  140.9550 O   0  0  0  0  0  0  0  0  0  0  0  0
  189.4880  173.7910  139.7620 C   0  0  0  0  0  2  0  0  0  0  0  0
  190.3160  173.3670  138.5670 C   0  0  0  0  0  2  0  0  0  0  0  0
  189.7330  172.1040  137.9750 C   0  0  0  0  0  1  0  0  0  0  0  0
  189.2880  177.0380  145.1790 C   0  0  0  0  0  2  0  0  0  0  0  0
  187.5900  176.0260  147.2430 O   0  0  0  0  0  0  0  0  0  0  0  0
  187.0800  176.7830  146.3750 C   0  0  0  0  0  0  0  0  0  0  0  0
  187.8460  177.2270  145.2550 N   0  0  0  0  0  2  0  0  0  0  0  0
  185.6740  177.2520  146.5410 C   0  0  0  0  0  2  0  0  0  0  0  0
  185.5670  178.7540  146.3110 C   0  0  0  0  0  2  0  0  0  0  0  0
  184.6840  179.0660  145.1080 C   0  0  0  0  0  2  0  0  0  0  0  0
  185.5210  179.5250  143.9240 C   0  0  0  0  0  2  0  0  0  0  0  0
  185.5990  178.4510  142.8850 C   0  0  0  0  0  0  0  0  0  0  0  0
  185.0680  177.3340  143.1150 O   0  0  0  0  0  0  0  0  0  0  0  0
  186.2270  178.6670  141.6560 O   0  0  0  0  0  0  0  0  0  0  0  0
  186.0190  177.8200  140.5340 C   0  0  0  0  0  1  0  0  0  0  0  0
  2  1  1  0  0  0  0
  2 21  1  1  0  0  0
  3  1  1  0  0  0  0
  4  5  1  0  0  0  0
  4  3  2  0  0  0  0
  5  6  1  0  0  0  0
  6  2  1  0  0  0  0
  7  3  1  0  0  0  0
  8  7  1  0  0  0  0
  8 10  2  0  0  0  0
  9 16  1  0  0  0  0
 11 15  1  0  0  0  0
 12 11  1  6  0  0  0
 12 14  1  0  0  0  0
 13 12  1  0  0  0  0
 13  8  1  0  0  0  0
 14 16  1  6  0  0  0
 14 10  1  0  0  0  0
 15  9  1  0  0  0  0
 17  4  1  0  0  0  0
 18 17  1  0  0  0  0
 19 18  1  0  0  0  0
 20 19  1  0  0  0  0
 21 24  1  0  0  0  0
 23 25  1  0  0  0  0
 23 22  2  0  0  0  0
 24 23  1  0  0  0  0
 26 25  1  0  0  0  0
 27 26  1  0  0  0  0
 28 27  1  0  0  0  0
 29 30  2  0  0  0  0
 29 28  1  0  0  0  0
 31 29  1  0  0  0  0
 32 31  1  0  0  0  0
M  END
>  <MODEL>
9

>  <REMARK>
 VINA RESULT:      -5.7      2.192      4.721
  Name = 
  13 active torsions:
  status: ('A' for Active; 'I' for Inactive)
    1  A    between atoms: C_2  and  C_5
    2  A    between atoms: C_2  and  C_6
    3  A    between atoms: C_3  and  C_19
    4  A    between atoms: C_3  and  O_22
    5  A    between atoms: C_4  and  C_27
    6  A    between atoms: C_7  and  C_19
    7  A    between atoms: C_7  and  C_26
    8  A    between atoms: C_13  and  C_29
    9  A    between atoms: C_14  and  O_18
   10  A    between atoms: C_15  and  C_20
   11  A    between atoms: C_15  and  C_26
   12  A    between atoms: O_18  and  C_29
   13  A    between atoms: N_24  and  C_27
                            x       y       z     vdW  Elec       q    Type
                         _______ _______ _______ _____ _____    ______ ____

>  <TORSDO>
F 13

$$$$
