=
 OpenBabel11052417313D

 25 28  0  0  1  0  0  0  0  0999 V2000
  186.0250  177.4930  143.1670 C   0  0  0  0  0  0  0  0  0  0  0  0
  186.5570  177.1710  144.3480 C   0  0  0  0  0  0  0  0  0  0  0  0
  184.1280  178.7520  144.2050 C   0  0  0  0  0  2  0  0  0  0  0  0
  186.4440  177.1940  141.8930 C   0  0  0  0  0  0  0  0  0  0  0  0
  186.9880  176.8040  139.7690 N   0  0  0  0  0  0  0  0  0  0  0  0
  184.7730  178.3680  145.5200 C   0  0  0  0  0  3  0  0  0  0  0  0
  185.5710  177.7480  141.0650 C   0  0  0  0  0  0  0  0  0  0  0  0
  185.9140  177.5010  139.7140 N   0  0  0  0  0  0  0  0  0  0  0  0
  186.5190  177.2680  146.8730 C   0  0  0  0  0  0  0  0  0  0  0  0
  185.9190  177.7100  148.1650 C   0  0  0  0  0  1  0  0  0  0  0  0
  187.7450  176.3940  144.4640 N   0  0  0  0  0  2  0  0  0  0  0  0
  188.5430  175.8300  141.6090 C   0  0  0  0  0  1  0  0  0  0  0  0
  184.8890  178.2350  143.0660 N   0  0  0  0  0  0  0  0  0  0  0  0
  184.5760  178.4120  141.7510 C   0  0  0  0  0  3  0  0  0  0  0  0
  187.6060  176.5530  146.9040 N   0  0  0  0  0  0  0  0  0  0  0  0
  187.3500  176.5920  141.1500 C   0  0  0  0  0  0  0  0  0  0  0  0
  188.2470  176.0860  145.7390 N   0  0  0  0  0  0  0  0  0  0  0  0
  185.8970  177.6330  145.5830 C   0  0  0  0  0  0  0  0  0  0  0  0
  189.4830  175.3360  145.8550 C   0  0  0  0  0  2  0  0  0  0  0  0
  189.7320  174.9780  147.3160 C   0  0  0  0  0  2  0  0  0  0  0  0
  191.1240  175.3960  147.7940 C   0  0  2  0  0  3  0  0  0  0  0  0
  191.1750  176.8810  148.1100 C   0  0  0  0  0  1  0  0  0  0  0  0
  193.1510  175.9050  146.5070 C   0  0  0  0  0  3  0  0  0  0  0  0
  194.1350  175.5560  145.5920 O   0  0  0  0  0  1  0  0  0  0  0  0
  192.1930  175.0410  146.8110 C   0  0  0  0  0  3  0  0  0  0  0  0
  1  2  2  0  0  0  0
  2 11  1  0  0  0  0
  2 18  1  0  0  0  0
  3  6  1  0  0  0  0
  4  1  1  0  0  0  0
  5 16  1  0  0  0  0
  6 18  2  0  0  0  0
  7 14  2  0  0  0  0
  7  4  1  0  0  0  0
  8  5  2  0  0  0  0
  8  7  1  0  0  0  0
  9 15  2  0  0  0  0
  9 10  1  0  0  0  0
 11 17  1  0  0  0  0
 13  1  1  0  0  0  0
 13  3  1  0  0  0  0
 14 13  1  0  0  0  0
 16 12  1  0  0  0  0
 16  4  2  0  0  0  0
 17 19  1  0  0  0  0
 17 15  1  0  0  0  0
 18  9  1  0  0  0  0
 19 20  1  0  0  0  0
 20 21  1  0  0  0  0
 21 22  1  6  0  0  0
 23 25  2  0  0  0  0
 24 23  1  0  0  0  0
 25 21  1  0  0  0  0
M  END
>  <MODEL>
1

>  <REMARK>
 VINA RESULT:      -7.6      0.000      0.000
  Name = 
  4 active torsions:
  status: ('A' for Active; 'I' for Inactive)
    1  A    between atoms: C_6  and  C_15
    2  A    between atoms: C_6  and  N_23
    3  A    between atoms: C_12  and  C_21
    4  A    between atoms: C_15  and  C_21
                            x       y       z     vdW  Elec       q    Type
                         _______ _______ _______ _____ _____    ______ ____

>  <TORSDO>
F 4

$$$$
=
 OpenBabel11052417313D

 25 28  0  0  1  0  0  0  0  0999 V2000
  185.7360  177.8660  144.4510 C   0  0  0  0  0  0  0  0  0  0  0  0
  186.5140  177.4400  143.4530 C   0  0  0  0  0  0  0  0  0  0  0  0
  183.9120  178.6050  142.9040 C   0  0  0  0  0  2  0  0  0  0  0  0
  185.9500  177.8580  145.8080 C   0  0  0  0  0  0  0  0  0  0  0  0
  186.1350  177.9120  148.0260 N   0  0  0  0  0  0  0  0  0  0  0  0
  184.8260  178.1010  141.8080 C   0  0  0  0  0  3  0  0  0  0  0  0
  184.8730  178.3910  146.3660 C   0  0  0  0  0  0  0  0  0  0  0  0
  184.9890  178.4260  147.7760 N   0  0  0  0  0  0  0  0  0  0  0  0
  186.9130  177.0720  140.9840 C   0  0  0  0  0  0  0  0  0  0  0  0
  186.4900  177.1500  139.5560 C   0  0  0  0  0  1  0  0  0  0  0  0
  187.7970  176.8650  143.6760 N   0  0  0  0  0  2  0  0  0  0  0  0
  188.1140  176.9050  146.6760 C   0  0  0  0  0  1  0  0  0  0  0  0
  184.5110  178.4150  144.2270 N   0  0  0  0  0  0  0  0  0  0  0  0
  183.9420  178.7570  145.4170 C   0  0  0  0  0  3  0  0  0  0  0  0
  188.0770  176.5590  141.2630 N   0  0  0  0  0  0  0  0  0  0  0  0
  186.7730  177.5390  146.7870 C   0  0  0  0  0  0  0  0  0  0  0  0
  188.5660  176.4450  142.5790 N   0  0  0  0  0  0  0  0  0  0  0  0
  186.0320  177.5640  142.0650 C   0  0  0  0  0  0  0  0  0  0  0  0
  189.8520  175.8150  142.8100 C   0  0  0  0  0  2  0  0  0  0  0  0
  190.5690  176.5180  143.9580 C   0  0  0  0  0  2  0  0  0  0  0  0
  191.4050  175.5560  144.8050 C   0  0  2  0  0  3  0  0  0  0  0  0
  190.5520  174.4280  145.3590 C   0  0  0  0  0  1  0  0  0  0  0  0
  193.4400  176.4070  145.8810 C   0  0  0  0  0  3  0  0  0  0  0  0
  194.0890  177.0590  146.9210 O   0  0  0  0  0  1  0  0  0  0  0  0
  192.1230  176.2540  145.9150 C   0  0  0  0  0  3  0  0  0  0  0  0
  1  4  1  0  0  0  0
  2 11  1  0  0  0  0
  2  1  2  0  0  0  0
  3 13  1  0  0  0  0
  4  7  1  0  0  0  0
  4 16  2  0  0  0  0
  6 18  2  0  0  0  0
  6  3  1  0  0  0  0
  7  8  1  0  0  0  0
  8  5  2  0  0  0  0
  9 15  2  0  0  0  0
  9 18  1  0  0  0  0
 10  9  1  0  0  0  0
 12 16  1  0  0  0  0
 13  1  1  0  0  0  0
 13 14  1  0  0  0  0
 14  7  2  0  0  0  0
 15 17  1  0  0  0  0
 16  5  1  0  0  0  0
 17 19  1  0  0  0  0
 17 11  1  0  0  0  0
 18  2  1  0  0  0  0
 19 20  1  0  0  0  0
 20 21  1  0  0  0  0
 21 22  1  1  0  0  0
 21 25  1  0  0  0  0
 23 25  2  0  0  0  0
 23 24  1  0  0  0  0
M  END
>  <MODEL>
2

>  <REMARK>
 VINA RESULT:      -7.4      1.567      4.449
  Name = 
  4 active torsions:
  status: ('A' for Active; 'I' for Inactive)
    1  A    between atoms: C_6  and  C_15
    2  A    between atoms: C_6  and  N_23
    3  A    between atoms: C_12  and  C_21
    4  A    between atoms: C_15  and  C_21
                            x       y       z     vdW  Elec       q    Type
                         _______ _______ _______ _____ _____    ______ ____

>  <TORSDO>
F 4

$$$$
=
 OpenBabel11052417313D

 25 28  0  0  1  0  0  0  0  0999 V2000
  186.4060  177.0410  143.8650 C   0  0  0  0  0  0  0  0  0  0  0  0
  187.4720  176.2380  143.8500 C   0  0  0  0  0  0  0  0  0  0  0  0
  186.3120  177.1960  141.3680 C   0  0  0  0  0  2  0  0  0  0  0  0
  185.6890  177.5460  144.9220 C   0  0  0  0  0  0  0  0  0  0  0  0
  184.4200  178.4390  146.5190 N   0  0  0  0  0  0  0  0  0  0  0  0
  187.5150  176.2780  141.4040 C   0  0  0  0  0  3  0  0  0  0  0  0
  184.7220  178.2900  144.4070 C   0  0  0  0  0  0  0  0  0  0  0  0
  183.9140  178.8590  145.4200 N   0  0  0  0  0  0  0  0  0  0  0  0
  189.2250  174.9390  142.5750 C   0  0  0  0  0  0  0  0  0  0  0  0
  189.8590  174.4790  141.3060 C   0  0  0  0  0  1  0  0  0  0  0  0
  188.0750  175.7470  145.0440 N   0  0  0  0  0  2  0  0  0  0  0  0
  186.3970  176.9220  147.2590 C   0  0  0  0  0  1  0  0  0  0  0  0
  185.8370  177.5050  142.7190 N   0  0  0  0  0  0  0  0  0  0  0  0
  184.7720  178.2970  143.0290 C   0  0  0  0  0  3  0  0  0  0  0  0
  189.7260  174.5310  143.7050 N   0  0  0  0  0  0  0  0  0  0  0  0
  185.5570  177.5970  146.2330 C   0  0  0  0  0  0  0  0  0  0  0  0
  189.2000  174.9110  144.9560 N   0  0  0  0  0  0  0  0  0  0  0  0
  188.0520  175.8370  142.5550 C   0  0  0  0  0  0  0  0  0  0  0  0
  189.7840  174.3740  146.1700 C   0  0  0  0  0  2  0  0  0  0  0  0
  189.8120  175.4520  147.2480 C   0  0  0  0  0  2  0  0  0  0  0  0
  191.1960  175.6120  147.8820 C   0  0  2  0  0  3  0  0  0  0  0  0
  191.4090  177.0280  148.3870 C   0  0  0  0  0  1  0  0  0  0  0  0
  193.0790  176.1450  146.4020 C   0  0  0  0  0  3  0  0  0  0  0  0
  194.0970  175.7650  145.5370 O   0  0  0  0  0  1  0  0  0  0  0  0
  192.2970  175.2240  146.9480 C   0  0  0  0  0  3  0  0  0  0  0  0
  1  4  1  0  0  0  0
  2  1  2  0  0  0  0
  2 11  1  0  0  0  0
  3  6  1  0  0  0  0
  3 13  1  0  0  0  0
  4 16  2  0  0  0  0
  6 18  2  0  0  0  0
  7  4  1  0  0  0  0
  7  8  1  0  0  0  0
  8  5  2  0  0  0  0
  9 15  2  0  0  0  0
 10  9  1  0  0  0  0
 13 14  1  0  0  0  0
 13  1  1  0  0  0  0
 14  7  2  0  0  0  0
 15 17  1  0  0  0  0
 16  5  1  0  0  0  0
 16 12  1  0  0  0  0
 17 11  1  0  0  0  0
 17 19  1  0  0  0  0
 18  9  1  0  0  0  0
 18  2  1  0  0  0  0
 19 20  1  0  0  0  0
 20 21  1  0  0  0  0
 21 22  1  6  0  0  0
 23 25  2  0  0  0  0
 24 23  1  0  0  0  0
 25 21  1  0  0  0  0
M  END
>  <MODEL>
3

>  <REMARK>
 VINA RESULT:      -7.3      1.373      3.892
  Name = 
  4 active torsions:
  status: ('A' for Active; 'I' for Inactive)
    1  A    between atoms: C_6  and  C_15
    2  A    between atoms: C_6  and  N_23
    3  A    between atoms: C_12  and  C_21
    4  A    between atoms: C_15  and  C_21
                            x       y       z     vdW  Elec       q    Type
                         _______ _______ _______ _____ _____    ______ ____

>  <TORSDO>
F 4

$$$$
=
 OpenBabel11052417313D

 25 28  0  0  1  0  0  0  0  0999 V2000
  185.8850  177.6720  143.0880 C   0  0  0  0  0  0  0  0  0  0  0  0
  186.4540  177.4170  144.2680 C   0  0  0  0  0  0  0  0  0  0  0  0
  183.9450  178.8680  144.1230 C   0  0  0  0  0  2  0  0  0  0  0  0
  186.2940  177.3510  141.8170 C   0  0  0  0  0  0  0  0  0  0  0  0
  186.8170  176.9170  139.6960 N   0  0  0  0  0  0  0  0  0  0  0  0
  184.6340  178.5620  145.4360 C   0  0  0  0  0  3  0  0  0  0  0  0
  185.3790  177.8310  140.9890 C   0  0  0  0  0  0  0  0  0  0  0  0
  185.7090  177.5570  139.6400 N   0  0  0  0  0  0  0  0  0  0  0  0
  186.4590  177.5980  146.7890 C   0  0  0  0  0  0  0  0  0  0  0  0
  185.8610  178.0520  148.0770 C   0  0  0  0  0  1  0  0  0  0  0  0
  187.6830  176.7060  144.3860 N   0  0  0  0  0  2  0  0  0  0  0  0
  188.4550  176.0860  141.5350 C   0  0  0  0  0  1  0  0  0  0  0  0
  184.7100  178.3510  142.9860 N   0  0  0  0  0  0  0  0  0  0  0  0
  184.3640  178.4670  141.6730 C   0  0  0  0  0  3  0  0  0  0  0  0
  187.5820  176.9400  146.8210 N   0  0  0  0  0  0  0  0  0  0  0  0
  187.2160  176.7700  141.0750 C   0  0  0  0  0  0  0  0  0  0  0  0
  188.2230  176.4660  145.6590 N   0  0  0  0  0  0  0  0  0  0  0  0
  185.7950  177.8870  145.5000 C   0  0  0  0  0  0  0  0  0  0  0  0
  189.4980  175.7840  145.7750 C   0  0  0  0  0  2  0  0  0  0  0  0
  190.6140  176.8070  145.9540 C   0  0  0  0  0  2  0  0  0  0  0  0
  191.4160  177.0330  144.6700 C   0  0  2  0  0  3  0  0  0  0  0  0
  190.8960  178.2340  143.9000 C   0  0  0  0  0  1  0  0  0  0  0  0
  192.0250  175.8540  142.6060 C   0  0  0  0  0  3  0  0  0  0  0  0
  192.0300  174.7200  141.8040 O   0  0  0  0  0  1  0  0  0  0  0  0
  191.4330  175.8230  143.7920 C   0  0  0  0  0  3  0  0  0  0  0  0
  1  2  2  0  0  0  0
  2 11  1  0  0  0  0
  2 18  1  0  0  0  0
  3  6  1  0  0  0  0
  4  1  1  0  0  0  0
  5 16  1  0  0  0  0
  6 18  2  0  0  0  0
  7 14  2  0  0  0  0
  7  4  1  0  0  0  0
  8  5  2  0  0  0  0
  8  7  1  0  0  0  0
  9 15  2  0  0  0  0
  9 10  1  0  0  0  0
 11 17  1  0  0  0  0
 13  1  1  0  0  0  0
 13  3  1  0  0  0  0
 14 13  1  0  0  0  0
 16 12  1  0  0  0  0
 16  4  2  0  0  0  0
 17 19  1  0  0  0  0
 17 15  1  0  0  0  0
 18  9  1  0  0  0  0
 19 20  1  0  0  0  0
 21 22  1  6  0  0  0
 21 20  1  0  0  0  0
 23 25  2  0  0  0  0
 24 23  1  0  0  0  0
 25 21  1  0  0  0  0
M  END
>  <MODEL>
4

>  <REMARK>
 VINA RESULT:      -7.2      1.648      1.855
  Name = 
  4 active torsions:
  status: ('A' for Active; 'I' for Inactive)
    1  A    between atoms: C_6  and  C_15
    2  A    between atoms: C_6  and  N_23
    3  A    between atoms: C_12  and  C_21
    4  A    between atoms: C_15  and  C_21
                            x       y       z     vdW  Elec       q    Type
                         _______ _______ _______ _____ _____    ______ ____

>  <TORSDO>
F 4

$$$$
=
 OpenBabel11052417313D

 25 28  0  0  1  0  0  0  0  0999 V2000
  185.7200  178.0000  144.4060 C   0  0  0  0  0  0  0  0  0  0  0  0
  186.5270  177.5810  143.4300 C   0  0  0  0  0  0  0  0  0  0  0  0
  183.9090  178.6720  142.8150 C   0  0  0  0  0  2  0  0  0  0  0  0
  185.9060  178.0150  145.7670 C   0  0  0  0  0  0  0  0  0  0  0  0
  186.0470  178.1030  147.9880 N   0  0  0  0  0  0  0  0  0  0  0  0
  184.8570  178.1770  141.7430 C   0  0  0  0  0  3  0  0  0  0  0  0
  184.8060  178.5280  146.2970 C   0  0  0  0  0  0  0  0  0  0  0  0
  184.8930  178.5850  147.7090 N   0  0  0  0  0  0  0  0  0  0  0  0
  186.9850  177.1910  140.9750 C   0  0  0  0  0  0  0  0  0  0  0  0
  186.5890  177.2390  139.5380 C   0  0  0  0  0  1  0  0  0  0  0  0
  187.8200  177.0420  143.6860 N   0  0  0  0  0  2  0  0  0  0  0  0
  188.0770  177.1290  146.6910 C   0  0  0  0  0  1  0  0  0  0  0  0
  184.4860  178.5140  144.1510 N   0  0  0  0  0  0  0  0  0  0  0  0
  183.8850  178.8580  145.3250 C   0  0  0  0  0  3  0  0  0  0  0  0
  188.1550  176.7110  141.2830 N   0  0  0  0  0  0  0  0  0  0  0  0
  186.7180  177.7300  146.7660 C   0  0  0  0  0  0  0  0  0  0  0  0
  188.6210  176.6260  142.6090 N   0  0  0  0  0  0  0  0  0  0  0  0
  186.0700  177.6740  142.0310 C   0  0  0  0  0  0  0  0  0  0  0  0
  189.9180  176.0330  142.8750 C   0  0  0  0  0  2  0  0  0  0  0  0
  190.0410  174.7100  142.1280 C   0  0  0  0  0  2  0  0  0  0  0  0
  188.9960  173.6840  142.5760 C   0  0  2  0  0  3  0  0  0  0  0  0
  189.6370  172.5540  143.3630 C   0  0  0  0  0  1  0  0  0  0  0  0
  188.7870  172.9180  140.2540 C   0  0  0  0  0  3  0  0  0  0  0  0
  188.0410  172.4070  139.2000 O   0  0  0  0  0  1  0  0  0  0  0  0
  188.2110  173.1350  141.4290 C   0  0  0  0  0  3  0  0  0  0  0  0
  1  4  1  0  0  0  0
  2 11  1  0  0  0  0
  2  1  2  0  0  0  0
  3 13  1  0  0  0  0
  4  7  1  0  0  0  0
  4 16  2  0  0  0  0
  6 18  2  0  0  0  0
  6  3  1  0  0  0  0
  7  8  1  0  0  0  0
  8  5  2  0  0  0  0
  9 15  2  0  0  0  0
  9 18  1  0  0  0  0
 10  9  1  0  0  0  0
 12 16  1  0  0  0  0
 13  1  1  0  0  0  0
 13 14  1  0  0  0  0
 14  7  2  0  0  0  0
 15 17  1  0  0  0  0
 16  5  1  0  0  0  0
 17 19  1  0  0  0  0
 17 11  1  0  0  0  0
 18  2  1  0  0  0  0
 20 21  1  0  0  0  0
 20 19  1  0  0  0  0
 21 22  1  6  0  0  0
 23 25  2  0  0  0  0
 24 23  1  0  0  0  0
 25 21  1  0  0  0  0
M  END
>  <MODEL>
5

>  <REMARK>
 VINA RESULT:      -7.1      2.894      5.514
  Name = 
  4 active torsions:
  status: ('A' for Active; 'I' for Inactive)
    1  A    between atoms: C_6  and  C_15
    2  A    between atoms: C_6  and  N_23
    3  A    between atoms: C_12  and  C_21
    4  A    between atoms: C_15  and  C_21
                            x       y       z     vdW  Elec       q    Type
                         _______ _______ _______ _____ _____    ______ ____

>  <TORSDO>
F 4

$$$$
=
 OpenBabel11052417313D

 25 28  0  0  1  0  0  0  0  0999 V2000
  186.3810  177.2890  144.8060 C   0  0  0  0  0  0  0  0  0  0  0  0
  187.5800  176.7030  144.8180 C   0  0  0  0  0  0  0  0  0  0  0  0
  186.2040  177.3010  147.3020 C   0  0  0  0  0  2  0  0  0  0  0  0
  185.6050  177.7010  143.7500 C   0  0  0  0  0  0  0  0  0  0  0  0
  184.2320  178.4280  142.1550 N   0  0  0  0  0  0  0  0  0  0  0  0
  187.5670  176.6450  147.2650 C   0  0  0  0  0  3  0  0  0  0  0  0
  184.5040  178.2240  144.2670 C   0  0  0  0  0  0  0  0  0  0  0  0
  183.6290  178.6880  143.2560 N   0  0  0  0  0  0  0  0  0  0  0  0
  189.5350  175.7290  146.0900 C   0  0  0  0  0  0  0  0  0  0  0  0
  190.2340  175.3710  147.3580 C   0  0  0  0  0  1  0  0  0  0  0  0
  188.2900  176.3900  143.6240 N   0  0  0  0  0  2  0  0  0  0  0  0
  186.4790  177.3550  141.4120 C   0  0  0  0  0  1  0  0  0  0  0  0
  185.7110  177.5840  145.9530 N   0  0  0  0  0  0  0  0  0  0  0  0
  184.5220  178.1750  145.6450 C   0  0  0  0  0  3  0  0  0  0  0  0
  190.1240  175.4690  144.9590 N   0  0  0  0  0  0  0  0  0  0  0  0
  185.4980  177.7970  142.4400 C   0  0  0  0  0  0  0  0  0  0  0  0
  189.5450  175.7660  143.7100 N   0  0  0  0  0  0  0  0  0  0  0  0
  188.2020  176.3670  146.1120 C   0  0  0  0  0  0  0  0  0  0  0  0
  190.2880  175.4910  142.4940 C   0  0  0  0  0  2  0  0  0  0  0  0
  190.3950  173.9840  142.2870 C   0  0  0  0  0  2  0  0  0  0  0  0
  189.0760  173.2580  142.5640 C   0  0  2  0  0  3  0  0  0  0  0  0
  189.3160  171.9160  143.2310 C   0  0  0  0  0  1  0  0  0  0  0  0
  188.8320  172.8280  140.1600 C   0  0  0  0  0  3  0  0  0  0  0  0
  188.0520  172.6670  139.0220 O   0  0  0  0  0  1  0  0  0  0  0  0
  188.2550  173.0820  141.3270 C   0  0  0  0  0  3  0  0  0  0  0  0
  1  2  2  0  0  0  0
  1 13  1  0  0  0  0
  2 18  1  0  0  0  0
  4  7  1  0  0  0  0
  4  1  1  0  0  0  0
  5 16  1  0  0  0  0
  5  8  2  0  0  0  0
  6  3  1  0  0  0  0
  7 14  2  0  0  0  0
  8  7  1  0  0  0  0
  9 18  1  0  0  0  0
  9 10  1  0  0  0  0
 11 17  1  0  0  0  0
 11  2  1  0  0  0  0
 12 16  1  0  0  0  0
 13  3  1  0  0  0  0
 14 13  1  0  0  0  0
 15  9  2  0  0  0  0
 16  4  2  0  0  0  0
 17 15  1  0  0  0  0
 18  6  2  0  0  0  0
 19 17  1  0  0  0  0
 20 19  1  0  0  0  0
 20 21  1  0  0  0  0
 21 22  1  6  0  0  0
 23 25  2  0  0  0  0
 24 23  1  0  0  0  0
 25 21  1  0  0  0  0
M  END
>  <MODEL>
6

>  <REMARK>
 VINA RESULT:      -6.8      2.629      4.554
  Name = 
  4 active torsions:
  status: ('A' for Active; 'I' for Inactive)
    1  A    between atoms: C_6  and  C_15
    2  A    between atoms: C_6  and  N_23
    3  A    between atoms: C_12  and  C_21
    4  A    between atoms: C_15  and  C_21
                            x       y       z     vdW  Elec       q    Type
                         _______ _______ _______ _____ _____    ______ ____

>  <TORSDO>
F 4

$$$$
=
 OpenBabel11052417313D

 25 28  0  0  1  0  0  0  0  0999 V2000
  190.1760  175.2350  143.5760 C   0  0  0  0  0  0  0  0  0  0  0  0
  189.8120  175.7370  144.7580 C   0  0  0  0  0  0  0  0  0  0  0  0
  192.5850  175.0620  144.2320 C   0  0  0  0  0  2  0  0  0  0  0  0
  189.4240  174.9510  142.4620 C   0  0  0  0  0  0  0  0  0  0  0  0
  188.3500  174.4300  140.5820 N   0  0  0  0  0  0  0  0  0  0  0  0
  192.1220  175.6260  145.5580 C   0  0  0  0  0  3  0  0  0  0  0  0
  190.2570  174.4680  141.5520 C   0  0  0  0  0  0  0  0  0  0  0  0
  189.5770  174.1360  140.3560 N   0  0  0  0  0  0  0  0  0  0  0  0
  190.3980  176.4880  147.0990 C   0  0  0  0  0  0  0  0  0  0  0  0
  191.3730  176.7090  148.2050 C   0  0  0  0  0  1  0  0  0  0  0  0
  188.4640  176.0850  145.0570 N   0  0  0  0  0  2  0  0  0  0  0  0
  186.9460  175.3990  142.5420 C   0  0  0  0  0  1  0  0  0  0  0  0
  191.4670  174.9070  143.2990 N   0  0  0  0  0  0  0  0  0  0  0  0
  191.5500  174.4200  142.0280 C   0  0  0  0  0  3  0  0  0  0  0  0
  189.1470  176.7850  147.3020 N   0  0  0  0  0  0  0  0  0  0  0  0
  188.2220  174.9540  141.9200 C   0  0  0  0  0  0  0  0  0  0  0  0
  188.1520  176.6150  146.3200 N   0  0  0  0  0  0  0  0  0  0  0  0
  190.8370  175.9400  145.7980 C   0  0  0  0  0  0  0  0  0  0  0  0
  186.7710  176.9240  146.6400 C   0  0  0  0  0  2  0  0  0  0  0  0
  186.6250  178.4200  146.8950 C   0  0  0  0  0  2  0  0  0  0  0  0
  185.5410  179.0610  146.0250 C   0  0  2  0  0  3  0  0  0  0  0  0
  184.2210  178.3200  146.1550 C   0  0  0  0  0  1  0  0  0  0  0  0
  185.1590  178.6720  143.6320 C   0  0  0  0  0  3  0  0  0  0  0  0
  185.5510  178.7630  142.3030 O   0  0  0  0  0  1  0  0  0  0  0  0
  185.9450  179.1480  144.5880 C   0  0  0  0  0  3  0  0  0  0  0  0
  1  2  2  0  0  0  0
  2 11  1  0  0  0  0
  2 18  1  0  0  0  0
  3  6  1  0  0  0  0
  4  1  1  0  0  0  0
  5 16  1  0  0  0  0
  6 18  2  0  0  0  0
  7 14  2  0  0  0  0
  7  4  1  0  0  0  0
  8  5  2  0  0  0  0
  8  7  1  0  0  0  0
  9 15  2  0  0  0  0
  9 10  1  0  0  0  0
 11 17  1  0  0  0  0
 13  1  1  0  0  0  0
 13  3  1  0  0  0  0
 14 13  1  0  0  0  0
 16  4  2  0  0  0  0
 16 12  1  0  0  0  0
 17 19  1  0  0  0  0
 17 15  1  0  0  0  0
 18  9  1  0  0  0  0
 19 20  1  0  0  0  0
 21 22  1  6  0  0  0
 21 20  1  0  0  0  0
 23 25  2  0  0  0  0
 24 23  1  0  0  0  0
 25 21  1  0  0  0  0
M  END
>  <MODEL>
7

>  <REMARK>
 VINA RESULT:      -6.8      2.744      5.785
  Name = 
  4 active torsions:
  status: ('A' for Active; 'I' for Inactive)
    1  A    between atoms: C_6  and  C_15
    2  A    between atoms: C_6  and  N_23
    3  A    between atoms: C_12  and  C_21
    4  A    between atoms: C_15  and  C_21
                            x       y       z     vdW  Elec       q    Type
                         _______ _______ _______ _____ _____    ______ ____

>  <TORSDO>
F 4

$$$$
=
 OpenBabel11052417313D

 25 28  0  0  1  0  0  0  0  0999 V2000
  186.9210  177.7840  144.5880 C   0  0  0  0  0  0  0  0  0  0  0  0
  188.2110  177.5320  144.8190 C   0  0  0  0  0  0  0  0  0  0  0  0
  186.3440  177.8150  147.0230 C   0  0  0  0  0  2  0  0  0  0  0  0
  186.2470  177.9490  143.4020 C   0  0  0  0  0  0  0  0  0  0  0  0
  185.0110  178.2480  141.5740 N   0  0  0  0  0  0  0  0  0  0  0  0
  187.8170  177.5380  147.2350 C   0  0  0  0  0  3  0  0  0  0  0  0
  184.9800  178.1800  143.7120 C   0  0  0  0  0  0  0  0  0  0  0  0
  184.1920  178.3710  142.5520 N   0  0  0  0  0  0  0  0  0  0  0  0
  190.1160  177.1380  146.4330 C   0  0  0  0  0  0  0  0  0  0  0  0
  190.6680  177.0100  147.8120 C   0  0  0  0  0  1  0  0  0  0  0  0
  189.1600  177.3830  143.7690 N   0  0  0  0  0  2  0  0  0  0  0  0
  187.5470  177.7810  141.2500 C   0  0  0  0  0  1  0  0  0  0  0  0
  186.0210  177.9240  145.5990 N   0  0  0  0  0  0  0  0  0  0  0  0
  184.7860  178.1740  145.0780 C   0  0  0  0  0  3  0  0  0  0  0  0
  190.9270  177.0110  145.4230 N   0  0  0  0  0  0  0  0  0  0  0  0
  186.3320  177.9780  142.0870 C   0  0  0  0  0  0  0  0  0  0  0  0
  190.5020  177.1120  144.0830 N   0  0  0  0  0  0  0  0  0  0  0  0
  188.6790  177.4050  146.2120 C   0  0  0  0  0  0  0  0  0  0  0  0
  191.4770  177.0080  143.0140 C   0  0  0  0  0  2  0  0  0  0  0  0
  191.6440  175.5480  142.6120 C   0  0  0  0  0  2  0  0  0  0  0  0
  192.9600  174.9470  143.1130 C   0  0  2  0  0  3  0  0  0  0  0  0
  192.7180  173.9440  144.2270 C   0  0  0  0  0  1  0  0  0  0  0  0
  195.2350  175.7980  143.4640 C   0  0  0  0  0  3  0  0  0  0  0  0
  196.1170  176.7840  143.8860 O   0  0  0  0  0  1  0  0  0  0  0  0
  193.9270  175.9950  143.5620 C   0  0  0  0  0  3  0  0  0  0  0  0
  1  2  2  0  0  0  0
  1 13  1  0  0  0  0
  2 18  1  0  0  0  0
  3  6  1  0  0  0  0
  4  7  1  0  0  0  0
  4  1  1  0  0  0  0
  5 16  1  0  0  0  0
  5  8  2  0  0  0  0
  7 14  2  0  0  0  0
  8  7  1  0  0  0  0
  9 10  1  0  0  0  0
 11 17  1  0  0  0  0
 11  2  1  0  0  0  0
 12 16  1  0  0  0  0
 13  3  1  0  0  0  0
 14 13  1  0  0  0  0
 15  9  2  0  0  0  0
 16  4  2  0  0  0  0
 17 15  1  0  0  0  0
 18  9  1  0  0  0  0
 18  6  2  0  0  0  0
 19 17  1  0  0  0  0
 20 19  1  0  0  0  0
 20 21  1  0  0  0  0
 21 25  1  0  0  0  0
 21 22  1  1  0  0  0
 23 25  2  0  0  0  0
 23 24  1  0  0  0  0
M  END
>  <MODEL>
8

>  <REMARK>
 VINA RESULT:      -6.6      2.216      3.412
  Name = 
  4 active torsions:
  status: ('A' for Active; 'I' for Inactive)
    1  A    between atoms: C_6  and  C_15
    2  A    between atoms: C_6  and  N_23
    3  A    between atoms: C_12  and  C_21
    4  A    between atoms: C_15  and  C_21
                            x       y       z     vdW  Elec       q    Type
                         _______ _______ _______ _____ _____    ______ ____

>  <TORSDO>
F 4

$$$$
=
 OpenBabel11052417313D

 25 28  0  0  1  0  0  0  0  0999 V2000
  186.1140  177.9320  143.4940 C   0  0  0  0  0  0  0  0  0  0  0  0
  187.3320  177.6330  143.9500 C   0  0  0  0  0  0  0  0  0  0  0  0
  185.2460  178.5030  145.7710 C   0  0  0  0  0  2  0  0  0  0  0  0
  185.6130  177.9040  142.2150 C   0  0  0  0  0  0  0  0  0  0  0  0
  184.6510  177.9200  140.2070 N   0  0  0  0  0  0  0  0  0  0  0  0
  186.6450  178.1610  146.2390 C   0  0  0  0  0  3  0  0  0  0  0  0
  184.3490  178.2910  142.2920 C   0  0  0  0  0  0  0  0  0  0  0  0
  183.7350  178.3020  141.0170 N   0  0  0  0  0  0  0  0  0  0  0  0
  188.9710  177.4280  145.8630 C   0  0  0  0  0  0  0  0  0  0  0  0
  189.3320  177.5410  147.3060 C   0  0  0  0  0  1  0  0  0  0  0  0
  188.3840  177.1990  143.0930 N   0  0  0  0  0  2  0  0  0  0  0  0
  187.1450  177.2010  140.3420 C   0  0  0  0  0  1  0  0  0  0  0  0
  185.1150  178.3440  144.3210 N   0  0  0  0  0  0  0  0  0  0  0  0
  183.9880  178.5780  143.5920 C   0  0  0  0  0  3  0  0  0  0  0  0
  189.8840  177.0360  145.0220 N   0  0  0  0  0  0  0  0  0  0  0  0
  185.8630  177.6580  140.9450 C   0  0  0  0  0  0  0  0  0  0  0  0
  189.6400  176.8950  143.6410 N   0  0  0  0  0  0  0  0  0  0  0  0
  187.6090  177.7560  145.3930 C   0  0  0  0  0  0  0  0  0  0  0  0
  190.7240  176.5000  142.7610 C   0  0  0  0  0  2  0  0  0  0  0  0
  190.7750  174.9800  142.6600 C   0  0  0  0  0  2  0  0  0  0  0  0
  191.6700  174.3490  143.7300 C   0  0  2  0  0  3  0  0  0  0  0  0
  192.7410  173.4740  143.1040 C   0  0  0  0  0  1  0  0  0  0  0  0
  190.0340  172.6300  144.3530 C   0  0  0  0  0  3  0  0  0  0  0  0
  189.3170  171.9160  145.3040 O   0  0  0  0  0  1  0  0  0  0  0  0
  190.8870  173.5700  144.7360 C   0  0  0  0  0  3  0  0  0  0  0  0
  1  2  2  0  0  0  0
  1 13  1  0  0  0  0
  2 18  1  0  0  0  0
  3  6  1  0  0  0  0
  4  7  1  0  0  0  0
  4  1  1  0  0  0  0
  5 16  1  0  0  0  0
  5  8  2  0  0  0  0
  7 14  2  0  0  0  0
  8  7  1  0  0  0  0
  9 10  1  0  0  0  0
 11 17  1  0  0  0  0
 11  2  1  0  0  0  0
 12 16  1  0  0  0  0
 13  3  1  0  0  0  0
 14 13  1  0  0  0  0
 15  9  2  0  0  0  0
 16  4  2  0  0  0  0
 17 15  1  0  0  0  0
 18  9  1  0  0  0  0
 18  6  2  0  0  0  0
 19 17  1  0  0  0  0
 20 19  1  0  0  0  0
 20 21  1  0  0  0  0
 21 22  1  6  0  0  0
 21 25  1  0  0  0  0
 23 25  2  0  0  0  0
 23 24  1  0  0  0  0
M  END
>  <MODEL>
9

>  <REMARK>
 VINA RESULT:      -6.4      2.291      3.133
  Name = 
  4 active torsions:
  status: ('A' for Active; 'I' for Inactive)
    1  A    between atoms: C_6  and  C_15
    2  A    between atoms: C_6  and  N_23
    3  A    between atoms: C_12  and  C_21
    4  A    between atoms: C_15  and  C_21
                            x       y       z     vdW  Elec       q    Type
                         _______ _______ _______ _____ _____    ______ ____

>  <TORSDO>
F 4

$$$$
