=
 OpenBabel11052417443D

 31 34  0  0  1  0  0  0  0  0999 V2000
  189.0530  176.1460  144.2980 C   0  0  1  0  0  3  0  0  0  0  0  0
  187.8250  176.8350  143.6700 C   0  0  1  0  0  3  0  0  0  0  0  0
  187.0010  177.5620  144.7450 C   0  0  2  0  0  3  0  0  0  0  0  0
  185.2080  176.8000  146.3990 C   0  0  0  0  0  3  0  0  0  0  0  0
  186.1790  176.5470  145.5020 C   0  0  0  0  0  3  0  0  0  0  0  0
  186.1810  178.9890  142.6840 C   0  0  0  0  0  2  0  0  0  0  0  0
  184.6390  178.1400  146.8000 C   0  0  0  0  0  2  0  0  0  0  0  0
  188.2040  177.7110  142.6350 O   0  0  0  0  0  0  0  0  0  0  0  0
  185.5060  179.3420  146.4510 C   0  0  0  0  0  2  0  0  0  0  0  0
  187.0270  177.9700  141.9240 C   0  0  0  0  0  2  0  0  0  0  0  0
  186.1680  178.6900  144.1590 C   0  0  0  0  0  0  0  0  0  0  0  0
  185.5210  179.5370  144.9660 C   0  0  0  0  0  3  0  0  0  0  0  0
  191.1710  173.3500  144.4040 N   0  0  0  0  0  0  0  0  0  0  0  0
  191.5740  173.9400  143.1420 C   0  0  0  0  0  2  0  0  0  0  0  0
  191.0340  171.9230  144.1790 C   0  0  0  0  0  1  0  0  0  0  0  0
  189.8370  173.8680  144.6820 C   0  0  0  0  0  2  0  0  0  0  0  0
  189.4790  174.8790  143.6830 N   0  0  0  0  0  0  0  0  0  0  0  0
  190.6890  175.1350  142.9290 C   0  0  0  0  0  2  0  0  0  0  0  0
  190.4530  177.2560  144.7080 S   0  0  0  0  0  0  0  0  0  0  0  0
  190.4690  176.9010  146.5060 C   0  0  0  0  0  2  0  0  0  0  0  0
  191.6090  175.1930  147.5070 O   0  0  0  0  0  1  0  0  0  0  0  0
  191.7700  176.4330  146.9850 N   0  0  0  0  0  0  0  0  0  0  0  0
  192.6960  176.3210  145.8640 C   0  0  0  0  0  2  0  0  0  0  0  0
  194.1070  176.4470  146.3390 C   0  0  0  0  0  0  0  0  0  0  0  0
  194.4850  177.4840  146.8590 O   0  0  0  0  0  0  0  0  0  0  0  0
  195.0320  175.2680  146.2410 C   0  0  0  0  0  2  0  0  0  0  0  0
  194.7680  174.3700  145.0280 C   0  0  2  0  0  3  0  0  0  0  0  0
  194.7930  172.8960  145.3950 C   0  0  0  0  0  1  0  0  0  0  0  0
  195.7260  174.6640  143.8840 C   0  0  2  0  0  3  0  0  0  0  0  0
  195.0150  175.3810  142.8040 C   0  0  0  0  0  2  0  0  0  0  0  0
  195.2810  174.0020  142.7250 O   0  0  0  0  0  0  0  0  0  0  0  0
  1 19  1  6  0  0  0
  2  1  1  1  0  0  0
  2  3  1  0  0  0  0
  3  5  1  6  0  0  0
  4  7  1  0  0  0  0
  5  4  2  0  0  0  0
  6 11  1  0  0  0  0
  8  2  1  0  0  0  0
  9  7  1  0  0  0  0
 10  8  1  0  0  0  0
 10  6  1  0  0  0  0
 11  3  1  0  0  0  0
 11 12  2  0  0  0  0
 12  9  1  0  0  0  0
 13 16  1  0  0  0  0
 14 13  1  0  0  0  0
 15 13  1  0  0  0  0
 17  1  1  0  0  0  0
 17 16  1  0  0  0  0
 18 14  1  0  0  0  0
 18 17  1  0  0  0  0
 19 20  1  0  0  0  0
 20 22  1  0  0  0  0
 22 21  1  0  0  0  0
 23 24  1  0  0  0  0
 23 22  1  0  0  0  0
 24 25  2  0  0  0  0
 26 24  1  0  0  0  0
 27 28  1  1  0  0  0
 27 26  1  0  0  0  0
 29 27  1  1  0  0  0
 30 29  1  0  0  0  0
 31 30  1  0  0  0  0
 31 29  1  0  0  0  0
M  END
>  <MODEL>
1

>  <REMARK>
 VINA RESULT:      -6.8      0.000      0.000
  Name = 
  10 active torsions:
  status: ('A' for Active; 'I' for Inactive)
    1  A    between atoms: C_1  and  C_6
    2  A    between atoms: C_3  and  C_19
    3  A    between atoms: C_3  and  C_23
    4  A    between atoms: C_4  and  C_12
    5  A    between atoms: C_6  and  C_19
    6  A    between atoms: N_9  and  C_15
    7  A    between atoms: N_9  and  C_23
    8  A    between atoms: C_12  and  S_20
    9  A    between atoms: C_12  and  N_27
   10  A    between atoms: C_15  and  S_20
                            x       y       z     vdW  Elec       q    Type
                         _______ _______ _______ _____ _____    ______ ____

>  <TORSDO>
F 10

$$$$
=
 OpenBabel11052417443D

 31 34  0  0  1  0  0  0  0  0999 V2000
  189.2060  176.2710  144.2090 C   0  0  1  0  0  3  0  0  0  0  0  0
  187.9470  176.9030  143.5820 C   0  0  1  0  0  3  0  0  0  0  0  0
  187.0860  177.5820  144.6600 C   0  0  2  0  0  3  0  0  0  0  0  0
  185.3300  176.7220  146.3050 C   0  0  0  0  0  3  0  0  0  0  0  0
  186.3130  176.5230  145.4080 C   0  0  0  0  0  3  0  0  0  0  0  0
  186.2010  178.9790  142.6050 C   0  0  0  0  0  2  0  0  0  0  0  0
  184.6940  178.0300  146.7130 C   0  0  0  0  0  2  0  0  0  0  0  0
  188.2840  177.8030  142.5540 O   0  0  0  0  0  0  0  0  0  0  0  0
  185.5020  179.2750  146.3730 C   0  0  0  0  0  2  0  0  0  0  0  0
  187.0970  178.0080  141.8410 C   0  0  0  0  0  2  0  0  0  0  0  0
  186.1990  178.6710  144.0790 C   0  0  0  0  0  0  0  0  0  0  0  0
  185.5100  179.4800  144.8900 C   0  0  0  0  0  3  0  0  0  0  0  0
  188.6680  173.2100  142.5810 N   0  0  0  0  0  0  0  0  0  0  0  0
  189.5070  172.7800  143.6820 C   0  0  0  0  0  2  0  0  0  0  0  0
  189.1710  172.5560  141.3860 C   0  0  0  0  0  1  0  0  0  0  0  0
  188.9150  174.6370  142.4210 C   0  0  0  0  0  2  0  0  0  0  0  0
  189.7800  175.1160  143.5020 N   0  0  0  0  0  0  0  0  0  0  0  0
  189.8770  174.0200  144.4450 C   0  0  0  0  0  2  0  0  0  0  0  0
  190.4730  177.4600  144.7970 S   0  0  0  0  0  0  0  0  0  0  0  0
  190.3590  177.0110  146.5700 C   0  0  0  0  0  2  0  0  0  0  0  0
  191.2900  175.2570  147.6990 O   0  0  0  0  0  1  0  0  0  0  0  0
  191.5960  176.4290  147.0920 N   0  0  0  0  0  0  0  0  0  0  0  0
  192.5030  176.1300  145.9900 C   0  0  0  0  0  2  0  0  0  0  0  0
  193.9200  176.3540  146.4070 C   0  0  0  0  0  0  0  0  0  0  0  0
  194.2220  177.3610  147.0260 O   0  0  0  0  0  0  0  0  0  0  0  0
  194.9520  175.3000  146.1260 C   0  0  0  0  0  2  0  0  0  0  0  0
  195.1080  174.9640  144.6400 C   0  0  2  0  0  3  0  0  0  0  0  0
  194.7690  173.5110  144.3460 C   0  0  0  0  0  1  0  0  0  0  0  0
  196.4920  175.3170  144.1190 C   0  0  2  0  0  3  0  0  0  0  0  0
  196.4510  176.6200  143.4230 C   0  0  0  0  0  2  0  0  0  0  0  0
  196.4510  175.4040  142.7160 O   0  0  0  0  0  0  0  0  0  0  0  0
  1 19  1  6  0  0  0
  2  1  1  1  0  0  0
  2  3  1  0  0  0  0
  3  5  1  6  0  0  0
  4  7  1  0  0  0  0
  5  4  2  0  0  0  0
  6 11  1  0  0  0  0
  8  2  1  0  0  0  0
  9  7  1  0  0  0  0
 10  8  1  0  0  0  0
 10  6  1  0  0  0  0
 11  3  1  0  0  0  0
 11 12  2  0  0  0  0
 12  9  1  0  0  0  0
 13 14  1  0  0  0  0
 14 18  1  0  0  0  0
 15 13  1  0  0  0  0
 16 13  1  0  0  0  0
 16 17  1  0  0  0  0
 17  1  1  0  0  0  0
 17 18  1  0  0  0  0
 19 20  1  0  0  0  0
 20 22  1  0  0  0  0
 22 21  1  0  0  0  0
 23 24  1  0  0  0  0
 23 22  1  0  0  0  0
 24 25  2  0  0  0  0
 26 24  1  0  0  0  0
 27 28  1  1  0  0  0
 27 26  1  0  0  0  0
 29 27  1  1  0  0  0
 30 29  1  0  0  0  0
 31 30  1  0  0  0  0
 31 29  1  0  0  0  0
M  END
>  <MODEL>
2

>  <REMARK>
 VINA RESULT:      -6.7      1.026      1.262
  Name = 
  10 active torsions:
  status: ('A' for Active; 'I' for Inactive)
    1  A    between atoms: C_1  and  C_6
    2  A    between atoms: C_3  and  C_19
    3  A    between atoms: C_3  and  C_23
    4  A    between atoms: C_4  and  C_12
    5  A    between atoms: C_6  and  C_19
    6  A    between atoms: N_9  and  C_15
    7  A    between atoms: N_9  and  C_23
    8  A    between atoms: C_12  and  S_20
    9  A    between atoms: C_12  and  N_27
   10  A    between atoms: C_15  and  S_20
                            x       y       z     vdW  Elec       q    Type
                         _______ _______ _______ _____ _____    ______ ____

>  <TORSDO>
F 10

$$$$
=
 OpenBabel11052417443D

 31 34  0  0  1  0  0  0  0  0999 V2000
  188.9880  176.2170  142.7760 C   0  0  1  0  0  3  0  0  0  0  0  0
  187.5850  176.7420  142.4130 C   0  0  1  0  0  3  0  0  0  0  0  0
  186.9710  177.5130  143.5950 C   0  0  2  0  0  3  0  0  0  0  0  0
  185.7050  176.7910  145.6950 C   0  0  0  0  0  3  0  0  0  0  0  0
  186.4560  176.5210  144.6100 C   0  0  0  0  0  3  0  0  0  0  0  0
  185.5490  178.6510  141.6870 C   0  0  0  0  0  2  0  0  0  0  0  0
  185.1170  178.1190  146.1110 C   0  0  0  0  0  2  0  0  0  0  0  0
  187.6200  177.5320  141.2490 O   0  0  0  0  0  0  0  0  0  0  0  0
  185.7540  179.3410  145.4630 C   0  0  0  0  0  2  0  0  0  0  0  0
  186.2870  177.6260  140.8290 C   0  0  0  0  0  2  0  0  0  0  0  0
  185.9160  178.5060  143.1400 C   0  0  0  0  0  0  0  0  0  0  0  0
  185.3980  179.3810  144.0090 C   0  0  0  0  0  3  0  0  0  0  0  0
  188.0940  173.3710  140.9280 N   0  0  0  0  0  0  0  0  0  0  0  0
  188.6250  172.7520  142.1260 C   0  0  0  0  0  2  0  0  0  0  0  0
  188.6400  172.6420  139.7980 C   0  0  0  0  0  1  0  0  0  0  0  0
  188.6620  174.7130  140.8830 C   0  0  0  0  0  2  0  0  0  0  0  0
  189.4140  174.9750  142.1130 N   0  0  0  0  0  0  0  0  0  0  0  0
  189.1160  173.8710  143.0010 C   0  0  0  0  0  2  0  0  0  0  0  0
  190.3090  177.4870  142.8470 S   0  0  0  0  0  0  0  0  0  0  0  0
  191.7160  176.3120  142.8380 C   0  0  0  0  0  2  0  0  0  0  0  0
  192.4030  177.7970  144.4320 O   0  0  0  0  0  1  0  0  0  0  0  0
  192.7030  176.5970  143.8800 N   0  0  0  0  0  0  0  0  0  0  0  0
  192.6120  175.5930  144.9340 C   0  0  0  0  0  2  0  0  0  0  0  0
  193.0350  176.1730  146.2440 C   0  0  0  0  0  0  0  0  0  0  0  0
  194.2050  176.4640  146.4330 O   0  0  0  0  0  0  0  0  0  0  0  0
  192.0030  176.4630  147.2960 C   0  0  0  0  0  2  0  0  0  0  0  0
  190.5590  176.2690  146.8210 C   0  0  2  0  0  3  0  0  0  0  0  0
  189.7400  177.5430  146.9530 C   0  0  0  0  0  1  0  0  0  0  0  0
  189.8790  175.1070  147.5270 C   0  0  2  0  0  3  0  0  0  0  0  0
  189.3190  174.1690  146.5310 C   0  0  0  0  0  2  0  0  0  0  0  0
  188.5100  175.1040  147.2030 O   0  0  0  0  0  0  0  0  0  0  0  0
  1 19  1  6  0  0  0
  2  1  1  1  0  0  0
  2  3  1  0  0  0  0
  3  5  1  1  0  0  0
  4  7  1  0  0  0  0
  5  4  2  0  0  0  0
  6 11  1  0  0  0  0
  8  2  1  0  0  0  0
  9  7  1  0  0  0  0
 10  8  1  0  0  0  0
 10  6  1  0  0  0  0
 11  3  1  0  0  0  0
 11 12  2  0  0  0  0
 12  9  1  0  0  0  0
 13 14  1  0  0  0  0
 14 18  1  0  0  0  0
 15 13  1  0  0  0  0
 16 13  1  0  0  0  0
 16 17  1  0  0  0  0
 17  1  1  0  0  0  0
 17 18  1  0  0  0  0
 20 19  1  0  0  0  0
 20 22  1  0  0  0  0
 22 21  1  0  0  0  0
 22 23  1  0  0  0  0
 23 24  1  0  0  0  0
 24 25  2  0  0  0  0
 24 26  1  0  0  0  0
 27 28  1  1  0  0  0
 27 26  1  0  0  0  0
 29 27  1  6  0  0  0
 30 31  1  0  0  0  0
 30 29  1  0  0  0  0
 31 29  1  0  0  0  0
M  END
>  <MODEL>
3

>  <REMARK>
 VINA RESULT:      -6.5      2.130      3.575
  Name = 
  10 active torsions:
  status: ('A' for Active; 'I' for Inactive)
    1  A    between atoms: C_1  and  C_6
    2  A    between atoms: C_3  and  C_19
    3  A    between atoms: C_3  and  C_23
    4  A    between atoms: C_4  and  C_12
    5  A    between atoms: C_6  and  C_19
    6  A    between atoms: N_9  and  C_15
    7  A    between atoms: N_9  and  C_23
    8  A    between atoms: C_12  and  S_20
    9  A    between atoms: C_12  and  N_27
   10  A    between atoms: C_15  and  S_20
                            x       y       z     vdW  Elec       q    Type
                         _______ _______ _______ _____ _____    ______ ____

>  <TORSDO>
F 10

$$$$
=
 OpenBabel11052417443D

 31 34  0  0  1  0  0  0  0  0999 V2000
  189.0940  176.2590  144.3060 C   0  0  1  0  0  3  0  0  0  0  0  0
  187.8600  176.9030  143.6430 C   0  0  1  0  0  3  0  0  0  0  0  0
  186.9840  177.6070  144.6920 C   0  0  2  0  0  3  0  0  0  0  0  0
  185.1760  176.7930  146.3040 C   0  0  0  0  0  3  0  0  0  0  0  0
  186.1770  176.5690  145.4330 C   0  0  0  0  0  3  0  0  0  0  0  0
  186.1710  178.9960  142.6020 C   0  0  0  0  0  2  0  0  0  0  0  0
  184.5520  178.1150  146.6820 C   0  0  0  0  0  2  0  0  0  0  0  0
  188.2370  177.7860  142.6130 O   0  0  0  0  0  0  0  0  0  0  0  0
  185.3870  179.3440  146.3490 C   0  0  0  0  0  2  0  0  0  0  0  0
  187.0700  178.0020  141.8700 C   0  0  0  0  0  2  0  0  0  0  0  0
  186.1300  178.7030  144.0780 C   0  0  0  0  0  0  0  0  0  0  0  0
  185.4340  179.5320  144.8640 C   0  0  0  0  0  3  0  0  0  0  0  0
  191.1580  176.2560  147.1440 N   0  0  0  0  0  0  0  0  0  0  0  0
  190.2550  175.1700  147.4730 C   0  0  0  0  0  2  0  0  0  0  0  0
  191.2970  177.0680  148.3390 C   0  0  0  0  0  1  0  0  0  0  0  0
  190.4640  177.0710  146.1540 C   0  0  0  0  0  2  0  0  0  0  0  0
  189.2110  176.4180  145.7640 N   0  0  0  0  0  0  0  0  0  0  0  0
  189.2540  175.0950  146.3540 C   0  0  0  0  0  2  0  0  0  0  0  0
  189.5020  174.5670  143.7300 S   0  0  0  0  0  0  0  0  0  0  0  0
  190.6680  175.0810  142.4120 C   0  0  0  0  0  2  0  0  0  0  0  0
  192.3050  176.5000  143.1360 O   0  0  0  0  0  1  0  0  0  0  0  0
  192.0490  175.1940  142.8830 N   0  0  0  0  0  0  0  0  0  0  0  0
  192.2030  174.4640  144.1360 C   0  0  0  0  0  2  0  0  0  0  0  0
  193.5640  173.8520  144.2190 C   0  0  0  0  0  0  0  0  0  0  0  0
  193.9770  173.1590  143.3030 O   0  0  0  0  0  0  0  0  0  0  0  0
  194.4440  174.1560  145.3970 C   0  0  0  0  0  2  0  0  0  0  0  0
  195.2390  175.4590  145.2600 C   0  0  2  0  0  3  0  0  0  0  0  0
  194.5340  176.6270  145.9290 C   0  0  0  0  0  1  0  0  0  0  0  0
  195.5650  175.7750  143.8090 C   0  0  2  0  0  3  0  0  0  0  0  0
  197.0180  175.6300  143.5770 C   0  0  0  0  0  2  0  0  0  0  0  0
  196.4210  176.8910  143.7600 O   0  0  0  0  0  0  0  0  0  0  0  0
  1 19  1  1  0  0  0
  1 17  1  0  0  0  0
  2  1  1  1  0  0  0
  2  3  1  0  0  0  0
  3  5  1  6  0  0  0
  4  7  1  0  0  0  0
  5  4  2  0  0  0  0
  6 11  1  0  0  0  0
  8  2  1  0  0  0  0
  9  7  1  0  0  0  0
 10  6  1  0  0  0  0
 10  8  1  0  0  0  0
 11  3  1  0  0  0  0
 11 12  2  0  0  0  0
 12  9  1  0  0  0  0
 13 14  1  0  0  0  0
 13 15  1  0  0  0  0
 16 13  1  0  0  0  0
 17 16  1  0  0  0  0
 17 18  1  0  0  0  0
 18 14  1  0  0  0  0
 20 22  1  0  0  0  0
 20 19  1  0  0  0  0
 22 21  1  0  0  0  0
 22 23  1  0  0  0  0
 23 24  1  0  0  0  0
 24 26  1  0  0  0  0
 25 24  2  0  0  0  0
 27 26  1  0  0  0  0
 27 28  1  6  0  0  0
 29 27  1  1  0  0  0
 30 31  1  0  0  0  0
 30 29  1  0  0  0  0
 31 29  1  0  0  0  0
M  END
>  <MODEL>
4

>  <REMARK>
 VINA RESULT:      -6.5      1.654      2.944
  Name = 
  10 active torsions:
  status: ('A' for Active; 'I' for Inactive)
    1  A    between atoms: C_1  and  C_6
    2  A    between atoms: C_3  and  C_19
    3  A    between atoms: C_3  and  C_23
    4  A    between atoms: C_4  and  C_12
    5  A    between atoms: C_6  and  C_19
    6  A    between atoms: N_9  and  C_15
    7  A    between atoms: N_9  and  C_23
    8  A    between atoms: C_12  and  S_20
    9  A    between atoms: C_12  and  N_27
   10  A    between atoms: C_15  and  S_20
                            x       y       z     vdW  Elec       q    Type
                         _______ _______ _______ _____ _____    ______ ____

>  <TORSDO>
F 10

$$$$
=
 OpenBabel11052417443D

 31 34  0  0  1  0  0  0  0  0999 V2000
  189.4150  176.2190  144.1820 C   0  0  1  0  0  3  0  0  0  0  0  0
  188.1670  176.7400  143.4420 C   0  0  1  0  0  3  0  0  0  0  0  0
  187.2480  177.5110  144.4050 C   0  0  2  0  0  3  0  0  0  0  0  0
  185.4490  176.7900  146.0720 C   0  0  0  0  0  3  0  0  0  0  0  0
  186.4720  176.5200  145.2390 C   0  0  0  0  0  3  0  0  0  0  0  0
  186.4110  178.6440  142.1750 C   0  0  0  0  0  2  0  0  0  0  0  0
  184.7670  178.1170  146.3060 C   0  0  0  0  0  2  0  0  0  0  0  0
  188.5230  177.5290  142.3330 O   0  0  0  0  0  0  0  0  0  0  0  0
  185.5560  179.3390  145.8580 C   0  0  0  0  0  2  0  0  0  0  0  0
  187.3600  177.6190  141.5580 C   0  0  0  0  0  2  0  0  0  0  0  0
  186.3590  178.5010  143.6730 C   0  0  0  0  0  0  0  0  0  0  0  0
  185.6190  179.3760  144.3620 C   0  0  0  0  0  3  0  0  0  0  0  0
  188.9440  172.8860  143.1890 N   0  0  0  0  0  0  0  0  0  0  0  0
  189.8600  172.7050  144.2990 C   0  0  0  0  0  2  0  0  0  0  0  0
  189.4150  172.0390  142.1100 C   0  0  0  0  0  1  0  0  0  0  0  0
  189.1120  174.2660  142.7510 C   0  0  0  0  0  2  0  0  0  0  0  0
  190.0080  174.9740  143.6700 N   0  0  0  0  0  0  0  0  0  0  0  0
  190.2080  174.0800  144.7930 C   0  0  0  0  0  2  0  0  0  0  0  0
  190.6660  177.4910  144.6080 S   0  0  0  0  0  0  0  0  0  0  0  0
  191.8540  177.0540  143.2830 C   0  0  0  0  0  2  0  0  0  0  0  0
  194.0090  176.4040  142.8900 O   0  0  0  0  0  1  0  0  0  0  0  0
  192.9880  176.2670  143.7710 N   0  0  0  0  0  0  0  0  0  0  0  0
  193.4400  176.7960  145.0530 C   0  0  0  0  0  2  0  0  0  0  0  0
  193.8650  175.6830  145.9540 C   0  0  0  0  0  0  0  0  0  0  0  0
  193.0440  175.1250  146.6640 O   0  0  0  0  0  0  0  0  0  0  0  0
  195.2900  175.2080  145.9280 C   0  0  0  0  0  2  0  0  0  0  0  0
  195.4390  173.7060  145.6650 C   0  0  2  0  0  3  0  0  0  0  0  0
  196.8170  173.1950  146.0550 C   0  0  0  0  0  1  0  0  0  0  0  0
  195.1100  173.3450  144.2260 C   0  0  2  0  0  3  0  0  0  0  0  0
  193.9060  172.4880  144.1840 C   0  0  0  0  0  2  0  0  0  0  0  0
  195.2000  171.9500  144.0660 O   0  0  0  0  0  0  0  0  0  0  0  0
  1 19  1  6  0  0  0
  2  1  1  1  0  0  0
  2  3  1  0  0  0  0
  3  5  1  6  0  0  0
  4  7  1  0  0  0  0
  5  4  2  0  0  0  0
  6 11  1  0  0  0  0
  8  2  1  0  0  0  0
  9  7  1  0  0  0  0
 10  6  1  0  0  0  0
 10  8  1  0  0  0  0
 11 12  2  0  0  0  0
 11  3  1  0  0  0  0
 12  9  1  0  0  0  0
 13 14  1  0  0  0  0
 14 18  1  0  0  0  0
 15 13  1  0  0  0  0
 16 13  1  0  0  0  0
 16 17  1  0  0  0  0
 17  1  1  0  0  0  0
 17 18  1  0  0  0  0
 20 22  1  0  0  0  0
 20 19  1  0  0  0  0
 21 22  1  0  0  0  0
 22 23  1  0  0  0  0
 23 24  1  0  0  0  0
 24 25  2  0  0  0  0
 26 24  1  0  0  0  0
 27 26  1  0  0  0  0
 27 28  1  6  0  0  0
 29 27  1  1  0  0  0
 30 29  1  0  0  0  0
 31 30  1  0  0  0  0
 31 29  1  0  0  0  0
M  END
>  <MODEL>
5

>  <REMARK>
 VINA RESULT:      -6.4      1.467      1.973
  Name = 
  10 active torsions:
  status: ('A' for Active; 'I' for Inactive)
    1  A    between atoms: C_1  and  C_6
    2  A    between atoms: C_3  and  C_19
    3  A    between atoms: C_3  and  C_23
    4  A    between atoms: C_4  and  C_12
    5  A    between atoms: C_6  and  C_19
    6  A    between atoms: N_9  and  C_15
    7  A    between atoms: N_9  and  C_23
    8  A    between atoms: C_12  and  S_20
    9  A    between atoms: C_12  and  N_27
   10  A    between atoms: C_15  and  S_20
                            x       y       z     vdW  Elec       q    Type
                         _______ _______ _______ _____ _____    ______ ____

>  <TORSDO>
F 10

$$$$
=
 OpenBabel11052417443D

 31 34  0  0  1  0  0  0  0  0999 V2000
  190.5700  174.2310  143.0730 C   0  0  1  0  0  3  0  0  0  0  0  0
  190.6960  174.2280  144.6100 C   0  0  1  0  0  3  0  0  0  0  0  0
  191.9310  175.0290  145.0550 C   0  0  2  0  0  3  0  0  0  0  0  0
  194.4130  174.4580  145.2650 C   0  0  0  0  0  3  0  0  0  0  0  0
  193.1640  174.1840  144.8450 C   0  0  0  0  0  3  0  0  0  0  0  0
  190.5710  175.2460  147.3050 C   0  0  0  0  0  2  0  0  0  0  0  0
  194.8730  175.6140  146.1220 C   0  0  0  0  0  2  0  0  0  0  0  0
  189.5240  174.7120  145.2200 O   0  0  0  0  0  0  0  0  0  0  0  0
  193.9100  176.7910  146.1920 C   0  0  0  0  0  2  0  0  0  0  0  0
  189.6160  174.3160  146.5600 C   0  0  0  0  0  2  0  0  0  0  0  0
  191.7940  175.5430  146.4780 C   0  0  0  0  0  0  0  0  0  0  0  0
  192.6930  176.3990  146.9730 C   0  0  0  0  0  3  0  0  0  0  0  0
  190.0840  171.5690  140.8400 N   0  0  0  0  0  0  0  0  0  0  0  0
  190.4500  170.8430  142.0400 C   0  0  0  0  0  2  0  0  0  0  0  0
  190.8250  170.9730  139.7430 C   0  0  0  0  0  1  0  0  0  0  0  0
  190.5970  172.9220  141.0150 C   0  0  0  0  0  2  0  0  0  0  0  0
  191.1420  173.0750  142.3670 N   0  0  0  0  0  0  0  0  0  0  0  0
  190.7570  171.8780  143.0860 C   0  0  0  0  0  2  0  0  0  0  0  0
  188.9330  174.7380  142.4200 S   0  0  0  0  0  0  0  0  0  0  0  0
  189.2690  176.5400  142.4190 C   0  0  0  0  0  2  0  0  0  0  0  0
  189.2720  177.9120  144.2450 O   0  0  0  0  0  1  0  0  0  0  0  0
  188.4460  177.2740  143.3820 N   0  0  0  0  0  0  0  0  0  0  0  0
  187.6630  178.2900  142.6890 C   0  0  0  0  0  2  0  0  0  0  0  0
  186.2380  178.2440  143.1350 C   0  0  0  0  0  0  0  0  0  0  0  0
  185.4450  177.5120  142.5680 O   0  0  0  0  0  0  0  0  0  0  0  0
  185.8080  179.0470  144.3290 C   0  0  0  0  0  2  0  0  0  0  0  0
  185.4000  178.1960  145.5360 C   0  0  2  0  0  3  0  0  0  0  0  0
  184.0660  178.6340  146.1170 C   0  0  0  0  0  1  0  0  0  0  0  0
  186.4800  178.1730  146.6060 C   0  0  2  0  0  3  0  0  0  0  0  0
  186.9090  176.7810  146.8600 C   0  0  0  0  0  2  0  0  0  0  0  0
  186.0160  177.4470  147.7180 O   0  0  0  0  0  0  0  0  0  0  0  0
  1 19  1  1  0  0  0
  2  1  1  6  0  0  0
  2  3  1  0  0  0  0
  2  8  1  0  0  0  0
  3  5  1  1  0  0  0
  3 11  1  0  0  0  0
  4  7  1  0  0  0  0
  5  4  2  0  0  0  0
  7  9  1  0  0  0  0
  8 10  1  0  0  0  0
  9 12  1  0  0  0  0
 10  6  1  0  0  0  0
 11 12  2  0  0  0  0
 11  6  1  0  0  0  0
 13 16  1  0  0  0  0
 13 14  1  0  0  0  0
 14 18  1  0  0  0  0
 15 13  1  0  0  0  0
 16 17  1  0  0  0  0
 17  1  1  0  0  0  0
 17 18  1  0  0  0  0
 20 19  1  0  0  0  0
 20 22  1  0  0  0  0
 22 21  1  0  0  0  0
 23 24  1  0  0  0  0
 23 22  1  0  0  0  0
 24 26  1  0  0  0  0
 25 24  2  0  0  0  0
 26 27  1  0  0  0  0
 27 28  1  1  0  0  0
 29 27  1  6  0  0  0
 29 30  1  0  0  0  0
 29 31  1  0  0  0  0
 30 31  1  0  0  0  0
M  END
>  <MODEL>
6

>  <REMARK>
 VINA RESULT:      -6.3      2.422      7.317
  Name = 
  10 active torsions:
  status: ('A' for Active; 'I' for Inactive)
    1  A    between atoms: C_1  and  C_6
    2  A    between atoms: C_3  and  C_19
    3  A    between atoms: C_3  and  C_23
    4  A    between atoms: C_4  and  C_12
    5  A    between atoms: C_6  and  C_19
    6  A    between atoms: N_9  and  C_15
    7  A    between atoms: N_9  and  C_23
    8  A    between atoms: C_12  and  S_20
    9  A    between atoms: C_12  and  N_27
   10  A    between atoms: C_15  and  S_20
                            x       y       z     vdW  Elec       q    Type
                         _______ _______ _______ _____ _____    ______ ____

>  <TORSDO>
F 10

$$$$
=
 OpenBabel11052417443D

 31 34  0  0  1  0  0  0  0  0999 V2000
  189.5370  174.5000  141.7770 C   0  0  1  0  0  3  0  0  0  0  0  0
  190.4970  174.5250  142.9830 C   0  0  1  0  0  3  0  0  0  0  0  0
  189.8020  175.1230  144.2180 C   0  0  2  0  0  3  0  0  0  0  0  0
  189.3940  177.5150  145.0200 C   0  0  0  0  0  3  0  0  0  0  0  0
  189.7640  176.6260  144.0790 C   0  0  0  0  0  3  0  0  0  0  0  0
  191.6350  173.7360  145.5120 C   0  0  0  0  0  2  0  0  0  0  0  0
  189.0220  177.2460  146.4590 C   0  0  0  0  0  2  0  0  0  0  0  0
  191.0120  173.2440  143.2540 O   0  0  0  0  0  0  0  0  0  0  0  0
  188.6490  175.8030  146.7720 C   0  0  0  0  0  2  0  0  0  0  0  0
  192.1140  173.4600  144.0890 C   0  0  0  0  0  2  0  0  0  0  0  0
  190.4450  174.6580  145.5140 C   0  0  0  0  0  0  0  0  0  0  0  0
  189.8690  174.9390  146.6870 C   0  0  0  0  0  3  0  0  0  0  0  0
  189.4670  173.3420  138.4650 N   0  0  0  0  0  0  0  0  0  0  0  0
  188.3990  172.5500  139.0450 C   0  0  0  0  0  2  0  0  0  0  0  0
  190.2660  172.4430  137.6530 C   0  0  0  0  0  1  0  0  0  0  0  0
  190.3040  173.7660  139.5800 C   0  0  0  0  0  2  0  0  0  0  0  0
  189.6830  173.3690  140.8470 N   0  0  0  0  0  0  0  0  0  0  0  0
  188.3550  172.8990  140.5060 C   0  0  0  0  0  2  0  0  0  0  0  0
  187.7890  174.9020  142.1560 S   0  0  0  0  0  0  0  0  0  0  0  0
  187.6620  176.3320  141.0160 C   0  0  0  0  0  2  0  0  0  0  0  0
  188.3900  178.4650  141.3900 O   0  0  0  0  0  1  0  0  0  0  0  0
  187.4030  177.5940  141.7110 N   0  0  0  0  0  0  0  0  0  0  0  0
  186.1440  178.1650  141.2450 C   0  0  0  0  0  2  0  0  0  0  0  0
  185.2580  178.4850  142.4050 C   0  0  0  0  0  0  0  0  0  0  0  0
  184.0850  178.1470  142.3870 O   0  0  0  0  0  0  0  0  0  0  0  0
  185.8350  179.1580  143.6170 C   0  0  0  0  0  2  0  0  0  0  0  0
  185.7370  178.3210  144.8970 C   0  0  2  0  0  3  0  0  0  0  0  0
  185.7700  176.8300  144.6060 C   0  0  0  0  0  1  0  0  0  0  0  0
  184.5150  178.6890  145.7240 C   0  0  2  0  0  3  0  0  0  0  0  0
  184.8820  178.7770  147.1530 C   0  0  0  0  0  2  0  0  0  0  0  0
  184.2340  177.6460  146.6250 O   0  0  0  0  0  0  0  0  0  0  0  0
  1 19  1  1  0  0  0
  2  1  1  6  0  0  0
  2  8  1  0  0  0  0
  2  3  1  0  0  0  0
  3  5  1  6  0  0  0
  3 11  1  0  0  0  0
  4  7  1  0  0  0  0
  5  4  2  0  0  0  0
  6 11  1  0  0  0  0
  7  9  1  0  0  0  0
  8 10  1  0  0  0  0
 10  6  1  0  0  0  0
 11 12  2  0  0  0  0
 12  9  1  0  0  0  0
 13 14  1  0  0  0  0
 13 16  1  0  0  0  0
 14 18  1  0  0  0  0
 15 13  1  0  0  0  0
 16 17  1  0  0  0  0
 17  1  1  0  0  0  0
 18 17  1  0  0  0  0
 20 22  1  0  0  0  0
 20 19  1  0  0  0  0
 21 22  1  0  0  0  0
 23 22  1  0  0  0  0
 23 24  1  0  0  0  0
 24 26  1  0  0  0  0
 25 24  2  0  0  0  0
 26 27  1  0  0  0  0
 27 28  1  6  0  0  0
 29 27  1  6  0  0  0
 29 31  1  0  0  0  0
 29 30  1  0  0  0  0
 31 30  1  0  0  0  0
M  END
>  <MODEL>
7

>  <REMARK>
 VINA RESULT:      -6.2      3.052      7.383
  Name = 
  10 active torsions:
  status: ('A' for Active; 'I' for Inactive)
    1  A    between atoms: C_1  and  C_6
    2  A    between atoms: C_3  and  C_19
    3  A    between atoms: C_3  and  C_23
    4  A    between atoms: C_4  and  C_12
    5  A    between atoms: C_6  and  C_19
    6  A    between atoms: N_9  and  C_15
    7  A    between atoms: N_9  and  C_23
    8  A    between atoms: C_12  and  S_20
    9  A    between atoms: C_12  and  N_27
   10  A    between atoms: C_15  and  S_20
                            x       y       z     vdW  Elec       q    Type
                         _______ _______ _______ _____ _____    ______ ____

>  <TORSDO>
F 10

$$$$
=
 OpenBabel11052417443D

 31 34  0  0  1  0  0  0  0  0999 V2000
  189.2180  176.2590  144.3360 C   0  0  1  0  0  3  0  0  0  0  0  0
  187.9970  176.8620  143.6140 C   0  0  1  0  0  3  0  0  0  0  0  0
  187.0790  177.5890  144.6110 C   0  0  2  0  0  3  0  0  0  0  0  0
  185.2330  176.8030  146.1940 C   0  0  0  0  0  3  0  0  0  0  0  0
  186.2640  176.5640  145.3630 C   0  0  0  0  0  3  0  0  0  0  0  0
  186.3110  178.8920  142.4500 C   0  0  0  0  0  2  0  0  0  0  0  0
  184.5790  178.1280  146.5070 C   0  0  0  0  0  2  0  0  0  0  0  0
  188.3920  177.7150  142.5660 O   0  0  0  0  0  0  0  0  0  0  0  0
  185.4070  179.3570  146.1570 C   0  0  0  0  0  2  0  0  0  0  0  0
  187.2460  177.8880  141.7810 C   0  0  0  0  0  2  0  0  0  0  0  0
  186.2280  178.6500  143.9340 C   0  0  0  0  0  0  0  0  0  0  0  0
  185.4970  179.4940  144.6690 C   0  0  0  0  0  3  0  0  0  0  0  0
  191.1660  176.4310  147.2500 N   0  0  0  0  0  0  0  0  0  0  0  0
  190.3390  175.2790  147.5520 C   0  0  0  0  0  2  0  0  0  0  0  0
  191.1940  177.2560  148.4440 C   0  0  0  0  0  1  0  0  0  0  0  0
  190.4480  177.1850  146.2300 C   0  0  0  0  0  2  0  0  0  0  0  0
  189.2670  176.4330  145.7960 N   0  0  0  0  0  0  0  0  0  0  0  0
  189.3910  175.1200  146.3970 C   0  0  0  0  0  2  0  0  0  0  0  0
  189.7010  174.5760  143.7940 S   0  0  0  0  0  0  0  0  0  0  0  0
  191.0500  175.1080  142.6730 C   0  0  0  0  0  2  0  0  0  0  0  0
  192.6740  176.3170  143.7320 O   0  0  0  0  0  1  0  0  0  0  0  0
  192.3690  175.0670  143.3070 N   0  0  0  0  0  0  0  0  0  0  0  0
  192.3240  174.2020  144.4810 C   0  0  0  0  0  2  0  0  0  0  0  0
  193.6300  174.2410  145.2060 C   0  0  0  0  0  0  0  0  0  0  0  0
  193.6830  174.6860  146.3410 O   0  0  0  0  0  0  0  0  0  0  0  0
  194.8570  173.6650  144.5600 C   0  0  0  0  0  2  0  0  0  0  0  0
  195.7980  172.9530  145.5370 C   0  0  2  0  0  3  0  0  0  0  0  0
  197.0720  173.7460  145.7800 C   0  0  0  0  0  1  0  0  0  0  0  0
  196.1140  171.5350  145.0890 C   0  0  2  0  0  3  0  0  0  0  0  0
  195.4600  170.5640  145.9910 C   0  0  0  0  0  2  0  0  0  0  0  0
  196.8270  170.8760  146.1070 O   0  0  0  0  0  0  0  0  0  0  0  0
  1 19  1  1  0  0  0
  1 17  1  0  0  0  0
  2  1  1  1  0  0  0
  2  3  1  0  0  0  0
  3  5  1  6  0  0  0
  4  7  1  0  0  0  0
  5  4  2  0  0  0  0
  6 11  1  0  0  0  0
  8  2  1  0  0  0  0
  9  7  1  0  0  0  0
 10  6  1  0  0  0  0
 10  8  1  0  0  0  0
 11  3  1  0  0  0  0
 11 12  2  0  0  0  0
 12  9  1  0  0  0  0
 13 14  1  0  0  0  0
 13 15  1  0  0  0  0
 16 13  1  0  0  0  0
 17 16  1  0  0  0  0
 17 18  1  0  0  0  0
 18 14  1  0  0  0  0
 20 22  1  0  0  0  0
 20 19  1  0  0  0  0
 22 21  1  0  0  0  0
 22 23  1  0  0  0  0
 23 24  1  0  0  0  0
 24 25  2  0  0  0  0
 26 24  1  0  0  0  0
 26 27  1  0  0  0  0
 27 28  1  6  0  0  0
 29 27  1  1  0  0  0
 29 30  1  0  0  0  0
 29 31  1  0  0  0  0
 30 31  1  0  0  0  0
M  END
>  <MODEL>
8

>  <REMARK>
 VINA RESULT:      -6.1      1.790      3.040
  Name = 
  10 active torsions:
  status: ('A' for Active; 'I' for Inactive)
    1  A    between atoms: C_1  and  C_6
    2  A    between atoms: C_3  and  C_19
    3  A    between atoms: C_3  and  C_23
    4  A    between atoms: C_4  and  C_12
    5  A    between atoms: C_6  and  C_19
    6  A    between atoms: N_9  and  C_15
    7  A    between atoms: N_9  and  C_23
    8  A    between atoms: C_12  and  S_20
    9  A    between atoms: C_12  and  N_27
   10  A    between atoms: C_15  and  S_20
                            x       y       z     vdW  Elec       q    Type
                         _______ _______ _______ _____ _____    ______ ____

>  <TORSDO>
F 10

$$$$
=
 OpenBabel11052417443D

 31 34  0  0  1  0  0  0  0  0999 V2000
  192.1790  175.4920  144.9110 C   0  0  1  0  0  3  0  0  0  0  0  0
  191.3830  176.3540  143.9120 C   0  0  1  0  0  3  0  0  0  0  0  0
  190.2580  175.5320  143.2610 C   0  0  2  0  0  3  0  0  0  0  0  0
  190.1840  173.9110  141.2860 C   0  0  0  0  0  3  0  0  0  0  0  0
  190.8540  174.6490  142.1910 C   0  0  0  0  0  3  0  0  0  0  0  0
  189.1850  177.9110  142.8820 C   0  0  0  0  0  2  0  0  0  0  0  0
  188.6920  173.8550  141.0540 C   0  0  0  0  0  2  0  0  0  0  0  0
  190.8790  177.5150  144.5270 O   0  0  0  0  0  0  0  0  0  0  0  0
  187.8380  174.3770  142.2010 C   0  0  0  0  0  2  0  0  0  0  0  0
  190.5190  178.3630  143.4720 C   0  0  0  0  0  2  0  0  0  0  0  0
  189.1310  176.4130  142.7510 C   0  0  0  0  0  0  0  0  0  0  0  0
  187.9950  175.8620  142.3090 C   0  0  0  0  0  3  0  0  0  0  0  0
  195.5970  175.0830  145.5970 N   0  0  0  0  0  0  0  0  0  0  0  0
  195.6620  175.9410  144.4290 C   0  0  0  0  0  2  0  0  0  0  0  0
  196.5850  174.0370  145.4080 C   0  0  0  0  0  1  0  0  0  0  0  0
  194.2870  174.4440  145.5540 C   0  0  0  0  0  2  0  0  0  0  0  0
  193.4940  175.0100  144.4590 N   0  0  0  0  0  0  0  0  0  0  0  0
  194.2440  176.1520  143.9770 C   0  0  0  0  0  2  0  0  0  0  0  0
  192.1900  176.1000  146.6410 S   0  0  0  0  0  0  0  0  0  0  0  0
  190.9370  174.9220  147.2750 C   0  0  0  0  0  2  0  0  0  0  0  0
  189.5010  173.5970  146.0910 O   0  0  0  0  0  1  0  0  0  0  0  0
  189.7250  174.8830  146.4550 N   0  0  0  0  0  0  0  0  0  0  0  0
  188.5810  175.3230  147.2450 C   0  0  0  0  0  2  0  0  0  0  0  0
  188.1130  176.6630  146.7810 C   0  0  0  0  0  0  0  0  0  0  0  0
  188.6730  177.6740  147.1730 O   0  0  0  0  0  0  0  0  0  0  0  0
  187.0010  176.7550  145.7760 C   0  0  0  0  0  2  0  0  0  0  0  0
  186.2870  178.1110  145.7620 C   0  0  2  0  0  3  0  0  0  0  0  0
  185.5430  178.3760  147.0600 C   0  0  0  0  0  1  0  0  0  0  0  0
  185.3610  178.2520  144.5640 C   0  0  2  0  0  3  0  0  0  0  0  0
  185.5750  179.5630  143.9140 C   0  0  0  0  0  2  0  0  0  0  0  0
  184.4880  179.3350  144.7780 O   0  0  0  0  0  0  0  0  0  0  0  0
  1 19  1  1  0  0  0
  2  8  1  0  0  0  0
  2  1  1  1  0  0  0
  3  5  1  6  0  0  0
  3  2  1  0  0  0  0
  4  5  2  0  0  0  0
  6 10  1  0  0  0  0
  7  4  1  0  0  0  0
  7  9  1  0  0  0  0
  9 12  1  0  0  0  0
 10  8  1  0  0  0  0
 11  6  1  0  0  0  0
 11  3  1  0  0  0  0
 12 11  2  0  0  0  0
 14 13  1  0  0  0  0
 15 13  1  0  0  0  0
 16 13  1  0  0  0  0
 17  1  1  0  0  0  0
 17 16  1  0  0  0  0
 18 14  1  0  0  0  0
 18 17  1  0  0  0  0
 19 20  1  0  0  0  0
 21 22  1  0  0  0  0
 22 23  1  0  0  0  0
 22 20  1  0  0  0  0
 24 25  2  0  0  0  0
 24 23  1  0  0  0  0
 26 24  1  0  0  0  0
 27 26  1  0  0  0  0
 27 28  1  1  0  0  0
 29 31  1  0  0  0  0
 29 27  1  1  0  0  0
 30 29  1  0  0  0  0
 30 31  1  0  0  0  0
M  END
>  <MODEL>
9

>  <REMARK>
 VINA RESULT:      -6.1      2.360      6.310
  Name = 
  10 active torsions:
  status: ('A' for Active; 'I' for Inactive)
    1  A    between atoms: C_1  and  C_6
    2  A    between atoms: C_3  and  C_19
    3  A    between atoms: C_3  and  C_23
    4  A    between atoms: C_4  and  C_12
    5  A    between atoms: C_6  and  C_19
    6  A    between atoms: N_9  and  C_15
    7  A    between atoms: N_9  and  C_23
    8  A    between atoms: C_12  and  S_20
    9  A    between atoms: C_12  and  N_27
   10  A    between atoms: C_15  and  S_20
                            x       y       z     vdW  Elec       q    Type
                         _______ _______ _______ _____ _____    ______ ____

>  <TORSDO>
F 10

$$$$
