=
 OpenBabel11052421413D

 32 32  0  0  1  0  0  0  0  0999 V2000
  188.1700  176.9000  142.9670 C   0  0  2  0  0  3  0  0  0  0  0  0
  187.0440  177.9120  142.7300 C   0  0  1  0  0  3  0  0  0  0  0  0
  186.0020  177.3360  141.9970 O   0  0  0  0  0  0  0  0  0  0  0  0
  185.8700  178.1400  140.8640 C   0  0  0  0  0  2  0  0  0  0  0  0
  186.4920  177.4380  139.6750 C   0  0  0  0  0  1  0  0  0  0  0  0
  186.5360  178.3890  144.0090 N   0  0  0  0  0  2  0  0  0  0  0  0
  185.2130  177.8140  144.1970 C   0  0  0  0  0  2  0  0  0  0  0  0
  186.0990  177.9670  146.5080 C   0  0  1  0  0  3  0  0  0  0  0  0
  185.0710  178.7890  147.1230 N   0  0  0  0  0  2  0  0  0  0  0  0
  184.0710  178.2270  146.3020 N   0  0  0  0  0  2  0  0  0  0  0  0
  186.5900  176.9370  147.5060 C   0  0  0  0  0  1  0  0  0  0  0  0
  185.0370  177.3670  145.6420 C   0  0  1  0  0  3  0  0  0  0  0  0
  187.8240  175.4640  142.5370 C   0  0  0  0  0  2  0  0  0  0  0  0
  188.5620  175.0610  141.3500 N   0  0  0  0  0  2  0  0  0  0  0  0
  189.3600  173.9090  141.7260 C   0  0  0  0  0  2  0  0  0  0  0  0
  188.5880  173.0420  142.4970 O   0  0  0  0  0  0  0  0  0  0  0  0
  189.4400  171.9760  142.7840 C   0  0  0  0  0  1  0  0  0  0  0  0
  188.7980  177.0470  144.2960 N   0  0  0  0  0  0  0  0  0  0  0  0
  190.0210  177.8530  144.2100 C   0  0  0  0  0  2  0  0  0  0  0  0
  190.7310  177.7370  142.8630 C   0  0  0  0  0  1  0  0  0  0  0  0
  189.0400  175.7740  144.9790 C   0  0  0  0  0  2  0  0  0  0  0  0
  189.9490  175.9750  146.1850 C   0  0  0  0  0  2  0  0  0  0  0  0
  191.1620  175.0590  146.1220 C   0  0  0  0  0  2  0  0  0  0  0  0
  192.3100  175.6390  146.9300 C   0  0  0  0  0  2  0  0  0  0  0  0
  193.4370  176.0270  146.0310 C   0  0  0  0  0  0  0  0  0  0  0  0
  193.2310  176.7330  145.0560 O   0  0  0  0  0  0  0  0  0  0  0  0
  194.8200  175.5470  146.3250 C   0  0  0  0  0  2  0  0  0  0  0  0
  195.3270  174.6960  145.2030 C   0  0  0  0  0  0  0  0  0  0  0  0
  196.4780  174.9120  144.7440 O   0  0  0  0  0  0  0  0  0  0  0  0
  194.5670  173.6520  144.6720 O   0  0  0  0  0  0  0  0  0  0  0  0
  194.1920  172.5180  145.4390 C   0  0  0  0  0  2  0  0  0  0  0  0
  193.2770  171.3540  144.3920 S   0  0  0  0  0  1  0  0  0  0  0  0
  1 13  1  1  0  0  0
  1 18  1  0  0  0  0
  2  3  1  1  0  0  0
  2  1  1  0  0  0  0
  2  6  1  0  0  0  0
  4  3  1  0  0  0  0
  5  4  1  0  0  0  0
  6  7  1  0  0  0  0
  8  9  1  0  0  0  0
  8 11  1  1  0  0  0
 10  9  1  0  0  0  0
 12  7  1  6  0  0  0
 12 10  1  0  0  0  0
 12  8  1  0  0  0  0
 14 15  1  0  0  0  0
 14 13  1  0  0  0  0
 15 16  1  0  0  0  0
 16 17  1  0  0  0  0
 18 21  1  0  0  0  0
 19 18  1  0  0  0  0
 20 19  1  0  0  0  0
 21 22  1  0  0  0  0
 23 22  1  0  0  0  0
 23 24  1  0  0  0  0
 25 27  1  0  0  0  0
 25 24  1  0  0  0  0
 26 25  2  0  0  0  0
 28 27  1  0  0  0  0
 29 28  2  0  0  0  0
 30 28  1  0  0  0  0
 30 31  1  0  0  0  0
 32 31  1  0  0  0  0
M  END
>  <MODEL>
1

>  <REMARK>
 VINA RESULT:      -4.8      0.000      0.000
  Name = 
  21 active torsions:
  status: ('A' for Active; 'I' for Inactive)
    1  A    between atoms: C_1  and  O_20
    2  A    between atoms: C_2  and  C_9
    3  A    between atoms: C_2  and  C_23
    4  A    between atoms: C_3  and  N_14
    5  A    between atoms: C_4  and  O_5
    6  A    between atoms: C_4  and  N_13
    7  A    between atoms: C_6  and  O_31
    8  A    between atoms: C_7  and  N_27
    9  A    between atoms: C_7  and  C_32
   10  A    between atoms: C_8  and  C_23
   11  A    between atoms: C_8  and  C_28
   12  A    between atoms: C_9  and  C_10
   13  A    between atoms: C_10  and  C_19
   14  A    between atoms: N_13  and  C_15
   15  A    between atoms: N_14  and  C_26
   16  A    between atoms: N_14  and  C_28
   17  A    between atoms: C_15  and  C_26
   18  A    between atoms: C_16  and  C_26
   19  A    between atoms: C_16  and  N_27
   20  A    between atoms: C_16  and  O_31
   21  A    between atoms: C_19  and  O_20
                            x       y       z     vdW  Elec       q    Type
                         _______ _______ _______ _____ _____    ______ ____

>  <TORSDO>
F 21

$$$$
=
 OpenBabel11052421413D

 32 32  0  0  1  0  0  0  0  0999 V2000
  189.1880  176.4480  144.2380 C   0  0  2  0  0  3  0  0  0  0  0  0
  188.1360  176.8260  145.2860 C   0  0  1  0  0  3  0  0  0  0  0  0
  188.6760  176.7820  146.5750 O   0  0  0  0  0  0  0  0  0  0  0  0
  188.0770  175.6770  147.1810 C   0  0  0  0  0  2  0  0  0  0  0  0
  189.1130  174.5930  147.3880 C   0  0  0  0  0  1  0  0  0  0  0  0
  187.6310  178.1630  145.0140 N   0  0  0  0  0  2  0  0  0  0  0  0
  186.7080  178.0640  143.8930 C   0  0  0  0  0  2  0  0  0  0  0  0
  184.7680  178.8810  145.2020 C   0  0  1  0  0  3  0  0  0  0  0  0
  183.8230  179.1370  144.1270 N   0  0  0  0  0  2  0  0  0  0  0  0
  184.3360  178.0670  143.3640 N   0  0  0  0  0  2  0  0  0  0  0  0
  184.0270  178.3470  146.4120 C   0  0  0  0  0  1  0  0  0  0  0  0
  185.3070  177.7420  144.3950 C   0  0  1  0  0  3  0  0  0  0  0  0
  189.0630  175.0050  143.7170 C   0  0  0  0  0  2  0  0  0  0  0  0
  188.1380  174.9110  142.5990 N   0  0  0  0  0  2  0  0  0  0  0  0
  188.5490  175.9120  141.6320 C   0  0  0  0  0  2  0  0  0  0  0  0
  187.7610  175.8030  140.4880 O   0  0  0  0  0  0  0  0  0  0  0  0
  187.0630  177.0080  140.4270 C   0  0  0  0  0  1  0  0  0  0  0  0
  190.5470  176.8890  144.6090 N   0  0  0  0  0  0  0  0  0  0  0  0
  190.9930  177.9910  143.7480 C   0  0  0  0  0  2  0  0  0  0  0  0
  192.0100  177.5610  142.6930 C   0  0  0  0  0  1  0  0  0  0  0  0
  191.5310  175.8060  144.6480 C   0  0  0  0  0  2  0  0  0  0  0  0
  192.2940  175.8180  145.9680 C   0  0  0  0  0  2  0  0  0  0  0  0
  193.6570  176.4740  145.8110 C   0  0  0  0  0  2  0  0  0  0  0  0
  194.7640  175.4960  146.1680 C   0  0  0  0  0  2  0  0  0  0  0  0
  195.2270  174.7670  144.9510 C   0  0  0  0  0  0  0  0  0  0  0  0
  194.5400  173.8830  144.4640 O   0  0  0  0  0  0  0  0  0  0  0  0
  196.5380  175.1200  144.3290 C   0  0  0  0  0  2  0  0  0  0  0  0
  196.3740  176.2660  143.3800 C   0  0  0  0  0  0  0  0  0  0  0  0
  197.2880  177.1270  143.2980 O   0  0  0  0  0  0  0  0  0  0  0  0
  195.2470  176.3900  142.5670 O   0  0  0  0  0  0  0  0  0  0  0  0
  195.2690  176.0700  141.1830 C   0  0  0  0  0  2  0  0  0  0  0  0
  193.9280  174.9080  140.8090 S   0  0  0  0  0  1  0  0  0  0  0  0
  1 13  1  1  0  0  0
  1 18  1  0  0  0  0
  1  2  1  0  0  0  0
  2  6  1  6  0  0  0
  2  3  1  0  0  0  0
  3  4  1  0  0  0  0
  4  5  1  0  0  0  0
  7  6  1  0  0  0  0
  8 11  1  1  0  0  0
  9  8  1  0  0  0  0
 10  9  1  0  0  0  0
 10 12  1  0  0  0  0
 12  7  1  6  0  0  0
 12  8  1  0  0  0  0
 14 13  1  0  0  0  0
 15 14  1  0  0  0  0
 16 15  1  0  0  0  0
 17 16  1  0  0  0  0
 18 21  1  0  0  0  0
 19 18  1  0  0  0  0
 20 19  1  0  0  0  0
 21 22  1  0  0  0  0
 23 22  1  0  0  0  0
 23 24  1  0  0  0  0
 25 24  1  0  0  0  0
 26 25  2  0  0  0  0
 27 25  1  0  0  0  0
 28 27  1  0  0  0  0
 29 28  2  0  0  0  0
 30 28  1  0  0  0  0
 31 30  1  0  0  0  0
 32 31  1  0  0  0  0
M  END
>  <MODEL>
2

>  <REMARK>
 VINA RESULT:      -4.7      2.147      3.556
  Name = 
  21 active torsions:
  status: ('A' for Active; 'I' for Inactive)
    1  A    between atoms: C_1  and  O_20
    2  A    between atoms: C_2  and  C_9
    3  A    between atoms: C_2  and  C_23
    4  A    between atoms: C_3  and  N_14
    5  A    between atoms: C_4  and  O_5
    6  A    between atoms: C_4  and  N_13
    7  A    between atoms: C_6  and  O_31
    8  A    between atoms: C_7  and  N_27
    9  A    between atoms: C_7  and  C_32
   10  A    between atoms: C_8  and  C_23
   11  A    between atoms: C_8  and  C_28
   12  A    between atoms: C_9  and  C_10
   13  A    between atoms: C_10  and  C_19
   14  A    between atoms: N_13  and  C_15
   15  A    between atoms: N_14  and  C_26
   16  A    between atoms: N_14  and  C_28
   17  A    between atoms: C_15  and  C_26
   18  A    between atoms: C_16  and  C_26
   19  A    between atoms: C_16  and  N_27
   20  A    between atoms: C_16  and  O_31
   21  A    between atoms: C_19  and  O_20
                            x       y       z     vdW  Elec       q    Type
                         _______ _______ _______ _____ _____    ______ ____

>  <TORSDO>
F 21

$$$$
=
 OpenBabel11052421413D

 32 32  0  0  1  0  0  0  0  0999 V2000
  190.8570  174.2800  145.5230 C   0  0  2  0  0  3  0  0  0  0  0  0
  192.0980  174.5950  144.6810 C   0  0  1  0  0  3  0  0  0  0  0  0
  191.9680  175.8330  144.0440 O   0  0  0  0  0  0  0  0  0  0  0  0
  193.2750  176.2310  143.7580 C   0  0  0  0  0  2  0  0  0  0  0  0
  193.5100  176.1490  142.2650 C   0  0  0  0  0  1  0  0  0  0  0  0
  193.2780  174.6050  145.5320 N   0  0  0  0  0  2  0  0  0  0  0  0
  193.8000  173.2470  145.5740 C   0  0  0  0  0  2  0  0  0  0  0  0
  196.0200  174.3440  145.4570 C   0  0  1  0  0  3  0  0  0  0  0  0
  196.8200  173.3830  146.1980 N   0  0  0  0  0  2  0  0  0  0  0  0
  196.0350  172.3070  145.7330 N   0  0  0  0  0  2  0  0  0  0  0  0
  196.8420  174.9170  144.3190 C   0  0  0  0  0  1  0  0  0  0  0  0
  195.1920  173.2020  144.9590 C   0  0  1  0  0  3  0  0  0  0  0  0
  189.9390  173.2070  144.9110 C   0  0  0  0  0  2  0  0  0  0  0  0
  190.3320  172.8700  143.5520 N   0  0  0  0  0  2  0  0  0  0  0  0
  189.2290  173.2550  142.6910 C   0  0  0  0  0  2  0  0  0  0  0  0
  189.5770  174.3990  141.9750 O   0  0  0  0  0  0  0  0  0  0  0  0
  190.6670  174.0070  141.1980 C   0  0  0  0  0  1  0  0  0  0  0  0
  190.1870  175.4960  146.0290 N   0  0  0  0  0  0  0  0  0  0  0  0
  190.2850  175.5770  147.4910 C   0  0  0  0  0  2  0  0  0  0  0  0
  191.3450  176.5640  147.9740 C   0  0  0  0  0  1  0  0  0  0  0  0
  188.8030  175.6410  145.5740 C   0  0  0  0  0  2  0  0  0  0  0  0
  188.2550  177.0140  145.9450 C   0  0  0  0  0  2  0  0  0  0  0  0
  186.8650  176.9080  146.5530 C   0  0  0  0  0  2  0  0  0  0  0  0
  186.3710  178.2760  146.9930 C   0  0  0  0  0  2  0  0  0  0  0  0
  185.3020  178.7640  146.0710 C   0  0  0  0  0  0  0  0  0  0  0  0
  184.1250  178.5770  146.3400 O   0  0  0  0  0  0  0  0  0  0  0  0
  185.6750  179.4820  144.8170 C   0  0  0  0  0  2  0  0  0  0  0  0
  185.6060  178.5550  143.6440 C   0  0  0  0  0  0  0  0  0  0  0  0
  184.9510  177.4860  143.7480 O   0  0  0  0  0  0  0  0  0  0  0  0
  186.2260  178.8590  142.4310 O   0  0  0  0  0  0  0  0  0  0  0  0
  185.8960  178.1930  141.2200 C   0  0  0  0  0  2  0  0  0  0  0  0
  187.2100  177.0180  140.7970 S   0  0  0  0  0  1  0  0  0  0  0  0
  1 13  1  6  0  0  0
  1 18  1  0  0  0  0
  2  3  1  1  0  0  0
  2  1  1  0  0  0  0
  2  6  1  0  0  0  0
  4  3  1  0  0  0  0
  5  4  1  0  0  0  0
  6  7  1  0  0  0  0
  8 11  1  6  0  0  0
  8  9  1  0  0  0  0
 10  9  1  0  0  0  0
 12  8  1  0  0  0  0
 12  7  1  1  0  0  0
 12 10  1  0  0  0  0
 14 13  1  0  0  0  0
 15 14  1  0  0  0  0
 16 15  1  0  0  0  0
 17 16  1  0  0  0  0
 18 19  1  0  0  0  0
 19 20  1  0  0  0  0
 21 22  1  0  0  0  0
 21 18  1  0  0  0  0
 22 23  1  0  0  0  0
 23 24  1  0  0  0  0
 25 26  2  0  0  0  0
 25 24  1  0  0  0  0
 27 25  1  0  0  0  0
 28 29  2  0  0  0  0
 28 27  1  0  0  0  0
 30 28  1  0  0  0  0
 31 30  1  0  0  0  0
 32 31  1  0  0  0  0
M  END
>  <MODEL>
3

>  <REMARK>
 VINA RESULT:      -4.6      3.431      8.031
  Name = 
  21 active torsions:
  status: ('A' for Active; 'I' for Inactive)
    1  A    between atoms: C_1  and  O_20
    2  A    between atoms: C_2  and  C_9
    3  A    between atoms: C_2  and  C_23
    4  A    between atoms: C_3  and  N_14
    5  A    between atoms: C_4  and  O_5
    6  A    between atoms: C_4  and  N_13
    7  A    between atoms: C_6  and  O_31
    8  A    between atoms: C_7  and  N_27
    9  A    between atoms: C_7  and  C_32
   10  A    between atoms: C_8  and  C_23
   11  A    between atoms: C_8  and  C_28
   12  A    between atoms: C_9  and  C_10
   13  A    between atoms: C_10  and  C_19
   14  A    between atoms: N_13  and  C_15
   15  A    between atoms: N_14  and  C_26
   16  A    between atoms: N_14  and  C_28
   17  A    between atoms: C_15  and  C_26
   18  A    between atoms: C_16  and  C_26
   19  A    between atoms: C_16  and  N_27
   20  A    between atoms: C_16  and  O_31
   21  A    between atoms: C_19  and  O_20
                            x       y       z     vdW  Elec       q    Type
                         _______ _______ _______ _____ _____    ______ ____

>  <TORSDO>
F 21

$$$$
=
 OpenBabel11052421413D

 32 32  0  0  1  0  0  0  0  0999 V2000
  191.3410  175.0760  143.5770 C   0  0  2  0  0  3  0  0  0  0  0  0
  192.3680  175.8010  144.4530 C   0  0  1  0  0  3  0  0  0  0  0  0
  192.9100  174.9360  145.4070 O   0  0  0  0  0  0  0  0  0  0  0  0
  191.9650  174.8910  146.4330 C   0  0  0  0  0  2  0  0  0  0  0  0
  191.9580  176.2140  147.1680 C   0  0  0  0  0  1  0  0  0  0  0  0
  193.4340  176.3370  143.6180 N   0  0  0  0  0  2  0  0  0  0  0  0
  194.6410  176.3900  144.4280 C   0  0  0  0  0  2  0  0  0  0  0  0
  195.4730  175.6860  142.2010 C   0  0  1  0  0  3  0  0  0  0  0  0
  196.4110  176.7620  141.9260 N   0  0  0  0  0  2  0  0  0  0  0  0
  196.7310  176.8900  143.2940 N   0  0  0  0  0  2  0  0  0  0  0  0
  196.0250  174.3820  141.6590 C   0  0  0  0  0  1  0  0  0  0  0  0
  195.8180  175.8180  143.6510 C   0  0  1  0  0  3  0  0  0  0  0  0
  191.8700  174.6840  142.1860 C   0  0  0  0  0  2  0  0  0  0  0  0
  192.4030  173.3310  142.1710 N   0  0  0  0  0  2  0  0  0  0  0  0
  191.2900  172.4460  141.8800 C   0  0  0  0  0  2  0  0  0  0  0  0
  191.1890  172.2670  140.5010 O   0  0  0  0  0  0  0  0  0  0  0  0
  189.8250  172.0880  140.2710 C   0  0  0  0  0  1  0  0  0  0  0  0
  190.0110  175.7160  143.6090 N   0  0  0  0  0  0  0  0  0  0  0  0
  189.3520  175.6220  142.3010 C   0  0  0  0  0  2  0  0  0  0  0  0
  188.1180  174.7230  142.3080 C   0  0  0  0  0  1  0  0  0  0  0  0
  190.0300  177.0950  144.1020 C   0  0  0  0  0  2  0  0  0  0  0  0
  188.6720  177.4820  144.6750 C   0  0  0  0  0  2  0  0  0  0  0  0
  188.1680  176.4350  145.6560 C   0  0  0  0  0  2  0  0  0  0  0  0
  187.4990  177.1000  146.8480 C   0  0  0  0  0  2  0  0  0  0  0  0
  186.0920  177.4720  146.5150 C   0  0  0  0  0  0  0  0  0  0  0  0
  185.2760  176.6080  146.2370 O   0  0  0  0  0  0  0  0  0  0  0  0
  185.6840  178.9080  146.5200 C   0  0  0  0  0  2  0  0  0  0  0  0
  184.6160  179.1530  145.5000 C   0  0  0  0  0  0  0  0  0  0  0  0
  183.4300  178.8320  145.7680 O   0  0  0  0  0  0  0  0  0  0  0  0
  184.8990  179.7500  144.2710 O   0  0  0  0  0  0  0  0  0  0  0  0
  185.8260  179.1940  143.3500 C   0  0  0  0  0  2  0  0  0  0  0  0
  185.2100  177.5930  142.7630 S   0  0  0  0  0  1  0  0  0  0  0  0
  1 13  1  6  0  0  0
  1 18  1  0  0  0  0
  1  2  1  0  0  0  0
  2  6  1  6  0  0  0
  2  3  1  0  0  0  0
  3  4  1  0  0  0  0
  4  5  1  0  0  0  0
  6  7  1  0  0  0  0
  8 11  1  6  0  0  0
  8 12  1  0  0  0  0
  9  8  1  0  0  0  0
  9 10  1  0  0  0  0
 10 12  1  0  0  0  0
 12  7  1  1  0  0  0
 14 13  1  0  0  0  0
 15 14  1  0  0  0  0
 16 15  1  0  0  0  0
 17 16  1  0  0  0  0
 18 21  1  0  0  0  0
 19 20  1  0  0  0  0
 19 18  1  0  0  0  0
 21 22  1  0  0  0  0
 22 23  1  0  0  0  0
 23 24  1  0  0  0  0
 25 27  1  0  0  0  0
 25 24  1  0  0  0  0
 26 25  2  0  0  0  0
 28 29  2  0  0  0  0
 28 27  1  0  0  0  0
 30 28  1  0  0  0  0
 31 30  1  0  0  0  0
 32 31  1  0  0  0  0
M  END
>  <MODEL>
4

>  <REMARK>
 VINA RESULT:      -4.6      3.641      8.190
  Name = 
  21 active torsions:
  status: ('A' for Active; 'I' for Inactive)
    1  A    between atoms: C_1  and  O_20
    2  A    between atoms: C_2  and  C_9
    3  A    between atoms: C_2  and  C_23
    4  A    between atoms: C_3  and  N_14
    5  A    between atoms: C_4  and  O_5
    6  A    between atoms: C_4  and  N_13
    7  A    between atoms: C_6  and  O_31
    8  A    between atoms: C_7  and  N_27
    9  A    between atoms: C_7  and  C_32
   10  A    between atoms: C_8  and  C_23
   11  A    between atoms: C_8  and  C_28
   12  A    between atoms: C_9  and  C_10
   13  A    between atoms: C_10  and  C_19
   14  A    between atoms: N_13  and  C_15
   15  A    between atoms: N_14  and  C_26
   16  A    between atoms: N_14  and  C_28
   17  A    between atoms: C_15  and  C_26
   18  A    between atoms: C_16  and  C_26
   19  A    between atoms: C_16  and  N_27
   20  A    between atoms: C_16  and  O_31
   21  A    between atoms: C_19  and  O_20
                            x       y       z     vdW  Elec       q    Type
                         _______ _______ _______ _____ _____    ______ ____

>  <TORSDO>
F 21

$$$$
=
 OpenBabel11052421413D

 32 32  0  0  1  0  0  0  0  0999 V2000
  189.4680  176.3720  143.9510 C   0  0  2  0  0  3  0  0  0  0  0  0
  188.1460  177.0990  143.6840 C   0  0  1  0  0  3  0  0  0  0  0  0
  187.8010  177.0260  142.3310 O   0  0  0  0  0  0  0  0  0  0  0  0
  187.2840  178.2850  142.0210 C   0  0  0  0  0  2  0  0  0  0  0  0
  186.0770  178.1250  141.1210 C   0  0  0  0  0  1  0  0  0  0  0  0
  187.0890  176.5080  144.4900 N   0  0  0  0  0  2  0  0  0  0  0  0
  186.9770  177.2920  145.7100 C   0  0  0  0  0  2  0  0  0  0  0  0
  184.6900  178.0940  145.1870 C   0  0  1  0  0  3  0  0  0  0  0  0
  184.3130  178.6500  146.4760 N   0  0  0  0  0  2  0  0  0  0  0  0
  185.6420  179.0390  146.7450 N   0  0  0  0  0  2  0  0  0  0  0  0
  184.1150  178.9500  144.0760 C   0  0  0  0  0  1  0  0  0  0  0  0
  186.0990  178.5120  145.4710 C   0  0  1  0  0  3  0  0  0  0  0  0
  189.3310  174.8440  144.0640 C   0  0  0  0  0  2  0  0  0  0  0  0
  189.7680  174.1700  142.8510 N   0  0  0  0  0  2  0  0  0  0  0  0
  188.6400  173.3910  142.3770 C   0  0  0  0  0  2  0  0  0  0  0  0
  189.0880  172.4260  141.4770 O   0  0  0  0  0  0  0  0  0  0  0  0
  190.3710  172.1040  141.9180 C   0  0  0  0  0  1  0  0  0  0  0  0
  190.2800  177.0300  144.9950 N   0  0  0  0  0  0  0  0  0  0  0  0
  191.5000  177.6100  144.4210 C   0  0  0  0  0  2  0  0  0  0  0  0
  191.6500  177.3470  142.9240 C   0  0  0  0  0  1  0  0  0  0  0  0
  190.5820  176.1690  146.1400 C   0  0  0  0  0  2  0  0  0  0  0  0
  191.9990  176.4180  146.6430 C   0  0  0  0  0  2  0  0  0  0  0  0
  192.8510  175.1630  146.5360 C   0  0  0  0  0  2  0  0  0  0  0  0
  194.3050  175.5270  146.2830 C   0  0  0  0  0  2  0  0  0  0  0  0
  194.5620  175.6530  144.8180 C   0  0  0  0  0  0  0  0  0  0  0  0
  193.9740  174.9340  144.0250 O   0  0  0  0  0  0  0  0  0  0  0  0
  195.5450  176.6620  144.3220 C   0  0  0  0  0  2  0  0  0  0  0  0
  196.6340  175.9920  143.5440 C   0  0  0  0  0  0  0  0  0  0  0  0
  197.2900  175.0640  144.0850 O   0  0  0  0  0  0  0  0  0  0  0  0
  196.9230  176.3520  142.2260 O   0  0  0  0  0  0  0  0  0  0  0  0
  195.9150  176.7500  141.3080 C   0  0  0  0  0  2  0  0  0  0  0  0
  195.1370  175.2790  140.5880 S   0  0  0  0  0  1  0  0  0  0  0  0
  1 13  1  1  0  0  0
  1 18  1  0  0  0  0
  2  3  1  6  0  0  0
  2  1  1  0  0  0  0
  2  6  1  0  0  0  0
  4  3  1  0  0  0  0
  5  4  1  0  0  0  0
  6  7  1  0  0  0  0
  8 11  1  6  0  0  0
  8 12  1  0  0  0  0
  8  9  1  0  0  0  0
  9 10  1  0  0  0  0
 12  7  1  1  0  0  0
 12 10  1  0  0  0  0
 14 13  1  0  0  0  0
 15 14  1  0  0  0  0
 16 17  1  0  0  0  0
 16 15  1  0  0  0  0
 18 21  1  0  0  0  0
 19 18  1  0  0  0  0
 20 19  1  0  0  0  0
 21 22  1  0  0  0  0
 23 22  1  0  0  0  0
 24 23  1  0  0  0  0
 25 24  1  0  0  0  0
 26 25  2  0  0  0  0
 27 25  1  0  0  0  0
 28 29  2  0  0  0  0
 28 27  1  0  0  0  0
 30 28  1  0  0  0  0
 31 30  1  0  0  0  0
 32 31  1  0  0  0  0
M  END
>  <MODEL>
5

>  <REMARK>
 VINA RESULT:      -4.6      1.885      2.527
  Name = 
  21 active torsions:
  status: ('A' for Active; 'I' for Inactive)
    1  A    between atoms: C_1  and  O_20
    2  A    between atoms: C_2  and  C_9
    3  A    between atoms: C_2  and  C_23
    4  A    between atoms: C_3  and  N_14
    5  A    between atoms: C_4  and  O_5
    6  A    between atoms: C_4  and  N_13
    7  A    between atoms: C_6  and  O_31
    8  A    between atoms: C_7  and  N_27
    9  A    between atoms: C_7  and  C_32
   10  A    between atoms: C_8  and  C_23
   11  A    between atoms: C_8  and  C_28
   12  A    between atoms: C_9  and  C_10
   13  A    between atoms: C_10  and  C_19
   14  A    between atoms: N_13  and  C_15
   15  A    between atoms: N_14  and  C_26
   16  A    between atoms: N_14  and  C_28
   17  A    between atoms: C_15  and  C_26
   18  A    between atoms: C_16  and  C_26
   19  A    between atoms: C_16  and  N_27
   20  A    between atoms: C_16  and  O_31
   21  A    between atoms: C_19  and  O_20
                            x       y       z     vdW  Elec       q    Type
                         _______ _______ _______ _____ _____    ______ ____

>  <TORSDO>
F 21

$$$$
=
 OpenBabel11052421413D

 32 32  0  0  1  0  0  0  0  0999 V2000
  190.5080  175.1480  144.4380 C   0  0  2  0  0  3  0  0  0  0  0  0
  191.1200  176.1410  143.4440 C   0  0  1  0  0  3  0  0  0  0  0  0
  191.6530  177.2490  144.1090 O   0  0  0  0  0  0  0  0  0  0  0  0
  190.8450  178.3220  143.7300 C   0  0  0  0  0  2  0  0  0  0  0  0
  189.8490  177.8570  142.6890 C   0  0  0  0  0  1  0  0  0  0  0  0
  192.1670  175.4830  142.6750 N   0  0  0  0  0  2  0  0  0  0  0  0
  193.3630  176.3050  142.7690 C   0  0  0  0  0  2  0  0  0  0  0  0
  195.7050  175.5400  142.4960 C   0  0  1  0  0  3  0  0  0  0  0  0
  196.3630  176.3670  143.4940 N   0  0  0  0  0  2  0  0  0  0  0  0
  195.2270  176.3380  144.3290 N   0  0  0  0  0  2  0  0  0  0  0  0
  196.3580  174.1720  142.4600 C   0  0  0  0  0  1  0  0  0  0  0  0
  194.5020  175.5040  143.3850 C   0  0  1  0  0  3  0  0  0  0  0  0
  189.5240  174.1510  143.8020 C   0  0  0  0  0  2  0  0  0  0  0  0
  189.8260  172.7780  144.1760 N   0  0  0  0  0  2  0  0  0  0  0  0
  189.4790  171.9500  143.0370 C   0  0  0  0  0  2  0  0  0  0  0  0
  190.2310  172.3420  141.9310 O   0  0  0  0  0  0  0  0  0  0  0  0
  190.4780  171.1580  141.2370 C   0  0  0  0  0  1  0  0  0  0  0  0
  190.0610  175.7950  145.6880 N   0  0  0  0  0  0  0  0  0  0  0  0
  190.7580  175.2290  146.8490 C   0  0  0  0  0  2  0  0  0  0  0  0
  191.1570  176.2760  147.8860 C   0  0  0  0  0  1  0  0  0  0  0  0
  188.6090  175.7810  145.8750 C   0  0  0  0  0  2  0  0  0  0  0  0
  188.0680  177.2000  146.0070 C   0  0  0  0  0  2  0  0  0  0  0  0
  187.2410  177.3600  147.2730 C   0  0  0  0  0  2  0  0  0  0  0  0
  186.2160  178.4690  147.1020 C   0  0  0  0  0  2  0  0  0  0  0  0
  184.9760  177.9380  146.4610 C   0  0  0  0  0  0  0  0  0  0  0  0
  184.7000  176.7520  146.5450 O   0  0  0  0  0  0  0  0  0  0  0  0
  184.0740  178.8630  145.7140 C   0  0  0  0  0  2  0  0  0  0  0  0
  184.5480  179.0290  144.3030 C   0  0  0  0  0  0  0  0  0  0  0  0
  185.2550  180.0270  144.0100 O   0  0  0  0  0  0  0  0  0  0  0  0
  184.2460  178.0920  143.3130 O   0  0  0  0  0  0  0  0  0  0  0  0
  185.1390  177.7960  142.2500 C   0  0  0  0  0  2  0  0  0  0  0  0
  186.2780  176.4810  142.7630 S   0  0  0  0  0  1  0  0  0  0  0  0
  1 13  1  6  0  0  0
  1 18  1  0  0  0  0
  2  6  1  1  0  0  0
  2  3  1  0  0  0  0
  2  1  1  0  0  0  0
  4  3  1  0  0  0  0
  5  4  1  0  0  0  0
  6  7  1  0  0  0  0
  8 11  1  1  0  0  0
  8 12  1  0  0  0  0
  8  9  1  0  0  0  0
  9 10  1  0  0  0  0
 12  7  1  6  0  0  0
 12 10  1  0  0  0  0
 13 14  1  0  0  0  0
 15 14  1  0  0  0  0
 16 15  1  0  0  0  0
 17 16  1  0  0  0  0
 18 21  1  0  0  0  0
 18 19  1  0  0  0  0
 19 20  1  0  0  0  0
 21 22  1  0  0  0  0
 22 23  1  0  0  0  0
 24 23  1  0  0  0  0
 25 26  2  0  0  0  0
 25 24  1  0  0  0  0
 27 25  1  0  0  0  0
 28 27  1  0  0  0  0
 29 28  2  0  0  0  0
 30 28  1  0  0  0  0
 31 32  1  0  0  0  0
 31 30  1  0  0  0  0
M  END
>  <MODEL>
6

>  <REMARK>
 VINA RESULT:      -4.6      3.250      7.704
  Name = 
  21 active torsions:
  status: ('A' for Active; 'I' for Inactive)
    1  A    between atoms: C_1  and  O_20
    2  A    between atoms: C_2  and  C_9
    3  A    between atoms: C_2  and  C_23
    4  A    between atoms: C_3  and  N_14
    5  A    between atoms: C_4  and  O_5
    6  A    between atoms: C_4  and  N_13
    7  A    between atoms: C_6  and  O_31
    8  A    between atoms: C_7  and  N_27
    9  A    between atoms: C_7  and  C_32
   10  A    between atoms: C_8  and  C_23
   11  A    between atoms: C_8  and  C_28
   12  A    between atoms: C_9  and  C_10
   13  A    between atoms: C_10  and  C_19
   14  A    between atoms: N_13  and  C_15
   15  A    between atoms: N_14  and  C_26
   16  A    between atoms: N_14  and  C_28
   17  A    between atoms: C_15  and  C_26
   18  A    between atoms: C_16  and  C_26
   19  A    between atoms: C_16  and  N_27
   20  A    between atoms: C_16  and  O_31
   21  A    between atoms: C_19  and  O_20
                            x       y       z     vdW  Elec       q    Type
                         _______ _______ _______ _____ _____    ______ ____

>  <TORSDO>
F 21

$$$$
=
 OpenBabel11052421413D

 32 32  0  0  1  0  0  0  0  0999 V2000
  191.7680  174.9300  144.5280 C   0  0  2  0  0  3  0  0  0  0  0  0
  192.7980  175.8840  145.1410 C   0  0  1  0  0  3  0  0  0  0  0  0
  192.1810  176.8030  145.9950 O   0  0  0  0  0  0  0  0  0  0  0  0
  192.4380  176.3290  147.2830 C   0  0  0  0  0  2  0  0  0  0  0  0
  191.4300  176.9210  148.2460 C   0  0  0  0  0  1  0  0  0  0  0  0
  193.7930  175.1220  145.8810 N   0  0  0  0  0  2  0  0  0  0  0  0
  195.1050  175.5560  145.4280 C   0  0  0  0  0  2  0  0  0  0  0  0
  195.5060  173.2210  144.6970 C   0  0  1  0  0  3  0  0  0  0  0  0
  196.5080  173.4420  143.6690 N   0  0  0  0  0  2  0  0  0  0  0  0
  197.0440  174.5440  144.3680 N   0  0  0  0  0  2  0  0  0  0  0  0
  195.8160  171.9350  145.4390 C   0  0  0  0  0  1  0  0  0  0  0  0
  196.0790  174.3850  145.4420 C   0  0  1  0  0  3  0  0  0  0  0  0
  191.9880  174.6480  143.0310 C   0  0  0  0  0  2  0  0  0  0  0  0
  192.8330  175.6550  142.4090 N   0  0  0  0  0  2  0  0  0  0  0  0
  193.6530  174.9650  141.4300 C   0  0  0  0  0  2  0  0  0  0  0  0
  194.4130  175.8950  140.7230 O   0  0  0  0  0  0  0  0  0  0  0  0
  195.3550  176.3500  141.6450 C   0  0  0  0  0  1  0  0  0  0  0  0
  190.3840  175.2480  144.9320 N   0  0  0  0  0  0  0  0  0  0  0  0
  189.7750  174.1190  145.6450 C   0  0  0  0  0  2  0  0  0  0  0  0
  189.1180  174.5190  146.9650 C   0  0  0  0  0  1  0  0  0  0  0  0
  189.5370  175.7070  143.8300 C   0  0  0  0  0  2  0  0  0  0  0  0
  189.4790  177.2300  143.7930 C   0  0  0  0  0  2  0  0  0  0  0  0
  188.0440  177.7300  143.8430 C   0  0  0  0  0  2  0  0  0  0  0  0
  187.1490  176.7120  144.5310 C   0  0  0  0  0  2  0  0  0  0  0  0
  186.4270  177.3430  145.6750 C   0  0  0  0  0  0  0  0  0  0  0  0
  186.1470  176.6850  146.6640 O   0  0  0  0  0  0  0  0  0  0  0  0
  186.0440  178.7840  145.6060 C   0  0  0  0  0  2  0  0  0  0  0  0
  184.6670  178.9330  145.0390 C   0  0  0  0  0  0  0  0  0  0  0  0
  183.6750  178.8300  145.8070 O   0  0  0  0  0  0  0  0  0  0  0  0
  184.4550  179.2090  143.6870 O   0  0  0  0  0  0  0  0  0  0  0  0
  184.0030  178.2220  142.7720 C   0  0  0  0  0  2  0  0  0  0  0  0
  185.1400  178.1350  141.3620 S   0  0  0  0  0  1  0  0  0  0  0  0
  1 13  1  6  0  0  0
  1 18  1  0  0  0  0
  1  2  1  0  0  0  0
  2  6  1  1  0  0  0
  2  3  1  0  0  0  0
  3  4  1  0  0  0  0
  4  5  1  0  0  0  0
  7  6  1  0  0  0  0
  8 11  1  1  0  0  0
  8 12  1  0  0  0  0
  9 10  1  0  0  0  0
  9  8  1  0  0  0  0
 10 12  1  0  0  0  0
 12  7  1  6  0  0  0
 14 13  1  0  0  0  0
 15 14  1  0  0  0  0
 16 15  1  0  0  0  0
 16 17  1  0  0  0  0
 18 19  1  0  0  0  0
 19 20  1  0  0  0  0
 21 18  1  0  0  0  0
 22 21  1  0  0  0  0
 22 23  1  0  0  0  0
 23 24  1  0  0  0  0
 24 25  1  0  0  0  0
 25 26  2  0  0  0  0
 27 25  1  0  0  0  0
 28 27  1  0  0  0  0
 28 29  2  0  0  0  0
 30 28  1  0  0  0  0
 31 30  1  0  0  0  0
 32 31  1  0  0  0  0
M  END
>  <MODEL>
7

>  <REMARK>
 VINA RESULT:      -4.6      3.872      8.602
  Name = 
  21 active torsions:
  status: ('A' for Active; 'I' for Inactive)
    1  A    between atoms: C_1  and  O_20
    2  A    between atoms: C_2  and  C_9
    3  A    between atoms: C_2  and  C_23
    4  A    between atoms: C_3  and  N_14
    5  A    between atoms: C_4  and  O_5
    6  A    between atoms: C_4  and  N_13
    7  A    between atoms: C_6  and  O_31
    8  A    between atoms: C_7  and  N_27
    9  A    between atoms: C_7  and  C_32
   10  A    between atoms: C_8  and  C_23
   11  A    between atoms: C_8  and  C_28
   12  A    between atoms: C_9  and  C_10
   13  A    between atoms: C_10  and  C_19
   14  A    between atoms: N_13  and  C_15
   15  A    between atoms: N_14  and  C_26
   16  A    between atoms: N_14  and  C_28
   17  A    between atoms: C_15  and  C_26
   18  A    between atoms: C_16  and  C_26
   19  A    between atoms: C_16  and  N_27
   20  A    between atoms: C_16  and  O_31
   21  A    between atoms: C_19  and  O_20
                            x       y       z     vdW  Elec       q    Type
                         _______ _______ _______ _____ _____    ______ ____

>  <TORSDO>
F 21

$$$$
=
 OpenBabel11052421413D

 32 32  0  0  1  0  0  0  0  0999 V2000
  189.3270  176.0590  143.8280 C   0  0  2  0  0  3  0  0  0  0  0  0
  188.9360  176.2590  145.2960 C   0  0  1  0  0  3  0  0  0  0  0  0
  190.0620  176.5260  146.0810 O   0  0  0  0  0  0  0  0  0  0  0  0
  190.3000  175.3450  146.7850 C   0  0  0  0  0  2  0  0  0  0  0  0
  188.9790  174.7320  147.2020 C   0  0  0  0  0  1  0  0  0  0  0  0
  187.9910  177.3610  145.4060 N   0  0  0  0  0  2  0  0  0  0  0  0
  186.6590  176.7870  145.5170 C   0  0  0  0  0  2  0  0  0  0  0  0
  185.8880  178.8140  146.7180 C   0  0  1  0  0  3  0  0  0  0  0  0
  184.4520  178.6950  146.5270 N   0  0  0  0  0  2  0  0  0  0  0  0
  184.5220  177.2870  146.5600 N   0  0  0  0  0  2  0  0  0  0  0  0
  186.1710  179.3800  148.0960 C   0  0  0  0  0  1  0  0  0  0  0  0
  185.9600  177.3200  146.7600 C   0  0  1  0  0  3  0  0  0  0  0  0
  188.6990  174.8140  143.1770 C   0  0  0  0  0  2  0  0  0  0  0  0
  187.5050  175.1440  142.4160 N   0  0  0  0  0  2  0  0  0  0  0  0
  187.9030  176.1120  141.4110 C   0  0  0  0  0  2  0  0  0  0  0  0
  186.8160  176.9230  141.0920 O   0  0  0  0  0  0  0  0  0  0  0  0
  186.9690  178.0480  141.9020 C   0  0  0  0  0  1  0  0  0  0  0  0
  190.7700  176.2590  143.5900 N   0  0  0  0  0  0  0  0  0  0  0  0
  191.0040  177.4530  142.7690 C   0  0  0  0  0  2  0  0  0  0  0  0
  191.2010  178.7250  143.5910 C   0  0  0  0  0  1  0  0  0  0  0  0
  191.4470  175.0850  143.0350 C   0  0  0  0  0  2  0  0  0  0  0  0
  192.6830  174.7370  143.8560 C   0  0  0  0  0  2  0  0  0  0  0  0
  193.9270  175.4030  143.2890 C   0  0  0  0  0  2  0  0  0  0  0  0
  194.5360  176.3500  144.3090 C   0  0  0  0  0  2  0  0  0  0  0  0
  195.2660  175.5840  145.3620 C   0  0  0  0  0  0  0  0  0  0  0  0
  194.9110  175.6500  146.5280 O   0  0  0  0  0  0  0  0  0  0  0  0
  196.4340  174.7350  144.9860 C   0  0  0  0  0  2  0  0  0  0  0  0
  196.2850  173.3580  145.5540 C   0  0  0  0  0  0  0  0  0  0  0  0
  197.0990  172.9680  146.4320 O   0  0  0  0  0  0  0  0  0  0  0  0
  195.2530  172.5070  145.1560 O   0  0  0  0  0  0  0  0  0  0  0  0
  195.4970  171.2430  144.5580 C   0  0  0  0  0  2  0  0  0  0  0  0
  194.2390  170.0590  145.1070 S   0  0  0  0  0  1  0  0  0  0  0  0
  1 13  1  1  0  0  0
  1  2  1  0  0  0  0
  2  6  1  6  0  0  0
  2  3  1  0  0  0  0
  3  4  1  0  0  0  0
  4  5  1  0  0  0  0
  6  7  1  0  0  0  0
  8 12  1  0  0  0  0
  8 11  1  1  0  0  0
  9 10  1  0  0  0  0
  9  8  1  0  0  0  0
 10 12  1  0  0  0  0
 12  7  1  6  0  0  0
 14 13  1  0  0  0  0
 15 14  1  0  0  0  0
 16 15  1  0  0  0  0
 16 17  1  0  0  0  0
 18  1  1  0  0  0  0
 19 18  1  0  0  0  0
 19 20  1  0  0  0  0
 21 18  1  0  0  0  0
 21 22  1  0  0  0  0
 23 22  1  0  0  0  0
 23 24  1  0  0  0  0
 24 25  1  0  0  0  0
 25 26  2  0  0  0  0
 27 25  1  0  0  0  0
 27 28  1  0  0  0  0
 28 29  2  0  0  0  0
 30 28  1  0  0  0  0
 31 32  1  0  0  0  0
 31 30  1  0  0  0  0
M  END
>  <MODEL>
8

>  <REMARK>
 VINA RESULT:      -4.4      1.793      3.424
  Name = 
  21 active torsions:
  status: ('A' for Active; 'I' for Inactive)
    1  A    between atoms: C_1  and  O_20
    2  A    between atoms: C_2  and  C_9
    3  A    between atoms: C_2  and  C_23
    4  A    between atoms: C_3  and  N_14
    5  A    between atoms: C_4  and  O_5
    6  A    between atoms: C_4  and  N_13
    7  A    between atoms: C_6  and  O_31
    8  A    between atoms: C_7  and  N_27
    9  A    between atoms: C_7  and  C_32
   10  A    between atoms: C_8  and  C_23
   11  A    between atoms: C_8  and  C_28
   12  A    between atoms: C_9  and  C_10
   13  A    between atoms: C_10  and  C_19
   14  A    between atoms: N_13  and  C_15
   15  A    between atoms: N_14  and  C_26
   16  A    between atoms: N_14  and  C_28
   17  A    between atoms: C_15  and  C_26
   18  A    between atoms: C_16  and  C_26
   19  A    between atoms: C_16  and  N_27
   20  A    between atoms: C_16  and  O_31
   21  A    between atoms: C_19  and  O_20
                            x       y       z     vdW  Elec       q    Type
                         _______ _______ _______ _____ _____    ______ ____

>  <TORSDO>
F 21

$$$$
=
 OpenBabel11052421413D

 32 32  0  0  1  0  0  0  0  0999 V2000
  188.1900  176.1650  144.6420 C   0  0  2  0  0  3  0  0  0  0  0  0
  187.9440  176.1390  143.1300 C   0  0  1  0  0  3  0  0  0  0  0  0
  187.5380  177.3940  142.6680 O   0  0  0  0  0  0  0  0  0  0  0  0
  186.2980  177.1750  142.0650 C   0  0  0  0  0  2  0  0  0  0  0  0
  186.3790  177.5450  140.5990 C   0  0  0  0  0  1  0  0  0  0  0  0
  189.1610  175.7350  142.4420 N   0  0  0  0  0  2  0  0  0  0  0  0
  188.8410  174.5710  141.6310 C   0  0  0  0  0  2  0  0  0  0  0  0
  189.6400  172.2600  141.2240 C   0  0  1  0  0  3  0  0  0  0  0  0
  190.1920  172.4100  139.8880 N   0  0  0  0  0  2  0  0  0  0  0  0
  190.5830  173.7400  140.1540 N   0  0  0  0  0  2  0  0  0  0  0  0
  190.4990  171.2980  142.0220 C   0  0  0  0  0  1  0  0  0  0  0  0
  190.0600  173.6680  141.5070 C   0  0  1  0  0  3  0  0  0  0  0  0
  187.7630  177.4770  145.3240 C   0  0  0  0  0  2  0  0  0  0  0  0
  186.4460  177.3680  145.9300 N   0  0  0  0  0  2  0  0  0  0  0  0
  186.4650  178.1960  147.1220 C   0  0  0  0  0  2  0  0  0  0  0  0
  185.4260  179.1230  147.0600 O   0  0  0  0  0  0  0  0  0  0  0  0
  184.3470  178.4050  146.5470 C   0  0  0  0  0  1  0  0  0  0  0  0
  189.5210  175.6440  145.0120 N   0  0  0  0  0  0  0  0  0  0  0  0
  189.4000  174.4390  145.8400 C   0  0  0  0  0  2  0  0  0  0  0  0
  189.8530  173.1660  145.1290 C   0  0  0  0  0  1  0  0  0  0  0  0
  190.3930  176.6400  145.6380 C   0  0  0  0  0  2  0  0  0  0  0  0
  190.8080  176.1920  147.0340 C   0  0  0  0  0  2  0  0  0  0  0  0
  192.2930  176.4200  147.2690 C   0  0  0  0  0  2  0  0  0  0  0  0
  193.1130  175.3420  146.5800 C   0  0  0  0  0  2  0  0  0  0  0  0
  194.3980  175.9090  146.0730 C   0  0  0  0  0  0  0  0  0  0  0  0
  194.5750  177.1170  146.0620 O   0  0  0  0  0  0  0  0  0  0  0  0
  195.4670  174.9940  145.5760 C   0  0  0  0  0  2  0  0  0  0  0  0
  195.1470  174.5180  144.1940 C   0  0  0  0  0  0  0  0  0  0  0  0
  194.6150  173.3870  144.0450 O   0  0  0  0  0  0  0  0  0  0  0  0
  195.3990  175.3050  143.0690 O   0  0  0  0  0  0  0  0  0  0  0  0
  194.4320  175.5040  142.0480 C   0  0  0  0  0  2  0  0  0  0  0  0
  192.8930  176.1200  142.7820 S   0  0  0  0  0  1  0  0  0  0  0  0
  1 18  1  0  0  0  0
  1 13  1  6  0  0  0
  2  6  1  6  0  0  0
  2  1  1  0  0  0  0
  3  2  1  0  0  0  0
  4  3  1  0  0  0  0
  5  4  1  0  0  0  0
  7  6  1  0  0  0  0
  8 12  1  0  0  0  0
  8 11  1  1  0  0  0
  9 10  1  0  0  0  0
  9  8  1  0  0  0  0
 10 12  1  0  0  0  0
 12  7  1  6  0  0  0
 13 14  1  0  0  0  0
 14 15  1  0  0  0  0
 16 15  1  0  0  0  0
 17 16  1  0  0  0  0
 18 21  1  0  0  0  0
 18 19  1  0  0  0  0
 20 19  1  0  0  0  0
 21 22  1  0  0  0  0
 22 23  1  0  0  0  0
 24 23  1  0  0  0  0
 25 24  1  0  0  0  0
 26 25  2  0  0  0  0
 27 25  1  0  0  0  0
 28 27  1  0  0  0  0
 29 28  2  0  0  0  0
 30 28  1  0  0  0  0
 31 32  1  0  0  0  0
 31 30  1  0  0  0  0
M  END
>  <MODEL>
9

>  <REMARK>
 VINA RESULT:      -4.4      2.070      5.162
  Name = 
  21 active torsions:
  status: ('A' for Active; 'I' for Inactive)
    1  A    between atoms: C_1  and  O_20
    2  A    between atoms: C_2  and  C_9
    3  A    between atoms: C_2  and  C_23
    4  A    between atoms: C_3  and  N_14
    5  A    between atoms: C_4  and  O_5
    6  A    between atoms: C_4  and  N_13
    7  A    between atoms: C_6  and  O_31
    8  A    between atoms: C_7  and  N_27
    9  A    between atoms: C_7  and  C_32
   10  A    between atoms: C_8  and  C_23
   11  A    between atoms: C_8  and  C_28
   12  A    between atoms: C_9  and  C_10
   13  A    between atoms: C_10  and  C_19
   14  A    between atoms: N_13  and  C_15
   15  A    between atoms: N_14  and  C_26
   16  A    between atoms: N_14  and  C_28
   17  A    between atoms: C_15  and  C_26
   18  A    between atoms: C_16  and  C_26
   19  A    between atoms: C_16  and  N_27
   20  A    between atoms: C_16  and  O_31
   21  A    between atoms: C_19  and  O_20
                            x       y       z     vdW  Elec       q    Type
                         _______ _______ _______ _____ _____    ______ ____

>  <TORSDO>
F 21

$$$$
