=
 OpenBabel11052417153D

 30 31  0  0  1  0  0  0  0  0999 V2000
  191.8600  176.8050  145.3870 C   0  0  0  0  0  0  0  0  0  0  0  0
  190.5490  177.1690  145.5710 C   0  0  2  0  0  3  0  0  0  0  0  0
  190.1640  177.9010  144.4710 C   0  0  0  0  0  3  0  0  0  0  0  0
  192.3120  177.2620  144.2060 N   0  0  0  0  0  0  0  0  0  0  0  0
  191.2800  177.9300  143.6480 C   0  0  0  0  0  3  0  0  0  0  0  0
  194.0580  176.6080  146.5030 C   0  0  0  0  0  1  0  0  0  0  0  0
  192.6780  175.9960  146.3420 C   0  0  2  0  0  3  0  0  0  0  0  0
  192.7890  174.5620  145.8500 C   0  0  0  0  0  2  0  0  0  0  0  0
  194.0880  174.3490  145.0770 C   0  0  2  0  0  3  0  0  0  0  0  0
  192.9760  173.3880  143.2250 O   0  0  0  0  0  0  0  0  0  0  0  0
  196.2350  176.0100  143.8600 O   0  0  0  0  0  0  0  0  0  0  0  0
  194.5300  174.9910  142.6030 N   0  0  0  0  0  2  0  0  0  0  0  0
  193.8450  174.2170  143.6020 C   0  0  0  0  0  0  0  0  0  0  0  0
  196.0990  176.6790  141.5920 C   0  0  0  0  0  1  0  0  0  0  0  0
  195.6340  175.8890  142.7630 C   0  0  0  0  0  0  0  0  0  0  0  0
  194.4710  171.9760  145.7660 O   0  0  0  0  0  0  0  0  0  0  0  0
  194.9750  173.2610  145.6180 C   0  0  0  0  0  0  0  0  0  0  0  0
  196.1810  173.4890  145.9090 O   0  0  0  0  0  1  0  0  0  0  0  0
  189.7020  176.8870  146.7690 C   0  0  0  0  0  2  0  0  0  0  0  0
  188.6730  175.9150  146.4360 N   0  0  0  0  0  0  0  0  0  0  0  0
  189.0610  174.6560  147.0500 C   0  0  0  0  0  1  0  0  0  0  0  0
  187.4570  176.3440  147.1080 C   0  0  0  0  0  2  0  0  0  0  0  0
  184.9660  177.9580  143.6300 C   0  0  0  0  0  0  0  0  0  0  0  0
  184.8340  178.9590  144.7290 C   0  0  0  0  0  2  0  0  0  0  0  0
  184.0000  178.1880  142.1450 S   0  0  0  0  0  1  0  0  0  0  0  0
  186.4710  176.8490  146.1120 C   0  0  0  0  0  0  0  0  0  0  0  0
  184.4500  178.3160  146.0180 C   0  0  0  0  0  3  0  0  0  0  0  0
  185.8650  176.9760  143.6650 C   0  0  0  0  0  3  0  0  0  0  0  0
  185.2090  177.4090  146.6340 C   0  0  0  0  0  3  0  0  0  0  0  0
  186.7280  176.6320  144.8130 C   0  0  0  0  0  3  0  0  0  0  0  0
  1  2  1  0  0  0  0
  1  7  1  0  0  0  0
  2 19  1  1  0  0  0
  3  2  1  0  0  0  0
  4  1  2  0  0  0  0
  5  4  1  0  0  0  0
  5  3  2  0  0  0  0
  7  6  1  6  0  0  0
  8  7  1  0  0  0  0
  9 17  1  0  0  0  0
  9  8  1  1  0  0  0
 10 13  2  0  0  0  0
 12 15  1  0  0  0  0
 12 13  1  0  0  0  0
 13  9  1  0  0  0  0
 14 15  1  0  0  0  0
 15 11  2  0  0  0  0
 17 16  2  0  0  0  0
 17 18  1  0  0  0  0
 20 19  1  0  0  0  0
 20 21  1  0  0  0  0
 20 22  1  0  0  0  0
 23 28  2  0  0  0  0
 23 24  1  0  0  0  0
 24 27  1  0  0  0  0
 25 23  1  0  0  0  0
 26 29  1  0  0  0  0
 26 22  1  0  0  0  0
 27 29  2  0  0  0  0
 28 30  1  0  0  0  0
 30 26  2  0  0  0  0
M  END
>  <MODEL>
1

>  <REMARK>
 VINA RESULT:      -7.2      0.000      0.000
  Name = 
  9 active torsions:
  status: ('A' for Active; 'I' for Inactive)
    1  A    between atoms: C_3  and  N_11
    2  A    between atoms: C_3  and  C_19
    3  A    between atoms: C_4  and  C_8
    4  A    between atoms: C_7  and  C_30
    5  A    between atoms: C_8  and  C_12
    6  A    between atoms: C_8  and  C_13
    7  A    between atoms: C_10  and  C_25
    8  A    between atoms: N_11  and  C_25
    9  A    between atoms: C_13  and  C_30
                            x       y       z     vdW  Elec       q    Type
                         _______ _______ _______ _____ _____    ______ ____

>  <TORSDO>
F 9

$$$$
=
 OpenBabel11052417153D

 30 31  0  0  1  0  0  0  0  0999 V2000
  187.2880  176.3000  141.9220 C   0  0  0  0  0  0  0  0  0  0  0  0
  186.2620  176.9970  142.5100 C   0  0  2  0  0  3  0  0  0  0  0  0
  185.6830  177.7820  141.5380 C   0  0  0  0  0  3  0  0  0  0  0  0
  187.3680  176.6000  140.6130 N   0  0  0  0  0  0  0  0  0  0  0  0
  186.3920  177.5020  140.3790 C   0  0  0  0  0  3  0  0  0  0  0  0
  189.6400  175.6630  142.3440 C   0  0  0  0  0  1  0  0  0  0  0  0
  188.1850  175.3260  142.6160 C   0  0  2  0  0  3  0  0  0  0  0  0
  187.8740  173.9110  142.1560 C   0  0  0  0  0  2  0  0  0  0  0  0
  189.1370  173.2050  141.6680 C   0  0  2  0  0  3  0  0  0  0  0  0
  188.0410  172.5650  139.6740 O   0  0  0  0  0  0  0  0  0  0  0  0
  191.9740  173.5800  140.8550 O   0  0  0  0  0  0  0  0  0  0  0  0
  190.2320  173.2300  139.3160 N   0  0  0  0  0  2  0  0  0  0  0  0
  189.1130  172.9800  140.1850 C   0  0  0  0  0  0  0  0  0  0  0  0
  192.5410  173.9080  138.5800 C   0  0  0  0  0  1  0  0  0  0  0  0
  191.5780  173.5750  139.6630 C   0  0  0  0  0  0  0  0  0  0  0  0
  189.1470  171.8560  143.7730 O   0  0  0  0  0  1  0  0  0  0  0  0
  189.5070  171.9660  142.4370 C   0  0  0  0  0  0  0  0  0  0  0  0
  190.1090  171.0090  141.8780 O   0  0  0  0  0  0  0  0  0  0  0  0
  185.8730  176.9700  143.9530 C   0  0  0  0  0  2  0  0  0  0  0  0
  186.6790  177.9170  144.7050 N   0  0  0  0  0  0  0  0  0  0  0  0
  185.8830  179.1220  144.8640 C   0  0  0  0  0  1  0  0  0  0  0  0
  186.8500  177.3580  146.0360 C   0  0  0  0  0  2  0  0  0  0  0  0
  191.1300  175.7590  145.8270 C   0  0  0  0  0  0  0  0  0  0  0  0
  190.2430  174.5600  145.8170 C   0  0  0  0  0  2  0  0  0  0  0  0
  192.8970  175.5140  145.9000 S   0  0  0  0  0  1  0  0  0  0  0  0
  188.2010  176.7410  146.1640 C   0  0  0  0  0  0  0  0  0  0  0  0
  189.2460  174.6020  146.9250 C   0  0  0  0  0  3  0  0  0  0  0  0
  190.6600  176.9950  145.6560 C   0  0  0  0  0  3  0  0  0  0  0  0
  188.3240  175.5590  147.0400 C   0  0  0  0  0  3  0  0  0  0  0  0
  189.2350  177.3790  145.5970 C   0  0  0  0  0  3  0  0  0  0  0  0
  1  2  1  0  0  0  0
  1  7  1  0  0  0  0
  2 19  1  1  0  0  0
  3  2  1  0  0  0  0
  4  1  2  0  0  0  0
  5  4  1  0  0  0  0
  5  3  2  0  0  0  0
  7  6  1  6  0  0  0
  8  7  1  0  0  0  0
  9  8  1  1  0  0  0
  9 17  1  0  0  0  0
 10 13  2  0  0  0  0
 12 15  1  0  0  0  0
 12 13  1  0  0  0  0
 13  9  1  0  0  0  0
 14 15  1  0  0  0  0
 15 11  2  0  0  0  0
 17 16  1  0  0  0  0
 18 17  2  0  0  0  0
 19 20  1  0  0  0  0
 20 21  1  0  0  0  0
 20 22  1  0  0  0  0
 22 26  1  0  0  0  0
 23 25  1  0  0  0  0
 24 23  1  0  0  0  0
 24 27  1  0  0  0  0
 26 29  1  0  0  0  0
 27 29  2  0  0  0  0
 28 23  2  0  0  0  0
 30 28  1  0  0  0  0
 30 26  2  0  0  0  0
M  END
>  <MODEL>
2

>  <REMARK>
 VINA RESULT:      -7.0      3.922      5.774
  Name = 
  9 active torsions:
  status: ('A' for Active; 'I' for Inactive)
    1  A    between atoms: C_3  and  N_11
    2  A    between atoms: C_3  and  C_19
    3  A    between atoms: C_4  and  C_8
    4  A    between atoms: C_7  and  C_30
    5  A    between atoms: C_8  and  C_12
    6  A    between atoms: C_8  and  C_13
    7  A    between atoms: C_10  and  C_25
    8  A    between atoms: N_11  and  C_25
    9  A    between atoms: C_13  and  C_30
                            x       y       z     vdW  Elec       q    Type
                         _______ _______ _______ _____ _____    ______ ____

>  <TORSDO>
F 9

$$$$
=
 OpenBabel11052417153D

 30 31  0  0  1  0  0  0  0  0999 V2000
  191.6880  176.7890  145.1420 C   0  0  0  0  0  0  0  0  0  0  0  0
  190.4250  177.2720  145.3780 C   0  0  2  0  0  3  0  0  0  0  0  0
  190.0510  178.0120  144.2780 C   0  0  0  0  0  3  0  0  0  0  0  0
  192.1190  177.1790  143.9280 N   0  0  0  0  0  0  0  0  0  0  0  0
  191.1230  177.9240  143.4030 C   0  0  0  0  0  3  0  0  0  0  0  0
  193.9370  175.9010  145.6580 C   0  0  0  0  0  1  0  0  0  0  0  0
  192.4780  175.9330  146.0770 C   0  0  2  0  0  3  0  0  0  0  0  0
  191.9060  174.5250  146.1060 C   0  0  0  0  0  2  0  0  0  0  0  0
  191.6690  174.0030  144.6910 C   0  0  2  0  0  3  0  0  0  0  0  0
  189.8640  172.6450  145.3860 O   0  0  0  0  0  0  0  0  0  0  0  0
  190.8460  174.9960  142.0110 O   0  0  0  0  0  0  0  0  0  0  0  0
  189.4010  173.8220  143.4450 N   0  0  0  0  0  2  0  0  0  0  0  0
  190.2820  173.4570  144.5210 C   0  0  0  0  0  0  0  0  0  0  0  0
  188.5690  174.9610  141.3610 C   0  0  0  0  0  1  0  0  0  0  0  0
  189.6820  174.6110  142.2830 C   0  0  0  0  0  0  0  0  0  0  0  0
  193.1150  171.9790  144.9510 O   0  0  0  0  0  1  0  0  0  0  0  0
  192.7280  173.0650  144.1770 C   0  0  0  0  0  0  0  0  0  0  0  0
  193.2460  173.2290  143.0400 O   0  0  0  0  0  0  0  0  0  0  0  0
  189.6170  177.0930  146.6220 C   0  0  0  0  0  2  0  0  0  0  0  0
  188.4740  176.2340  146.3560 N   0  0  0  0  0  0  0  0  0  0  0  0
  188.5680  175.1050  147.2670 C   0  0  0  0  0  1  0  0  0  0  0  0
  187.2890  176.9800  146.7460 C   0  0  0  0  0  2  0  0  0  0  0  0
  185.5510  178.1340  142.6760 C   0  0  0  0  0  0  0  0  0  0  0  0
  185.9450  179.4140  143.3320 C   0  0  0  0  0  2  0  0  0  0  0  0
  184.6950  178.2040  141.1110 S   0  0  0  0  0  1  0  0  0  0  0  0
  186.5660  177.4630  145.5360 C   0  0  0  0  0  0  0  0  0  0  0  0
  185.3990  179.5150  144.7160 C   0  0  0  0  0  3  0  0  0  0  0  0
  185.9250  176.9460  143.1500 C   0  0  0  0  0  3  0  0  0  0  0  0
  185.7170  178.6610  145.6890 C   0  0  0  0  0  3  0  0  0  0  0  0
  186.6180  176.7030  144.4320 C   0  0  0  0  0  3  0  0  0  0  0  0
  1  2  1  0  0  0  0
  1  7  1  0  0  0  0
  2 19  1  1  0  0  0
  3  2  1  0  0  0  0
  4  1  2  0  0  0  0
  5  4  1  0  0  0  0
  5  3  2  0  0  0  0
  7  6  1  6  0  0  0
  7  8  1  0  0  0  0
  9  8  1  1  0  0  0
 11 15  2  0  0  0  0
 12 13  1  0  0  0  0
 13  9  1  0  0  0  0
 13 10  2  0  0  0  0
 14 15  1  0  0  0  0
 15 12  1  0  0  0  0
 17  9  1  0  0  0  0
 17 16  1  0  0  0  0
 18 17  2  0  0  0  0
 20 19  1  0  0  0  0
 20 22  1  0  0  0  0
 20 21  1  0  0  0  0
 23 28  2  0  0  0  0
 23 24  1  0  0  0  0
 24 27  1  0  0  0  0
 25 23  1  0  0  0  0
 26 29  1  0  0  0  0
 26 22  1  0  0  0  0
 27 29  2  0  0  0  0
 28 30  1  0  0  0  0
 30 26  2  0  0  0  0
M  END
>  <MODEL>
3

>  <REMARK>
 VINA RESULT:      -7.0      1.861      2.820
  Name = 
  9 active torsions:
  status: ('A' for Active; 'I' for Inactive)
    1  A    between atoms: C_3  and  N_11
    2  A    between atoms: C_3  and  C_19
    3  A    between atoms: C_4  and  C_8
    4  A    between atoms: C_7  and  C_30
    5  A    between atoms: C_8  and  C_12
    6  A    between atoms: C_8  and  C_13
    7  A    between atoms: C_10  and  C_25
    8  A    between atoms: N_11  and  C_25
    9  A    between atoms: C_13  and  C_30
                            x       y       z     vdW  Elec       q    Type
                         _______ _______ _______ _____ _____    ______ ____

>  <TORSDO>
F 9

$$$$
=
 OpenBabel11052417153D

 30 31  0  0  1  0  0  0  0  0999 V2000
  192.0990  176.8190  144.7590 C   0  0  0  0  0  0  0  0  0  0  0  0
  190.8240  177.1010  145.1860 C   0  0  2  0  0  3  0  0  0  0  0  0
  190.2370  177.9040  144.2330 C   0  0  0  0  0  3  0  0  0  0  0  0
  192.3320  177.3960  143.5670 N   0  0  0  0  0  0  0  0  0  0  0  0
  191.2000  178.0570  143.2470 C   0  0  0  0  0  3  0  0  0  0  0  0
  193.6780  176.7440  146.6600 C   0  0  0  0  0  1  0  0  0  0  0  0
  193.0910  175.9740  145.4910 C   0  0  2  0  0  3  0  0  0  0  0  0
  194.1930  175.5250  144.5450 C   0  0  0  0  0  2  0  0  0  0  0  0
  193.7490  174.3180  143.7230 C   0  0  2  0  0  3  0  0  0  0  0  0
  193.3490  172.7340  145.4310 O   0  0  0  0  0  0  0  0  0  0  0  0
  191.1760  174.4550  142.2370 O   0  0  0  0  0  0  0  0  0  0  0  0
  191.4270  173.2980  144.2670 N   0  0  0  0  0  2  0  0  0  0  0  0
  192.8400  173.4140  144.5040 C   0  0  0  0  0  0  0  0  0  0  0  0
  189.1660  173.7020  143.2370 C   0  0  0  0  0  1  0  0  0  0  0  0
  190.6450  173.8570  143.2050 C   0  0  0  0  0  0  0  0  0  0  0  0
  196.1820  173.8530  143.3770 O   0  0  0  0  0  1  0  0  0  0  0  0
  194.8640  173.5710  143.0430 C   0  0  0  0  0  0  0  0  0  0  0  0
  194.6210  172.6670  142.1970 O   0  0  0  0  0  0  0  0  0  0  0  0
  190.1980  176.6770  146.4740 C   0  0  0  0  0  2  0  0  0  0  0  0
  189.0290  175.8530  146.2130 N   0  0  0  0  0  0  0  0  0  0  0  0
  189.2450  174.5820  146.8840 C   0  0  0  0  0  1  0  0  0  0  0  0
  187.9080  176.4890  146.8870 C   0  0  0  0  0  2  0  0  0  0  0  0
  185.4390  177.9890  143.3430 C   0  0  0  0  0  0  0  0  0  0  0  0
  185.8270  179.2050  144.1160 C   0  0  0  0  0  2  0  0  0  0  0  0
  184.3350  178.1800  141.9520 S   0  0  0  0  0  1  0  0  0  0  0  0
  186.9600  177.0510  145.8850 C   0  0  0  0  0  0  0  0  0  0  0  0
  185.5080  179.0600  145.5660 C   0  0  0  0  0  3  0  0  0  0  0  0
  185.9820  176.7950  143.5720 C   0  0  0  0  0  3  0  0  0  0  0  0
  186.0500  178.1210  146.3410 C   0  0  0  0  0  3  0  0  0  0  0  0
  186.8930  176.4570  144.6840 C   0  0  0  0  0  3  0  0  0  0  0  0
  1  2  1  0  0  0  0
  1  7  1  0  0  0  0
  2 19  1  1  0  0  0
  3  2  1  0  0  0  0
  4  1  2  0  0  0  0
  5  4  1  0  0  0  0
  5  3  2  0  0  0  0
  7  6  1  1  0  0  0
  8  7  1  0  0  0  0
  9 13  1  0  0  0  0
  9  8  1  1  0  0  0
 11 15  2  0  0  0  0
 12 13  1  0  0  0  0
 13 10  2  0  0  0  0
 15 14  1  0  0  0  0
 15 12  1  0  0  0  0
 17 16  1  0  0  0  0
 17  9  1  0  0  0  0
 18 17  2  0  0  0  0
 20 19  1  0  0  0  0
 20 21  1  0  0  0  0
 20 22  1  0  0  0  0
 23 28  2  0  0  0  0
 23 24  1  0  0  0  0
 24 27  1  0  0  0  0
 25 23  1  0  0  0  0
 26 29  1  0  0  0  0
 26 22  1  0  0  0  0
 27 29  2  0  0  0  0
 28 30  1  0  0  0  0
 30 26  2  0  0  0  0
M  END
>  <MODEL>
4

>  <REMARK>
 VINA RESULT:      -6.7      1.547      2.542
  Name = 
  9 active torsions:
  status: ('A' for Active; 'I' for Inactive)
    1  A    between atoms: C_3  and  N_11
    2  A    between atoms: C_3  and  C_19
    3  A    between atoms: C_4  and  C_8
    4  A    between atoms: C_7  and  C_30
    5  A    between atoms: C_8  and  C_12
    6  A    between atoms: C_8  and  C_13
    7  A    between atoms: C_10  and  C_25
    8  A    between atoms: N_11  and  C_25
    9  A    between atoms: C_13  and  C_30
                            x       y       z     vdW  Elec       q    Type
                         _______ _______ _______ _____ _____    ______ ____

>  <TORSDO>
F 9

$$$$
=
 OpenBabel11052417153D

 30 31  0  0  1  0  0  0  0  0999 V2000
  189.6070  176.5820  146.2030 C   0  0  0  0  0  0  0  0  0  0  0  0
  190.1260  175.3140  146.2910 C   0  0  0  0  0  0  0  0  0  0  0  0
  190.9790  175.2900  147.3720 C   0  0  0  0  0  3  0  0  0  0  0  0
  190.0830  177.3540  147.1970 N   0  0  0  0  0  2  0  0  0  0  0  0
  190.9190  176.5680  147.9080 C   0  0  0  0  0  3  0  0  0  0  0  0
  189.3670  177.5230  143.9290 C   0  0  0  0  0  1  0  0  0  0  0  0
  188.6330  177.0510  145.1710 C   0  0  2  0  0  3  0  0  0  0  0  0
  187.7720  178.1700  145.7350 C   0  0  0  0  0  2  0  0  0  0  0  0
  186.3100  177.9880  145.3370 C   0  0  2  0  0  3  0  0  0  0  0  0
  185.5550  180.1510  144.7570 O   0  0  0  0  0  0  0  0  0  0  0  0
  186.1230  176.4440  142.8010 O   0  0  0  0  0  0  0  0  0  0  0  0
  185.8180  178.7720  142.9130 N   0  0  0  0  0  2  0  0  0  0  0  0
  185.8730  179.0110  144.3300 C   0  0  0  0  0  0  0  0  0  0  0  0
  186.0200  177.5620  140.7160 C   0  0  0  0  0  1  0  0  0  0  0  0
  186.0010  177.5420  142.2020 C   0  0  0  0  0  0  0  0  0  0  0  0
  185.8290  177.9380  147.7900 O   0  0  0  0  0  1  0  0  0  0  0  0
  185.3510  177.8630  146.4890 C   0  0  0  0  0  0  0  0  0  0  0  0
  184.1130  177.7250  146.2930 O   0  0  0  0  0  0  0  0  0  0  0  0
  189.8740  174.1770  145.3560 C   0  0  0  0  0  2  0  0  0  0  0  0
  191.1250  173.7300  144.7650 N   0  0  0  0  0  0  0  0  0  0  0  0
  190.9090  172.3750  144.2850 C   0  0  0  0  0  1  0  0  0  0  0  0
  191.3510  174.5530  143.5880 C   0  0  0  0  0  2  0  0  0  0  0  0
  195.7630  175.7530  143.5620 C   0  0  0  0  0  0  0  0  0  0  0  0
  195.2880  175.9670  144.9600 C   0  0  0  0  0  2  0  0  0  0  0  0
  197.4240  176.2570  143.1380 S   0  0  0  0  0  1  0  0  0  0  0  0
  192.7170  175.1470  143.6320 C   0  0  0  0  0  0  0  0  0  0  0  0
  194.0340  176.7730  144.9980 C   0  0  0  0  0  3  0  0  0  0  0  0
  195.0440  175.0880  142.6580 C   0  0  0  0  0  3  0  0  0  0  0  0
  192.8940  176.3740  144.4350 C   0  0  0  0  0  3  0  0  0  0  0  0
  193.6550  174.6190  142.8320 C   0  0  0  0  0  3  0  0  0  0  0  0
  1  2  2  0  0  0  0
  1  4  1  0  0  0  0
  2  3  1  0  0  0  0
  3  5  2  0  0  0  0
  4  5  1  0  0  0  0
  7  6  1  6  0  0  0
  7  8  1  0  0  0  0
  7  1  1  0  0  0  0
  9  8  1  1  0  0  0
  9 17  1  0  0  0  0
 12 13  1  0  0  0  0
 13 10  2  0  0  0  0
 13  9  1  0  0  0  0
 14 15  1  0  0  0  0
 15 11  2  0  0  0  0
 15 12  1  0  0  0  0
 17 16  1  0  0  0  0
 18 17  2  0  0  0  0
 19  2  1  0  0  0  0
 20 19  1  0  0  0  0
 21 20  1  0  0  0  0
 22 26  1  0  0  0  0
 22 20  1  0  0  0  0
 23 24  1  0  0  0  0
 24 27  1  0  0  0  0
 25 23  1  0  0  0  0
 26 29  1  0  0  0  0
 28 30  1  0  0  0  0
 28 23  2  0  0  0  0
 29 27  2  0  0  0  0
 30 26  2  0  0  0  0
M  END
>  <MODEL>
5

>  <REMARK>
 VINA RESULT:      -6.6      4.682      8.253
  Name = 
  9 active torsions:
  status: ('A' for Active; 'I' for Inactive)
    1  A    between atoms: C_3  and  N_11
    2  A    between atoms: C_3  and  C_19
    3  A    between atoms: C_4  and  C_8
    4  A    between atoms: C_7  and  C_30
    5  A    between atoms: C_8  and  C_12
    6  A    between atoms: C_8  and  C_13
    7  A    between atoms: C_10  and  C_25
    8  A    between atoms: N_11  and  C_25
    9  A    between atoms: C_13  and  C_30
                            x       y       z     vdW  Elec       q    Type
                         _______ _______ _______ _____ _____    ______ ____

>  <TORSDO>
F 9

$$$$
=
 OpenBabel11052417153D

 30 31  0  0  1  0  0  0  0  0999 V2000
  189.8510  176.0570  143.8300 C   0  0  0  0  0  0  0  0  0  0  0  0
  189.4050  176.7330  142.7210 C   0  0  0  0  0  0  0  0  0  0  0  0
  189.8680  178.0270  142.8110 C   0  0  0  0  0  3  0  0  0  0  0  0
  190.5920  176.8680  144.6060 N   0  0  0  0  0  2  0  0  0  0  0  0
  190.6020  178.0670  143.9870 C   0  0  0  0  0  3  0  0  0  0  0  0
  189.7140  174.3650  145.6280 C   0  0  0  0  0  1  0  0  0  0  0  0
  189.5810  174.6200  144.1370 C   0  0  2  0  0  3  0  0  0  0  0  0
  190.5400  173.7310  143.3600 C   0  0  0  0  0  2  0  0  0  0  0  0
  191.8520  173.5500  144.1190 C   0  0  2  0  0  3  0  0  0  0  0  0
  193.2070  174.2770  142.3230 O   0  0  0  0  0  0  0  0  0  0  0  0
  193.0560  174.8430  146.5120 O   0  0  0  0  0  0  0  0  0  0  0  0
  193.7030  175.3570  144.3120 N   0  0  0  0  0  2  0  0  0  0  0  0
  192.9490  174.4010  143.5490 C   0  0  0  0  0  0  0  0  0  0  0  0
  194.4720  176.7260  146.2790 C   0  0  0  0  0  1  0  0  0  0  0  0
  193.6900  175.5890  145.7260 C   0  0  0  0  0  0  0  0  0  0  0  0
  193.4440  171.8420  145.0150 O   0  0  0  0  0  1  0  0  0  0  0  0
  192.2740  172.1200  144.3220 C   0  0  0  0  0  0  0  0  0  0  0  0
  191.5630  171.1670  143.9020 O   0  0  0  0  0  0  0  0  0  0  0  0
  188.5250  176.1950  141.6410 C   0  0  0  0  0  2  0  0  0  0  0  0
  187.4360  177.1220  141.3760 N   0  0  0  0  0  0  0  0  0  0  0  0
  187.0630  176.9550  139.9820 C   0  0  0  0  0  1  0  0  0  0  0  0
  186.3000  176.6700  142.1630 C   0  0  0  0  0  2  0  0  0  0  0  0
  185.7730  178.5020  146.3190 C   0  0  0  0  0  0  0  0  0  0  0  0
  184.8580  179.2610  145.4180 C   0  0  0  0  0  2  0  0  0  0  0  0
  185.9420  179.0410  148.0140 S   0  0  0  0  0  1  0  0  0  0  0  0
  186.2070  177.4540  143.4270 C   0  0  0  0  0  0  0  0  0  0  0  0
  185.5640  179.7430  144.1960 C   0  0  0  0  0  3  0  0  0  0  0  0
  186.3670  177.3700  145.9440 C   0  0  0  0  0  3  0  0  0  0  0  0
  186.1230  178.9230  143.3060 C   0  0  0  0  0  3  0  0  0  0  0  0
  186.3510  176.7930  144.5850 C   0  0  0  0  0  3  0  0  0  0  0  0
  1  7  1  0  0  0  0
  1  4  1  0  0  0  0
  2  3  1  0  0  0  0
  2  1  2  0  0  0  0
  3  5  2  0  0  0  0
  5  4  1  0  0  0  0
  7  6  1  1  0  0  0
  8  7  1  0  0  0  0
  9  8  1  6  0  0  0
  9 17  1  0  0  0  0
 10 13  2  0  0  0  0
 12 15  1  0  0  0  0
 13  9  1  0  0  0  0
 13 12  1  0  0  0  0
 15 14  1  0  0  0  0
 15 11  2  0  0  0  0
 17 16  1  0  0  0  0
 18 17  2  0  0  0  0
 19  2  1  0  0  0  0
 20 19  1  0  0  0  0
 20 22  1  0  0  0  0
 21 20  1  0  0  0  0
 22 26  1  0  0  0  0
 23 25  1  0  0  0  0
 24 23  1  0  0  0  0
 26 30  2  0  0  0  0
 27 24  1  0  0  0  0
 28 23  2  0  0  0  0
 29 26  1  0  0  0  0
 29 27  2  0  0  0  0
 30 28  1  0  0  0  0
M  END
>  <MODEL>
6

>  <REMARK>
 VINA RESULT:      -6.6      2.460      3.703
  Name = 
  9 active torsions:
  status: ('A' for Active; 'I' for Inactive)
    1  A    between atoms: C_3  and  N_11
    2  A    between atoms: C_3  and  C_19
    3  A    between atoms: C_4  and  C_8
    4  A    between atoms: C_7  and  C_30
    5  A    between atoms: C_8  and  C_12
    6  A    between atoms: C_8  and  C_13
    7  A    between atoms: C_10  and  C_25
    8  A    between atoms: N_11  and  C_25
    9  A    between atoms: C_13  and  C_30
                            x       y       z     vdW  Elec       q    Type
                         _______ _______ _______ _____ _____    ______ ____

>  <TORSDO>
F 9

$$$$
=
 OpenBabel11052417153D

 30 31  0  0  1  0  0  0  0  0999 V2000
  191.4960  176.4680  144.6590 C   0  0  0  0  0  0  0  0  0  0  0  0
  190.4600  177.1250  145.2750 C   0  0  2  0  0  3  0  0  0  0  0  0
  190.1160  178.1940  144.4780 C   0  0  0  0  0  3  0  0  0  0  0  0
  191.8070  177.0680  143.4960 N   0  0  0  0  0  0  0  0  0  0  0  0
  190.9680  178.1190  143.3860 C   0  0  0  0  0  3  0  0  0  0  0  0
  193.5270  175.6070  145.7760 C   0  0  0  0  0  1  0  0  0  0  0  0
  192.1790  175.2450  145.1800 C   0  0  2  0  0  3  0  0  0  0  0  0
  192.3510  174.2270  144.0640 C   0  0  0  0  0  2  0  0  0  0  0  0
  191.6960  172.8970  144.4320 C   0  0  2  0  0  3  0  0  0  0  0  0
  191.5740  171.3370  142.6610 O   0  0  0  0  0  0  0  0  0  0  0  0
  194.0910  172.0570  145.9840 O   0  0  0  0  0  0  0  0  0  0  0  0
  193.5250  171.1380  143.8960 N   0  0  0  0  0  2  0  0  0  0  0  0
  192.2550  171.7580  143.6320 C   0  0  0  0  0  0  0  0  0  0  0  0
  195.7400  170.6740  144.9970 C   0  0  0  0  0  1  0  0  0  0  0  0
  194.4130  171.3440  145.0010 C   0  0  0  0  0  0  0  0  0  0  0  0
  189.5020  172.0200  145.2510 O   0  0  0  0  0  1  0  0  0  0  0  0
  190.1910  172.9140  144.4430 C   0  0  0  0  0  0  0  0  0  0  0  0
  189.5460  173.7520  143.7560 O   0  0  0  0  0  0  0  0  0  0  0  0
  189.8500  176.7930  146.5970 C   0  0  0  0  0  2  0  0  0  0  0  0
  188.6970  175.9280  146.4130 N   0  0  0  0  0  0  0  0  0  0  0  0
  188.8690  174.7920  147.3030 C   0  0  0  0  0  1  0  0  0  0  0  0
  187.5400  176.6610  146.9010 C   0  0  0  0  0  2  0  0  0  0  0  0
  185.6100  178.0360  142.9890 C   0  0  0  0  0  0  0  0  0  0  0  0
  186.0070  179.2800  143.7100 C   0  0  0  0  0  2  0  0  0  0  0  0
  184.6870  178.1880  141.4680 S   0  0  0  0  0  1  0  0  0  0  0  0
  186.7580  177.2050  145.7550 C   0  0  0  0  0  0  0  0  0  0  0  0
  185.5180  179.2800  145.1190 C   0  0  0  0  0  3  0  0  0  0  0  0
  186.0260  176.8280  143.3690 C   0  0  0  0  0  3  0  0  0  0  0  0
  185.8930  178.3720  146.0210 C   0  0  0  0  0  3  0  0  0  0  0  0
  186.7770  176.5190  144.6030 C   0  0  0  0  0  3  0  0  0  0  0  0
  1  7  1  0  0  0  0
  1  2  1  0  0  0  0
  2 19  1  1  0  0  0
  3  2  1  0  0  0  0
  4  1  2  0  0  0  0
  5  4  1  0  0  0  0
  5  3  2  0  0  0  0
  7  6  1  6  0  0  0
  8  7  1  0  0  0  0
  9  8  1  6  0  0  0
  9 17  1  0  0  0  0
 10 13  2  0  0  0  0
 12 15  1  0  0  0  0
 13 12  1  0  0  0  0
 13  9  1  0  0  0  0
 14 15  1  0  0  0  0
 15 11  2  0  0  0  0
 17 16  1  0  0  0  0
 18 17  2  0  0  0  0
 20 19  1  0  0  0  0
 20 22  1  0  0  0  0
 20 21  1  0  0  0  0
 23 28  2  0  0  0  0
 23 24  1  0  0  0  0
 24 27  1  0  0  0  0
 25 23  1  0  0  0  0
 26 29  1  0  0  0  0
 26 22  1  0  0  0  0
 27 29  2  0  0  0  0
 28 30  1  0  0  0  0
 30 26  2  0  0  0  0
M  END
>  <MODEL>
7

>  <REMARK>
 VINA RESULT:      -6.6      1.931      2.931
  Name = 
  9 active torsions:
  status: ('A' for Active; 'I' for Inactive)
    1  A    between atoms: C_3  and  N_11
    2  A    between atoms: C_3  and  C_19
    3  A    between atoms: C_4  and  C_8
    4  A    between atoms: C_7  and  C_30
    5  A    between atoms: C_8  and  C_12
    6  A    between atoms: C_8  and  C_13
    7  A    between atoms: C_10  and  C_25
    8  A    between atoms: N_11  and  C_25
    9  A    between atoms: C_13  and  C_30
                            x       y       z     vdW  Elec       q    Type
                         _______ _______ _______ _____ _____    ______ ____

>  <TORSDO>
F 9

$$$$
=
 OpenBabel11052417153D

 30 31  0  0  1  0  0  0  0  0999 V2000
  188.4020  176.2320  145.8530 C   0  0  0  0  0  0  0  0  0  0  0  0
  187.7860  177.2760  145.2080 C   0  0  0  0  0  0  0  0  0  0  0  0
  186.6810  177.6280  145.9510 C   0  0  0  0  0  3  0  0  0  0  0  0
  187.7410  175.9240  146.9830 N   0  0  0  0  0  2  0  0  0  0  0  0
  186.6930  176.7730  147.0430 C   0  0  0  0  0  3  0  0  0  0  0  0
  189.6750  174.1130  145.9110 C   0  0  0  0  0  1  0  0  0  0  0  0
  189.6440  175.5390  145.3930 C   0  0  2  0  0  3  0  0  0  0  0  0
  190.8720  176.3010  145.8650 C   0  0  0  0  0  2  0  0  0  0  0  0
  192.1160  175.8580  145.0990 C   0  0  2  0  0  3  0  0  0  0  0  0
  193.6520  176.5290  146.7660 O   0  0  0  0  0  0  0  0  0  0  0  0
  193.0830  173.1760  144.2510 O   0  0  0  0  0  0  0  0  0  0  0  0
  193.9540  174.3290  146.1050 N   0  0  0  0  0  2  0  0  0  0  0  0
  193.2720  175.5910  146.0170 C   0  0  0  0  0  0  0  0  0  0  0  0
  194.5330  171.9230  145.6430 C   0  0  0  0  0  1  0  0  0  0  0  0
  193.8010  173.1660  145.2820 C   0  0  0  0  0  0  0  0  0  0  0  0
  193.6030  176.4230  143.1690 O   0  0  0  0  0  0  0  0  0  0  0  0
  192.4900  176.7380  143.9370 C   0  0  0  0  0  0  0  0  0  0  0  0
  191.7890  177.7390  143.6270 O   0  0  0  0  0  1  0  0  0  0  0  0
  188.1890  177.8850  143.9050 C   0  0  0  0  0  2  0  0  0  0  0  0
  187.3770  177.3450  142.8280 N   0  0  0  0  0  0  0  0  0  0  0  0
  186.5710  178.4390  142.3110 C   0  0  0  0  0  1  0  0  0  0  0  0
  188.2900  176.9670  141.7620 C   0  0  0  0  0  2  0  0  0  0  0  0
  190.0080  172.7300  141.7940 C   0  0  0  0  0  0  0  0  0  0  0  0
  188.6760  172.6270  141.1320 C   0  0  0  0  0  2  0  0  0  0  0  0
  190.9200  171.2280  142.1140 S   0  0  0  0  0  1  0  0  0  0  0  0
  188.6760  175.5350  141.9010 C   0  0  0  0  0  0  0  0  0  0  0  0
  187.6060  173.2770  141.9420 C   0  0  0  0  0  3  0  0  0  0  0  0
  190.5950  173.9010  142.0380 C   0  0  0  0  0  3  0  0  0  0  0  0
  187.6060  174.5760  142.2400 C   0  0  0  0  0  3  0  0  0  0  0  0
  189.9820  175.2310  141.8520 C   0  0  0  0  0  3  0  0  0  0  0  0
  1  4  1  0  0  0  0
  2  1  2  0  0  0  0
  2  3  1  0  0  0  0
  3  5  2  0  0  0  0
  4  5  1  0  0  0  0
  7  1  1  0  0  0  0
  7  8  1  0  0  0  0
  7  6  1  1  0  0  0
  9  8  1  1  0  0  0
  9 13  1  0  0  0  0
 11 15  2  0  0  0  0
 13 12  1  0  0  0  0
 13 10  2  0  0  0  0
 15 14  1  0  0  0  0
 15 12  1  0  0  0  0
 16 17  2  0  0  0  0
 17  9  1  0  0  0  0
 18 17  1  0  0  0  0
 19  2  1  0  0  0  0
 20 19  1  0  0  0  0
 21 20  1  0  0  0  0
 22 26  1  0  0  0  0
 22 20  1  0  0  0  0
 23 28  2  0  0  0  0
 23 25  1  0  0  0  0
 24 23  1  0  0  0  0
 24 27  1  0  0  0  0
 26 29  1  0  0  0  0
 27 29  2  0  0  0  0
 30 26  2  0  0  0  0
 30 28  1  0  0  0  0
M  END
>  <MODEL>
8

>  <REMARK>
 VINA RESULT:      -6.6      3.327      5.310
  Name = 
  9 active torsions:
  status: ('A' for Active; 'I' for Inactive)
    1  A    between atoms: C_3  and  N_11
    2  A    between atoms: C_3  and  C_19
    3  A    between atoms: C_4  and  C_8
    4  A    between atoms: C_7  and  C_30
    5  A    between atoms: C_8  and  C_12
    6  A    between atoms: C_8  and  C_13
    7  A    between atoms: C_10  and  C_25
    8  A    between atoms: N_11  and  C_25
    9  A    between atoms: C_13  and  C_30
                            x       y       z     vdW  Elec       q    Type
                         _______ _______ _______ _____ _____    ______ ____

>  <TORSDO>
F 9

$$$$
=
 OpenBabel11052417153D

 30 31  0  0  1  0  0  0  0  0999 V2000
  189.2690  176.7600  144.7090 C   0  0  0  0  0  0  0  0  0  0  0  0
  189.0620  176.3510  146.0030 C   0  0  2  0  0  3  0  0  0  0  0  0
  187.8540  176.8700  146.4140 C   0  0  0  0  0  3  0  0  0  0  0  0
  188.2310  177.5000  144.2800 N   0  0  0  0  0  0  0  0  0  0  0  0
  187.3700  177.5690  145.3180 C   0  0  0  0  0  3  0  0  0  0  0  0
  191.3630  177.6330  143.7260 C   0  0  0  0  0  1  0  0  0  0  0  0
  190.4600  176.4220  143.8720 C   0  0  2  0  0  3  0  0  0  0  0  0
  190.0140  175.9250  142.5060 C   0  0  0  0  0  2  0  0  0  0  0  0
  189.6630  174.4400  142.5530 C   0  0  2  0  0  3  0  0  0  0  0  0
  190.7830  173.9260  140.5360 O   0  0  0  0  0  0  0  0  0  0  0  0
  190.3610  172.1910  144.3710 O   0  0  0  0  0  0  0  0  0  0  0  0
  191.3710  172.5080  142.2720 N   0  0  0  0  0  2  0  0  0  0  0  0
  190.6200  173.6140  141.7440 C   0  0  0  0  0  0  0  0  0  0  0  0
  192.2430  170.8240  143.9270 C   0  0  0  0  0  1  0  0  0  0  0  0
  191.2680  171.8840  143.5570 C   0  0  0  0  0  0  0  0  0  0  0  0
  187.8450  172.8020  142.0380 O   0  0  0  0  0  0  0  0  0  0  0  0
  188.2240  174.1200  142.2530 C   0  0  0  0  0  0  0  0  0  0  0  0
  187.3480  175.0270  142.2260 O   0  0  0  0  0  1  0  0  0  0  0  0
  189.9960  175.5460  146.8470 C   0  0  0  0  0  2  0  0  0  0  0  0
  191.2330  176.2780  147.0610 N   0  0  0  0  0  0  0  0  0  0  0  0
  191.0930  176.9940  148.3180 C   0  0  0  0  0  1  0  0  0  0  0  0
  192.2770  175.2870  147.2650 C   0  0  0  0  0  2  0  0  0  0  0  0
  195.3570  176.3250  144.0480 C   0  0  0  0  0  0  0  0  0  0  0  0
  194.2960  175.5320  143.3600 C   0  0  0  0  0  2  0  0  0  0  0  0
  196.8120  176.7870  143.1220 S   0  0  0  0  0  1  0  0  0  0  0  0
  193.3120  175.4060  146.1990 C   0  0  0  0  0  0  0  0  0  0  0  0
  193.9990  174.2640  144.0860 C   0  0  0  0  0  3  0  0  0  0  0  0
  195.2010  176.8050  145.2810 C   0  0  0  0  0  3  0  0  0  0  0  0
  193.5270  174.2310  145.3320 C   0  0  0  0  0  3  0  0  0  0  0  0
  194.0760  176.5080  146.1900 C   0  0  0  0  0  3  0  0  0  0  0  0
  1  2  1  0  0  0  0
  2  3  1  0  0  0  0
  2 19  1  1  0  0  0
  4  1  2  0  0  0  0
  4  5  1  0  0  0  0
  5  3  2  0  0  0  0
  7  6  1  6  0  0  0
  7  1  1  0  0  0  0
  8  7  1  0  0  0  0
  9  8  1  6  0  0  0
 10 13  2  0  0  0  0
 12 15  1  0  0  0  0
 13 12  1  0  0  0  0
 13  9  1  0  0  0  0
 15 14  1  0  0  0  0
 15 11  2  0  0  0  0
 16 17  2  0  0  0  0
 17  9  1  0  0  0  0
 18 17  1  0  0  0  0
 19 20  1  0  0  0  0
 20 22  1  0  0  0  0
 20 21  1  0  0  0  0
 23 28  2  0  0  0  0
 24 23  1  0  0  0  0
 24 27  1  0  0  0  0
 25 23  1  0  0  0  0
 26 22  1  0  0  0  0
 27 29  2  0  0  0  0
 28 30  1  0  0  0  0
 29 26  1  0  0  0  0
 30 26  2  0  0  0  0
M  END
>  <MODEL>
9

>  <REMARK>
 VINA RESULT:      -6.5      3.587      6.669
  Name = 
  9 active torsions:
  status: ('A' for Active; 'I' for Inactive)
    1  A    between atoms: C_3  and  N_11
    2  A    between atoms: C_3  and  C_19
    3  A    between atoms: C_4  and  C_8
    4  A    between atoms: C_7  and  C_30
    5  A    between atoms: C_8  and  C_12
    6  A    between atoms: C_8  and  C_13
    7  A    between atoms: C_10  and  C_25
    8  A    between atoms: N_11  and  C_25
    9  A    between atoms: C_13  and  C_30
                            x       y       z     vdW  Elec       q    Type
                         _______ _______ _______ _____ _____    ______ ____

>  <TORSDO>
F 9

$$$$
