=
 OpenBabel11052418093D

 28 32  0  0  1  0  0  0  0  0999 V2000
  185.7640  178.0170  142.5850 C   0  0  1  0  0  3  0  0  0  0  0  0
  189.1290  177.0140  145.8430 C   0  0  0  0  0  3  0  0  0  0  0  0
  188.0390  175.1200  140.0510 O   0  0  0  0  0  1  0  0  0  0  0  0
  189.9120  174.9670  144.7940 C   0  0  0  0  0  0  0  0  0  0  0  0
  188.2690  176.4500  143.5390 C   0  0  1  0  0  3  0  0  0  0  0  0
  190.6520  175.5550  147.0270 C   0  0  0  0  0  0  0  0  0  0  0  0
  189.1600  176.1640  144.7270 C   0  0  0  0  0  0  0  0  0  0  0  0
  188.8130  174.1760  142.6780 C   0  0  0  0  0  2  0  0  0  0  0  0
  190.6680  174.6840  145.9370 C   0  0  0  0  0  3  0  0  0  0  0  0
  187.5030  177.3240  140.8300 C   0  0  1  0  0  3  0  0  0  0  0  0
  188.2310  177.9370  143.1810 C   0  0  0  0  0  2  0  0  0  0  0  0
  189.9940  174.0180  143.6300 C   0  0  0  0  0  2  0  0  0  0  0  0
  185.2060  178.2660  140.1330 C   0  0  0  0  0  2  0  0  0  0  0  0
  187.6390  175.8340  141.1840 C   0  0  2  0  0  3  0  0  0  0  0  0
  186.4720  177.5210  139.7030 C   0  0  0  0  0  2  0  0  0  0  0  0
  191.5970  175.1870  148.4540 Cl  0  0  0  0  0  0  0  0  0  0  0  0
  189.8780  176.7160  146.9840 C   0  0  0  0  0  3  0  0  0  0  0  0
  188.6720  175.6440  142.2980 C   0  0  1  0  0  3  0  0  0  0  0  0
  184.7190  177.7670  141.4890 C   0  0  0  0  0  2  0  0  0  0  0  0
  187.2080  178.1940  142.0730 C   0  0  2  0  0  3  0  0  0  0  0  0
  185.3410  179.0590  143.6460 C   0  0  0  0  0  2  0  0  0  0  0  0
  184.8690  178.5480  144.9450 N   0  0  0  0  0  0  0  0  0  0  0  0
  185.6330  178.3300  147.1990 C   0  0  0  0  0  0  0  0  0  0  0  0
  185.4850  179.2870  146.0380 C   0  0  0  0  0  2  0  0  0  0  0  0
  185.1900  177.1400  145.1480 C   0  0  0  0  0  2  0  0  0  0  0  0
  185.4980  176.9430  146.6180 C   0  0  0  0  0  2  0  0  0  0  0  0
  186.8830  178.4860  147.7970 O   0  0  0  0  0  1  0  0  0  0  0  0
  184.6260  178.5550  148.1370 O   0  0  0  0  0  1  0  0  0  0  0  0
  1 21  1  6  0  0  0
  2 17  1  0  0  0  0
  4  9  2  0  0  0  0
  5 11  1  6  0  0  0
  5  7  1  0  0  0  0
  6 16  1  0  0  0  0
  7  4  1  0  0  0  0
  7  2  2  0  0  0  0
  8 12  1  0  0  0  0
  9  6  1  0  0  0  0
 10 15  1  6  0  0  0
 10 14  1  0  0  0  0
 10 20  1  0  0  0  0
 12  4  1  0  0  0  0
 13 19  1  0  0  0  0
 14  3  1  6  0  0  0
 14 18  1  0  0  0  0
 15 13  1  0  0  0  0
 17  6  2  0  0  0  0
 18  8  1  1  0  0  0
 18  5  1  0  0  0  0
 19  1  1  0  0  0  0
 20  1  1  0  0  0  0
 20 11  1  1  0  0  0
 21 22  1  0  0  0  0
 22 25  1  0  0  0  0
 22 24  1  0  0  0  0
 23 27  1  0  0  0  0
 23 28  1  0  0  0  0
 24 23  1  0  0  0  0
 25 26  1  0  0  0  0
 26 23  1  0  0  0  0
M  END
>  <MODEL>
1

>  <REMARK>
 VINA RESULT:      -8.4      0.000      0.000
  Name = 
  2 active torsions:
  status: ('A' for Active; 'I' for Inactive)
    1  A    between atoms: C_1  and  C_2
    2  A    between atoms: C_2  and  N_3
                            x       y       z     vdW  Elec       q    Type
                         _______ _______ _______ _____ _____    ______ ____

>  <TORSDO>
F 2

$$$$
=
 OpenBabel11052418093D

 28 32  0  0  1  0  0  0  0  0999 V2000
  191.1850  174.9090  143.9770 C   0  0  1  0  0  3  0  0  0  0  0  0
  187.6970  177.1500  141.5770 C   0  0  0  0  0  3  0  0  0  0  0  0
  189.8500  177.4940  147.3720 O   0  0  0  0  0  1  0  0  0  0  0  0
  186.5240  177.9870  143.5340 C   0  0  0  0  0  0  0  0  0  0  0  0
  188.8050  176.8970  143.8300 C   0  0  1  0  0  3  0  0  0  0  0  0
  185.5060  178.1460  141.3390 C   0  0  0  0  0  0  0  0  0  0  0  0
  187.6760  177.4000  142.9580 C   0  0  0  0  0  0  0  0  0  0  0  0
  187.4040  177.4320  145.8210 C   0  0  0  0  0  2  0  0  0  0  0  0
  185.4570  178.3730  142.7160 C   0  0  0  0  0  3  0  0  0  0  0  0
  191.2420  176.9830  145.4860 C   0  0  1  0  0  3  0  0  0  0  0  0
  190.1770  177.1020  143.1870 C   0  0  0  0  0  2  0  0  0  0  0  0
  186.4420  178.2880  145.0050 C   0  0  0  0  0  2  0  0  0  0  0  0
  192.9370  175.0640  145.7910 C   0  0  0  0  0  2  0  0  0  0  0  0
  189.8450  176.8730  146.1190 C   0  0  2  0  0  3  0  0  0  0  0  0
  192.2990  176.3200  146.3890 C   0  0  0  0  0  2  0  0  0  0  0  0
  184.1620  178.6270  140.3260 Cl  0  0  0  0  0  0  0  0  0  0  0  0
  186.6220  177.5290  140.7710 C   0  0  0  0  0  3  0  0  0  0  0  0
  188.8000  177.5410  145.2220 C   0  0  1  0  0  3  0  0  0  0  0  0
  191.8810  174.1820  145.1360 C   0  0  0  0  0  2  0  0  0  0  0  0
  191.2680  176.4480  144.0360 C   0  0  2  0  0  3  0  0  0  0  0  0
  191.4820  174.3160  142.5800 C   0  0  0  0  0  2  0  0  0  0  0  0
  190.4590  173.4380  141.9860 N   0  0  0  0  0  0  0  0  0  0  0  0
  188.8210  173.4700  140.2470 C   0  0  0  0  0  0  0  0  0  0  0  0
  190.2690  173.7550  140.5780 C   0  0  0  0  0  2  0  0  0  0  0  0
  189.1590  173.5680  142.6340 C   0  0  0  0  0  2  0  0  0  0  0  0
  188.0940  173.4050  141.5680 C   0  0  0  0  0  2  0  0  0  0  0  0
  188.2970  174.4920  139.4550 O   0  0  0  0  0  1  0  0  0  0  0  0
  188.7130  172.2500  139.5810 O   0  0  0  0  0  1  0  0  0  0  0  0
  1 21  1  6  0  0  0
  1 20  1  0  0  0  0
  1 19  1  0  0  0  0
  2  7  1  0  0  0  0
  4 12  1  0  0  0  0
  5 11  1  6  0  0  0
  5 18  1  0  0  0  0
  6  9  2  0  0  0  0
  7  4  2  0  0  0  0
  7  5  1  0  0  0  0
  9  4  1  0  0  0  0
 10 14  1  0  0  0  0
 10 15  1  1  0  0  0
 12  8  1  0  0  0  0
 13 15  1  0  0  0  0
 14  3  1  1  0  0  0
 16  6  1  0  0  0  0
 17  6  1  0  0  0  0
 17  2  2  0  0  0  0
 18  8  1  1  0  0  0
 18 14  1  0  0  0  0
 19 13  1  0  0  0  0
 20 11  1  6  0  0  0
 20 10  1  0  0  0  0
 22 21  1  0  0  0  0
 22 25  1  0  0  0  0
 23 24  1  0  0  0  0
 23 26  1  0  0  0  0
 24 22  1  0  0  0  0
 26 25  1  0  0  0  0
 27 23  1  0  0  0  0
 28 23  1  0  0  0  0
M  END
>  <MODEL>
2

>  <REMARK>
 VINA RESULT:      -8.2      3.175      7.230
  Name = 
  2 active torsions:
  status: ('A' for Active; 'I' for Inactive)
    1  A    between atoms: C_1  and  C_2
    2  A    between atoms: C_2  and  N_3
                            x       y       z     vdW  Elec       q    Type
                         _______ _______ _______ _____ _____    ______ ____

>  <TORSDO>
F 2

$$$$
=
 OpenBabel11052418093D

 28 32  0  0  1  0  0  0  0  0999 V2000
  191.7900  175.1120  143.8480 C   0  0  1  0  0  3  0  0  0  0  0  0
  187.6780  177.5280  143.4030 C   0  0  0  0  0  3  0  0  0  0  0  0
  190.9540  175.4510  148.2270 O   0  0  0  0  0  1  0  0  0  0  0  0
  186.8670  177.0880  145.6500 C   0  0  0  0  0  0  0  0  0  0  0  0
  189.2530  176.4400  145.0470 C   0  0  1  0  0  3  0  0  0  0  0  0
  185.4000  178.0840  143.9960 C   0  0  0  0  0  0  0  0  0  0  0  0
  187.9230  177.0770  144.7090 C   0  0  0  0  0  0  0  0  0  0  0  0
  188.2560  175.6810  147.2010 C   0  0  0  0  0  2  0  0  0  0  0  0
  185.6200  177.6100  145.2910 C   0  0  0  0  0  3  0  0  0  0  0  0
  191.9630  176.1780  146.1760 C   0  0  1  0  0  3  0  0  0  0  0  0
  190.4330  177.1810  144.4190 C   0  0  0  0  0  2  0  0  0  0  0  0
  187.0660  176.6260  147.0670 C   0  0  0  0  0  2  0  0  0  0  0  0
  193.8600  174.7050  145.2390 C   0  0  0  0  0  2  0  0  0  0  0  0
  190.7470  175.5180  146.8470 C   0  0  2  0  0  3  0  0  0  0  0  0
  193.2440  175.3760  146.4680 C   0  0  0  0  0  2  0  0  0  0  0  0
  183.8340  178.7310  143.5560 Cl  0  0  0  0  0  0  0  0  0  0  0  0
  186.4260  178.0380  143.0500 C   0  0  0  0  0  3  0  0  0  0  0  0
  189.4780  176.3240  146.5590 C   0  0  1  0  0  3  0  0  0  0  0  0
  192.7800  174.0640  144.3750 C   0  0  0  0  0  2  0  0  0  0  0  0
  191.7360  176.4190  144.6660 C   0  0  2  0  0  3  0  0  0  0  0  0
  191.8430  175.3300  142.3180 C   0  0  0  0  0  2  0  0  0  0  0  0
  190.9160  174.5400  141.4900 N   0  0  0  0  0  0  0  0  0  0  0  0
  189.2720  172.8220  141.7330 C   0  0  0  0  0  0  0  0  0  0  0  0
  189.7400  174.1600  142.2590 C   0  0  0  0  0  2  0  0  0  0  0  0
  191.5160  173.3070  140.9910 C   0  0  0  0  0  2  0  0  0  0  0  0
  190.4350  172.2460  140.9610 C   0  0  0  0  0  2  0  0  0  0  0  0
  188.9270  171.9810  142.7900 O   0  0  0  0  0  1  0  0  0  0  0  0
  188.1780  172.9960  140.8870 O   0  0  0  0  0  1  0  0  0  0  0  0
  1 21  1  6  0  0  0
  1 19  1  0  0  0  0
  1 20  1  0  0  0  0
  2  7  1  0  0  0  0
  4 12  1  0  0  0  0
  5 11  1  1  0  0  0
  5 18  1  0  0  0  0
  6  9  2  0  0  0  0
  7  5  1  0  0  0  0
  7  4  2  0  0  0  0
  9  4  1  0  0  0  0
 10 15  1  6  0  0  0
 10 14  1  0  0  0  0
 12  8  1  0  0  0  0
 13 15  1  0  0  0  0
 14  3  1  1  0  0  0
 16  6  1  0  0  0  0
 17  2  2  0  0  0  0
 17  6  1  0  0  0  0
 18 14  1  0  0  0  0
 18  8  1  1  0  0  0
 19 13  1  0  0  0  0
 20 11  1  1  0  0  0
 20 10  1  0  0  0  0
 22 24  1  0  0  0  0
 22 21  1  0  0  0  0
 23 24  1  0  0  0  0
 23 27  1  0  0  0  0
 25 22  1  0  0  0  0
 26 25  1  0  0  0  0
 26 23  1  0  0  0  0
 28 23  1  0  0  0  0
M  END
>  <MODEL>
3

>  <REMARK>
 VINA RESULT:      -8.0      3.335      7.126
  Name = 
  2 active torsions:
  status: ('A' for Active; 'I' for Inactive)
    1  A    between atoms: C_1  and  C_2
    2  A    between atoms: C_2  and  N_3
                            x       y       z     vdW  Elec       q    Type
                         _______ _______ _______ _____ _____    ______ ____

>  <TORSDO>
F 2

$$$$
=
 OpenBabel11052418093D

 28 32  0  0  1  0  0  0  0  0999 V2000
  190.4740  175.3910  144.7370 C   0  0  1  0  0  3  0  0  0  0  0  0
  187.0850  177.2640  141.9170 C   0  0  0  0  0  3  0  0  0  0  0  0
  188.2970  177.5650  147.9810 O   0  0  0  0  0  1  0  0  0  0  0  0
  185.5310  177.8150  143.7020 C   0  0  0  0  0  0  0  0  0  0  0  0
  187.8780  177.0360  144.3020 C   0  0  1  0  0  3  0  0  0  0  0  0
  184.8300  177.9590  141.3850 C   0  0  0  0  0  0  0  0  0  0  0  0
  186.8270  177.4280  143.2870 C   0  0  0  0  0  0  0  0  0  0  0  0
  186.1390  177.2550  146.0750 C   0  0  0  0  0  2  0  0  0  0  0  0
  184.5490  178.0960  142.7450 C   0  0  0  0  0  3  0  0  0  0  0  0
  190.0080  177.3620  146.3130 C   0  0  1  0  0  3  0  0  0  0  0  0
  189.2840  177.4660  143.8840 C   0  0  0  0  0  2  0  0  0  0  0  0
  185.1920  178.0160  145.1530 C   0  0  0  0  0  2  0  0  0  0  0  0
  191.9010  175.6810  146.8020 C   0  0  0  0  0  2  0  0  0  0  0  0
  188.5650  177.0230  146.7210 C   0  0  2  0  0  3  0  0  0  0  0  0
  191.0080  176.8010  147.3410 C   0  0  0  0  0  2  0  0  0  0  0  0
  183.5940  178.3080  140.1960 Cl  0  0  0  0  0  0  0  0  0  0  0  0
  186.0960  177.5360  140.9710 C   0  0  0  0  0  3  0  0  0  0  0  0
  187.5760  177.5910  145.7000 C   0  0  1  0  0  3  0  0  0  0  0  0
  191.0930  174.7010  145.9610 C   0  0  0  0  0  2  0  0  0  0  0  0
  190.3240  176.9210  144.8650 C   0  0  2  0  0  3  0  0  0  0  0  0
  191.0550  174.9280  143.3810 C   0  0  0  0  0  2  0  0  0  0  0  0
  190.3140  173.8870  142.6480 N   0  0  0  0  0  0  0  0  0  0  0  0
  188.9130  173.6650  140.7250 C   0  0  0  0  0  0  0  0  0  0  0  0
  190.2220  174.2250  141.2350 C   0  0  0  0  0  2  0  0  0  0  0  0
  188.9500  173.7160  143.1360 C   0  0  0  0  0  2  0  0  0  0  0  0
  188.0710  173.3870  141.9470 C   0  0  0  0  0  2  0  0  0  0  0  0
  188.2790  174.5940  139.9000 O   0  0  0  0  0  1  0  0  0  0  0  0
  189.1400  172.4820  140.0220 O   0  0  0  0  0  1  0  0  0  0  0  0
  1 21  1  6  0  0  0
  1 20  1  0  0  0  0
  1 19  1  0  0  0  0
  2  7  1  0  0  0  0
  4 12  1  0  0  0  0
  5 11  1  6  0  0  0
  5 18  1  0  0  0  0
  6  9  2  0  0  0  0
  7  4  2  0  0  0  0
  7  5  1  0  0  0  0
  9  4  1  0  0  0  0
 10 14  1  0  0  0  0
 10 15  1  1  0  0  0
 12  8  1  0  0  0  0
 13 15  1  0  0  0  0
 14  3  1  1  0  0  0
 16  6  1  0  0  0  0
 17  6  1  0  0  0  0
 17  2  2  0  0  0  0
 18  8  1  1  0  0  0
 18 14  1  0  0  0  0
 19 13  1  0  0  0  0
 20 11  1  6  0  0  0
 20 10  1  0  0  0  0
 22 25  1  0  0  0  0
 22 21  1  0  0  0  0
 23 24  1  0  0  0  0
 23 26  1  0  0  0  0
 24 22  1  0  0  0  0
 26 25  1  0  0  0  0
 27 23  1  0  0  0  0
 28 23  1  0  0  0  0
M  END
>  <MODEL>
4

>  <REMARK>
 VINA RESULT:      -7.9      2.990      7.152
  Name = 
  2 active torsions:
  status: ('A' for Active; 'I' for Inactive)
    1  A    between atoms: C_1  and  C_2
    2  A    between atoms: C_2  and  N_3
                            x       y       z     vdW  Elec       q    Type
                         _______ _______ _______ _____ _____    ______ ____

>  <TORSDO>
F 2

$$$$
=
 OpenBabel11052418093D

 28 32  0  0  1  0  0  0  0  0999 V2000
  189.2130  175.3650  145.2970 C   0  0  1  0  0  3  0  0  0  0  0  0
  185.9720  177.2260  142.3010 C   0  0  0  0  0  3  0  0  0  0  0  0
  187.5630  178.3630  148.1750 O   0  0  0  0  0  1  0  0  0  0  0  0
  184.6190  178.3020  144.0090 C   0  0  0  0  0  0  0  0  0  0  0  0
  186.8600  177.2880  144.6620 C   0  0  1  0  0  3  0  0  0  0  0  0
  183.8140  178.1550  141.7260 C   0  0  0  0  0  0  0  0  0  0  0  0
  185.8200  177.6570  143.6280 C   0  0  0  0  0  0  0  0  0  0  0  0
  185.2770  178.0660  146.4230 C   0  0  0  0  0  2  0  0  0  0  0  0
  183.6350  178.5620  143.0490 C   0  0  0  0  0  3  0  0  0  0  0  0
  189.1280  177.6230  146.5140 C   0  0  1  0  0  3  0  0  0  0  0  0
  188.2870  177.4210  144.1300 C   0  0  0  0  0  2  0  0  0  0  0  0
  184.3970  178.7950  145.4120 C   0  0  0  0  0  2  0  0  0  0  0  0
  190.7840  175.7810  147.2320 C   0  0  0  0  0  2  0  0  0  0  0  0
  187.6780  177.5810  147.0220 C   0  0  2  0  0  3  0  0  0  0  0  0
  190.0940  177.0980  147.5930 C   0  0  0  0  0  2  0  0  0  0  0  0
  182.5740  178.4820  140.5350 Cl  0  0  0  0  0  0  0  0  0  0  0  0
  184.9790  177.4810  141.3530 C   0  0  0  0  0  3  0  0  0  0  0  0
  186.7230  178.1120  145.9490 C   0  0  1  0  0  3  0  0  0  0  0  0
  189.7950  174.8070  146.6030 C   0  0  0  0  0  2  0  0  0  0  0  0
  189.2920  176.8990  145.1580 C   0  0  2  0  0  3  0  0  0  0  0  0
  189.6410  174.5960  144.0260 C   0  0  0  0  0  2  0  0  0  0  0  0
  191.0400  174.7400  143.5870 N   0  0  0  0  0  0  0  0  0  0  0  0
  192.3530  174.5320  141.6020 C   0  0  0  0  0  0  0  0  0  0  0  0
  191.0970  175.1370  142.1880 C   0  0  0  0  0  2  0  0  0  0  0  0
  191.8000  173.5010  143.7110 C   0  0  0  0  0  2  0  0  0  0  0  0
  192.7770  173.4400  142.5540 C   0  0  0  0  0  2  0  0  0  0  0  0
  192.0890  174.0000  140.3400 O   0  0  0  0  0  1  0  0  0  0  0  0
  193.3530  175.5000  141.5090 O   0  0  0  0  0  1  0  0  0  0  0  0
  1 21  1  6  0  0  0
  1 19  1  0  0  0  0
  2  7  1  0  0  0  0
  4 12  1  0  0  0  0
  5 11  1  6  0  0  0
  5 18  1  0  0  0  0
  6  9  2  0  0  0  0
  7  4  2  0  0  0  0
  7  5  1  0  0  0  0
  9  4  1  0  0  0  0
 10 14  1  0  0  0  0
 10 15  1  1  0  0  0
 12  8  1  0  0  0  0
 13 15  1  0  0  0  0
 14  3  1  1  0  0  0
 16  6  1  0  0  0  0
 17  6  1  0  0  0  0
 17  2  2  0  0  0  0
 18  8  1  1  0  0  0
 18 14  1  0  0  0  0
 19 13  1  0  0  0  0
 20 11  1  6  0  0  0
 20  1  1  0  0  0  0
 20 10  1  0  0  0  0
 22 25  1  0  0  0  0
 22 21  1  0  0  0  0
 23 24  1  0  0  0  0
 23 26  1  0  0  0  0
 24 22  1  0  0  0  0
 26 25  1  0  0  0  0
 27 23  1  0  0  0  0
 28 23  1  0  0  0  0
M  END
>  <MODEL>
5

>  <REMARK>
 VINA RESULT:      -7.6      3.336      7.571
  Name = 
  2 active torsions:
  status: ('A' for Active; 'I' for Inactive)
    1  A    between atoms: C_1  and  C_2
    2  A    between atoms: C_2  and  N_3
                            x       y       z     vdW  Elec       q    Type
                         _______ _______ _______ _____ _____    ______ ____

>  <TORSDO>
F 2

$$$$
=
 OpenBabel11052418093D

 28 32  0  0  1  0  0  0  0  0999 V2000
  191.8990  173.4600  142.8450 C   0  0  1  0  0  3  0  0  0  0  0  0
  188.9760  175.7650  145.8590 C   0  0  0  0  0  3  0  0  0  0  0  0
  188.3770  173.5890  140.0940 O   0  0  0  0  0  1  0  0  0  0  0  0
  187.3690  176.4730  144.1790 C   0  0  0  0  0  0  0  0  0  0  0  0
  189.1970  174.8280  143.5260 C   0  0  1  0  0  3  0  0  0  0  0  0
  187.2550  177.3660  146.4310 C   0  0  0  0  0  0  0  0  0  0  0  0
  188.4690  175.6660  144.5540 C   0  0  0  0  0  0  0  0  0  0  0  0
  187.7630  175.8670  141.7730 C   0  0  0  0  0  2  0  0  0  0  0  0
  186.7590  177.3020  145.1280 C   0  0  0  0  0  3  0  0  0  0  0  0
  189.7660  172.5470  141.7490 C   0  0  1  0  0  3  0  0  0  0  0  0
  189.6910  173.4990  144.0980 C   0  0  0  0  0  2  0  0  0  0  0  0
  186.7740  176.4080  142.8000 C   0  0  0  0  0  2  0  0  0  0  0  0
  192.1010  171.7740  140.9740 C   0  0  0  0  0  2  0  0  0  0  0  0
  189.1800  173.8600  141.2060 C   0  0  2  0  0  3  0  0  0  0  0  0
  190.6030  171.8390  140.6670 C   0  0  0  0  0  2  0  0  0  0  0  0
  186.4880  178.4100  147.6080 Cl  0  0  0  0  0  0  0  0  0  0  0  0
  188.3670  176.6030  146.7950 C   0  0  0  0  0  3  0  0  0  0  0  0
  188.3430  174.5540  142.2830 C   0  0  1  0  0  3  0  0  0  0  0  0
  192.5980  173.1050  141.5250 C   0  0  0  0  0  2  0  0  0  0  0  0
  190.5440  172.7570  143.0680 C   0  0  2  0  0  3  0  0  0  0  0  0
  192.8260  173.4450  144.0830 C   0  0  0  0  0  2  0  0  0  0  0  0
  193.3440  174.7410  144.5550 N   0  0  0  0  0  0  0  0  0  0  0  0
  193.0040  176.2950  146.3390 C   0  0  0  0  0  0  0  0  0  0  0  0
  193.2330  174.8380  146.0040 C   0  0  0  0  0  2  0  0  0  0  0  0
  192.6200  175.8760  143.9940 C   0  0  0  0  0  2  0  0  0  0  0  0
  192.5560  176.9540  145.0570 C   0  0  0  0  0  2  0  0  0  0  0  0
  192.0190  176.4160  147.3170 O   0  0  0  0  0  1  0  0  0  0  0  0
  194.1910  176.8760  146.7850 O   0  0  0  0  0  1  0  0  0  0  0  0
  1 20  1  0  0  0  0
  1 21  1  1  0  0  0
  2 17  1  0  0  0  0
  4  7  1  0  0  0  0
  4  9  2  0  0  0  0
  5 11  1  1  0  0  0
  5  7  1  0  0  0  0
  6 17  2  0  0  0  0
  6 16  1  0  0  0  0
  7  2  2  0  0  0  0
  8 12  1  0  0  0  0
  9  6  1  0  0  0  0
 10 15  1  6  0  0  0
 10 20  1  0  0  0  0
 12  4  1  0  0  0  0
 13 19  1  0  0  0  0
 14  3  1  6  0  0  0
 14 10  1  0  0  0  0
 14 18  1  0  0  0  0
 15 13  1  0  0  0  0
 18  8  1  6  0  0  0
 18  5  1  0  0  0  0
 19  1  1  0  0  0  0
 20 11  1  1  0  0  0
 21 22  1  0  0  0  0
 22 24  1  0  0  0  0
 23 28  1  0  0  0  0
 23 27  1  0  0  0  0
 24 23  1  0  0  0  0
 25 22  1  0  0  0  0
 25 26  1  0  0  0  0
 26 23  1  0  0  0  0
M  END
>  <MODEL>
6

>  <REMARK>
 VINA RESULT:      -7.4      3.409      6.126
  Name = 
  2 active torsions:
  status: ('A' for Active; 'I' for Inactive)
    1  A    between atoms: C_1  and  C_2
    2  A    between atoms: C_2  and  N_3
                            x       y       z     vdW  Elec       q    Type
                         _______ _______ _______ _____ _____    ______ ____

>  <TORSDO>
F 2

$$$$
=
 OpenBabel11052418093D

 28 32  0  0  1  0  0  0  0  0999 V2000
  186.0280  177.5120  144.9260 C   0  0  1  0  0  3  0  0  0  0  0  0
  189.9230  174.7630  145.3950 C   0  0  0  0  0  3  0  0  0  0  0  0
  187.4170  179.2990  148.7810 O   0  0  0  0  0  1  0  0  0  0  0  0
  191.0440  176.1690  147.0290 C   0  0  0  0  0  0  0  0  0  0  0  0
  188.6340  176.6860  146.3980 C   0  0  1  0  0  3  0  0  0  0  0  0
  192.2290  174.3310  145.9810 C   0  0  0  0  0  0  0  0  0  0  0  0
  189.8740  175.8260  146.3100 C   0  0  0  0  0  0  0  0  0  0  0  0
  189.9420  178.3000  147.7750 C   0  0  0  0  0  2  0  0  0  0  0  0
  192.2060  175.4050  146.8720 C   0  0  0  0  0  3  0  0  0  0  0  0
  186.1130  177.7650  147.4780 C   0  0  1  0  0  3  0  0  0  0  0  0
  187.3460  175.8640  146.3390 C   0  0  0  0  0  2  0  0  0  0  0  0
  191.0560  177.2900  148.0300 C   0  0  0  0  0  2  0  0  0  0  0  0
  184.1820  178.7760  146.0990 C   0  0  0  0  0  2  0  0  0  0  0  0
  187.4370  178.5350  147.6120 C   0  0  2  0  0  3  0  0  0  0  0  0
  184.9210  178.7410  147.4390 C   0  0  0  0  0  2  0  0  0  0  0  0
  193.6900  173.3860  145.7890 Cl  0  0  0  0  0  0  0  0  0  0  0  0
  191.0910  174.0140  145.2370 C   0  0  0  0  0  3  0  0  0  0  0  0
  188.6160  177.5600  147.6580 C   0  0  1  0  0  3  0  0  0  0  0  0
  185.1690  178.7830  144.9380 C   0  0  0  0  0  2  0  0  0  0  0  0
  186.1260  176.7850  146.2830 C   0  0  2  0  0  3  0  0  0  0  0  0
  185.7630  176.5720  143.7270 C   0  0  0  0  0  2  0  0  0  0  0  0
  186.7450  176.5830  142.6280 N   0  0  0  0  0  0  0  0  0  0  0  0
  188.5240  175.2410  141.7670 C   0  0  0  0  0  0  0  0  0  0  0  0
  187.0870  175.2230  142.2360 C   0  0  0  0  0  2  0  0  0  0  0  0
  187.9910  177.2490  142.9930 C   0  0  0  0  0  2  0  0  0  0  0  0
  189.1240  176.5190  142.3000 C   0  0  0  0  0  2  0  0  0  0  0  0
  189.2100  174.1360  142.2700 O   0  0  0  0  0  1  0  0  0  0  0  0
  188.5730  175.2350  140.3730 O   0  0  0  0  0  1  0  0  0  0  0  0
  1 21  1  6  0  0  0
  1 19  1  0  0  0  0
  1 20  1  0  0  0  0
  2  7  1  0  0  0  0
  4 12  1  0  0  0  0
  5 11  1  1  0  0  0
  5 18  1  0  0  0  0
  6  9  2  0  0  0  0
  7  5  1  0  0  0  0
  7  4  2  0  0  0  0
  8 12  1  0  0  0  0
  9  4  1  0  0  0  0
 10 15  1  6  0  0  0
 10 14  1  0  0  0  0
 13 15  1  0  0  0  0
 14 18  1  0  0  0  0
 14  3  1  1  0  0  0
 16  6  1  0  0  0  0
 17  2  2  0  0  0  0
 17  6  1  0  0  0  0
 18  8  1  6  0  0  0
 19 13  1  0  0  0  0
 20 11  1  6  0  0  0
 20 10  1  0  0  0  0
 22 25  1  0  0  0  0
 22 21  1  0  0  0  0
 23 24  1  0  0  0  0
 23 27  1  0  0  0  0
 23 26  1  0  0  0  0
 24 22  1  0  0  0  0
 26 25  1  0  0  0  0
 28 23  1  0  0  0  0
M  END
>  <MODEL>
7

>  <REMARK>
 VINA RESULT:      -7.3      1.948      5.343
  Name = 
  2 active torsions:
  status: ('A' for Active; 'I' for Inactive)
    1  A    between atoms: C_1  and  C_2
    2  A    between atoms: C_2  and  N_3
                            x       y       z     vdW  Elec       q    Type
                         _______ _______ _______ _____ _____    ______ ____

>  <TORSDO>
F 2

$$$$
=
 OpenBabel11052418093D

 28 32  0  0  1  0  0  0  0  0999 V2000
  189.3390  176.6190  146.5270 C   0  0  1  0  0  3  0  0  0  0  0  0
  188.4540  173.8430  142.7250 C   0  0  0  0  0  3  0  0  0  0  0  0
  193.6020  176.1660  145.2590 O   0  0  0  0  0  1  0  0  0  0  0  0
  190.6000  174.1880  141.6390 C   0  0  0  0  0  0  0  0  0  0  0  0
  190.2580  175.0550  144.0070 C   0  0  1  0  0  3  0  0  0  0  0  0
  188.7990  173.0770  140.4570 C   0  0  0  0  0  0  0  0  0  0  0  0
  189.7780  174.3030  142.7860 C   0  0  0  0  0  0  0  0  0  0  0  0
  192.2910  175.7010  142.7190 C   0  0  0  0  0  2  0  0  0  0  0  0
  190.1090  173.5580  140.4910 C   0  0  0  0  0  3  0  0  0  0  0  0
  191.6730  175.5520  146.5450 C   0  0  1  0  0  3  0  0  0  0  0  0
  189.7620  174.4300  145.3110 C   0  0  0  0  0  2  0  0  0  0  0  0
  192.0300  174.6530  141.6420 C   0  0  0  0  0  2  0  0  0  0  0  0
  190.9450  177.2000  148.3890 C   0  0  0  0  0  2  0  0  0  0  0  0
  192.2080  176.0930  145.2090 C   0  0  2  0  0  3  0  0  0  0  0  0
  192.1010  176.4650  147.7090 C   0  0  0  0  0  2  0  0  0  0  0  0
  188.1920  172.2950  139.0130 Cl  0  0  0  0  0  0  0  0  0  0  0  0
  187.9690  173.2260  141.5700 C   0  0  0  0  0  3  0  0  0  0  0  0
  191.7860  175.1770  144.0570 C   0  0  1  0  0  3  0  0  0  0  0  0
  189.9690  177.7480  147.3550 C   0  0  0  0  0  2  0  0  0  0  0  0
  190.1470  175.3060  146.5050 C   0  0  2  0  0  3  0  0  0  0  0  0
  187.8240  176.4210  146.7640 C   0  0  0  0  0  2  0  0  0  0  0  0
  186.9230  176.6670  145.6250 N   0  0  0  0  0  0  0  0  0  0  0  0
  185.9880  178.4990  144.4080 C   0  0  0  0  0  0  0  0  0  0  0  0
  187.2690  177.9150  144.9600 C   0  0  0  0  0  2  0  0  0  0  0  0
  185.5240  176.7700  146.0250 C   0  0  0  0  0  2  0  0  0  0  0  0
  184.8630  177.8010  145.1330 C   0  0  0  0  0  2  0  0  0  0  0  0
  185.9410  179.8720  144.6470 O   0  0  0  0  0  1  0  0  0  0  0  0
  185.9000  178.2510  143.0390 O   0  0  0  0  0  1  0  0  0  0  0  0
  1 21  1  1  0  0  0
  1 19  1  0  0  0  0
  2  7  1  0  0  0  0
  4 12  1  0  0  0  0
  4  7  2  0  0  0  0
  5 18  1  0  0  0  0
  5 11  1  1  0  0  0
  6  9  2  0  0  0  0
  6 17  1  0  0  0  0
  7  5  1  0  0  0  0
  9  4  1  0  0  0  0
 10 15  1  1  0  0  0
 12  8  1  0  0  0  0
 14  3  1  1  0  0  0
 14 10  1  0  0  0  0
 15 13  1  0  0  0  0
 16  6  1  0  0  0  0
 17  2  2  0  0  0  0
 18  8  1  6  0  0  0
 18 14  1  0  0  0  0
 19 13  1  0  0  0  0
 20 11  1  6  0  0  0
 20  1  1  0  0  0  0
 20 10  1  0  0  0  0
 22 25  1  0  0  0  0
 22 21  1  0  0  0  0
 23 27  1  0  0  0  0
 23 24  1  0  0  0  0
 23 26  1  0  0  0  0
 24 22  1  0  0  0  0
 26 25  1  0  0  0  0
 28 23  1  0  0  0  0
M  END
>  <MODEL>
8

>  <REMARK>
 VINA RESULT:      -7.3      3.193      5.688
  Name = 
  2 active torsions:
  status: ('A' for Active; 'I' for Inactive)
    1  A    between atoms: C_1  and  C_2
    2  A    between atoms: C_2  and  N_3
                            x       y       z     vdW  Elec       q    Type
                         _______ _______ _______ _____ _____    ______ ____

>  <TORSDO>
F 2

$$$$
=
 OpenBabel11052418093D

 28 32  0  0  1  0  0  0  0  0999 V2000
  189.0880  176.8560  145.0760 C   0  0  1  0  0  3  0  0  0  0  0  0
  193.0660  176.1790  142.4940 C   0  0  0  0  0  3  0  0  0  0  0  0
  191.5100  175.0720  148.3830 O   0  0  0  0  0  1  0  0  0  0  0  0
  194.5670  175.9110  144.3860 C   0  0  0  0  0  0  0  0  0  0  0  0
  192.0580  175.9930  144.8000 C   0  0  1  0  0  3  0  0  0  0  0  0
  195.4590  176.1480  142.1430 C   0  0  0  0  0  0  0  0  0  0  0  0
  193.2510  175.9770  143.8700 C   0  0  0  0  0  0  0  0  0  0  0  0
  193.6470  176.0950  146.7170 C   0  0  0  0  0  2  0  0  0  0  0  0
  195.6600  175.9780  143.5140 C   0  0  0  0  0  3  0  0  0  0  0  0
  189.9440  174.9540  146.5710 C   0  0  1  0  0  3  0  0  0  0  0  0
  190.8560  175.2450  144.2230 C   0  0  0  0  0  2  0  0  0  0  0  0
  194.8330  175.6880  145.8490 C   0  0  0  0  0  2  0  0  0  0  0  0
  187.6350  176.0320  146.9710 C   0  0  0  0  0  2  0  0  0  0  0  0
  191.2050  175.6260  147.1370 C   0  0  2  0  0  3  0  0  0  0  0  0
  188.7520  175.1460  147.5280 C   0  0  0  0  0  2  0  0  0  0  0  0
  196.8330  176.2350  141.0620 Cl  0  0  0  0  0  0  0  0  0  0  0  0
  194.1630  176.2550  141.6340 C   0  0  0  0  0  3  0  0  0  0  0  0
  192.3870  175.4240  146.1850 C   0  0  1  0  0  3  0  0  0  0  0  0
  188.2130  177.2560  146.2720 C   0  0  0  0  0  2  0  0  0  0  0  0
  189.6350  175.4150  145.1280 C   0  0  2  0  0  3  0  0  0  0  0  0
  188.5120  177.2600  143.6990 C   0  0  0  0  0  2  0  0  0  0  0  0
  187.0670  177.5360  143.6240 N   0  0  0  0  0  0  0  0  0  0  0  0
  185.4150  178.1600  142.0150 C   0  0  0  0  0  0  0  0  0  0  0  0
  186.5510  177.2050  142.3040 C   0  0  0  0  0  2  0  0  0  0  0  0
  186.7470  178.9380  143.8690 C   0  0  0  0  0  2  0  0  0  0  0  0
  185.5720  179.3050  142.9860 C   0  0  0  0  0  2  0  0  0  0  0  0
  185.4960  178.6230  140.7020 O   0  0  0  0  0  1  0  0  0  0  0  0
  184.1910  177.5240  142.2200 O   0  0  0  0  0  1  0  0  0  0  0  0
  1 21  1  6  0  0  0
  1 20  1  0  0  0  0
  1 19  1  0  0  0  0
  2  7  1  0  0  0  0
  4 12  1  0  0  0  0
  5 11  1  6  0  0  0
  5 18  1  0  0  0  0
  6  9  2  0  0  0  0
  7  4  2  0  0  0  0
  7  5  1  0  0  0  0
  9  4  1  0  0  0  0
 10 14  1  0  0  0  0
 10 15  1  1  0  0  0
 12  8  1  0  0  0  0
 13 15  1  0  0  0  0
 14  3  1  1  0  0  0
 16  6  1  0  0  0  0
 17  6  1  0  0  0  0
 17  2  2  0  0  0  0
 18  8  1  1  0  0  0
 18 14  1  0  0  0  0
 19 13  1  0  0  0  0
 20 11  1  6  0  0  0
 20 10  1  0  0  0  0
 22 21  1  0  0  0  0
 22 25  1  0  0  0  0
 23 28  1  0  0  0  0
 23 24  1  0  0  0  0
 23 26  1  0  0  0  0
 24 22  1  0  0  0  0
 26 25  1  0  0  0  0
 27 23  1  0  0  0  0
M  END
>  <MODEL>
9

>  <REMARK>
 VINA RESULT:      -7.3      3.614      5.902
  Name = 
  2 active torsions:
  status: ('A' for Active; 'I' for Inactive)
    1  A    between atoms: C_1  and  C_2
    2  A    between atoms: C_2  and  N_3
                            x       y       z     vdW  Elec       q    Type
                         _______ _______ _______ _____ _____    ______ ____

>  <TORSDO>
F 2

$$$$
