=
 OpenBabel11052420283D

 34 39  0  0  1  0  0  0  0  0999 V2000
  193.8030  174.8490  143.4470 C   0  0  2  0  0  3  0  0  0  0  0  0
  194.7820  174.9420  139.6580 C   0  0  0  0  0  2  0  0  0  0  0  0
  191.8440  173.7260  137.9480 C   0  0  0  0  0  0  0  0  0  0  0  0
  195.8180  175.8850  141.7170 N   0  0  0  0  0  2  0  0  0  0  0  0
  191.7800  173.7020  144.0560 O   0  0  0  0  0  0  0  0  0  0  0  0
  192.5050  174.7210  144.2120 C   0  0  0  0  0  0  0  0  0  0  0  0
  194.3970  176.6880  145.0580 C   0  0  0  0  0  0  0  0  0  0  0  0
  195.1950  177.7560  145.4570 O   0  0  0  0  0  1  0  0  0  0  0  0
  193.2010  173.0150  137.8160 C   0  0  0  0  0  2  0  0  0  0  0  0
  193.2520  176.3100  145.9500 C   0  0  0  0  0  2  0  0  0  0  0  0
  192.1580  175.7100  145.1930 N   0  0  0  0  0  0  0  0  0  0  0  0
  195.8220  176.3310  143.0700 C   0  0  0  0  0  0  0  0  0  0  0  0
  194.6620  176.0100  143.9210 C   0  0  0  0  0  0  0  0  0  0  0  0
  196.8100  176.9790  143.5080 O   0  0  0  0  0  0  0  0  0  0  0  0
  193.5560  175.0950  138.9960 O   0  0  0  0  0  0  0  0  0  0  0  0
  190.7280  174.0020  137.5410 O   0  0  0  0  0  0  0  0  0  0  0  0
  192.9640  173.8200  138.9720 C   0  0  1  0  0  0  0  0  0  0  0  0
  192.6290  173.1450  140.2970 C   0  0  0  0  0  2  0  0  0  0  0  0
  194.6850  175.2310  141.1350 C   0  0  0  0  0  0  0  0  0  0  0  0
  192.3850  174.2210  141.3420 C   0  0  0  0  0  2  0  0  0  0  0  0
  193.6570  174.8040  141.9240 C   0  0  0  0  0  0  0  0  0  0  0  0
  188.8870  175.6840  147.0370 C   0  0  0  0  0  3  0  0  0  0  0  0
  189.9880  176.7950  144.7220 C   0  0  0  0  0  3  0  0  0  0  0  0
  185.8280  177.3100  145.4750 C   0  0  2  0  0  3  0  0  0  0  0  0
  186.6840  176.7820  146.6330 C   0  0  0  0  0  2  0  0  0  0  0  0
  188.0930  176.4800  146.2080 C   0  0  0  0  0  0  0  0  0  0  0  0
  187.8250  177.8690  144.0940 C   0  0  0  0  0  2  0  0  0  0  0  0
  188.6560  177.0610  145.0510 C   0  0  0  0  0  0  0  0  0  0  0  0
  186.5670  178.4280  144.7520 C   0  0  0  0  0  2  0  0  0  0  0  0
  190.7890  175.9920  145.5500 C   0  0  0  0  0  0  0  0  0  0  0  0
  190.2210  175.4360  146.7070 C   0  0  0  0  0  3  0  0  0  0  0  0
  184.4600  177.7960  145.9490 C   0  0  2  0  0  3  0  0  0  0  0  0
  183.9380  178.7580  145.0800 O   0  0  0  0  0  1  0  0  0  0  0  0
  184.5460  178.3640  147.3540 C   0  0  0  0  0  1  0  0  0  0  0  0
  1 21  1  6  0  0  0
  1 13  1  0  0  0  0
  1  6  1  0  0  0  0
  2 19  1  0  0  0  0
  3 17  1  0  0  0  0
  4 12  1  0  0  0  0
  5  6  2  0  0  0  0
  6 11  1  0  0  0  0
  7  8  1  0  0  0  0
  7 10  1  0  0  0  0
  9  3  1  0  0  0  0
 11 30  1  0  0  0  0
 11 10  1  0  0  0  0
 12 14  2  0  0  0  0
 12 13  1  0  0  0  0
 13  7  2  0  0  0  0
 15  2  1  0  0  0  0
 16  3  2  0  0  0  0
 17  9  1  6  0  0  0
 17 15  1  0  0  0  0
 17 18  1  0  0  0  0
 18 20  1  0  0  0  0
 19  4  1  0  0  0  0
 19 21  2  0  0  0  0
 20 21  1  0  0  0  0
 23 28  2  0  0  0  0
 23 30  1  0  0  0  0
 24 32  1  1  0  0  0
 24 25  1  0  0  0  0
 26 25  1  0  0  0  0
 26 22  2  0  0  0  0
 27 29  1  0  0  0  0
 27 28  1  0  0  0  0
 28 26  1  0  0  0  0
 29 24  1  0  0  0  0
 30 31  2  0  0  0  0
 31 22  1  0  0  0  0
 32 34  1  1  0  0  0
 33 32  1  0  0  0  0
M  END
>  <MODEL>
1

>  <REMARK>
 VINA RESULT:      -9.0      0.000      0.000
  Name = 
  2 active torsions:
  status: ('A' for Active; 'I' for Inactive)
    1  A    between atoms: C_7  and  C_11
    2  A    between atoms: N_18  and  C_30
                            x       y       z     vdW  Elec       q    Type
                         _______ _______ _______ _____ _____    ______ ____

>  <TORSDO>
F 2

$$$$
=
 OpenBabel11052420283D

 34 39  0  0  1  0  0  0  0  0999 V2000
  189.5280  177.5040  144.9480 C   0  0  2  0  0  3  0  0  0  0  0  0
  186.0200  176.8050  143.3570 C   0  0  0  0  0  2  0  0  0  0  0  0
  186.4930  177.4530  139.8370 C   0  0  0  0  0  0  0  0  0  0  0  0
  187.0080  176.3370  145.5950 N   0  0  0  0  0  2  0  0  0  0  0  0
  191.1880  178.5760  143.5800 O   0  0  0  0  0  0  0  0  0  0  0  0
  190.9320  177.6630  144.4110 C   0  0  0  0  0  0  0  0  0  0  0  0
  190.5370  176.0400  146.7280 C   0  0  0  0  0  0  0  0  0  0  0  0
  190.4240  175.1290  147.7740 O   0  0  0  0  0  1  0  0  0  0  0  0
  185.4600  178.2350  140.6640 C   0  0  0  0  0  2  0  0  0  0  0  0
  191.9180  176.4790  146.3420 C   0  0  0  0  0  2  0  0  0  0  0  0
  191.9890  176.8440  144.9300 N   0  0  0  0  0  0  0  0  0  0  0  0
  188.0770  176.1440  146.5170 C   0  0  0  0  0  0  0  0  0  0  0  0
  189.4410  176.5200  146.1040 C   0  0  0  0  0  0  0  0  0  0  0  0
  187.8340  175.6680  147.6580 O   0  0  0  0  0  0  0  0  0  0  0  0
  186.3150  176.4380  142.0370 O   0  0  0  0  0  0  0  0  0  0  0  0
  186.9230  177.0190  138.7820 O   0  0  0  0  0  0  0  0  0  0  0  0
  186.5640  177.6360  141.3450 C   0  0  1  0  0  0  0  0  0  0  0  0
  187.7290  178.5100  141.7930 C   0  0  0  0  0  2  0  0  0  0  0  0
  187.2340  176.7820  144.2520 C   0  0  0  0  0  0  0  0  0  0  0  0
  188.7770  177.6240  142.4470 C   0  0  0  0  0  2  0  0  0  0  0  0
  188.4560  177.2610  143.8830 C   0  0  0  0  0  0  0  0  0  0  0  0
  195.5860  176.4420  143.9280 C   0  0  0  0  0  3  0  0  0  0  0  0
  193.0430  176.0390  142.8450 C   0  0  0  0  0  3  0  0  0  0  0  0
  196.4530  175.4880  140.3540 C   0  0  2  0  0  3  0  0  0  0  0  0
  196.7060  175.6070  141.8610 C   0  0  0  0  0  2  0  0  0  0  0  0
  195.4600  175.9660  142.6210 C   0  0  0  0  0  0  0  0  0  0  0  0
  193.9880  175.2920  140.6590 C   0  0  0  0  0  2  0  0  0  0  0  0
  194.1760  175.7400  142.0810 C   0  0  0  0  0  0  0  0  0  0  0  0
  195.2340  174.6110  140.0990 C   0  0  0  0  0  2  0  0  0  0  0  0
  193.1640  176.5220  144.1580 C   0  0  0  0  0  0  0  0  0  0  0  0
  194.4490  176.7250  144.6870 C   0  0  0  0  0  3  0  0  0  0  0  0
  197.6680  174.9360  139.6110 C   0  0  2  0  0  3  0  0  0  0  0  0
  197.4920  175.0150  138.2270 O   0  0  0  0  0  1  0  0  0  0  0  0
  197.9410  173.4990  140.0150 C   0  0  0  0  0  1  0  0  0  0  0  0
  1 21  1  6  0  0  0
  1 13  1  0  0  0  0
  2 19  1  0  0  0  0
  3  9  1  0  0  0  0
  3 17  1  0  0  0  0
  4 12  1  0  0  0  0
  5  6  2  0  0  0  0
  6 11  1  0  0  0  0
  6  1  1  0  0  0  0
  7  8  1  0  0  0  0
 10  7  1  0  0  0  0
 11 10  1  0  0  0  0
 12 14  2  0  0  0  0
 13 12  1  0  0  0  0
 13  7  2  0  0  0  0
 15  2  1  0  0  0  0
 16  3  2  0  0  0  0
 17  9  1  1  0  0  0
 17 18  1  0  0  0  0
 17 15  1  0  0  0  0
 18 20  1  0  0  0  0
 19  4  1  0  0  0  0
 20 21  1  0  0  0  0
 21 19  2  0  0  0  0
 22 31  1  0  0  0  0
 23 30  1  0  0  0  0
 24 32  1  6  0  0  0
 24 25  1  0  0  0  0
 25 26  1  0  0  0  0
 26 22  2  0  0  0  0
 27 28  1  0  0  0  0
 28 26  1  0  0  0  0
 28 23  2  0  0  0  0
 29 24  1  0  0  0  0
 29 27  1  0  0  0  0
 30 31  2  0  0  0  0
 30 11  1  0  0  0  0
 32 34  1  1  0  0  0
 33 32  1  0  0  0  0
M  END
>  <MODEL>
2

>  <REMARK>
 VINA RESULT:      -8.7      2.792      8.321
  Name = 
  2 active torsions:
  status: ('A' for Active; 'I' for Inactive)
    1  A    between atoms: C_7  and  C_11
    2  A    between atoms: N_18  and  C_30
                            x       y       z     vdW  Elec       q    Type
                         _______ _______ _______ _____ _____    ______ ____

>  <TORSDO>
F 2

$$$$
=
 OpenBabel11052420283D

 34 39  0  0  1  0  0  0  0  0999 V2000
  193.5380  174.1130  143.3040 C   0  0  2  0  0  3  0  0  0  0  0  0
  196.0520  174.5730  140.3380 C   0  0  0  0  0  2  0  0  0  0  0  0
  193.9440  175.1450  137.4630 C   0  0  0  0  0  0  0  0  0  0  0  0
  196.3180  174.5120  142.8130 N   0  0  0  0  0  2  0  0  0  0  0  0
  191.2080  173.8570  142.7710 O   0  0  0  0  0  0  0  0  0  0  0  0
  192.0690  174.4020  143.5130 C   0  0  0  0  0  0  0  0  0  0  0  0
  193.9070  175.1240  145.5770 C   0  0  0  0  0  0  0  0  0  0  0  0
  194.7380  175.6280  146.5730 O   0  0  0  0  0  1  0  0  0  0  0  0
  194.9240  173.9620  137.5160 C   0  0  0  0  0  2  0  0  0  0  0  0
  192.4330  175.1010  145.8540 C   0  0  0  0  0  2  0  0  0  0  0  0
  191.6550  175.2100  144.6240 N   0  0  0  0  0  0  0  0  0  0  0  0
  195.8680  174.6150  144.1610 C   0  0  0  0  0  0  0  0  0  0  0  0
  194.4170  174.6560  144.4180 C   0  0  0  0  0  0  0  0  0  0  0  0
  196.7110  174.6600  145.0960 O   0  0  0  0  0  0  0  0  0  0  0  0
  195.3560  175.3790  139.4270 O   0  0  0  0  0  0  0  0  0  0  0  0
  193.2680  175.9580  136.8560 O   0  0  0  0  0  0  0  0  0  0  0  0
  194.4700  174.5240  138.7480 C   0  0  1  0  0  0  0  0  0  0  0  0
  193.3960  173.7980  139.5510 C   0  0  0  0  0  2  0  0  0  0  0  0
  195.4130  174.5550  141.7040 C   0  0  0  0  0  0  0  0  0  0  0  0
  193.0690  174.6250  140.7830 C   0  0  0  0  0  2  0  0  0  0  0  0
  194.0680  174.4600  141.9100 C   0  0  0  0  0  0  0  0  0  0  0  0
  189.0270  177.6910  143.6010 C   0  0  0  0  0  3  0  0  0  0  0  0
  189.4740  175.8100  145.6180 C   0  0  0  0  0  3  0  0  0  0  0  0
  186.0550  178.3360  145.8790 C   0  0  2  0  0  3  0  0  0  0  0  0
  186.8010  178.3130  144.5390 C   0  0  0  0  0  2  0  0  0  0  0  0
  188.0790  177.5250  144.6130 C   0  0  0  0  0  0  0  0  0  0  0  0
  187.3340  176.3900  146.7640 C   0  0  0  0  0  2  0  0  0  0  0  0
  188.2930  176.5590  145.6190 C   0  0  0  0  0  0  0  0  0  0  0  0
  185.9420  176.9230  146.4350 C   0  0  0  0  0  2  0  0  0  0  0  0
  190.4320  175.9760  144.6060 C   0  0  0  0  0  0  0  0  0  0  0  0
  190.1970  176.9280  143.6020 C   0  0  0  0  0  3  0  0  0  0  0  0
  184.6700  178.9690  145.7530 C   0  0  2  0  0  3  0  0  0  0  0  0
  183.7310  178.2870  146.5300 O   0  0  0  0  0  1  0  0  0  0  0  0
  184.2190  178.9950  144.3040 C   0  0  0  0  0  1  0  0  0  0  0  0
  1 21  1  6  0  0  0
  1  6  1  0  0  0  0
  1 13  1  0  0  0  0
  2 19  1  0  0  0  0
  3  9  1  0  0  0  0
  3 17  1  0  0  0  0
  4 12  1  0  0  0  0
  5  6  2  0  0  0  0
  6 11  1  0  0  0  0
  7 10  1  0  0  0  0
  7  8  1  0  0  0  0
 11 10  1  0  0  0  0
 12 13  1  0  0  0  0
 12 14  2  0  0  0  0
 13  7  2  0  0  0  0
 15  2  1  0  0  0  0
 16  3  2  0  0  0  0
 17  9  1  6  0  0  0
 17 15  1  0  0  0  0
 17 18  1  0  0  0  0
 18 20  1  0  0  0  0
 19 21  2  0  0  0  0
 19  4  1  0  0  0  0
 20 21  1  0  0  0  0
 22 31  2  0  0  0  0
 22 26  1  0  0  0  0
 23 28  1  0  0  0  0
 24 32  1  6  0  0  0
 24 29  1  0  0  0  0
 25 26  1  0  0  0  0
 25 24  1  0  0  0  0
 26 28  2  0  0  0  0
 28 27  1  0  0  0  0
 29 27  1  0  0  0  0
 30 11  1  0  0  0  0
 30 23  2  0  0  0  0
 31 30  1  0  0  0  0
 32 34  1  6  0  0  0
 32 33  1  0  0  0  0
M  END
>  <MODEL>
3

>  <REMARK>
 VINA RESULT:      -8.6      1.511      2.019
  Name = 
  2 active torsions:
  status: ('A' for Active; 'I' for Inactive)
    1  A    between atoms: C_7  and  C_11
    2  A    between atoms: N_18  and  C_30
                            x       y       z     vdW  Elec       q    Type
                         _______ _______ _______ _____ _____    ______ ____

>  <TORSDO>
F 2

$$$$
=
 OpenBabel11052420283D

 34 39  0  0  1  0  0  0  0  0999 V2000
  193.2210  173.3860  144.1830 C   0  0  2  0  0  3  0  0  0  0  0  0
  194.7160  172.9810  140.5880 C   0  0  0  0  0  2  0  0  0  0  0  0
  191.8480  172.3070  138.5000 C   0  0  0  0  0  0  0  0  0  0  0  0
  195.6400  173.8270  142.7400 N   0  0  0  0  0  2  0  0  0  0  0  0
  190.9270  172.7550  144.5230 O   0  0  0  0  0  0  0  0  0  0  0  0
  191.8340  173.6010  144.7450 C   0  0  0  0  0  0  0  0  0  0  0  0
  193.9830  175.1680  145.7870 C   0  0  0  0  0  0  0  0  0  0  0  0
  194.9380  176.0630  146.2590 O   0  0  0  0  0  1  0  0  0  0  0  0
  193.0140  171.3100  138.6070 C   0  0  0  0  0  2  0  0  0  0  0  0
  192.6700  175.1160  146.5090 C   0  0  0  0  0  2  0  0  0  0  0  0
  191.5860  174.7120  145.6190 N   0  0  0  0  0  0  0  0  0  0  0  0
  195.5550  174.3620  144.0580 C   0  0  0  0  0  0  0  0  0  0  0  0
  194.2450  174.3650  144.7340 C   0  0  0  0  0  0  0  0  0  0  0  0
  196.5930  174.8100  144.6140 O   0  0  0  0  0  0  0  0  0  0  0  0
  193.6610  173.3460  139.7400 O   0  0  0  0  0  0  0  0  0  0  0  0
  190.8920  172.7880  137.9170 O   0  0  0  0  0  0  0  0  0  0  0  0
  192.8060  172.2320  139.6800 C   0  0  1  0  0  0  0  0  0  0  0  0
  192.1450  171.7470  140.9650 C   0  0  0  0  0  2  0  0  0  0  0  0
  194.4810  173.3930  142.0190 C   0  0  0  0  0  0  0  0  0  0  0  0
  192.0070  172.9260  141.9130 C   0  0  0  0  0  2  0  0  0  0  0  0
  193.2830  173.2600  142.6590 C   0  0  0  0  0  0  0  0  0  0  0  0
  188.2360  175.6650  147.0240 C   0  0  0  0  0  3  0  0  0  0  0  0
  189.7350  176.0700  144.7020 C   0  0  0  0  0  3  0  0  0  0  0  0
  185.7240  177.4940  144.8370 C   0  0  2  0  0  3  0  0  0  0  0  0
  186.3500  177.0550  146.1660 C   0  0  0  0  0  2  0  0  0  0  0  0
  187.6980  176.4160  145.9760 C   0  0  0  0  0  0  0  0  0  0  0  0
  187.9030  177.3850  143.6340 C   0  0  0  0  0  2  0  0  0  0  0  0
  188.4640  176.6400  144.8130 C   0  0  0  0  0  0  0  0  0  0  0  0
  186.7370  178.2880  144.0230 C   0  0  0  0  0  2  0  0  0  0  0  0
  190.2800  175.3110  145.7500 C   0  0  0  0  0  0  0  0  0  0  0  0
  189.5130  175.1110  146.9090 C   0  0  0  0  0  3  0  0  0  0  0  0
  184.4510  178.3120  145.0460 C   0  0  2  0  0  3  0  0  0  0  0  0
  184.6040  179.6150  144.5660 O   0  0  0  0  0  1  0  0  0  0  0  0
  184.0670  178.3460  146.5140 C   0  0  0  0  0  1  0  0  0  0  0  0
  1 21  1  6  0  0  0
  1 13  1  0  0  0  0
  1  6  1  0  0  0  0
  2 19  1  0  0  0  0
  3  9  1  0  0  0  0
  3 17  1  0  0  0  0
  4 12  1  0  0  0  0
  5  6  2  0  0  0  0
  6 11  1  0  0  0  0
  7  8  1  0  0  0  0
  7 10  1  0  0  0  0
 11 30  1  0  0  0  0
 11 10  1  0  0  0  0
 12 14  2  0  0  0  0
 12 13  1  0  0  0  0
 13  7  2  0  0  0  0
 15  2  1  0  0  0  0
 16  3  2  0  0  0  0
 17  9  1  6  0  0  0
 17 15  1  0  0  0  0
 17 18  1  0  0  0  0
 18 20  1  0  0  0  0
 19 21  2  0  0  0  0
 19  4  1  0  0  0  0
 20 21  1  0  0  0  0
 23 28  2  0  0  0  0
 23 30  1  0  0  0  0
 24 32  1  1  0  0  0
 24 25  1  0  0  0  0
 26 25  1  0  0  0  0
 26 22  2  0  0  0  0
 27 29  1  0  0  0  0
 27 28  1  0  0  0  0
 28 26  1  0  0  0  0
 29 24  1  0  0  0  0
 30 31  2  0  0  0  0
 31 22  1  0  0  0  0
 32 34  1  1  0  0  0
 33 32  1  0  0  0  0
M  END
>  <MODEL>
4

>  <REMARK>
 VINA RESULT:      -8.5      1.455      1.495
  Name = 
  2 active torsions:
  status: ('A' for Active; 'I' for Inactive)
    1  A    between atoms: C_7  and  C_11
    2  A    between atoms: N_18  and  C_30
                            x       y       z     vdW  Elec       q    Type
                         _______ _______ _______ _____ _____    ______ ____

>  <TORSDO>
F 2

$$$$
=
 OpenBabel11052420283D

 34 39  0  0  1  0  0  0  0  0999 V2000
  193.0980  173.4340  144.8550 C   0  0  2  0  0  3  0  0  0  0  0  0
  195.0720  171.9160  141.8330 C   0  0  0  0  0  2  0  0  0  0  0  0
  192.5080  171.0140  139.4570 C   0  0  0  0  0  0  0  0  0  0  0  0
  195.7570  173.2090  143.8490 N   0  0  0  0  0  2  0  0  0  0  0  0
  190.7100  173.1660  144.8830 O   0  0  0  0  0  0  0  0  0  0  0  0
  191.6890  173.9390  145.0640 C   0  0  0  0  0  0  0  0  0  0  0  0
  193.8570  175.4900  146.0880 C   0  0  0  0  0  0  0  0  0  0  0  0
  194.8500  176.3730  146.5020 O   0  0  0  0  0  1  0  0  0  0  0  0
  193.4740  169.9650  140.0310 C   0  0  0  0  0  2  0  0  0  0  0  0
  192.4530  175.7750  146.5290 C   0  0  0  0  0  2  0  0  0  0  0  0
  191.4770  175.2640  145.5710 N   0  0  0  0  0  0  0  0  0  0  0  0
  195.5440  174.0850  144.9520 C   0  0  0  0  0  0  0  0  0  0  0  0
  194.1590  174.4100  145.3370 C   0  0  0  0  0  0  0  0  0  0  0  0
  196.5350  174.5540  145.5730 O   0  0  0  0  0  0  0  0  0  0  0  0
  194.2360  172.1490  140.7320 O   0  0  0  0  0  0  0  0  0  0  0  0
  191.7440  171.4180  138.5970 O   0  0  0  0  0  0  0  0  0  0  0  0
  193.2410  171.1580  140.7820 C   0  0  1  0  0  0  0  0  0  0  0  0
  192.3150  171.1110  141.9920 C   0  0  0  0  0  2  0  0  0  0  0  0
  194.6750  172.7220  143.0450 C   0  0  0  0  0  0  0  0  0  0  0  0
  192.2090  172.5100  142.5750 C   0  0  0  0  0  2  0  0  0  0  0  0
  193.3850  172.8950  143.4500 C   0  0  0  0  0  0  0  0  0  0  0  0
  189.0350  177.5810  143.9070 C   0  0  0  0  0  3  0  0  0  0  0  0
  189.1850  175.9620  146.1780 C   0  0  0  0  0  3  0  0  0  0  0  0
  185.7840  178.4730  145.6610 C   0  0  2  0  0  3  0  0  0  0  0  0
  186.7060  178.2940  144.4490 C   0  0  0  0  0  2  0  0  0  0  0  0
  187.9550  177.5310  144.7920 C   0  0  0  0  0  0  0  0  0  0  0  0
  186.9140  176.6590  146.9420 C   0  0  0  0  0  2  0  0  0  0  0  0
  188.0210  176.6960  145.9270 C   0  0  0  0  0  0  0  0  0  0  0  0
  185.5850  177.1370  146.3640 C   0  0  0  0  0  2  0  0  0  0  0  0
  190.2740  176.0120  145.2940 C   0  0  0  0  0  0  0  0  0  0  0  0
  190.1870  176.8340  144.1590 C   0  0  0  0  0  3  0  0  0  0  0  0
  184.4360  179.0750  145.2710 C   0  0  2  0  0  3  0  0  0  0  0  0
  183.4280  178.6640  146.1470 O   0  0  0  0  0  1  0  0  0  0  0  0
  184.0680  178.6970  143.8480 C   0  0  0  0  0  1  0  0  0  0  0  0
  1 21  1  6  0  0  0
  1  6  1  0  0  0  0
  1 13  1  0  0  0  0
  2 19  1  0  0  0  0
  3  9  1  0  0  0  0
  3 17  1  0  0  0  0
  4 12  1  0  0  0  0
  5  6  2  0  0  0  0
  6 11  1  0  0  0  0
  7  8  1  0  0  0  0
  7 10  1  0  0  0  0
 11 10  1  0  0  0  0
 12 13  1  0  0  0  0
 12 14  2  0  0  0  0
 13  7  2  0  0  0  0
 15 17  1  0  0  0  0
 15  2  1  0  0  0  0
 16  3  2  0  0  0  0
 17  9  1  1  0  0  0
 17 18  1  0  0  0  0
 18 20  1  0  0  0  0
 19 21  2  0  0  0  0
 19  4  1  0  0  0  0
 20 21  1  0  0  0  0
 22 31  2  0  0  0  0
 22 26  1  0  0  0  0
 24 32  1  6  0  0  0
 24 29  1  0  0  0  0
 25 26  1  0  0  0  0
 25 24  1  0  0  0  0
 26 28  2  0  0  0  0
 28 23  1  0  0  0  0
 28 27  1  0  0  0  0
 29 27  1  0  0  0  0
 30 11  1  0  0  0  0
 30 23  2  0  0  0  0
 31 30  1  0  0  0  0
 32 34  1  6  0  0  0
 32 33  1  0  0  0  0
M  END
>  <MODEL>
5

>  <REMARK>
 VINA RESULT:      -8.4      2.097      2.542
  Name = 
  2 active torsions:
  status: ('A' for Active; 'I' for Inactive)
    1  A    between atoms: C_7  and  C_11
    2  A    between atoms: N_18  and  C_30
                            x       y       z     vdW  Elec       q    Type
                         _______ _______ _______ _____ _____    ______ ____

>  <TORSDO>
F 2

$$$$
=
 OpenBabel11052420283D

 34 39  0  0  1  0  0  0  0  0999 V2000
  194.6480  174.0200  145.1980 C   0  0  2  0  0  3  0  0  0  0  0  0
  195.8790  170.7380  143.4530 C   0  0  0  0  0  2  0  0  0  0  0  0
  192.9100  168.7010  143.1880 C   0  0  0  0  0  0  0  0  0  0  0  0
  196.9080  172.9780  143.8070 N   0  0  0  0  0  2  0  0  0  0  0  0
  192.4370  174.0270  146.1420 O   0  0  0  0  0  0  0  0  0  0  0  0
  193.2980  174.6470  145.4610 C   0  0  0  0  0  0  0  0  0  0  0  0
  195.4070  176.3110  144.4900 C   0  0  0  0  0  0  0  0  0  0  0  0
  196.3310  177.1660  143.8970 O   0  0  0  0  0  1  0  0  0  0  0  0
  194.1470  168.2180  143.9610 C   0  0  0  0  0  2  0  0  0  0  0  0
  194.1620  176.9260  145.0550 C   0  0  0  0  0  2  0  0  0  0  0  0
  193.0420  175.9900  145.0250 N   0  0  0  0  0  0  0  0  0  0  0  0
  196.8900  174.3770  144.0760 C   0  0  0  0  0  0  0  0  0  0  0  0
  195.6410  174.9840  144.5700 C   0  0  0  0  0  0  0  0  0  0  0  0
  197.9350  175.0580  143.8940 O   0  0  0  0  0  0  0  0  0  0  0  0
  194.7380  170.2540  142.8000 O   0  0  0  0  0  0  0  0  0  0  0  0
  191.8790  168.4990  142.5690 O   0  0  0  0  0  0  0  0  0  0  0  0
  193.9610  169.6240  143.7870 C   0  0  1  0  0  0  0  0  0  0  0  0
  193.4390  170.4580  144.9510 C   0  0  0  0  0  2  0  0  0  0  0  0
  195.7290  172.1700  143.9010 C   0  0  0  0  0  0  0  0  0  0  0  0
  193.2930  171.8980  144.4870 C   0  0  0  0  0  2  0  0  0  0  0  0
  194.5980  172.6690  144.4780 C   0  0  0  0  0  0  0  0  0  0  0  0
  190.1060  177.4080  143.1620 C   0  0  0  0  0  3  0  0  0  0  0  0
  190.7310  176.5090  145.7320 C   0  0  0  0  0  3  0  0  0  0  0  0
  186.9260  178.2960  145.0450 C   0  0  2  0  0  3  0  0  0  0  0  0
  187.7510  177.9190  143.8080 C   0  0  0  0  0  2  0  0  0  0  0  0
  189.1350  177.4560  144.1660 C   0  0  0  0  0  0  0  0  0  0  0  0
  188.4550  177.0720  146.5870 C   0  0  0  0  0  2  0  0  0  0  0  0
  189.4440  176.9800  145.4580 C   0  0  0  0  0  0  0  0  0  0  0  0
  187.0180  177.1880  146.0870 C   0  0  0  0  0  2  0  0  0  0  0  0
  191.7110  176.4620  144.7280 C   0  0  0  0  0  0  0  0  0  0  0  0
  191.3850  176.9230  143.4420 C   0  0  0  0  0  3  0  0  0  0  0  0
  185.4670  178.5780  144.6970 C   0  0  2  0  0  3  0  0  0  0  0  0
  185.2970  179.8950  144.2630 O   0  0  0  0  0  1  0  0  0  0  0  0
  184.5660  178.3080  145.8880 C   0  0  0  0  0  1  0  0  0  0  0  0
  1 21  1  6  0  0  0
  1  6  1  0  0  0  0
  2 19  1  0  0  0  0
  3 17  1  0  0  0  0
  3  9  1  0  0  0  0
  4 19  1  0  0  0  0
  4 12  1  0  0  0  0
  6  5  2  0  0  0  0
  7 13  2  0  0  0  0
  7 10  1  0  0  0  0
  8  7  1  0  0  0  0
 11 10  1  0  0  0  0
 11  6  1  0  0  0  0
 12 13  1  0  0  0  0
 13  1  1  0  0  0  0
 14 12  2  0  0  0  0
 15  2  1  0  0  0  0
 15 17  1  0  0  0  0
 16  3  2  0  0  0  0
 17  9  1  1  0  0  0
 17 18  1  0  0  0  0
 19 21  2  0  0  0  0
 20 18  1  0  0  0  0
 21 20  1  0  0  0  0
 22 31  2  0  0  0  0
 22 26  1  0  0  0  0
 24 32  1  6  0  0  0
 24 29  1  0  0  0  0
 25 26  1  0  0  0  0
 25 24  1  0  0  0  0
 26 28  2  0  0  0  0
 28 23  1  0  0  0  0
 28 27  1  0  0  0  0
 29 27  1  0  0  0  0
 30 11  1  0  0  0  0
 30 23  2  0  0  0  0
 31 30  1  0  0  0  0
 32 34  1  1  0  0  0
 33 32  1  0  0  0  0
M  END
>  <MODEL>
6

>  <REMARK>
 VINA RESULT:      -8.1      3.173      3.784
  Name = 
  2 active torsions:
  status: ('A' for Active; 'I' for Inactive)
    1  A    between atoms: C_7  and  C_11
    2  A    between atoms: N_18  and  C_30
                            x       y       z     vdW  Elec       q    Type
                         _______ _______ _______ _____ _____    ______ ____

>  <TORSDO>
F 2

$$$$
=
 OpenBabel11052420283D

 34 39  0  0  1  0  0  0  0  0999 V2000
  186.4830  176.3110  142.7460 C   0  0  2  0  0  3  0  0  0  0  0  0
  184.8180  179.1060  144.9250 C   0  0  0  0  0  2  0  0  0  0  0  0
  186.5280  178.8990  148.0980 C   0  0  0  0  0  0  0  0  0  0  0  0
  184.7510  178.5620  142.4960 N   0  0  0  0  0  2  0  0  0  0  0  0
  187.9280  174.7390  143.8500 O   0  0  0  0  0  0  0  0  0  0  0  0
  187.7450  175.4860  142.8510 C   0  0  0  0  0  0  0  0  0  0  0  0
  187.0790  176.6400  140.3240 C   0  0  0  0  0  0  0  0  0  0  0  0
  186.9060  177.2700  139.0950 O   0  0  0  0  0  1  0  0  0  0  0  0
  185.0060  178.7050  147.9930 C   0  0  0  0  0  2  0  0  0  0  0  0
  188.1300  175.5750  140.4120 C   0  0  0  0  0  2  0  0  0  0  0  0
  188.6780  175.4730  141.7610 N   0  0  0  0  0  0  0  0  0  0  0  0
  185.2320  177.9670  141.2940 C   0  0  0  0  0  0  0  0  0  0  0  0
  186.3110  176.9680  141.3860 C   0  0  0  0  0  0  0  0  0  0  0  0
  184.7260  178.3010  140.1890 O   0  0  0  0  0  0  0  0  0  0  0  0
  185.8170  179.4580  145.8430 O   0  0  0  0  0  0  0  0  0  0  0  0
  187.5370  179.1860  148.7190 O   0  0  0  0  0  0  0  0  0  0  0  0
  185.8050  178.4600  146.8340 C   0  0  1  0  0  0  0  0  0  0  0  0
  186.1150  177.0240  146.4290 C   0  0  0  0  0  2  0  0  0  0  0  0
  185.3510  178.2970  143.7690 C   0  0  0  0  0  0  0  0  0  0  0  0
  187.0080  177.0490  145.1990 C   0  0  0  0  0  2  0  0  0  0  0  0
  186.2560  177.2850  143.9050 C   0  0  0  0  0  0  0  0  0  0  0  0
  192.0720  173.8950  141.4520 C   0  0  0  0  0  3  0  0  0  0  0  0
  190.8280  175.9440  142.8870 C   0  0  0  0  0  3  0  0  0  0  0  0
  194.8530  174.9220  143.8290 C   0  0  2  0  0  3  0  0  0  0  0  0
  194.2760  174.3460  142.5310 C   0  0  0  0  0  2  0  0  0  0  0  0
  192.8070  174.6300  142.3860 C   0  0  0  0  0  0  0  0  0  0  0  0
  192.9160  176.4550  144.1540 C   0  0  0  0  0  2  0  0  0  0  0  0
  192.1850  175.6800  143.0940 C   0  0  0  0  0  0  0  0  0  0  0  0
  194.4310  176.3770  143.9850 C   0  0  0  0  0  2  0  0  0  0  0  0
  190.0830  175.2050  141.9540 C   0  0  0  0  0  0  0  0  0  0  0  0
  190.7200  174.1750  141.2440 C   0  0  0  0  0  3  0  0  0  0  0  0
  196.3750  174.8030  143.8830 C   0  0  2  0  0  3  0  0  0  0  0  0
  196.8170  174.5610  145.1860 O   0  0  0  0  0  1  0  0  0  0  0  0
  197.0340  176.0570  143.3390 C   0  0  0  0  0  1  0  0  0  0  0  0
  1 13  1  6  0  0  0
  1  6  1  0  0  0  0
  1 21  1  0  0  0  0
  2 15  1  0  0  0  0
  3 16  2  0  0  0  0
  4 19  1  0  0  0  0
  6  5  2  0  0  0  0
  7 10  1  0  0  0  0
  7 13  2  0  0  0  0
  8  7  1  0  0  0  0
  9  3  1  0  0  0  0
 10 11  1  0  0  0  0
 11 30  1  0  0  0  0
 11  6  1  0  0  0  0
 12 13  1  0  0  0  0
 12  4  1  0  0  0  0
 14 12  2  0  0  0  0
 15 17  1  0  0  0  0
 17 18  1  6  0  0  0
 17  9  1  0  0  0  0
 17  3  1  0  0  0  0
 19 21  2  0  0  0  0
 19  2  1  0  0  0  0
 20 18  1  0  0  0  0
 21 20  1  0  0  0  0
 22 26  1  0  0  0  0
 23 28  1  0  0  0  0
 24 32  1  6  0  0  0
 24 29  1  0  0  0  0
 25 24  1  0  0  0  0
 26 25  1  0  0  0  0
 26 28  2  0  0  0  0
 28 27  1  0  0  0  0
 29 27  1  0  0  0  0
 30 23  2  0  0  0  0
 31 22  2  0  0  0  0
 31 30  1  0  0  0  0
 32 34  1  1  0  0  0
 32 33  1  0  0  0  0
M  END
>  <MODEL>
7

>  <REMARK>
 VINA RESULT:      -8.0      3.068      9.434
  Name = 
  2 active torsions:
  status: ('A' for Active; 'I' for Inactive)
    1  A    between atoms: C_7  and  C_11
    2  A    between atoms: N_18  and  C_30
                            x       y       z     vdW  Elec       q    Type
                         _______ _______ _______ _____ _____    ______ ____

>  <TORSDO>
F 2

$$$$
=
 OpenBabel11052420283D

 34 39  0  0  1  0  0  0  0  0999 V2000
  194.1780  174.7740  142.4820 C   0  0  2  0  0  3  0  0  0  0  0  0
  196.1170  174.7060  139.0820 C   0  0  0  0  0  2  0  0  0  0  0  0
  193.5590  174.0910  136.6090 C   0  0  0  0  0  0  0  0  0  0  0  0
  196.7320  175.4160  141.3880 N   0  0  0  0  0  2  0  0  0  0  0  0
  191.8910  174.0340  142.4850 O   0  0  0  0  0  0  0  0  0  0  0  0
  192.7240  174.8930  142.8800 C   0  0  0  0  0  0  0  0  0  0  0  0
  194.6560  176.4520  144.2940 C   0  0  0  0  0  0  0  0  0  0  0  0
  195.5030  177.3430  144.9460 O   0  0  0  0  0  1  0  0  0  0  0  0
  194.7480  173.1330  136.7880 C   0  0  0  0  0  2  0  0  0  0  0  0
  193.2680  176.2960  144.8400 C   0  0  0  0  0  2  0  0  0  0  0  0
  192.3200  175.9220  143.7950 N   0  0  0  0  0  0  0  0  0  0  0  0
  196.4620  175.8430  142.7210 C   0  0  0  0  0  0  0  0  0  0  0  0
  195.0810  175.7440  143.2260 C   0  0  0  0  0  0  0  0  0  0  0  0
  197.4020  176.2850  143.4340 O   0  0  0  0  0  0  0  0  0  0  0  0
  195.1570  175.0970  138.1380 O   0  0  0  0  0  0  0  0  0  0  0  0
  192.6590  174.5810  135.9470 O   0  0  0  0  0  0  0  0  0  0  0  0
  194.3680  173.9600  137.8900 C   0  0  1  0  0  0  0  0  0  0  0  0
  193.5790  173.3520  139.0440 C   0  0  0  0  0  2  0  0  0  0  0  0
  195.6900  174.9970  140.4990 C   0  0  0  0  0  0  0  0  0  0  0  0
  193.2720  174.4480  140.0510 C   0  0  0  0  0  2  0  0  0  0  0  0
  194.4310  174.7700  140.9720 C   0  0  0  0  0  0  0  0  0  0  0  0
  189.2560  177.8530  142.8030 C   0  0  0  0  0  3  0  0  0  0  0  0
  190.1090  176.1770  144.8680 C   0  0  0  0  0  3  0  0  0  0  0  0
  186.3100  178.0750  145.1940 C   0  0  2  0  0  3  0  0  0  0  0  0
  186.9940  178.1200  143.8220 C   0  0  0  0  0  2  0  0  0  0  0  0
  188.3930  177.5720  143.8650 C   0  0  0  0  0  0  0  0  0  0  0  0
  187.9480  176.4260  146.0920 C   0  0  0  0  0  2  0  0  0  0  0  0
  188.8150  176.7060  144.8970 C   0  0  0  0  0  0  0  0  0  0  0  0
  186.4720  176.6920  145.8100 C   0  0  0  0  0  2  0  0  0  0  0  0
  190.9810  176.4600  143.8050 C   0  0  0  0  0  0  0  0  0  0  0  0
  190.5410  177.3090  142.7770 C   0  0  0  0  0  3  0  0  0  0  0  0
  184.8310  178.4490  145.1090 C   0  0  2  0  0  3  0  0  0  0  0  0
  184.6650  179.7280  144.5740 O   0  0  0  0  0  1  0  0  0  0  0  0
  184.1770  178.3720  146.4760 C   0  0  0  0  0  1  0  0  0  0  0  0
  1 21  1  6  0  0  0
  1  6  1  0  0  0  0
  1 13  1  0  0  0  0
  2 19  1  0  0  0  0
  3  9  1  0  0  0  0
  3 17  1  0  0  0  0
  4 12  1  0  0  0  0
  5  6  2  0  0  0  0
  6 11  1  0  0  0  0
  7 10  1  0  0  0  0
  7  8  1  0  0  0  0
 11 30  1  0  0  0  0
 11 10  1  0  0  0  0
 12 13  1  0  0  0  0
 12 14  2  0  0  0  0
 13  7  2  0  0  0  0
 15  2  1  0  0  0  0
 16  3  2  0  0  0  0
 17  9  1  6  0  0  0
 17 15  1  0  0  0  0
 17 18  1  0  0  0  0
 18 20  1  0  0  0  0
 19 21  2  0  0  0  0
 19  4  1  0  0  0  0
 20 21  1  0  0  0  0
 22 26  1  0  0  0  0
 23 28  1  0  0  0  0
 24 32  1  6  0  0  0
 24 29  1  0  0  0  0
 25 26  1  0  0  0  0
 25 24  1  0  0  0  0
 26 28  2  0  0  0  0
 28 27  1  0  0  0  0
 29 27  1  0  0  0  0
 30 23  2  0  0  0  0
 31 22  2  0  0  0  0
 31 30  1  0  0  0  0
 32 34  1  1  0  0  0
 33 32  1  0  0  0  0
M  END
>  <MODEL>
8

>  <REMARK>
 VINA RESULT:      -8.0      1.255      1.897
  Name = 
  2 active torsions:
  status: ('A' for Active; 'I' for Inactive)
    1  A    between atoms: C_7  and  C_11
    2  A    between atoms: N_18  and  C_30
                            x       y       z     vdW  Elec       q    Type
                         _______ _______ _______ _____ _____    ______ ____

>  <TORSDO>
F 2

$$$$
=
 OpenBabel11052420283D

 34 39  0  0  1  0  0  0  0  0999 V2000
  190.2090  177.2620  144.7210 C   0  0  2  0  0  3  0  0  0  0  0  0
  186.7390  178.0470  146.3550 C   0  0  0  0  0  2  0  0  0  0  0  0
  184.4880  178.3780  143.5520 C   0  0  0  0  0  0  0  0  0  0  0  0
  188.9170  177.2530  147.2630 N   0  0  0  0  0  2  0  0  0  0  0  0
  190.4150  177.5280  142.3410 O   0  0  0  0  0  0  0  0  0  0  0  0
  190.6680  176.8180  143.3510 C   0  0  0  0  0  0  0  0  0  0  0  0
  191.7970  175.5450  145.6450 C   0  0  0  0  0  0  0  0  0  0  0  0
  192.3010  174.7810  146.6940 O   0  0  0  0  0  1  0  0  0  0  0  0
  184.7080  179.5320  144.5440 C   0  0  0  0  0  2  0  0  0  0  0  0
  192.4300  175.3670  144.2970 C   0  0  0  0  0  2  0  0  0  0  0  0
  191.4830  175.6450  143.2210 N   0  0  0  0  0  0  0  0  0  0  0  0
  190.2070  176.6530  147.1790 C   0  0  0  0  0  0  0  0  0  0  0  0
  190.7930  176.4240  145.8460 C   0  0  0  0  0  0  0  0  0  0  0  0
  190.8160  176.3400  148.2370 O   0  0  0  0  0  0  0  0  0  0  0  0
  185.8090  177.5670  145.4220 O   0  0  0  0  0  0  0  0  0  0  0  0
  183.8240  177.7860  142.7170 O   0  0  0  0  0  0  0  0  0  0  0  0
  185.7310  178.5430  144.4130 C   0  0  1  0  0  0  0  0  0  0  0  0
  186.9840  178.8650  143.6080 C   0  0  0  0  0  2  0  0  0  0  0  0
  188.1360  177.5400  146.0970 C   0  0  0  0  0  0  0  0  0  0  0  0
  187.8800  177.6380  143.5920 C   0  0  0  0  0  2  0  0  0  0  0  0
  188.6970  177.4650  144.8570 C   0  0  0  0  0  0  0  0  0  0  0  0
  192.7030  173.9670  140.0900 C   0  0  0  0  0  3  0  0  0  0  0  0
  190.3310  174.2460  141.5400 C   0  0  0  0  0  3  0  0  0  0  0  0
  190.2190  172.2680  137.7690 C   0  0  2  0  0  3  0  0  0  0  0  0
  191.6020  172.5210  138.3810 C   0  0  0  0  0  2  0  0  0  0  0  0
  191.5310  173.3690  139.6190 C   0  0  0  0  0  0  0  0  0  0  0  0
  189.0390  172.9220  139.8650 C   0  0  0  0  0  2  0  0  0  0  0  0
  190.3380  173.4900  140.3630 C   0  0  0  0  0  0  0  0  0  0  0  0
  189.2510  171.8030  138.8490 C   0  0  0  0  0  2  0  0  0  0  0  0
  191.5050  174.8520  142.0150 C   0  0  0  0  0  0  0  0  0  0  0  0
  192.6890  174.7080  141.2730 C   0  0  0  0  0  3  0  0  0  0  0  0
  190.2720  171.2530  136.6300 C   0  0  2  0  0  3  0  0  0  0  0  0
  189.3160  171.5400  135.6530 O   0  0  0  0  0  1  0  0  0  0  0  0
  190.0660  169.8430  137.1530 C   0  0  0  0  0  1  0  0  0  0  0  0
  1  6  1  6  0  0  0
  1 21  1  0  0  0  0
  1 13  1  0  0  0  0
  3 17  1  0  0  0  0
  3  9  1  0  0  0  0
  5  6  2  0  0  0  0
  7 13  2  0  0  0  0
  7  8  1  0  0  0  0
 10  7  1  0  0  0  0
 11  6  1  0  0  0  0
 11 10  1  0  0  0  0
 12  4  1  0  0  0  0
 12 14  2  0  0  0  0
 13 12  1  0  0  0  0
 15  2  1  0  0  0  0
 16  3  2  0  0  0  0
 17 18  1  6  0  0  0
 17  9  1  0  0  0  0
 17 15  1  0  0  0  0
 19  2  1  0  0  0  0
 19  4  1  0  0  0  0
 20 18  1  0  0  0  0
 20 21  1  0  0  0  0
 21 19  2  0  0  0  0
 22 31  1  0  0  0  0
 23 30  1  0  0  0  0
 24 32  1  6  0  0  0
 24 25  1  0  0  0  0
 24 29  1  0  0  0  0
 25 26  1  0  0  0  0
 26 22  2  0  0  0  0
 26 28  1  0  0  0  0
 27 28  1  0  0  0  0
 28 23  2  0  0  0  0
 29 27  1  0  0  0  0
 30 11  1  0  0  0  0
 31 30  2  0  0  0  0
 32 34  1  1  0  0  0
 33 32  1  0  0  0  0
M  END
>  <MODEL>
9

>  <REMARK>
 VINA RESULT:      -8.0      2.446      8.266
  Name = 
  2 active torsions:
  status: ('A' for Active; 'I' for Inactive)
    1  A    between atoms: C_7  and  C_11
    2  A    between atoms: N_18  and  C_30
                            x       y       z     vdW  Elec       q    Type
                         _______ _______ _______ _____ _____    ______ ____

>  <TORSDO>
F 2

$$$$
