=
 OpenBabel11052417463D

 31 34  0  0  1  0  0  0  0  0999 V2000
  182.9610  178.4010  141.7370 C   0  0  0  0  0  0  0  0  0  0  0  0
  186.3390  177.4520  143.4580 C   0  0  0  0  0  0  0  0  0  0  0  0
  186.3130  177.9500  144.7860 C   0  0  0  0  0  0  0  0  0  0  0  0
  184.4580  178.7280  146.2280 C   0  0  0  0  0  3  0  0  0  0  0  0
  185.3280  177.8500  142.4250 C   0  0  0  0  0  0  0  0  0  0  0  0
  183.4160  178.2940  140.3520 C   0  0  0  0  0  3  0  0  0  0  0  0
  185.4210  179.0990  145.1500 C   0  0  0  0  0  2  0  0  0  0  0  0
  187.4570  176.0350  141.6900 C   0  0  2  0  0  3  0  0  0  0  0  0
  181.7740  178.7350  141.9830 O   0  0  0  0  0  0  0  0  0  0  0  0
  188.2150  176.5590  145.3210 C   0  0  0  0  0  3  0  0  0  0  0  0
  184.8460  178.4050  147.4590 C   0  0  0  0  0  3  0  0  0  0  0  0
  187.3270  177.4630  140.5770 S   0  0  0  0  0  0  0  0  0  0  0  0
  187.3600  176.5400  143.1050 C   0  0  0  0  0  0  0  0  0  0  0  0
  183.8970  178.0830  142.8610 C   0  0  0  0  0  2  0  0  0  0  0  0
  186.2480  178.2860  147.8980 C   0  0  0  0  0  3  0  0  0  0  0  0
  185.6440  177.8010  141.1080 C   0  0  0  0  0  0  0  0  0  0  0  0
  184.6530  178.0100  140.0910 N   0  0  0  0  0  0  0  0  0  0  0  0
  188.2550  176.1210  144.0390 N   0  0  0  0  0  0  0  0  0  0  0  0
  187.2460  177.4710  145.7310 C   0  0  0  0  0  0  0  0  0  0  0  0
  187.2830  177.8890  147.1480 C   0  0  0  0  0  3  0  0  0  0  0  0
  188.7250  175.3570  141.4540 N   0  0  0  0  0  2  0  0  0  0  0  0
  188.4100  174.1190  139.5130 O   0  0  0  0  0  1  0  0  0  0  0  0
  188.4160  174.0430  140.9070 C   0  0  1  0  0  3  0  0  0  0  0  0
  190.7830  173.2350  140.6900 C   0  0  0  0  0  1  0  0  0  0  0  0
  189.4490  173.0130  141.3840 C   0  0  1  0  0  3  0  0  0  0  0  0
  189.2130  171.8540  143.4950 O   0  0  0  0  0  1  0  0  0  0  0  0
  189.6740  173.0320  142.9010 C   0  0  1  0  0  3  0  0  0  0  0  0
  191.1350  173.2600  143.2620 C   0  0  0  0  0  2  0  0  0  0  0  0
  191.2560  174.3450  144.2230 N   0  0  0  0  0  0  0  0  0  0  0  0
  192.2310  173.9270  145.2150 C   0  0  0  0  0  1  0  0  0  0  0  0
  191.8420  175.4660  143.5120 C   0  0  0  0  0  1  0  0  0  0  0  0
  1  9  2  0  0  0  0
  1 14  1  0  0  0  0
  2  3  1  0  0  0  0
  3  7  1  0  0  0  0
  3 19  2  0  0  0  0
  4 11  2  0  0  0  0
  5 14  1  0  0  0  0
  5  2  1  0  0  0  0
  6  1  1  0  0  0  0
  7  4  1  0  0  0  0
  8 21  1  1  0  0  0
  8 13  1  0  0  0  0
 10 19  1  0  0  0  0
 11 15  1  0  0  0  0
 12 16  1  0  0  0  0
 12  8  1  0  0  0  0
 13  2  2  0  0  0  0
 13 18  1  0  0  0  0
 16  5  2  0  0  0  0
 17  6  2  0  0  0  0
 17 16  1  0  0  0  0
 18 10  2  0  0  0  0
 19 20  1  0  0  0  0
 20 15  2  0  0  0  0
 23 22  1  6  0  0  0
 23 25  1  0  0  0  0
 23 21  1  0  0  0  0
 25 24  1  6  0  0  0
 25 27  1  0  0  0  0
 27 28  1  0  0  0  0
 27 26  1  6  0  0  0
 28 29  1  0  0  0  0
 29 30  1  0  0  0  0
 31 29  1  0  0  0  0
M  END
>  <MODEL>
1

>  <REMARK>
 VINA RESULT:      -7.9      0.000      0.000
  Name = 
  6 active torsions:
  status: ('A' for Active; 'I' for Inactive)
    1  A    between atoms: N_1  and  C_24
    2  A    between atoms: C_9  and  C_22
    3  A    between atoms: C_9  and  N_23
    4  A    between atoms: C_15  and  N_23
    5  A    between atoms: C_19  and  C_22
    6  A    between atoms: C_19  and  C_24
                            x       y       z     vdW  Elec       q    Type
                         _______ _______ _______ _____ _____    ______ ____

>  <TORSDO>
F 6

$$$$
=
 OpenBabel11052417463D

 31 34  0  0  1  0  0  0  0  0999 V2000
  185.3160  177.9140  140.8760 C   0  0  0  0  0  0  0  0  0  0  0  0
  187.2140  177.2110  144.2190 C   0  0  0  0  0  0  0  0  0  0  0  0
  186.5120  177.8560  145.2700 C   0  0  0  0  0  0  0  0  0  0  0  0
  184.2150  178.7660  145.4130 C   0  0  0  0  0  3  0  0  0  0  0  0
  186.9270  177.4760  142.7720 C   0  0  0  0  0  0  0  0  0  0  0  0
  186.4310  177.6570  139.9660 C   0  0  0  0  0  3  0  0  0  0  0  0
  185.6190  179.0250  144.9820 C   0  0  0  0  0  2  0  0  0  0  0  0
  189.0300  175.6190  143.4760 C   0  0  2  0  0  3  0  0  0  0  0  0
  184.1970  178.2560  140.4160 O   0  0  0  0  0  0  0  0  0  0  0  0
  187.7690  176.5590  146.8760 C   0  0  0  0  0  3  0  0  0  0  0  0
  183.8740  178.5890  146.6870 C   0  0  0  0  0  3  0  0  0  0  0  0
  189.5800  176.9100  142.3250 S   0  0  0  0  0  0  0  0  0  0  0  0
  188.2220  176.2790  144.5610 C   0  0  0  0  0  0  0  0  0  0  0  0
  185.4960  177.7380  142.3520 C   0  0  0  0  0  2  0  0  0  0  0  0
  184.8220  178.5390  147.8150 C   0  0  0  0  0  3  0  0  0  0  0  0
  187.8900  177.2840  141.8390 C   0  0  0  0  0  0  0  0  0  0  0  0
  187.6030  177.3620  140.4350 N   0  0  0  0  0  0  0  0  0  0  0  0
  188.4620  175.9810  145.8650 N   0  0  0  0  0  0  0  0  0  0  0  0
  186.7760  177.4990  146.6090 C   0  0  0  0  0  0  0  0  0  0  0  0
  186.0760  178.0740  147.7770 C   0  0  0  0  0  3  0  0  0  0  0  0
  190.1950  174.9360  144.0230 N   0  0  0  0  0  2  0  0  0  0  0  0
  192.1650  174.4420  142.8950 O   0  0  0  0  0  1  0  0  0  0  0  0
  190.7950  174.1730  142.9380 C   0  0  1  0  0  3  0  0  0  0  0  0
  189.9690  172.4120  144.5270 C   0  0  0  0  0  1  0  0  0  0  0  0
  190.5500  172.6710  143.1460 C   0  0  1  0  0  3  0  0  0  0  0  0
  188.2780  172.2970  142.4050 O   0  0  0  0  0  1  0  0  0  0  0  0
  189.6190  172.0540  142.0960 C   0  0  1  0  0  3  0  0  0  0  0  0
  189.9280  172.5520  140.6910 C   0  0  0  0  0  2  0  0  0  0  0  0
  188.7020  172.6890  139.9220 N   0  0  0  0  0  0  0  0  0  0  0  0
  188.5910  174.0870  139.5450 C   0  0  0  0  0  1  0  0  0  0  0  0
  188.8990  171.9440  138.6920 C   0  0  0  0  0  1  0  0  0  0  0  0
  1 14  1  0  0  0  0
  2 13  2  0  0  0  0
  2  3  1  0  0  0  0
  3 19  2  0  0  0  0
  4 11  2  0  0  0  0
  5  2  1  0  0  0  0
  6 17  2  0  0  0  0
  6  1  1  0  0  0  0
  7  3  1  0  0  0  0
  7  4  1  0  0  0  0
  8 21  1  1  0  0  0
  8 13  1  0  0  0  0
  9  1  2  0  0  0  0
 11 15  1  0  0  0  0
 12  8  1  0  0  0  0
 13 18  1  0  0  0  0
 14  5  1  0  0  0  0
 16 12  1  0  0  0  0
 16  5  2  0  0  0  0
 17 16  1  0  0  0  0
 18 10  2  0  0  0  0
 19 10  1  0  0  0  0
 19 20  1  0  0  0  0
 20 15  2  0  0  0  0
 23 22  1  1  0  0  0
 23 25  1  0  0  0  0
 23 21  1  0  0  0  0
 25 24  1  1  0  0  0
 27 26  1  1  0  0  0
 27 25  1  0  0  0  0
 28 27  1  0  0  0  0
 29 28  1  0  0  0  0
 30 29  1  0  0  0  0
 31 29  1  0  0  0  0
M  END
>  <MODEL>
2

>  <REMARK>
 VINA RESULT:      -7.6      1.692      2.965
  Name = 
  6 active torsions:
  status: ('A' for Active; 'I' for Inactive)
    1  A    between atoms: N_1  and  C_24
    2  A    between atoms: C_9  and  C_22
    3  A    between atoms: C_9  and  N_23
    4  A    between atoms: C_15  and  N_23
    5  A    between atoms: C_19  and  C_22
    6  A    between atoms: C_19  and  C_24
                            x       y       z     vdW  Elec       q    Type
                         _______ _______ _______ _____ _____    ______ ____

>  <TORSDO>
F 6

$$$$
=
 OpenBabel11052417463D

 31 34  0  0  1  0  0  0  0  0999 V2000
  191.1020  176.5380  147.5560 C   0  0  0  0  0  0  0  0  0  0  0  0
  188.1110  176.2710  145.0560 C   0  0  0  0  0  0  0  0  0  0  0  0
  186.9670  176.8390  145.6730 C   0  0  0  0  0  0  0  0  0  0  0  0
  186.7100  178.3340  147.6290 C   0  0  0  0  0  3  0  0  0  0  0  0
  189.3690  175.9650  145.8100 C   0  0  0  0  0  0  0  0  0  0  0  0
  191.9300  175.4820  146.9770 C   0  0  0  0  0  3  0  0  0  0  0  0
  186.8730  176.9250  147.1670 C   0  0  0  0  0  2  0  0  0  0  0  0
  189.2250  175.3320  142.9910 C   0  0  2  0  0  3  0  0  0  0  0  0
  191.5030  177.1640  148.5710 O   0  0  0  0  0  0  0  0  0  0  0  0
  185.8610  176.8910  143.5250 C   0  0  0  0  0  3  0  0  0  0  0  0
  185.6380  179.0670  147.3390 C   0  0  0  0  0  3  0  0  0  0  0  0
  189.7410  173.9210  144.0090 S   0  0  0  0  0  0  0  0  0  0  0  0
  188.0540  175.9900  143.6710 C   0  0  0  0  0  0  0  0  0  0  0  0
  189.7950  176.8990  146.9240 C   0  0  0  0  0  2  0  0  0  0  0  0
  184.5280  178.6320  146.4720 C   0  0  0  0  0  3  0  0  0  0  0  0
  190.2080  174.9950  145.3720 C   0  0  0  0  0  0  0  0  0  0  0  0
  191.4980  174.7920  145.9680 N   0  0  0  0  0  0  0  0  0  0  0  0
  186.9440  176.3100  142.9540 N   0  0  0  0  0  0  0  0  0  0  0  0
  185.8440  177.1780  144.8880 C   0  0  0  0  0  0  0  0  0  0  0  0
  184.6190  177.8110  145.4190 C   0  0  0  0  0  3  0  0  0  0  0  0
  188.8690  174.8590  141.6600 N   0  0  0  0  0  2  0  0  0  0  0  0
  187.5810  172.9260  141.6720 O   0  0  0  0  0  1  0  0  0  0  0  0
  188.8920  173.4040  141.7000 C   0  0  1  0  0  3  0  0  0  0  0  0
  190.5420  171.6710  140.9400 C   0  0  0  0  0  1  0  0  0  0  0  0
  189.6900  172.8530  140.5090 C   0  0  1  0  0  3  0  0  0  0  0  0
  188.4020  173.5230  138.5730 O   0  0  0  0  0  1  0  0  0  0  0  0
  188.8070  172.4210  139.3310 C   0  0  1  0  0  3  0  0  0  0  0  0
  189.4990  171.4010  138.4390 C   0  0  0  0  0  2  0  0  0  0  0  0
  190.0440  172.0490  137.2570 N   0  0  0  0  0  0  0  0  0  0  0  0
  191.4890  171.9240  137.3320 C   0  0  0  0  0  1  0  0  0  0  0  0
  189.6180  171.2580  136.1170 C   0  0  0  0  0  1  0  0  0  0  0  0
  1  9  2  0  0  0  0
  2  3  1  0  0  0  0
  2  5  1  0  0  0  0
  3  7  1  0  0  0  0
  5 14  1  0  0  0  0
  6  1  1  0  0  0  0
  7  4  1  0  0  0  0
  8 21  1  6  0  0  0
  8 13  1  0  0  0  0
  8 12  1  0  0  0  0
 10 19  1  0  0  0  0
 11  4  2  0  0  0  0
 12 16  1  0  0  0  0
 13  2  2  0  0  0  0
 14  1  1  0  0  0  0
 15 11  1  0  0  0  0
 16  5  2  0  0  0  0
 16 17  1  0  0  0  0
 17  6  2  0  0  0  0
 18 10  2  0  0  0  0
 18 13  1  0  0  0  0
 19 20  1  0  0  0  0
 19  3  2  0  0  0  0
 20 15  2  0  0  0  0
 21 23  1  0  0  0  0
 23 22  1  6  0  0  0
 25 24  1  1  0  0  0
 25 23  1  0  0  0  0
 27 26  1  6  0  0  0
 27 25  1  0  0  0  0
 28 27  1  0  0  0  0
 29 30  1  0  0  0  0
 29 28  1  0  0  0  0
 31 29  1  0  0  0  0
M  END
>  <MODEL>
3

>  <REMARK>
 VINA RESULT:      -7.4      2.761      5.588
  Name = 
  6 active torsions:
  status: ('A' for Active; 'I' for Inactive)
    1  A    between atoms: N_1  and  C_24
    2  A    between atoms: C_9  and  C_22
    3  A    between atoms: C_9  and  N_23
    4  A    between atoms: C_15  and  N_23
    5  A    between atoms: C_19  and  C_22
    6  A    between atoms: C_19  and  C_24
                            x       y       z     vdW  Elec       q    Type
                         _______ _______ _______ _____ _____    ______ ____

>  <TORSDO>
F 6

$$$$
=
 OpenBabel11052417463D

 31 34  0  0  1  0  0  0  0  0999 V2000
  191.0550  176.5880  147.6080 C   0  0  0  0  0  0  0  0  0  0  0  0
  188.1110  176.4150  145.0450 C   0  0  0  0  0  0  0  0  0  0  0  0
  186.9500  176.9390  145.6690 C   0  0  0  0  0  0  0  0  0  0  0  0
  186.6420  178.3320  147.6910 C   0  0  0  0  0  3  0  0  0  0  0  0
  189.3590  176.0850  145.8050 C   0  0  0  0  0  0  0  0  0  0  0  0
  191.9050  175.5710  146.9920 C   0  0  0  0  0  3  0  0  0  0  0  0
  186.8290  176.9500  147.1630 C   0  0  0  0  0  2  0  0  0  0  0  0
  189.2720  175.5920  142.9560 C   0  0  2  0  0  3  0  0  0  0  0  0
  191.4300  177.1670  148.6600 O   0  0  0  0  0  0  0  0  0  0  0  0
  185.8810  177.0870  143.5060 C   0  0  0  0  0  3  0  0  0  0  0  0
  185.5670  179.0670  147.4190 C   0  0  0  0  0  3  0  0  0  0  0  0
  189.7850  174.1370  143.9110 S   0  0  0  0  0  0  0  0  0  0  0  0
  188.0810  176.2030  143.6460 C   0  0  0  0  0  0  0  0  0  0  0  0
  189.7540  176.9660  146.9710 C   0  0  0  0  0  2  0  0  0  0  0  0
  184.4770  178.6650  146.5110 C   0  0  0  0  0  3  0  0  0  0  0  0
  190.2170  175.1470  145.3340 C   0  0  0  0  0  0  0  0  0  0  0  0
  191.4980  174.9280  145.9430 N   0  0  0  0  0  0  0  0  0  0  0  0
  186.9800  176.5470  142.9260 N   0  0  0  0  0  0  0  0  0  0  0  0
  185.8370  177.3060  144.8810 C   0  0  0  0  0  0  0  0  0  0  0  0
  184.5960  177.8990  145.4210 C   0  0  0  0  0  3  0  0  0  0  0  0
  188.9450  175.1830  141.5970 N   0  0  0  0  0  2  0  0  0  0  0  0
  187.8160  173.1540  141.5170 O   0  0  0  0  0  1  0  0  0  0  0  0
  189.0850  173.7350  141.5380 C   0  0  1  0  0  3  0  0  0  0  0  0
  191.3430  173.7220  140.4380 C   0  0  0  0  0  1  0  0  0  0  0  0
  189.8820  173.3290  140.2890 C   0  0  1  0  0  3  0  0  0  0  0  0
  189.7230  171.6060  138.5990 O   0  0  0  0  0  1  0  0  0  0  0  0
  189.8030  171.8300  139.9760 C   0  0  1  0  0  3  0  0  0  0  0  0
  190.9780  171.0590  140.5620 C   0  0  0  0  0  2  0  0  0  0  0  0
  190.5900  170.4160  141.8070 N   0  0  0  0  0  0  0  0  0  0  0  0
  190.8170  168.9910  141.6370 C   0  0  0  0  0  1  0  0  0  0  0  0
  191.5290  170.8670  142.8170 C   0  0  0  0  0  1  0  0  0  0  0  0
  1  9  2  0  0  0  0
  2  3  1  0  0  0  0
  2  5  1  0  0  0  0
  3  7  1  0  0  0  0
  5 14  1  0  0  0  0
  6  1  1  0  0  0  0
  7  4  1  0  0  0  0
  8 21  1  6  0  0  0
  8 13  1  0  0  0  0
  8 12  1  0  0  0  0
 10 19  1  0  0  0  0
 11  4  2  0  0  0  0
 12 16  1  0  0  0  0
 13  2  2  0  0  0  0
 14  1  1  0  0  0  0
 15 11  1  0  0  0  0
 16  5  2  0  0  0  0
 16 17  1  0  0  0  0
 17  6  2  0  0  0  0
 18 10  2  0  0  0  0
 18 13  1  0  0  0  0
 19 20  1  0  0  0  0
 19  3  2  0  0  0  0
 20 15  2  0  0  0  0
 23 22  1  6  0  0  0
 23 21  1  0  0  0  0
 25 24  1  1  0  0  0
 25 23  1  0  0  0  0
 27 26  1  6  0  0  0
 27 25  1  0  0  0  0
 27 28  1  0  0  0  0
 28 29  1  0  0  0  0
 29 31  1  0  0  0  0
 30 29  1  0  0  0  0
M  END
>  <MODEL>
4

>  <REMARK>
 VINA RESULT:      -7.4      2.598      5.132
  Name = 
  6 active torsions:
  status: ('A' for Active; 'I' for Inactive)
    1  A    between atoms: N_1  and  C_24
    2  A    between atoms: C_9  and  C_22
    3  A    between atoms: C_9  and  N_23
    4  A    between atoms: C_15  and  N_23
    5  A    between atoms: C_19  and  C_22
    6  A    between atoms: C_19  and  C_24
                            x       y       z     vdW  Elec       q    Type
                         _______ _______ _______ _____ _____    ______ ____

>  <TORSDO>
F 6

$$$$
=
 OpenBabel11052417463D

 31 34  0  0  1  0  0  0  0  0999 V2000
  185.1140  178.1840  146.9650 C   0  0  0  0  0  0  0  0  0  0  0  0
  187.6160  177.4720  144.0500 C   0  0  0  0  0  0  0  0  0  0  0  0
  186.8780  177.4060  142.8400 C   0  0  0  0  0  0  0  0  0  0  0  0
  184.5980  178.1620  142.2480 C   0  0  0  0  0  3  0  0  0  0  0  0
  186.9620  177.4710  145.3980 C   0  0  0  0  0  0  0  0  0  0  0  0
  185.9470  177.6870  148.0580 C   0  0  0  0  0  3  0  0  0  0  0  0
  185.4160  177.0750  142.8580 C   0  0  0  0  0  2  0  0  0  0  0  0
  189.8490  177.5560  145.2320 C   0  0  2  0  0  3  0  0  0  0  0  0
  183.9660  178.6390  147.2070 O   0  0  0  0  0  0  0  0  0  0  0  0
  188.9430  177.5840  141.5970 C   0  0  0  0  0  3  0  0  0  0  0  0
  184.6900  178.4980  140.9630 C   0  0  0  0  0  3  0  0  0  0  0  0
  189.2390  176.2260  146.3060 S   0  0  0  0  0  0  0  0  0  0  0  0
  189.0270  177.5450  143.9700 C   0  0  0  0  0  0  0  0  0  0  0  0
  185.6360  178.1850  145.5630 C   0  0  0  0  0  2  0  0  0  0  0  0
  185.6500  177.9170  140.0070 C   0  0  0  0  0  3  0  0  0  0  0  0
  187.6360  177.0200  146.4830 C   0  0  0  0  0  0  0  0  0  0  0  0
  187.1060  177.1620  147.8100 N   0  0  0  0  0  0  0  0  0  0  0  0
  189.6410  177.6040  142.7590 N   0  0  0  0  0  0  0  0  0  0  0  0
  187.5530  177.4940  141.6040 C   0  0  0  0  0  0  0  0  0  0  0  0
  186.8820  177.4790  140.2870 C   0  0  0  0  0  3  0  0  0  0  0  0
  191.2600  177.3340  144.9480 N   0  0  0  0  0  2  0  0  0  0  0  0
  191.6460  175.2020  144.1120 O   0  0  0  0  0  1  0  0  0  0  0  0
  191.5550  175.9500  145.2870 C   0  0  1  0  0  3  0  0  0  0  0  0
  193.3600  174.4290  146.1440 C   0  0  0  0  0  1  0  0  0  0  0  0
  192.8670  175.8650  146.0800 C   0  0  1  0  0  3  0  0  0  0  0  0
  194.5640  177.5380  146.5000 O   0  0  0  0  0  1  0  0  0  0  0  0
  193.9850  176.7450  145.5060 C   0  0  1  0  0  3  0  0  0  0  0  0
  195.0560  175.9250  144.8030 C   0  0  0  0  0  2  0  0  0  0  0  0
  195.2520  176.4070  143.4440 N   0  0  0  0  0  0  0  0  0  0  0  0
  196.6790  176.6160  143.2690 C   0  0  0  0  0  1  0  0  0  0  0  0
  194.8810  175.3180  142.5600 C   0  0  0  0  0  1  0  0  0  0  0  0
  1  9  2  0  0  0  0
  1  6  1  0  0  0  0
  2  5  1  0  0  0  0
  3  7  1  0  0  0  0
  3  2  2  0  0  0  0
  4  7  1  0  0  0  0
  5 14  1  0  0  0  0
  5 16  2  0  0  0  0
  8 21  1  6  0  0  0
  8 12  1  0  0  0  0
 10 19  2  0  0  0  0
 10 18  1  0  0  0  0
 11  4  2  0  0  0  0
 12 16  1  0  0  0  0
 13  2  1  0  0  0  0
 13  8  1  0  0  0  0
 14  1  1  0  0  0  0
 15 20  2  0  0  0  0
 15 11  1  0  0  0  0
 16 17  1  0  0  0  0
 17  6  2  0  0  0  0
 18 13  2  0  0  0  0
 19  3  1  0  0  0  0
 20 19  1  0  0  0  0
 21 23  1  0  0  0  0
 23 22  1  6  0  0  0
 23 25  1  0  0  0  0
 25 24  1  6  0  0  0
 27 25  1  0  0  0  0
 27 26  1  1  0  0  0
 28 27  1  0  0  0  0
 29 28  1  0  0  0  0
 30 29  1  0  0  0  0
 31 29  1  0  0  0  0
M  END
>  <MODEL>
5

>  <REMARK>
 VINA RESULT:      -7.3      3.132      5.392
  Name = 
  6 active torsions:
  status: ('A' for Active; 'I' for Inactive)
    1  A    between atoms: N_1  and  C_24
    2  A    between atoms: C_9  and  C_22
    3  A    between atoms: C_9  and  N_23
    4  A    between atoms: C_15  and  N_23
    5  A    between atoms: C_19  and  C_22
    6  A    between atoms: C_19  and  C_24
                            x       y       z     vdW  Elec       q    Type
                         _______ _______ _______ _____ _____    ______ ____

>  <TORSDO>
F 6

$$$$
=
 OpenBabel11052417463D

 31 34  0  0  1  0  0  0  0  0999 V2000
  184.8870  177.9310  141.0690 C   0  0  0  0  0  0  0  0  0  0  0  0
  187.2450  177.6340  144.1710 C   0  0  0  0  0  0  0  0  0  0  0  0
  186.5670  178.1730  145.2940 C   0  0  0  0  0  0  0  0  0  0  0  0
  184.1790  178.6820  145.7000 C   0  0  0  0  0  3  0  0  0  0  0  0
  186.7540  177.8140  142.7660 C   0  0  0  0  0  0  0  0  0  0  0  0
  185.9190  177.8470  140.0360 C   0  0  0  0  0  3  0  0  0  0  0  0
  185.4600  179.1670  145.1090 C   0  0  0  0  0  2  0  0  0  0  0  0
  189.2110  176.3570  143.2250 C   0  0  2  0  0  3  0  0  0  0  0  0
  183.6810  178.0680  140.7400 O   0  0  0  0  0  0  0  0  0  0  0  0
  188.2020  177.1440  146.7460 C   0  0  0  0  0  3  0  0  0  0  0  0
  184.0210  178.4780  147.0060 C   0  0  0  0  0  3  0  0  0  0  0  0
  189.3970  177.6980  142.0160 S   0  0  0  0  0  0  0  0  0  0  0  0
  188.4290  176.8940  144.3960 C   0  0  0  0  0  0  0  0  0  0  0  0
  185.2610  177.8200  142.5140 C   0  0  0  0  0  2  0  0  0  0  0  0
  185.0850  178.6140  148.0160 C   0  0  0  0  0  3  0  0  0  0  0  0
  187.6240  177.7680  141.7290 C   0  0  0  0  0  0  0  0  0  0  0  0
  187.1690  177.7660  140.3670 N   0  0  0  0  0  0  0  0  0  0  0  0
  188.8640  176.6700  145.6640 N   0  0  0  0  0  0  0  0  0  0  0  0
  187.0390  177.8950  146.5950 C   0  0  0  0  0  0  0  0  0  0  0  0
  186.3870  178.3690  147.8340 C   0  0  0  0  0  3  0  0  0  0  0  0
  190.5290  175.8940  143.6350 N   0  0  0  0  0  2  0  0  0  0  0  0
  190.9030  174.1590  142.1370 O   0  0  0  0  0  1  0  0  0  0  0  0
  190.5530  174.4500  143.4570 C   0  0  1  0  0  3  0  0  0  0  0  0
  192.2980  172.6680  143.7570 C   0  0  0  0  0  1  0  0  0  0  0  0
  191.5550  173.8110  144.4300 C   0  0  1  0  0  3  0  0  0  0  0  0
  192.6450  174.7340  146.3830 O   0  0  0  0  0  1  0  0  0  0  0  0
  192.5810  174.8050  144.9890 C   0  0  1  0  0  3  0  0  0  0  0  0
  193.9650  174.5970  144.3920 C   0  0  0  0  0  2  0  0  0  0  0  0
  194.5140  175.8640  143.9340 N   0  0  0  0  0  0  0  0  0  0  0  0
  195.9590  175.7220  143.9250 C   0  0  0  0  0  1  0  0  0  0  0  0
  194.1040  176.0160  142.5500 C   0  0  0  0  0  1  0  0  0  0  0  0
  1 14  1  0  0  0  0
  2 13  2  0  0  0  0
  2  3  1  0  0  0  0
  3 19  2  0  0  0  0
  4 11  2  0  0  0  0
  5  2  1  0  0  0  0
  6 17  2  0  0  0  0
  6  1  1  0  0  0  0
  7  3  1  0  0  0  0
  7  4  1  0  0  0  0
  8 21  1  1  0  0  0
  8 13  1  0  0  0  0
  9  1  2  0  0  0  0
 11 15  1  0  0  0  0
 12  8  1  0  0  0  0
 13 18  1  0  0  0  0
 14  5  1  0  0  0  0
 16 12  1  0  0  0  0
 16  5  2  0  0  0  0
 17 16  1  0  0  0  0
 18 10  2  0  0  0  0
 19 10  1  0  0  0  0
 19 20  1  0  0  0  0
 20 15  2  0  0  0  0
 23 22  1  6  0  0  0
 23 21  1  0  0  0  0
 23 25  1  0  0  0  0
 25 24  1  6  0  0  0
 25 27  1  0  0  0  0
 27 26  1  1  0  0  0
 28 27  1  0  0  0  0
 29 28  1  0  0  0  0
 30 29  1  0  0  0  0
 31 29  1  0  0  0  0
M  END
>  <MODEL>
6

>  <REMARK>
 VINA RESULT:      -7.2      2.011      2.613
  Name = 
  6 active torsions:
  status: ('A' for Active; 'I' for Inactive)
    1  A    between atoms: N_1  and  C_24
    2  A    between atoms: C_9  and  C_22
    3  A    between atoms: C_9  and  N_23
    4  A    between atoms: C_15  and  N_23
    5  A    between atoms: C_19  and  C_22
    6  A    between atoms: C_19  and  C_24
                            x       y       z     vdW  Elec       q    Type
                         _______ _______ _______ _____ _____    ______ ____

>  <TORSDO>
F 6

$$$$
=
 OpenBabel11052417463D

 31 34  0  0  1  0  0  0  0  0999 V2000
  186.8730  177.3110  140.6600 C   0  0  0  0  0  0  0  0  0  0  0  0
  188.5790  174.8750  143.1950 C   0  0  0  0  0  0  0  0  0  0  0  0
  188.8760  173.6670  142.5140 C   0  0  0  0  0  0  0  0  0  0  0  0
  189.0110  173.1110  140.1060 C   0  0  0  0  0  3  0  0  0  0  0  0
  187.6940  175.9350  142.6130 C   0  0  0  0  0  0  0  0  0  0  0  0
  186.2130  178.1740  141.6390 C   0  0  0  0  0  3  0  0  0  0  0  0
  188.1110  173.2790  141.2840 C   0  0  0  0  0  2  0  0  0  0  0  0
  188.8120  176.3250  145.2520 C   0  0  2  0  0  3  0  0  0  0  0  0
  186.7320  177.5360  139.4300 O   0  0  0  0  0  0  0  0  0  0  0  0
  190.3250  173.0220  144.3380 C   0  0  0  0  0  3  0  0  0  0  0  0
  189.9450  172.1660  140.0430 C   0  0  0  0  0  3  0  0  0  0  0  0
  187.0100  176.5390  145.2070 S   0  0  0  0  0  0  0  0  0  0  0  0
  189.1500  175.0820  144.4720 C   0  0  0  0  0  0  0  0  0  0  0  0
  187.7410  176.1820  141.1190 C   0  0  0  0  0  2  0  0  0  0  0  0
  190.2730  171.2300  141.1330 C   0  0  0  0  0  3  0  0  0  0  0  0
  187.0220  176.7850  143.4260 C   0  0  0  0  0  0  0  0  0  0  0  0
  186.3030  177.9140  142.9050 N   0  0  0  0  0  0  0  0  0  0  0  0
  190.0010  174.1610  144.9970 N   0  0  0  0  0  0  0  0  0  0  0  0
  189.7830  172.7480  143.0840 C   0  0  0  0  0  0  0  0  0  0  0  0
  190.1960  171.4810  142.4440 C   0  0  0  0  0  3  0  0  0  0  0  0
  189.2470  176.2170  146.6380 N   0  0  0  0  0  2  0  0  0  0  0  0
  189.7970  178.1460  147.8100 O   0  0  0  0  0  1  0  0  0  0  0  0
  190.2590  177.2420  146.8520 C   0  0  1  0  0  3  0  0  0  0  0  0
  191.3030  175.3190  148.0850 C   0  0  0  0  0  1  0  0  0  0  0  0
  191.5760  176.5990  147.3120 C   0  0  1  0  0  3  0  0  0  0  0  0
  192.2170  177.0270  145.0180 O   0  0  0  0  0  1  0  0  0  0  0  0
  192.5360  176.2840  146.1580 C   0  0  1  0  0  3  0  0  0  0  0  0
  193.9900  176.5180  146.5420 C   0  0  0  0  0  2  0  0  0  0  0  0
  194.8240  175.4320  146.0500 N   0  0  0  0  0  0  0  0  0  0  0  0
  193.9340  174.3380  145.7020 C   0  0  0  0  0  1  0  0  0  0  0  0
  195.4170  175.8950  144.8090 C   0  0  0  0  0  1  0  0  0  0  0  0
  1 14  1  0  0  0  0
  1  6  1  0  0  0  0
  2 13  1  0  0  0  0
  3 19  1  0  0  0  0
  3  2  2  0  0  0  0
  4  7  1  0  0  0  0
  5  2  1  0  0  0  0
  5 16  2  0  0  0  0
  6 17  2  0  0  0  0
  7  3  1  0  0  0  0
  8 21  1  1  0  0  0
  9  1  2  0  0  0  0
 10 18  1  0  0  0  0
 11  4  2  0  0  0  0
 11 15  1  0  0  0  0
 12  8  1  0  0  0  0
 13 18  2  0  0  0  0
 13  8  1  0  0  0  0
 14  5  1  0  0  0  0
 15 20  2  0  0  0  0
 16 12  1  0  0  0  0
 17 16  1  0  0  0  0
 19 10  2  0  0  0  0
 20 19  1  0  0  0  0
 21 23  1  0  0  0  0
 23 25  1  0  0  0  0
 23 22  1  1  0  0  0
 25 24  1  6  0  0  0
 27 26  1  6  0  0  0
 27 28  1  0  0  0  0
 27 25  1  0  0  0  0
 29 28  1  0  0  0  0
 30 29  1  0  0  0  0
 31 29  1  0  0  0  0
M  END
>  <MODEL>
7

>  <REMARK>
 VINA RESULT:      -6.8      2.997      5.994
  Name = 
  6 active torsions:
  status: ('A' for Active; 'I' for Inactive)
    1  A    between atoms: N_1  and  C_24
    2  A    between atoms: C_9  and  C_22
    3  A    between atoms: C_9  and  N_23
    4  A    between atoms: C_15  and  N_23
    5  A    between atoms: C_19  and  C_22
    6  A    between atoms: C_19  and  C_24
                            x       y       z     vdW  Elec       q    Type
                         _______ _______ _______ _____ _____    ______ ____

>  <TORSDO>
F 6

$$$$
=
 OpenBabel11052417463D

 31 34  0  0  1  0  0  0  0  0999 V2000
  192.4150  173.7330  140.1980 C   0  0  0  0  0  0  0  0  0  0  0  0
  190.9070  175.4830  143.3490 C   0  0  0  0  0  0  0  0  0  0  0  0
  191.8890  175.4700  144.3730 C   0  0  0  0  0  0  0  0  0  0  0  0
  194.3330  175.0880  144.3220 C   0  0  0  0  0  3  0  0  0  0  0  0
  191.0380  174.6760  142.0940 C   0  0  0  0  0  0  0  0  0  0  0  0
  191.1520  173.3950  139.5440 C   0  0  0  0  0  3  0  0  0  0  0  0
  192.9860  174.4490  144.3630 C   0  0  0  0  0  2  0  0  0  0  0  0
  188.6730  176.2940  142.4900 C   0  0  2  0  0  3  0  0  0  0  0  0
  193.5060  173.4100  139.6610 O   0  0  0  0  0  0  0  0  0  0  0  0
  190.6010  177.1090  145.5970 C   0  0  0  0  0  3  0  0  0  0  0  0
  194.8010  175.8440  145.3110 C   0  0  0  0  0  3  0  0  0  0  0  0
  188.2900  174.5650  142.0900 S   0  0  0  0  0  0  0  0  0  0  0  0
  189.7650  176.2980  143.5270 C   0  0  0  0  0  0  0  0  0  0  0  0
  192.4140  174.4910  141.4880 C   0  0  0  0  0  2  0  0  0  0  0  0
  194.0430  176.2190  146.5180 C   0  0  0  0  0  3  0  0  0  0  0  0
  189.9320  174.2950  141.4100 C   0  0  0  0  0  0  0  0  0  0  0  0
  190.0240  173.6710  140.1200 N   0  0  0  0  0  0  0  0  0  0  0  0
  189.6500  177.0820  144.6320 N   0  0  0  0  0  0  0  0  0  0  0  0
  191.7420  176.3180  145.4930 C   0  0  0  0  0  0  0  0  0  0  0  0
  192.7220  176.4160  146.5950 C   0  0  0  0  0  3  0  0  0  0  0  0
  187.4700  176.9490  142.9840 N   0  0  0  0  0  2  0  0  0  0  0  0
  187.4170  177.8970  140.8640 O   0  0  0  0  0  1  0  0  0  0  0  0
  187.3090  178.1820  142.2260 C   0  0  1  0  0  3  0  0  0  0  0  0
  184.8170  177.9110  142.0810 C   0  0  0  0  0  1  0  0  0  0  0  0
  185.9470  178.8200  142.5340 C   0  0  1  0  0  3  0  0  0  0  0  0
  185.5660  180.5220  144.2110 O   0  0  0  0  0  1  0  0  0  0  0  0
  185.7490  179.1500  144.0190 C   0  0  1  0  0  3  0  0  0  0  0  0
  184.5880  178.3790  144.6280 C   0  0  0  0  0  2  0  0  0  0  0  0
  185.0120  177.7010  145.8430 N   0  0  0  0  0  0  0  0  0  0  0  0
  186.4020  178.0590  146.0650 C   0  0  0  0  0  1  0  0  0  0  0  0
  184.2540  178.2890  146.9320 C   0  0  0  0  0  1  0  0  0  0  0  0
  1 14  1  0  0  0  0
  2 13  2  0  0  0  0
  2  3  1  0  0  0  0
  3 19  2  0  0  0  0
  4  7  1  0  0  0  0
  4 11  2  0  0  0  0
  5  2  1  0  0  0  0
  6 17  2  0  0  0  0
  6  1  1  0  0  0  0
  7  3  1  0  0  0  0
  8 21  1  1  0  0  0
  8 13  1  0  0  0  0
  9  1  2  0  0  0  0
 11 15  1  0  0  0  0
 12  8  1  0  0  0  0
 13 18  1  0  0  0  0
 14  5  1  0  0  0  0
 15 20  2  0  0  0  0
 16 12  1  0  0  0  0
 16  5  2  0  0  0  0
 17 16  1  0  0  0  0
 18 10  2  0  0  0  0
 19 10  1  0  0  0  0
 19 20  1  0  0  0  0
 23 22  1  6  0  0  0
 23 25  1  0  0  0  0
 23 21  1  0  0  0  0
 25 24  1  1  0  0  0
 25 27  1  0  0  0  0
 27 26  1  6  0  0  0
 27 28  1  0  0  0  0
 28 29  1  0  0  0  0
 29 30  1  0  0  0  0
 29 31  1  0  0  0  0
M  END
>  <MODEL>
8

>  <REMARK>
 VINA RESULT:      -6.8      2.453      7.274
  Name = 
  6 active torsions:
  status: ('A' for Active; 'I' for Inactive)
    1  A    between atoms: N_1  and  C_24
    2  A    between atoms: C_9  and  C_22
    3  A    between atoms: C_9  and  N_23
    4  A    between atoms: C_15  and  N_23
    5  A    between atoms: C_19  and  C_22
    6  A    between atoms: C_19  and  C_24
                            x       y       z     vdW  Elec       q    Type
                         _______ _______ _______ _____ _____    ______ ____

>  <TORSDO>
F 6

$$$$
=
 OpenBabel11052417463D

 31 34  0  0  1  0  0  0  0  0999 V2000
  190.0470  177.4860  147.5890 C   0  0  0  0  0  0  0  0  0  0  0  0
  188.1880  176.2780  144.3710 C   0  0  0  0  0  0  0  0  0  0  0  0
  186.9200  176.9110  144.3300 C   0  0  0  0  0  0  0  0  0  0  0  0
  186.0130  178.8830  145.5180 C   0  0  0  0  0  3  0  0  0  0  0  0
  189.0650  176.3010  145.5860 C   0  0  0  0  0  0  0  0  0  0  0  0
  190.9910  176.3740  147.6930 C   0  0  0  0  0  3  0  0  0  0  0  0
  186.2820  177.4180  145.5880 C   0  0  0  0  0  2  0  0  0  0  0  0
  189.9530  174.8700  143.2340 C   0  0  2  0  0  3  0  0  0  0  0  0
  190.0670  178.4080  148.4450 O   0  0  0  0  0  0  0  0  0  0  0  0
  186.6920  176.2540  142.0160 C   0  0  0  0  0  3  0  0  0  0  0  0
  185.1530  179.4160  144.6530 C   0  0  0  0  0  3  0  0  0  0  0  0
  190.0000  173.8570  144.7390 S   0  0  0  0  0  0  0  0  0  0  0  0
  188.6380  175.6040  143.2110 C   0  0  0  0  0  0  0  0  0  0  0  0
  189.0820  177.5470  146.4470 C   0  0  0  0  0  2  0  0  0  0  0  0
  184.4280  178.6650  143.6120 C   0  0  0  0  0  3  0  0  0  0  0  0
  189.9690  175.3130  145.7940 C   0  0  0  0  0  0  0  0  0  0  0  0
  190.9370  175.3910  146.8510 N   0  0  0  0  0  0  0  0  0  0  0  0
  187.8860  175.6170  142.0790 N   0  0  0  0  0  0  0  0  0  0  0  0
  186.1820  176.9210  143.1270 C   0  0  0  0  0  0  0  0  0  0  0  0
  184.8720  177.5840  142.9600 C   0  0  0  0  0  3  0  0  0  0  0  0
  190.0980  174.0060  142.0700 N   0  0  0  0  0  2  0  0  0  0  0  0
  190.3680  171.7000  141.9910 O   0  0  0  0  0  1  0  0  0  0  0  0
  190.9350  172.8840  142.4690 C   0  0  1  0  0  3  0  0  0  0  0  0
  192.3900  174.1570  140.8670 C   0  0  0  0  0  1  0  0  0  0  0  0
  192.3570  173.0580  141.9170 C   0  0  1  0  0  3  0  0  0  0  0  0
  194.4010  172.4080  143.0360 O   0  0  0  0  0  1  0  0  0  0  0  0
  193.3960  173.3790  142.9980 C   0  0  1  0  0  3  0  0  0  0  0  0
  194.0110  174.7580  142.8120 C   0  0  0  0  0  2  0  0  0  0  0  0
  194.2350  175.3910  144.1030 N   0  0  0  0  0  0  0  0  0  0  0  0
  195.5090  176.0820  144.0220 C   0  0  0  0  0  1  0  0  0  0  0  0
  193.2160  176.4150  144.2440 C   0  0  0  0  0  1  0  0  0  0  0  0
  1  6  1  0  0  0  0
  1  9  2  0  0  0  0
  2  5  1  0  0  0  0
  3  2  1  0  0  0  0
  3  7  1  0  0  0  0
  4  7  1  0  0  0  0
  5 16  2  0  0  0  0
  5 14  1  0  0  0  0
  8 21  1  6  0  0  0
  8 12  1  0  0  0  0
 10 18  2  0  0  0  0
 10 19  1  0  0  0  0
 11  4  2  0  0  0  0
 12 16  1  0  0  0  0
 13  8  1  0  0  0  0
 13  2  2  0  0  0  0
 14  1  1  0  0  0  0
 15 11  1  0  0  0  0
 16 17  1  0  0  0  0
 17  6  2  0  0  0  0
 18 13  1  0  0  0  0
 19  3  2  0  0  0  0
 20 19  1  0  0  0  0
 20 15  2  0  0  0  0
 21 23  1  0  0  0  0
 23 22  1  6  0  0  0
 25 24  1  6  0  0  0
 25 23  1  0  0  0  0
 25 27  1  0  0  0  0
 27 26  1  6  0  0  0
 28 27  1  0  0  0  0
 28 29  1  0  0  0  0
 29 31  1  0  0  0  0
 30 29  1  0  0  0  0
M  END
>  <MODEL>
9

>  <REMARK>
 VINA RESULT:      -6.6      2.957      5.031
  Name = 
  6 active torsions:
  status: ('A' for Active; 'I' for Inactive)
    1  A    between atoms: N_1  and  C_24
    2  A    between atoms: C_9  and  C_22
    3  A    between atoms: C_9  and  N_23
    4  A    between atoms: C_15  and  N_23
    5  A    between atoms: C_19  and  C_22
    6  A    between atoms: C_19  and  C_24
                            x       y       z     vdW  Elec       q    Type
                         _______ _______ _______ _____ _____    ______ ____

>  <TORSDO>
F 6

$$$$
