=
 OpenBabel11052418443D

 34 39  0  0  1  0  0  0  0  0999 V2000
  188.6810  174.7100  141.2700 C   0  0  0  0  0  0  0  0  0  0  0  0
  191.0520  174.1490  141.9390 C   0  0  0  0  0  3  0  0  0  0  0  0
  189.5440  175.6370  143.3640 C   0  0  0  0  0  0  0  0  0  0  0  0
  190.3080  176.4830  145.5670 C   0  0  0  0  0  0  0  0  0  0  0  0
  190.0810  173.4410  139.7820 C   0  0  0  0  0  3  0  0  0  0  0  0
  191.1370  173.4950  140.5910 C   0  0  0  0  0  3  0  0  0  0  0  0
  192.0270  175.6260  144.2700 C   0  0  1  0  0  3  0  0  0  0  0  0
  189.7470  174.8730  142.1850 C   0  0  0  0  0  0  0  0  0  0  0  0
  191.4250  176.5800  146.4230 N   0  0  0  0  0  2  0  0  0  0  0  0
  188.8390  174.0430  140.1640 N   0  0  0  0  0  0  0  0  0  0  0  0
  188.2590  176.1850  143.6430 C   0  0  0  0  0  0  0  0  0  0  0  0
  187.4370  175.2710  141.5410 C   0  0  0  0  0  3  0  0  0  0  0  0
  192.6420  176.5550  143.2250 C   0  0  0  0  0  1  0  0  0  0  0  0
  189.1070  176.9800  145.8310 C   0  0  0  0  0  3  0  0  0  0  0  0
  188.0270  176.8550  144.8150 C   0  0  0  0  0  0  0  0  0  0  0  0
  192.5220  175.9190  145.7200 C   0  0  2  0  0  3  0  0  0  0  0  0
  190.5890  175.8600  144.3370 N   0  0  0  0  0  0  0  0  0  0  0  0
  187.2260  175.9880  142.7130 C   0  0  0  0  0  2  0  0  0  0  0  0
  185.0790  179.2520  144.9400 C   0  0  0  0  0  0  0  0  0  0  0  0
  184.2680  178.6340  145.8950 C   0  0  0  0  0  3  0  0  0  0  0  0
  186.7170  177.4660  145.1620 C   0  0  0  0  0  0  0  0  0  0  0  0
  184.6790  177.4400  146.4910 C   0  0  0  0  0  3  0  0  0  0  0  0
  186.2990  178.6750  144.5800 C   0  0  0  0  0  3  0  0  0  0  0  0
  185.9000  176.8620  146.1290 C   0  0  0  0  0  3  0  0  0  0  0  0
  184.6840  180.4150  144.3670 F   0  0  0  0  0  0  0  0  0  0  0  0
  193.8400  176.6810  145.8720 C   0  0  0  0  0  2  0  0  0  0  0  0
  194.8960  175.8110  146.3720 N   0  0  0  0  0  2  0  0  0  0  0  0
  196.0690  175.8090  144.3640 O   0  0  0  0  0  1  0  0  0  0  0  0
  195.3500  175.0030  145.2510 C   0  0  1  0  0  3  0  0  0  0  0  0
  196.2350  173.8670  145.7520 C   0  0  1  0  0  3  0  0  0  0  0  0
  197.9410  172.2720  144.2820 S   0  0  0  0  0  0  0  0  0  0  0  0
  196.7950  171.3480  145.7950 S   0  0  0  0  0  0  0  0  0  0  0  0
  195.5650  172.5840  145.5620 N   0  0  0  0  0  2  0  0  0  0  0  0
  197.5890  173.8850  145.0360 C   0  0  0  0  0  2  0  0  0  0  0  0
  1 12  2  0  0  0  0
  1  8  1  0  0  0  0
  2  8  1  0  0  0  0
  3 11  1  0  0  0  0
  3 17  1  0  0  0  0
  4 14  2  0  0  0  0
  4  9  1  0  0  0  0
  5 10  2  0  0  0  0
  5  6  1  0  0  0  0
  6  2  2  0  0  0  0
  7 13  1  6  0  0  0
  7 17  1  0  0  0  0
  7 16  1  0  0  0  0
  8  3  2  0  0  0  0
 10  1  1  0  0  0  0
 11 15  2  0  0  0  0
 12 18  1  0  0  0  0
 15 21  1  0  0  0  0
 15 14  1  0  0  0  0
 16 26  1  6  0  0  0
 16  9  1  0  0  0  0
 17  4  1  0  0  0  0
 18 11  1  0  0  0  0
 19 20  1  0  0  0  0
 20 22  2  0  0  0  0
 21 24  2  0  0  0  0
 23 19  2  0  0  0  0
 23 21  1  0  0  0  0
 24 22  1  0  0  0  0
 25 19  1  0  0  0  0
 26 27  1  0  0  0  0
 29 28  1  6  0  0  0
 29 27  1  0  0  0  0
 30 29  1  6  0  0  0
 31 34  1  0  0  0  0
 31 32  1  0  0  0  0
 33 30  1  0  0  0  0
 33 32  1  0  0  0  0
 34 30  1  0  0  0  0
M  END
>  <MODEL>
1

>  <REMARK>
 VINA RESULT:      -8.8      0.000      0.000
  Name = 
  5 active torsions:
  status: ('A' for Active; 'I' for Inactive)
    1  A    between atoms: N_3  and  C_13
    2  A    between atoms: N_3  and  C_17
    3  A    between atoms: C_12  and  C_28
    4  A    between atoms: C_13  and  C_14
    5  A    between atoms: C_17  and  C_29
                            x       y       z     vdW  Elec       q    Type
                         _______ _______ _______ _____ _____    ______ ____

>  <TORSDO>
F 5

$$$$
=
 OpenBabel11052418443D

 34 39  0  0  1  0  0  0  0  0999 V2000
  191.3480  176.4040  146.3020 C   0  0  0  0  0  0  0  0  0  0  0  0
  192.3970  175.0150  144.4710 C   0  0  0  0  0  2  0  0  0  0  0  0
  189.9390  175.7020  144.4270 C   0  0  0  0  0  0  0  0  0  0  0  0
  188.4990  175.1510  142.4860 C   0  0  0  0  0  0  0  0  0  0  0  0
  193.6260  175.6620  146.5120 C   0  0  0  0  0  3  0  0  0  0  0  0
  193.6060  174.9940  145.3610 C   0  0  0  0  0  3  0  0  0  0  0  0
  190.4920  173.9700  142.5100 C   0  0  1  0  0  3  0  0  0  0  0  0
  191.1950  175.6920  145.0900 C   0  0  0  0  0  0  0  0  0  0  0  0
  188.4460  174.4220  141.2790 N   0  0  0  0  0  2  0  0  0  0  0  0
  192.4750  176.3920  146.9520 N   0  0  0  0  0  0  0  0  0  0  0  0
  188.8630  176.4720  144.9580 C   0  0  0  0  0  0  0  0  0  0  0  0
  190.2830  177.1320  146.8230 C   0  0  0  0  0  3  0  0  0  0  0  0
  190.5450  172.7080  143.3680 C   0  0  0  0  0  1  0  0  0  0  0  0
  187.5040  175.8790  142.9730 C   0  0  0  0  0  3  0  0  0  0  0  0
  187.6720  176.5570  144.2870 C   0  0  0  0  0  0  0  0  0  0  0  0
  189.7440  173.7630  141.1570 C   0  0  2  0  0  3  0  0  0  0  0  0
  189.7020  174.9870  143.1950 N   0  0  0  0  0  0  0  0  0  0  0  0
  189.0630  177.1730  146.1570 C   0  0  0  0  0  3  0  0  0  0  0  0
  185.1190  179.3270  144.7990 C   0  0  0  0  0  0  0  0  0  0  0  0
  184.3320  178.7850  145.8180 C   0  0  0  0  0  3  0  0  0  0  0  0
  186.5040  177.3260  144.7910 C   0  0  0  0  0  0  0  0  0  0  0  0
  184.6310  177.5210  146.3320 C   0  0  0  0  0  3  0  0  0  0  0  0
  186.2020  178.6050  144.2920 C   0  0  0  0  0  3  0  0  0  0  0  0
  185.7140  176.7980  145.8240 C   0  0  0  0  0  3  0  0  0  0  0  0
  184.8340  180.5570  144.3050 F   0  0  0  0  0  0  0  0  0  0  0  0
  189.6110  172.3290  140.6400 C   0  0  0  0  0  2  0  0  0  0  0  0
  188.8350  172.2830  139.4080 N   0  0  0  0  0  2  0  0  0  0  0  0
  189.4910  170.4420  138.1490 O   0  0  0  0  0  1  0  0  0  0  0  0
  189.7230  171.8030  138.3610 C   0  0  1  0  0  3  0  0  0  0  0  0
  189.4760  172.5780  137.0710 C   0  0  1  0  0  3  0  0  0  0  0  0
  191.0960  174.4800  135.8990 S   0  0  0  0  0  0  0  0  0  0  0  0
  189.0130  174.8260  135.8910 S   0  0  0  0  0  0  0  0  0  0  0  0
  188.8910  173.8810  137.3700 N   0  0  0  0  0  2  0  0  0  0  0  0
  190.7780  172.7340  136.2810 C   0  0  0  0  0  2  0  0  0  0  0  0
  1 12  1  0  0  0  0
  1 10  2  0  0  0  0
  2  8  1  0  0  0  0
  2  6  1  0  0  0  0
  3 11  1  0  0  0  0
  3  8  2  0  0  0  0
  4 14  2  0  0  0  0
  4 17  1  0  0  0  0
  5 10  1  0  0  0  0
  6  5  2  0  0  0  0
  7 17  1  0  0  0  0
  7 13  1  1  0  0  0
  8  1  1  0  0  0  0
  9  4  1  0  0  0  0
 11 18  1  0  0  0  0
 14 15  1  0  0  0  0
 15 21  1  0  0  0  0
 15 11  2  0  0  0  0
 16 26  1  1  0  0  0
 16  9  1  0  0  0  0
 16  7  1  0  0  0  0
 17  3  1  0  0  0  0
 18 12  2  0  0  0  0
 19 20  1  0  0  0  0
 20 22  2  0  0  0  0
 21 24  2  0  0  0  0
 23 21  1  0  0  0  0
 23 19  2  0  0  0  0
 24 22  1  0  0  0  0
 25 19  1  0  0  0  0
 27 26  1  0  0  0  0
 29 28  1  6  0  0  0
 29 27  1  0  0  0  0
 30 33  1  0  0  0  0
 30 29  1  1  0  0  0
 31 34  1  0  0  0  0
 32 31  1  0  0  0  0
 32 33  1  0  0  0  0
 34 30  1  0  0  0  0
M  END
>  <MODEL>
2

>  <REMARK>
 VINA RESULT:      -8.3      3.692      6.462
  Name = 
  5 active torsions:
  status: ('A' for Active; 'I' for Inactive)
    1  A    between atoms: N_3  and  C_13
    2  A    between atoms: N_3  and  C_17
    3  A    between atoms: C_12  and  C_28
    4  A    between atoms: C_13  and  C_14
    5  A    between atoms: C_17  and  C_29
                            x       y       z     vdW  Elec       q    Type
                         _______ _______ _______ _____ _____    ______ ____

>  <TORSDO>
F 5

$$$$
=
 OpenBabel11052418443D

 34 39  0  0  1  0  0  0  0  0999 V2000
  191.3180  176.4040  146.2960 C   0  0  0  0  0  0  0  0  0  0  0  0
  192.3630  175.0250  144.4560 C   0  0  0  0  0  2  0  0  0  0  0  0
  189.9040  175.7130  144.4210 C   0  0  0  0  0  0  0  0  0  0  0  0
  188.4600  175.1720  142.4790 C   0  0  0  0  0  0  0  0  0  0  0  0
  193.5960  175.6610  146.4980 C   0  0  0  0  0  3  0  0  0  0  0  0
  193.5730  174.9990  145.3430 C   0  0  0  0  0  3  0  0  0  0  0  0
  190.4530  173.9910  142.4930 C   0  0  1  0  0  3  0  0  0  0  0  0
  191.1610  175.6980  145.0800 C   0  0  0  0  0  0  0  0  0  0  0  0
  188.4050  174.4500  141.2690 N   0  0  0  0  0  2  0  0  0  0  0  0
  192.4460  176.3890  146.9440 N   0  0  0  0  0  0  0  0  0  0  0  0
  188.8300  176.4800  144.9580 C   0  0  0  0  0  0  0  0  0  0  0  0
  190.2540  177.1300  146.8230 C   0  0  0  0  0  3  0  0  0  0  0  0
  190.5080  172.7240  143.3440 C   0  0  0  0  0  1  0  0  0  0  0  0
  187.4660  175.8980  142.9730 C   0  0  0  0  0  3  0  0  0  0  0  0
  187.6370  176.5690  144.2900 C   0  0  0  0  0  0  0  0  0  0  0  0
  189.7020  173.7910  141.1410 C   0  0  2  0  0  3  0  0  0  0  0  0
  189.6650  175.0040  143.1850 N   0  0  0  0  0  0  0  0  0  0  0  0
  189.0330  177.1750  146.1600 C   0  0  0  0  0  3  0  0  0  0  0  0
  185.0810  179.3330  144.8150 C   0  0  0  0  0  0  0  0  0  0  0  0
  184.3020  178.7900  145.8400 C   0  0  0  0  0  3  0  0  0  0  0  0
  186.4700  177.3350  144.8000 C   0  0  0  0  0  0  0  0  0  0  0  0
  184.6060  177.5270  146.3520 C   0  0  0  0  0  3  0  0  0  0  0  0
  186.1620  178.6130  144.3020 C   0  0  0  0  0  3  0  0  0  0  0  0
  185.6880  176.8060  145.8380 C   0  0  0  0  0  3  0  0  0  0  0  0
  184.7900  180.5620  144.3220 F   0  0  0  0  0  0  0  0  0  0  0  0
  189.5680  172.3600  140.6160 C   0  0  0  0  0  2  0  0  0  0  0  0
  190.3960  172.1520  139.4360 N   0  0  0  0  0  2  0  0  0  0  0  0
  191.7410  170.2590  139.3190 O   0  0  0  0  0  1  0  0  0  0  0  0
  191.6320  171.5320  139.8850 C   0  0  1  0  0  3  0  0  0  0  0  0
  192.8250  172.3870  139.4710 C   0  0  1  0  0  3  0  0  0  0  0  0
  193.7350  174.7120  140.6460 S   0  0  0  0  0  0  0  0  0  0  0  0
  193.7390  174.6120  138.5370 S   0  0  0  0  0  0  0  0  0  0  0  0
  192.3840  173.4930  138.6270 N   0  0  0  0  0  2  0  0  0  0  0  0
  193.5690  172.9050  140.7050 C   0  0  0  0  0  2  0  0  0  0  0  0
  1 12  1  0  0  0  0
  1 10  2  0  0  0  0
  2  8  1  0  0  0  0
  2  6  1  0  0  0  0
  3 11  1  0  0  0  0
  3  8  2  0  0  0  0
  4 14  2  0  0  0  0
  4 17  1  0  0  0  0
  5 10  1  0  0  0  0
  6  5  2  0  0  0  0
  7 17  1  0  0  0  0
  7 13  1  1  0  0  0
  8  1  1  0  0  0  0
  9  4  1  0  0  0  0
 11 18  1  0  0  0  0
 14 15  1  0  0  0  0
 15 21  1  0  0  0  0
 15 11  2  0  0  0  0
 16 26  1  1  0  0  0
 16  9  1  0  0  0  0
 16  7  1  0  0  0  0
 17  3  1  0  0  0  0
 18 12  2  0  0  0  0
 19 20  1  0  0  0  0
 20 22  2  0  0  0  0
 21 24  2  0  0  0  0
 23 21  1  0  0  0  0
 23 19  2  0  0  0  0
 24 22  1  0  0  0  0
 25 19  1  0  0  0  0
 27 29  1  0  0  0  0
 27 26  1  0  0  0  0
 29 28  1  6  0  0  0
 30 29  1  1  0  0  0
 30 34  1  0  0  0  0
 31 34  1  0  0  0  0
 32 33  1  0  0  0  0
 32 31  1  0  0  0  0
 33 30  1  0  0  0  0
M  END
>  <MODEL>
3

>  <REMARK>
 VINA RESULT:      -8.2      2.712      5.251
  Name = 
  5 active torsions:
  status: ('A' for Active; 'I' for Inactive)
    1  A    between atoms: N_3  and  C_13
    2  A    between atoms: N_3  and  C_17
    3  A    between atoms: C_12  and  C_28
    4  A    between atoms: C_13  and  C_14
    5  A    between atoms: C_17  and  C_29
                            x       y       z     vdW  Elec       q    Type
                         _______ _______ _______ _____ _____    ______ ____

>  <TORSDO>
F 5

$$$$
=
 OpenBabel11052418443D

 34 39  0  0  1  0  0  0  0  0999 V2000
  191.1940  176.3580  146.3230 C   0  0  0  0  0  0  0  0  0  0  0  0
  192.2770  175.0580  144.4470 C   0  0  0  0  0  2  0  0  0  0  0  0
  189.8260  175.7690  144.3810 C   0  0  0  0  0  0  0  0  0  0  0  0
  188.4300  175.3330  142.3790 C   0  0  0  0  0  0  0  0  0  0  0  0
  193.4600  175.5860  146.5490 C   0  0  0  0  0  3  0  0  0  0  0  0
  193.4630  174.9800  145.3640 C   0  0  0  0  0  3  0  0  0  0  0  0
  190.4120  174.1350  142.3890 C   0  0  1  0  0  3  0  0  0  0  0  0
  191.0640  175.7120  145.0720 C   0  0  0  0  0  0  0  0  0  0  0  0
  188.4000  174.6690  141.1350 N   0  0  0  0  0  2  0  0  0  0  0  0
  192.3040  176.3020  146.9990 N   0  0  0  0  0  0  0  0  0  0  0  0
  188.7430  176.5190  144.9250 C   0  0  0  0  0  0  0  0  0  0  0  0
  190.1220  177.0680  146.8560 C   0  0  0  0  0  3  0  0  0  0  0  0
  190.4340  172.8290  143.1800 C   0  0  0  0  0  1  0  0  0  0  0  0
  187.4280  176.0440  142.8800 C   0  0  0  0  0  3  0  0  0  0  0  0
  187.5690  176.6500  144.2310 C   0  0  0  0  0  0  0  0  0  0  0  0
  189.6960  174.0050  141.0090 C   0  0  2  0  0  3  0  0  0  0  0  0
  189.6130  175.1210  143.1070 N   0  0  0  0  0  0  0  0  0  0  0  0
  188.9190  177.1550  146.1640 C   0  0  0  0  0  3  0  0  0  0  0  0
  184.9850  179.3850  144.7720 C   0  0  0  0  0  0  0  0  0  0  0  0
  184.2130  178.8300  145.7960 C   0  0  0  0  0  3  0  0  0  0  0  0
  186.3950  177.4020  144.7470 C   0  0  0  0  0  0  0  0  0  0  0  0
  184.5310  177.5670  146.3020 C   0  0  0  0  0  3  0  0  0  0  0  0
  186.0730  178.6790  144.2540 C   0  0  0  0  0  3  0  0  0  0  0  0
  185.6200  176.8600  145.7830 C   0  0  0  0  0  3  0  0  0  0  0  0
  184.6800  180.6130  144.2850 F   0  0  0  0  0  0  0  0  0  0  0  0
  189.5650  172.6020  140.4140 C   0  0  0  0  0  2  0  0  0  0  0  0
  188.5050  172.5500  139.4160 N   0  0  0  0  0  2  0  0  0  0  0  0
  189.7710  173.4110  137.6660 O   0  0  0  0  0  1  0  0  0  0  0  0
  189.1360  172.2590  138.1380 C   0  0  1  0  0  3  0  0  0  0  0  0
  190.1540  171.1360  138.3030 C   0  0  1  0  0  3  0  0  0  0  0  0
  191.7150  169.9640  136.3520 S   0  0  0  0  0  0  0  0  0  0  0  0
  190.8690  168.7040  137.8190 S   0  0  0  0  0  0  0  0  0  0  0  0
  189.5440  169.8500  137.9820 N   0  0  0  0  0  2  0  0  0  0  0  0
  191.3810  171.3920  137.4230 C   0  0  0  0  0  2  0  0  0  0  0  0
  1 12  1  0  0  0  0
  1 10  2  0  0  0  0
  2  8  1  0  0  0  0
  2  6  1  0  0  0  0
  3 11  1  0  0  0  0
  3  8  2  0  0  0  0
  4 14  2  0  0  0  0
  4 17  1  0  0  0  0
  5 10  1  0  0  0  0
  6  5  2  0  0  0  0
  7 17  1  0  0  0  0
  7 13  1  1  0  0  0
  8  1  1  0  0  0  0
  9  4  1  0  0  0  0
 11 18  1  0  0  0  0
 14 15  1  0  0  0  0
 15 21  1  0  0  0  0
 15 11  2  0  0  0  0
 16 26  1  1  0  0  0
 16  9  1  0  0  0  0
 16  7  1  0  0  0  0
 17  3  1  0  0  0  0
 18 12  2  0  0  0  0
 19 20  1  0  0  0  0
 20 22  2  0  0  0  0
 21 24  2  0  0  0  0
 23 21  1  0  0  0  0
 23 19  2  0  0  0  0
 24 22  1  0  0  0  0
 25 19  1  0  0  0  0
 27 26  1  0  0  0  0
 29 28  1  1  0  0  0
 29 27  1  0  0  0  0
 30 29  1  6  0  0  0
 31 34  1  0  0  0  0
 31 32  1  0  0  0  0
 32 33  1  0  0  0  0
 33 30  1  0  0  0  0
 34 30  1  0  0  0  0
M  END
>  <MODEL>
4

>  <REMARK>
 VINA RESULT:      -8.2      3.399      6.111
  Name = 
  5 active torsions:
  status: ('A' for Active; 'I' for Inactive)
    1  A    between atoms: N_3  and  C_13
    2  A    between atoms: N_3  and  C_17
    3  A    between atoms: C_12  and  C_28
    4  A    between atoms: C_13  and  C_14
    5  A    between atoms: C_17  and  C_29
                            x       y       z     vdW  Elec       q    Type
                         _______ _______ _______ _____ _____    ______ ____

>  <TORSDO>
F 5

$$$$
=
 OpenBabel11052418443D

 34 39  0  0  1  0  0  0  0  0999 V2000
  188.1600  175.1550  141.5490 C   0  0  0  0  0  0  0  0  0  0  0  0
  190.3870  174.0090  141.8830 C   0  0  0  0  0  3  0  0  0  0  0  0
  189.2520  175.3580  143.7300 C   0  0  0  0  0  0  0  0  0  0  0  0
  190.2340  175.4750  146.0040 C   0  0  0  0  0  0  0  0  0  0  0  0
  189.2310  174.0500  139.7020 C   0  0  0  0  0  3  0  0  0  0  0  0
  190.2990  173.7030  140.4160 C   0  0  0  0  0  3  0  0  0  0  0  0
  191.7060  174.6560  144.4150 C   0  0  1  0  0  3  0  0  0  0  0  0
  189.2630  174.8840  142.3930 C   0  0  0  0  0  0  0  0  0  0  0  0
  191.3710  175.1460  146.7710 N   0  0  0  0  0  2  0  0  0  0  0  0
  188.1470  174.7630  140.3090 N   0  0  0  0  0  0  0  0  0  0  0  0
  188.1120  176.0530  144.2280 C   0  0  0  0  0  0  0  0  0  0  0  0
  187.0620  175.8560  142.0400 C   0  0  0  0  0  3  0  0  0  0  0  0
  192.4660  175.6790  143.5730 C   0  0  0  0  0  1  0  0  0  0  0  0
  189.1660  176.1100  146.4700 C   0  0  0  0  0  3  0  0  0  0  0  0
  188.0550  176.4450  145.5400 C   0  0  0  0  0  0  0  0  0  0  0  0
  192.2920  174.4830  145.8500 C   0  0  2  0  0  3  0  0  0  0  0  0
  190.3480  175.1330  144.6450 N   0  0  0  0  0  0  0  0  0  0  0  0
  187.0350  176.2900  143.3610 C   0  0  0  0  0  2  0  0  0  0  0  0
  186.0100  179.0410  147.4200 C   0  0  0  0  0  0  0  0  0  0  0  0
  184.7180  178.5290  147.2690 C   0  0  0  0  0  3  0  0  0  0  0  0
  186.9060  177.1880  146.1210 C   0  0  0  0  0  0  0  0  0  0  0  0
  184.5170  177.3460  146.5540 C   0  0  0  0  0  3  0  0  0  0  0  0
  187.0980  178.3720  146.8540 C   0  0  0  0  0  3  0  0  0  0  0  0
  185.6050  176.6770  145.9870 C   0  0  0  0  0  3  0  0  0  0  0  0
  186.2070  180.1850  148.1200 F   0  0  0  0  0  0  0  0  0  0  0  0
  193.7410  174.9210  146.0750 C   0  0  0  0  0  2  0  0  0  0  0  0
  194.6760  173.9350  145.5520 N   0  0  0  0  0  2  0  0  0  0  0  0
  196.8630  173.8960  146.3400 O   0  0  0  0  0  1  0  0  0  0  0  0
  195.9810  174.5730  145.4930 C   0  0  1  0  0  3  0  0  0  0  0  0
  196.5120  174.5430  144.0630 C   0  0  1  0  0  3  0  0  0  0  0  0
  195.9350  176.2890  142.0050 S   0  0  0  0  0  0  0  0  0  0  0  0
  196.0670  174.2340  141.5400 S   0  0  0  0  0  0  0  0  0  0  0  0
  195.5600  173.8700  143.1860 N   0  0  0  0  0  2  0  0  0  0  0  0
  196.7980  175.9640  143.5680 C   0  0  0  0  0  2  0  0  0  0  0  0
  1 12  2  0  0  0  0
  1  8  1  0  0  0  0
  2  8  1  0  0  0  0
  3 11  1  0  0  0  0
  3 17  1  0  0  0  0
  4 14  2  0  0  0  0
  4  9  1  0  0  0  0
  5 10  2  0  0  0  0
  5  6  1  0  0  0  0
  6  2  2  0  0  0  0
  7 13  1  6  0  0  0
  7 17  1  0  0  0  0
  7 16  1  0  0  0  0
  8  3  2  0  0  0  0
 10  1  1  0  0  0  0
 11 15  2  0  0  0  0
 12 18  1  0  0  0  0
 15 21  1  0  0  0  0
 15 14  1  0  0  0  0
 16 26  1  6  0  0  0
 16  9  1  0  0  0  0
 17  4  1  0  0  0  0
 18 11  1  0  0  0  0
 19 25  1  0  0  0  0
 20 19  1  0  0  0  0
 21 23  1  0  0  0  0
 22 20  2  0  0  0  0
 23 19  2  0  0  0  0
 24 21  2  0  0  0  0
 24 22  1  0  0  0  0
 27 26  1  0  0  0  0
 29 27  1  0  0  0  0
 29 28  1  1  0  0  0
 30 29  1  1  0  0  0
 31 34  1  0  0  0  0
 32 31  1  0  0  0  0
 32 33  1  0  0  0  0
 33 30  1  0  0  0  0
 34 30  1  0  0  0  0
M  END
>  <MODEL>
5

>  <REMARK>
 VINA RESULT:      -8.1      1.830      1.995
  Name = 
  5 active torsions:
  status: ('A' for Active; 'I' for Inactive)
    1  A    between atoms: N_3  and  C_13
    2  A    between atoms: N_3  and  C_17
    3  A    between atoms: C_12  and  C_28
    4  A    between atoms: C_13  and  C_14
    5  A    between atoms: C_17  and  C_29
                            x       y       z     vdW  Elec       q    Type
                         _______ _______ _______ _____ _____    ______ ____

>  <TORSDO>
F 5

$$$$
=
 OpenBabel11052418443D

 34 39  0  0  1  0  0  0  0  0999 V2000
  190.5000  172.8880  141.2510 C   0  0  0  0  0  0  0  0  0  0  0  0
  188.5620  174.0440  140.1150 C   0  0  0  0  0  2  0  0  0  0  0  0
  189.8800  175.1300  142.0120 C   0  0  0  0  0  0  0  0  0  0  0  0
  189.3980  177.4550  142.7270 C   0  0  0  0  0  0  0  0  0  0  0  0
  189.2110  171.7210  139.5890 C   0  0  0  0  0  3  0  0  0  0  0  0
  188.3740  172.7370  139.4000 C   0  0  0  0  0  3  0  0  0  0  0  0
  187.7400  176.5480  141.3880 C   0  0  1  0  0  3  0  0  0  0  0  0
  189.6470  174.0130  141.1690 C   0  0  0  0  0  0  0  0  0  0  0  0
  188.5020  178.5320  142.5650 N   0  0  0  0  0  2  0  0  0  0  0  0
  190.2990  171.8340  140.5150 N   0  0  0  0  0  0  0  0  0  0  0  0
  191.0010  175.1320  142.8930 C   0  0  0  0  0  0  0  0  0  0  0  0
  191.5770  172.8920  142.1320 C   0  0  0  0  0  3  0  0  0  0  0  0
  186.6930  175.6710  142.0710 C   0  0  0  0  0  1  0  0  0  0  0  0
  190.4500  177.4610  143.5350 C   0  0  0  0  0  3  0  0  0  0  0  0
  191.2860  176.2360  143.6530 C   0  0  0  0  0  0  0  0  0  0  0  0
  187.5000  178.0740  141.6060 C   0  0  2  0  0  3  0  0  0  0  0  0
  189.0430  176.3070  141.9960 N   0  0  0  0  0  0  0  0  0  0  0  0
  191.8290  174.0000  142.9330 C   0  0  0  0  0  3  0  0  0  0  0  0
  194.8140  176.4430  145.0540 C   0  0  0  0  0  0  0  0  0  0  0  0
  194.5670  176.3440  146.4260 C   0  0  0  0  0  3  0  0  0  0  0  0
  192.4260  176.3000  144.6040 C   0  0  0  0  0  0  0  0  0  0  0  0
  193.2550  176.2150  146.8900 C   0  0  0  0  0  3  0  0  0  0  0  0
  193.7510  176.4160  144.1480 C   0  0  0  0  0  3  0  0  0  0  0  0
  192.1920  176.1880  145.9830 C   0  0  0  0  0  3  0  0  0  0  0  0
  196.0860  176.5620  144.6030 F   0  0  0  0  0  0  0  0  0  0  0  0
  186.0890  178.5140  141.9990 C   0  0  0  0  0  2  0  0  0  0  0  0
  186.0650  179.0620  143.3480 N   0  0  0  0  0  2  0  0  0  0  0  0
  184.0670  177.9160  143.0300 O   0  0  0  0  0  1  0  0  0  0  0  0
  184.8320  178.6060  143.9730 C   0  0  1  0  0  3  0  0  0  0  0  0
  185.1520  177.6920  145.1510 C   0  0  1  0  0  3  0  0  0  0  0  0
  185.8410  178.4190  147.7220 S   0  0  0  0  0  0  0  0  0  0  0  0
  186.8670  176.7910  146.8550 S   0  0  0  0  0  0  0  0  0  0  0  0
  186.5940  177.5130  145.2740 N   0  0  0  0  0  2  0  0  0  0  0  0
  184.5610  178.2600  146.4450 C   0  0  0  0  0  2  0  0  0  0  0  0
  1 12  1  0  0  0  0
  2  8  1  0  0  0  0
  3 11  1  0  0  0  0
  4 14  2  0  0  0  0
  5 10  1  0  0  0  0
  6  5  2  0  0  0  0
  6  2  1  0  0  0  0
  7 16  1  0  0  0  0
  7 17  1  0  0  0  0
  7 13  1  1  0  0  0
  8  1  1  0  0  0  0
  8  3  2  0  0  0  0
  9  4  1  0  0  0  0
 10  1  2  0  0  0  0
 11 18  1  0  0  0  0
 11 15  2  0  0  0  0
 12 18  2  0  0  0  0
 14 15  1  0  0  0  0
 15 21  1  0  0  0  0
 16 26  1  1  0  0  0
 16  9  1  0  0  0  0
 17  3  1  0  0  0  0
 17  4  1  0  0  0  0
 19 20  1  0  0  0  0
 20 22  2  0  0  0  0
 21 24  2  0  0  0  0
 23 21  1  0  0  0  0
 23 19  2  0  0  0  0
 24 22  1  0  0  0  0
 25 19  1  0  0  0  0
 26 27  1  0  0  0  0
 27 29  1  0  0  0  0
 29 28  1  6  0  0  0
 30 29  1  6  0  0  0
 30 33  1  0  0  0  0
 30 34  1  0  0  0  0
 32 31  1  0  0  0  0
 33 32  1  0  0  0  0
 34 31  1  0  0  0  0
M  END
>  <MODEL>
6

>  <REMARK>
 VINA RESULT:      -8.0      4.833      7.774
  Name = 
  5 active torsions:
  status: ('A' for Active; 'I' for Inactive)
    1  A    between atoms: N_3  and  C_13
    2  A    between atoms: N_3  and  C_17
    3  A    between atoms: C_12  and  C_28
    4  A    between atoms: C_13  and  C_14
    5  A    between atoms: C_17  and  C_29
                            x       y       z     vdW  Elec       q    Type
                         _______ _______ _______ _____ _____    ______ ____

>  <TORSDO>
F 5

$$$$
=
 OpenBabel11052418443D

 34 39  0  0  1  0  0  0  0  0999 V2000
  185.3500  177.7580  145.0270 C   0  0  0  0  0  0  0  0  0  0  0  0
  187.1330  177.9080  146.8110 C   0  0  0  0  0  3  0  0  0  0  0  0
  187.6110  177.0020  144.4720 C   0  0  0  0  0  0  0  0  0  0  0  0
  189.9110  176.3620  143.8020 C   0  0  0  0  0  0  0  0  0  0  0  0
  184.7690  178.4650  147.2510 C   0  0  0  0  0  3  0  0  0  0  0  0
  186.0070  178.3160  147.7150 C   0  0  0  0  0  3  0  0  0  0  0  0
  189.6680  176.6330  146.0890 C   0  0  1  0  0  3  0  0  0  0  0  0
  186.6880  177.5180  145.4190 C   0  0  0  0  0  0  0  0  0  0  0  0
  191.2220  176.1660  144.2810 N   0  0  0  0  0  2  0  0  0  0  0  0
  184.4690  178.2010  145.8760 N   0  0  0  0  0  0  0  0  0  0  0  0
  187.1980  176.7830  143.1250 C   0  0  0  0  0  0  0  0  0  0  0  0
  184.9530  177.5170  143.7150 C   0  0  0  0  0  3  0  0  0  0  0  0
  189.1130  175.4490  146.8770 C   0  0  0  0  0  1  0  0  0  0  0  0
  189.5290  176.1730  142.5460 C   0  0  0  0  0  3  0  0  0  0  0  0
  188.0990  176.3640  142.1820 C   0  0  0  0  0  0  0  0  0  0  0  0
  191.1710  176.4690  145.7100 C   0  0  2  0  0  3  0  0  0  0  0  0
  188.9880  176.7180  144.8010 N   0  0  0  0  0  0  0  0  0  0  0  0
  185.8650  177.0470  142.7770 C   0  0  0  0  0  2  0  0  0  0  0  0
  187.8170  174.7040  138.7730 C   0  0  0  0  0  0  0  0  0  0  0  0
  187.0910  175.6640  138.0640 C   0  0  0  0  0  3  0  0  0  0  0  0
  187.7340  176.0990  140.7650 C   0  0  0  0  0  0  0  0  0  0  0  0
  186.6920  176.8430  138.6960 C   0  0  0  0  0  3  0  0  0  0  0  0
  188.1420  174.9220  140.1140 C   0  0  0  0  0  3  0  0  0  0  0  0
  187.0160  177.0610  140.0380 C   0  0  0  0  0  3  0  0  0  0  0  0
  188.2110  173.5620  138.1580 F   0  0  0  0  0  0  0  0  0  0  0  0
  192.0000  175.4810  146.5340 C   0  0  0  0  0  2  0  0  0  0  0  0
  193.4260  175.7270  146.3720 N   0  0  0  0  0  2  0  0  0  0  0  0
  192.9840  173.6100  145.5200 O   0  0  0  0  0  1  0  0  0  0  0  0
  194.0010  174.5350  145.7690 C   0  0  1  0  0  3  0  0  0  0  0  0
  194.7040  174.8970  144.4650 C   0  0  1  0  0  3  0  0  0  0  0  0
  197.3970  174.7250  143.8860 S   0  0  0  0  0  0  0  0  0  0  0  0
  196.3470  176.4160  143.1810 S   0  0  0  0  0  0  0  0  0  0  0  0
  195.2440  176.2500  144.5420 N   0  0  0  0  0  2  0  0  0  0  0  0
  195.8100  173.8840  144.1540 C   0  0  0  0  0  2  0  0  0  0  0  0
  1  8  1  0  0  0  0
  1 10  1  0  0  0  0
  2  6  2  0  0  0  0
  3 17  1  0  0  0  0
  3  8  2  0  0  0  0
  4  9  1  0  0  0  0
  4 17  1  0  0  0  0
  5  6  1  0  0  0  0
  7 13  1  6  0  0  0
  8  2  1  0  0  0  0
  9 16  1  0  0  0  0
 10  5  2  0  0  0  0
 11  3  1  0  0  0  0
 12  1  2  0  0  0  0
 14  4  2  0  0  0  0
 15 14  1  0  0  0  0
 15 11  2  0  0  0  0
 16  7  1  0  0  0  0
 16 26  1  1  0  0  0
 17  7  1  0  0  0  0
 18 11  1  0  0  0  0
 18 12  1  0  0  0  0
 19 23  1  0  0  0  0
 20 22  1  0  0  0  0
 20 19  2  0  0  0  0
 21 15  1  0  0  0  0
 22 24  2  0  0  0  0
 23 21  2  0  0  0  0
 24 21  1  0  0  0  0
 25 19  1  0  0  0  0
 27 26  1  0  0  0  0
 29 28  1  6  0  0  0
 29 27  1  0  0  0  0
 30 33  1  0  0  0  0
 30 29  1  1  0  0  0
 31 34  1  0  0  0  0
 32 31  1  0  0  0  0
 32 33  1  0  0  0  0
 34 30  1  0  0  0  0
M  END
>  <MODEL>
7

>  <REMARK>
 VINA RESULT:      -7.6      2.813      5.379
  Name = 
  5 active torsions:
  status: ('A' for Active; 'I' for Inactive)
    1  A    between atoms: N_3  and  C_13
    2  A    between atoms: N_3  and  C_17
    3  A    between atoms: C_12  and  C_28
    4  A    between atoms: C_13  and  C_14
    5  A    between atoms: C_17  and  C_29
                            x       y       z     vdW  Elec       q    Type
                         _______ _______ _______ _____ _____    ______ ____

>  <TORSDO>
F 5

$$$$
=
 OpenBabel11052418443D

 34 39  0  0  1  0  0  0  0  0999 V2000
  187.6860  177.4270  145.5950 C   0  0  0  0  0  0  0  0  0  0  0  0
  186.2840  176.4680  143.7250 C   0  0  0  0  0  2  0  0  0  0  0  0
  188.8030  176.0850  143.8800 C   0  0  0  0  0  0  0  0  0  0  0  0
  189.9660  174.6120  142.2590 C   0  0  0  0  0  0  0  0  0  0  0  0
  185.3520  177.9820  145.4380 C   0  0  0  0  0  3  0  0  0  0  0  0
  185.1700  177.2770  144.3250 C   0  0  0  0  0  3  0  0  0  0  0  0
  187.8300  175.2040  141.5860 C   0  0  1  0  0  3  0  0  0  0  0  0
  187.6240  176.6870  144.3910 C   0  0  0  0  0  0  0  0  0  0  0  0
  189.8030  173.8860  141.0610 N   0  0  0  0  0  2  0  0  0  0  0  0
  186.6330  178.0190  146.0780 N   0  0  0  0  0  0  0  0  0  0  0  0
  190.0240  176.1830  144.6080 C   0  0  0  0  0  0  0  0  0  0  0  0
  188.8900  177.5370  146.2850 C   0  0  0  0  0  3  0  0  0  0  0  0
  187.6670  176.5530  140.8880 C   0  0  0  0  0  1  0  0  0  0  0  0
  191.0980  174.6930  142.9460 C   0  0  0  0  0  3  0  0  0  0  0  0
  191.1500  175.5390  144.1680 C   0  0  0  0  0  0  0  0  0  0  0  0
  188.4160  174.0980  140.6550 C   0  0  2  0  0  3  0  0  0  0  0  0
  188.8200  175.3270  142.6500 N   0  0  0  0  0  0  0  0  0  0  0  0
  190.0380  176.9170  145.8040 C   0  0  0  0  0  3  0  0  0  0  0  0
  194.4700  176.8340  145.4930 C   0  0  0  0  0  0  0  0  0  0  0  0
  194.9660  175.6980  146.1370 C   0  0  0  0  0  3  0  0  0  0  0  0
  192.4600  175.6130  144.8680 C   0  0  0  0  0  0  0  0  0  0  0  0
  194.2180  174.5180  146.1430 C   0  0  0  0  0  3  0  0  0  0  0  0
  193.2270  176.7910  144.8570 C   0  0  0  0  0  3  0  0  0  0  0  0
  192.9740  174.4750  145.5070 C   0  0  0  0  0  3  0  0  0  0  0  0
  195.1980  177.9770  145.4810 F   0  0  0  0  0  0  0  0  0  0  0  0
  188.2880  174.3100  139.1450 C   0  0  0  0  0  2  0  0  0  0  0  0
  188.1910  173.0390  138.4410 N   0  0  0  0  0  2  0  0  0  0  0  0
  189.6410  174.3940  137.2280 O   0  0  0  0  0  1  0  0  0  0  0  0
  189.1010  173.1070  137.3080 C   0  0  1  0  0  3  0  0  0  0  0  0
  190.2200  172.0850  137.4740 C   0  0  1  0  0  3  0  0  0  0  0  0
  190.8160  170.5730  139.7050 S   0  0  0  0  0  0  0  0  0  0  0  0
  192.4290  171.3820  138.6080 S   0  0  0  0  0  0  0  0  0  0  0  0
  191.3770  172.7030  138.1130 N   0  0  0  0  0  2  0  0  0  0  0  0
  189.7290  170.8800  138.2830 C   0  0  0  0  0  2  0  0  0  0  0  0
  1 10  2  0  0  0  0
  1 12  1  0  0  0  0
  2  6  1  0  0  0  0
  2  8  1  0  0  0  0
  3  8  2  0  0  0  0
  3 11  1  0  0  0  0
  4 17  1  0  0  0  0
  4 14  2  0  0  0  0
  5 10  1  0  0  0  0
  6  5  2  0  0  0  0
  7 13  1  6  0  0  0
  7 17  1  0  0  0  0
  8  1  1  0  0  0  0
  9  4  1  0  0  0  0
 11 18  1  0  0  0  0
 14 15  1  0  0  0  0
 15 11  2  0  0  0  0
 15 21  1  0  0  0  0
 16 26  1  6  0  0  0
 16  9  1  0  0  0  0
 16  7  1  0  0  0  0
 17  3  1  0  0  0  0
 18 12  2  0  0  0  0
 19 20  1  0  0  0  0
 20 22  2  0  0  0  0
 21 24  2  0  0  0  0
 23 21  1  0  0  0  0
 23 19  2  0  0  0  0
 24 22  1  0  0  0  0
 25 19  1  0  0  0  0
 27 26  1  0  0  0  0
 29 28  1  1  0  0  0
 29 27  1  0  0  0  0
 30 29  1  1  0  0  0
 30 33  1  0  0  0  0
 30 34  1  0  0  0  0
 32 31  1  0  0  0  0
 33 32  1  0  0  0  0
 34 31  1  0  0  0  0
M  END
>  <MODEL>
8

>  <REMARK>
 VINA RESULT:      -7.6      3.958      7.529
  Name = 
  5 active torsions:
  status: ('A' for Active; 'I' for Inactive)
    1  A    between atoms: N_3  and  C_13
    2  A    between atoms: N_3  and  C_17
    3  A    between atoms: C_12  and  C_28
    4  A    between atoms: C_13  and  C_14
    5  A    between atoms: C_17  and  C_29
                            x       y       z     vdW  Elec       q    Type
                         _______ _______ _______ _____ _____    ______ ____

>  <TORSDO>
F 5

$$$$
=
 OpenBabel11052418443D

 34 39  0  0  1  0  0  0  0  0999 V2000
  192.9350  176.2170  143.9050 C   0  0  0  0  0  0  0  0  0  0  0  0
  193.1520  174.9310  141.7420 C   0  0  0  0  0  2  0  0  0  0  0  0
  190.8890  175.4360  142.8110 C   0  0  0  0  0  0  0  0  0  0  0  0
  188.7780  174.8030  141.6760 C   0  0  0  0  0  0  0  0  0  0  0  0
  195.1130  175.6430  143.0630 C   0  0  0  0  0  3  0  0  0  0  0  0
  194.6280  174.9890  142.0100 C   0  0  0  0  0  3  0  0  0  0  0  0
  190.6450  173.7720  140.7720 C   0  0  1  0  0  3  0  0  0  0  0  0
  192.3060  175.5100  142.8540 C   0  0  0  0  0  0  0  0  0  0  0  0
  188.2430  174.0860  140.5850 N   0  0  0  0  0  2  0  0  0  0  0  0
  194.2310  176.2800  143.9940 N   0  0  0  0  0  0  0  0  0  0  0  0
  190.1130  176.1180  143.7920 C   0  0  0  0  0  0  0  0  0  0  0  0
  192.1660  176.8590  144.8710 C   0  0  0  0  0  3  0  0  0  0  0  0
  191.1480  172.5070  141.4650 C   0  0  0  0  0  1  0  0  0  0  0  0
  188.0570  175.4500  142.5820 C   0  0  0  0  0  3  0  0  0  0  0  0
  188.7450  176.1230  143.7160 C   0  0  0  0  0  0  0  0  0  0  0  0
  189.3910  173.5260  139.8770 C   0  0  2  0  0  3  0  0  0  0  0  0
  190.1770  174.7200  141.7770 N   0  0  0  0  0  0  0  0  0  0  0  0
  190.7780  176.8180  144.8100 C   0  0  0  0  0  3  0  0  0  0  0  0
  186.4290  178.6420  145.3730 C   0  0  0  0  0  0  0  0  0  0  0  0
  186.2950  178.0880  146.6480 C   0  0  0  0  0  3  0  0  0  0  0  0
  187.8740  176.7980  144.7140 C   0  0  0  0  0  0  0  0  0  0  0  0
  186.9520  176.8960  146.9630 C   0  0  0  0  0  3  0  0  0  0  0  0
  187.2180  178.0040  144.4130 C   0  0  0  0  0  3  0  0  0  0  0  0
  187.7420  176.2580  146.0020 C   0  0  0  0  0  3  0  0  0  0  0  0
  185.7970  179.8010  145.0680 F   0  0  0  0  0  0  0  0  0  0  0  0
  189.1320  172.0920  139.4100 C   0  0  0  0  0  2  0  0  0  0  0  0
  189.4610  171.9310  138.0000 N   0  0  0  0  0  2  0  0  0  0  0  0
  190.5070  169.9500  137.3770 O   0  0  0  0  0  1  0  0  0  0  0  0
  190.7240  171.2130  137.9350 C   0  0  1  0  0  3  0  0  0  0  0  0
  191.7230  171.9900  137.0850 C   0  0  1  0  0  3  0  0  0  0  0  0
  192.9880  174.3640  137.7020 S   0  0  0  0  0  0  0  0  0  0  0  0
  192.3010  174.1040  135.7230 S   0  0  0  0  0  0  0  0  0  0  0  0
  191.0410  173.0440  136.3420 N   0  0  0  0  0  2  0  0  0  0  0  0
  192.8340  172.5740  137.9630 C   0  0  0  0  0  2  0  0  0  0  0  0
  1 10  2  0  0  0  0
  1 12  1  0  0  0  0
  2  6  1  0  0  0  0
  2  8  1  0  0  0  0
  3  8  2  0  0  0  0
  3 11  1  0  0  0  0
  4 17  1  0  0  0  0
  4 14  2  0  0  0  0
  5 10  1  0  0  0  0
  6  5  2  0  0  0  0
  7 13  1  1  0  0  0
  7 17  1  0  0  0  0
  8  1  1  0  0  0  0
  9  4  1  0  0  0  0
 11 18  1  0  0  0  0
 14 15  1  0  0  0  0
 15 11  2  0  0  0  0
 15 21  1  0  0  0  0
 16 26  1  1  0  0  0
 16  9  1  0  0  0  0
 16  7  1  0  0  0  0
 17  3  1  0  0  0  0
 18 12  2  0  0  0  0
 19 20  1  0  0  0  0
 20 22  2  0  0  0  0
 21 24  2  0  0  0  0
 23 21  1  0  0  0  0
 23 19  2  0  0  0  0
 24 22  1  0  0  0  0
 25 19  1  0  0  0  0
 27 26  1  0  0  0  0
 29 28  1  6  0  0  0
 29 27  1  0  0  0  0
 30 29  1  1  0  0  0
 30 34  1  0  0  0  0
 31 34  1  0  0  0  0
 32 33  1  0  0  0  0
 32 31  1  0  0  0  0
 33 30  1  0  0  0  0
M  END
>  <MODEL>
9

>  <REMARK>
 VINA RESULT:      -7.1      3.472      6.171
  Name = 
  5 active torsions:
  status: ('A' for Active; 'I' for Inactive)
    1  A    between atoms: N_3  and  C_13
    2  A    between atoms: N_3  and  C_17
    3  A    between atoms: C_12  and  C_28
    4  A    between atoms: C_13  and  C_14
    5  A    between atoms: C_17  and  C_29
                            x       y       z     vdW  Elec       q    Type
                         _______ _______ _______ _____ _____    ______ ____

>  <TORSDO>
F 5

$$$$
