=
 OpenBabel11052420143D

 34 39  0  0  0  0  0  0  0  0999 V2000
  186.5430  177.0820  144.3310 C   0  0  0  0  0  0  0  0  0  0  0  0
  184.5950  178.3000  141.3280 C   0  0  0  0  0  3  0  0  0  0  0  0
  184.2330  178.5750  143.6370 C   0  0  0  0  0  3  0  0  0  0  0  0
  187.7980  176.2420  146.4330 C   0  0  0  0  0  0  0  0  0  0  0  0
  187.7360  176.3160  144.8880 C   0  0  0  0  0  3  0  0  0  0  0  0
  185.7950  177.5970  146.5750 C   0  0  0  0  0  0  0  0  0  0  0  0
  184.7540  178.2730  147.1150 N   0  0  0  0  0  2  0  0  0  0  0  0
  186.8860  176.8620  147.2160 C   0  0  0  0  0  3  0  0  0  0  0  0
  184.6040  178.3590  144.9560 C   0  0  0  0  0  0  0  0  0  0  0  0
  185.7010  177.6520  145.2420 C   0  0  0  0  0  0  0  0  0  0  0  0
  184.0130  178.7480  146.1060 N   0  0  0  0  0  0  0  0  0  0  0  0
  185.1000  177.9480  140.0860 C   0  0  0  0  0  3  0  0  0  0  0  0
  186.2260  177.2080  139.7530 C   0  0  0  0  0  0  0  0  0  0  0  0
  187.1110  176.6430  140.6640 C   0  0  0  0  0  3  0  0  0  0  0  0
  185.0500  178.0260  142.6110 C   0  0  0  0  0  0  0  0  0  0  0  0
  187.1070  176.6700  142.0490 C   0  0  0  0  0  3  0  0  0  0  0  0
  186.2290  177.2620  142.9550 C   0  0  0  0  0  0  0  0  0  0  0  0
  186.4980  177.0020  138.3170 C   0  0  0  0  0  0  0  0  0  0  0  0
  185.7950  176.0410  137.5980 O   0  0  0  0  0  0  0  0  0  0  0  0
  187.3690  177.6930  137.7220 O   0  0  0  0  0  1  0  0  0  0  0  0
  188.8370  175.5590  147.0830 O   0  0  0  0  0  0  0  0  0  0  0  0
  191.6020  174.1320  145.1510 N   0  0  0  0  0  0  0  0  0  0  0  0
  191.2200  176.1690  146.9770 C   0  0  0  0  0  3  0  0  0  0  0  0
  194.7690  175.8940  144.7820 N   0  0  0  0  0  0  0  0  0  0  0  0
  195.7540  175.9660  143.7440 C   0  0  0  0  0  0  0  0  0  0  0  0
  194.0220  174.6430  144.9580 C   0  0  0  0  0  2  0  0  0  0  0  0
  196.4440  177.0090  143.5890 O   0  0  0  0  0  1  0  0  0  0  0  0
  192.6590  174.9090  145.5120 C   0  0  0  0  0  0  0  0  0  0  0  0
  195.9560  174.8850  142.8930 O   0  0  0  0  0  0  0  0  0  0  0  0
  193.6620  176.7560  146.8590 C   0  0  0  0  0  2  0  0  0  0  0  0
  192.4840  175.9440  146.4330 C   0  0  0  0  0  0  0  0  0  0  0  0
  194.5710  177.0590  145.6630 C   0  0  0  0  0  2  0  0  0  0  0  0
  190.1380  175.3620  146.5960 C   0  0  0  0  0  0  0  0  0  0  0  0
  190.3590  174.3420  145.6640 C   0  0  0  0  0  3  0  0  0  0  0  0
  1  5  2  0  0  0  0
  1 10  1  0  0  0  0
  2 15  1  0  0  0  0
  3  9  1  0  0  0  0
  4 21  1  0  0  0  0
  4  8  2  0  0  0  0
  5  4  1  0  0  0  0
  6  7  1  0  0  0  0
  6  8  1  0  0  0  0
  9 10  1  0  0  0  0
  9 11  2  0  0  0  0
 10  6  2  0  0  0  0
 11  7  1  0  0  0  0
 12  2  2  0  0  0  0
 13 12  1  0  0  0  0
 13 14  2  0  0  0  0
 14 16  1  0  0  0  0
 15 17  1  0  0  0  0
 15  3  2  0  0  0  0
 16 17  2  0  0  0  0
 17  1  1  0  0  0  0
 18 13  1  0  0  0  0
 19 18  2  0  0  0  0
 20 18  1  0  0  0  0
 22 28  2  0  0  0  0
 22 34  1  0  0  0  0
 24 26  1  0  0  0  0
 24 32  1  0  0  0  0
 25 24  1  0  0  0  0
 26 28  1  0  0  0  0
 27 25  1  0  0  0  0
 28 31  1  0  0  0  0
 29 25  2  0  0  0  0
 31 30  1  0  0  0  0
 31 23  2  0  0  0  0
 32 30  1  0  0  0  0
 33 23  1  0  0  0  0
 33 21  1  0  0  0  0
 34 33  2  0  0  0  0
M  END
>  <MODEL>
1

>  <REMARK>
 VINA RESULT:      -9.4      0.000      0.000
  Name = 
  3 active torsions:
  status: ('A' for Active; 'I' for Inactive)
    1  A    between atoms: C_3  and  C_25
    2  A    between atoms: C_8  and  O_18
    3  A    between atoms: O_18  and  C_30
                            x       y       z     vdW  Elec       q    Type
                         _______ _______ _______ _____ _____    ______ ____

>  <TORSDO>
F 3

$$$$
=
 OpenBabel11052420143D

 34 39  0  0  0  0  0  0  0  0999 V2000
  186.6210  177.0790  144.3050 C   0  0  0  0  0  0  0  0  0  0  0  0
  184.8270  178.0960  141.1360 C   0  0  0  0  0  3  0  0  0  0  0  0
  184.3260  178.4800  143.4030 C   0  0  0  0  0  3  0  0  0  0  0  0
  187.7690  176.3770  146.5160 C   0  0  0  0  0  0  0  0  0  0  0  0
  187.7950  176.3710  144.9680 C   0  0  0  0  0  3  0  0  0  0  0  0
  185.7330  177.6890  146.4720 C   0  0  0  0  0  0  0  0  0  0  0  0
  184.6490  178.3660  146.9170 N   0  0  0  0  0  2  0  0  0  0  0  0
  186.8000  177.0140  147.2120 C   0  0  0  0  0  3  0  0  0  0  0  0
  184.6230  178.3400  144.7510 C   0  0  0  0  0  0  0  0  0  0  0  0
  185.7160  177.6750  145.1360 C   0  0  0  0  0  0  0  0  0  0  0  0
  183.9580  178.7730  145.8440 N   0  0  0  0  0  0  0  0  0  0  0  0
  185.4110  177.6940  139.9450 C   0  0  0  0  0  3  0  0  0  0  0  0
  186.5690  176.9650  139.7160 C   0  0  0  0  0  0  0  0  0  0  0  0
  187.4110  176.4690  140.7040 C   0  0  0  0  0  3  0  0  0  0  0  0
  185.2120  177.8990  142.4550 C   0  0  0  0  0  0  0  0  0  0  0  0
  187.3260  176.5660  142.0840 C   0  0  0  0  0  3  0  0  0  0  0  0
  186.3840  177.1810  142.9060 C   0  0  0  0  0  0  0  0  0  0  0  0
  186.9290  176.6940  138.3100 C   0  0  0  0  0  0  0  0  0  0  0  0
  187.1550  175.3910  137.8810 O   0  0  0  0  0  1  0  0  0  0  0  0
  187.0360  177.6370  137.4810 O   0  0  0  0  0  0  0  0  0  0  0  0
  188.7820  175.7520  147.2590 O   0  0  0  0  0  0  0  0  0  0  0  0
  192.4180  176.0910  146.9800 N   0  0  0  0  0  0  0  0  0  0  0  0
  190.4300  174.4790  145.9440 C   0  0  0  0  0  3  0  0  0  0  0  0
  194.4620  173.4690  145.4920 N   0  0  0  0  0  0  0  0  0  0  0  0
  195.7960  172.9960  145.7190 C   0  0  0  0  0  0  0  0  0  0  0  0
  194.1750  174.8930  145.7030 C   0  0  0  0  0  2  0  0  0  0  0  0
  196.0910  171.7900  145.5090 O   0  0  0  0  0  0  0  0  0  0  0  0
  192.7530  175.0940  146.1180 C   0  0  0  0  0  0  0  0  0  0  0  0
  196.7800  173.8670  146.1750 O   0  0  0  0  0  1  0  0  0  0  0  0
  192.1350  173.2100  144.6010 C   0  0  0  0  0  2  0  0  0  0  0  0
  191.7600  174.2680  145.5850 C   0  0  0  0  0  0  0  0  0  0  0  0
  193.4390  172.5210  145.0160 C   0  0  0  0  0  2  0  0  0  0  0  0
  190.0980  175.5100  146.8350 C   0  0  0  0  0  0  0  0  0  0  0  0
  191.1260  176.3070  147.3490 C   0  0  0  0  0  3  0  0  0  0  0  0
  1  5  2  0  0  0  0
  1 10  1  0  0  0  0
  2 15  1  0  0  0  0
  3  9  1  0  0  0  0
  4  8  2  0  0  0  0
  4 21  1  0  0  0  0
  5  4  1  0  0  0  0
  6  7  1  0  0  0  0
  6  8  1  0  0  0  0
  9 10  1  0  0  0  0
  9 11  2  0  0  0  0
 10  6  2  0  0  0  0
 11  7  1  0  0  0  0
 12  2  2  0  0  0  0
 13 12  1  0  0  0  0
 13 14  2  0  0  0  0
 14 16  1  0  0  0  0
 15 17  1  0  0  0  0
 15  3  2  0  0  0  0
 16 17  2  0  0  0  0
 17  1  1  0  0  0  0
 18 13  1  0  0  0  0
 19 18  1  0  0  0  0
 20 18  2  0  0  0  0
 22 34  1  0  0  0  0
 23 33  1  0  0  0  0
 24 26  1  0  0  0  0
 24 25  1  0  0  0  0
 25 29  1  0  0  0  0
 26 28  1  0  0  0  0
 27 25  2  0  0  0  0
 28 22  2  0  0  0  0
 30 32  1  0  0  0  0
 30 31  1  0  0  0  0
 31 23  2  0  0  0  0
 31 28  1  0  0  0  0
 32 24  1  0  0  0  0
 33 21  1  0  0  0  0
 33 34  2  0  0  0  0
M  END
>  <MODEL>
2

>  <REMARK>
 VINA RESULT:      -9.0      1.396      1.985
  Name = 
  3 active torsions:
  status: ('A' for Active; 'I' for Inactive)
    1  A    between atoms: C_3  and  C_25
    2  A    between atoms: C_8  and  O_18
    3  A    between atoms: O_18  and  C_30
                            x       y       z     vdW  Elec       q    Type
                         _______ _______ _______ _____ _____    ______ ____

>  <TORSDO>
F 3

$$$$
=
 OpenBabel11052420143D

 34 39  0  0  0  0  0  0  0  0999 V2000
  193.2620  174.0340  145.4340 C   0  0  0  0  0  0  0  0  0  0  0  0
  196.8090  172.7460  145.6760 C   0  0  0  0  0  3  0  0  0  0  0  0
  195.9500  174.9330  145.5460 C   0  0  0  0  0  3  0  0  0  0  0  0
  190.8650  174.9860  145.2190 C   0  0  0  0  0  0  0  0  0  0  0  0
  191.7700  173.7390  145.3660 C   0  0  0  0  0  2  0  0  0  0  0  0
  192.8220  176.4110  145.3100 C   0  0  0  0  0  0  0  0  0  0  0  0
  193.5760  177.5340  145.2990 N   0  0  0  0  0  0  0  0  0  0  0  0
  191.3720  176.2400  145.2080 C   0  0  0  0  0  3  0  0  0  0  0  0
  194.8800  175.8130  145.4570 C   0  0  0  0  0  0  0  0  0  0  0  0
  193.6280  175.3500  145.4090 C   0  0  0  0  0  0  0  0  0  0  0  0
  194.8590  177.1610  145.3910 N   0  0  0  0  0  0  0  0  0  0  0  0
  196.9590  171.3700  145.7360 C   0  0  0  0  0  3  0  0  0  0  0  0
  196.0030  170.3630  145.7220 C   0  0  0  0  0  0  0  0  0  0  0  0
  194.6310  170.5630  145.6370 C   0  0  0  0  0  3  0  0  0  0  0  0
  195.6730  173.5400  145.5840 C   0  0  0  0  0  0  0  0  0  0  0  0
  193.9010  171.7380  145.5530 C   0  0  0  0  0  3  0  0  0  0  0  0
  194.3060  173.0720  145.5270 C   0  0  0  0  0  0  0  0  0  0  0  0
  196.4890  168.9710  145.7980 C   0  0  0  0  0  0  0  0  0  0  0  0
  196.3100  168.2270  146.9600 O   0  0  0  0  0  1  0  0  0  0  0  0
  197.0720  168.4390  144.8160 O   0  0  0  0  0  0  0  0  0  0  0  0
  189.4700  174.8610  145.1330 O   0  0  0  0  0  0  0  0  0  0  0  0
  187.8150  176.0870  142.1050 N   0  0  0  0  0  0  0  0  0  0  0  0
  187.7080  176.5530  144.8240 C   0  0  0  0  0  3  0  0  0  0  0  0
  184.7450  178.0400  142.2750 N   0  0  0  0  0  0  0  0  0  0  0  0
  183.5970  178.1670  141.4270 C   0  0  0  0  0  0  0  0  0  0  0  0
  186.0500  177.7710  141.6580 C   0  0  0  0  0  2  0  0  0  0  0  0
  182.4680  178.4390  141.9150 O   0  0  0  0  0  1  0  0  0  0  0  0
  186.9300  176.9990  142.5880 C   0  0  0  0  0  0  0  0  0  0  0  0
  183.7180  177.9920  140.0530 O   0  0  0  0  0  0  0  0  0  0  0  0
  185.9220  178.2880  144.4740 C   0  0  0  0  0  2  0  0  0  0  0  0
  186.8610  177.2470  143.9610 C   0  0  0  0  0  0  0  0  0  0  0  0
  184.5850  178.2240  143.7280 C   0  0  0  0  0  2  0  0  0  0  0  0
  188.6150  175.6140  144.3140 C   0  0  0  0  0  0  0  0  0  0  0  0
  188.6430  175.3920  142.9320 C   0  0  0  0  0  3  0  0  0  0  0  0
  1 17  2  0  0  0  0
  2 12  1  0  0  0  0
  3 15  1  0  0  0  0
  4  5  1  0  0  0  0
  5  1  1  0  0  0  0
  6 10  2  0  0  0  0
  7  6  1  0  0  0  0
  7 11  2  0  0  0  0
  8  4  2  0  0  0  0
  8  6  1  0  0  0  0
  9  3  2  0  0  0  0
 10  1  1  0  0  0  0
 10  9  1  0  0  0  0
 11  9  1  0  0  0  0
 13 12  2  0  0  0  0
 13 18  1  0  0  0  0
 14 13  1  0  0  0  0
 15  2  2  0  0  0  0
 16 14  2  0  0  0  0
 17 16  1  0  0  0  0
 17 15  1  0  0  0  0
 18 19  1  0  0  0  0
 20 18  2  0  0  0  0
 21  4  1  0  0  0  0
 22 28  2  0  0  0  0
 22 34  1  0  0  0  0
 24 32  1  0  0  0  0
 25 27  1  0  0  0  0
 25 24  1  0  0  0  0
 26 24  1  0  0  0  0
 26 28  1  0  0  0  0
 28 31  1  0  0  0  0
 29 25  2  0  0  0  0
 31 30  1  0  0  0  0
 31 23  2  0  0  0  0
 32 30  1  0  0  0  0
 33 23  1  0  0  0  0
 33 21  1  0  0  0  0
 34 33  2  0  0  0  0
M  END
>  <MODEL>
3

>  <REMARK>
 VINA RESULT:      -8.8      3.277     10.128
  Name = 
  3 active torsions:
  status: ('A' for Active; 'I' for Inactive)
    1  A    between atoms: C_3  and  C_25
    2  A    between atoms: C_8  and  O_18
    3  A    between atoms: O_18  and  C_30
                            x       y       z     vdW  Elec       q    Type
                         _______ _______ _______ _____ _____    ______ ____

>  <TORSDO>
F 3

$$$$
=
 OpenBabel11052420143D

 34 39  0  0  0  0  0  0  0  0999 V2000
  193.1100  175.7680  143.5520 C   0  0  0  0  0  0  0  0  0  0  0  0
  196.6160  176.2010  142.2030 C   0  0  0  0  0  3  0  0  0  0  0  0
  195.7070  176.5980  144.3370 C   0  0  0  0  0  3  0  0  0  0  0  0
  190.7250  175.5420  144.5320 C   0  0  0  0  0  0  0  0  0  0  0  0
  191.6630  175.3600  143.3130 C   0  0  0  0  0  3  0  0  0  0  0  0
  192.6010  176.3160  145.8550 C   0  0  0  0  0  0  0  0  0  0  0  0
  193.2990  176.7910  146.9120 N   0  0  0  0  0  2  0  0  0  0  0  0
  191.1830  175.9800  145.7270 C   0  0  0  0  0  3  0  0  0  0  0  0
  194.6340  176.5960  145.2180 C   0  0  0  0  0  0  0  0  0  0  0  0
  193.4270  176.1950  144.8100 C   0  0  0  0  0  0  0  0  0  0  0  0
  194.5670  176.9650  146.5150 N   0  0  0  0  0  0  0  0  0  0  0  0
  196.8060  175.8660  140.8710 C   0  0  0  0  0  3  0  0  0  0  0  0
  195.9040  175.3880  139.9300 C   0  0  0  0  0  0  0  0  0  0  0  0
  194.5570  175.1430  140.1640 C   0  0  0  0  0  3  0  0  0  0  0  0
  195.4810  176.1640  143.0020 C   0  0  0  0  0  0  0  0  0  0  0  0
  193.8070  175.2970  141.3190 C   0  0  0  0  0  3  0  0  0  0  0  0
  194.1600  175.7400  142.5930 C   0  0  0  0  0  0  0  0  0  0  0  0
  196.4230  175.1240  138.5730 C   0  0  0  0  0  0  0  0  0  0  0  0
  197.6900  175.5650  138.2070 O   0  0  0  0  0  1  0  0  0  0  0  0
  195.7270  174.4980  137.7290 O   0  0  0  0  0  0  0  0  0  0  0  0
  189.3620  175.2170  144.4510 O   0  0  0  0  0  0  0  0  0  0  0  0
  187.2040  176.1450  141.6410 N   0  0  0  0  0  0  0  0  0  0  0  0
  187.6010  176.9270  144.2600 C   0  0  0  0  0  3  0  0  0  0  0  0
  184.2480  178.2190  142.1200 N   0  0  0  0  0  0  0  0  0  0  0  0
  182.9680  178.2900  141.4810 C   0  0  0  0  0  0  0  0  0  0  0  0
  185.4150  177.8320  141.3180 C   0  0  0  0  0  2  0  0  0  0  0  0
  181.9510  178.6590  142.1270 O   0  0  0  0  0  1  0  0  0  0  0  0
  186.4370  177.1400  142.1610 C   0  0  0  0  0  0  0  0  0  0  0  0
  182.8340  177.9520  140.1390 O   0  0  0  0  0  0  0  0  0  0  0  0
  185.8090  178.6750  144.0270 C   0  0  0  0  0  2  0  0  0  0  0  0
  186.6220  177.5480  143.4850 C   0  0  0  0  0  0  0  0  0  0  0  0
  184.3570  178.5760  143.5460 C   0  0  0  0  0  2  0  0  0  0  0  0
  188.3850  175.9010  143.7120 C   0  0  0  0  0  0  0  0  0  0  0  0
  188.1580  175.5210  142.3850 C   0  0  0  0  0  3  0  0  0  0  0  0
  1 10  1  0  0  0  0
  2 15  1  0  0  0  0
  3  9  1  0  0  0  0
  4  8  2  0  0  0  0
  5  1  2  0  0  0  0
  5  4  1  0  0  0  0
  6  7  1  0  0  0  0
  8  6  1  0  0  0  0
  9 11  2  0  0  0  0
 10  9  1  0  0  0  0
 10  6  2  0  0  0  0
 11  7  1  0  0  0  0
 12  2  2  0  0  0  0
 13 14  2  0  0  0  0
 13 12  1  0  0  0  0
 14 16  1  0  0  0  0
 15  3  2  0  0  0  0
 16 17  2  0  0  0  0
 17 15  1  0  0  0  0
 17  1  1  0  0  0  0
 18 13  1  0  0  0  0
 19 18  1  0  0  0  0
 20 18  2  0  0  0  0
 21  4  1  0  0  0  0
 22 28  2  0  0  0  0
 22 34  1  0  0  0  0
 24 32  1  0  0  0  0
 25 24  1  0  0  0  0
 25 27  1  0  0  0  0
 26 24  1  0  0  0  0
 26 28  1  0  0  0  0
 28 31  1  0  0  0  0
 29 25  2  0  0  0  0
 31 30  1  0  0  0  0
 31 23  2  0  0  0  0
 32 30  1  0  0  0  0
 33 23  1  0  0  0  0
 33 21  1  0  0  0  0
 34 33  2  0  0  0  0
M  END
>  <MODEL>
4

>  <REMARK>
 VINA RESULT:      -8.6      2.974      9.093
  Name = 
  3 active torsions:
  status: ('A' for Active; 'I' for Inactive)
    1  A    between atoms: C_3  and  C_25
    2  A    between atoms: C_8  and  O_18
    3  A    between atoms: O_18  and  C_30
                            x       y       z     vdW  Elec       q    Type
                         _______ _______ _______ _____ _____    ______ ____

>  <TORSDO>
F 3

$$$$
=
 OpenBabel11052420143D

 34 39  0  0  1  0  0  0  0  0999 V2000
  193.9510  173.4880  143.9790 C   0  0  0  0  0  0  0  0  0  0  0  0
  197.1410  172.0060  145.3660 C   0  0  0  0  0  3  0  0  0  0  0  0
  196.7490  173.9410  144.0850 C   0  0  0  0  0  3  0  0  0  0  0  0
  191.8140  174.5340  142.9580 C   0  0  0  0  0  0  0  0  0  0  0  0
  192.4390  173.4090  143.8190 C   0  0  0  0  0  3  0  0  0  0  0  0
  194.0050  175.5310  142.6820 C   0  0  0  0  0  0  0  0  0  0  0  0
  194.9680  176.3860  142.2640 N   0  0  0  0  0  0  0  0  0  0  0  0
  192.5620  175.5360  142.4410 C   0  0  0  0  0  3  0  0  0  0  0  0
  195.8860  174.8020  143.4220 C   0  0  0  0  0  0  0  0  0  0  0  0
  194.5730  174.5550  143.3970 C   0  0  2  0  0  3  0  0  0  0  0  0
  196.1400  175.9320  142.7260 N   0  0  0  0  0  0  0  0  0  0  0  0
  197.0070  170.8320  146.0890 C   0  0  0  0  0  3  0  0  0  0  0  0
  195.8730  170.0930  146.3970 C   0  0  0  0  0  0  0  0  0  0  0  0
  194.5790  170.4150  146.0090 C   0  0  0  0  0  3  0  0  0  0  0  0
  196.1970  172.8010  144.7300 C   0  0  0  0  0  0  0  0  0  0  0  0
  194.1070  171.4850  145.2650 C   0  0  0  0  0  3  0  0  0  0  0  0
  194.7710  172.5610  144.6800 C   0  0  0  0  0  0  0  0  0  0  0  0
  196.0640  168.8670  147.1970 C   0  0  0  0  0  0  0  0  0  0  0  0
  194.9820  168.2640  147.8290 O   0  0  0  0  0  1  0  0  0  0  0  0
  197.2080  168.3510  147.3190 O   0  0  0  0  0  0  0  0  0  0  0  0
  190.4320  174.5790  142.7180 O   0  0  0  0  0  0  0  0  0  0  0  0
  187.6780  176.9910  142.7950 N   0  0  0  0  0  0  0  0  0  0  0  0
  189.5150  175.9280  144.5620 C   0  0  0  0  0  3  0  0  0  0  0  0
  186.2400  178.1320  145.9420 N   0  0  0  0  0  0  0  0  0  0  0  0
  184.9260  178.5370  146.3480 C   0  0  0  0  0  0  0  0  0  0  0  0
  186.6660  178.4060  144.5640 C   0  0  0  0  0  2  0  0  0  0  0  0
  184.5400  178.3570  147.5330 O   0  0  0  0  0  1  0  0  0  0  0  0
  187.6510  177.3830  144.0970 C   0  0  0  0  0  0  0  0  0  0  0  0
  184.0630  179.1330  145.4350 O   0  0  0  0  0  0  0  0  0  0  0  0
  188.5650  177.3310  146.4200 C   0  0  0  0  0  2  0  0  0  0  0  0
  188.5720  176.8550  145.0060 C   0  0  0  0  0  0  0  0  0  0  0  0
  187.1300  177.4960  146.9290 C   0  0  0  0  0  2  0  0  0  0  0  0
  189.5300  175.5310  143.2170 C   0  0  0  0  0  0  0  0  0  0  0  0
  188.5840  176.0810  142.3450 C   0  0  0  0  0  3  0  0  0  0  0  0
  1 17  2  0  0  0  0
  2 12  1  0  0  0  0
  3 15  1  0  0  0  0
  4  5  2  0  0  0  0
  5  1  1  0  0  0  0
  7  6  1  0  0  0  0
  7 11  2  0  0  0  0
  8  6  2  0  0  0  0
  8  4  1  0  0  0  0
  9  3  2  0  0  0  0
 10  6  1  6  0  0  0
 10  9  1  0  0  0  0
 10  1  1  0  0  0  0
 11  9  1  0  0  0  0
 12 13  2  0  0  0  0
 13 18  1  0  0  0  0
 14 13  1  0  0  0  0
 15  2  2  0  0  0  0
 16 14  2  0  0  0  0
 17 15  1  0  0  0  0
 17 16  1  0  0  0  0
 18 20  2  0  0  0  0
 18 19  1  0  0  0  0
 21  4  1  0  0  0  0
 21 33  1  0  0  0  0
 22 28  1  0  0  0  0
 23 31  1  0  0  0  0
 24 25  1  0  0  0  0
 24 32  1  0  0  0  0
 25 27  1  0  0  0  0
 26 24  1  0  0  0  0
 28 26  1  0  0  0  0
 28 31  2  0  0  0  0
 29 25  2  0  0  0  0
 30 32  1  0  0  0  0
 31 30  1  0  0  0  0
 33 23  2  0  0  0  0
 34 22  2  0  0  0  0
 34 33  1  0  0  0  0
M  END
>  <MODEL>
5

>  <REMARK>
 VINA RESULT:      -8.5      3.741     10.386
  Name = 
  3 active torsions:
  status: ('A' for Active; 'I' for Inactive)
    1  A    between atoms: C_3  and  C_25
    2  A    between atoms: C_8  and  O_18
    3  A    between atoms: O_18  and  C_30
                            x       y       z     vdW  Elec       q    Type
                         _______ _______ _______ _____ _____    ______ ____

>  <TORSDO>
F 3

$$$$
=
 OpenBabel11052420143D

 34 39  0  0  0  0  0  0  0  0999 V2000
  188.1180  177.4910  143.7770 C   0  0  0  0  0  0  0  0  0  0  0  0
  184.4580  178.2910  144.2840 C   0  0  0  0  0  3  0  0  0  0  0  0
  186.2380  178.0990  145.8120 C   0  0  0  0  0  3  0  0  0  0  0  0
  190.6240  176.9020  143.5110 C   0  0  0  0  0  0  0  0  0  0  0  0
  189.2590  177.1550  142.8260 C   0  0  0  0  0  3  0  0  0  0  0  0
  189.6280  177.3850  145.6660 C   0  0  0  0  0  0  0  0  0  0  0  0
  189.5140  177.5470  147.0040 N   0  0  0  0  0  2  0  0  0  0  0  0
  190.7870  177.0280  144.8480 C   0  0  0  0  0  3  0  0  0  0  0  0
  187.5760  177.8610  146.0900 C   0  0  0  0  0  0  0  0  0  0  0  0
  188.4310  177.5800  145.1030 C   0  0  0  0  0  0  0  0  0  0  0  0
  188.2350  177.8450  147.2690 N   0  0  0  0  0  0  0  0  0  0  0  0
  183.6730  178.3220  143.1420 C   0  0  0  0  0  3  0  0  0  0  0  0
  184.0140  178.1050  141.8150 C   0  0  0  0  0  0  0  0  0  0  0  0
  185.2880  177.7920  141.3560 C   0  0  0  0  0  3  0  0  0  0  0  0
  185.8110  178.0360  144.4570 C   0  0  0  0  0  0  0  0  0  0  0  0
  186.4740  177.6290  142.0530 C   0  0  0  0  0  3  0  0  0  0  0  0
  186.7630  177.7250  143.4130 C   0  0  0  0  0  0  0  0  0  0  0  0
  182.9320  178.2100  140.8150 C   0  0  0  0  0  0  0  0  0  0  0  0
  181.8470  179.0500  141.0400 O   0  0  0  0  0  1  0  0  0  0  0  0
  182.9770  177.5420  139.7470 O   0  0  0  0  0  0  0  0  0  0  0  0
  191.7610  176.5720  142.7580 O   0  0  0  0  0  0  0  0  0  0  0  0
  194.9220  174.9260  143.6020 N   0  0  0  0  0  0  0  0  0  0  0  0
  192.3080  174.1950  143.0940 C   0  0  0  0  0  3  0  0  0  0  0  0
  195.0190  171.4650  144.7320 N   0  0  0  0  0  0  0  0  0  0  0  0
  195.8610  170.7340  145.6310 C   0  0  0  0  0  0  0  0  0  0  0  0
  195.6030  172.5680  143.9600 C   0  0  0  0  0  2  0  0  0  0  0  0
  195.4070  169.7540  146.2800 O   0  0  0  0  0  1  0  0  0  0  0  0
  194.5760  173.6120  143.6610 C   0  0  0  0  0  0  0  0  0  0  0  0
  197.1920  171.1000  145.7990 O   0  0  0  0  0  0  0  0  0  0  0  0
  192.9030  171.7750  143.4260 C   0  0  0  0  0  2  0  0  0  0  0  0
  193.2580  173.2240  143.4080 C   0  0  0  0  0  0  0  0  0  0  0  0
  193.6110  171.0580  144.5810 C   0  0  0  0  0  2  0  0  0  0  0  0
  192.6770  175.5470  143.0370 C   0  0  0  0  0  0  0  0  0  0  0  0
  194.0080  175.8890  143.3050 C   0  0  0  0  0  3  0  0  0  0  0  0
  1 10  1  0  0  0  0
  2 15  1  0  0  0  0
  3  9  1  0  0  0  0
  4  8  2  0  0  0  0
  5  4  1  0  0  0  0
  5  1  2  0  0  0  0
  6  7  1  0  0  0  0
  7 11  1  0  0  0  0
  8  6  1  0  0  0  0
  9 11  2  0  0  0  0
 10  6  2  0  0  0  0
 10  9  1  0  0  0  0
 12  2  2  0  0  0  0
 13 12  1  0  0  0  0
 14 13  2  0  0  0  0
 14 16  1  0  0  0  0
 15  3  2  0  0  0  0
 16 17  2  0  0  0  0
 17  1  1  0  0  0  0
 17 15  1  0  0  0  0
 18 19  1  0  0  0  0
 18 13  1  0  0  0  0
 20 18  2  0  0  0  0
 21 33  1  0  0  0  0
 21  4  1  0  0  0  0
 22 28  1  0  0  0  0
 23 31  1  0  0  0  0
 24 25  1  0  0  0  0
 25 29  2  0  0  0  0
 25 27  1  0  0  0  0
 26 24  1  0  0  0  0
 28 26  1  0  0  0  0
 30 32  1  0  0  0  0
 31 30  1  0  0  0  0
 31 28  2  0  0  0  0
 32 24  1  0  0  0  0
 33 23  2  0  0  0  0
 33 34  1  0  0  0  0
 34 22  2  0  0  0  0
M  END
>  <MODEL>
6

>  <REMARK>
 VINA RESULT:      -8.4      3.002      4.212
  Name = 
  3 active torsions:
  status: ('A' for Active; 'I' for Inactive)
    1  A    between atoms: C_3  and  C_25
    2  A    between atoms: C_8  and  O_18
    3  A    between atoms: O_18  and  C_30
                            x       y       z     vdW  Elec       q    Type
                         _______ _______ _______ _____ _____    ______ ____

>  <TORSDO>
F 3

$$$$
=
 OpenBabel11052420143D

 34 39  0  0  1  0  0  0  0  0999 V2000
  187.5760  176.1500  142.4830 C   0  0  0  0  0  0  0  0  0  0  0  0
  185.5450  178.9970  143.9220 C   0  0  0  0  0  3  0  0  0  0  0  0
  185.8600  178.2710  141.7050 C   0  0  0  0  0  3  0  0  0  0  0  0
  188.9810  174.2510  141.4240 C   0  0  0  0  0  0  0  0  0  0  0  0
  188.5080  174.9680  142.7130 C   0  0  0  0  0  3  0  0  0  0  0  0
  187.6270  175.7580  140.0950 C   0  0  0  0  0  0  0  0  0  0  0  0
  187.0710  176.3420  139.0080 N   0  0  0  0  0  0  0  0  0  0  0  0
  188.5470  174.6250  140.1990 C   0  0  0  0  0  3  0  0  0  0  0  0
  186.4240  177.4010  140.7830 C   0  0  0  0  0  0  0  0  0  0  0  0
  187.2260  176.4120  141.1900 C   0  0  2  0  0  3  0  0  0  0  0  0
  186.3210  177.3650  139.4370 N   0  0  0  0  0  0  0  0  0  0  0  0
  185.5850  179.1430  145.2990 C   0  0  0  0  0  3  0  0  0  0  0  0
  186.2610  178.4030  146.2600 C   0  0  0  0  0  0  0  0  0  0  0  0
  187.0760  177.3090  146.0000 C   0  0  0  0  0  3  0  0  0  0  0  0
  186.1600  178.0780  143.0810 C   0  0  0  0  0  0  0  0  0  0  0  0
  187.4080  176.7060  144.7980 C   0  0  0  0  0  3  0  0  0  0  0  0
  187.0340  176.9990  143.4880 C   0  0  0  0  0  0  0  0  0  0  0  0
  186.0990  178.8190  147.6670 C   0  0  0  0  0  0  0  0  0  0  0  0
  186.1490  180.1650  148.0130 O   0  0  0  0  0  0  0  0  0  0  0  0
  185.9150  177.9620  148.5740 O   0  0  0  0  0  1  0  0  0  0  0  0
  189.8510  173.1520  141.4850 O   0  0  0  0  0  0  0  0  0  0  0  0
  191.8300  171.5370  144.1090 N   0  0  0  0  0  0  0  0  0  0  0  0
  191.9320  173.8490  142.6030 C   0  0  0  0  0  3  0  0  0  0  0  0
  195.2260  172.6170  144.8640 N   0  0  0  0  0  0  0  0  0  0  0  0
  196.4060  171.9450  145.3240 C   0  0  0  0  0  0  0  0  0  0  0  0
  193.9180  172.1260  145.3130 C   0  0  0  0  0  2  0  0  0  0  0  0
  197.5480  172.3620  144.9940 O   0  0  0  0  0  0  0  0  0  0  0  0
  192.8650  172.4010  144.2870 C   0  0  0  0  0  0  0  0  0  0  0  0
  196.3020  170.8240  146.1390 O   0  0  0  0  0  1  0  0  0  0  0  0
  194.0460  174.5400  143.7750 C   0  0  0  0  0  2  0  0  0  0  0  0
  192.9330  173.5750  143.5330 C   0  0  0  0  0  0  0  0  0  0  0  0
  195.3680  173.7980  143.9940 C   0  0  0  0  0  2  0  0  0  0  0  0
  190.8710  172.9490  142.4270 C   0  0  0  0  0  0  0  0  0  0  0  0
  190.8480  171.7820  143.1990 C   0  0  0  0  0  3  0  0  0  0  0  0
  1  5  1  0  0  0  0
  1 17  2  0  0  0  0
  2 12  1  0  0  0  0
  3 15  1  0  0  0  0
  4 21  1  0  0  0  0
  4  5  2  0  0  0  0
  6  8  2  0  0  0  0
  7 11  2  0  0  0  0
  7  6  1  0  0  0  0
  8  4  1  0  0  0  0
  9 10  1  0  0  0  0
  9  3  2  0  0  0  0
 10  6  1  6  0  0  0
 10  1  1  0  0  0  0
 11  9  1  0  0  0  0
 12 13  2  0  0  0  0
 13 18  1  0  0  0  0
 14 13  1  0  0  0  0
 15 17  1  0  0  0  0
 15  2  2  0  0  0  0
 16 14  2  0  0  0  0
 17 16  1  0  0  0  0
 18 19  2  0  0  0  0
 18 20  1  0  0  0  0
 21 33  1  0  0  0  0
 22 28  1  0  0  0  0
 23 31  1  0  0  0  0
 24 26  1  0  0  0  0
 24 25  1  0  0  0  0
 25 29  1  0  0  0  0
 27 25  2  0  0  0  0
 28 26  1  0  0  0  0
 30 32  1  0  0  0  0
 31 30  1  0  0  0  0
 31 28  2  0  0  0  0
 32 24  1  0  0  0  0
 33 23  2  0  0  0  0
 33 34  1  0  0  0  0
 34 22  2  0  0  0  0
M  END
>  <MODEL>
7

>  <REMARK>
 VINA RESULT:      -8.2      3.367      5.495
  Name = 
  3 active torsions:
  status: ('A' for Active; 'I' for Inactive)
    1  A    between atoms: C_3  and  C_25
    2  A    between atoms: C_8  and  O_18
    3  A    between atoms: O_18  and  C_30
                            x       y       z     vdW  Elec       q    Type
                         _______ _______ _______ _____ _____    ______ ____

>  <TORSDO>
F 3

$$$$
=
 OpenBabel11052420143D

 34 39  0  0  0  0  0  0  0  0999 V2000
  190.0820  176.7860  144.7580 C   0  0  0  0  0  0  0  0  0  0  0  0
  186.5490  176.7500  146.1060 C   0  0  0  0  0  3  0  0  0  0  0  0
  188.5810  176.0150  147.0380 C   0  0  0  0  0  3  0  0  0  0  0  0
  192.5160  176.7340  143.8810 C   0  0  0  0  0  0  0  0  0  0  0  0
  191.0420  177.1340  143.6290 C   0  0  0  0  0  3  0  0  0  0  0  0
  191.9110  175.9030  146.0750 C   0  0  0  0  0  0  0  0  0  0  0  0
  192.0360  175.3330  147.2950 N   0  0  0  0  0  2  0  0  0  0  0  0
  192.9140  176.1680  145.0430 C   0  0  0  0  0  3  0  0  0  0  0  0
  189.9550  175.8340  146.9620 C   0  0  0  0  0  0  0  0  0  0  0  0
  190.6270  176.2130  145.8710 C   0  0  0  0  0  0  0  0  0  0  0  0
  190.8170  175.2910  147.8490 N   0  0  0  0  0  0  0  0  0  0  0  0
  185.5710  177.2710  145.2750 C   0  0  0  0  0  3  0  0  0  0  0  0
  185.6730  177.8170  144.0030 C   0  0  0  0  0  0  0  0  0  0  0  0
  186.8520  177.9470  143.2800 C   0  0  0  0  0  3  0  0  0  0  0  0
  187.9200  176.6100  145.9300 C   0  0  0  0  0  0  0  0  0  0  0  0
  188.1500  177.5940  143.6140 C   0  0  0  0  0  3  0  0  0  0  0  0
  188.6760  177.0060  144.7620 C   0  0  0  0  0  0  0  0  0  0  0  0
  184.4260  178.2910  143.3700 C   0  0  0  0  0  0  0  0  0  0  0  0
  184.1100  177.9160  142.0690 O   0  0  0  0  0  0  0  0  0  0  0  0
  183.6310  179.0410  143.9990 O   0  0  0  0  0  1  0  0  0  0  0  0
  193.5090  176.9850  142.9200 O   0  0  0  0  0  0  0  0  0  0  0  0
  193.7050  174.0550  140.7310 N   0  0  0  0  0  0  0  0  0  0  0  0
  195.2870  176.2170  141.4000 C   0  0  0  0  0  3  0  0  0  0  0  0
  196.2350  173.7990  138.1230 N   0  0  0  0  0  0  0  0  0  0  0  0
  196.2700  173.1920  136.8260 C   0  0  0  0  0  0  0  0  0  0  0  0
  195.4200  173.1730  139.1710 C   0  0  0  0  0  2  0  0  0  0  0  0
  196.9910  173.6760  135.9130 O   0  0  0  0  0  0  0  0  0  0  0  0
  194.9230  174.1950  140.1420 C   0  0  0  0  0  0  0  0  0  0  0  0
  195.5070  172.0610  136.5600 O   0  0  0  0  0  1  0  0  0  0  0  0
  197.0910  175.3980  139.8520 C   0  0  0  0  0  2  0  0  0  0  0  0
  195.7360  175.2840  140.4670 C   0  0  0  0  0  0  0  0  0  0  0  0
  197.0490  175.0020  138.3730 C   0  0  0  0  0  2  0  0  0  0  0  0
  194.0290  176.0630  142.0000 C   0  0  0  0  0  0  0  0  0  0  0  0
  193.2450  174.9610  141.6370 C   0  0  0  0  0  3  0  0  0  0  0  0
  1 17  1  0  0  0  0
  1 10  1  0  0  0  0
  4  8  2  0  0  0  0
  5  4  1  0  0  0  0
  5  1  2  0  0  0  0
  6  7  1  0  0  0  0
  7 11  1  0  0  0  0
  8  6  1  0  0  0  0
  9  3  1  0  0  0  0
  9 11  2  0  0  0  0
 10  6  2  0  0  0  0
 10  9  1  0  0  0  0
 12  2  2  0  0  0  0
 13 12  1  0  0  0  0
 14 16  1  0  0  0  0
 14 13  2  0  0  0  0
 15  2  1  0  0  0  0
 15  3  2  0  0  0  0
 16 17  2  0  0  0  0
 17 15  1  0  0  0  0
 18 20  1  0  0  0  0
 18 13  1  0  0  0  0
 19 18  2  0  0  0  0
 21  4  1  0  0  0  0
 22 34  1  0  0  0  0
 23 33  1  0  0  0  0
 24 32  1  0  0  0  0
 24 26  1  0  0  0  0
 25 24  1  0  0  0  0
 26 28  1  0  0  0  0
 27 25  2  0  0  0  0
 28 31  1  0  0  0  0
 28 22  2  0  0  0  0
 29 25  1  0  0  0  0
 30 31  1  0  0  0  0
 31 23  2  0  0  0  0
 32 30  1  0  0  0  0
 33 21  1  0  0  0  0
 34 33  2  0  0  0  0
M  END
>  <MODEL>
8

>  <REMARK>
 VINA RESULT:      -8.2      3.807      6.038
  Name = 
  3 active torsions:
  status: ('A' for Active; 'I' for Inactive)
    1  A    between atoms: C_3  and  C_25
    2  A    between atoms: C_8  and  O_18
    3  A    between atoms: O_18  and  C_30
                            x       y       z     vdW  Elec       q    Type
                         _______ _______ _______ _____ _____    ______ ____

>  <TORSDO>
F 3

$$$$
=
 OpenBabel11052420143D

 34 39  0  0  0  0  0  0  0  0999 V2000
  189.1490  175.6190  144.4440 C   0  0  0  0  0  0  0  0  0  0  0  0
  186.5360  178.2850  145.0390 C   0  0  0  0  0  3  0  0  0  0  0  0
  188.3330  177.5400  146.3640 C   0  0  0  0  0  3  0  0  0  0  0  0
  190.9390  173.7760  144.1260 C   0  0  0  0  0  0  0  0  0  0  0  0
  189.7290  174.5420  143.5370 C   0  0  0  0  0  3  0  0  0  0  0  0
  190.8450  175.1630  146.1100 C   0  0  0  0  0  0  0  0  0  0  0  0
  191.1520  175.6500  147.3350 N   0  0  0  0  0  2  0  0  0  0  0  0
  191.4640  174.0890  145.3330 C   0  0  0  0  0  3  0  0  0  0  0  0
  189.4280  176.7120  146.5670 C   0  0  0  0  0  0  0  0  0  0  0  0
  189.7820  175.8210  145.6370 C   0  0  0  0  0  0  0  0  0  0  0  0
  190.2680  176.6150  147.6190 N   0  0  0  0  0  0  0  0  0  0  0  0
  185.6040  178.4670  144.0300 C   0  0  0  0  0  3  0  0  0  0  0  0
  185.4670  177.8200  142.8100 C   0  0  0  0  0  0  0  0  0  0  0  0
  186.2920  176.8020  142.3470 C   0  0  0  0  0  3  0  0  0  0  0  0
  187.6090  177.4110  145.1470 C   0  0  0  0  0  0  0  0  0  0  0  0
  187.3950  176.2050  142.9370 C   0  0  0  0  0  3  0  0  0  0  0  0
  188.0170  176.4330  144.1630 C   0  0  0  0  0  0  0  0  0  0  0  0
  184.3530  178.2480  141.9410 C   0  0  0  0  0  0  0  0  0  0  0  0
  184.5910  178.6070  140.6180 O   0  0  0  0  0  0  0  0  0  0  0  0
  183.1740  178.2940  142.3840 O   0  0  0  0  0  1  0  0  0  0  0  0
  191.5670  172.7500  143.4030 O   0  0  0  0  0  0  0  0  0  0  0  0
  190.4410  171.0960  140.3360 N   0  0  0  0  0  0  0  0  0  0  0  0
  191.9760  173.2820  141.0340 C   0  0  0  0  0  3  0  0  0  0  0  0
  190.6960  172.7320  137.0920 N   0  0  0  0  0  0  0  0  0  0  0  0
  189.9130  172.6930  135.8930 C   0  0  0  0  0  0  0  0  0  0  0  0
  190.7810  171.5200  137.9160 C   0  0  0  0  0  2  0  0  0  0  0  0
  189.8490  173.6990  135.1380 O   0  0  0  0  0  0  0  0  0  0  0  0
  190.9810  171.8680  139.3570 C   0  0  0  0  0  0  0  0  0  0  0  0
  189.2130  171.5410  135.5490 O   0  0  0  0  0  1  0  0  0  0  0  0
  192.3890  173.7890  138.6070 C   0  0  0  0  0  2  0  0  0  0  0  0
  191.7600  172.9790  139.6910 C   0  0  0  0  0  0  0  0  0  0  0  0
  191.4200  173.9690  137.4340 C   0  0  0  0  0  2  0  0  0  0  0  0
  191.4120  172.4780  142.0360 C   0  0  0  0  0  0  0  0  0  0  0  0
  190.6330  171.3800  141.6530 C   0  0  0  0  0  3  0  0  0  0  0  0
  1 10  1  0  0  0  0
  2 15  1  0  0  0  0
  3  9  1  0  0  0  0
  4  8  2  0  0  0  0
  5  4  1  0  0  0  0
  5  1  2  0  0  0  0
  6  7  1  0  0  0  0
  7 11  1  0  0  0  0
  8  6  1  0  0  0  0
  9 11  2  0  0  0  0
 10  6  2  0  0  0  0
 10  9  1  0  0  0  0
 12  2  2  0  0  0  0
 13 12  1  0  0  0  0
 14 13  2  0  0  0  0
 14 16  1  0  0  0  0
 15  3  2  0  0  0  0
 16 17  2  0  0  0  0
 17  1  1  0  0  0  0
 17 15  1  0  0  0  0
 18 20  1  0  0  0  0
 18 13  1  0  0  0  0
 19 18  2  0  0  0  0
 21  4  1  0  0  0  0
 22 34  1  0  0  0  0
 23 33  1  0  0  0  0
 24 32  1  0  0  0  0
 24 26  1  0  0  0  0
 25 24  1  0  0  0  0
 26 28  1  0  0  0  0
 27 25  2  0  0  0  0
 28 31  1  0  0  0  0
 28 22  2  0  0  0  0
 29 25  1  0  0  0  0
 30 31  1  0  0  0  0
 31 23  2  0  0  0  0
 32 30  1  0  0  0  0
 33 21  1  0  0  0  0
 34 33  2  0  0  0  0
M  END
>  <MODEL>
9

>  <REMARK>
 VINA RESULT:      -8.0      4.150      6.291
  Name = 
  3 active torsions:
  status: ('A' for Active; 'I' for Inactive)
    1  A    between atoms: C_3  and  C_25
    2  A    between atoms: C_8  and  O_18
    3  A    between atoms: O_18  and  C_30
                            x       y       z     vdW  Elec       q    Type
                         _______ _______ _______ _____ _____    ______ ____

>  <TORSDO>
F 3

$$$$
