=
 OpenBabel11052421183D

 43 48  0  0  1  0  0  0  0  0999 V2000
  189.3470  174.9440  146.5560 C   0  0  0  0  0  0  0  0  0  0  0  0
  193.6000  175.8340  143.8070 C   0  0  1  0  0  3  0  0  0  0  0  0
  191.0730  176.0560  145.2720 C   0  0  0  0  0  0  0  0  0  0  0  0
  189.6790  173.7280  145.9510 C   0  0  0  0  0  3  0  0  0  0  0  0
  188.3560  174.9930  147.4750 F   0  0  0  0  0  0  0  0  0  0  0  0
  191.4030  174.8350  144.6570 C   0  0  0  0  0  0  0  0  0  0  0  0
  190.0450  176.1110  146.2170 C   0  0  0  0  0  3  0  0  0  0  0  0
  190.7000  173.6750  144.9990 C   0  0  0  0  0  3  0  0  0  0  0  0
  192.4770  174.7740  143.6060 C   0  0  1  0  0  3  0  0  0  0  0  0
  193.3210  176.9350  144.8480 C   0  0  0  0  0  2  0  0  0  0  0  0
  191.8370  177.2870  144.9180 C   0  0  0  0  0  2  0  0  0  0  0  0
  194.9980  175.2260  143.9930 C   0  0  2  0  0  3  0  0  0  0  0  0
  195.2450  174.2100  143.0680 O   0  0  0  0  0  1  0  0  0  0  0  0
  195.3430  174.7810  145.4210 C   0  0  0  0  0  2  0  0  0  0  0  0
  196.8070  171.3300  145.9950 C   0  0  0  0  0  3  0  0  0  0  0  0
  195.6470  170.5530  145.9660 C   0  0  0  0  0  0  0  0  0  0  0  0
  194.3520  172.5250  145.5800 N   0  0  0  0  0  0  0  0  0  0  0  0
  196.7210  172.7120  145.8170 C   0  0  0  0  0  3  0  0  0  0  0  0
  195.4720  173.3010  145.5950 C   0  0  0  0  0  0  0  0  0  0  0  0
  194.4130  171.1780  145.7590 C   0  0  0  0  0  3  0  0  0  0  0  0
  195.7290  169.0760  146.1210 C   0  0  0  0  0  2  0  0  0  0  0  0
  194.8720  168.6240  147.2880 C   0  0  0  0  0  1  0  0  0  0  0  0
  191.8700  174.9410  142.2900 N   0  0  0  0  0  2  0  0  0  0  0  0
  190.2470  173.3440  141.2690 C   0  0  1  0  0  3  0  0  0  0  0  0
  191.2840  173.7630  140.2500 C   0  0  0  0  0  2  0  0  0  0  0  0
  191.6910  173.6170  141.7030 C   0  0  1  0  0  3  0  0  0  0  0  0
  187.1400  175.4040  142.1220 N   0  0  0  0  0  2  0  0  0  0  0  0
  189.3560  174.4630  141.5430 N   0  0  0  0  0  2  0  0  0  0  0  0
  187.9830  174.2760  141.8940 C   0  0  0  0  0  0  0  0  0  0  0  0
  187.5060  173.1150  142.0010 O   0  0  0  0  0  0  0  0  0  0  0  0
  187.6310  176.7180  142.0410 N   0  0  0  0  0  0  0  0  0  0  0  0
  186.2360  178.7170  142.3230 N   0  0  0  0  0  2  0  0  0  0  0  0
  187.5140  177.1470  140.6390 C   0  0  0  0  0  2  0  0  0  0  0  0
  186.0640  177.4260  140.2320 C   0  0  0  0  0  2  0  0  0  0  0  0
  186.8430  177.5540  142.9740 C   0  0  2  0  0  3  0  0  0  0  0  0
  185.3180  178.2220  141.3040 C   0  0  0  0  0  2  0  0  0  0  0  0
  187.6990  178.0000  144.1540 C   0  0  0  0  0  2  0  0  0  0  0  0
  186.9520  177.9020  145.3990 N   0  0  0  0  0  0  0  0  0  0  0  0
  184.3950  177.9570  146.7540 C   0  0  0  0  0  2  0  0  0  0  0  0
  185.1390  176.6560  146.4840 C   0  0  0  0  0  2  0  0  0  0  0  0
  185.3710  179.1250  146.8200 C   0  0  0  0  0  2  0  0  0  0  0  0
  185.9920  176.8120  145.2260 C   0  0  0  0  0  2  0  0  0  0  0  0
  186.2110  179.1570  145.5440 C   0  0  0  0  0  2  0  0  0  0  0  0
  1  5  1  0  0  0  0
  2 12  1  1  0  0  0
  2 10  1  0  0  0  0
  3  7  2  0  0  0  0
  4  1  2  0  0  0  0
  6  8  2  0  0  0  0
  6  3  1  0  0  0  0
  7  1  1  0  0  0  0
  8  4  1  0  0  0  0
  9 23  1  6  0  0  0
  9  2  1  0  0  0  0
  9  6  1  0  0  0  0
 10 11  1  0  0  0  0
 11  3  1  0  0  0  0
 12 13  1  6  0  0  0
 12 14  1  0  0  0  0
 14 19  1  0  0  0  0
 16 15  1  0  0  0  0
 16 21  1  0  0  0  0
 17 19  2  0  0  0  0
 17 20  1  0  0  0  0
 18 15  2  0  0  0  0
 19 18  1  0  0  0  0
 20 16  2  0  0  0  0
 21 22  1  0  0  0  0
 24 28  1  1  0  0  0
 24 26  1  0  0  0  0
 25 24  1  0  0  0  0
 25 26  1  0  0  0  0
 26 23  1  1  0  0  0
 28 29  1  0  0  0  0
 29 30  2  0  0  0  0
 29 27  1  0  0  0  0
 31 27  1  0  0  0  0
 31 35  1  0  0  0  0
 32 35  1  0  0  0  0
 33 31  1  0  0  0  0
 34 33  1  0  0  0  0
 34 36  1  0  0  0  0
 35 37  1  1  0  0  0
 36 32  1  0  0  0  0
 37 38  1  0  0  0  0
 38 43  1  0  0  0  0
 39 41  1  0  0  0  0
 40 39  1  0  0  0  0
 42 38  1  0  0  0  0
 42 40  1  0  0  0  0
 43 41  1  0  0  0  0
M  END
>  <MODEL>
1

>  <REMARK>
 VINA RESULT:      -8.6      0.000      0.000
  Name = 
  10 active torsions:
  status: ('A' for Active; 'I' for Inactive)
    1  A    between atoms: C_1  and  C_34
    2  A    between atoms: C_1  and  C_35
    3  A    between atoms: C_2  and  N_6
    4  A    between atoms: N_3  and  N_4
    5  A    between atoms: C_8  and  C_34
    6  A    between atoms: N_11  and  C_14
    7  A    between atoms: C_13  and  N_27
    8  A    between atoms: C_14  and  C_41
    9  A    between atoms: C_19  and  C_25
   10  A    between atoms: N_27  and  C_30
                            x       y       z     vdW  Elec       q    Type
                         _______ _______ _______ _____ _____    ______ ____

>  <TORSDO>
F 10

$$$$
=
 OpenBabel11052421183D

 43 48  0  0  1  0  0  0  0  0999 V2000
  187.3530  177.5650  141.3690 C   0  0  0  0  0  0  0  0  0  0  0  0
  190.2680  176.3680  145.4320 C   0  0  1  0  0  3  0  0  0  0  0  0
  189.1960  177.4660  142.9370 C   0  0  0  0  0  0  0  0  0  0  0  0
  186.9110  176.3130  141.8070 C   0  0  0  0  0  3  0  0  0  0  0  0
  186.6710  178.2220  140.4030 F   0  0  0  0  0  0  0  0  0  0  0  0
  188.7580  176.2030  143.3730 C   0  0  0  0  0  0  0  0  0  0  0  0
  188.4970  178.1440  141.9340 C   0  0  0  0  0  3  0  0  0  0  0  0
  187.6160  175.6300  142.8020 C   0  0  0  0  0  3  0  0  0  0  0  0
  189.5290  175.4450  144.4190 C   0  0  1  0  0  3  0  0  0  0  0  0
  190.3330  177.8640  145.0700 C   0  0  0  0  0  2  0  0  0  0  0  0
  190.4030  178.0800  143.5600 C   0  0  0  0  0  2  0  0  0  0  0  0
  189.8300  176.1610  146.8900 C   0  0  2  0  0  3  0  0  0  0  0  0
  190.7870  175.4520  147.6190 O   0  0  0  0  0  1  0  0  0  0  0  0
  188.4260  175.5700  147.0830 C   0  0  0  0  0  2  0  0  0  0  0  0
  186.2230  178.6470  146.8490 C   0  0  0  0  0  3  0  0  0  0  0  0
  185.2350  178.1880  145.9760 C   0  0  0  0  0  0  0  0  0  0  0  0
  186.3380  176.0690  145.8640 N   0  0  0  0  0  0  0  0  0  0  0  0
  187.2710  177.8010  147.2200 C   0  0  0  0  0  3  0  0  0  0  0  0
  187.3080  176.4940  146.7220 C   0  0  0  0  0  0  0  0  0  0  0  0
  185.3140  176.8810  145.4850 C   0  0  0  0  0  3  0  0  0  0  0  0
  184.0970  179.0680  145.6000 C   0  0  0  0  0  2  0  0  0  0  0  0
  183.9270  179.0890  144.0930 C   0  0  0  0  0  1  0  0  0  0  0  0
  190.4890  174.5640  143.7620 N   0  0  0  0  0  2  0  0  0  0  0  0
  190.7180  172.2440  142.8740 C   0  0  1  0  0  3  0  0  0  0  0  0
  190.9700  172.2640  144.3660 C   0  0  0  0  0  2  0  0  0  0  0  0
  189.9440  173.2100  143.7760 C   0  0  1  0  0  3  0  0  0  0  0  0
  192.8500  173.9440  140.1930 N   0  0  0  0  0  2  0  0  0  0  0  0
  191.8300  172.8850  142.1850 N   0  0  0  0  0  2  0  0  0  0  0  0
  191.7230  173.3520  140.8370 C   0  0  0  0  0  0  0  0  0  0  0  0
  190.6370  173.2400  140.2090 O   0  0  0  0  0  0  0  0  0  0  0  0
  194.0740  174.1160  140.8600 N   0  0  0  0  0  0  0  0  0  0  0  0
  195.8890  175.5480  140.0380 N   0  0  0  0  0  2  0  0  0  0  0  0
  194.9990  173.0900  140.3540 C   0  0  0  0  0  2  0  0  0  0  0  0
  195.4790  173.3860  138.9300 C   0  0  0  0  0  2  0  0  0  0  0  0
  194.5400  175.4970  140.6040 C   0  0  2  0  0  3  0  0  0  0  0  0
  195.8540  174.8580  138.7530 C   0  0  0  0  0  2  0  0  0  0  0  0
  194.4740  176.3330  141.8780 C   0  0  0  0  0  2  0  0  0  0  0  0
  194.6070  175.4890  143.0560 N   0  0  0  0  0  0  0  0  0  0  0  0
  195.1500  175.2770  145.8910 C   0  0  0  0  0  2  0  0  0  0  0  0
  193.7380  175.1740  145.3280 C   0  0  0  0  0  2  0  0  0  0  0  0
  196.1740  174.8700  144.8380 C   0  0  0  0  0  2  0  0  0  0  0  0
  193.6470  175.9900  144.0400 C   0  0  0  0  0  2  0  0  0  0  0  0
  195.9590  175.7030  143.5760 C   0  0  0  0  0  2  0  0  0  0  0  0
  1  4  2  0  0  0  0
  1  7  1  0  0  0  0
  2 12  1  1  0  0  0
  3  6  1  0  0  0  0
  3 11  1  0  0  0  0
  4  8  1  0  0  0  0
  5  1  1  0  0  0  0
  6  9  1  0  0  0  0
  7  3  2  0  0  0  0
  8  6  2  0  0  0  0
  9 23  1  6  0  0  0
  9  2  1  0  0  0  0
 10  2  1  0  0  0  0
 11 10  1  0  0  0  0
 12 14  1  0  0  0  0
 12 13  1  6  0  0  0
 15 18  1  0  0  0  0
 16 15  2  0  0  0  0
 17 19  1  0  0  0  0
 19 14  1  0  0  0  0
 19 18  2  0  0  0  0
 20 17  2  0  0  0  0
 20 16  1  0  0  0  0
 21 16  1  0  0  0  0
 22 21  1  0  0  0  0
 24 28  1  6  0  0  0
 24 26  1  0  0  0  0
 24 25  1  0  0  0  0
 26 23  1  6  0  0  0
 26 25  1  0  0  0  0
 27 29  1  0  0  0  0
 27 31  1  0  0  0  0
 29 28  1  0  0  0  0
 30 29  2  0  0  0  0
 32 35  1  0  0  0  0
 33 31  1  0  0  0  0
 34 33  1  0  0  0  0
 35 31  1  0  0  0  0
 35 37  1  1  0  0  0
 36 34  1  0  0  0  0
 36 32  1  0  0  0  0
 37 38  1  0  0  0  0
 38 43  1  0  0  0  0
 38 42  1  0  0  0  0
 40 39  1  0  0  0  0
 41 39  1  0  0  0  0
 42 40  1  0  0  0  0
 43 41  1  0  0  0  0
M  END
>  <MODEL>
2

>  <REMARK>
 VINA RESULT:      -8.2      2.927      8.130
  Name = 
  10 active torsions:
  status: ('A' for Active; 'I' for Inactive)
    1  A    between atoms: C_1  and  C_34
    2  A    between atoms: C_1  and  C_35
    3  A    between atoms: C_2  and  N_6
    4  A    between atoms: N_3  and  N_4
    5  A    between atoms: C_8  and  C_34
    6  A    between atoms: N_11  and  C_14
    7  A    between atoms: C_13  and  N_27
    8  A    between atoms: C_14  and  C_41
    9  A    between atoms: C_19  and  C_25
   10  A    between atoms: N_27  and  C_30
                            x       y       z     vdW  Elec       q    Type
                         _______ _______ _______ _____ _____    ______ ____

>  <TORSDO>
F 10

$$$$
=
 OpenBabel11052421183D

 43 48  0  0  1  0  0  0  0  0999 V2000
  187.8310  177.2670  141.2010 C   0  0  0  0  0  0  0  0  0  0  0  0
  190.4890  176.5160  145.5380 C   0  0  1  0  0  3  0  0  0  0  0  0
  189.4760  177.4830  142.9650 C   0  0  0  0  0  0  0  0  0  0  0  0
  187.6270  175.9290  141.5540 C   0  0  0  0  0  3  0  0  0  0  0  0
  187.1280  177.8110  140.1810 F   0  0  0  0  0  0  0  0  0  0  0  0
  189.2770  176.1360  143.3160 C   0  0  0  0  0  0  0  0  0  0  0  0
  188.7560  178.0460  141.9070 C   0  0  0  0  0  3  0  0  0  0  0  0
  188.3530  175.3630  142.6050 C   0  0  0  0  0  3  0  0  0  0  0  0
  190.0790  175.5090  144.4240 C   0  0  1  0  0  3  0  0  0  0  0  0
  190.2680  178.0080  145.2240 C   0  0  0  0  0  2  0  0  0  0  0  0
  190.4480  178.3080  143.7380 C   0  0  0  0  0  2  0  0  0  0  0  0
  189.9550  176.1500  146.9300 C   0  0  2  0  0  3  0  0  0  0  0  0
  190.8860  175.4060  147.6590 O   0  0  0  0  0  1  0  0  0  0  0  0
  188.5680  175.4920  146.9570 C   0  0  0  0  0  2  0  0  0  0  0  0
  185.5830  177.0380  145.2020 C   0  0  0  0  0  3  0  0  0  0  0  0
  185.3220  178.1190  146.0460 C   0  0  0  0  0  0  0  0  0  0  0  0
  187.1620  177.4660  147.4270 N   0  0  0  0  0  0  0  0  0  0  0  0
  186.6410  176.1730  145.4870 C   0  0  0  0  0  3  0  0  0  0  0  0
  187.4390  176.4100  146.6110 C   0  0  0  0  0  0  0  0  0  0  0  0
  186.1300  178.3160  147.1700 C   0  0  0  0  0  3  0  0  0  0  0  0
  184.2190  179.0660  145.7350 C   0  0  0  0  0  2  0  0  0  0  0  0
  183.9560  179.0890  144.2410 C   0  0  0  0  0  1  0  0  0  0  0  0
  191.2710  174.8850  143.8580 N   0  0  0  0  0  2  0  0  0  0  0  0
  193.5450  174.2510  144.6640 C   0  0  1  0  0  3  0  0  0  0  0  0
  193.6260  175.4620  143.7620 C   0  0  0  0  0  2  0  0  0  0  0  0
  192.4190  175.2890  144.6620 C   0  0  1  0  0  3  0  0  0  0  0  0
  193.1840  170.6240  143.5040 N   0  0  0  0  0  2  0  0  0  0  0  0
  193.2250  173.0730  143.8680 N   0  0  0  0  0  2  0  0  0  0  0  0
  193.4840  171.7460  144.3330 C   0  0  0  0  0  0  0  0  0  0  0  0
  193.9820  171.5570  145.4750 O   0  0  0  0  0  0  0  0  0  0  0  0
  192.6030  170.7810  142.2340 N   0  0  0  0  0  0  0  0  0  0  0  0
  190.6710  169.4900  141.4470 N   0  0  0  0  0  2  0  0  0  0  0  0
  193.2780  169.8450  141.3230 C   0  0  0  0  0  2  0  0  0  0  0  0
  192.8720  168.3890  141.5740 C   0  0  0  0  0  2  0  0  0  0  0  0
  191.1520  170.5240  142.3650 C   0  0  2  0  0  3  0  0  0  0  0  0
  191.3620  168.2490  141.7800 C   0  0  0  0  0  2  0  0  0  0  0  0
  190.3560  171.8100  142.1700 C   0  0  0  0  0  2  0  0  0  0  0  0
  190.0660  172.0280  140.7600 N   0  0  0  0  0  0  0  0  0  0  0  0
  189.1480  173.8160  138.6780 C   0  0  0  0  0  2  0  0  0  0  0  0
  190.6230  173.4830  138.8650 C   0  0  0  0  0  2  0  0  0  0  0  0
  188.2740  172.6940  139.2240 C   0  0  0  0  0  2  0  0  0  0  0  0
  190.8860  173.1630  140.3350 C   0  0  0  0  0  2  0  0  0  0  0  0
  188.6560  172.4160  140.6770 C   0  0  0  0  0  2  0  0  0  0  0  0
  1  4  2  0  0  0  0
  1  7  1  0  0  0  0
  2 12  1  1  0  0  0
  3  6  1  0  0  0  0
  3 11  1  0  0  0  0
  4  8  1  0  0  0  0
  5  1  1  0  0  0  0
  6  9  1  0  0  0  0
  7  3  2  0  0  0  0
  8  6  2  0  0  0  0
  9 23  1  6  0  0  0
  9  2  1  0  0  0  0
 10  2  1  0  0  0  0
 11 10  1  0  0  0  0
 12 14  1  0  0  0  0
 12 13  1  6  0  0  0
 15 18  2  0  0  0  0
 15 16  1  0  0  0  0
 16 20  2  0  0  0  0
 18 19  1  0  0  0  0
 19 14  1  0  0  0  0
 19 17  2  0  0  0  0
 20 17  1  0  0  0  0
 21 16  1  0  0  0  0
 22 21  1  0  0  0  0
 24 28  1  6  0  0  0
 25 26  1  0  0  0  0
 25 24  1  0  0  0  0
 26 23  1  6  0  0  0
 26 24  1  0  0  0  0
 27 29  1  0  0  0  0
 28 29  1  0  0  0  0
 29 30  2  0  0  0  0
 31 35  1  0  0  0  0
 31 27  1  0  0  0  0
 32 36  1  0  0  0  0
 32 35  1  0  0  0  0
 33 34  1  0  0  0  0
 33 31  1  0  0  0  0
 34 36  1  0  0  0  0
 35 37  1  6  0  0  0
 38 37  1  0  0  0  0
 39 40  1  0  0  0  0
 39 41  1  0  0  0  0
 40 42  1  0  0  0  0
 41 43  1  0  0  0  0
 42 38  1  0  0  0  0
 43 38  1  0  0  0  0
M  END
>  <MODEL>
3

>  <REMARK>
 VINA RESULT:      -8.2      2.873      8.237
  Name = 
  10 active torsions:
  status: ('A' for Active; 'I' for Inactive)
    1  A    between atoms: C_1  and  C_34
    2  A    between atoms: C_1  and  C_35
    3  A    between atoms: C_2  and  N_6
    4  A    between atoms: N_3  and  N_4
    5  A    between atoms: C_8  and  C_34
    6  A    between atoms: N_11  and  C_14
    7  A    between atoms: C_13  and  N_27
    8  A    between atoms: C_14  and  C_41
    9  A    between atoms: C_19  and  C_25
   10  A    between atoms: N_27  and  C_30
                            x       y       z     vdW  Elec       q    Type
                         _______ _______ _______ _____ _____    ______ ____

>  <TORSDO>
F 10

$$$$
=
 OpenBabel11052421183D

 43 48  0  0  1  0  0  0  0  0999 V2000
  188.6850  173.8760  141.7440 C   0  0  0  0  0  0  0  0  0  0  0  0
  190.6910  176.9060  145.3820 C   0  0  1  0  0  3  0  0  0  0  0  0
  189.7420  175.7440  142.8670 C   0  0  0  0  0  0  0  0  0  0  0  0
  189.0890  173.0250  142.7780 C   0  0  0  0  0  3  0  0  0  0  0  0
  187.9720  173.3850  140.7050 F   0  0  0  0  0  0  0  0  0  0  0  0
  190.1560  174.8880  143.9020 C   0  0  0  0  0  0  0  0  0  0  0  0
  189.0110  175.2380  141.7880 C   0  0  0  0  0  3  0  0  0  0  0  0
  189.8290  173.5290  143.8510 C   0  0  0  0  0  3  0  0  0  0  0  0
  190.9820  175.4140  145.0440 C   0  0  1  0  0  3  0  0  0  0  0  0
  189.8380  177.6830  144.3610 C   0  0  0  0  0  2  0  0  0  0  0  0
  190.0770  177.1950  142.9340 C   0  0  0  0  0  2  0  0  0  0  0  0
  190.1920  177.1300  146.8170 C   0  0  2  0  0  3  0  0  0  0  0  0
  191.2180  176.9690  147.7500 O   0  0  0  0  0  1  0  0  0  0  0  0
  188.9420  176.3320  147.2160 C   0  0  0  0  0  2  0  0  0  0  0  0
  185.6930  177.0010  145.3790 C   0  0  0  0  0  3  0  0  0  0  0  0
  185.2250  178.1130  146.0840 C   0  0  0  0  0  0  0  0  0  0  0  0
  187.1690  178.0310  147.4740 N   0  0  0  0  0  0  0  0  0  0  0  0
  186.9060  176.4110  145.7380 C   0  0  0  0  0  3  0  0  0  0  0  0
  187.6480  176.9520  146.7930 C   0  0  0  0  0  0  0  0  0  0  0  0
  185.9860  178.6160  147.1440 C   0  0  0  0  0  3  0  0  0  0  0  0
  183.9510  178.7700  145.6900 C   0  0  0  0  0  2  0  0  0  0  0  0
  183.9560  179.0720  144.2030 C   0  0  0  0  0  1  0  0  0  0  0  0
  192.3970  175.2450  144.7300 N   0  0  0  0  0  2  0  0  0  0  0  0
  194.5530  174.4440  145.6960 C   0  0  1  0  0  3  0  0  0  0  0  0
  194.1310  175.7400  146.3530 C   0  0  0  0  0  2  0  0  0  0  0  0
  193.0690  174.7470  145.9260 C   0  0  1  0  0  3  0  0  0  0  0  0
  196.3720  174.2340  142.3380 N   0  0  0  0  0  2  0  0  0  0  0  0
  194.9760  174.7090  144.3270 N   0  0  0  0  0  2  0  0  0  0  0  0
  195.9660  173.9150  143.6690 C   0  0  0  0  0  0  0  0  0  0  0  0
  196.4900  172.9330  144.2580 O   0  0  0  0  0  0  0  0  0  0  0  0
  195.7990  175.3030  141.6290 N   0  0  0  0  0  0  0  0  0  0  0  0
  194.9730  175.1270  139.3250 N   0  0  0  0  0  2  0  0  0  0  0  0
  196.8860  175.9910  140.9170 C   0  0  0  0  0  2  0  0  0  0  0  0
  197.4040  175.1850  139.7210 C   0  0  0  0  0  2  0  0  0  0  0  0
  194.7690  174.7460  140.7240 C   0  0  2  0  0  3  0  0  0  0  0  0
  196.2590  174.5840  138.9040 C   0  0  0  0  0  2  0  0  0  0  0  0
  193.3730  175.1530  141.1820 C   0  0  0  0  0  2  0  0  0  0  0  0
  192.4680  174.0130  141.1550 N   0  0  0  0  0  0  0  0  0  0  0  0
  191.8970  171.3380  140.2090 C   0  0  0  0  0  2  0  0  0  0  0  0
  192.3590  171.6100  141.6360 C   0  0  0  0  0  2  0  0  0  0  0  0
  191.2060  172.5660  139.6300 C   0  0  0  0  0  2  0  0  0  0  0  0
  193.2270  172.8660  141.6550 C   0  0  0  0  0  2  0  0  0  0  0  0
  192.1350  173.7730  139.7500 C   0  0  0  0  0  2  0  0  0  0  0  0
  1  7  2  0  0  0  0
  1  4  1  0  0  0  0
  2 12  1  1  0  0  0
  3 11  1  0  0  0  0
  3  6  2  0  0  0  0
  4  8  2  0  0  0  0
  5  1  1  0  0  0  0
  6  9  1  0  0  0  0
  7  3  1  0  0  0  0
  8  6  1  0  0  0  0
  9 23  1  6  0  0  0
  9  2  1  0  0  0  0
 10  2  1  0  0  0  0
 11 10  1  0  0  0  0
 12 14  1  0  0  0  0
 12 13  1  1  0  0  0
 15 18  2  0  0  0  0
 15 16  1  0  0  0  0
 16 20  2  0  0  0  0
 18 19  1  0  0  0  0
 19 14  1  0  0  0  0
 19 17  2  0  0  0  0
 20 17  1  0  0  0  0
 21 16  1  0  0  0  0
 22 21  1  0  0  0  0
 24 28  1  6  0  0  0
 24 26  1  0  0  0  0
 24 25  1  0  0  0  0
 26 23  1  6  0  0  0
 26 25  1  0  0  0  0
 27 29  1  0  0  0  0
 29 30  2  0  0  0  0
 29 28  1  0  0  0  0
 31 27  1  0  0  0  0
 32 35  1  0  0  0  0
 33 31  1  0  0  0  0
 34 33  1  0  0  0  0
 35 37  1  1  0  0  0
 35 31  1  0  0  0  0
 36 32  1  0  0  0  0
 36 34  1  0  0  0  0
 38 37  1  0  0  0  0
 38 42  1  0  0  0  0
 39 40  1  0  0  0  0
 40 42  1  0  0  0  0
 41 43  1  0  0  0  0
 41 39  1  0  0  0  0
 43 38  1  0  0  0  0
M  END
>  <MODEL>
4

>  <REMARK>
 VINA RESULT:      -8.2      3.182      8.541
  Name = 
  10 active torsions:
  status: ('A' for Active; 'I' for Inactive)
    1  A    between atoms: C_1  and  C_34
    2  A    between atoms: C_1  and  C_35
    3  A    between atoms: C_2  and  N_6
    4  A    between atoms: N_3  and  N_4
    5  A    between atoms: C_8  and  C_34
    6  A    between atoms: N_11  and  C_14
    7  A    between atoms: C_13  and  N_27
    8  A    between atoms: C_14  and  C_41
    9  A    between atoms: C_19  and  C_25
   10  A    between atoms: N_27  and  C_30
                            x       y       z     vdW  Elec       q    Type
                         _______ _______ _______ _____ _____    ______ ____

>  <TORSDO>
F 10

$$$$
=
 OpenBabel11052421183D

 43 48  0  0  1  0  0  0  0  0999 V2000
  187.5730  177.2930  141.3550 C   0  0  0  0  0  0  0  0  0  0  0  0
  190.4530  176.1870  145.4700 C   0  0  1  0  0  3  0  0  0  0  0  0
  189.3880  177.2570  142.9600 C   0  0  0  0  0  0  0  0  0  0  0  0
  187.1740  176.0210  141.7770 C   0  0  0  0  0  3  0  0  0  0  0  0
  186.8840  177.9290  140.3810 F   0  0  0  0  0  0  0  0  0  0  0  0
  188.9920  175.9750  143.3790 C   0  0  0  0  0  0  0  0  0  0  0  0
  188.6820  177.9130  141.9470 C   0  0  0  0  0  3  0  0  0  0  0  0
  187.8860  175.3610  142.7830 C   0  0  0  0  0  3  0  0  0  0  0  0
  189.7730  175.2420  144.4360 C   0  0  1  0  0  3  0  0  0  0  0  0
  190.4660  177.6870  145.1180 C   0  0  0  0  0  2  0  0  0  0  0  0
  190.5560  177.9160  143.6110 C   0  0  0  0  0  2  0  0  0  0  0  0
  189.9960  175.9530  146.9170 C   0  0  2  0  0  3  0  0  0  0  0  0
  190.9160  175.1810  147.6290 O   0  0  0  0  0  1  0  0  0  0  0  0
  188.5660  175.4170  147.0820 C   0  0  0  0  0  2  0  0  0  0  0  0
  186.4550  178.5620  146.9090 C   0  0  0  0  0  3  0  0  0  0  0  0
  185.5040  178.1790  145.9610 C   0  0  0  0  0  0  0  0  0  0  0  0
  186.5600  176.0410  145.7860 N   0  0  0  0  0  0  0  0  0  0  0  0
  187.4600  177.6680  147.2850 C   0  0  0  0  0  3  0  0  0  0  0  0
  187.4920  176.3910  146.7170 C   0  0  0  0  0  0  0  0  0  0  0  0
  185.5770  176.9000  145.4010 C   0  0  0  0  0  3  0  0  0  0  0  0
  184.4090  179.1090  145.5770 C   0  0  0  0  0  2  0  0  0  0  0  0
  184.7390  179.7910  144.2630 C   0  0  0  0  0  1  0  0  0  0  0  0
  190.7800  174.4040  143.7940 N   0  0  0  0  0  2  0  0  0  0  0  0
  190.9140  172.2710  142.5070 C   0  0  1  0  0  3  0  0  0  0  0  0
  189.8000  172.2000  143.5280 C   0  0  0  0  0  2  0  0  0  0  0  0
  190.1000  173.5220  142.8500 C   0  0  1  0  0  3  0  0  0  0  0  0
  194.5350  171.4370  143.4120 N   0  0  0  0  0  2  0  0  0  0  0  0
  192.2010  172.2320  143.1890 N   0  0  0  0  0  2  0  0  0  0  0  0
  193.3040  171.4700  142.6920 C   0  0  0  0  0  0  0  0  0  0  0  0
  193.1960  170.8200  141.6180 O   0  0  0  0  0  0  0  0  0  0  0  0
  194.7140  172.1660  144.6000 N   0  0  0  0  0  0  0  0  0  0  0  0
  196.7200  172.0180  146.0050 N   0  0  0  0  0  2  0  0  0  0  0  0
  194.1910  171.3460  145.7030 C   0  0  0  0  0  2  0  0  0  0  0  0
  195.1030  170.1590  146.0320 C   0  0  0  0  0  2  0  0  0  0  0  0
  196.1560  172.4710  144.7320 C   0  0  2  0  0  3  0  0  0  0  0  0
  196.5770  170.5680  146.0590 C   0  0  0  0  0  2  0  0  0  0  0  0
  196.4110  173.9620  144.5450 C   0  0  0  0  0  2  0  0  0  0  0  0
  195.1970  174.7280  144.7890 N   0  0  0  0  0  0  0  0  0  0  0  0
  193.9710  177.2640  145.4520 C   0  0  0  0  0  2  0  0  0  0  0  0
  193.9660  176.7100  144.0330 C   0  0  0  0  0  2  0  0  0  0  0  0
  194.0880  176.1330  146.4660 C   0  0  0  0  0  2  0  0  0  0  0  0
  195.1990  175.8320  143.8290 C   0  0  0  0  0  2  0  0  0  0  0  0
  195.3160  175.2850  146.1380 C   0  0  0  0  0  2  0  0  0  0  0  0
  1  4  2  0  0  0  0
  1  7  1  0  0  0  0
  2 12  1  1  0  0  0
  3  6  1  0  0  0  0
  3 11  1  0  0  0  0
  4  8  1  0  0  0  0
  5  1  1  0  0  0  0
  6  9  1  0  0  0  0
  7  3  2  0  0  0  0
  8  6  2  0  0  0  0
  9 23  1  6  0  0  0
  9  2  1  0  0  0  0
 10  2  1  0  0  0  0
 11 10  1  0  0  0  0
 12 14  1  0  0  0  0
 12 13  1  6  0  0  0
 15 18  1  0  0  0  0
 16 15  2  0  0  0  0
 17 19  1  0  0  0  0
 19 14  1  0  0  0  0
 19 18  2  0  0  0  0
 20 17  2  0  0  0  0
 20 16  1  0  0  0  0
 21 16  1  0  0  0  0
 22 21  1  0  0  0  0
 24 26  1  0  0  0  0
 24 28  1  1  0  0  0
 24 25  1  0  0  0  0
 26 25  1  0  0  0  0
 26 23  1  1  0  0  0
 27 31  1  0  0  0  0
 29 28  1  0  0  0  0
 29 27  1  0  0  0  0
 30 29  2  0  0  0  0
 31 35  1  0  0  0  0
 31 33  1  0  0  0  0
 32 36  1  0  0  0  0
 33 34  1  0  0  0  0
 34 36  1  0  0  0  0
 35 37  1  1  0  0  0
 35 32  1  0  0  0  0
 37 38  1  0  0  0  0
 38 43  1  0  0  0  0
 39 41  1  0  0  0  0
 40 39  1  0  0  0  0
 42 40  1  0  0  0  0
 42 38  1  0  0  0  0
 43 41  1  0  0  0  0
M  END
>  <MODEL>
5

>  <REMARK>
 VINA RESULT:      -8.0      2.440      8.556
  Name = 
  10 active torsions:
  status: ('A' for Active; 'I' for Inactive)
    1  A    between atoms: C_1  and  C_34
    2  A    between atoms: C_1  and  C_35
    3  A    between atoms: C_2  and  N_6
    4  A    between atoms: N_3  and  N_4
    5  A    between atoms: C_8  and  C_34
    6  A    between atoms: N_11  and  C_14
    7  A    between atoms: C_13  and  N_27
    8  A    between atoms: C_14  and  C_41
    9  A    between atoms: C_19  and  C_25
   10  A    between atoms: N_27  and  C_30
                            x       y       z     vdW  Elec       q    Type
                         _______ _______ _______ _____ _____    ______ ____

>  <TORSDO>
F 10

$$$$
=
 OpenBabel11052421183D

 43 48  0  0  1  0  0  0  0  0999 V2000
  187.0630  177.6630  141.5340 C   0  0  0  0  0  0  0  0  0  0  0  0
  190.2890  176.4140  145.3390 C   0  0  1  0  0  3  0  0  0  0  0  0
  189.0210  177.5520  142.9570 C   0  0  0  0  0  0  0  0  0  0  0  0
  186.6690  176.3970  141.9770 C   0  0  0  0  0  3  0  0  0  0  0  0
  186.3040  178.3330  140.6380 F   0  0  0  0  0  0  0  0  0  0  0  0
  188.6300  176.2750  143.3960 C   0  0  0  0  0  0  0  0  0  0  0  0
  188.2410  178.2430  142.0250 C   0  0  0  0  0  3  0  0  0  0  0  0
  187.4530  175.7010  142.9010 C   0  0  0  0  0  3  0  0  0  0  0  0
  189.4850  175.5050  144.3640 C   0  0  1  0  0  3  0  0  0  0  0  0
  190.3120  177.9180  145.0060 C   0  0  0  0  0  2  0  0  0  0  0  0
  190.2650  178.1670  143.5010 C   0  0  0  0  0  2  0  0  0  0  0  0
  189.9650  176.1710  146.8210 C   0  0  2  0  0  3  0  0  0  0  0  0
  190.9710  175.4390  147.4540 O   0  0  0  0  0  1  0  0  0  0  0  0
  188.5770  175.5820  147.1080 C   0  0  0  0  0  2  0  0  0  0  0  0
  186.3760  178.6630  146.8980 C   0  0  0  0  0  3  0  0  0  0  0  0
  185.3180  178.1690  146.1320 C   0  0  0  0  0  0  0  0  0  0  0  0
  186.3990  176.0390  146.0380 N   0  0  0  0  0  0  0  0  0  0  0  0
  187.4460  177.8280  147.2250 C   0  0  0  0  0  3  0  0  0  0  0  0
  187.4370  176.4980  146.7930 C   0  0  0  0  0  0  0  0  0  0  0  0
  185.3510  176.8390  145.7030 C   0  0  0  0  0  3  0  0  0  0  0  0
  184.1570  179.0400  145.8060 C   0  0  0  0  0  2  0  0  0  0  0  0
  183.9190  179.0550  144.3080 C   0  0  0  0  0  1  0  0  0  0  0  0
  190.4010  174.6490  143.6180 N   0  0  0  0  0  2  0  0  0  0  0  0
  190.8680  172.2180  143.9330 C   0  0  1  0  0  3  0  0  0  0  0  0
  189.8950  172.7080  144.9840 C   0  0  0  0  0  2  0  0  0  0  0  0
  189.8410  173.3010  143.5900 C   0  0  1  0  0  3  0  0  0  0  0  0
  194.5890  172.5090  144.7690 N   0  0  0  0  0  2  0  0  0  0  0  0
  192.1910  172.7640  144.2060 N   0  0  0  0  0  2  0  0  0  0  0  0
  193.3190  171.9270  144.4750 C   0  0  0  0  0  0  0  0  0  0  0  0
  193.2010  170.6730  144.4590 O   0  0  0  0  0  0  0  0  0  0  0  0
  194.7790  173.9010  144.7730 N   0  0  0  0  0  0  0  0  0  0  0  0
  196.8100  175.0050  143.9500 N   0  0  0  0  0  2  0  0  0  0  0  0
  195.4110  174.2560  146.0520 C   0  0  0  0  0  2  0  0  0  0  0  0
  196.8820  173.8310  146.1150 C   0  0  0  0  0  2  0  0  0  0  0  0
  195.6070  174.2490  143.5970 C   0  0  2  0  0  3  0  0  0  0  0  0
  197.6220  174.1600  144.8180 C   0  0  0  0  0  2  0  0  0  0  0  0
  194.7860  175.0180  142.5670 C   0  0  0  0  0  2  0  0  0  0  0  0
  195.2390  174.7160  141.2170 N   0  0  0  0  0  0  0  0  0  0  0  0
  194.7060  173.4820  138.6540 C   0  0  0  0  0  2  0  0  0  0  0  0
  194.6280  174.9900  138.8570 C   0  0  0  0  0  2  0  0  0  0  0  0
  195.6490  172.8550  139.6740 C   0  0  0  0  0  2  0  0  0  0  0  0
  194.2460  175.2850  140.3060 C   0  0  0  0  0  2  0  0  0  0  0  0
  195.2130  173.2580  141.0810 C   0  0  0  0  0  2  0  0  0  0  0  0
  1  4  2  0  0  0  0
  1  7  1  0  0  0  0
  2 12  1  1  0  0  0
  3  6  1  0  0  0  0
  3 11  1  0  0  0  0
  4  8  1  0  0  0  0
  5  1  1  0  0  0  0
  6  9  1  0  0  0  0
  7  3  2  0  0  0  0
  8  6  2  0  0  0  0
  9 23  1  6  0  0  0
  9  2  1  0  0  0  0
 10  2  1  0  0  0  0
 11 10  1  0  0  0  0
 12 14  1  0  0  0  0
 12 13  1  6  0  0  0
 15 18  1  0  0  0  0
 16 15  2  0  0  0  0
 17 19  1  0  0  0  0
 19 14  1  0  0  0  0
 19 18  2  0  0  0  0
 20 17  2  0  0  0  0
 20 16  1  0  0  0  0
 21 16  1  0  0  0  0
 22 21  1  0  0  0  0
 24 28  1  1  0  0  0
 24 25  1  0  0  0  0
 26 23  1  1  0  0  0
 26 24  1  0  0  0  0
 26 25  1  0  0  0  0
 27 31  1  0  0  0  0
 28 29  1  0  0  0  0
 29 27  1  0  0  0  0
 30 29  2  0  0  0  0
 31 33  1  0  0  0  0
 32 36  1  0  0  0  0
 33 34  1  0  0  0  0
 35 37  1  6  0  0  0
 35 32  1  0  0  0  0
 35 31  1  0  0  0  0
 36 34  1  0  0  0  0
 38 37  1  0  0  0  0
 39 40  1  0  0  0  0
 39 41  1  0  0  0  0
 40 42  1  0  0  0  0
 41 43  1  0  0  0  0
 42 38  1  0  0  0  0
 43 38  1  0  0  0  0
M  END
>  <MODEL>
6

>  <REMARK>
 VINA RESULT:      -7.9      2.765      8.911
  Name = 
  10 active torsions:
  status: ('A' for Active; 'I' for Inactive)
    1  A    between atoms: C_1  and  C_34
    2  A    between atoms: C_1  and  C_35
    3  A    between atoms: C_2  and  N_6
    4  A    between atoms: N_3  and  N_4
    5  A    between atoms: C_8  and  C_34
    6  A    between atoms: N_11  and  C_14
    7  A    between atoms: C_13  and  N_27
    8  A    between atoms: C_14  and  C_41
    9  A    between atoms: C_19  and  C_25
   10  A    between atoms: N_27  and  C_30
                            x       y       z     vdW  Elec       q    Type
                         _______ _______ _______ _____ _____    ______ ____

>  <TORSDO>
F 10

$$$$
=
 OpenBabel11052421183D

 43 48  0  0  1  0  0  0  0  0999 V2000
  190.2720  176.7820  146.4750 C   0  0  0  0  0  0  0  0  0  0  0  0
  189.7820  173.3830  142.6480 C   0  0  1  0  0  3  0  0  0  0  0  0
  190.2280  174.7110  145.2200 C   0  0  0  0  0  0  0  0  0  0  0  0
  190.4970  177.4940  145.2930 C   0  0  0  0  0  3  0  0  0  0  0  0
  190.1770  177.4400  147.6530 F   0  0  0  0  0  0  0  0  0  0  0  0
  190.4630  175.4250  144.0320 C   0  0  0  0  0  0  0  0  0  0  0  0
  190.1370  175.3880  146.4400 C   0  0  0  0  0  3  0  0  0  0  0  0
  190.5990  176.8170  144.0750 C   0  0  0  0  0  3  0  0  0  0  0  0
  190.6080  174.7010  142.7210 C   0  0  1  0  0  3  0  0  0  0  0  0
  189.1810  172.8800  143.9740 C   0  0  0  0  0  2  0  0  0  0  0  0
  190.0660  173.2300  145.1680 C   0  0  0  0  0  2  0  0  0  0  0  0
  188.7430  173.3660  141.5170 C   0  0  2  0  0  3  0  0  0  0  0  0
  188.9580  172.3030  140.6370 O   0  0  0  0  0  1  0  0  0  0  0  0
  188.5620  174.6910  140.7630 C   0  0  0  0  0  2  0  0  0  0  0  0
  186.2710  176.3890  143.2620 C   0  0  0  0  0  3  0  0  0  0  0  0
  186.4790  177.7290  142.9300 C   0  0  0  0  0  0  0  0  0  0  0  0
  188.0060  177.0530  141.2190 N   0  0  0  0  0  0  0  0  0  0  0  0
  186.9440  175.3860  142.5610 C   0  0  0  0  0  3  0  0  0  0  0  0
  187.8100  175.7390  141.5200 C   0  0  0  0  0  0  0  0  0  0  0  0
  187.3650  178.0440  141.8950 C   0  0  0  0  0  3  0  0  0  0  0  0
  185.7420  178.8030  143.6470 C   0  0  0  0  0  2  0  0  0  0  0  0
  185.6230  178.4620  145.1200 C   0  0  0  0  0  1  0  0  0  0  0  0
  192.0190  174.4150  142.4860 N   0  0  0  0  0  2  0  0  0  0  0  0
  193.6570  174.1170  140.6270 C   0  0  1  0  0  3  0  0  0  0  0  0
  192.3780  173.3670  140.3270 C   0  0  0  0  0  2  0  0  0  0  0  0
  192.3060  174.6810  141.0800 C   0  0  1  0  0  3  0  0  0  0  0  0
  196.0560  171.8270  142.5320 N   0  0  0  0  0  2  0  0  0  0  0  0
  194.3730  173.4430  141.7020 N   0  0  0  0  0  2  0  0  0  0  0  0
  195.4050  172.4860  141.4470 C   0  0  0  0  0  0  0  0  0  0  0  0
  195.7440  172.2160  140.2640 O   0  0  0  0  0  0  0  0  0  0  0  0
  195.7330  172.1130  143.8690 N   0  0  0  0  0  0  0  0  0  0  0  0
  197.2010  171.6050  145.7680 N   0  0  0  0  0  2  0  0  0  0  0  0
  195.0410  170.9360  144.4160 C   0  0  0  0  0  2  0  0  0  0  0  0
  195.9930  169.7620  144.6650 C   0  0  0  0  0  2  0  0  0  0  0  0
  196.9900  172.4340  144.5800 C   0  0  2  0  0  3  0  0  0  0  0  0
  197.2950  170.2180  145.3260 C   0  0  0  0  0  2  0  0  0  0  0  0
  197.0350  173.9110  144.9560 C   0  0  0  0  0  2  0  0  0  0  0  0
  195.7160  174.5160  144.8300 N   0  0  0  0  0  0  0  0  0  0  0  0
  194.0100  176.8190  145.2270 C   0  0  0  0  0  2  0  0  0  0  0  0
  194.5470  176.4370  143.8530 C   0  0  0  0  0  2  0  0  0  0  0  0
  193.9390  175.5940  146.1300 C   0  0  0  0  0  2  0  0  0  0  0  0
  195.8840  175.7190  144.0150 C   0  0  0  0  0  2  0  0  0  0  0  0
  195.3090  174.9200  146.1770 C   0  0  0  0  0  2  0  0  0  0  0  0
  1  5  1  0  0  0  0
  2 12  1  6  0  0  0
  2  9  1  0  0  0  0
  2 10  1  0  0  0  0
  3  7  2  0  0  0  0
  4  1  2  0  0  0  0
  6  8  2  0  0  0  0
  6  3  1  0  0  0  0
  7  1  1  0  0  0  0
  8  4  1  0  0  0  0
  9 23  1  1  0  0  0
  9  6  1  0  0  0  0
 10 11  1  0  0  0  0
 11  3  1  0  0  0  0
 12 13  1  6  0  0  0
 14 12  1  0  0  0  0
 14 19  1  0  0  0  0
 16 15  1  0  0  0  0
 16 21  1  0  0  0  0
 17 19  2  0  0  0  0
 17 20  1  0  0  0  0
 18 15  2  0  0  0  0
 19 18  1  0  0  0  0
 20 16  2  0  0  0  0
 21 22  1  0  0  0  0
 24 26  1  0  0  0  0
 24 28  1  1  0  0  0
 25 24  1  0  0  0  0
 25 26  1  0  0  0  0
 26 23  1  1  0  0  0
 27 31  1  0  0  0  0
 29 28  1  0  0  0  0
 29 27  1  0  0  0  0
 30 29  2  0  0  0  0
 31 33  1  0  0  0  0
 31 35  1  0  0  0  0
 33 34  1  0  0  0  0
 34 36  1  0  0  0  0
 35 37  1  1  0  0  0
 35 32  1  0  0  0  0
 36 32  1  0  0  0  0
 38 37  1  0  0  0  0
 38 43  1  0  0  0  0
 39 41  1  0  0  0  0
 40 42  1  0  0  0  0
 40 39  1  0  0  0  0
 41 43  1  0  0  0  0
 42 38  1  0  0  0  0
M  END
>  <MODEL>
7

>  <REMARK>
 VINA RESULT:      -7.9      1.866      8.633
  Name = 
  10 active torsions:
  status: ('A' for Active; 'I' for Inactive)
    1  A    between atoms: C_1  and  C_34
    2  A    between atoms: C_1  and  C_35
    3  A    between atoms: C_2  and  N_6
    4  A    between atoms: N_3  and  N_4
    5  A    between atoms: C_8  and  C_34
    6  A    between atoms: N_11  and  C_14
    7  A    between atoms: C_13  and  N_27
    8  A    between atoms: C_14  and  C_41
    9  A    between atoms: C_19  and  C_25
   10  A    between atoms: N_27  and  C_30
                            x       y       z     vdW  Elec       q    Type
                         _______ _______ _______ _____ _____    ______ ____

>  <TORSDO>
F 10

$$$$
=
 OpenBabel11052421183D

 43 48  0  0  1  0  0  0  0  0999 V2000
  188.0770  176.4180  146.6010 C   0  0  0  0  0  0  0  0  0  0  0  0
  193.0110  176.1170  145.1820 C   0  0  1  0  0  3  0  0  0  0  0  0
  190.1500  176.7140  145.3830 C   0  0  0  0  0  0  0  0  0  0  0  0
  188.5630  175.2220  147.1390 C   0  0  0  0  0  3  0  0  0  0  0  0
  186.8430  176.8580  146.9360 F   0  0  0  0  0  0  0  0  0  0  0  0
  190.6370  175.5070  145.9160 C   0  0  0  0  0  0  0  0  0  0  0  0
  188.8720  177.1660  145.7220 C   0  0  0  0  0  3  0  0  0  0  0  0
  189.8370  174.7640  146.7920 C   0  0  0  0  0  3  0  0  0  0  0  0
  191.9930  174.9890  145.5230 C   0  0  1  0  0  3  0  0  0  0  0  0
  192.4310  177.5360  145.0290 C   0  0  0  0  0  2  0  0  0  0  0  0
  191.0120  177.5120  144.4650 C   0  0  0  0  0  2  0  0  0  0  0  0
  194.2600  176.1130  146.0750 C   0  0  2  0  0  3  0  0  0  0  0  0
  194.8580  177.3740  146.1300 O   0  0  0  0  0  1  0  0  0  0  0  0
  195.2910  175.0160  145.7700 C   0  0  0  0  0  2  0  0  0  0  0  0
  197.8220  174.6770  142.9670 C   0  0  0  0  0  3  0  0  0  0  0  0
  197.2020  175.4330  141.9700 C   0  0  0  0  0  0  0  0  0  0  0  0
  195.3920  175.8910  143.4640 N   0  0  0  0  0  0  0  0  0  0  0  0
  197.2090  174.5340  144.2130 C   0  0  0  0  0  3  0  0  0  0  0  0
  195.9840  175.1660  144.4530 C   0  0  0  0  0  0  0  0  0  0  0  0
  195.9700  176.0370  142.2400 C   0  0  0  0  0  3  0  0  0  0  0  0
  197.8610  175.6210  140.6510 C   0  0  0  0  0  2  0  0  0  0  0  0
  197.1960  174.7460  139.6050 C   0  0  0  0  0  1  0  0  0  0  0  0
  191.8490  174.0910  144.3820 N   0  0  0  0  0  2  0  0  0  0  0  0
  192.1310  171.7060  143.7020 C   0  0  1  0  0  3  0  0  0  0  0  0
  193.4800  172.3800  143.8330 C   0  0  0  0  0  2  0  0  0  0  0  0
  192.3590  172.7800  144.7710 C   0  0  1  0  0  3  0  0  0  0  0  0
  189.9880  171.9370  140.5420 N   0  0  0  0  0  2  0  0  0  0  0  0
  191.4440  172.2220  142.5250 N   0  0  0  0  0  2  0  0  0  0  0  0
  190.6150  171.3950  141.7040 C   0  0  0  0  0  0  0  0  0  0  0  0
  190.4350  170.1830  141.9970 O   0  0  0  0  0  0  0  0  0  0  0  0
  190.1360  173.2880  140.1880 N   0  0  0  0  0  0  0  0  0  0  0  0
  188.3160  174.6770  139.3050 N   0  0  0  0  0  2  0  0  0  0  0  0
  190.5160  173.3320  138.7680 C   0  0  0  0  0  2  0  0  0  0  0  0
  189.3480  172.9860  137.8390 C   0  0  0  0  0  2  0  0  0  0  0  0
  188.8560  173.9740  140.4700 C   0  0  2  0  0  3  0  0  0  0  0  0
  188.0560  173.6800  138.2720 C   0  0  0  0  0  2  0  0  0  0  0  0
  189.0070  174.9390  141.6410 C   0  0  0  0  0  2  0  0  0  0  0  0
  187.9270  175.9150  141.6480 N   0  0  0  0  0  0  0  0  0  0  0  0
  186.5170  178.0260  143.0390 C   0  0  0  0  0  2  0  0  0  0  0  0
  187.4790  178.3140  141.8930 C   0  0  0  0  0  2  0  0  0  0  0  0
  185.9480  176.6170  142.9150 C   0  0  0  0  0  2  0  0  0  0  0  0
  188.5480  177.2250  141.8450 C   0  0  0  0  0  2  0  0  0  0  0  0
  187.0960  175.6140  142.8160 C   0  0  0  0  0  2  0  0  0  0  0  0
  1  5  1  0  0  0  0
  1  4  1  0  0  0  0
  2  9  1  0  0  0  0
  2 12  1  1  0  0  0
  3  7  1  0  0  0  0
  3  6  2  0  0  0  0
  6  8  1  0  0  0  0
  7  1  2  0  0  0  0
  8  4  2  0  0  0  0
  9 23  1  6  0  0  0
  9  6  1  0  0  0  0
 10  2  1  0  0  0  0
 11 10  1  0  0  0  0
 11  3  1  0  0  0  0
 12 13  1  6  0  0  0
 14 12  1  0  0  0  0
 15 18  1  0  0  0  0
 16 20  1  0  0  0  0
 16 15  2  0  0  0  0
 17 19  1  0  0  0  0
 18 19  2  0  0  0  0
 19 14  1  0  0  0  0
 20 17  2  0  0  0  0
 21 16  1  0  0  0  0
 22 21  1  0  0  0  0
 24 28  1  6  0  0  0
 24 25  1  0  0  0  0
 24 26  1  0  0  0  0
 25 26  1  0  0  0  0
 26 23  1  6  0  0  0
 27 29  1  0  0  0  0
 29 30  2  0  0  0  0
 29 28  1  0  0  0  0
 31 35  1  0  0  0  0
 31 27  1  0  0  0  0
 32 35  1  0  0  0  0
 33 31  1  0  0  0  0
 34 36  1  0  0  0  0
 34 33  1  0  0  0  0
 35 37  1  1  0  0  0
 36 32  1  0  0  0  0
 37 38  1  0  0  0  0
 38 42  1  0  0  0  0
 38 43  1  0  0  0  0
 40 39  1  0  0  0  0
 41 39  1  0  0  0  0
 42 40  1  0  0  0  0
 43 41  1  0  0  0  0
M  END
>  <MODEL>
8

>  <REMARK>
 VINA RESULT:      -7.8      2.568      4.319
  Name = 
  10 active torsions:
  status: ('A' for Active; 'I' for Inactive)
    1  A    between atoms: C_1  and  C_34
    2  A    between atoms: C_1  and  C_35
    3  A    between atoms: C_2  and  N_6
    4  A    between atoms: N_3  and  N_4
    5  A    between atoms: C_8  and  C_34
    6  A    between atoms: N_11  and  C_14
    7  A    between atoms: C_13  and  N_27
    8  A    between atoms: C_14  and  C_41
    9  A    between atoms: C_19  and  C_25
   10  A    between atoms: N_27  and  C_30
                            x       y       z     vdW  Elec       q    Type
                         _______ _______ _______ _____ _____    ______ ____

>  <TORSDO>
F 10

$$$$
=
 OpenBabel11052421183D

 43 48  0  0  1  0  0  0  0  0999 V2000
  188.5210  174.6380  141.4590 C   0  0  0  0  0  0  0  0  0  0  0  0
  190.8060  176.8420  145.5040 C   0  0  1  0  0  3  0  0  0  0  0  0
  189.8280  176.1460  142.8320 C   0  0  0  0  0  0  0  0  0  0  0  0
  188.6920  173.6250  142.4060 C   0  0  0  0  0  3  0  0  0  0  0  0
  187.8000  174.4020  140.3390 F   0  0  0  0  0  0  0  0  0  0  0  0
  190.0080  175.1250  143.7830 C   0  0  0  0  0  0  0  0  0  0  0  0
  189.0890  175.9020  141.6710 C   0  0  0  0  0  3  0  0  0  0  0  0
  189.4390  173.8660  143.5630 C   0  0  0  0  0  3  0  0  0  0  0  0
  190.8380  175.3650  145.0130 C   0  0  1  0  0  3  0  0  0  0  0  0
  190.1810  177.8670  144.5400 C   0  0  0  0  0  2  0  0  0  0  0  0
  190.4190  177.4920  143.0790 C   0  0  0  0  0  2  0  0  0  0  0  0
  190.2630  177.0080  146.9310 C   0  0  2  0  0  3  0  0  0  0  0  0
  191.2590  176.8060  147.8880 O   0  0  0  0  0  1  0  0  0  0  0  0
  188.9990  176.1980  147.2570 C   0  0  0  0  0  2  0  0  0  0  0  0
  185.8410  177.0260  145.3300 C   0  0  0  0  0  3  0  0  0  0  0  0
  185.3190  178.0510  146.1220 C   0  0  0  0  0  0  0  0  0  0  0  0
  187.1890  177.8410  147.5980 N   0  0  0  0  0  0  0  0  0  0  0  0
  187.0430  176.4140  145.6890 C   0  0  0  0  0  3  0  0  0  0  0  0
  187.7200  176.8470  146.8340 C   0  0  0  0  0  0  0  0  0  0  0  0
  186.0140  178.4460  147.2690 C   0  0  0  0  0  3  0  0  0  0  0  0
  184.0570  178.7330  145.7320 C   0  0  0  0  0  2  0  0  0  0  0  0
  184.0670  179.0420  144.2470 C   0  0  0  0  0  1  0  0  0  0  0  0
  192.2150  174.9610  144.7470 N   0  0  0  0  0  2  0  0  0  0  0  0
  194.5660  175.7890  144.8670 C   0  0  1  0  0  3  0  0  0  0  0  0
  193.8590  176.3850  143.6690 C   0  0  0  0  0  2  0  0  0  0  0  0
  193.0730  176.1260  144.9390 C   0  0  1  0  0  3  0  0  0  0  0  0
  195.9650  172.2390  145.1330 N   0  0  0  0  0  2  0  0  0  0  0  0
  194.8120  174.3730  144.6310 N   0  0  0  0  0  2  0  0  0  0  0  0
  195.7320  173.6170  145.4230 C   0  0  0  0  0  0  0  0  0  0  0  0
  196.3460  174.1610  146.3790 O   0  0  0  0  0  0  0  0  0  0  0  0
  195.2850  171.5800  144.0950 N   0  0  0  0  0  0  0  0  0  0  0  0
  194.1150  169.4410  144.3700 N   0  0  0  0  0  2  0  0  0  0  0  0
  196.2470  170.6790  143.4420 C   0  0  0  0  0  2  0  0  0  0  0  0
  196.5780  169.4550  144.3020 C   0  0  0  0  0  2  0  0  0  0  0  0
  194.1310  170.8700  144.6880 C   0  0  2  0  0  3  0  0  0  0  0  0
  195.3240  168.8510  144.9350 C   0  0  0  0  0  2  0  0  0  0  0  0
  192.8190  171.5180  144.2570 C   0  0  0  0  0  2  0  0  0  0  0  0
  192.5580  171.2660  142.8470 N   0  0  0  0  0  0  0  0  0  0  0  0
  190.9210  171.7630  140.5130 C   0  0  0  0  0  2  0  0  0  0  0  0
  192.2940  172.3990  140.6880 C   0  0  0  0  0  2  0  0  0  0  0  0
  190.8310  170.4630  141.3030 C   0  0  0  0  0  2  0  0  0  0  0  0
  192.5880  172.5660  142.1770 C   0  0  0  0  0  2  0  0  0  0  0  0
  191.1980  170.7300  142.7610 C   0  0  0  0  0  2  0  0  0  0  0  0
  1  7  2  0  0  0  0
  1  4  1  0  0  0  0
  2 12  1  1  0  0  0
  3 11  1  0  0  0  0
  3  6  2  0  0  0  0
  4  8  2  0  0  0  0
  5  1  1  0  0  0  0
  6  9  1  0  0  0  0
  7  3  1  0  0  0  0
  8  6  1  0  0  0  0
  9 23  1  6  0  0  0
  9  2  1  0  0  0  0
 10  2  1  0  0  0  0
 11 10  1  0  0  0  0
 12 14  1  0  0  0  0
 12 13  1  1  0  0  0
 15 18  2  0  0  0  0
 15 16  1  0  0  0  0
 16 20  2  0  0  0  0
 18 19  1  0  0  0  0
 19 14  1  0  0  0  0
 19 17  2  0  0  0  0
 20 17  1  0  0  0  0
 21 16  1  0  0  0  0
 22 21  1  0  0  0  0
 24 28  1  6  0  0  0
 24 26  1  0  0  0  0
 25 24  1  0  0  0  0
 25 26  1  0  0  0  0
 26 23  1  6  0  0  0
 27 29  1  0  0  0  0
 28 29  1  0  0  0  0
 29 30  2  0  0  0  0
 31 35  1  0  0  0  0
 31 27  1  0  0  0  0
 32 35  1  0  0  0  0
 32 36  1  0  0  0  0
 33 31  1  0  0  0  0
 33 34  1  0  0  0  0
 34 36  1  0  0  0  0
 35 37  1  6  0  0  0
 38 37  1  0  0  0  0
 39 40  1  0  0  0  0
 39 41  1  0  0  0  0
 40 42  1  0  0  0  0
 41 43  1  0  0  0  0
 42 38  1  0  0  0  0
 43 38  1  0  0  0  0
M  END
>  <MODEL>
9

>  <REMARK>
 VINA RESULT:      -7.8      2.868      8.886
  Name = 
  10 active torsions:
  status: ('A' for Active; 'I' for Inactive)
    1  A    between atoms: C_1  and  C_34
    2  A    between atoms: C_1  and  C_35
    3  A    between atoms: C_2  and  N_6
    4  A    between atoms: N_3  and  N_4
    5  A    between atoms: C_8  and  C_34
    6  A    between atoms: N_11  and  C_14
    7  A    between atoms: C_13  and  N_27
    8  A    between atoms: C_14  and  C_41
    9  A    between atoms: C_19  and  C_25
   10  A    between atoms: N_27  and  C_30
                            x       y       z     vdW  Elec       q    Type
                         _______ _______ _______ _____ _____    ______ ____

>  <TORSDO>
F 10

$$$$
