=
 OpenBabel11052419253D

 55 61  0  0  1  0  0  0  0  0999 V2000
  191.7250  176.7200  142.5940 C   0  0  0  0  0  3  0  0  0  0  0  0
  190.8750  172.5660  140.6690 C   0  0  0  0  0  2  0  0  0  0  0  0
  188.4170  174.0720  139.3220 C   0  0  0  0  0  1  0  0  0  0  0  0
  192.8380  170.6320  139.3680 C   0  0  0  0  0  2  0  0  0  0  0  0
  192.6800  169.2280  141.3510 C   0  0  0  0  0  2  0  0  0  0  0  0
  186.4390  177.3080  140.3180 C   0  0  0  0  0  3  0  0  0  0  0  0
  185.1630  177.8820  140.3820 C   0  0  0  0  0  3  0  0  0  0  0  0
  186.5850  177.3720  142.7430 C   0  0  0  0  0  0  0  0  0  0  0  0
  185.3050  177.9360  142.8020 C   0  0  0  0  0  3  0  0  0  0  0  0
  188.2190  174.9610  141.5310 O   0  0  0  0  0  0  0  0  0  0  0  0
  192.9520  169.1850  139.0560 C   0  0  0  0  0  0  0  0  0  0  0  0
  192.8710  168.4220  140.1190 C   0  0  0  0  0  3  0  0  0  0  0  0
  184.5950  178.1940  141.6210 C   0  0  0  0  0  3  0  0  0  0  0  0
  195.4580  176.0310  142.4390 C   0  0  0  0  0  2  0  0  0  0  0  0
  187.1540  177.0610  141.4950 C   0  0  0  0  0  0  0  0  0  0  0  0
  194.3250  173.8410  142.0550 C   0  0  1  0  0  3  0  0  0  0  0  0
  190.6000  176.0790  142.6500 N   0  0  0  0  0  0  0  0  0  0  0  0
  193.0150  174.4900  142.5550 C   0  0  0  0  0  2  0  0  0  0  0  0
  188.5790  176.7710  143.9560 C   0  0  0  0  0  0  0  0  0  0  0  0
  191.1820  171.1790  141.2090 C   0  0  0  0  0  2  0  0  0  0  0  0
  187.3170  177.1070  143.9500 N   0  0  0  0  0  0  0  0  0  0  0  0
  189.5620  173.0320  141.2650 C   0  0  0  0  0  2  0  0  0  0  0  0
  189.1140  174.3470  140.6480 C   0  0  1  0  0  3  0  0  0  0  0  0
  194.1290  176.7110  142.5070 C   0  0  0  0  0  3  0  0  0  0  0  0
  192.5900  170.6780  140.8810 C   0  0  2  0  0  0  0  0  0  0  0  0
  193.0000  176.0030  142.5700 C   0  0  0  0  0  0  0  0  0  0  0  0
  188.4670  176.3420  141.4530 C   0  0  1  0  0  3  0  0  0  0  0  0
  189.3420  176.8070  142.6320 C   0  0  2  0  0  3  0  0  0  0  0  0
  193.6580  171.4780  141.6340 C   0  0  0  0  0  2  0  0  0  0  0  0
  193.9920  172.8180  140.9870 C   0  0  0  0  0  2  0  0  0  0  0  0
  195.3460  174.8380  141.5040 C   0  0  0  0  0  2  0  0  0  0  0  0
  190.0680  177.5540  145.8040 C   0  0  0  0  0  3  0  0  0  0  0  0
  190.4750  176.2550  147.7590 C   0  0  0  0  0  0  0  0  0  0  0  0
  189.0260  175.4010  146.0270 C   0  0  0  0  0  3  0  0  0  0  0  0
  189.6420  175.2410  147.2670 C   0  0  0  0  0  3  0  0  0  0  0  0
  190.6620  177.3800  147.0160 N   0  0  0  0  0  0  0  0  0  0  0  0
  189.2400  176.5580  145.2680 C   0  0  0  0  0  0  0  0  0  0  0  0
  191.1360  176.1480  148.9940 O   0  0  0  0  0  0  0  0  0  0  0  0
  191.3380  178.0730  150.3030 O   0  0  0  0  0  0  0  0  0  0  0  0
  191.8810  177.1570  149.6230 C   0  0  0  0  0  3  0  0  0  0  0  0
  193.1510  168.6420  137.7790 O   0  0  0  0  0  0  0  0  0  0  0  0
  193.0340  169.3620  136.5480 C   0  0  1  0  0  3  0  0  0  0  0  0
  195.5960  171.3530  134.5540 O   0  0  0  0  0  1  0  0  0  0  0  0
  195.4670  170.2750  136.7060 C   0  0  0  0  0  2  0  0  0  0  0  0
  194.3930  169.5930  135.8590 C   0  0  2  0  0  0  0  0  0  0  0  0
  194.7490  171.0620  135.6270 C   0  0  2  0  0  0  0  0  0  0  0  0
  194.8900  168.6370  134.7680 C   0  0  0  0  0  2  0  0  0  0  0  0
  196.3120  168.1660  135.0240 C   0  0  0  0  0  1  0  0  0  0  0  0
  193.8940  172.1980  136.1980 C   0  0  1  0  0  3  0  0  0  0  0  0
  194.6860  173.0810  136.9410 O   0  0  0  0  0  1  0  0  0  0  0  0
  193.1450  172.9490  135.1030 C   0  0  0  0  0  2  0  0  0  0  0  0
  192.4190  174.0180  135.6340 O   0  0  0  0  0  1  0  0  0  0  0  0
  191.9360  168.8230  135.6250 C   0  0  0  0  0  3  0  0  0  0  0  0
  190.9620  168.1660  136.3780 O   0  0  0  0  0  1  0  0  0  0  0  0
  191.3390  169.8770  134.9290 O   0  0  0  0  0  1  0  0  0  0  0  0
  1 17  2  0  0  0  0
  2 20  1  0  0  0  0
  2 22  1  0  0  0  0
  6  7  2  0  0  0  0
  6 15  1  0  0  0  0
  7 13  1  0  0  0  0
  8  9  1  0  0  0  0
  8 21  1  0  0  0  0
 11  4  1  0  0  0  0
 11 12  2  0  0  0  0
 12  5  1  0  0  0  0
 13  9  2  0  0  0  0
 14 24  1  0  0  0  0
 15  8  2  0  0  0  0
 16 30  1  6  0  0  0
 16 18  1  0  0  0  0
 18 26  1  0  0  0  0
 19 37  1  0  0  0  0
 21 19  2  0  0  0  0
 23  3  1  6  0  0  0
 23 22  1  0  0  0  0
 23 10  1  0  0  0  0
 24 26  2  0  0  0  0
 25  4  1  6  0  0  0
 25 20  1  0  0  0  0
 25  5  1  0  0  0  0
 25 29  1  0  0  0  0
 26  1  1  0  0  0  0
 27 15  1  1  0  0  0
 27 10  1  0  0  0  0
 27 28  1  0  0  0  0
 28 17  1  1  0  0  0
 28 19  1  0  0  0  0
 30 29  1  0  0  0  0
 31 16  1  0  0  0  0
 31 14  1  0  0  0  0
 32 36  1  0  0  0  0
 33 38  1  0  0  0  0
 34 35  2  0  0  0  0
 35 33  1  0  0  0  0
 36 33  2  0  0  0  0
 37 32  2  0  0  0  0
 37 34  1  0  0  0  0
 38 40  1  0  0  0  0
 40 39  2  0  0  0  0
 41 11  1  0  0  0  0
 42 53  1  6  0  0  0
 42 41  1  0  0  0  0
 45 47  1  6  0  0  0
 45 42  1  0  0  0  0
 45 44  1  0  0  0  0
 46 43  1  6  0  0  0
 46 45  1  0  0  0  0
 46 49  1  0  0  0  0
 46 44  1  0  0  0  0
 47 48  1  0  0  0  0
 49 50  1  6  0  0  0
 51 52  1  0  0  0  0
 51 49  1  0  0  0  0
 53 54  1  0  0  0  0
 55 53  1  0  0  0  0
M  END
>  <MODEL>
1

>  <REMARK>
 VINA RESULT:      -5.4      0.000      0.000
  Name = 
  10 active torsions:
  status: ('A' for Active; 'I' for Inactive)
    1  A    between atoms: C_1  and  C_53
    2  A    between atoms: C_6  and  C_14
    3  A    between atoms: O_10  and  C_32
    4  A    between atoms: O_10  and  C_47
    5  A    between atoms: C_11  and  C_29
    6  A    between atoms: C_14  and  C_53
    7  A    between atoms: C_20  and  O_42
    8  A    between atoms: C_29  and  C_38
    9  A    between atoms: C_33  and  C_52
   10  A    between atoms: O_42  and  C_53
                            x       y       z     vdW  Elec       q    Type
                         _______ _______ _______ _____ _____    ______ ____

>  <TORSDO>
F 10

$$$$
=
 OpenBabel11052419253D

 55 61  0  0  1  0  0  0  0  0999 V2000
  192.2370  177.2790  144.4530 C   0  0  0  0  0  3  0  0  0  0  0  0
  191.0910  172.9620  143.1370 C   0  0  0  0  0  2  0  0  0  0  0  0
  188.5620  174.3920  141.8430 C   0  0  0  0  0  1  0  0  0  0  0  0
  192.8680  170.8100  141.9120 C   0  0  0  0  0  2  0  0  0  0  0  0
  192.8580  169.6600  144.0580 C   0  0  0  0  0  2  0  0  0  0  0  0
  186.7790  177.7990  142.6090 C   0  0  0  0  0  3  0  0  0  0  0  0
  185.5320  178.4270  142.7170 C   0  0  0  0  0  3  0  0  0  0  0  0
  187.1550  178.1480  144.9840 C   0  0  0  0  0  0  0  0  0  0  0  0
  185.9030  178.7640  145.0890 C   0  0  0  0  0  3  0  0  0  0  0  0
  188.5980  175.5460  143.9350 O   0  0  0  0  0  0  0  0  0  0  0  0
  192.9110  169.3330  141.7710 C   0  0  0  0  0  0  0  0  0  0  0  0
  192.9090  168.7050  142.9230 C   0  0  0  0  0  3  0  0  0  0  0  0
  185.0930  178.9070  143.9550 C   0  0  0  0  0  3  0  0  0  0  0  0
  195.9180  176.4290  144.0470 C   0  0  0  0  0  2  0  0  0  0  0  0
  187.5950  177.6670  143.7380 C   0  0  0  0  0  0  0  0  0  0  0  0
  194.6930  174.2550  144.0390 C   0  0  1  0  0  3  0  0  0  0  0  0
  191.1050  176.6940  144.6890 N   0  0  0  0  0  0  0  0  0  0  0  0
  193.4540  175.0120  144.5720 C   0  0  0  0  0  2  0  0  0  0  0  0
  189.2370  177.6170  146.0770 C   0  0  0  0  0  0  0  0  0  0  0  0
  191.4090  171.6380  143.8140 C   0  0  0  0  0  2  0  0  0  0  0  0
  187.9900  178.0000  146.1440 N   0  0  0  0  0  0  0  0  0  0  0  0
  189.8550  173.5470  143.7880 C   0  0  0  0  0  2  0  0  0  0  0  0
  189.3880  174.7960  143.0570 C   0  0  1  0  0  3  0  0  0  0  0  0
  194.6210  177.1640  144.1500 C   0  0  0  0  0  3  0  0  0  0  0  0
  192.7650  171.0460  143.4240 C   0  0  2  0  0  0  0  0  0  0  0  0
  193.4830  176.5150  144.4020 C   0  0  0  0  0  0  0  0  0  0  0  0
  188.8770  176.8960  143.6660 C   0  0  1  0  0  3  0  0  0  0  0  0
  189.8720  177.4650  144.6950 C   0  0  2  0  0  3  0  0  0  0  0  0
  193.9210  171.8870  143.9740 C   0  0  0  0  0  2  0  0  0  0  0  0
  194.2310  173.1270  143.1400 C   0  0  0  0  0  2  0  0  0  0  0  0
  195.6840  175.1390  143.2800 C   0  0  0  0  0  2  0  0  0  0  0  0
  189.9710  178.5990  148.2550 C   0  0  0  0  0  3  0  0  0  0  0  0
  191.4020  177.4380  149.7660 C   0  0  0  0  0  0  0  0  0  0  0  0
  190.7590  176.4020  147.6820 C   0  0  0  0  0  3  0  0  0  0  0  0
  191.4570  176.3480  148.8860 C   0  0  0  0  0  3  0  0  0  0  0  0
  190.6600  178.5280  149.4270 N   0  0  0  0  0  0  0  0  0  0  0  0
  190.0120  177.5370  147.3410 C   0  0  0  0  0  0  0  0  0  0  0  0
  192.0940  177.4500  150.9880 O   0  0  0  0  0  0  0  0  0  0  0  0
  191.4220  177.3600  153.2240 O   0  0  0  0  0  0  0  0  0  0  0  0
  191.7250  176.7620  152.1530 C   0  0  0  0  0  3  0  0  0  0  0  0
  192.9730  168.6330  140.5570 O   0  0  0  0  0  0  0  0  0  0  0  0
  192.3840  169.0620  139.3260 C   0  0  1  0  0  3  0  0  0  0  0  0
  193.8470  171.0250  136.4070 O   0  0  0  0  0  1  0  0  0  0  0  0
  194.5210  170.3760  138.6300 C   0  0  0  0  0  2  0  0  0  0  0  0
  193.4320  169.3760  138.2410 C   0  0  2  0  0  0  0  0  0  0  0  0
  193.3940  170.8110  137.7140 C   0  0  2  0  0  0  0  0  0  0  0  0
  193.8160  168.3230  137.1940 C   0  0  0  0  0  2  0  0  0  0  0  0
  195.3230  168.1660  137.0660 C   0  0  0  0  0  1  0  0  0  0  0  0
  192.4990  171.8790  138.3490 C   0  0  1  0  0  3  0  0  0  0  0  0
  193.2730  172.8340  139.0180 O   0  0  0  0  0  1  0  0  0  0  0  0
  191.6010  172.5530  137.3170 C   0  0  0  0  0  2  0  0  0  0  0  0
  191.9160  173.9080  137.1850 O   0  0  0  0  0  1  0  0  0  0  0  0
  191.2290  168.1720  138.8560 C   0  0  0  0  0  3  0  0  0  0  0  0
  190.2140  168.1660  139.8140 O   0  0  0  0  0  1  0  0  0  0  0  0
  190.7140  168.6580  137.6510 O   0  0  0  0  0  1  0  0  0  0  0  0
  1 17  2  0  0  0  0
  2 22  1  0  0  0  0
  2 20  1  0  0  0  0
  6  7  2  0  0  0  0
  6 15  1  0  0  0  0
  7 13  1  0  0  0  0
  8  9  1  0  0  0  0
  8 21  1  0  0  0  0
 11  4  1  0  0  0  0
 11 12  2  0  0  0  0
 12  5  1  0  0  0  0
 13  9  2  0  0  0  0
 14 24  1  0  0  0  0
 15  8  2  0  0  0  0
 16 30  1  6  0  0  0
 16 18  1  0  0  0  0
 19 21  2  0  0  0  0
 19 37  1  0  0  0  0
 23  3  1  6  0  0  0
 23 22  1  0  0  0  0
 23 10  1  0  0  0  0
 24 26  2  0  0  0  0
 25  4  1  6  0  0  0
 25 20  1  0  0  0  0
 25 29  1  0  0  0  0
 25  5  1  0  0  0  0
 26  1  1  0  0  0  0
 26 18  1  0  0  0  0
 27 15  1  1  0  0  0
 27 10  1  0  0  0  0
 27 28  1  0  0  0  0
 28 17  1  1  0  0  0
 28 19  1  0  0  0  0
 30 29  1  0  0  0  0
 31 16  1  0  0  0  0
 31 14  1  0  0  0  0
 32 36  1  0  0  0  0
 33 38  1  0  0  0  0
 34 35  2  0  0  0  0
 35 33  1  0  0  0  0
 36 33  2  0  0  0  0
 37 34  1  0  0  0  0
 37 32  2  0  0  0  0
 38 40  1  0  0  0  0
 40 39  2  0  0  0  0
 41 11  1  0  0  0  0
 42 53  1  6  0  0  0
 42 41  1  0  0  0  0
 45 47  1  6  0  0  0
 45 44  1  0  0  0  0
 45 42  1  0  0  0  0
 46 43  1  6  0  0  0
 46 45  1  0  0  0  0
 46 49  1  0  0  0  0
 46 44  1  0  0  0  0
 48 47  1  0  0  0  0
 49 50  1  6  0  0  0
 51 49  1  0  0  0  0
 52 51  1  0  0  0  0
 53 54  1  0  0  0  0
 55 53  1  0  0  0  0
M  END
>  <MODEL>
2

>  <REMARK>
 VINA RESULT:      -5.2      1.938      2.504
  Name = 
  10 active torsions:
  status: ('A' for Active; 'I' for Inactive)
    1  A    between atoms: C_1  and  C_53
    2  A    between atoms: C_6  and  C_14
    3  A    between atoms: O_10  and  C_32
    4  A    between atoms: O_10  and  C_47
    5  A    between atoms: C_11  and  C_29
    6  A    between atoms: C_14  and  C_53
    7  A    between atoms: C_20  and  O_42
    8  A    between atoms: C_29  and  C_38
    9  A    between atoms: C_33  and  C_52
   10  A    between atoms: O_42  and  C_53
                            x       y       z     vdW  Elec       q    Type
                         _______ _______ _______ _____ _____    ______ ____

>  <TORSDO>
F 10

$$$$
=
 OpenBabel11052419253D

 55 61  0  0  1  0  0  0  0  0999 V2000
  195.1250  172.7590  140.6470 C   0  0  0  0  0  3  0  0  0  0  0  0
  191.1500  174.5440  142.2900 C   0  0  0  0  0  2  0  0  0  0  0  0
  189.9250  171.7420  141.4110 C   0  0  0  0  0  1  0  0  0  0  0  0
  190.6770  176.0740  144.8820 C   0  0  0  0  0  2  0  0  0  0  0  0
  190.5170  178.1230  143.5770 C   0  0  0  0  0  2  0  0  0  0  0  0
  191.0800  169.0630  138.7920 C   0  0  0  0  0  3  0  0  0  0  0  0
  190.6330  168.1690  137.8110 C   0  0  0  0  0  3  0  0  0  0  0  0
  192.2290  170.3550  137.0850 C   0  0  0  0  0  0  0  0  0  0  0  0
  191.7690  169.4660  136.1060 C   0  0  0  0  0  3  0  0  0  0  0  0
  191.2760  172.1650  139.4860 O   0  0  0  0  0  0  0  0  0  0  0  0
  189.7110  177.0440  145.4550 C   0  0  0  0  0  0  0  0  0  0  0  0
  189.6210  178.1530  144.7600 C   0  0  0  0  0  3  0  0  0  0  0  0
  190.9730  168.3710  136.4700 C   0  0  0  0  0  3  0  0  0  0  0  0
  197.0740  174.6420  143.3110 C   0  0  0  0  0  2  0  0  0  0  0  0
  191.8860  170.1490  138.4320 C   0  0  0  0  0  0  0  0  0  0  0  0
  194.7930  175.6530  143.2660 C   0  0  1  0  0  3  0  0  0  0  0  0
  194.0080  172.8370  139.9960 N   0  0  0  0  0  0  0  0  0  0  0  0
  194.5520  174.9200  141.9270 C   0  0  0  0  0  2  0  0  0  0  0  0
  193.6630  172.2240  137.5930 C   0  0  0  0  0  0  0  0  0  0  0  0
  190.7040  175.9960  142.3480 C   0  0  0  0  0  2  0  0  0  0  0  0
  193.0450  171.4780  136.7170 N   0  0  0  0  0  0  0  0  0  0  0  0
  190.8310  174.0000  140.9120 C   0  0  0  0  0  2  0  0  0  0  0  0
  191.1090  172.5070  140.8330 C   0  0  1  0  0  3  0  0  0  0  0  0
  196.6590  173.6500  142.2720 C   0  0  0  0  0  3  0  0  0  0  0  0
  191.1750  176.7450  143.5960 C   0  0  2  0  0  0  0  0  0  0  0  0
  195.5000  173.7810  141.6250 C   0  0  0  0  0  0  0  0  0  0  0  0
  192.2750  171.1780  139.4490 C   0  0  1  0  0  3  0  0  0  0  0  0
  193.6340  171.7900  139.0590 C   0  0  2  0  0  3  0  0  0  0  0  0
  192.6920  176.9540  143.5830 C   0  0  0  0  0  2  0  0  0  0  0  0
  193.4860  175.7290  144.0290 C   0  0  0  0  0  2  0  0  0  0  0  0
  195.8600  175.0030  144.1500 C   0  0  0  0  0  2  0  0  0  0  0  0
  194.0020  174.6420  137.0580 C   0  0  0  0  0  3  0  0  0  0  0  0
  196.0620  175.4900  136.2130 C   0  0  0  0  0  0  0  0  0  0  0  0
  195.8360  173.1340  136.6880 C   0  0  0  0  0  3  0  0  0  0  0  0
  196.6140  174.2020  136.2450 C   0  0  0  0  0  3  0  0  0  0  0  0
  194.7760  175.6730  136.6210 N   0  0  0  0  0  0  0  0  0  0  0  0
  194.5100  173.3360  137.0920 C   0  0  0  0  0  0  0  0  0  0  0  0
  196.7890  176.6050  135.7630 O   0  0  0  0  0  0  0  0  0  0  0  0
  195.4020  178.1650  134.7120 O   0  0  0  0  0  0  0  0  0  0  0  0
  196.4390  177.4430  134.6940 C   0  0  0  0  0  3  0  0  0  0  0  0
  188.9670  176.8550  146.6290 O   0  0  0  0  0  0  0  0  0  0  0  0
  187.9440  177.7320  147.1080 C   0  0  1  0  0  3  0  0  0  0  0  0
  184.2230  177.7320  146.2930 O   0  0  0  0  0  1  0  0  0  0  0  0
  186.1770  176.4580  145.6830 C   0  0  0  0  0  2  0  0  0  0  0  0
  186.5350  177.1140  147.0160 C   0  0  2  0  0  0  0  0  0  0  0  0
  185.5950  177.8130  146.0340 C   0  0  2  0  0  0  0  0  0  0  0  0
  185.8460  176.5470  148.2630 C   0  0  0  0  0  2  0  0  0  0  0  0
  186.5020  175.2620  148.7440 C   0  0  0  0  0  1  0  0  0  0  0  0
  186.0860  178.9240  145.1000 C   0  0  1  0  0  3  0  0  0  0  0  0
  186.5660  178.3800  143.9020 O   0  0  0  0  0  1  0  0  0  0  0  0
  184.9940  179.9500  144.8160 C   0  0  0  0  0  2  0  0  0  0  0  0
  185.3180  180.7330  143.7060 O   0  0  0  0  0  1  0  0  0  0  0  0
  188.2700  178.3730  148.4610 C   0  0  0  0  0  3  0  0  0  0  0  0
  189.6030  178.7880  148.4810 O   0  0  0  0  0  1  0  0  0  0  0  0
  187.4450  179.4810  148.6750 O   0  0  0  0  0  1  0  0  0  0  0  0
  1 26  1  0  0  0  0
  2 20  1  0  0  0  0
  4 11  1  0  0  0  0
  5 25  1  0  0  0  0
  5 12  1  0  0  0  0
  7  6  2  0  0  0  0
  8 15  2  0  0  0  0
  9 13  2  0  0  0  0
  9  8  1  0  0  0  0
 10 23  1  0  0  0  0
 11 41  1  0  0  0  0
 12 11  2  0  0  0  0
 13  7  1  0  0  0  0
 14 31  1  0  0  0  0
 15  6  1  0  0  0  0
 16 18  1  6  0  0  0
 16 30  1  0  0  0  0
 16 31  1  0  0  0  0
 17  1  2  0  0  0  0
 21  8  1  0  0  0  0
 21 19  2  0  0  0  0
 22  2  1  0  0  0  0
 23 22  1  0  0  0  0
 23  3  1  6  0  0  0
 24 14  1  0  0  0  0
 25 20  1  6  0  0  0
 25  4  1  0  0  0  0
 26 18  1  0  0  0  0
 26 24  2  0  0  0  0
 27 15  1  6  0  0  0
 27 10  1  0  0  0  0
 28 19  1  6  0  0  0
 28 27  1  0  0  0  0
 28 17  1  0  0  0  0
 29 25  1  0  0  0  0
 29 30  1  0  0  0  0
 32 37  2  0  0  0  0
 33 35  1  0  0  0  0
 33 36  2  0  0  0  0
 34 37  1  0  0  0  0
 35 34  2  0  0  0  0
 36 32  1  0  0  0  0
 37 19  1  0  0  0  0
 38 33  1  0  0  0  0
 40 39  2  0  0  0  0
 40 38  1  0  0  0  0
 42 41  1  1  0  0  0
 42 53  1  0  0  0  0
 44 46  1  0  0  0  0
 44 45  1  0  0  0  0
 45 42  1  0  0  0  0
 45 47  1  1  0  0  0
 46 43  1  1  0  0  0
 46 45  1  0  0  0  0
 47 48  1  0  0  0  0
 49 50  1  6  0  0  0
 49 46  1  0  0  0  0
 51 49  1  0  0  0  0
 52 51  1  0  0  0  0
 53 54  1  0  0  0  0
 53 55  1  0  0  0  0
M  END
>  <MODEL>
3

>  <REMARK>
 VINA RESULT:      -4.6      3.356     11.110
  Name = 
  10 active torsions:
  status: ('A' for Active; 'I' for Inactive)
    1  A    between atoms: C_1  and  C_53
    2  A    between atoms: C_6  and  C_14
    3  A    between atoms: O_10  and  C_32
    4  A    between atoms: O_10  and  C_47
    5  A    between atoms: C_11  and  C_29
    6  A    between atoms: C_14  and  C_53
    7  A    between atoms: C_20  and  O_42
    8  A    between atoms: C_29  and  C_38
    9  A    between atoms: C_33  and  C_52
   10  A    between atoms: O_42  and  C_53
                            x       y       z     vdW  Elec       q    Type
                         _______ _______ _______ _____ _____    ______ ____

>  <TORSDO>
F 10

$$$$
=
 OpenBabel11052419253D

 55 61  0  0  1  0  0  0  0  0999 V2000
  192.1850  177.2300  144.3440 C   0  0  0  0  0  3  0  0  0  0  0  0
  190.8820  173.0960  142.6410 C   0  0  0  0  0  2  0  0  0  0  0  0
  188.4030  174.7290  141.4970 C   0  0  0  0  0  1  0  0  0  0  0  0
  192.5770  171.0050  141.2130 C   0  0  0  0  0  2  0  0  0  0  0  0
  192.5310  169.6630  143.2440 C   0  0  0  0  0  2  0  0  0  0  0  0
  186.7450  178.1120  142.5840 C   0  0  0  0  0  3  0  0  0  0  0  0
  185.5220  178.7720  142.7550 C   0  0  0  0  0  3  0  0  0  0  0  0
  187.1380  178.2260  144.9790 C   0  0  0  0  0  0  0  0  0  0  0  0
  185.9090  178.8750  145.1470 C   0  0  0  0  0  3  0  0  0  0  0  0
  188.4850  175.6830  143.6870 O   0  0  0  0  0  0  0  0  0  0  0  0
  192.5670  169.5460  140.9360 C   0  0  0  0  0  0  0  0  0  0  0  0
  192.5450  168.8160  142.0250 C   0  0  0  0  0  3  0  0  0  0  0  0
  185.1020  179.1510  144.0340 C   0  0  0  0  0  3  0  0  0  0  0  0
  195.8320  176.2910  143.8420 C   0  0  0  0  0  2  0  0  0  0  0  0
  187.5580  177.8480  143.6910 C   0  0  0  0  0  0  0  0  0  0  0  0
  194.5290  174.1720  143.6400 C   0  0  1  0  0  3  0  0  0  0  0  0
  191.0330  176.6670  144.5300 N   0  0  0  0  0  0  0  0  0  0  0  0
  193.3200  174.9190  144.2470 C   0  0  0  0  0  2  0  0  0  0  0  0
  189.2020  177.5230  146.0070 C   0  0  0  0  0  0  0  0  0  0  0  0
  191.1530  171.7050  143.1910 C   0  0  0  0  0  2  0  0  0  0  0  0
  187.9690  177.9420  146.1150 N   0  0  0  0  0  0  0  0  0  0  0  0
  189.6680  173.6630  143.3490 C   0  0  0  0  0  2  0  0  0  0  0  0
  189.2460  174.9890  142.7390 C   0  0  1  0  0  3  0  0  0  0  0  0
  194.5620  177.0580  144.0190 C   0  0  0  0  0  3  0  0  0  0  0  0
  192.4870  171.1040  142.7410 C   0  0  2  0  0  0  0  0  0  0  0  0
  193.4020  176.4300  144.2160 C   0  0  0  0  0  0  0  0  0  0  0  0
  188.8110  177.0420  143.5420 C   0  0  1  0  0  3  0  0  0  0  0  0
  189.8280  177.4760  144.6140 C   0  0  2  0  0  3  0  0  0  0  0  0
  193.6730  171.8490  143.3600 C   0  0  0  0  0  2  0  0  0  0  0  0
  194.0260  173.1480  142.6420 C   0  0  0  0  0  2  0  0  0  0  0  0
  195.5510  175.0850  142.9600 C   0  0  0  0  0  2  0  0  0  0  0  0
  190.0960  178.3290  148.1980 C   0  0  0  0  0  3  0  0  0  0  0  0
  191.3720  176.9370  149.6510 C   0  0  0  0  0  0  0  0  0  0  0  0
  190.5620  176.0620  147.5510 C   0  0  0  0  0  3  0  0  0  0  0  0
  191.2630  175.8760  148.7410 C   0  0  0  0  0  3  0  0  0  0  0  0
  190.7840  178.1290  149.3540 N   0  0  0  0  0  0  0  0  0  0  0  0
  189.9760  177.2990  147.2540 C   0  0  0  0  0  0  0  0  0  0  0  0
  192.0760  176.8170  150.8600 O   0  0  0  0  0  0  0  0  0  0  0  0
  191.6060  176.7760  153.1480 O   0  0  0  0  0  0  0  0  0  0  0  0
  191.7400  177.4310  152.0760 C   0  0  0  0  0  3  0  0  0  0  0  0
  192.6020  168.9600  139.6630 O   0  0  0  0  0  0  0  0  0  0  0  0
  192.9430  169.6390  138.4510 C   0  0  1  0  0  3  0  0  0  0  0  0
  190.9040  170.9320  135.5050 O   0  0  0  0  0  1  0  0  0  0  0  0
  190.6090  169.3810  137.3280 C   0  0  0  0  0  2  0  0  0  0  0  0
  191.7300  170.3150  137.7820 C   0  0  2  0  0  0  0  0  0  0  0  0
  191.5500  169.9810  136.3010 C   0  0  2  0  0  0  0  0  0  0  0  0
  191.3170  171.7400  138.1690 C   0  0  0  0  0  2  0  0  0  0  0  0
  190.0320  171.7630  138.9820 C   0  0  0  0  0  1  0  0  0  0  0  0
  192.4110  168.9230  135.6030 C   0  0  1  0  0  3  0  0  0  0  0  0
  191.6340  168.1660  134.7180 O   0  0  0  0  0  1  0  0  0  0  0  0
  193.5930  169.5470  134.8710 C   0  0  0  0  0  2  0  0  0  0  0  0
  193.4790  170.9390  134.8270 O   0  0  0  0  0  1  0  0  0  0  0  0
  194.1810  170.5340  138.5780 C   0  0  0  0  0  3  0  0  0  0  0  0
  195.3240  169.8190  138.2190 O   0  0  0  0  0  1  0  0  0  0  0  0
  194.0540  171.6430  137.7360 O   0  0  0  0  0  1  0  0  0  0  0  0
  1 17  2  0  0  0  0
  2 20  1  0  0  0  0
  2 22  1  0  0  0  0
  6  7  2  0  0  0  0
  6 15  1  0  0  0  0
  7 13  1  0  0  0  0
  8  9  1  0  0  0  0
  8 21  1  0  0  0  0
 11  4  1  0  0  0  0
 11 12  2  0  0  0  0
 12  5  1  0  0  0  0
 13  9  2  0  0  0  0
 14 24  1  0  0  0  0
 15  8  2  0  0  0  0
 16 30  1  6  0  0  0
 16 18  1  0  0  0  0
 19 21  2  0  0  0  0
 19 37  1  0  0  0  0
 23  3  1  6  0  0  0
 23 22  1  0  0  0  0
 23 10  1  0  0  0  0
 24 26  2  0  0  0  0
 25  4  1  6  0  0  0
 25 20  1  0  0  0  0
 25  5  1  0  0  0  0
 25 29  1  0  0  0  0
 26 18  1  0  0  0  0
 26  1  1  0  0  0  0
 27 10  1  1  0  0  0
 27 15  1  0  0  0  0
 27 28  1  0  0  0  0
 28 17  1  1  0  0  0
 28 19  1  0  0  0  0
 30 29  1  0  0  0  0
 31 16  1  0  0  0  0
 31 14  1  0  0  0  0
 32 36  1  0  0  0  0
 33 38  1  0  0  0  0
 34 35  2  0  0  0  0
 35 33  1  0  0  0  0
 36 33  2  0  0  0  0
 37 34  1  0  0  0  0
 37 32  2  0  0  0  0
 38 40  1  0  0  0  0
 40 39  2  0  0  0  0
 41 11  1  0  0  0  0
 42 53  1  1  0  0  0
 42 41  1  0  0  0  0
 44 45  1  0  0  0  0
 45 47  1  1  0  0  0
 45 42  1  0  0  0  0
 46 43  1  6  0  0  0
 46 44  1  0  0  0  0
 46 45  1  0  0  0  0
 47 48  1  0  0  0  0
 49 50  1  6  0  0  0
 49 46  1  0  0  0  0
 51 49  1  0  0  0  0
 52 51  1  0  0  0  0
 54 53  1  0  0  0  0
 55 53  1  0  0  0  0
M  END
>  <MODEL>
4

>  <REMARK>
 VINA RESULT:      -4.2      1.783      3.027
  Name = 
  10 active torsions:
  status: ('A' for Active; 'I' for Inactive)
    1  A    between atoms: C_1  and  C_53
    2  A    between atoms: C_6  and  C_14
    3  A    between atoms: O_10  and  C_32
    4  A    between atoms: O_10  and  C_47
    5  A    between atoms: C_11  and  C_29
    6  A    between atoms: C_14  and  C_53
    7  A    between atoms: C_20  and  O_42
    8  A    between atoms: C_29  and  C_38
    9  A    between atoms: C_33  and  C_52
   10  A    between atoms: O_42  and  C_53
                            x       y       z     vdW  Elec       q    Type
                         _______ _______ _______ _____ _____    ______ ____

>  <TORSDO>
F 10

$$$$
=
 OpenBabel11052419253D

 55 61  0  0  1  0  0  0  0  0999 V2000
  188.8490  174.2070  143.3450 C   0  0  0  0  0  3  0  0  0  0  0  0
  193.1440  174.8410  141.6620 C   0  0  0  0  0  2  0  0  0  0  0  0
  193.9460  175.0730  144.7320 C   0  0  0  0  0  1  0  0  0  0  0  0
  194.5720  173.2990  139.4560 C   0  0  0  0  0  2  0  0  0  0  0  0
  194.2110  175.1970  137.9740 C   0  0  0  0  0  2  0  0  0  0  0  0
  191.8820  175.9930  147.9360 C   0  0  0  0  0  3  0  0  0  0  0  0
  191.9210  176.6940  149.1480 C   0  0  0  0  0  3  0  0  0  0  0  0
  190.1610  177.5040  147.1220 C   0  0  0  0  0  0  0  0  0  0  0  0
  190.2130  178.2090  148.3310 C   0  0  0  0  0  3  0  0  0  0  0  0
  191.9580  176.3970  144.7770 O   0  0  0  0  0  0  0  0  0  0  0  0
  195.6810  173.4890  138.4870 C   0  0  0  0  0  0  0  0  0  0  0  0
  195.4930  174.5070  137.6830 C   0  0  0  0  0  3  0  0  0  0  0  0
  191.0900  177.8020  149.3450 C   0  0  0  0  0  3  0  0  0  0  0  0
  188.0670  171.8500  140.4690 C   0  0  0  0  0  2  0  0  0  0  0  0
  190.9970  176.3900  146.9270 C   0  0  0  0  0  0  0  0  0  0  0  0
  190.1530  173.0640  139.8330 C   0  0  1  0  0  3  0  0  0  0  0  0
  189.6300  175.2010  143.6270 N   0  0  0  0  0  0  0  0  0  0  0  0
  189.8630  174.0560  140.9820 C   0  0  0  0  0  2  0  0  0  0  0  0
  189.0260  177.1930  145.0190 C   0  0  0  0  0  0  0  0  0  0  0  0
  193.5730  175.4560  140.3400 C   0  0  0  0  0  2  0  0  0  0  0  0
  189.2630  177.9170  146.0800 N   0  0  0  0  0  0  0  0  0  0  0  0
  192.9100  175.9600  142.6560 C   0  0  0  0  0  2  0  0  0  0  0  0
  192.6290  175.4110  144.0460 C   0  0  1  0  0  3  0  0  0  0  0  0
  188.0550  172.5550  141.7870 C   0  0  0  0  0  3  0  0  0  0  0  0
  193.6160  174.4650  139.1740 C   0  0  2  0  0  0  0  0  0  0  0  0
  188.8750  173.5790  142.0240 C   0  0  0  0  0  0  0  0  0  0  0  0
  191.0240  175.7260  145.5850 C   0  0  1  0  0  3  0  0  0  0  0  0
  189.6180  175.7850  144.9590 C   0  0  2  0  0  3  0  0  0  0  0  0
  192.2100  174.0000  138.7840 C   0  0  0  0  0  2  0  0  0  0  0  0
  191.6520  172.9030  139.6860 C   0  0  0  0  0  2  0  0  0  0  0  0
  189.5090  171.6880  140.0190 C   0  0  0  0  0  2  0  0  0  0  0  0
  188.4530  177.9520  142.7080 C   0  0  0  0  0  3  0  0  0  0  0  0
  186.2520  178.6210  142.0870 C   0  0  0  0  0  0  0  0  0  0  0  0
  186.7010  177.9130  144.3520 C   0  0  0  0  0  3  0  0  0  0  0  0
  185.8020  178.3730  143.3920 C   0  0  0  0  0  3  0  0  0  0  0  0
  187.5610  178.4020  141.7830 N   0  0  0  0  0  0  0  0  0  0  0  0
  188.0480  177.7060  144.0270 C   0  0  0  0  0  0  0  0  0  0  0  0
  185.3990  179.0990  141.0790 O   0  0  0  0  0  0  0  0  0  0  0  0
  183.1980  178.3130  141.0820 O   0  0  0  0  0  0  0  0  0  0  0  0
  184.3220  178.4030  140.5100 C   0  0  0  0  0  3  0  0  0  0  0  0
  196.8200  172.6770  138.3850 O   0  0  0  0  0  0  0  0  0  0  0  0
  196.8080  171.2590  138.1920 C   0  0  1  0  0  3  0  0  0  0  0  0
  195.7540  168.9870  135.3220 O   0  0  0  0  0  1  0  0  0  0  0  0
  195.3390  171.2500  136.0420 C   0  0  0  0  0  2  0  0  0  0  0  0
  196.6570  170.8600  136.7110 C   0  0  2  0  0  0  0  0  0  0  0  0
  195.5810  169.8080  136.4410 C   0  0  2  0  0  0  0  0  0  0  0  0
  197.8840  170.7650  135.7970 C   0  0  0  0  0  2  0  0  0  0  0  0
  197.8720  171.8280  134.7100 C   0  0  0  0  0  1  0  0  0  0  0  0
  194.6240  169.3330  137.5390 C   0  0  1  0  0  3  0  0  0  0  0  0
  193.9230  170.4160  138.0810 O   0  0  0  0  0  1  0  0  0  0  0  0
  193.6530  168.2750  137.0270 C   0  0  0  0  0  2  0  0  0  0  0  0
  192.7610  168.8190  136.0990 O   0  0  0  0  0  1  0  0  0  0  0  0
  197.9310  170.5300  138.9360 C   0  0  0  0  0  3  0  0  0  0  0  0
  197.8790  170.8390  140.2960 O   0  0  0  0  0  1  0  0  0  0  0  0
  197.7880  169.1480  138.7770 O   0  0  0  0  0  1  0  0  0  0  0  0
  1 17  2  0  0  0  0
  2 22  1  0  0  0  0
  6  7  1  0  0  0  0
  7 13  2  0  0  0  0
  8  9  2  0  0  0  0
  9 13  1  0  0  0  0
 11  4  1  0  0  0  0
 12  5  1  0  0  0  0
 12 11  2  0  0  0  0
 14 24  1  0  0  0  0
 15  8  1  0  0  0  0
 15  6  2  0  0  0  0
 16 30  1  1  0  0  0
 16 31  1  0  0  0  0
 16 18  1  0  0  0  0
 18 26  1  0  0  0  0
 19 21  2  0  0  0  0
 20  2  1  0  0  0  0
 21  8  1  0  0  0  0
 22 23  1  0  0  0  0
 23  3  1  1  0  0  0
 23 10  1  0  0  0  0
 24 26  2  0  0  0  0
 25  5  1  6  0  0  0
 25  4  1  0  0  0  0
 25 20  1  0  0  0  0
 26  1  1  0  0  0  0
 27 10  1  6  0  0  0
 27 15  1  0  0  0  0
 28 17  1  6  0  0  0
 28 19  1  0  0  0  0
 28 27  1  0  0  0  0
 29 25  1  0  0  0  0
 29 30  1  0  0  0  0
 31 14  1  0  0  0  0
 32 37  2  0  0  0  0
 33 35  1  0  0  0  0
 35 34  2  0  0  0  0
 36 33  2  0  0  0  0
 36 32  1  0  0  0  0
 37 34  1  0  0  0  0
 37 19  1  0  0  0  0
 38 33  1  0  0  0  0
 40 38  1  0  0  0  0
 40 39  2  0  0  0  0
 41 11  1  0  0  0  0
 42 41  1  6  0  0  0
 42 53  1  0  0  0  0
 44 46  1  0  0  0  0
 44 45  1  0  0  0  0
 45 47  1  6  0  0  0
 45 42  1  0  0  0  0
 46 43  1  6  0  0  0
 46 45  1  0  0  0  0
 46 49  1  0  0  0  0
 48 47  1  0  0  0  0
 49 50  1  6  0  0  0
 51 49  1  0  0  0  0
 52 51  1  0  0  0  0
 53 54  1  0  0  0  0
 55 53  1  0  0  0  0
M  END
>  <MODEL>
5

>  <REMARK>
 VINA RESULT:      -4.0      2.384      6.030
  Name = 
  10 active torsions:
  status: ('A' for Active; 'I' for Inactive)
    1  A    between atoms: C_1  and  C_53
    2  A    between atoms: C_6  and  C_14
    3  A    between atoms: O_10  and  C_32
    4  A    between atoms: O_10  and  C_47
    5  A    between atoms: C_11  and  C_29
    6  A    between atoms: C_14  and  C_53
    7  A    between atoms: C_20  and  O_42
    8  A    between atoms: C_29  and  C_38
    9  A    between atoms: C_33  and  C_52
   10  A    between atoms: O_42  and  C_53
                            x       y       z     vdW  Elec       q    Type
                         _______ _______ _______ _____ _____    ______ ____

>  <TORSDO>
F 10

$$$$
=
 OpenBabel11052419253D

 55 61  0  0  1  0  0  0  0  0999 V2000
  189.0760  174.2620  143.2780 C   0  0  0  0  0  3  0  0  0  0  0  0
  193.3630  175.1650  141.6980 C   0  0  0  0  0  2  0  0  0  0  0  0
  194.0810  175.4150  144.7870 C   0  0  0  0  0  1  0  0  0  0  0  0
  194.9280  173.7320  139.5120 C   0  0  0  0  0  2  0  0  0  0  0  0
  194.4890  175.6190  138.0380 C   0  0  0  0  0  2  0  0  0  0  0  0
  191.8950  176.1810  147.9510 C   0  0  0  0  0  3  0  0  0  0  0  0
  191.8660  176.8710  149.1690 C   0  0  0  0  0  3  0  0  0  0  0  0
  190.1070  177.5950  147.1110 C   0  0  0  0  0  0  0  0  0  0  0  0
  190.0900  178.2900  148.3260 C   0  0  0  0  0  3  0  0  0  0  0  0
  192.0170  176.6190  144.7980 O   0  0  0  0  0  0  0  0  0  0  0  0
  196.0450  173.9960  138.5710 C   0  0  0  0  0  0  0  0  0  0  0  0
  195.8150  175.0100  137.7710 C   0  0  0  0  0  3  0  0  0  0  0  0
  190.9670  177.9250  149.3570 C   0  0  0  0  0  3  0  0  0  0  0  0
  188.4990  171.8910  140.3660 C   0  0  0  0  0  2  0  0  0  0  0  0
  191.0110  176.5340  146.9260 C   0  0  0  0  0  0  0  0  0  0  0  0
  190.5230  173.2320  139.7870 C   0  0  1  0  0  3  0  0  0  0  0  0
  189.7910  175.2980  143.5860 N   0  0  0  0  0  0  0  0  0  0  0  0
  190.1500  174.1950  140.9370 C   0  0  0  0  0  2  0  0  0  0  0  0
  189.0390  177.2380  144.9800 C   0  0  0  0  0  0  0  0  0  0  0  0
  193.7840  175.8170  140.3910 C   0  0  0  0  0  2  0  0  0  0  0  0
  189.2090  177.9640  146.0530 N   0  0  0  0  0  0  0  0  0  0  0  0
  193.0410  176.2590  142.6960 C   0  0  0  0  0  2  0  0  0  0  0  0
  192.7620  175.6810  144.0740 C   0  0  1  0  0  3  0  0  0  0  0  0
  188.4160  172.5820  141.6880 C   0  0  0  0  0  3  0  0  0  0  0  0
  193.9110  174.8420  139.2190 C   0  0  2  0  0  0  0  0  0  0  0  0
  189.1690  173.6500  141.9530 C   0  0  0  0  0  0  0  0  0  0  0  0
  191.1070  175.8860  145.5790 C   0  0  1  0  0  3  0  0  0  0  0  0
  189.7150  175.8680  144.9220 C   0  0  2  0  0  3  0  0  0  0  0  0
  192.5440  174.2980  138.7930 C   0  0  0  0  0  2  0  0  0  0  0  0
  192.0330  173.1620  139.6730 C   0  0  0  0  0  2  0  0  0  0  0  0
  189.9580  171.8190  139.9470 C   0  0  0  0  0  2  0  0  0  0  0  0
  188.2840  177.4630  142.6080 C   0  0  0  0  0  3  0  0  0  0  0  0
  186.2210  178.4960  142.0130 C   0  0  0  0  0  0  0  0  0  0  0  0
  186.8620  178.3390  144.3360 C   0  0  0  0  0  3  0  0  0  0  0  0
  185.9460  178.7410  143.3660 C   0  0  0  0  0  3  0  0  0  0  0  0
  187.3790  177.8640  141.6740 N   0  0  0  0  0  0  0  0  0  0  0  0
  188.0550  177.7020  143.9700 C   0  0  0  0  0  0  0  0  0  0  0  0
  185.3460  178.8900  140.9880 O   0  0  0  0  0  0  0  0  0  0  0  0
  183.1140  178.3540  141.4230 O   0  0  0  0  0  0  0  0  0  0  0  0
  184.1230  178.2820  140.6670 C   0  0  0  0  0  3  0  0  0  0  0  0
  197.2320  173.2530  138.4880 O   0  0  0  0  0  0  0  0  0  0  0  0
  197.3930  172.0350  137.7570 C   0  0  1  0  0  3  0  0  0  0  0  0
  195.5830  168.7500  138.4190 O   0  0  0  0  0  1  0  0  0  0  0  0
  195.4950  171.0220  139.2220 C   0  0  0  0  0  2  0  0  0  0  0  0
  196.1610  171.1140  137.8490 C   0  0  2  0  0  0  0  0  0  0  0  0
  196.3540  169.8760  138.7240 C   0  0  2  0  0  0  0  0  0  0  0  0
  195.2500  170.9000  136.6340 C   0  0  0  0  0  2  0  0  0  0  0  0
  194.0150  171.7850  136.6810 C   0  0  0  0  0  1  0  0  0  0  0  0
  197.6160  169.6750  139.5700 C   0  0  1  0  0  3  0  0  0  0  0  0
  197.6820  170.6350  140.5870 O   0  0  0  0  0  1  0  0  0  0  0  0
  197.6860  168.2710  140.1600 C   0  0  0  0  0  2  0  0  0  0  0  0
  197.9250  168.3160  141.5360 O   0  0  0  0  0  1  0  0  0  0  0  0
  197.9290  172.2390  136.3350 C   0  0  0  0  0  3  0  0  0  0  0  0
  197.9320  171.0240  135.6490 O   0  0  0  0  0  1  0  0  0  0  0  0
  197.1200  173.1480  135.6480 O   0  0  0  0  0  1  0  0  0  0  0  0
  1 17  2  0  0  0  0
  2 22  1  0  0  0  0
  6  7  1  0  0  0  0
  7 13  2  0  0  0  0
  8  9  2  0  0  0  0
  9 13  1  0  0  0  0
 11  4  1  0  0  0  0
 12  5  1  0  0  0  0
 12 11  2  0  0  0  0
 14 24  1  0  0  0  0
 15  8  1  0  0  0  0
 15  6  2  0  0  0  0
 16 30  1  1  0  0  0
 16 31  1  0  0  0  0
 16 18  1  0  0  0  0
 18 26  1  0  0  0  0
 19 21  2  0  0  0  0
 20  2  1  0  0  0  0
 21  8  1  0  0  0  0
 22 23  1  0  0  0  0
 23  3  1  1  0  0  0
 23 10  1  0  0  0  0
 24 26  2  0  0  0  0
 25  5  1  6  0  0  0
 25  4  1  0  0  0  0
 25 20  1  0  0  0  0
 26  1  1  0  0  0  0
 27 10  1  6  0  0  0
 27 15  1  0  0  0  0
 28 17  1  6  0  0  0
 28 19  1  0  0  0  0
 28 27  1  0  0  0  0
 29 25  1  0  0  0  0
 29 30  1  0  0  0  0
 31 14  1  0  0  0  0
 32 37  2  0  0  0  0
 33 35  1  0  0  0  0
 35 34  2  0  0  0  0
 36 33  2  0  0  0  0
 36 32  1  0  0  0  0
 37 34  1  0  0  0  0
 37 19  1  0  0  0  0
 38 33  1  0  0  0  0
 40 38  1  0  0  0  0
 40 39  2  0  0  0  0
 41 11  1  0  0  0  0
 42 53  1  6  0  0  0
 42 45  1  0  0  0  0
 42 41  1  0  0  0  0
 45 47  1  6  0  0  0
 45 46  1  0  0  0  0
 45 44  1  0  0  0  0
 46 43  1  6  0  0  0
 46 44  1  0  0  0  0
 46 49  1  0  0  0  0
 47 48  1  0  0  0  0
 49 51  1  0  0  0  0
 49 50  1  1  0  0  0
 51 52  1  0  0  0  0
 54 53  1  0  0  0  0
 55 53  1  0  0  0  0
M  END
>  <MODEL>
6

>  <REMARK>
 VINA RESULT:      -3.5      2.597      6.309
  Name = 
  10 active torsions:
  status: ('A' for Active; 'I' for Inactive)
    1  A    between atoms: C_1  and  C_53
    2  A    between atoms: C_6  and  C_14
    3  A    between atoms: O_10  and  C_32
    4  A    between atoms: O_10  and  C_47
    5  A    between atoms: C_11  and  C_29
    6  A    between atoms: C_14  and  C_53
    7  A    between atoms: C_20  and  O_42
    8  A    between atoms: C_29  and  C_38
    9  A    between atoms: C_33  and  C_52
   10  A    between atoms: O_42  and  C_53
                            x       y       z     vdW  Elec       q    Type
                         _______ _______ _______ _____ _____    ______ ____

>  <TORSDO>
F 10

$$$$
=
 OpenBabel11052419253D

 55 61  0  0  1  0  0  0  0  0999 V2000
  192.4290  177.3190  144.4100 C   0  0  0  0  0  3  0  0  0  0  0  0
  191.4550  172.9600  143.0910 C   0  0  0  0  0  2  0  0  0  0  0  0
  188.9600  174.3140  141.6540 C   0  0  0  0  0  1  0  0  0  0  0  0
  193.3420  170.8390  141.9820 C   0  0  0  0  0  2  0  0  0  0  0  0
  193.2520  169.7130  144.1390 C   0  0  0  0  0  2  0  0  0  0  0  0
  187.0600  177.6850  142.2880 C   0  0  0  0  0  3  0  0  0  0  0  0
  185.7950  178.2830  142.3250 C   0  0  0  0  0  3  0  0  0  0  0  0
  187.3080  178.0680  144.6740 C   0  0  0  0  0  0  0  0  0  0  0  0
  186.0370  178.6550  144.7090 C   0  0  0  0  0  3  0  0  0  0  0  0
  188.8630  175.4910  143.7310 O   0  0  0  0  0  0  0  0  0  0  0  0
  193.4270  169.3620  141.8620 C   0  0  0  0  0  0  0  0  0  0  0  0
  193.3820  168.7480  143.0190 C   0  0  0  0  0  3  0  0  0  0  0  0
  185.2820  178.7660  143.5340 C   0  0  0  0  0  3  0  0  0  0  0  0
  196.1450  176.5550  144.2000 C   0  0  0  0  0  2  0  0  0  0  0  0
  187.8210  177.5850  143.4580 C   0  0  0  0  0  0  0  0  0  0  0  0
  194.9740  174.3510  144.1570 C   0  0  1  0  0  3  0  0  0  0  0  0
  191.3010  176.7090  144.5950 N   0  0  0  0  0  0  0  0  0  0  0  0
  193.6930  175.0830  144.6180 C   0  0  0  0  0  2  0  0  0  0  0  0
  189.3440  177.6010  145.8770 C   0  0  0  0  0  0  0  0  0  0  0  0
  191.7700  171.6530  143.7990 C   0  0  0  0  0  2  0  0  0  0  0  0
  188.0860  177.9540  145.8760 N   0  0  0  0  0  0  0  0  0  0  0  0
  190.1730  173.5220  143.6710 C   0  0  0  0  0  2  0  0  0  0  0  0
  189.7150  174.7510  142.9030 C   0  0  1  0  0  3  0  0  0  0  0  0
  194.8270  177.2590  144.2290 C   0  0  0  0  0  3  0  0  0  0  0  0
  193.1580  171.0900  143.4840 C   0  0  2  0  0  0  0  0  0  0  0  0
  193.6940  176.5850  144.4310 C   0  0  0  0  0  0  0  0  0  0  0  0
  189.1230  176.8450  143.4600 C   0  0  1  0  0  3  0  0  0  0  0  0
  190.0510  177.4490  144.5300 C   0  0  2  0  0  3  0  0  0  0  0  0
  194.2640  171.9650  144.0810 C   0  0  0  0  0  2  0  0  0  0  0  0
  194.5860  173.2020  143.2490 C   0  0  0  0  0  2  0  0  0  0  0  0
  195.9820  175.2500  143.4370 C   0  0  0  0  0  2  0  0  0  0  0  0
  189.8240  178.5470  148.1400 C   0  0  0  0  0  3  0  0  0  0  0  0
  191.3180  177.5040  149.6750 C   0  0  0  0  0  0  0  0  0  0  0  0
  190.9310  176.5110  147.5080 C   0  0  0  0  0  3  0  0  0  0  0  0
  191.5660  176.4820  148.7480 C   0  0  0  0  0  3  0  0  0  0  0  0
  190.4540  178.5030  149.3450 N   0  0  0  0  0  0  0  0  0  0  0  0
  190.0560  177.5540  147.1790 C   0  0  0  0  0  0  0  0  0  0  0  0
  191.9380  177.5390  150.9340 O   0  0  0  0  0  0  0  0  0  0  0  0
  191.4570  176.7350  153.0750 O   0  0  0  0  0  0  0  0  0  0  0  0
  191.2850  177.6040  152.1750 C   0  0  0  0  0  3  0  0  0  0  0  0
  193.5670  168.6510  140.6610 O   0  0  0  0  0  0  0  0  0  0  0  0
  194.7770  168.5370  139.9060 C   0  0  1  0  0  3  0  0  0  0  0  0
  193.1580  169.5250  136.6020 O   0  0  0  0  0  1  0  0  0  0  0  0
  194.0260  170.6350  138.5590 C   0  0  0  0  0  2  0  0  0  0  0  0
  194.7050  169.2650  138.5500 C   0  0  2  0  0  0  0  0  0  0  0  0
  193.2910  169.4360  137.9920 C   0  0  2  0  0  0  0  0  0  0  0  0
  195.7870  169.0480  137.4860 C   0  0  0  0  0  2  0  0  0  0  0  0
  196.5850  170.3140  137.2140 C   0  0  0  0  0  1  0  0  0  0  0  0
  192.0510  169.0650  138.8100 C   0  0  1  0  0  3  0  0  0  0  0  0
  191.3850  170.2170  139.2420 O   0  0  0  0  0  1  0  0  0  0  0  0
  191.1020  168.1660  138.0260 C   0  0  0  0  0  2  0  0  0  0  0  0
  189.8650  168.7870  137.8350 O   0  0  0  0  0  1  0  0  0  0  0  0
  196.0390  168.8350  140.7220 C   0  0  0  0  0  3  0  0  0  0  0  0
  197.1320  168.1670  140.1680 O   0  0  0  0  0  1  0  0  0  0  0  0
  196.2960  170.2090  140.7160 O   0  0  0  0  0  1  0  0  0  0  0  0
  1 26  1  0  0  0  0
  1 17  2  0  0  0  0
  2 22  1  0  0  0  0
  2 20  1  0  0  0  0
  6  7  2  0  0  0  0
  6 15  1  0  0  0  0
  7 13  1  0  0  0  0
  8  9  1  0  0  0  0
  8 21  1  0  0  0  0
 11  4  1  0  0  0  0
 11 12  2  0  0  0  0
 12  5  1  0  0  0  0
 13  9  2  0  0  0  0
 14 24  1  0  0  0  0
 15  8  2  0  0  0  0
 16 30  1  6  0  0  0
 16 18  1  0  0  0  0
 19 37  1  0  0  0  0
 21 19  2  0  0  0  0
 23  3  1  6  0  0  0
 23 22  1  0  0  0  0
 23 10  1  0  0  0  0
 24 26  2  0  0  0  0
 25  4  1  6  0  0  0
 25 20  1  0  0  0  0
 25 29  1  0  0  0  0
 25  5  1  0  0  0  0
 26 18  1  0  0  0  0
 27 15  1  1  0  0  0
 27 10  1  0  0  0  0
 27 28  1  0  0  0  0
 28 17  1  1  0  0  0
 28 19  1  0  0  0  0
 30 29  1  0  0  0  0
 31 16  1  0  0  0  0
 31 14  1  0  0  0  0
 32 36  1  0  0  0  0
 33 38  1  0  0  0  0
 34 35  2  0  0  0  0
 35 33  1  0  0  0  0
 36 33  2  0  0  0  0
 37 34  1  0  0  0  0
 37 32  2  0  0  0  0
 38 40  1  0  0  0  0
 40 39  2  0  0  0  0
 41 11  1  0  0  0  0
 42 41  1  1  0  0  0
 42 53  1  0  0  0  0
 45 47  1  6  0  0  0
 45 44  1  0  0  0  0
 45 42  1  0  0  0  0
 46 43  1  6  0  0  0
 46 45  1  0  0  0  0
 46 44  1  0  0  0  0
 46 49  1  0  0  0  0
 48 47  1  0  0  0  0
 49 50  1  6  0  0  0
 51 49  1  0  0  0  0
 52 51  1  0  0  0  0
 54 53  1  0  0  0  0
 55 53  1  0  0  0  0
M  END
>  <MODEL>
7

>  <REMARK>
 VINA RESULT:      -3.3      2.109      3.255
  Name = 
  10 active torsions:
  status: ('A' for Active; 'I' for Inactive)
    1  A    between atoms: C_1  and  C_53
    2  A    between atoms: C_6  and  C_14
    3  A    between atoms: O_10  and  C_32
    4  A    between atoms: O_10  and  C_47
    5  A    between atoms: C_11  and  C_29
    6  A    between atoms: C_14  and  C_53
    7  A    between atoms: C_20  and  O_42
    8  A    between atoms: C_29  and  C_38
    9  A    between atoms: C_33  and  C_52
   10  A    between atoms: O_42  and  C_53
                            x       y       z     vdW  Elec       q    Type
                         _______ _______ _______ _____ _____    ______ ____

>  <TORSDO>
F 10

$$$$
=
 OpenBabel11052419253D

 55 61  0  0  1  0  0  0  0  0999 V2000
  189.0640  177.9020  141.7400 C   0  0  0  0  0  3  0  0  0  0  0  0
  190.4280  173.4500  141.6900 C   0  0  0  0  0  2  0  0  0  0  0  0
  189.5760  173.5760  138.6280 C   0  0  0  0  0  1  0  0  0  0  0  0
  192.9400  172.2140  142.8950 C   0  0  0  0  0  2  0  0  0  0  0  0
  191.5620  171.2890  144.6760 C   0  0  0  0  0  2  0  0  0  0  0  0
  187.1110  175.9150  136.6700 C   0  0  0  0  0  3  0  0  0  0  0  0
  186.1380  175.9480  135.6640 C   0  0  0  0  0  3  0  0  0  0  0  0
  185.4280  176.5180  138.3150 C   0  0  0  0  0  0  0  0  0  0  0  0
  184.4560  176.5370  137.3080 C   0  0  0  0  0  3  0  0  0  0  0  0
  187.7140  174.7420  139.5700 O   0  0  0  0  0  0  0  0  0  0  0  0
  193.4280  170.8950  143.3710 C   0  0  0  0  0  0  0  0  0  0  0  0
  192.6930  170.3910  144.3330 C   0  0  0  0  0  3  0  0  0  0  0  0
  184.8110  176.2560  135.9820 C   0  0  0  0  0  3  0  0  0  0  0  0
  191.7660  178.7050  144.2870 C   0  0  0  0  0  2  0  0  0  0  0  0
  186.7610  176.2090  137.9920 C   0  0  0  0  0  0  0  0  0  0  0  0
  191.5650  176.2180  144.2400 C   0  0  1  0  0  3  0  0  0  0  0  0
  188.3500  176.8990  141.3340 N   0  0  0  0  0  0  0  0  0  0  0  0
  190.2390  176.3920  143.4660 C   0  0  0  0  0  2  0  0  0  0  0  0
  185.9530  176.9970  140.6180 C   0  0  0  0  0  0  0  0  0  0  0  0
  190.4140  172.4310  142.8190 C   0  0  0  0  0  2  0  0  0  0  0  0
  185.0690  176.8060  139.6760 N   0  0  0  0  0  0  0  0  0  0  0  0
  189.0530  173.4770  141.0540 C   0  0  0  0  0  2  0  0  0  0  0  0
  189.0380  174.3610  139.8180 C   0  0  1  0  0  3  0  0  0  0  0  0
  190.7400  178.8120  143.2060 C   0  0  0  0  0  3  0  0  0  0  0  0
  191.6610  172.4630  143.7050 C   0  0  2  0  0  0  0  0  0  0  0  0
  190.0260  177.7490  142.8310 C   0  0  0  0  0  0  0  0  0  0  0  0
  187.7630  176.0640  139.0960 C   0  0  1  0  0  3  0  0  0  0  0  0
  187.4280  177.0600  140.2220 C   0  0  2  0  0  3  0  0  0  0  0  0
  191.7250  173.7490  144.5350 C   0  0  0  0  0  2  0  0  0  0  0  0
  192.2520  174.9540  143.7630 C   0  0  0  0  0  2  0  0  0  0  0  0
  192.5260  177.4010  144.1070 C   0  0  0  0  0  2  0  0  0  0  0  0
  184.4340  178.2640  142.1450 C   0  0  0  0  0  3  0  0  0  0  0  0
  184.4480  177.9610  144.5090 C   0  0  0  0  0  0  0  0  0  0  0  0
  185.9660  176.6920  143.1230 C   0  0  0  0  0  3  0  0  0  0  0  0
  185.4680  177.0070  144.3860 C   0  0  0  0  0  3  0  0  0  0  0  0
  183.9600  178.5590  143.3870 N   0  0  0  0  0  0  0  0  0  0  0  0
  185.4630  177.3270  141.9800 C   0  0  0  0  0  0  0  0  0  0  0  0
  183.9150  178.3320  145.7540 O   0  0  0  0  0  0  0  0  0  0  0  0
  185.6590  179.3120  146.9600 O   0  0  0  0  0  0  0  0  0  0  0  0
  184.6450  178.5600  146.9300 C   0  0  0  0  0  3  0  0  0  0  0  0
  194.5640  170.2280  142.8920 O   0  0  0  0  0  0  0  0  0  0  0  0
  195.8550  170.8180  142.7160 C   0  0  1  0  0  3  0  0  0  0  0  0
  197.9410  173.2970  144.7190 O   0  0  0  0  0  1  0  0  0  0  0  0
  195.6200  172.6720  144.5290 C   0  0  0  0  0  2  0  0  0  0  0  0
  196.3970  171.4640  144.0060 C   0  0  2  0  0  0  0  0  0  0  0  0
  196.9480  172.8790  143.8270 C   0  0  2  0  0  0  0  0  0  0  0  0
  197.1340  170.6210  145.0530 C   0  0  0  0  0  2  0  0  0  0  0  0
  196.2360  170.2460  146.2210 C   0  0  0  0  0  1  0  0  0  0  0  0
  196.8030  173.6400  142.5060 C   0  0  1  0  0  3  0  0  0  0  0  0
  195.5680  174.2960  142.4510 O   0  0  0  0  0  1  0  0  0  0  0  0
  197.9410  174.6330  142.2950 C   0  0  0  0  0  2  0  0  0  0  0  0
  197.5380  175.9320  142.6120 O   0  0  0  0  0  1  0  0  0  0  0  0
  196.8520  169.9070  141.9930 C   0  0  0  0  0  3  0  0  0  0  0  0
  196.2330  168.7050  141.6460 O   0  0  0  0  0  1  0  0  0  0  0  0
  197.3140  170.5330  140.8310 O   0  0  0  0  0  1  0  0  0  0  0  0
  1 26  1  0  0  0  0
  2 20  1  0  0  0  0
  4 11  1  0  0  0  0
  4 25  1  0  0  0  0
  6 15  1  0  0  0  0
  7 13  1  0  0  0  0
  7  6  2  0  0  0  0
  8 21  1  0  0  0  0
  9  8  1  0  0  0  0
 10 23  1  0  0  0  0
 11 12  2  0  0  0  0
 12  5  1  0  0  0  0
 13  9  2  0  0  0  0
 15  8  2  0  0  0  0
 16 18  1  6  0  0  0
 17  1  2  0  0  0  0
 19 37  1  0  0  0  0
 21 19  2  0  0  0  0
 22  2  1  0  0  0  0
 23  3  1  6  0  0  0
 23 22  1  0  0  0  0
 24 14  1  0  0  0  0
 25 20  1  6  0  0  0
 25 29  1  0  0  0  0
 25  5  1  0  0  0  0
 26 24  2  0  0  0  0
 26 18  1  0  0  0  0
 27 15  1  6  0  0  0
 27 10  1  0  0  0  0
 27 28  1  0  0  0  0
 28 19  1  1  0  0  0
 28 17  1  0  0  0  0
 30 16  1  0  0  0  0
 30 29  1  0  0  0  0
 31 16  1  0  0  0  0
 31 14  1  0  0  0  0
 32 36  1  0  0  0  0
 33 38  1  0  0  0  0
 34 35  2  0  0  0  0
 35 33  1  0  0  0  0
 36 33  2  0  0  0  0
 37 32  2  0  0  0  0
 37 34  1  0  0  0  0
 38 40  1  0  0  0  0
 40 39  2  0  0  0  0
 41 11  1  0  0  0  0
 42 53  1  1  0  0  0
 42 41  1  0  0  0  0
 42 45  1  0  0  0  0
 45 44  1  0  0  0  0
 45 47  1  1  0  0  0
 46 45  1  0  0  0  0
 46 44  1  0  0  0  0
 46 43  1  1  0  0  0
 47 48  1  0  0  0  0
 49 50  1  1  0  0  0
 49 46  1  0  0  0  0
 51 49  1  0  0  0  0
 51 52  1  0  0  0  0
 54 53  1  0  0  0  0
 55 53  1  0  0  0  0
M  END
>  <MODEL>
8

>  <REMARK>
 VINA RESULT:      -2.9      4.155      5.946
  Name = 
  10 active torsions:
  status: ('A' for Active; 'I' for Inactive)
    1  A    between atoms: C_1  and  C_53
    2  A    between atoms: C_6  and  C_14
    3  A    between atoms: O_10  and  C_32
    4  A    between atoms: O_10  and  C_47
    5  A    between atoms: C_11  and  C_29
    6  A    between atoms: C_14  and  C_53
    7  A    between atoms: C_20  and  O_42
    8  A    between atoms: C_29  and  C_38
    9  A    between atoms: C_33  and  C_52
   10  A    between atoms: O_42  and  C_53
                            x       y       z     vdW  Elec       q    Type
                         _______ _______ _______ _____ _____    ______ ____

>  <TORSDO>
F 10

$$$$
=
 OpenBabel11052419253D

 55 61  0  0  1  0  0  0  0  0999 V2000
  190.6520  173.2580  144.4070 C   0  0  0  0  0  3  0  0  0  0  0  0
  187.3220  175.6180  142.1660 C   0  0  0  0  0  2  0  0  0  0  0  0
  187.2210  173.0400  140.3040 C   0  0  0  0  0  1  0  0  0  0  0  0
  184.9850  177.1870  143.3340 C   0  0  0  0  0  2  0  0  0  0  0  0
  186.1670  179.2450  142.7850 C   0  0  0  0  0  2  0  0  0  0  0  0
  189.8490  170.2310  139.5430 C   0  0  0  0  0  3  0  0  0  0  0  0
  190.3830  169.4210  138.5330 C   0  0  0  0  0  3  0  0  0  0  0  0
  191.9960  171.3430  139.7820 C   0  0  0  0  0  0  0  0  0  0  0  0
  192.5220  170.5400  138.7640 C   0  0  0  0  0  3  0  0  0  0  0  0
  189.5940  173.2640  140.4840 O   0  0  0  0  0  0  0  0  0  0  0  0
  184.0680  178.2910  142.9520 C   0  0  0  0  0  0  0  0  0  0  0  0
  184.6970  179.4030  142.6570 C   0  0  0  0  0  3  0  0  0  0  0  0
  191.7160  169.5770  138.1420 C   0  0  0  0  0  3  0  0  0  0  0  0
  189.5420  174.8070  147.6940 C   0  0  0  0  0  2  0  0  0  0  0  0
  190.6550  171.1840  140.1750 C   0  0  0  0  0  0  0  0  0  0  0  0
  188.4690  176.1540  145.8880 C   0  0  1  0  0  3  0  0  0  0  0  0
  190.6310  173.5090  143.1360 N   0  0  0  0  0  0  0  0  0  0  0  0
  189.4280  175.4740  144.8840 C   0  0  0  0  0  2  0  0  0  0  0  0
  192.4500  172.9690  141.5030 C   0  0  0  0  0  0  0  0  0  0  0  0
  187.1500  177.1200  142.0140 C   0  0  0  0  0  2  0  0  0  0  0  0
  192.8180  172.3310  140.4240 N   0  0  0  0  0  0  0  0  0  0  0  0
  188.2870  175.1370  141.1020 C   0  0  0  0  0  2  0  0  0  0  0  0
  188.3870  173.6200  141.0960 C   0  0  1  0  0  3  0  0  0  0  0  0
  190.1350  173.8960  146.6680 C   0  0  0  0  0  3  0  0  0  0  0  0
  186.3890  177.7820  143.1650 C   0  0  2  0  0  0  0  0  0  0  0  0
  190.0930  174.2050  145.3710 C   0  0  0  0  0  0  0  0  0  0  0  0
  190.0710  172.1360  141.1730 C   0  0  1  0  0  3  0  0  0  0  0  0
  191.1550  172.5370  142.1910 C   0  0  2  0  0  3  0  0  0  0  0  0
  187.2050  177.7580  144.4610 C   0  0  0  0  0  2  0  0  0  0  0  0
  187.1460  176.4240  145.2000 C   0  0  0  0  0  2  0  0  0  0  0  0
  188.2240  175.3440  147.1630 C   0  0  0  0  0  2  0  0  0  0  0  0
  193.5540  175.2110  141.5250 C   0  0  0  0  0  3  0  0  0  0  0  0
  195.1310  175.8470  143.1940 C   0  0  0  0  0  0  0  0  0  0  0  0
  194.1290  173.6510  143.2590 C   0  0  0  0  0  3  0  0  0  0  0  0
  194.9960  174.5940  143.8080 C   0  0  0  0  0  3  0  0  0  0  0  0
  194.4060  176.1190  142.0740 N   0  0  0  0  0  0  0  0  0  0  0  0
  193.4010  173.9410  142.0990 C   0  0  0  0  0  0  0  0  0  0  0  0
  195.9980  176.8340  143.6900 O   0  0  0  0  0  0  0  0  0  0  0  0
  197.9330  176.2830  142.5010 O   0  0  0  0  0  0  0  0  0  0  0  0
  197.3010  177.0920  143.2370 C   0  0  0  0  0  3  0  0  0  0  0  0
  182.6690  178.2100  142.9180 O   0  0  0  0  0  0  0  0  0  0  0  0
  181.8850  177.9620  141.7470 C   0  0  1  0  0  3  0  0  0  0  0  0
  178.4500  179.2950  140.7800 O   0  0  0  0  0  1  0  0  0  0  0  0
  179.9420  179.4290  142.6690 C   0  0  0  0  0  2  0  0  0  0  0  0
  180.8370  179.0610  141.4860 C   0  0  2  0  0  0  0  0  0  0  0  0
  179.3860  178.5840  141.5400 C   0  0  2  0  0  0  0  0  0  0  0  0
  181.1050  180.1720  140.4630 C   0  0  0  0  0  2  0  0  0  0  0  0
  179.9280  181.1260  140.3320 C   0  0  0  0  0  1  0  0  0  0  0  0
  179.0190  177.1670  141.9900 C   0  0  1  0  0  3  0  0  0  0  0  0
  178.8170  177.1290  143.3740 O   0  0  0  0  0  1  0  0  0  0  0  0
  177.7890  176.6400  141.2590 C   0  0  0  0  0  2  0  0  0  0  0  0
  178.0650  176.4140  139.9090 O   0  0  0  0  0  1  0  0  0  0  0  0
  182.7190  177.5750  140.5210 C   0  0  0  0  0  3  0  0  0  0  0  0
  181.8780  177.2370  139.4610 O   0  0  0  0  0  1  0  0  0  0  0  0
  183.5270  178.6490  140.1370 O   0  0  0  0  0  1  0  0  0  0  0  0
  1 26  1  0  0  0  0
  5 25  1  0  0  0  0
  6 15  1  0  0  0  0
  7  6  2  0  0  0  0
  8 15  2  0  0  0  0
  8 21  1  0  0  0  0
  9  8  1  0  0  0  0
 10 23  1  0  0  0  0
 10 27  1  0  0  0  0
 11  4  1  0  0  0  0
 12  5  1  0  0  0  0
 12 11  2  0  0  0  0
 13  7  1  0  0  0  0
 13  9  2  0  0  0  0
 16 18  1  6  0  0  0
 16 31  1  0  0  0  0
 17  1  2  0  0  0  0
 18 26  1  0  0  0  0
 19 37  1  0  0  0  0
 20  2  1  0  0  0  0
 21 19  2  0  0  0  0
 22  2  1  0  0  0  0
 23  3  1  6  0  0  0
 23 22  1  0  0  0  0
 24 14  1  0  0  0  0
 25 20  1  6  0  0  0
 25  4  1  0  0  0  0
 25 29  1  0  0  0  0
 26 24  2  0  0  0  0
 27 15  1  6  0  0  0
 27 28  1  0  0  0  0
 28 19  1  6  0  0  0
 28 17  1  0  0  0  0
 29 30  1  0  0  0  0
 30 16  1  0  0  0  0
 31 14  1  0  0  0  0
 32 36  1  0  0  0  0
 32 37  2  0  0  0  0
 33 38  1  0  0  0  0
 33 35  1  0  0  0  0
 34 35  2  0  0  0  0
 36 33  2  0  0  0  0
 37 34  1  0  0  0  0
 39 40  2  0  0  0  0
 40 38  1  0  0  0  0
 41 11  1  0  0  0  0
 42 53  1  6  0  0  0
 42 41  1  0  0  0  0
 45 47  1  6  0  0  0
 45 46  1  0  0  0  0
 45 42  1  0  0  0  0
 45 44  1  0  0  0  0
 46 43  1  6  0  0  0
 46 49  1  0  0  0  0
 46 44  1  0  0  0  0
 48 47  1  0  0  0  0
 49 50  1  1  0  0  0
 51 49  1  0  0  0  0
 52 51  1  0  0  0  0
 54 53  1  0  0  0  0
 55 53  1  0  0  0  0
M  END
>  <MODEL>
9

>  <REMARK>
 VINA RESULT:      -2.9      4.037     11.070
  Name = 
  10 active torsions:
  status: ('A' for Active; 'I' for Inactive)
    1  A    between atoms: C_1  and  C_53
    2  A    between atoms: C_6  and  C_14
    3  A    between atoms: O_10  and  C_32
    4  A    between atoms: O_10  and  C_47
    5  A    between atoms: C_11  and  C_29
    6  A    between atoms: C_14  and  C_53
    7  A    between atoms: C_20  and  O_42
    8  A    between atoms: C_29  and  C_38
    9  A    between atoms: C_33  and  C_52
   10  A    between atoms: O_42  and  C_53
                            x       y       z     vdW  Elec       q    Type
                         _______ _______ _______ _____ _____    ______ ____

>  <TORSDO>
F 10

$$$$
