=
 OpenBabel11052421253D

 32 38  0  0  1  0  0  0  0  0999 V2000
  189.5440  172.1850  140.8800 C   0  0  0  0  0  3  0  0  0  0  0  0
  189.0560  176.3790  143.7000 C   0  0  0  0  0  0  0  0  0  0  0  0
  192.8260  175.9550  146.7380 O   0  0  0  0  0  0  0  0  0  0  0  0
  191.7650  175.3430  147.4310 C   0  0  2  0  0  3  0  0  0  0  0  0
  187.2090  177.8350  144.7100 C   0  0  0  0  0  0  0  0  0  0  0  0
  186.3950  178.3080  143.6610 C   0  0  0  0  0  0  0  0  0  0  0  0
  188.8620  175.0710  141.6980 C   0  0  2  0  0  3  0  0  0  0  0  0
  190.8220  174.7430  143.2360 C   0  0  0  0  0  3  0  0  0  0  0  0
  185.5230  178.4100  146.3440 C   0  0  0  0  0  0  0  0  0  0  0  0
  189.9740  172.8660  141.9400 C   0  0  0  0  0  3  0  0  0  0  0  0
  191.9530  175.1650  145.9670 C   0  0  1  0  0  3  0  0  0  0  0  0
  190.3010  175.6680  144.0450 C   0  0  0  0  0  0  0  0  0  0  0  0
  190.9100  176.0700  145.3470 C   0  0  1  0  0  3  0  0  0  0  0  0
  189.1080  177.4320  146.0130 C   0  0  2  0  0  3  0  0  0  0  0  0
  184.6660  178.8080  145.3100 C   0  0  0  0  0  3  0  0  0  0  0  0
  188.4910  173.9500  139.4850 C   0  0  0  0  0  3  0  0  0  0  0  0
  190.1660  174.3450  141.9430 C   0  0  0  0  0  0  0  0  0  0  0  0
  185.1090  178.7740  143.9760 C   0  0  0  0  0  3  0  0  0  0  0  0
  188.1790  174.9100  140.5640 C   0  0  0  0  0  3  0  0  0  0  0  0
  189.1250  172.7690  139.5900 C   0  0  0  0  0  0  0  0  0  0  0  0
  190.5950  176.3120  147.5720 C   0  0  0  0  0  2  0  0  0  0  0  0
  189.8520  176.2090  146.3290 N   0  0  2  0  0  0  0  0  0  0  0  0
  187.8960  177.5950  146.9520 C   0  0  0  0  0  2  0  0  0  0  0  0
  188.3970  176.0590  142.6280 N   0  0  0  0  0  0  0  0  0  0  0  0
  186.9620  178.5180  142.0140 Cl  0  0  0  0  0  0  0  0  0  0  0  0
  185.1090  178.4870  147.6670 O   0  0  0  0  0  1  0  0  0  0  0  0
  188.5500  177.3570  144.6420 N   0  0  0  0  0  0  0  0  0  0  0  0
  186.7990  177.9500  146.0160 C   0  0  0  0  0  0  0  0  0  0  0  0
  190.4680  171.7880  137.6260 C   0  0  0  0  0  0  0  0  0  0  0  0
  189.2900  171.9370  138.4310 N   0  0  0  0  0  2  0  0  0  0  0  0
  191.5410  172.3790  137.9200 O   0  0  0  0  0  0  0  0  0  0  0  0
  190.4230  170.9100  136.4290 C   0  0  0  0  0  1  0  0  0  0  0  0
  1 10  1  0  0  0  0
  2 12  1  0  0  0  0
  2 27  1  0  0  0  0
  3  4  1  0  0  0  0
  4 21  1  6  0  0  0
  5 28  1  0  0  0  0
  6 18  1  0  0  0  0
  6  5  2  0  0  0  0
  7 19  1  6  0  0  0
  7 17  1  0  0  0  0
  7 24  1  0  0  0  0
  8 12  2  0  0  0  0
  9 26  1  0  0  0  0
 10 17  2  0  0  0  0
 11  3  1  6  0  0  0
 11  4  1  0  0  0  0
 13 12  1  6  0  0  0
 13 11  1  0  0  0  0
 13 22  1  0  0  0  0
 14 22  1  0  0  0  0
 14 23  1  1  0  0  0
 15  9  1  0  0  0  0
 16 20  1  0  0  0  0
 16 19  2  0  0  0  0
 17  8  1  0  0  0  0
 18 15  2  0  0  0  0
 20  1  2  0  0  0  0
 22 21  1  1  0  0  0
 24  2  2  0  0  0  0
 25  6  1  0  0  0  0
 27  5  1  0  0  0  0
 27 14  1  0  0  0  0
 28  9  2  0  0  0  0
 28 23  1  0  0  0  0
 29 31  2  0  0  0  0
 29 30  1  0  0  0  0
 30 20  1  0  0  0  0
 32 29  1  0  0  0  0
M  END
>  <MODEL>
1

>  <REMARK>
 VINA RESULT:      -9.0      0.000      0.000
  Name = 
  1 active torsions:
  status: ('A' for Active; 'I' for Inactive)
    1  A    between atoms: N_10  and  C_24
                            x       y       z     vdW  Elec       q    Type
                         _______ _______ _______ _____ _____    ______ ____

>  <TORSDO>
F 1

$$$$
=
 OpenBabel11052421253D

 32 38  0  0  1  0  0  0  0  0999 V2000
  190.0670  173.0540  145.0160 C   0  0  0  0  0  3  0  0  0  0  0  0
  187.4100  177.2500  143.9630 C   0  0  0  0  0  0  0  0  0  0  0  0
  186.8160  179.1660  148.3890 O   0  0  0  0  0  0  0  0  0  0  0  0
  185.6690  178.3720  148.2100 C   0  0  2  0  0  3  0  0  0  0  0  0
  185.5780  178.0360  142.3580 C   0  0  0  0  0  0  0  0  0  0  0  0
  186.0390  177.8590  141.0380 C   0  0  0  0  0  0  0  0  0  0  0  0
  189.0100  175.5200  143.5120 C   0  0  2  0  0  3  0  0  0  0  0  0
  188.7360  176.4110  145.8460 C   0  0  0  0  0  3  0  0  0  0  0  0
  183.3000  178.2680  141.5820 C   0  0  0  0  0  0  0  0  0  0  0  0
  189.3910  174.0920  145.5050 C   0  0  0  0  0  3  0  0  0  0  0  0
  187.0120  177.9250  147.7560 C   0  0  1  0  0  3  0  0  0  0  0  0
  187.7740  177.2160  145.3910 C   0  0  0  0  0  0  0  0  0  0  0  0
  186.9880  178.1430  146.2580 C   0  0  1  0  0  3  0  0  0  0  0  0
  185.4720  178.7770  144.5720 C   0  0  2  0  0  3  0  0  0  0  0  0
  183.7260  178.0120  140.2720 C   0  0  0  0  0  3  0  0  0  0  0  0
  190.6950  173.8300  142.7420 C   0  0  0  0  0  3  0  0  0  0  0  0
  189.4900  175.4710  144.9450 C   0  0  0  0  0  0  0  0  0  0  0  0
  185.0930  177.8270  140.0010 C   0  0  0  0  0  3  0  0  0  0  0  0
  189.6140  174.8180  142.5530 C   0  0  0  0  0  3  0  0  0  0  0  0
  190.9420  173.0750  143.8260 C   0  0  0  0  0  0  0  0  0  0  0  0
  184.9320  178.7860  146.9400 C   0  0  0  0  0  2  0  0  0  0  0  0
  185.5960  178.0820  145.8570 N   0  0  2  0  0  0  0  0  0  0  0  0
  184.0350  178.6650  144.0250 C   0  0  0  0  0  2  0  0  0  0  0  0
  187.9740  176.4340  143.1250 N   0  0  0  0  0  0  0  0  0  0  0  0
  187.7380  177.8610  140.5970 Cl  0  0  0  0  0  0  0  0  0  0  0  0
  181.9570  178.5000  141.8490 O   0  0  0  0  0  1  0  0  0  0  0  0
  186.3420  178.1420  143.5560 N   0  0  0  0  0  0  0  0  0  0  0  0
  184.2510  178.2980  142.6020 C   0  0  0  0  0  0  0  0  0  0  0  0
  193.2560  172.1920  144.5220 C   0  0  0  0  0  0  0  0  0  0  0  0
  192.0130  172.1190  143.8090 N   0  0  0  0  0  2  0  0  0  0  0  0
  193.5040  173.1400  145.3120 O   0  0  0  0  0  0  0  0  0  0  0  0
  194.2660  171.1190  144.3310 C   0  0  0  0  0  1  0  0  0  0  0  0
  1 10  1  0  0  0  0
  2 12  1  0  0  0  0
  4 21  1  6  0  0  0
  4  3  1  0  0  0  0
  5 28  1  0  0  0  0
  5 27  1  0  0  0  0
  6  5  2  0  0  0  0
  7 19  1  6  0  0  0
  7 17  1  0  0  0  0
  9 26  1  0  0  0  0
  9 28  2  0  0  0  0
 11  4  1  0  0  0  0
 11  3  1  1  0  0  0
 12  8  2  0  0  0  0
 13 12  1  6  0  0  0
 13 11  1  0  0  0  0
 14 23  1  6  0  0  0
 14 22  1  0  0  0  0
 15  9  1  0  0  0  0
 16 20  1  0  0  0  0
 17 10  2  0  0  0  0
 17  8  1  0  0  0  0
 18 15  2  0  0  0  0
 18  6  1  0  0  0  0
 19 16  2  0  0  0  0
 20  1  2  0  0  0  0
 22 13  1  0  0  0  0
 22 21  1  1  0  0  0
 24  7  1  0  0  0  0
 24  2  2  0  0  0  0
 25  6  1  0  0  0  0
 27  2  1  0  0  0  0
 27 14  1  0  0  0  0
 28 23  1  0  0  0  0
 29 31  2  0  0  0  0
 30 20  1  0  0  0  0
 30 29  1  0  0  0  0
 32 29  1  0  0  0  0
M  END
>  <MODEL>
2

>  <REMARK>
 VINA RESULT:      -8.9      3.014      4.870
  Name = 
  1 active torsions:
  status: ('A' for Active; 'I' for Inactive)
    1  A    between atoms: N_10  and  C_24
                            x       y       z     vdW  Elec       q    Type
                         _______ _______ _______ _____ _____    ______ ____

>  <TORSDO>
F 1

$$$$
=
 OpenBabel11052421253D

 32 38  0  0  1  0  0  0  0  0999 V2000
  189.5950  171.8850  142.4330 C   0  0  0  0  0  3  0  0  0  0  0  0
  187.6120  176.5450  142.7920 C   0  0  0  0  0  0  0  0  0  0  0  0
  189.1470  177.9220  147.1930 O   0  0  0  0  0  0  0  0  0  0  0  0
  187.8870  177.3460  147.4410 C   0  0  2  0  0  3  0  0  0  0  0  0
  185.4960  177.8120  142.1090 C   0  0  0  0  0  0  0  0  0  0  0  0
  185.3720  177.7430  140.7060 C   0  0  0  0  0  0  0  0  0  0  0  0
  188.5460  174.6630  141.6320 C   0  0  2  0  0  3  0  0  0  0  0  0
  189.3680  175.2660  143.9300 C   0  0  0  0  0  3  0  0  0  0  0  0
  183.1880  178.4950  142.3280 C   0  0  0  0  0  0  0  0  0  0  0  0
  189.3760  172.9410  143.2140 C   0  0  0  0  0  3  0  0  0  0  0  0
  188.8390  176.7610  146.4600 C   0  0  1  0  0  3  0  0  0  0  0  0
  188.4820  176.2640  143.9490 C   0  0  0  0  0  0  0  0  0  0  0  0
  188.2860  177.1770  145.1140 C   0  0  1  0  0  3  0  0  0  0  0  0
  186.3940  178.2580  144.2200 C   0  0  2  0  0  3  0  0  0  0  0  0
  183.0200  178.3530  140.9440 C   0  0  0  0  0  3  0  0  0  0  0  0
  189.4420  172.8500  140.1500 C   0  0  0  0  0  3  0  0  0  0  0  0
  189.5190  174.3500  142.7470 C   0  0  0  0  0  0  0  0  0  0  0  0
  184.1140  177.9970  140.1360 C   0  0  0  0  0  3  0  0  0  0  0  0
  188.5870  174.0100  140.4710 C   0  0  0  0  0  3  0  0  0  0  0  0
  189.9330  171.9280  140.9960 C   0  0  0  0  0  0  0  0  0  0  0  0
  186.8160  178.0350  146.6010 C   0  0  0  0  0  2  0  0  0  0  0  0
  186.8630  177.3870  145.3020 N   0  0  2  0  0  0  0  0  0  0  0  0
  184.8650  178.4440  144.2900 C   0  0  0  0  0  2  0  0  0  0  0  0
  187.6410  175.7700  141.7510 N   0  0  0  0  0  0  0  0  0  0  0  0
  186.7370  177.5410  139.6220 Cl  0  0  0  0  0  0  0  0  0  0  0  0
  182.1230  178.8940  143.1250 O   0  0  0  0  0  1  0  0  0  0  0  0
  186.6660  177.6370  142.9030 N   0  0  0  0  0  0  0  0  0  0  0  0
  184.4430  178.2410  142.8800 C   0  0  0  0  0  0  0  0  0  0  0  0
  192.0940  170.8370  140.1250 C   0  0  0  0  0  0  0  0  0  0  0  0
  190.7080  170.8290  140.4920 N   0  0  0  0  0  2  0  0  0  0  0  0
  192.8050  171.8660  140.2730 O   0  0  0  0  0  0  0  0  0  0  0  0
  192.7060  169.6020  139.5710 C   0  0  0  0  0  1  0  0  0  0  0  0
  1 10  1  0  0  0  0
  2 27  1  0  0  0  0
  2 12  1  0  0  0  0
  3  4  1  0  0  0  0
  4 21  1  6  0  0  0
  5 28  1  0  0  0  0
  5 27  1  0  0  0  0
  6  5  2  0  0  0  0
  7 19  1  6  0  0  0
  7 24  1  0  0  0  0
  7 17  1  0  0  0  0
  8 12  2  0  0  0  0
  9 28  2  0  0  0  0
  9 26  1  0  0  0  0
 11  3  1  1  0  0  0
 11  4  1  0  0  0  0
 13 12  1  6  0  0  0
 13 22  1  0  0  0  0
 13 11  1  0  0  0  0
 14 23  1  1  0  0  0
 14 22  1  0  0  0  0
 15  9  1  0  0  0  0
 16 19  2  0  0  0  0
 16 20  1  0  0  0  0
 17 10  2  0  0  0  0
 17  8  1  0  0  0  0
 18  6  1  0  0  0  0
 18 15  2  0  0  0  0
 20  1  2  0  0  0  0
 22 21  1  1  0  0  0
 24  2  2  0  0  0  0
 25  6  1  0  0  0  0
 27 14  1  0  0  0  0
 28 23  1  0  0  0  0
 29 31  2  0  0  0  0
 29 30  1  0  0  0  0
 30 20  1  0  0  0  0
 32 29  1  0  0  0  0
M  END
>  <MODEL>
3

>  <REMARK>
 VINA RESULT:      -8.1      2.285      3.155
  Name = 
  1 active torsions:
  status: ('A' for Active; 'I' for Inactive)
    1  A    between atoms: N_10  and  C_24
                            x       y       z     vdW  Elec       q    Type
                         _______ _______ _______ _____ _____    ______ ____

>  <TORSDO>
F 1

$$$$
=
 OpenBabel11052421253D

 32 38  0  0  1  0  0  0  0  0999 V2000
  193.9200  175.7310  144.1390 C   0  0  0  0  0  3  0  0  0  0  0  0
  188.8440  175.6910  144.0280 C   0  0  0  0  0  0  0  0  0  0  0  0
  187.9790  173.8060  139.6330 O   0  0  0  0  0  0  0  0  0  0  0  0
  187.9920  175.1950  139.4070 C   0  0  2  0  0  3  0  0  0  0  0  0
  186.8740  177.1120  144.8330 C   0  0  0  0  0  0  0  0  0  0  0  0
  186.9560  177.2300  146.2350 C   0  0  0  0  0  0  0  0  0  0  0  0
  190.9970  175.5680  145.0820 C   0  0  0  0  0  0  0  0  0  0  0  0
  190.6600  174.6120  142.7820 C   0  0  0  0  0  3  0  0  0  0  0  0
  185.3170  178.9570  144.7210 C   0  0  0  0  0  0  0  0  0  0  0  0
  192.8280  175.5230  143.4070 C   0  0  0  0  0  3  0  0  0  0  0  0
  188.9560  174.5410  140.3310 C   0  0  1  0  0  3  0  0  0  0  0  0
  189.3920  175.0250  142.8320 C   0  0  0  0  0  0  0  0  0  0  0  0
  188.4200  174.8590  141.7110 C   0  0  1  0  0  3  0  0  0  0  0  0
  186.7190  176.1450  142.7110 C   0  0  2  0  0  3  0  0  0  0  0  0
  185.4480  179.1440  146.1030 C   0  0  0  0  0  3  0  0  0  0  0  0
  193.0880  175.4480  146.4610 C   0  0  0  0  0  3  0  0  0  0  0  0
  191.6170  174.8200  143.9230 C   0  0  1  0  0  3  0  0  0  0  0  0
  186.2500  178.2710  146.8580 C   0  0  0  0  0  3  0  0  0  0  0  0
  191.6680  175.7730  146.2150 C   0  0  0  0  0  3  0  0  0  0  0  0
  194.0860  175.3810  145.5640 C   0  0  0  0  0  0  0  0  0  0  0  0
  186.9760  175.8870  140.3100 C   0  0  0  0  0  2  0  0  0  0  0  0
  187.6510  176.0820  141.5800 N   0  0  2  0  0  0  0  0  0  0  0  0
  185.9360  177.4730  142.7010 C   0  0  0  0  0  2  0  0  0  0  0  0
  189.6170  175.9570  145.0380 N   0  0  0  0  0  0  0  0  0  0  0  0
  187.7390  176.0410  147.2630 Cl  0  0  0  0  0  0  0  0  0  0  0  0
  184.4870  179.7860  143.9770 O   0  0  0  0  0  1  0  0  0  0  0  0
  187.4610  176.1220  143.9920 N   0  0  0  0  0  0  0  0  0  0  0  0
  186.0230  177.9170  144.1160 C   0  0  0  0  0  0  0  0  0  0  0  0
  196.1860  173.9080  145.7670 C   0  0  0  0  0  0  0  0  0  0  0  0
  195.4260  175.1020  145.9980 N   0  0  0  0  0  2  0  0  0  0  0  0
  195.7250  172.9620  145.0750 O   0  0  0  0  0  0  0  0  0  0  0  0
  197.5480  173.7900  146.3470 C   0  0  0  0  0  1  0  0  0  0  0  0
  1 20  1  0  0  0  0
  2 24  2  0  0  0  0
  4  3  1  0  0  0  0
  4 21  1  1  0  0  0
  4 11  1  0  0  0  0
  5  6  1  0  0  0  0
  6 18  2  0  0  0  0
  6 25  1  0  0  0  0
  7 19  2  0  0  0  0
  8 12  2  0  0  0  0
  9 15  2  0  0  0  0
 10 17  1  0  0  0  0
 10  1  2  0  0  0  0
 11  3  1  6  0  0  0
 11 13  1  0  0  0  0
 12  2  1  0  0  0  0
 13 12  1  1  0  0  0
 14 23  1  6  0  0  0
 14 27  1  0  0  0  0
 15 18  1  0  0  0  0
 17  8  1  6  0  0  0
 17  7  1  0  0  0  0
 19 16  1  0  0  0  0
 20 30  1  0  0  0  0
 20 16  2  0  0  0  0
 22 21  1  6  0  0  0
 22 13  1  0  0  0  0
 22 14  1  0  0  0  0
 23 28  1  0  0  0  0
 24  7  1  0  0  0  0
 26  9  1  0  0  0  0
 27  2  1  0  0  0  0
 27  5  1  0  0  0  0
 28  9  1  0  0  0  0
 28  5  2  0  0  0  0
 29 30  1  0  0  0  0
 29 32  1  0  0  0  0
 31 29  2  0  0  0  0
M  END
>  <MODEL>
4

>  <REMARK>
 VINA RESULT:      -7.8      2.613      5.982
  Name = 
  1 active torsions:
  status: ('A' for Active; 'I' for Inactive)
    1  A    between atoms: N_10  and  C_24
                            x       y       z     vdW  Elec       q    Type
                         _______ _______ _______ _____ _____    ______ ____

>  <TORSDO>
F 1

$$$$
=
 OpenBabel11052421253D

 32 38  0  0  1  0  0  0  0  0999 V2000
  186.6110  178.4480  142.8180 C   0  0  0  0  0  3  0  0  0  0  0  0
  190.8130  175.6950  143.5490 C   0  0  0  0  0  0  0  0  0  0  0  0
  191.1910  175.7590  148.3940 O   0  0  0  0  0  0  0  0  0  0  0  0
  191.9620  176.8610  147.9820 C   0  0  2  0  0  3  0  0  0  0  0  0
  193.0870  175.2940  142.4460 C   0  0  0  0  0  0  0  0  0  0  0  0
  192.8670  174.8210  141.1370 C   0  0  0  0  0  0  0  0  0  0  0  0
  188.8010  176.3290  142.4060 C   0  0  2  0  0  3  0  0  0  0  0  0
  188.9200  176.4470  144.9140 C   0  0  0  0  0  3  0  0  0  0  0  0
  195.3880  175.8180  141.9210 C   0  0  0  0  0  0  0  0  0  0  0  0
  187.5170  178.0170  143.6930 C   0  0  0  0  0  3  0  0  0  0  0  0
  190.6700  176.5200  147.3310 C   0  0  1  0  0  3  0  0  0  0  0  0
  190.1850  176.0300  144.8410 C   0  0  0  0  0  0  0  0  0  0  0  0
  191.0730  175.8620  146.0290 C   0  0  1  0  0  3  0  0  0  0  0  0
  193.0220  175.4280  144.7780 C   0  0  2  0  0  3  0  0  0  0  0  0
  195.1680  175.4300  140.5940 C   0  0  0  0  0  3  0  0  0  0  0  0
  186.7920  176.7910  140.9780 C   0  0  0  0  0  3  0  0  0  0  0  0
  188.0630  176.6290  143.6910 C   0  0  0  0  0  0  0  0  0  0  0  0
  193.9170  174.9160  140.2090 C   0  0  0  0  0  3  0  0  0  0  0  0
  188.1810  176.3560  141.2260 C   0  0  0  0  0  3  0  0  0  0  0  0
  186.0660  177.6740  141.6850 C   0  0  0  0  0  0  0  0  0  0  0  0
  193.0390  176.4160  146.9970 C   0  0  0  0  0  2  0  0  0  0  0  0
  192.3880  176.3780  145.6990 N   0  0  2  0  0  0  0  0  0  0  0  0
  194.3870  175.9590  144.2970 C   0  0  0  0  0  2  0  0  0  0  0  0
  190.1610  175.8740  142.4400 N   0  0  0  0  0  0  0  0  0  0  0  0
  191.4210  173.9520  140.6510 Cl  0  0  0  0  0  0  0  0  0  0  0  0
  196.6360  176.2820  142.3180 O   0  0  0  0  0  1  0  0  0  0  0  0
  192.1970  175.2650  143.5590 N   0  0  0  0  0  0  0  0  0  0  0  0
  194.3360  175.7170  142.8320 C   0  0  0  0  0  0  0  0  0  0  0  0
  183.6000  178.2880  142.0890 C   0  0  0  0  0  0  0  0  0  0  0  0
  184.7390  178.0190  141.2590 N   0  0  0  0  0  2  0  0  0  0  0  0
  183.6910  178.2930  143.3450 O   0  0  0  0  0  0  0  0  0  0  0  0
  182.2900  178.5790  141.4530 C   0  0  0  0  0  1  0  0  0  0  0  0
  1 10  1  0  0  0  0
  2 27  1  0  0  0  0
  2 12  1  0  0  0  0
  4 21  1  6  0  0  0
  4  3  1  0  0  0  0
  5 28  1  0  0  0  0
  5 27  1  0  0  0  0
  6  5  2  0  0  0  0
  7 19  1  1  0  0  0
  7 24  1  0  0  0  0
  7 17  1  0  0  0  0
  9 26  1  0  0  0  0
  9 28  2  0  0  0  0
 11  4  1  0  0  0  0
 11  3  1  1  0  0  0
 12  8  2  0  0  0  0
 13 12  1  6  0  0  0
 13 11  1  0  0  0  0
 14 23  1  6  0  0  0
 14 22  1  0  0  0  0
 15  9  1  0  0  0  0
 16 19  2  0  0  0  0
 16 20  1  0  0  0  0
 17 10  2  0  0  0  0
 17  8  1  0  0  0  0
 18 15  2  0  0  0  0
 18  6  1  0  0  0  0
 20  1  2  0  0  0  0
 22 13  1  0  0  0  0
 22 21  1  1  0  0  0
 24  2  2  0  0  0  0
 25  6  1  0  0  0  0
 27 14  1  0  0  0  0
 28 23  1  0  0  0  0
 29 31  2  0  0  0  0
 30 20  1  0  0  0  0
 30 29  1  0  0  0  0
 32 29  1  0  0  0  0
M  END
>  <MODEL>
5

>  <REMARK>
 VINA RESULT:      -7.6      3.372      6.856
  Name = 
  1 active torsions:
  status: ('A' for Active; 'I' for Inactive)
    1  A    between atoms: N_10  and  C_24
                            x       y       z     vdW  Elec       q    Type
                         _______ _______ _______ _____ _____    ______ ____

>  <TORSDO>
F 1

$$$$
=
 OpenBabel11052421253D

 32 38  0  0  1  0  0  0  0  0999 V2000
  188.9340  173.9690  138.8310 C   0  0  0  0  0  3  0  0  0  0  0  0
  190.0760  174.4270  143.7570 C   0  0  0  0  0  0  0  0  0  0  0  0
  186.1810  176.7910  145.4470 O   0  0  0  0  0  0  0  0  0  0  0  0
  187.0840  177.8200  145.1220 C   0  0  2  0  0  3  0  0  0  0  0  0
  192.1200  174.8210  145.2470 C   0  0  0  0  0  0  0  0  0  0  0  0
  193.0470  173.7850  145.0110 C   0  0  0  0  0  0  0  0  0  0  0  0
  190.1020  173.3570  141.6090 C   0  0  2  0  0  3  0  0  0  0  0  0
  188.0580  174.6030  142.3750 C   0  0  0  0  0  3  0  0  0  0  0  0
  193.8200  176.1630  146.3190 C   0  0  0  0  0  0  0  0  0  0  0  0
  188.5960  174.5010  140.0040 C   0  0  0  0  0  3  0  0  0  0  0  0
  186.9220  176.6180  144.2630 C   0  0  1  0  0  3  0  0  0  0  0  0
  188.7100  174.9160  143.4970 C   0  0  0  0  0  0  0  0  0  0  0  0
  188.1360  175.7710  144.5790 C   0  0  1  0  0  3  0  0  0  0  0  0
  190.1320  175.9070  145.8220 C   0  0  2  0  0  3  0  0  0  0  0  0
  194.7740  175.1820  146.0210 C   0  0  0  0  0  3  0  0  0  0  0  0
  190.3450  172.0360  139.4920 C   0  0  0  0  0  3  0  0  0  0  0  0
  188.6790  173.7600  141.2950 C   0  0  0  0  0  0  0  0  0  0  0  0
  194.3840  173.9900  145.3860 C   0  0  0  0  0  3  0  0  0  0  0  0
  190.7860  172.5400  140.8080 C   0  0  0  0  0  3  0  0  0  0  0  0
  189.5010  172.6210  138.6250 C   0  0  0  0  0  0  0  0  0  0  0  0
  188.4060  177.6150  145.8560 C   0  0  0  0  0  2  0  0  0  0  0  0
  189.1640  176.6840  145.0400 N   0  0  2  0  0  0  0  0  0  0  0  0
  191.3170  176.7910  146.2620 C   0  0  0  0  0  2  0  0  0  0  0  0
  190.7060  173.7370  142.8540 N   0  0  0  0  0  0  0  0  0  0  0  0
  192.5900  172.1880  144.4450 Cl  0  0  0  0  0  0  0  0  0  0  0  0
  194.1910  177.3220  146.9900 O   0  0  0  0  0  1  0  0  0  0  0  0
  190.7170  174.8280  144.9930 N   0  0  0  0  0  0  0  0  0  0  0  0
  192.4950  175.9450  145.9410 C   0  0  0  0  0  0  0  0  0  0  0  0
  189.8980  172.2470  136.1100 C   0  0  0  0  0  0  0  0  0  0  0  0
  189.2300  172.0050  137.3570 N   0  0  0  0  0  2  0  0  0  0  0  0
  190.8750  173.0370  136.0330 O   0  0  0  0  0  0  0  0  0  0  0  0
  189.4330  171.5410  134.8890 C   0  0  0  0  0  1  0  0  0  0  0  0
  1 10  1  0  0  0  0
  2 27  1  0  0  0  0
  4  3  1  0  0  0  0
  4 21  1  1  0  0  0
  5 28  1  0  0  0  0
  6  5  2  0  0  0  0
  6 18  1  0  0  0  0
  7 19  1  1  0  0  0
  7 24  1  0  0  0  0
  8 12  2  0  0  0  0
  9 26  1  0  0  0  0
 10 17  2  0  0  0  0
 11 13  1  0  0  0  0
 11  4  1  0  0  0  0
 11  3  1  1  0  0  0
 12  2  1  0  0  0  0
 13 12  1  6  0  0  0
 13 22  1  0  0  0  0
 14 23  1  6  0  0  0
 15  9  1  0  0  0  0
 16 19  2  0  0  0  0
 17  7  1  0  0  0  0
 17  8  1  0  0  0  0
 18 15  2  0  0  0  0
 20  1  2  0  0  0  0
 20 16  1  0  0  0  0
 22 14  1  0  0  0  0
 22 21  1  1  0  0  0
 24  2  2  0  0  0  0
 25  6  1  0  0  0  0
 27  5  1  0  0  0  0
 27 14  1  0  0  0  0
 28 23  1  0  0  0  0
 28  9  2  0  0  0  0
 29 30  1  0  0  0  0
 30 20  1  0  0  0  0
 31 29  2  0  0  0  0
 32 29  1  0  0  0  0
M  END
>  <MODEL>
6

>  <REMARK>
 VINA RESULT:      -7.6      2.261      5.126
  Name = 
  1 active torsions:
  status: ('A' for Active; 'I' for Inactive)
    1  A    between atoms: N_10  and  C_24
                            x       y       z     vdW  Elec       q    Type
                         _______ _______ _______ _____ _____    ______ ____

>  <TORSDO>
F 1

$$$$
=
 OpenBabel11052421253D

 32 38  0  0  1  0  0  0  0  0999 V2000
  187.9250  177.9130  144.2040 C   0  0  0  0  0  3  0  0  0  0  0  0
  190.4750  174.3900  141.5850 C   0  0  0  0  0  0  0  0  0  0  0  0
  194.6750  174.2110  144.0230 O   0  0  0  0  0  0  0  0  0  0  0  0
  194.9120  175.1610  143.0130 C   0  0  2  0  0  3  0  0  0  0  0  0
  190.7710  173.6040  139.1680 C   0  0  0  0  0  0  0  0  0  0  0  0
  189.5080  173.2270  138.6670 C   0  0  0  0  0  0  0  0  0  0  0  0
  188.5080  175.4330  142.4820 C   0  0  0  0  0  0  0  0  0  0  0  0
  190.6520  175.4390  143.7950 C   0  0  0  0  0  3  0  0  0  0  0  0
  191.6820  173.7010  136.9310 C   0  0  0  0  0  0  0  0  0  0  0  0
  189.0860  177.2870  144.0260 C   0  0  0  0  0  3  0  0  0  0  0  0
  193.6170  175.0940  143.7380 C   0  0  1  0  0  3  0  0  0  0  0  0
  191.2350  174.7920  142.7830 C   0  0  0  0  0  0  0  0  0  0  0  0
  192.6800  174.4180  142.7600 C   0  0  1  0  0  3  0  0  0  0  0  0
  192.6700  173.6660  140.5280 C   0  0  2  0  0  3  0  0  0  0  0  0
  190.4160  173.4080  136.4080 C   0  0  0  0  0  3  0  0  0  0  0  0
  186.2870  176.3170  143.2380 C   0  0  0  0  0  3  0  0  0  0  0  0
  189.1980  175.8220  143.7700 C   0  0  0  0  0  0  0  0  0  0  0  0
  189.3390  173.1540  137.2750 C   0  0  0  0  0  3  0  0  0  0  0  0
  187.1990  175.6180  142.3110 C   0  0  0  0  0  3  0  0  0  0  0  0
  186.5870  177.2960  144.1080 C   0  0  0  0  0  0  0  0  0  0  0  0
  194.6380  174.5540  141.6400 C   0  0  0  0  0  2  0  0  0  0  0  0
  193.2060  174.6860  141.4360 N   0  0  2  0  0  0  0  0  0  0  0  0
  193.1010  173.9450  139.0740 C   0  0  0  0  0  2  0  0  0  0  0  0
  189.2270  174.7280  141.4600 N   0  0  0  0  0  2  0  0  0  0  0  0
  188.1910  172.6660  139.6830 Cl  0  0  0  0  0  0  0  0  0  0  0  0
  192.7620  173.9050  136.0810 O   0  0  0  0  0  1  0  0  0  0  0  0
  191.1890  173.7050  140.5260 N   0  0  0  0  0  0  0  0  0  0  0  0
  191.8360  173.7690  138.3160 C   0  0  0  0  0  0  0  0  0  0  0  0
  185.2150  177.6160  146.2620 C   0  0  0  0  0  0  0  0  0  0  0  0
  185.5500  177.9010  144.8960 N   0  0  0  0  0  2  0  0  0  0  0  0
  185.8820  176.7920  146.9410 O   0  0  0  0  0  0  0  0  0  0  0  0
  184.0660  178.3180  146.8900 C   0  0  0  0  0  1  0  0  0  0  0  0
  2 12  2  0  0  0  0
  4 21  1  6  0  0  0
  4 11  1  0  0  0  0
  4  3  1  0  0  0  0
  5 27  1  0  0  0  0
  6  5  1  0  0  0  0
  6 25  1  0  0  0  0
  7 17  1  0  0  0  0
  9 28  1  0  0  0  0
 10  1  2  0  0  0  0
 11  3  1  1  0  0  0
 12  8  1  0  0  0  0
 13 12  1  6  0  0  0
 13 11  1  0  0  0  0
 14 23  1  6  0  0  0
 14 22  1  0  0  0  0
 15  9  2  0  0  0  0
 15 18  1  0  0  0  0
 16 20  2  0  0  0  0
 17  8  2  0  0  0  0
 17 10  1  0  0  0  0
 18  6  2  0  0  0  0
 19  7  2  0  0  0  0
 19 16  1  0  0  0  0
 20  1  1  0  0  0  0
 20 30  1  0  0  0  0
 22 21  1  1  0  0  0
 22 13  1  0  0  0  0
 24  2  1  0  0  0  0
 24  7  1  0  0  0  0
 26  9  1  0  0  0  0
 27 14  1  0  0  0  0
 27  2  1  0  0  0  0
 28 23  1  0  0  0  0
 28  5  2  0  0  0  0
 29 32  1  0  0  0  0
 29 31  2  0  0  0  0
 30 29  1  0  0  0  0
M  END
>  <MODEL>
7

>  <REMARK>
 VINA RESULT:      -7.5      2.649      7.814
  Name = 
  1 active torsions:
  status: ('A' for Active; 'I' for Inactive)
    1  A    between atoms: N_10  and  C_24
                            x       y       z     vdW  Elec       q    Type
                         _______ _______ _______ _____ _____    ______ ____

>  <TORSDO>
F 1

$$$$
=
 OpenBabel11052421253D

 32 38  0  0  1  0  0  0  0  0999 V2000
  189.5730  177.9140  144.9770 C   0  0  0  0  0  3  0  0  0  0  0  0
  192.4810  174.9530  142.0520 C   0  0  0  0  0  0  0  0  0  0  0  0
  196.8990  175.8010  143.8900 O   0  0  0  0  0  0  0  0  0  0  0  0
  196.7800  176.7430  142.8520 C   0  0  2  0  0  3  0  0  0  0  0  0
  192.6230  174.1660  139.6210 C   0  0  0  0  0  0  0  0  0  0  0  0
  191.4220  173.5000  139.3000 C   0  0  0  0  0  0  0  0  0  0  0  0
  190.4670  175.5650  143.2040 C   0  0  0  0  0  0  0  0  0  0  0  0
  192.7080  176.0940  144.2100 C   0  0  0  0  0  3  0  0  0  0  0  0
  193.1850  174.3820  137.2800 C   0  0  0  0  0  0  0  0  0  0  0  0
  190.8120  177.5560  144.6440 C   0  0  0  0  0  3  0  0  0  0  0  0
  195.6400  176.4160  143.7490 C   0  0  1  0  0  3  0  0  0  0  0  0
  193.2830  175.5580  143.1320 C   0  0  0  0  0  0  0  0  0  0  0  0
  194.7590  175.5130  142.9130 C   0  0  1  0  0  3  0  0  0  0  0  0
  194.6220  174.6980  140.7070 C   0  0  2  0  0  3  0  0  0  0  0  0
  191.9590  173.7970  136.9370 C   0  0  0  0  0  3  0  0  0  0  0  0
  188.2230  175.9590  144.2530 C   0  0  0  0  0  3  0  0  0  0  0  0
  191.2150  176.1440  144.3840 C   0  0  0  0  0  0  0  0  0  0  0  0
  191.0910  173.3410  137.9450 C   0  0  0  0  0  3  0  0  0  0  0  0
  189.1390  175.4480  143.2130 C   0  0  0  0  0  3  0  0  0  0  0  0
  188.4080  177.0120  145.0690 C   0  0  0  0  0  0  0  0  0  0  0  0
  196.4690  176.0410  141.5340 C   0  0  0  0  0  2  0  0  0  0  0  0
  195.0300  175.8430  141.5270 N   0  0  2  0  0  0  0  0  0  0  0  0
  194.7830  175.0130  139.2070 C   0  0  0  0  0  2  0  0  0  0  0  0
  191.1840  175.0000  142.0970 N   0  0  0  0  0  2  0  0  0  0  0  0
  190.4130  172.6970  140.4900 Cl  0  0  0  0  0  0  0  0  0  0  0  0
  194.0680  174.7910  136.2880 O   0  0  0  0  0  1  0  0  0  0  0  0
  193.1840  174.4070  140.9080 N   0  0  0  0  0  0  0  0  0  0  0  0
  193.5010  174.5330  138.6300 C   0  0  0  0  0  0  0  0  0  0  0  0
  186.3030  178.3220  145.7540 C   0  0  0  0  0  0  0  0  0  0  0  0
  187.3750  177.3990  145.9880 N   0  0  0  0  0  2  0  0  0  0  0  0
  186.1410  178.8680  144.6310 O   0  0  0  0  0  0  0  0  0  0  0  0
  185.3570  178.6320  146.8570 C   0  0  0  0  0  1  0  0  0  0  0  0
  1 20  1  0  0  0  0
  2 24  1  0  0  0  0
  2 12  2  0  0  0  0
  4 21  1  6  0  0  0
  4 11  1  0  0  0  0
  4  3  1  0  0  0  0
  5 27  1  0  0  0  0
  6  5  1  0  0  0  0
  6 25  1  0  0  0  0
  7 19  2  0  0  0  0
  7 17  1  0  0  0  0
  8 17  2  0  0  0  0
  9 28  1  0  0  0  0
 10  1  2  0  0  0  0
 11  3  1  1  0  0  0
 12  8  1  0  0  0  0
 13 12  1  1  0  0  0
 13 11  1  0  0  0  0
 14 23  1  6  0  0  0
 14 27  1  0  0  0  0
 14 22  1  0  0  0  0
 15  9  2  0  0  0  0
 15 18  1  0  0  0  0
 16 20  2  0  0  0  0
 17 10  1  0  0  0  0
 18  6  2  0  0  0  0
 19 16  1  0  0  0  0
 20 30  1  0  0  0  0
 22 21  1  1  0  0  0
 22 13  1  0  0  0  0
 24  7  1  0  0  0  0
 26  9  1  0  0  0  0
 27  2  1  0  0  0  0
 28 23  1  0  0  0  0
 28  5  2  0  0  0  0
 29 30  1  0  0  0  0
 29 32  1  0  0  0  0
 31 29  2  0  0  0  0
M  END
>  <MODEL>
8

>  <REMARK>
 VINA RESULT:      -7.5      3.651      8.163
  Name = 
  1 active torsions:
  status: ('A' for Active; 'I' for Inactive)
    1  A    between atoms: N_10  and  C_24
                            x       y       z     vdW  Elec       q    Type
                         _______ _______ _______ _____ _____    ______ ____

>  <TORSDO>
F 1

$$$$
=
 OpenBabel11052421253D

 32 38  0  0  1  0  0  0  0  0999 V2000
  187.8400  176.0210  144.0620 C   0  0  0  0  0  3  0  0  0  0  0  0
  192.4920  174.4100  142.8230 C   0  0  0  0  0  0  0  0  0  0  0  0
  191.5600  171.6150  138.9580 O   0  0  0  0  0  0  0  0  0  0  0  0
  191.5170  170.7180  140.0400 C   0  0  2  0  0  3  0  0  0  0  0  0
  194.6740  173.7150  143.9660 C   0  0  0  0  0  0  0  0  0  0  0  0
  195.1320  174.7990  144.7420 C   0  0  0  0  0  0  0  0  0  0  0  0
  190.8940  175.9700  143.7010 C   0  0  0  0  0  0  0  0  0  0  0  0
  190.3010  174.5270  141.7300 C   0  0  0  0  0  3  0  0  0  0  0  0
  196.1440  172.1940  145.1350 C   0  0  0  0  0  0  0  0  0  0  0  0
  188.5660  175.2130  143.2930 C   0  0  0  0  0  3  0  0  0  0  0  0
  190.9490  172.0880  140.1340 C   0  0  1  0  0  3  0  0  0  0  0  0
  191.5090  173.9660  141.8180 C   0  0  0  0  0  0  0  0  0  0  0  0
  191.9780  172.8620  140.9300 C   0  0  1  0  0  3  0  0  0  0  0  0
  193.9790  172.4750  142.1110 C   0  0  2  0  0  3  0  0  0  0  0  0
  196.5520  173.2400  145.9720 C   0  0  0  0  0  3  0  0  0  0  0  0
  189.4760  177.7700  144.7190 C   0  0  0  0  0  3  0  0  0  0  0  0
  189.8540  175.6210  142.6600 C   0  0  1  0  0  3  0  0  0  0  0  0
  196.0610  174.5410  145.7630 C   0  0  0  0  0  3  0  0  0  0  0  0
  190.7090  176.9720  144.5590 C   0  0  0  0  0  3  0  0  0  0  0  0
  188.2110  177.3920  144.4680 C   0  0  0  0  0  0  0  0  0  0  0  0
  192.8250  170.7700  140.8230 C   0  0  0  0  0  2  0  0  0  0  0  0
  192.6870  171.8890  141.7380 N   0  0  2  0  0  0  0  0  0  0  0  0
  194.7520  171.5400  143.0620 C   0  0  0  0  0  2  0  0  0  0  0  0
  192.1690  175.3130  143.6990 N   0  0  0  0  0  0  0  0  0  0  0  0
  194.7500  176.4750  144.3870 Cl  0  0  0  0  0  0  0  0  0  0  0  0
  196.6630  170.9170  145.3060 O   0  0  0  0  0  1  0  0  0  0  0  0
  193.7750  173.7370  142.8600 N   0  0  0  0  0  0  0  0  0  0  0  0
  195.2220  172.4650  144.1240 C   0  0  0  0  0  0  0  0  0  0  0  0
  186.2600  178.9230  143.7840 C   0  0  0  0  0  0  0  0  0  0  0  0
  187.1240  178.2910  144.7380 N   0  0  0  0  0  2  0  0  0  0  0  0
  186.3600  178.6860  142.5520 O   0  0  0  0  0  0  0  0  0  0  0  0
  185.2180  179.8680  144.2630 C   0  0  0  0  0  1  0  0  0  0  0  0
  1 20  1  0  0  0  0
  2 27  1  0  0  0  0
  2 24  2  0  0  0  0
  3  4  1  0  0  0  0
  4 11  1  0  0  0  0
  4 21  1  1  0  0  0
  5 28  2  0  0  0  0
  5  6  1  0  0  0  0
  6 18  2  0  0  0  0
  7 19  2  0  0  0  0
  8 12  2  0  0  0  0
  9 26  1  0  0  0  0
  9 15  2  0  0  0  0
 10  1  2  0  0  0  0
 11  3  1  6  0  0  0
 11 13  1  0  0  0  0
 12  2  1  0  0  0  0
 13 22  1  0  0  0  0
 13 12  1  1  0  0  0
 14 27  1  0  0  0  0
 14 23  1  1  0  0  0
 17  8  1  1  0  0  0
 17 10  1  0  0  0  0
 17  7  1  0  0  0  0
 18 15  1  0  0  0  0
 19 16  1  0  0  0  0
 20 16  2  0  0  0  0
 20 30  1  0  0  0  0
 22 21  1  6  0  0  0
 22 14  1  0  0  0  0
 23 28  1  0  0  0  0
 24  7  1  0  0  0  0
 25  6  1  0  0  0  0
 27  5  1  0  0  0  0
 28  9  1  0  0  0  0
 29 32  1  0  0  0  0
 29 30  1  0  0  0  0
 31 29  2  0  0  0  0
M  END
>  <MODEL>
9

>  <REMARK>
 VINA RESULT:      -7.4      3.608      8.338
  Name = 
  1 active torsions:
  status: ('A' for Active; 'I' for Inactive)
    1  A    between atoms: N_10  and  C_24
                            x       y       z     vdW  Elec       q    Type
                         _______ _______ _______ _____ _____    ______ ____

>  <TORSDO>
F 1

$$$$
