=
 OpenBabel11052418273D

 27 30  0  0  1  0  0  0  0  0999 V2000
  190.0490  175.6720  145.9400 C   0  0  1  0  0  3  0  0  0  0  0  0
  189.0170  176.6050  145.4680 N   0  0  0  0  0  0  0  0  0  0  0  0
  187.5260  175.9430  147.1470 O   0  0  0  0  0  0  0  0  0  0  0  0
  185.7640  178.6260  143.4270 C   0  0  0  0  0  2  0  0  0  0  0  0
  184.4010  178.5370  144.1300 C   0  0  0  0  0  2  0  0  0  0  0  0
  189.3160  177.5910  144.4250 C   0  0  0  0  0  2  0  0  0  0  0  0
  185.4160  177.6290  146.2660 C   0  0  1  0  0  3  0  0  0  0  0  0
  184.6270  176.5620  146.6550 F   0  0  0  0  0  0  0  0  0  0  0  0
  186.5220  177.1280  145.3180 C   0  0  1  0  0  3  0  0  0  0  0  0
  184.5310  178.7200  145.6430 C   0  0  0  0  0  2  0  0  0  0  0  0
  186.9360  178.2270  144.3300 C   0  0  1  0  0  3  0  0  0  0  0  0
  187.7050  176.5600  146.0610 C   0  0  0  0  0  0  0  0  0  0  0  0
  188.1260  177.7850  143.4970 C   0  0  0  0  0  2  0  0  0  0  0  0
  189.6790  174.1970  145.7300 C   0  0  0  0  0  2  0  0  0  0  0  0
  189.6250  172.3520  141.5050 C   0  0  0  0  0  3  0  0  0  0  0  0
  190.2610  171.3620  142.1460 C   0  0  0  0  0  3  0  0  0  0  0  0
  190.1470  173.6450  144.3920 C   0  0  1  0  0  3  0  0  0  0  0  0
  189.7110  173.7910  141.9220 C   0  0  0  0  0  2  0  0  0  0  0  0
  191.1280  171.5830  143.3510 C   0  0  0  0  0  2  0  0  0  0  0  0
  190.3180  172.1360  144.5160 C   0  0  0  0  0  2  0  0  0  0  0  0
  189.1260  173.9950  143.3140 C   0  0  0  0  0  2  0  0  0  0  0  0
  191.4860  176.0540  145.5540 C   0  0  0  0  0  2  0  0  0  0  0  0
  194.7900  176.0880  146.2920 O   0  0  0  0  0  0  0  0  0  0  0  0
  193.3310  174.4590  145.8980 C   0  0  0  0  0  3  0  0  0  0  0  0
  194.5950  174.8170  145.7890 C   0  0  0  0  0  3  0  0  0  0  0  0
  193.5810  176.6430  146.7770 C   0  0  0  0  0  2  0  0  0  0  0  0
  192.5400  175.5530  146.5340 C   0  0  1  0  0  3  0  0  0  0  0  0
  1 22  1  6  0  0  0
  2  1  1  0  0  0  0
  2 12  1  0  0  0  0
  4  5  1  0  0  0  0
  5 10  1  0  0  0  0
  6  2  1  0  0  0  0
  7  8  1  6  0  0  0
  9 12  1  1  0  0  0
  9  7  1  0  0  0  0
 10  7  1  0  0  0  0
 11  4  1  6  0  0  0
 11  9  1  0  0  0  0
 12  3  2  0  0  0  0
 13 11  1  0  0  0  0
 13  6  1  0  0  0  0
 14  1  1  0  0  0  0
 15 18  1  0  0  0  0
 15 16  2  0  0  0  0
 16 19  1  0  0  0  0
 17 20  1  0  0  0  0
 17 14  1  1  0  0  0
 18 21  1  0  0  0  0
 19 20  1  0  0  0  0
 21 17  1  0  0  0  0
 23 26  1  0  0  0  0
 24 27  1  0  0  0  0
 25 24  2  0  0  0  0
 25 23  1  0  0  0  0
 27 22  1  6  0  0  0
 27 26  1  0  0  0  0
M  END
>  <MODEL>
1

>  <REMARK>
 VINA RESULT:      -7.7      0.000      0.000
  Name = 
  5 active torsions:
  status: ('A' for Active; 'I' for Inactive)
    1  A    between atoms: C_1  and  C_15
    2  A    between atoms: C_1  and  C_18
    3  A    between atoms: N_2  and  C_15
    4  A    between atoms: C_9  and  C_15
    5  A    between atoms: C_9  and  C_27
                            x       y       z     vdW  Elec       q    Type
                         _______ _______ _______ _____ _____    ______ ____

>  <TORSDO>
F 5

$$$$
=
 OpenBabel11052418273D

 27 30  0  0  1  0  0  0  0  0999 V2000
  189.6840  176.1460  143.2880 C   0  0  1  0  0  3  0  0  0  0  0  0
  188.6390  176.4000  144.2890 N   0  0  0  0  0  0  0  0  0  0  0  0
  187.5500  177.9310  142.8920 O   0  0  0  0  0  0  0  0  0  0  0  0
  186.2310  177.7850  147.6220 C   0  0  0  0  0  2  0  0  0  0  0  0
  185.2220  178.8930  147.2800 C   0  0  0  0  0  2  0  0  0  0  0  0
  188.5540  175.5910  145.5080 C   0  0  0  0  0  2  0  0  0  0  0  0
  185.5350  178.5840  144.7850 C   0  0  1  0  0  3  0  0  0  0  0  0
  185.6760  179.8500  144.2460 F   0  0  0  0  0  0  0  0  0  0  0  0
  186.9170  178.0500  145.2030 C   0  0  1  0  0  3  0  0  0  0  0  0
  184.5260  178.6310  145.9430 C   0  0  0  0  0  2  0  0  0  0  0  0
  186.7950  177.0790  146.3850 C   0  0  1  0  0  3  0  0  0  0  0  0
  187.6760  177.4440  144.0490 C   0  0  0  0  0  0  0  0  0  0  0  0
  188.1350  176.4380  146.7010 C   0  0  0  0  0  2  0  0  0  0  0  0
  190.9820  176.9220  143.5510 C   0  0  0  0  0  2  0  0  0  0  0  0
  194.4190  175.7000  146.3710 C   0  0  0  0  0  3  0  0  0  0  0  0
  195.0600  175.5580  145.2030 C   0  0  0  0  0  3  0  0  0  0  0  0
  192.0480  176.0910  144.2490 C   0  0  1  0  0  3  0  0  0  0  0  0
  192.9390  175.5100  146.5260 C   0  0  0  0  0  2  0  0  0  0  0  0
  194.3690  175.1950  143.9220 C   0  0  0  0  0  2  0  0  0  0  0  0
  193.3700  176.2690  143.5140 C   0  0  0  0  0  2  0  0  0  0  0  0
  192.1650  176.5330  145.7040 C   0  0  0  0  0  2  0  0  0  0  0  0
  189.8630  174.6690  142.9060 C   0  0  0  0  0  2  0  0  0  0  0  0
  188.9270  172.7920  140.2480 O   0  0  0  0  0  0  0  0  0  0  0  0
  188.4190  174.8490  140.9200 C   0  0  0  0  0  3  0  0  0  0  0  0
  188.5780  174.0730  139.8660 C   0  0  0  0  0  3  0  0  0  0  0  0
  189.0170  172.6800  141.6560 C   0  0  0  0  0  2  0  0  0  0  0  0
  188.6680  174.0750  142.1710 C   0  0  1  0  0  3  0  0  0  0  0  0
  1 22  1  1  0  0  0
  1 14  1  0  0  0  0
  1  2  1  0  0  0  0
  2  6  1  0  0  0  0
  3 12  2  0  0  0  0
  5  4  1  0  0  0  0
  6 13  1  0  0  0  0
  7  8  1  1  0  0  0
  7  9  1  0  0  0  0
  7 10  1  0  0  0  0
  9 12  1  6  0  0  0
  9 11  1  0  0  0  0
 10  5  1  0  0  0  0
 11 13  1  1  0  0  0
 11  4  1  0  0  0  0
 12  2  1  0  0  0  0
 15 18  1  0  0  0  0
 16 15  2  0  0  0  0
 17 14  1  6  0  0  0
 17 21  1  0  0  0  0
 19 16  1  0  0  0  0
 20 19  1  0  0  0  0
 20 17  1  0  0  0  0
 21 18  1  0  0  0  0
 23 26  1  0  0  0  0
 24 27  1  0  0  0  0
 25 23  1  0  0  0  0
 25 24  2  0  0  0  0
 26 27  1  0  0  0  0
 27 22  1  6  0  0  0
M  END
>  <MODEL>
2

>  <REMARK>
 VINA RESULT:      -7.7      2.425      4.952
  Name = 
  5 active torsions:
  status: ('A' for Active; 'I' for Inactive)
    1  A    between atoms: C_1  and  C_15
    2  A    between atoms: C_1  and  C_18
    3  A    between atoms: N_2  and  C_15
    4  A    between atoms: C_9  and  C_15
    5  A    between atoms: C_9  and  C_27
                            x       y       z     vdW  Elec       q    Type
                         _______ _______ _______ _____ _____    ______ ____

>  <TORSDO>
F 5

$$$$
=
 OpenBabel11052418273D

 27 30  0  0  1  0  0  0  0  0999 V2000
  189.3920  176.6600  144.3140 C   0  0  1  0  0  3  0  0  0  0  0  0
  190.7710  176.5660  144.8110 N   0  0  0  0  0  0  0  0  0  0  0  0
  191.6270  176.2960  142.6490 O   0  0  0  0  0  0  0  0  0  0  0  0
  194.5980  175.3290  146.4400 C   0  0  0  0  0  2  0  0  0  0  0  0
  195.6730  174.9950  145.3940 C   0  0  0  0  0  2  0  0  0  0  0  0
  191.0820  176.8350  146.2190 C   0  0  0  0  0  2  0  0  0  0  0  0
  194.3200  175.9930  143.4980 C   0  0  1  0  0  3  0  0  0  0  0  0
  194.3690  175.0830  142.4580 F   0  0  0  0  0  0  0  0  0  0  0  0
  193.1260  175.6620  144.4120 C   0  0  1  0  0  3  0  0  0  0  0  0
  195.6670  175.9970  144.2380 C   0  0  0  0  0  2  0  0  0  0  0  0
  193.4050  176.0940  145.8570 C   0  0  1  0  0  3  0  0  0  0  0  0
  191.8280  176.2280  143.8930 C   0  0  0  0  0  0  0  0  0  0  0  0
  192.1740  175.9050  146.7260 C   0  0  0  0  0  2  0  0  0  0  0  0
  188.3450  176.1570  145.3170 C   0  0  0  0  0  2  0  0  0  0  0  0
  184.9830  178.4120  147.5230 C   0  0  0  0  0  3  0  0  0  0  0  0
  184.3020  178.0680  146.4220 C   0  0  0  0  0  3  0  0  0  0  0  0
  187.2890  177.1990  145.6570 C   0  0  1  0  0  3  0  0  0  0  0  0
  186.4640  178.6510  147.5340 C   0  0  0  0  0  2  0  0  0  0  0  0
  184.9450  177.8820  145.0790 C   0  0  0  0  0  2  0  0  0  0  0  0
  185.9480  176.7360  145.1050 C   0  0  0  0  0  2  0  0  0  0  0  0
  187.2270  177.3840  147.1700 C   0  0  0  0  0  2  0  0  0  0  0  0
  189.0510  177.9840  143.6110 C   0  0  0  0  0  2  0  0  0  0  0  0
  186.3600  177.2970  141.6750 O   0  0  0  0  0  0  0  0  0  0  0  0
  188.3640  176.3620  141.8910 C   0  0  0  0  0  3  0  0  0  0  0  0
  187.0960  176.1310  141.6130 C   0  0  0  0  0  3  0  0  0  0  0  0
  187.1730  178.4030  142.0210 C   0  0  0  0  0  2  0  0  0  0  0  0
  188.5720  177.8120  142.1750 C   0  0  1  0  0  3  0  0  0  0  0  0
  1 22  1  1  0  0  0
  1  2  1  0  0  0  0
  1 14  1  0  0  0  0
  2  6  1  0  0  0  0
  3 12  2  0  0  0  0
  5  4  1  0  0  0  0
  6 13  1  0  0  0  0
  7  8  1  6  0  0  0
  7 10  1  0  0  0  0
  7  9  1  0  0  0  0
  9 12  1  6  0  0  0
  9 11  1  0  0  0  0
 10  5  1  0  0  0  0
 11  4  1  1  0  0  0
 11 13  1  0  0  0  0
 12  2  1  0  0  0  0
 15 18  1  0  0  0  0
 16 15  2  0  0  0  0
 17 14  1  1  0  0  0
 17 21  1  0  0  0  0
 19 20  1  0  0  0  0
 19 16  1  0  0  0  0
 20 17  1  0  0  0  0
 21 18  1  0  0  0  0
 23 26  1  0  0  0  0
 24 27  1  0  0  0  0
 25 23  1  0  0  0  0
 25 24  2  0  0  0  0
 26 27  1  0  0  0  0
 27 22  1  1  0  0  0
M  END
>  <MODEL>
3

>  <REMARK>
 VINA RESULT:      -7.7      3.427      7.573
  Name = 
  5 active torsions:
  status: ('A' for Active; 'I' for Inactive)
    1  A    between atoms: C_1  and  C_15
    2  A    between atoms: C_1  and  C_18
    3  A    between atoms: N_2  and  C_15
    4  A    between atoms: C_9  and  C_15
    5  A    between atoms: C_9  and  C_27
                            x       y       z     vdW  Elec       q    Type
                         _______ _______ _______ _____ _____    ______ ____

>  <TORSDO>
F 5

$$$$
=
 OpenBabel11052418273D

 27 30  0  0  1  0  0  0  0  0999 V2000
  188.4920  176.5770  143.1720 C   0  0  1  0  0  3  0  0  0  0  0  0
  189.9000  176.5310  143.5870 N   0  0  0  0  0  0  0  0  0  0  0  0
  189.4320  175.0320  145.3240 O   0  0  0  0  0  0  0  0  0  0  0  0
  193.8230  177.2350  145.3040 C   0  0  0  0  0  2  0  0  0  0  0  0
  194.1240  176.4410  146.5840 C   0  0  0  0  0  2  0  0  0  0  0  0
  190.9430  177.1680  142.7770 C   0  0  0  0  0  2  0  0  0  0  0  0
  192.1030  174.9430  146.2850 C   0  0  1  0  0  3  0  0  0  0  0  0
  191.4790  174.8730  147.5170 F   0  0  0  0  0  0  0  0  0  0  0  0
  191.5490  176.1460  145.4990 C   0  0  1  0  0  3  0  0  0  0  0  0
  193.6260  174.9980  146.4850 C   0  0  0  0  0  2  0  0  0  0  0  0
  192.6060  176.7060  144.5380 C   0  0  1  0  0  3  0  0  0  0  0  0
  190.2550  175.8280  144.7940 C   0  0  0  0  0  0  0  0  0  0  0  0
  192.0160  177.7930  143.6570 C   0  0  0  0  0  2  0  0  0  0  0  0
  187.8090  177.9160  143.4800 C   0  0  0  0  0  2  0  0  0  0  0  0
  183.9640  178.8490  145.8500 C   0  0  0  0  0  3  0  0  0  0  0  0
  184.4710  177.9050  146.6550 C   0  0  0  0  0  3  0  0  0  0  0  0
  186.4440  177.7580  144.1350 C   0  0  1  0  0  3  0  0  0  0  0  0
  184.2120  178.8870  144.3700 C   0  0  0  0  0  2  0  0  0  0  0  0
  185.3400  176.7840  146.1670 C   0  0  0  0  0  2  0  0  0  0  0  0
  186.6410  177.3140  145.5790 C   0  0  0  0  0  2  0  0  0  0  0  0
  185.6910  179.0830  144.0650 C   0  0  0  0  0  2  0  0  0  0  0  0
  188.2130  175.9980  141.7760 C   0  0  0  0  0  2  0  0  0  0  0  0
  188.0310  172.9970  140.2190 O   0  0  0  0  0  0  0  0  0  0  0  0
  188.4160  173.6050  142.3210 C   0  0  0  0  0  3  0  0  0  0  0  0
  187.9000  172.6670  141.5530 C   0  0  0  0  0  3  0  0  0  0  0  0
  188.6760  174.2470  140.0580 C   0  0  0  0  0  2  0  0  0  0  0  0
  188.9700  174.7090  141.4830 C   0  0  1  0  0  3  0  0  0  0  0  0
  1 22  1  6  0  0  0
  1 14  1  0  0  0  0
  1  2  1  0  0  0  0
  2 12  1  0  0  0  0
  4  5  1  0  0  0  0
  6  2  1  0  0  0  0
  6 13  1  0  0  0  0
  7 10  1  0  0  0  0
  7  8  1  1  0  0  0
  9 12  1  6  0  0  0
  9  7  1  0  0  0  0
 10  5  1  0  0  0  0
 11 13  1  1  0  0  0
 11  4  1  0  0  0  0
 11  9  1  0  0  0  0
 12  3  2  0  0  0  0
 15 16  2  0  0  0  0
 17 14  1  1  0  0  0
 17 20  1  0  0  0  0
 18 15  1  0  0  0  0
 19 16  1  0  0  0  0
 20 19  1  0  0  0  0
 21 17  1  0  0  0  0
 21 18  1  0  0  0  0
 23 25  1  0  0  0  0
 25 24  2  0  0  0  0
 26 23  1  0  0  0  0
 26 27  1  0  0  0  0
 27 22  1  1  0  0  0
 27 24  1  0  0  0  0
M  END
>  <MODEL>
4

>  <REMARK>
 VINA RESULT:      -7.6      2.458      6.879
  Name = 
  5 active torsions:
  status: ('A' for Active; 'I' for Inactive)
    1  A    between atoms: C_1  and  C_15
    2  A    between atoms: C_1  and  C_18
    3  A    between atoms: N_2  and  C_15
    4  A    between atoms: C_9  and  C_15
    5  A    between atoms: C_9  and  C_27
                            x       y       z     vdW  Elec       q    Type
                         _______ _______ _______ _____ _____    ______ ____

>  <TORSDO>
F 5

$$$$
=
 OpenBabel11052418273D

 27 30  0  0  1  0  0  0  0  0999 V2000
  189.8790  175.5400  145.1450 C   0  0  1  0  0  3  0  0  0  0  0  0
  188.5830  176.2200  145.2620 N   0  0  0  0  0  0  0  0  0  0  0  0
  188.5770  176.7900  142.9910 O   0  0  0  0  0  0  0  0  0  0  0  0
  185.3140  178.9960  145.9280 C   0  0  0  0  0  2  0  0  0  0  0  0
  184.8240  179.7360  144.6730 C   0  0  0  0  0  2  0  0  0  0  0  0
  187.7980  176.1340  146.4970 C   0  0  0  0  0  2  0  0  0  0  0  0
  186.1280  178.2240  143.1140 C   0  0  1  0  0  3  0  0  0  0  0  0
  186.7600  179.0490  142.2020 F   0  0  0  0  0  0  0  0  0  0  0  0
  187.0340  178.0320  144.3450 C   0  0  1  0  0  3  0  0  0  0  0  0
  184.7490  178.8060  143.4610 C   0  0  0  0  0  2  0  0  0  0  0  0
  186.1980  177.7860  145.6080 C   0  0  1  0  0  3  0  0  0  0  0  0
  188.0730  176.9590  144.1350 C   0  0  0  0  0  0  0  0  0  0  0  0
  187.0900  177.4490  146.7900 C   0  0  0  0  0  2  0  0  0  0  0  0
  191.0700  176.4260  145.5350 C   0  0  0  0  0  2  0  0  0  0  0  0
  195.6140  175.9030  144.9490 C   0  0  0  0  0  3  0  0  0  0  0  0
  195.2470  175.9130  143.6610 C   0  0  0  0  0  3  0  0  0  0  0  0
  192.4160  175.8230  145.1580 C   0  0  1  0  0  3  0  0  0  0  0  0
  194.7270  175.4090  146.0540 C   0  0  0  0  0  2  0  0  0  0  0  0
  193.9090  175.4310  143.1800 C   0  0  0  0  0  2  0  0  0  0  0  0
  192.7820  176.2810  143.7530 C   0  0  0  0  0  2  0  0  0  0  0  0
  193.4690  176.2610  146.1710 C   0  0  0  0  0  2  0  0  0  0  0  0
  189.9080  174.1100  145.7060 C   0  0  0  0  0  2  0  0  0  0  0  0
  191.6790  172.6940  143.1920 O   0  0  0  0  0  0  0  0  0  0  0  0
  189.6800  173.6580  143.2960 C   0  0  0  0  0  3  0  0  0  0  0  0
  190.7250  173.4350  142.5240 C   0  0  0  0  0  3  0  0  0  0  0  0
  191.2660  172.3890  144.5110 C   0  0  0  0  0  2  0  0  0  0  0  0
  189.8840  173.0280  144.6330 C   0  0  1  0  0  3  0  0  0  0  0  0
  1  2  1  0  0  0  0
  1 14  1  1  0  0  0
  1 22  1  0  0  0  0
  2  6  1  0  0  0  0
  3 12  2  0  0  0  0
  5  4  1  0  0  0  0
  6 13  1  0  0  0  0
  7  8  1  6  0  0  0
  7 10  1  0  0  0  0
  7  9  1  0  0  0  0
  9 12  1  6  0  0  0
  9 11  1  0  0  0  0
 10  5  1  0  0  0  0
 11  4  1  1  0  0  0
 11 13  1  0  0  0  0
 12  2  1  0  0  0  0
 15 18  1  0  0  0  0
 16 15  2  0  0  0  0
 17 14  1  1  0  0  0
 17 21  1  0  0  0  0
 18 21  1  0  0  0  0
 19 16  1  0  0  0  0
 19 20  1  0  0  0  0
 20 17  1  0  0  0  0
 23 26  1  0  0  0  0
 24 27  1  0  0  0  0
 25 23  1  0  0  0  0
 25 24  2  0  0  0  0
 26 27  1  0  0  0  0
 27 22  1  1  0  0  0
M  END
>  <MODEL>
5

>  <REMARK>
 VINA RESULT:      -7.4      2.078      4.234
  Name = 
  5 active torsions:
  status: ('A' for Active; 'I' for Inactive)
    1  A    between atoms: C_1  and  C_15
    2  A    between atoms: C_1  and  C_18
    3  A    between atoms: N_2  and  C_15
    4  A    between atoms: C_9  and  C_15
    5  A    between atoms: C_9  and  C_27
                            x       y       z     vdW  Elec       q    Type
                         _______ _______ _______ _____ _____    ______ ____

>  <TORSDO>
F 5

$$$$
=
 OpenBabel11052418273D

 27 30  0  0  1  0  0  0  0  0999 V2000
  189.0800  176.4450  144.3690 C   0  0  1  0  0  3  0  0  0  0  0  0
  190.4190  175.8510  144.4750 N   0  0  0  0  0  0  0  0  0  0  0  0
  189.6280  173.7380  143.8520 O   0  0  0  0  0  0  0  0  0  0  0  0
  194.1440  174.0350  145.7630 C   0  0  0  0  0  2  0  0  0  0  0  0
  194.2240  172.5130  145.5730 C   0  0  0  0  0  2  0  0  0  0  0  0
  191.5990  176.6930  144.6940 C   0  0  0  0  0  2  0  0  0  0  0  0
  192.1460  172.4530  144.1260 C   0  0  1  0  0  3  0  0  0  0  0  0
  191.3720  171.4060  144.5900 F   0  0  0  0  0  0  0  0  0  0  0  0
  191.7870  173.7360  144.8980 C   0  0  1  0  0  3  0  0  0  0  0  0
  193.6330  172.0780  144.2320 C   0  0  0  0  0  2  0  0  0  0  0  0
  192.9930  174.6800  144.9830 C   0  0  1  0  0  3  0  0  0  0  0  0
  190.5680  174.4250  144.3370 C   0  0  0  0  0  0  0  0  0  0  0  0
  192.6000  176.0060  145.6110 C   0  0  0  0  0  2  0  0  0  0  0  0
  188.2360  176.2790  145.6400 C   0  0  0  0  0  2  0  0  0  0  0  0
  184.6620  178.6770  147.2940 C   0  0  0  0  0  3  0  0  0  0  0  0
  184.1040  178.2490  146.1540 C   0  0  0  0  0  3  0  0  0  0  0  0
  187.1530  177.3390  145.7840 C   0  0  1  0  0  3  0  0  0  0  0  0
  186.1340  178.9230  147.4480 C   0  0  0  0  0  2  0  0  0  0  0  0
  184.8880  177.9670  144.9070 C   0  0  0  0  0  2  0  0  0  0  0  0
  185.8780  176.8300  145.1260 C   0  0  0  0  0  2  0  0  0  0  0  0
  186.9280  177.6350  147.2640 C   0  0  0  0  0  2  0  0  0  0  0  0
  189.0450  177.8420  143.7300 C   0  0  0  0  0  2  0  0  0  0  0  0
  186.3510  177.6600  141.6870 O   0  0  0  0  0  0  0  0  0  0  0  0
  188.2090  176.4560  141.8730 C   0  0  0  0  0  3  0  0  0  0  0  0
  186.9320  176.4150  141.5510 C   0  0  0  0  0  3  0  0  0  0  0  0
  187.2890  178.6210  142.1350 C   0  0  0  0  0  2  0  0  0  0  0  0
  188.5940  177.8410  142.2740 C   0  0  1  0  0  3  0  0  0  0  0  0
  1 22  1  1  0  0  0
  1  2  1  0  0  0  0
  1 14  1  0  0  0  0
  2  6  1  0  0  0  0
  3 12  2  0  0  0  0
  5  4  1  0  0  0  0
  6 13  1  0  0  0  0
  7 10  1  0  0  0  0
  7  8  1  1  0  0  0
  7  9  1  0  0  0  0
  9 12  1  6  0  0  0
  9 11  1  0  0  0  0
 10  5  1  0  0  0  0
 11 13  1  1  0  0  0
 11  4  1  0  0  0  0
 12  2  1  0  0  0  0
 15 18  1  0  0  0  0
 16 15  2  0  0  0  0
 17 14  1  1  0  0  0
 17 21  1  0  0  0  0
 19 20  1  0  0  0  0
 19 16  1  0  0  0  0
 20 17  1  0  0  0  0
 21 18  1  0  0  0  0
 23 26  1  0  0  0  0
 24 27  1  0  0  0  0
 25 23  1  0  0  0  0
 25 24  2  0  0  0  0
 26 27  1  0  0  0  0
 27 22  1  1  0  0  0
M  END
>  <MODEL>
6

>  <REMARK>
 VINA RESULT:      -7.4      2.743      7.391
  Name = 
  5 active torsions:
  status: ('A' for Active; 'I' for Inactive)
    1  A    between atoms: C_1  and  C_15
    2  A    between atoms: C_1  and  C_18
    3  A    between atoms: N_2  and  C_15
    4  A    between atoms: C_9  and  C_15
    5  A    between atoms: C_9  and  C_27
                            x       y       z     vdW  Elec       q    Type
                         _______ _______ _______ _____ _____    ______ ____

>  <TORSDO>
F 5

$$$$
=
 OpenBabel11052418273D

 27 30  0  0  1  0  0  0  0  0999 V2000
  189.0930  176.3810  144.0020 C   0  0  1  0  0  3  0  0  0  0  0  0
  190.2320  175.6770  144.6070 N   0  0  0  0  0  0  0  0  0  0  0  0
  191.6260  177.5420  144.3650 O   0  0  0  0  0  0  0  0  0  0  0  0
  193.7140  173.2330  145.4650 C   0  0  0  0  0  2  0  0  0  0  0  0
  195.0540  173.9850  145.4570 C   0  0  0  0  0  2  0  0  0  0  0  0
  190.0590  174.3590  145.2240 C   0  0  0  0  0  2  0  0  0  0  0  0
  193.9280  176.2540  145.4190 C   0  0  1  0  0  3  0  0  0  0  0  0
  194.5810  177.0010  144.4560 F   0  0  0  0  0  0  0  0  0  0  0  0
  192.7730  175.4730  144.7650 C   0  0  1  0  0  3  0  0  0  0  0  0
  194.9410  175.3490  146.1380 C   0  0  0  0  0  2  0  0  0  0  0  0
  192.4990  174.1660  145.5190 C   0  0  1  0  0  3  0  0  0  0  0  0
  191.5270  176.3090  144.6090 C   0  0  0  0  0  0  0  0  0  0  0  0
  191.2670  173.4700  144.9680 C   0  0  0  0  0  2  0  0  0  0  0  0
  188.5680  177.5400  144.8590 C   0  0  0  0  0  2  0  0  0  0  0  0
  184.1940  178.8620  145.4780 C   0  0  0  0  0  3  0  0  0  0  0  0
  184.4000  178.2910  146.6730 C   0  0  0  0  0  3  0  0  0  0  0  0
  187.0640  177.4880  145.0830 C   0  0  1  0  0  3  0  0  0  0  0  0
  184.8950  178.4250  144.2260 C   0  0  0  0  0  2  0  0  0  0  0  0
  185.3550  177.1540  146.8900 C   0  0  0  0  0  2  0  0  0  0  0  0
  186.7860  177.5720  146.5780 C   0  0  0  0  0  2  0  0  0  0  0  0
  186.3990  178.6400  144.3350 C   0  0  0  0  0  2  0  0  0  0  0  0
  189.2470  176.6830  142.5040 C   0  0  0  0  0  2  0  0  0  0  0  0
  187.8640  173.5940  142.3880 O   0  0  0  0  0  0  0  0  0  0  0  0
  189.5120  174.5730  141.2620 C   0  0  0  0  0  3  0  0  0  0  0  0
  189.0670  173.4240  141.7320 C   0  0  0  0  0  3  0  0  0  0  0  0
  187.4550  174.9500  142.3710 C   0  0  0  0  0  2  0  0  0  0  0  0
  188.5570  175.6700  141.5980 C   0  0  1  0  0  3  0  0  0  0  0  0
  1 22  1  6  0  0  0
  1  2  1  0  0  0  0
  1 14  1  0  0  0  0
  2 12  1  0  0  0  0
  2  6  1  0  0  0  0
  3 12  2  0  0  0  0
  4 11  1  0  0  0  0
  5  4  1  0  0  0  0
  5 10  1  0  0  0  0
  7  8  1  6  0  0  0
  7 10  1  0  0  0  0
  9 12  1  1  0  0  0
  9  7  1  0  0  0  0
  9 11  1  0  0  0  0
 11 13  1  6  0  0  0
 13  6  1  0  0  0  0
 15 16  2  0  0  0  0
 16 19  1  0  0  0  0
 17 14  1  1  0  0  0
 17 20  1  0  0  0  0
 18 21  1  0  0  0  0
 18 15  1  0  0  0  0
 20 19  1  0  0  0  0
 21 17  1  0  0  0  0
 24 27  1  0  0  0  0
 24 25  2  0  0  0  0
 25 23  1  0  0  0  0
 26 23  1  0  0  0  0
 27 26  1  0  0  0  0
 27 22  1  1  0  0  0
M  END
>  <MODEL>
7

>  <REMARK>
 VINA RESULT:      -7.3      2.650      7.247
  Name = 
  5 active torsions:
  status: ('A' for Active; 'I' for Inactive)
    1  A    between atoms: C_1  and  C_15
    2  A    between atoms: C_1  and  C_18
    3  A    between atoms: N_2  and  C_15
    4  A    between atoms: C_9  and  C_15
    5  A    between atoms: C_9  and  C_27
                            x       y       z     vdW  Elec       q    Type
                         _______ _______ _______ _____ _____    ______ ____

>  <TORSDO>
F 5

$$$$
=
 OpenBabel11052418273D

 27 30  0  0  1  0  0  0  0  0999 V2000
  190.5070  174.9650  145.3720 C   0  0  1  0  0  3  0  0  0  0  0  0
  189.5480  176.0640  145.2070 N   0  0  0  0  0  0  0  0  0  0  0  0
  188.3910  175.4640  147.1520 O   0  0  0  0  0  0  0  0  0  0  0  0
  186.2570  178.6670  144.0980 C   0  0  0  0  0  2  0  0  0  0  0  0
  185.0890  178.7000  145.0970 C   0  0  0  0  0  2  0  0  0  0  0  0
  189.7470  177.0870  144.1760 C   0  0  0  0  0  2  0  0  0  0  0  0
  186.4130  177.4850  146.8830 C   0  0  1  0  0  3  0  0  0  0  0  0
  185.5820  176.5030  147.3900 F   0  0  0  0  0  0  0  0  0  0  0  0
  187.1890  176.9250  145.6760 C   0  0  1  0  0  3  0  0  0  0  0  0
  185.5830  178.7330  146.5440 C   0  0  0  0  0  2  0  0  0  0  0  0
  187.5290  178.0400  144.6780 C   0  0  1  0  0  3  0  0  0  0  0  0
  188.4100  176.1430  146.0890 C   0  0  0  0  0  0  0  0  0  0  0  0
  188.4210  177.5170  143.5660 C   0  0  0  0  0  2  0  0  0  0  0  0
  191.3340  175.0650  146.6620 C   0  0  0  0  0  2  0  0  0  0  0  0
  195.2590  176.3430  144.6090 C   0  0  0  0  0  3  0  0  0  0  0  0
  195.4860  175.0240  144.6670 C   0  0  0  0  0  3  0  0  0  0  0  0
  192.8130  175.3180  146.4090 C   0  0  1  0  0  3  0  0  0  0  0  0
  194.4170  177.0790  145.6090 C   0  0  0  0  0  2  0  0  0  0  0  0
  194.9230  174.1380  145.7390 C   0  0  0  0  0  2  0  0  0  0  0  0
  193.4010  174.1130  145.6870 C   0  0  0  0  0  2  0  0  0  0  0  0
  192.9750  176.5880  145.5800 C   0  0  0  0  0  2  0  0  0  0  0  0
  189.9480  173.5700  145.0520 C   0  0  0  0  0  2  0  0  0  0  0  0
  190.6080  174.6340  141.9060 O   0  0  0  0  0  0  0  0  0  0  0  0
  189.0050  173.3710  142.7860 C   0  0  0  0  0  3  0  0  0  0  0  0
  189.2880  174.2350  141.8320 C   0  0  0  0  0  3  0  0  0  0  0  0
  191.2770  174.0040  142.9840 C   0  0  0  0  0  2  0  0  0  0  0  0
  190.2140  173.1140  143.6230 C   0  0  1  0  0  3  0  0  0  0  0  0
  1 22  1  1  0  0  0
  1 14  1  0  0  0  0
  2  1  1  0  0  0  0
  2 12  1  0  0  0  0
  4 11  1  0  0  0  0
  4  5  1  0  0  0  0
  5 10  1  0  0  0  0
  6  2  1  0  0  0  0
  7  8  1  6  0  0  0
  9 12  1  1  0  0  0
  9  7  1  0  0  0  0
 10  7  1  0  0  0  0
 11 13  1  6  0  0  0
 11  9  1  0  0  0  0
 12  3  2  0  0  0  0
 13  6  1  0  0  0  0
 15 16  2  0  0  0  0
 15 18  1  0  0  0  0
 16 19  1  0  0  0  0
 17 14  1  6  0  0  0
 20 19  1  0  0  0  0
 20 17  1  0  0  0  0
 21 18  1  0  0  0  0
 21 17  1  0  0  0  0
 23 26  1  0  0  0  0
 24 27  1  0  0  0  0
 25 23  1  0  0  0  0
 25 24  2  0  0  0  0
 26 27  1  0  0  0  0
 27 22  1  1  0  0  0
M  END
>  <MODEL>
8

>  <REMARK>
 VINA RESULT:      -7.3      1.610      3.931
  Name = 
  5 active torsions:
  status: ('A' for Active; 'I' for Inactive)
    1  A    between atoms: C_1  and  C_15
    2  A    between atoms: C_1  and  C_18
    3  A    between atoms: N_2  and  C_15
    4  A    between atoms: C_9  and  C_15
    5  A    between atoms: C_9  and  C_27
                            x       y       z     vdW  Elec       q    Type
                         _______ _______ _______ _____ _____    ______ ____

>  <TORSDO>
F 5

$$$$
=
 OpenBabel11052418273D

 27 30  0  0  1  0  0  0  0  0999 V2000
  189.5320  175.5050  144.9330 C   0  0  1  0  0  3  0  0  0  0  0  0
  191.0000  175.4860  144.8890 N   0  0  0  0  0  0  0  0  0  0  0  0
  191.0590  173.1460  144.9270 O   0  0  0  0  0  0  0  0  0  0  0  0
  195.2530  175.5680  145.7500 C   0  0  0  0  0  2  0  0  0  0  0  0
  195.9150  174.1890  145.8890 C   0  0  0  0  0  2  0  0  0  0  0  0
  191.7620  176.7190  144.6680 C   0  0  0  0  0  2  0  0  0  0  0  0
  193.8940  172.9820  144.9520 C   0  0  1  0  0  3  0  0  0  0  0  0
  193.6560  171.9050  145.7870 F   0  0  0  0  0  0  0  0  0  0  0  0
  193.1350  174.2140  145.4780 C   0  0  1  0  0  3  0  0  0  0  0  0
  195.4090  173.2090  144.8300 C   0  0  0  0  0  2  0  0  0  0  0  0
  193.8660  175.5090  145.1010 C   0  0  1  0  0  3  0  0  0  0  0  0
  191.6910  174.2310  145.0430 C   0  0  0  0  0  0  0  0  0  0  0  0
  193.0440  176.7260  145.4880 C   0  0  0  0  0  2  0  0  0  0  0  0
  188.9530  176.8480  145.4010 C   0  0  0  0  0  2  0  0  0  0  0  0
  184.7120  178.5920  144.9250 C   0  0  0  0  0  3  0  0  0  0  0  0
  184.5470  177.9900  146.1100 C   0  0  0  0  0  3  0  0  0  0  0  0
  187.4440  176.9430  145.2290 C   0  0  1  0  0  3  0  0  0  0  0  0
  185.6700  178.1030  143.8790 C   0  0  0  0  0  2  0  0  0  0  0  0
  185.3020  176.7610  146.5220 C   0  0  0  0  0  2  0  0  0  0  0  0
  186.7970  177.0370  146.6040 C   0  0  0  0  0  2  0  0  0  0  0  0
  187.1080  178.1650  144.3790 C   0  0  0  0  0  2  0  0  0  0  0  0
  188.8440  174.8790  143.7100 C   0  0  0  0  0  2  0  0  0  0  0  0
  188.2230  175.0120  140.3840 O   0  0  0  0  0  0  0  0  0  0  0  0
  189.9520  174.3040  141.5870 C   0  0  0  0  0  3  0  0  0  0  0  0
  189.2750  174.1220  140.4710 C   0  0  0  0  0  3  0  0  0  0  0  0
  188.1710  175.8620  141.5160 C   0  0  0  0  0  2  0  0  0  0  0  0
  189.3510  175.4180  142.3780 C   0  0  1  0  0  3  0  0  0  0  0  0
  1 22  1  6  0  0  0
  1 14  1  0  0  0  0
  2  1  1  0  0  0  0
  2 12  1  0  0  0  0
  3 12  2  0  0  0  0
  4  5  1  0  0  0  0
  6  2  1  0  0  0  0
  6 13  1  0  0  0  0
  7  9  1  0  0  0  0
  7  8  1  1  0  0  0
  9 12  1  6  0  0  0
 10  7  1  0  0  0  0
 10  5  1  0  0  0  0
 11  9  1  0  0  0  0
 11 13  1  1  0  0  0
 11  4  1  0  0  0  0
 15 16  2  0  0  0  0
 16 19  1  0  0  0  0
 17 14  1  1  0  0  0
 17 20  1  0  0  0  0
 18 21  1  0  0  0  0
 18 15  1  0  0  0  0
 19 20  1  0  0  0  0
 21 17  1  0  0  0  0
 23 25  1  0  0  0  0
 23 26  1  0  0  0  0
 24 27  1  0  0  0  0
 25 24  2  0  0  0  0
 26 27  1  0  0  0  0
 27 22  1  1  0  0  0
M  END
>  <MODEL>
9

>  <REMARK>
 VINA RESULT:      -7.2      2.863      7.293
  Name = 
  5 active torsions:
  status: ('A' for Active; 'I' for Inactive)
    1  A    between atoms: C_1  and  C_15
    2  A    between atoms: C_1  and  C_18
    3  A    between atoms: N_2  and  C_15
    4  A    between atoms: C_9  and  C_15
    5  A    between atoms: C_9  and  C_27
                            x       y       z     vdW  Elec       q    Type
                         _______ _______ _______ _____ _____    ______ ____

>  <TORSDO>
F 5

$$$$
