=
 OpenBabel11052420383D

 34 37  0  0  1  0  0  0  0  0999 V2000
  193.3760  175.4330  144.0670 C   0  0  1  0  0  3  0  0  0  0  0  0
  192.9490  170.7940  143.2090 O   0  0  0  0  0  1  0  0  0  0  0  0
  193.8250  173.3020  141.9300 C   0  0  0  0  0  3  0  0  0  0  0  0
  195.5920  175.8750  143.2240 O   0  0  0  0  0  0  0  0  0  0  0  0
  195.3300  176.3960  141.9540 C   0  0  0  0  0  2  0  0  0  0  0  0
  193.6490  174.6540  141.3120 C   0  0  0  0  0  2  0  0  0  0  0  0
  194.5800  176.3810  144.0480 C   0  0  0  0  0  2  0  0  0  0  0  0
  195.0020  175.2690  140.9880 C   0  0  0  0  0  2  0  0  0  0  0  0
  194.0660  171.5420  143.5890 C   0  0  2  0  0  3  0  0  0  0  0  0
  194.3450  171.3320  145.0830 C   0  0  2  0  0  3  0  0  0  0  0  0
  195.3340  172.3770  145.5960 C   0  0  0  0  0  2  0  0  0  0  0  0
  193.8510  172.9950  143.2440 C   0  0  0  0  0  0  0  0  0  0  0  0
  194.7760  173.8010  145.4820 C   0  0  0  0  0  2  0  0  0  0  0  0
  193.6860  173.9690  144.4080 C   0  0  1  0  0  3  0  0  0  0  0  0
  191.0200  176.5780  143.8280 C   0  0  2  0  0  3  0  0  0  0  0  0
  189.2510  174.3060  144.9240 C   0  0  0  0  0  2  0  0  0  0  0  0
  188.1340  175.4680  141.5210 C   0  0  0  0  0  2  0  0  0  0  0  0
  191.6080  174.9930  145.8170 C   0  0  1  0  0  3  0  0  0  0  0  0
  192.1140  175.9850  144.7530 C   0  0  1  0  0  3  0  0  0  0  0  0
  188.1790  173.2230  141.9610 C   0  0  2  0  0  3  0  0  0  0  0  0
  188.9220  176.2890  142.5240 C   0  0  0  0  0  2  0  0  0  0  0  0
  188.3200  172.9510  140.5930 O   0  0  0  0  0  1  0  0  0  0  0  0
  190.2350  175.6080  142.9200 C   0  0  2  0  0  3  0  0  0  0  0  0
  192.3650  175.1550  147.1280 C   0  0  0  0  0  1  0  0  0  0  0  0
  189.4890  175.6840  146.9160 C   0  0  0  0  0  2  0  0  0  0  0  0
  187.4720  174.4230  142.1870 O   0  0  0  0  0  0  0  0  0  0  0  0
  189.5060  173.1520  142.6780 C   0  0  0  0  0  0  0  0  0  0  0  0
  190.0020  174.2380  143.5930 C   0  0  2  0  0  3  0  0  0  0  0  0
  190.1950  172.1550  142.5400 O   0  0  0  0  0  0  0  0  0  0  0  0
  190.1000  174.9450  145.9880 C   0  0  0  0  0  0  0  0  0  0  0  0
  191.4970  177.8120  143.0790 C   0  0  0  0  0  1  0  0  0  0  0  0
  194.8700  169.9560  145.3400 C   0  0  0  0  0  0  0  0  0  0  0  0
  194.5300  169.3210  146.3740 O   0  0  0  0  0  1  0  0  0  0  0  0
  195.7380  169.3720  144.4270 O   0  0  0  0  0  0  0  0  0  0  0  0
  1  7  1  1  0  0  0
  1 14  1  0  0  0  0
  3 12  2  0  0  0  0
  4  7  1  0  0  0  0
  5  4  1  0  0  0  0
  6  3  1  0  0  0  0
  8  6  1  0  0  0  0
  8  5  1  0  0  0  0
  9  2  1  1  0  0  0
  9 10  1  0  0  0  0
 10 32  1  6  0  0  0
 10 11  1  0  0  0  0
 12  9  1  0  0  0  0
 12 14  1  0  0  0  0
 13 11  1  0  0  0  0
 14 13  1  6  0  0  0
 15 31  1  6  0  0  0
 15 19  1  0  0  0  0
 16 30  1  0  0  0  0
 17 26  1  0  0  0  0
 17 21  1  0  0  0  0
 18 30  1  0  0  0  0
 18 24  1  1  0  0  0
 19  1  1  6  0  0  0
 19 18  1  0  0  0  0
 20 22  1  6  0  0  0
 20 26  1  0  0  0  0
 20 27  1  0  0  0  0
 23 21  1  1  0  0  0
 23 28  1  0  0  0  0
 23 15  1  0  0  0  0
 27 28  1  0  0  0  0
 28 16  1  1  0  0  0
 29 27  2  0  0  0  0
 30 25  2  0  0  0  0
 32 33  1  0  0  0  0
 34 32  2  0  0  0  0
M  END
>  <MODEL>
1

>  <REMARK>
 VINA RESULT:      -7.3      0.000      0.000
  Name = 
  2 active torsions:
  status: ('A' for Active; 'I' for Inactive)
    1  A    between atoms: C_1  and  C_9
    2  A    between atoms: C_3  and  C_25
                            x       y       z     vdW  Elec       q    Type
                         _______ _______ _______ _____ _____    ______ ____

>  <TORSDO>
F 2

$$$$
=
 OpenBabel11052420383D

 34 37  0  0  1  0  0  0  0  0999 V2000
  192.6750  175.8340  144.6610 C   0  0  1  0  0  3  0  0  0  0  0  0
  191.3790  173.0390  141.0630 O   0  0  0  0  0  1  0  0  0  0  0  0
  193.4610  174.9750  141.8410 C   0  0  0  0  0  3  0  0  0  0  0  0
  195.0370  175.3680  144.8050 O   0  0  0  0  0  0  0  0  0  0  0  0
  195.5960  176.4420  144.1060 C   0  0  0  0  0  2  0  0  0  0  0  0
  194.0170  176.3270  142.1660 C   0  0  0  0  0  2  0  0  0  0  0  0
  193.9520  175.9060  145.5050 C   0  0  0  0  0  2  0  0  0  0  0  0
  195.4680  176.2120  142.6090 C   0  0  0  0  0  2  0  0  0  0  0  0
  192.3300  172.8360  142.0650 C   0  0  2  0  0  3  0  0  0  0  0  0
  191.7670  171.8820  143.1280 C   0  0  2  0  0  3  0  0  0  0  0  0
  192.6350  171.9050  144.3840 C   0  0  0  0  0  2  0  0  0  0  0  0
  192.7500  174.1630  142.6500 C   0  0  0  0  0  0  0  0  0  0  0  0
  192.6530  173.2890  145.0460 C   0  0  0  0  0  2  0  0  0  0  0  0
  192.3320  174.4520  144.0890 C   0  0  1  0  0  3  0  0  0  0  0  0
  190.7320  177.5600  144.2610 C   0  0  2  0  0  3  0  0  0  0  0  0
  188.3160  175.6940  144.6730 C   0  0  0  0  0  2  0  0  0  0  0  0
  188.1600  177.5210  141.3850 C   0  0  0  0  0  2  0  0  0  0  0  0
  190.5540  175.6400  146.0200 C   0  0  1  0  0  3  0  0  0  0  0  0
  191.4660  176.5970  145.2290 C   0  0  1  0  0  3  0  0  0  0  0  0
  187.6080  175.3010  141.4410 C   0  0  2  0  0  3  0  0  0  0  0  0
  188.9100  177.9820  142.6210 C   0  0  0  0  0  2  0  0  0  0  0  0
  187.9400  175.1780  140.0860 O   0  0  0  0  0  1  0  0  0  0  0  0
  189.9330  176.9450  143.0930 C   0  0  2  0  0  3  0  0  0  0  0  0
  191.0650  175.4370  147.4390 C   0  0  0  0  0  1  0  0  0  0  0  0
  188.4800  176.7020  146.8830 C   0  0  0  0  0  2  0  0  0  0  0  0
  187.1630  176.6030  141.7570 O   0  0  0  0  0  0  0  0  0  0  0  0
  188.7230  174.8060  142.3310 C   0  0  0  0  0  0  0  0  0  0  0  0
  189.2700  175.6050  143.4810 C   0  0  2  0  0  3  0  0  0  0  0  0
  189.1790  173.6920  142.1340 O   0  0  0  0  0  0  0  0  0  0  0  0
  189.0710  175.9560  145.9480 C   0  0  0  0  0  0  0  0  0  0  0  0
  191.6110  178.7170  143.8130 C   0  0  0  0  0  1  0  0  0  0  0  0
  191.6680  170.4890  142.5950 C   0  0  0  0  0  0  0  0  0  0  0  0
  192.6520  169.7050  142.6600 O   0  0  0  0  0  1  0  0  0  0  0  0
  190.4770  170.0560  142.0270 O   0  0  0  0  0  0  0  0  0  0  0  0
  1  7  1  1  0  0  0
  3  6  1  0  0  0  0
  3 12  2  0  0  0  0
  4  7  1  0  0  0  0
  5  4  1  0  0  0  0
  6  8  1  0  0  0  0
  8  5  1  0  0  0  0
  9  2  1  6  0  0  0
  9 12  1  0  0  0  0
  9 10  1  0  0  0  0
 10 32  1  6  0  0  0
 10 11  1  0  0  0  0
 11 13  1  0  0  0  0
 12 14  1  0  0  0  0
 14  1  1  0  0  0  0
 14 13  1  1  0  0  0
 15 31  1  6  0  0  0
 15 19  1  0  0  0  0
 16 30  1  0  0  0  0
 17 26  1  0  0  0  0
 17 21  1  0  0  0  0
 18 24  1  1  0  0  0
 19  1  1  6  0  0  0
 19 18  1  0  0  0  0
 20 22  1  6  0  0  0
 20 26  1  0  0  0  0
 20 27  1  0  0  0  0
 23 21  1  1  0  0  0
 23 28  1  0  0  0  0
 23 15  1  0  0  0  0
 27 28  1  0  0  0  0
 28 16  1  1  0  0  0
 29 27  2  0  0  0  0
 30 18  1  0  0  0  0
 30 25  2  0  0  0  0
 32 33  1  0  0  0  0
 34 32  2  0  0  0  0
M  END
>  <MODEL>
2

>  <REMARK>
 VINA RESULT:      -7.3      1.811      2.352
  Name = 
  2 active torsions:
  status: ('A' for Active; 'I' for Inactive)
    1  A    between atoms: C_1  and  C_9
    2  A    between atoms: C_3  and  C_25
                            x       y       z     vdW  Elec       q    Type
                         _______ _______ _______ _____ _____    ______ ____

>  <TORSDO>
F 2

$$$$
=
 OpenBabel11052420383D

 34 37  0  0  1  0  0  0  0  0999 V2000
  194.5560  175.7250  144.1450 C   0  0  1  0  0  3  0  0  0  0  0  0
  194.6520  171.0030  143.7850 O   0  0  0  0  0  1  0  0  0  0  0  0
  195.2960  173.4430  142.2600 C   0  0  0  0  0  3  0  0  0  0  0  0
  196.7380  176.3150  143.3040 O   0  0  0  0  0  0  0  0  0  0  0  0
  196.4620  176.6680  141.9790 C   0  0  0  0  0  2  0  0  0  0  0  0
  194.9970  174.6950  141.4960 C   0  0  0  0  0  2  0  0  0  0  0  0
  195.6530  176.7920  144.0480 C   0  0  0  0  0  2  0  0  0  0  0  0
  196.2860  175.4170  141.1350 C   0  0  0  0  0  2  0  0  0  0  0  0
  195.6710  171.9040  144.1040 C   0  0  2  0  0  3  0  0  0  0  0  0
  195.9250  171.8840  145.6170 C   0  0  2  0  0  3  0  0  0  0  0  0
  196.7800  173.0790  146.0340 C   0  0  0  0  0  2  0  0  0  0  0  0
  195.3140  173.2810  143.6000 C   0  0  0  0  0  0  0  0  0  0  0  0
  196.0780  174.4140  145.7560 C   0  0  0  0  0  2  0  0  0  0  0  0
  195.0090  174.3480  144.6480 C   0  0  1  0  0  3  0  0  0  0  0  0
  191.9930  176.1980  143.7980 C   0  0  2  0  0  3  0  0  0  0  0  0
  190.8350  174.1330  145.7700 C   0  0  0  0  0  2  0  0  0  0  0  0
  189.3760  173.7800  142.3180 C   0  0  0  0  0  2  0  0  0  0  0  0
  192.9940  175.5620  146.1240 C   0  0  1  0  0  3  0  0  0  0  0  0
  193.2230  176.2050  144.7430 C   0  0  1  0  0  3  0  0  0  0  0  0
  189.9570  171.8900  143.4680 C   0  0  2  0  0  3  0  0  0  0  0  0
  189.9810  175.0430  142.8990 C   0  0  0  0  0  2  0  0  0  0  0  0
  190.1150  171.1960  142.2620 O   0  0  0  0  0  1  0  0  0  0  0  0
  191.4280  174.8320  143.3540 C   0  0  2  0  0  3  0  0  0  0  0  0
  193.7310  176.3230  147.2160 C   0  0  0  0  0  1  0  0  0  0  0  0
  190.8060  176.1340  147.1550 C   0  0  0  0  0  2  0  0  0  0  0  0
  188.9960  172.9190  143.3600 O   0  0  0  0  0  0  0  0  0  0  0  0
  191.2850  172.3510  144.0200 C   0  0  0  0  0  0  0  0  0  0  0  0
  191.5410  173.7650  144.4640 C   0  0  2  0  0  3  0  0  0  0  0  0
  192.1820  171.5350  144.1460 O   0  0  0  0  0  0  0  0  0  0  0  0
  191.5440  175.2640  146.4640 C   0  0  0  0  0  0  0  0  0  0  0  0
  192.1460  177.1650  142.6360 C   0  0  0  0  0  1  0  0  0  0  0  0
  196.5840  170.6080  146.0310 C   0  0  0  0  0  0  0  0  0  0  0  0
  196.0480  169.8570  146.8890 O   0  0  0  0  0  1  0  0  0  0  0  0
  197.7990  170.2490  145.4620 O   0  0  0  0  0  0  0  0  0  0  0  0
  1  7  1  1  0  0  0
  1 14  1  0  0  0  0
  3 12  2  0  0  0  0
  4  7  1  0  0  0  0
  5  4  1  0  0  0  0
  6  3  1  0  0  0  0
  8  6  1  0  0  0  0
  8  5  1  0  0  0  0
  9  2  1  1  0  0  0
  9 10  1  0  0  0  0
 10 32  1  6  0  0  0
 10 11  1  0  0  0  0
 12  9  1  0  0  0  0
 12 14  1  0  0  0  0
 13 11  1  0  0  0  0
 14 13  1  6  0  0  0
 15 31  1  6  0  0  0
 15 19  1  0  0  0  0
 16 30  1  0  0  0  0
 17 21  1  0  0  0  0
 17 26  1  0  0  0  0
 18 30  1  0  0  0  0
 18 24  1  1  0  0  0
 19  1  1  6  0  0  0
 19 18  1  0  0  0  0
 20 22  1  6  0  0  0
 20 27  1  0  0  0  0
 23 21  1  1  0  0  0
 23 15  1  0  0  0  0
 23 28  1  0  0  0  0
 26 20  1  0  0  0  0
 27 29  2  0  0  0  0
 27 28  1  0  0  0  0
 28 16  1  1  0  0  0
 30 25  2  0  0  0  0
 32 33  1  0  0  0  0
 34 32  2  0  0  0  0
M  END
>  <MODEL>
3

>  <REMARK>
 VINA RESULT:      -7.2      1.456      1.780
  Name = 
  2 active torsions:
  status: ('A' for Active; 'I' for Inactive)
    1  A    between atoms: C_1  and  C_9
    2  A    between atoms: C_3  and  C_25
                            x       y       z     vdW  Elec       q    Type
                         _______ _______ _______ _____ _____    ______ ____

>  <TORSDO>
F 2

$$$$
=
 OpenBabel11052420383D

 34 37  0  0  1  0  0  0  0  0999 V2000
  189.5190  175.9240  144.0100 C   0  0  1  0  0  3  0  0  0  0  0  0
  187.4020  172.3110  141.7930 O   0  0  0  0  0  1  0  0  0  0  0  0
  187.0680  175.1880  142.3480 C   0  0  0  0  0  3  0  0  0  0  0  0
  189.3690  177.6630  142.3460 O   0  0  0  0  0  0  0  0  0  0  0  0
  188.2540  178.3900  142.7730 C   0  0  0  0  0  2  0  0  0  0  0  0
  186.8010  176.3940  143.1940 C   0  0  0  0  0  2  0  0  0  0  0  0
  190.0330  177.2810  143.5160 C   0  0  0  0  0  2  0  0  0  0  0  0
  186.9780  177.6650  142.3780 C   0  0  0  0  0  2  0  0  0  0  0  0
  188.2170  173.3270  141.2870 C   0  0  2  0  0  3  0  0  0  0  0  0
  189.6270  172.7790  141.0270 C   0  0  2  0  0  3  0  0  0  0  0  0
  190.6130  173.9220  140.7990 C   0  0  0  0  0  2  0  0  0  0  0  0
  188.2230  174.5000  142.2380 C   0  0  0  0  0  0  0  0  0  0  0  0
  190.7470  174.8220  142.0330 C   0  0  0  0  0  2  0  0  0  0  0  0
  189.5280  174.7910  142.9740 C   0  0  1  0  0  3  0  0  0  0  0  0
  190.8540  174.2060  145.4870 C   0  0  2  0  0  3  0  0  0  0  0  0
  193.0950  176.0610  146.5020 C   0  0  0  0  0  2  0  0  0  0  0  0
  194.4500  172.9440  144.8840 C   0  0  0  0  0  2  0  0  0  0  0  0
  190.5890  176.7150  146.1570 C   0  0  1  0  0  3  0  0  0  0  0  0
  190.0070  175.5030  145.4060 C   0  0  1  0  0  3  0  0  0  0  0  0
  195.4520  174.9490  144.4260 C   0  0  2  0  0  3  0  0  0  0  0  0
  193.0780  173.0910  145.5130 C   0  0  0  0  0  2  0  0  0  0  0  0
  195.9180  174.4450  143.2050 O   0  0  0  0  0  1  0  0  0  0  0  0
  192.2720  174.2280  144.8780 C   0  0  2  0  0  3  0  0  0  0  0  0
  189.4900  177.5370  146.8140 C   0  0  0  0  0  1  0  0  0  0  0  0
  191.5500  176.1620  148.3810 C   0  0  0  0  0  2  0  0  0  0  0  0
  195.3080  173.9310  145.3940 O   0  0  0  0  0  0  0  0  0  0  0  0
  194.2130  175.7920  144.2400 C   0  0  0  0  0  0  0  0  0  0  0  0
  192.9610  175.5990  145.0510 C   0  0  2  0  0  3  0  0  0  0  0  0
  194.2360  176.6950  143.4210 O   0  0  0  0  0  0  0  0  0  0  0  0
  191.7500  176.4030  147.0840 C   0  0  0  0  0  0  0  0  0  0  0  0
  190.0680  172.9710  145.0780 C   0  0  0  0  0  1  0  0  0  0  0  0
  189.6310  171.8520  139.8550 C   0  0  0  0  0  0  0  0  0  0  0  0
  188.9070  172.0850  138.8500 O   0  0  0  0  0  0  0  0  0  0  0  0
  190.4420  170.7260  139.8740 O   0  0  0  0  0  1  0  0  0  0  0  0
  1  7  1  6  0  0  0
  3  6  1  0  0  0  0
  4  5  1  0  0  0  0
  4  7  1  0  0  0  0
  8  5  1  0  0  0  0
  8  6  1  0  0  0  0
  9  2  1  1  0  0  0
  9 12  1  0  0  0  0
 10 32  1  6  0  0  0
 10  9  1  0  0  0  0
 11 10  1  0  0  0  0
 11 13  1  0  0  0  0
 12  3  2  0  0  0  0
 12 14  1  0  0  0  0
 14 13  1  6  0  0  0
 14  1  1  0  0  0  0
 15 31  1  6  0  0  0
 16 30  1  0  0  0  0
 17 26  1  0  0  0  0
 17 21  1  0  0  0  0
 18 24  1  1  0  0  0
 18 30  1  0  0  0  0
 19  1  1  6  0  0  0
 19 15  1  0  0  0  0
 19 18  1  0  0  0  0
 20 22  1  6  0  0  0
 20 26  1  0  0  0  0
 23 28  1  0  0  0  0
 23 15  1  0  0  0  0
 23 21  1  1  0  0  0
 27 20  1  0  0  0  0
 27 28  1  0  0  0  0
 28 16  1  1  0  0  0
 29 27  2  0  0  0  0
 30 25  2  0  0  0  0
 32 34  1  0  0  0  0
 33 32  2  0  0  0  0
M  END
>  <MODEL>
4

>  <REMARK>
 VINA RESULT:      -7.0      2.199      6.058
  Name = 
  2 active torsions:
  status: ('A' for Active; 'I' for Inactive)
    1  A    between atoms: C_1  and  C_9
    2  A    between atoms: C_3  and  C_25
                            x       y       z     vdW  Elec       q    Type
                         _______ _______ _______ _____ _____    ______ ____

>  <TORSDO>
F 2

$$$$
=
 OpenBabel11052420383D

 34 37  0  0  1  0  0  0  0  0999 V2000
  191.8590  175.3120  144.3520 C   0  0  1  0  0  3  0  0  0  0  0  0
  187.4790  175.0380  142.5670 O   0  0  0  0  0  1  0  0  0  0  0  0
  188.9390  174.8790  145.1230 C   0  0  0  0  0  3  0  0  0  0  0  0
  191.5130  176.7540  146.2530 O   0  0  0  0  0  0  0  0  0  0  0  0
  191.4170  175.8410  147.3080 C   0  0  0  0  0  2  0  0  0  0  0  0
  189.8580  174.2700  146.1360 C   0  0  0  0  0  2  0  0  0  0  0  0
  192.4920  176.2340  145.4000 C   0  0  0  0  0  2  0  0  0  0  0  0
  190.0370  175.2060  147.3220 C   0  0  0  0  0  2  0  0  0  0  0  0
  188.1370  176.1050  143.1840 C   0  0  2  0  0  3  0  0  0  0  0  0
  188.6040  177.1100  142.1230 C   0  0  2  0  0  3  0  0  0  0  0  0
  189.6020  178.0980  142.7220 C   0  0  0  0  0  2  0  0  0  0  0  0
  189.2780  175.5860  144.0260 C   0  0  0  0  0  0  0  0  0  0  0  0
  190.8770  177.4020  143.2140 C   0  0  0  0  0  2  0  0  0  0  0  0
  190.6920  175.9120  143.5540 C   0  0  1  0  0  3  0  0  0  0  0  0
  192.4810  173.0260  143.2120 C   0  0  2  0  0  3  0  0  0  0  0  0
  192.4120  173.9070  140.2600 C   0  0  0  0  0  2  0  0  0  0  0  0
  190.2320  170.9050  140.9030 C   0  0  0  0  0  2  0  0  0  0  0  0
  193.2930  175.3220  142.2720 C   0  0  1  0  0  3  0  0  0  0  0  0
  192.8520  174.5040  143.5000 C   0  0  1  0  0  3  0  0  0  0  0  0
  189.4390  172.5770  139.5570 C   0  0  2  0  0  3  0  0  0  0  0  0
  191.4320  171.3240  141.7320 C   0  0  0  0  0  2  0  0  0  0  0  0
  188.1220  172.2050  139.8600 O   0  0  0  0  0  1  0  0  0  0  0  0
  191.2860  172.7480  142.2770 C   0  0  2  0  0  3  0  0  0  0  0  0
  194.4160  176.2870  142.6250 C   0  0  0  0  0  1  0  0  0  0  0  0
  194.7940  174.0900  140.7220 C   0  0  0  0  0  2  0  0  0  0  0  0
  190.3230  171.4790  139.6240 O   0  0  0  0  0  0  0  0  0  0  0  0
  189.8810  173.7660  140.3770 C   0  0  0  0  0  0  0  0  0  0  0  0
  191.1710  173.7960  141.1480 C   0  0  2  0  0  3  0  0  0  0  0  0
  189.1790  174.7630  140.3880 O   0  0  0  0  0  0  0  0  0  0  0  0
  193.5630  174.5090  141.0190 C   0  0  0  0  0  0  0  0  0  0  0  0
  192.4370  172.1790  144.4740 C   0  0  0  0  0  1  0  0  0  0  0  0
  187.4420  177.8420  141.5330 C   0  0  0  0  0  0  0  0  0  0  0  0
  187.1530  177.7120  140.3140 O   0  0  0  0  0  0  0  0  0  0  0  0
  186.6740  178.6720  142.3390 O   0  0  0  0  0  1  0  0  0  0  0  0
  1  7  1  6  0  0  0
  3  6  1  0  0  0  0
  4  5  1  0  0  0  0
  5  8  1  0  0  0  0
  6  8  1  0  0  0  0
  7  4  1  0  0  0  0
  9  2  1  6  0  0  0
  9 12  1  0  0  0  0
 10 32  1  1  0  0  0
 10 11  1  0  0  0  0
 10  9  1  0  0  0  0
 11 13  1  0  0  0  0
 12  3  2  0  0  0  0
 14 13  1  1  0  0  0
 14 12  1  0  0  0  0
 14  1  1  0  0  0  0
 15 19  1  0  0  0  0
 15 31  1  1  0  0  0
 16 30  1  0  0  0  0
 17 21  1  0  0  0  0
 18 24  1  1  0  0  0
 18 19  1  0  0  0  0
 19  1  1  6  0  0  0
 20 26  1  0  0  0  0
 20 22  1  1  0  0  0
 20 27  1  0  0  0  0
 23 21  1  6  0  0  0
 23 15  1  0  0  0  0
 25 30  2  0  0  0  0
 26 17  1  0  0  0  0
 27 29  2  0  0  0  0
 27 28  1  0  0  0  0
 28 16  1  6  0  0  0
 28 23  1  0  0  0  0
 30 18  1  0  0  0  0
 32 34  1  0  0  0  0
 33 32  2  0  0  0  0
M  END
>  <MODEL>
5

>  <REMARK>
 VINA RESULT:      -6.9      2.727      6.351
  Name = 
  2 active torsions:
  status: ('A' for Active; 'I' for Inactive)
    1  A    between atoms: C_1  and  C_9
    2  A    between atoms: C_3  and  C_25
                            x       y       z     vdW  Elec       q    Type
                         _______ _______ _______ _____ _____    ______ ____

>  <TORSDO>
F 2

$$$$
=
 OpenBabel11052420383D

 34 37  0  0  1  0  0  0  0  0999 V2000
  189.9370  174.4340  142.4030 C   0  0  1  0  0  3  0  0  0  0  0  0
  192.1870  172.5790  138.6690 O   0  0  0  0  0  1  0  0  0  0  0  0
  191.8650  172.2180  141.5780 C   0  0  0  0  0  3  0  0  0  0  0  0
  189.0820  172.4530  143.4810 O   0  0  0  0  0  0  0  0  0  0  0  0
  190.0270  172.2300  144.4870 C   0  0  0  0  0  2  0  0  0  0  0  0
  192.0320  172.5650  143.0250 C   0  0  0  0  0  2  0  0  0  0  0  0
  188.9410  173.8430  143.4080 C   0  0  0  0  0  2  0  0  0  0  0  0
  191.2690  171.5810  143.8980 C   0  0  0  0  0  2  0  0  0  0  0  0
  191.0090  172.1770  139.3030 C   0  0  2  0  0  3  0  0  0  0  0  0
  189.7970  172.6150  138.4700 C   0  0  2  0  0  3  0  0  0  0  0  0
  188.5120  172.4930  139.2850 C   0  0  0  0  0  2  0  0  0  0  0  0
  190.9690  172.7280  140.7080 C   0  0  0  0  0  0  0  0  0  0  0  0
  188.5180  173.4150  140.5110 C   0  0  0  0  0  2  0  0  0  0  0  0
  189.9250  173.8020  141.0030 C   0  0  1  0  0  3  0  0  0  0  0  0
  188.7000  176.7540  142.4780 C   0  0  2  0  0  3  0  0  0  0  0  0
  189.8040  177.8180  145.1500 C   0  0  0  0  0  2  0  0  0  0  0  0
  186.0420  177.8750  145.0390 C   0  0  0  0  0  2  0  0  0  0  0  0
  191.1320  176.4370  143.3740 C   0  0  1  0  0  3  0  0  0  0  0  0
  190.0350  175.9690  142.3980 C   0  0  1  0  0  3  0  0  0  0  0  0
  187.0780  177.1660  146.9520 C   0  0  2  0  0  3  0  0  0  0  0  0
  186.9640  177.9070  143.8360 C   0  0  0  0  0  2  0  0  0  0  0  0
  185.9460  176.4160  147.2950 O   0  0  0  0  0  1  0  0  0  0  0  0
  187.9060  176.7000  143.8000 C   0  0  2  0  0  3  0  0  0  0  0  0
  192.5090  176.3680  142.7310 C   0  0  0  0  0  1  0  0  0  0  0  0
  191.3140  178.9060  143.5810 C   0  0  0  0  0  2  0  0  0  0  0  0
  186.7430  178.2990  146.1800 O   0  0  0  0  0  0  0  0  0  0  0  0
  188.1480  176.3000  146.3300 C   0  0  0  0  0  0  0  0  0  0  0  0
  188.8310  176.6440  145.0350 C   0  0  2  0  0  3  0  0  0  0  0  0
  188.5030  175.2940  146.9200 O   0  0  0  0  0  0  0  0  0  0  0  0
  190.8530  177.7550  144.0730 C   0  0  0  0  0  0  0  0  0  0  0  0
  187.8160  176.5240  141.2630 C   0  0  0  0  0  1  0  0  0  0  0  0
  189.6910  171.8080  137.2160 C   0  0  0  0  0  0  0  0  0  0  0  0
  189.7250  170.5490  137.2590 O   0  0  0  0  0  1  0  0  0  0  0  0
  189.5530  172.4530  135.9950 O   0  0  0  0  0  0  0  0  0  0  0  0
  1  7  1  6  0  0  0
  3  6  1  0  0  0  0
  4  5  1  0  0  0  0
  6  8  1  0  0  0  0
  7  4  1  0  0  0  0
  8  5  1  0  0  0  0
  9  2  1  6  0  0  0
  9 12  1  0  0  0  0
 10 32  1  6  0  0  0
 10 11  1  0  0  0  0
 10  9  1  0  0  0  0
 11 13  1  0  0  0  0
 12 14  1  0  0  0  0
 12  3  2  0  0  0  0
 14 13  1  1  0  0  0
 14  1  1  0  0  0  0
 15 31  1  6  0  0  0
 15 23  1  0  0  0  0
 17 26  1  0  0  0  0
 18 24  1  6  0  0  0
 18 30  1  0  0  0  0
 19  1  1  1  0  0  0
 19 15  1  0  0  0  0
 19 18  1  0  0  0  0
 20 22  1  6  0  0  0
 21 17  1  0  0  0  0
 23 21  1  1  0  0  0
 23 28  1  0  0  0  0
 25 30  2  0  0  0  0
 26 20  1  0  0  0  0
 27 29  2  0  0  0  0
 27 20  1  0  0  0  0
 28 16  1  1  0  0  0
 28 27  1  0  0  0  0
 30 16  1  0  0  0  0
 32 33  1  0  0  0  0
 34 32  2  0  0  0  0
M  END
>  <MODEL>
6

>  <REMARK>
 VINA RESULT:      -6.9      3.196      5.936
  Name = 
  2 active torsions:
  status: ('A' for Active; 'I' for Inactive)
    1  A    between atoms: C_1  and  C_9
    2  A    between atoms: C_3  and  C_25
                            x       y       z     vdW  Elec       q    Type
                         _______ _______ _______ _____ _____    ______ ____

>  <TORSDO>
F 2

$$$$
=
 OpenBabel11052420383D

 34 37  0  0  1  0  0  0  0  0999 V2000
  191.6810  175.2640  143.8850 C   0  0  1  0  0  3  0  0  0  0  0  0
  188.5830  174.8120  147.4410 O   0  0  0  0  0  1  0  0  0  0  0  0
  191.4290  175.3810  146.9230 C   0  0  0  0  0  3  0  0  0  0  0  0
  192.8410  177.2820  144.5120 O   0  0  0  0  0  0  0  0  0  0  0  0
  194.0000  176.7850  145.1170 C   0  0  0  0  0  2  0  0  0  0  0  0
  192.8340  175.0640  146.5120 C   0  0  0  0  0  2  0  0  0  0  0  0
  192.5830  176.4210  143.4410 C   0  0  0  0  0  2  0  0  0  0  0  0
  193.6900  176.3200  146.5300 C   0  0  0  0  0  2  0  0  0  0  0  0
  189.0710  175.9590  146.8100 C   0  0  2  0  0  3  0  0  0  0  0  0
  188.0160  176.5050  145.8390 C   0  0  2  0  0  3  0  0  0  0  0  0
  188.6330  177.5420  144.9020 C   0  0  0  0  0  2  0  0  0  0  0  0
  190.3780  175.6480  146.1210 C   0  0  0  0  0  0  0  0  0  0  0  0
  189.7270  176.9360  144.0150 C   0  0  0  0  0  2  0  0  0  0  0  0
  190.3810  175.6670  144.5950 C   0  0  1  0  0  3  0  0  0  0  0  0
  192.7820  173.6930  142.0850 C   0  0  2  0  0  3  0  0  0  0  0  0
  192.3570  170.9750  143.4710 C   0  0  0  0  0  2  0  0  0  0  0  0
  195.9550  171.5440  142.5230 C   0  0  0  0  0  2  0  0  0  0  0  0
  190.6830  172.9810  143.4650 C   0  0  1  0  0  3  0  0  0  0  0  0
  191.5110  174.1300  142.8590 C   0  0  1  0  0  3  0  0  0  0  0  0
  195.4840  170.6380  144.5700 C   0  0  2  0  0  3  0  0  0  0  0  0
  194.7520  172.1910  141.8640 C   0  0  0  0  0  2  0  0  0  0  0  0
  196.7010  171.1190  145.0710 O   0  0  0  0  0  1  0  0  0  0  0  0
  193.8920  172.9640  142.8690 C   0  0  2  0  0  3  0  0  0  0  0  0
  189.1910  173.2640  143.3670 C   0  0  0  0  0  1  0  0  0  0  0  0
  190.4410  171.0110  141.9690 C   0  0  0  0  0  2  0  0  0  0  0  0
  195.5530  170.3730  143.1860 O   0  0  0  0  0  0  0  0  0  0  0  0
  194.3330  171.5340  144.9620 C   0  0  0  0  0  0  0  0  0  0  0  0
  193.3220  172.0490  143.9740 C   0  0  2  0  0  3  0  0  0  0  0  0
  194.1910  171.8260  146.1380 O   0  0  0  0  0  0  0  0  0  0  0  0
  191.0690  171.5900  142.9940 C   0  0  0  0  0  0  0  0  0  0  0  0
  193.3310  174.7980  141.1970 C   0  0  0  0  0  1  0  0  0  0  0  0
  186.8650  177.1030  146.5830 C   0  0  0  0  0  0  0  0  0  0  0  0
  187.0630  177.9100  147.5300 O   0  0  0  0  0  1  0  0  0  0  0  0
  185.5670  176.7670  146.2230 O   0  0  0  0  0  0  0  0  0  0  0  0
  1  7  1  6  0  0  0
  1 14  1  0  0  0  0
  4  5  1  0  0  0  0
  5  8  1  0  0  0  0
  6  8  1  0  0  0  0
  6  3  1  0  0  0  0
  7  4  1  0  0  0  0
  9  2  1  6  0  0  0
 10 32  1  1  0  0  0
 10  9  1  0  0  0  0
 11 10  1  0  0  0  0
 12  9  1  0  0  0  0
 12  3  2  0  0  0  0
 13 11  1  0  0  0  0
 14 13  1  1  0  0  0
 14 12  1  0  0  0  0
 15 31  1  1  0  0  0
 15 19  1  0  0  0  0
 15 23  1  0  0  0  0
 17 26  1  0  0  0  0
 18 24  1  6  0  0  0
 19 18  1  0  0  0  0
 19  1  1  1  0  0  0
 20 27  1  0  0  0  0
 20 22  1  6  0  0  0
 21 17  1  0  0  0  0
 23 21  1  6  0  0  0
 23 28  1  0  0  0  0
 25 30  2  0  0  0  0
 26 20  1  0  0  0  0
 27 29  2  0  0  0  0
 28 16  1  6  0  0  0
 28 27  1  0  0  0  0
 30 18  1  0  0  0  0
 30 16  1  0  0  0  0
 32 33  1  0  0  0  0
 34 32  2  0  0  0  0
M  END
>  <MODEL>
7

>  <REMARK>
 VINA RESULT:      -6.9      2.389      6.637
  Name = 
  2 active torsions:
  status: ('A' for Active; 'I' for Inactive)
    1  A    between atoms: C_1  and  C_9
    2  A    between atoms: C_3  and  C_25
                            x       y       z     vdW  Elec       q    Type
                         _______ _______ _______ _____ _____    ______ ____

>  <TORSDO>
F 2

$$$$
=
 OpenBabel11052420383D

 34 37  0  0  1  0  0  0  0  0999 V2000
  190.9610  174.1720  144.6110 C   0  0  1  0  0  3  0  0  0  0  0  0
  189.5010  177.8550  142.0130 O   0  0  0  0  0  1  0  0  0  0  0  0
  190.0650  174.9690  141.8050 C   0  0  0  0  0  3  0  0  0  0  0  0
  189.3680  172.4770  143.9780 O   0  0  0  0  0  0  0  0  0  0  0  0
  190.0730  171.7480  143.0150 C   0  0  0  0  0  2  0  0  0  0  0  0
  190.9250  173.7440  141.7670 C   0  0  0  0  0  2  0  0  0  0  0  0
  190.3140  172.8240  144.9470 C   0  0  0  0  0  2  0  0  0  0  0  0
  190.0650  172.4930  141.6910 C   0  0  0  0  0  2  0  0  0  0  0  0
  188.7660  176.8460  142.6400 C   0  0  2  0  0  3  0  0  0  0  0  0
  188.1350  177.3890  143.9290 C   0  0  2  0  0  3  0  0  0  0  0  0
  187.6160  176.2440  144.7960 C   0  0  0  0  0  2  0  0  0  0  0  0
  189.6510  175.6500  142.8940 C   0  0  0  0  0  0  0  0  0  0  0  0
  188.7450  175.3130  145.2560 C   0  0  0  0  0  2  0  0  0  0  0  0
  189.9880  175.3310  144.3480 C   0  0  1  0  0  3  0  0  0  0  0  0
  193.5150  173.8480  145.1460 C   0  0  2  0  0  3  0  0  0  0  0  0
  194.5260  176.6810  144.4760 C   0  0  0  0  0  2  0  0  0  0  0  0
  196.4420  174.0120  142.6370 C   0  0  0  0  0  2  0  0  0  0  0  0
  192.2590  176.0850  145.6300 C   0  0  1  0  0  3  0  0  0  0  0  0
  192.1750  174.5550  145.4750 C   0  0  1  0  0  3  0  0  0  0  0  0
  195.8300  175.9050  141.5090 C   0  0  2  0  0  3  0  0  0  0  0  0
  195.6930  173.8250  143.9430 C   0  0  0  0  0  2  0  0  0  0  0  0
  195.8720  175.2050  140.2970 O   0  0  0  0  0  1  0  0  0  0  0  0
  194.2130  174.2020  143.8160 C   0  0  2  0  0  3  0  0  0  0  0  0
  191.3420  176.5790  146.7390 C   0  0  0  0  0  1  0  0  0  0  0  0
  194.2550  176.8650  146.8880 C   0  0  0  0  0  2  0  0  0  0  0  0
  196.7330  175.3730  142.4550 O   0  0  0  0  0  0  0  0  0  0  0  0
  194.4160  176.0370  142.0240 C   0  0  0  0  0  0  0  0  0  0  0  0
  194.0200  175.6850  143.4310 C   0  0  2  0  0  3  0  0  0  0  0  0
  193.5600  176.4820  141.2780 O   0  0  0  0  0  0  0  0  0  0  0  0
  193.6670  176.6480  145.7100 C   0  0  0  0  0  0  0  0  0  0  0  0
  193.4580  172.3490  145.3880 C   0  0  0  0  0  1  0  0  0  0  0  0
  187.0280  178.3450  143.6200 C   0  0  0  0  0  0  0  0  0  0  0  0
  186.7350  178.6230  142.4270 O   0  0  0  0  0  0  0  0  0  0  0  0
  186.3170  178.9290  144.6590 O   0  0  0  0  0  1  0  0  0  0  0  0
  1  7  1  1  0  0  0
  3 12  2  0  0  0  0
  4  7  1  0  0  0  0
  5  4  1  0  0  0  0
  6  3  1  0  0  0  0
  8  6  1  0  0  0  0
  8  5  1  0  0  0  0
  9  2  1  1  0  0  0
  9 12  1  0  0  0  0
  9 10  1  0  0  0  0
 10 32  1  6  0  0  0
 10 11  1  0  0  0  0
 11 13  1  0  0  0  0
 12 14  1  0  0  0  0
 14  1  1  0  0  0  0
 14 13  1  1  0  0  0
 15 31  1  6  0  0  0
 15 19  1  0  0  0  0
 16 30  1  0  0  0  0
 17 21  1  0  0  0  0
 18 30  1  0  0  0  0
 18 24  1  1  0  0  0
 19  1  1  6  0  0  0
 19 18  1  0  0  0  0
 20 22  1  6  0  0  0
 20 27  1  0  0  0  0
 20 26  1  0  0  0  0
 23 21  1  1  0  0  0
 23 15  1  0  0  0  0
 26 17  1  0  0  0  0
 27 28  1  0  0  0  0
 28 23  1  0  0  0  0
 28 16  1  1  0  0  0
 29 27  2  0  0  0  0
 30 25  2  0  0  0  0
 32 34  1  0  0  0  0
 33 32  2  0  0  0  0
M  END
>  <MODEL>
8

>  <REMARK>
 VINA RESULT:      -6.9      2.395      6.872
  Name = 
  2 active torsions:
  status: ('A' for Active; 'I' for Inactive)
    1  A    between atoms: C_1  and  C_9
    2  A    between atoms: C_3  and  C_25
                            x       y       z     vdW  Elec       q    Type
                         _______ _______ _______ _____ _____    ______ ____

>  <TORSDO>
F 2

$$$$
=
 OpenBabel11052420383D

 34 37  0  0  1  0  0  0  0  0999 V2000
  192.7280  173.3840  143.5820 C   0  0  1  0  0  3  0  0  0  0  0  0
  191.4940  173.7780  139.0250 O   0  0  0  0  0  1  0  0  0  0  0  0
  192.9950  172.0280  140.8620 C   0  0  0  0  0  3  0  0  0  0  0  0
  192.2420  171.0620  144.0120 O   0  0  0  0  0  0  0  0  0  0  0  0
  193.5000  170.4650  143.8860 C   0  0  0  0  0  2  0  0  0  0  0  0
  194.1240  171.6440  141.7670 C   0  0  0  0  0  2  0  0  0  0  0  0
  192.4770  172.2940  144.6300 C   0  0  0  0  0  2  0  0  0  0  0  0
  193.8510  170.2970  142.4170 C   0  0  0  0  0  2  0  0  0  0  0  0
  190.9280  173.0170  140.0500 C   0  0  2  0  0  3  0  0  0  0  0  0
  189.6450  173.6930  140.5500 C   0  0  2  0  0  3  0  0  0  0  0  0
  189.1930  173.0760  141.8720 C   0  0  0  0  0  2  0  0  0  0  0  0
  191.9370  172.8130  141.1540 C   0  0  0  0  0  0  0  0  0  0  0  0
  190.2250  173.2860  142.9880 C   0  0  0  0  0  2  0  0  0  0  0  0
  191.6630  173.5110  142.4840 C   0  0  1  0  0  3  0  0  0  0  0  0
  192.3370  175.9710  143.8450 C   0  0  2  0  0  3  0  0  0  0  0  0
  192.0070  176.1150  146.9050 C   0  0  0  0  0  2  0  0  0  0  0  0
  189.1230  177.7090  145.0840 C   0  0  0  0  0  2  0  0  0  0  0  0
  193.6670  174.5740  145.6040 C   0  0  1  0  0  3  0  0  0  0  0  0
  193.2210  174.7310  144.1380 C   0  0  1  0  0  3  0  0  0  0  0  0
  188.6860  176.3840  146.8970 C   0  0  2  0  0  3  0  0  0  0  0  0
  190.5260  177.5310  144.5370 C   0  0  0  0  0  2  0  0  0  0  0  0
  187.4020  176.1180  146.4020 O   0  0  0  0  0  1  0  0  0  0  0  0
  190.9630  176.0620  144.5420 C   0  0  2  0  0  3  0  0  0  0  0  0
  195.0900  174.0420  145.6940 C   0  0  0  0  0  1  0  0  0  0  0  0
  194.3590  176.7020  146.6840 C   0  0  0  0  0  2  0  0  0  0  0  0
  189.1550  177.6500  146.4870 O   0  0  0  0  0  0  0  0  0  0  0  0
  189.6400  175.2530  146.5950 C   0  0  0  0  0  0  0  0  0  0  0  0
  190.9900  175.4660  145.9660 C   0  0  2  0  0  3  0  0  0  0  0  0
  189.3220  174.1180  146.9070 O   0  0  0  0  0  0  0  0  0  0  0  0
  193.4130  175.7810  146.4880 C   0  0  0  0  0  0  0  0  0  0  0  0
  192.2550  176.2910  142.3610 C   0  0  0  0  0  1  0  0  0  0  0  0
  188.5550  173.5870  139.5330 C   0  0  0  0  0  0  0  0  0  0  0  0
  188.2180  174.5890  138.8470 O   0  0  0  0  0  0  0  0  0  0  0  0
  187.9110  172.3720  139.3420 O   0  0  0  0  0  1  0  0  0  0  0  0
  1  7  1  1  0  0  0
  3 12  2  0  0  0  0
  3  6  1  0  0  0  0
  4  7  1  0  0  0  0
  5  4  1  0  0  0  0
  6  8  1  0  0  0  0
  8  5  1  0  0  0  0
  9  2  1  6  0  0  0
  9 10  1  0  0  0  0
  9 12  1  0  0  0  0
 10 32  1  6  0  0  0
 10 11  1  0  0  0  0
 11 13  1  0  0  0  0
 12 14  1  0  0  0  0
 14 13  1  1  0  0  0
 14  1  1  0  0  0  0
 15 31  1  6  0  0  0
 15 19  1  0  0  0  0
 15 23  1  0  0  0  0
 17 26  1  0  0  0  0
 18 24  1  6  0  0  0
 18 30  1  0  0  0  0
 19  1  1  1  0  0  0
 19 18  1  0  0  0  0
 20 22  1  6  0  0  0
 21 17  1  0  0  0  0
 23 21  1  1  0  0  0
 23 28  1  0  0  0  0
 26 20  1  0  0  0  0
 27 20  1  0  0  0  0
 27 29  2  0  0  0  0
 28 27  1  0  0  0  0
 28 16  1  1  0  0  0
 30 25  2  0  0  0  0
 30 16  1  0  0  0  0
 33 32  2  0  0  0  0
 34 32  1  0  0  0  0
M  END
>  <MODEL>
9

>  <REMARK>
 VINA RESULT:      -6.9      2.249      5.192
  Name = 
  2 active torsions:
  status: ('A' for Active; 'I' for Inactive)
    1  A    between atoms: C_1  and  C_9
    2  A    between atoms: C_3  and  C_25
                            x       y       z     vdW  Elec       q    Type
                         _______ _______ _______ _____ _____    ______ ____

>  <TORSDO>
F 2

$$$$
