=
 OpenBabel11052418013D

 28 32  0  0  1  0  0  0  0  0999 V2000
  189.1240  176.2490  146.6680 C   0  0  1  0  0  3  0  0  0  0  0  0
  188.5540  174.5790  141.4180 C   0  0  0  0  0  3  0  0  0  0  0  0
  191.2590  178.6480  143.6730 C   0  0  0  0  0  1  0  0  0  0  0  0
  190.9200  174.0220  141.4740 C   0  0  0  0  0  0  0  0  0  0  0  0
  190.0330  175.9220  142.9230 C   0  0  1  0  0  3  0  0  0  0  0  0
  189.3960  172.7430  140.0880 C   0  0  0  0  0  0  0  0  0  0  0  0
  189.8430  174.8340  141.9020 C   0  0  0  0  0  0  0  0  0  0  0  0
  192.4370  175.1660  143.1350 C   0  0  0  0  0  2  0  0  0  0  0  0
  190.6870  172.9900  140.5600 C   0  0  0  0  0  3  0  0  0  0  0  0
  191.1510  177.0010  145.3920 C   0  0  2  0  0  3  0  0  0  0  0  0
  189.5240  175.4560  144.2790 C   0  0  0  0  0  2  0  0  0  0  0  0
  192.3400  174.3170  141.8710 C   0  0  0  0  0  2  0  0  0  0  0  0
  191.4480  175.7950  147.4260 C   0  0  0  0  0  2  0  0  0  0  0  0
  191.7610  177.3480  144.0950 N   0  0  0  0  0  0  0  0  0  0  0  0
  191.9340  175.9540  146.0570 N   0  0  0  0  0  2  0  0  0  0  0  0
  189.1730  171.7090  139.1890 O   0  0  0  0  0  1  0  0  0  0  0  0
  188.3310  173.5390  140.5130 C   0  0  0  0  0  3  0  0  0  0  0  0
  191.5060  176.3700  143.0210 C   0  0  2  0  0  3  0  0  0  0  0  0
  190.0180  175.2630  147.4180 C   0  0  0  0  0  2  0  0  0  0  0  0
  189.6660  176.5970  145.2740 C   0  0  1  0  0  3  0  0  0  0  0  0
  187.6330  175.8950  146.7120 C   0  0  0  0  0  2  0  0  0  0  0  0
  186.7770  177.0750  146.6880 N   0  0  0  0  0  0  0  0  0  0  0  0
  185.4870  178.8800  145.7530 C   0  0  1  0  0  3  0  0  0  0  0  0
  186.7400  178.0760  147.7340 C   0  0  0  0  0  3  0  0  0  0  0  0
  186.0840  176.9350  144.4460 O   0  0  0  0  0  0  0  0  0  0  0  0
  186.1120  177.5590  145.5410 C   0  0  0  0  0  0  0  0  0  0  0  0
  183.9790  178.7700  145.6360 C   0  0  0  0  0  1  0  0  0  0  0  0
  185.8560  179.2130  147.2010 C   0  0  0  0  0  3  0  0  0  0  0  0
  1 21  1  6  0  0  0
  1 19  1  0  0  0  0
  2  7  1  0  0  0  0
  3 14  1  0  0  0  0
  4 12  1  0  0  0  0
  4  7  2  0  0  0  0
  5 18  1  0  0  0  0
  5 11  1  1  0  0  0
  6 17  1  0  0  0  0
  6  9  2  0  0  0  0
  7  5  1  0  0  0  0
  9  4  1  0  0  0  0
 10 15  1  6  0  0  0
 12  8  1  0  0  0  0
 14 10  1  0  0  0  0
 15 13  1  0  0  0  0
 16  6  1  0  0  0  0
 17  2  2  0  0  0  0
 18  8  1  1  0  0  0
 18 14  1  0  0  0  0
 19 13  1  0  0  0  0
 20 11  1  6  0  0  0
 20 10  1  0  0  0  0
 20  1  1  0  0  0  0
 22 21  1  0  0  0  0
 22 24  1  0  0  0  0
 23 27  1  1  0  0  0
 23 28  1  0  0  0  0
 25 26  2  0  0  0  0
 26 23  1  0  0  0  0
 26 22  1  0  0  0  0
 28 24  2  0  0  0  0
M  END
>  <MODEL>
1

>  <REMARK>
 VINA RESULT:      -7.8      0.000      0.000
  Name = 
  2 active torsions:
  status: ('A' for Active; 'I' for Inactive)
    1  A    between atoms: C_1  and  C_2
    2  A    between atoms: C_2  and  N_3
                            x       y       z     vdW  Elec       q    Type
                         _______ _______ _______ _____ _____    ______ ____

>  <TORSDO>
F 2

$$$$
=
 OpenBabel11052418013D

 28 32  0  0  1  0  0  0  0  0999 V2000
  188.2390  176.5810  143.4870 C   0  0  1  0  0  3  0  0  0  0  0  0
  193.6090  176.0790  144.7460 C   0  0  0  0  0  3  0  0  0  0  0  0
  189.6730  172.4720  144.0730 C   0  0  0  0  0  1  0  0  0  0  0  0
  193.8830  175.0030  142.5840 C   0  0  0  0  0  0  0  0  0  0  0  0
  191.6620  174.8120  143.8190 C   0  0  1  0  0  3  0  0  0  0  0  0
  195.6940  176.3000  143.5410 C   0  0  0  0  0  0  0  0  0  0  0  0
  193.0870  175.2840  143.7190 C   0  0  0  0  0  0  0  0  0  0  0  0
  191.9010  173.9070  141.4700 C   0  0  0  0  0  2  0  0  0  0  0  0
  195.1860  175.5050  142.5110 C   0  0  0  0  0  3  0  0  0  0  0  0
  189.0060  174.3160  142.7200 C   0  0  2  0  0  3  0  0  0  0  0  0
  190.7120  175.9630  143.5270 C   0  0  0  0  0  2  0  0  0  0  0  0
  193.4180  174.0660  141.5030 C   0  0  0  0  0  2  0  0  0  0  0  0
  187.8530  175.7270  141.1830 C   0  0  0  0  0  2  0  0  0  0  0  0
  189.9670  173.2060  142.8500 N   0  0  0  0  0  0  0  0  0  0  0  0
  188.9680  174.7940  141.3340 N   0  0  0  0  0  2  0  0  0  0  0  0
  196.9850  176.8030  143.4550 O   0  0  0  0  0  1  0  0  0  0  0  0
  194.9080  176.5840  144.6590 C   0  0  0  0  0  3  0  0  0  0  0  0
  191.3810  173.6240  142.8760 C   0  0  2  0  0  3  0  0  0  0  0  0
  188.0990  176.9800  142.0190 C   0  0  0  0  0  2  0  0  0  0  0  0
  189.2820  175.4740  143.7020 C   0  0  1  0  0  3  0  0  0  0  0  0
  188.3500  177.7700  144.4470 C   0  0  0  0  0  2  0  0  0  0  0  0
  187.3220  177.7510  145.4820 N   0  0  0  0  0  0  0  0  0  0  0  0
  185.4810  178.5430  146.8170 C   0  0  1  0  0  3  0  0  0  0  0  0
  187.4320  177.0170  146.7250 C   0  0  0  0  0  3  0  0  0  0  0  0
  185.9890  179.5020  144.6550 O   0  0  0  0  0  0  0  0  0  0  0  0
  186.2460  178.6610  145.5580 C   0  0  0  0  0  0  0  0  0  0  0  0
  184.0660  178.0830  146.5270 C   0  0  0  0  0  1  0  0  0  0  0  0
  186.2240  177.4390  147.5750 C   0  0  0  0  0  3  0  0  0  0  0  0
  1 20  1  0  0  0  0
  1 21  1  1  0  0  0
  4  7  1  0  0  0  0
  5 11  1  6  0  0  0
  6 17  2  0  0  0  0
  7  5  1  0  0  0  0
  7  2  2  0  0  0  0
  8 12  1  0  0  0  0
  9  4  2  0  0  0  0
  9  6  1  0  0  0  0
 10 15  1  6  0  0  0
 10 14  1  0  0  0  0
 10 20  1  0  0  0  0
 12  4  1  0  0  0  0
 13 15  1  0  0  0  0
 13 19  1  0  0  0  0
 14 18  1  0  0  0  0
 14  3  1  0  0  0  0
 16  6  1  0  0  0  0
 17  2  1  0  0  0  0
 18  8  1  6  0  0  0
 18  5  1  0  0  0  0
 19  1  1  0  0  0  0
 20 11  1  6  0  0  0
 21 22  1  0  0  0  0
 22 26  1  0  0  0  0
 22 24  1  0  0  0  0
 23 27  1  6  0  0  0
 23 28  1  0  0  0  0
 24 28  2  0  0  0  0
 25 26  2  0  0  0  0
 26 23  1  0  0  0  0
M  END
>  <MODEL>
2

>  <REMARK>
 VINA RESULT:      -7.5      2.885      4.623
  Name = 
  2 active torsions:
  status: ('A' for Active; 'I' for Inactive)
    1  A    between atoms: C_1  and  C_2
    2  A    between atoms: C_2  and  N_3
                            x       y       z     vdW  Elec       q    Type
                         _______ _______ _______ _____ _____    ______ ____

>  <TORSDO>
F 2

$$$$
=
 OpenBabel11052418013D

 28 32  0  0  1  0  0  0  0  0999 V2000
  193.2620  175.5970  143.6970 C   0  0  1  0  0  3  0  0  0  0  0  0
  188.0480  177.2530  142.8240 C   0  0  0  0  0  3  0  0  0  0  0  0
  190.1630  172.5750  144.4380 C   0  0  0  0  0  1  0  0  0  0  0  0
  187.7080  177.0150  145.2200 C   0  0  0  0  0  0  0  0  0  0  0  0
  189.4090  175.5350  144.0300 C   0  0  1  0  0  3  0  0  0  0  0  0
  186.4770  178.6890  143.9710 C   0  0  0  0  0  0  0  0  0  0  0  0
  188.3500  176.6050  144.0280 C   0  0  0  0  0  0  0  0  0  0  0  0
  189.2020  175.4770  146.5500 C   0  0  0  0  0  2  0  0  0  0  0  0
  186.7670  178.0480  145.1780 C   0  0  0  0  0  3  0  0  0  0  0  0
  191.7540  174.2030  145.1430 C   0  0  2  0  0  3  0  0  0  0  0  0
  190.7880  176.1690  143.9270 C   0  0  0  0  0  2  0  0  0  0  0  0
  187.9080  176.2840  146.5190 C   0  0  0  0  0  2  0  0  0  0  0  0
  193.6270  175.2910  146.1380 C   0  0  0  0  0  2  0  0  0  0  0  0
  190.4090  173.6510  145.3880 N   0  0  0  0  0  0  0  0  0  0  0  0
  192.2160  174.9540  146.3150 N   0  0  0  0  0  2  0  0  0  0  0  0
  185.5490  179.7210  143.9410 O   0  0  0  0  0  1  0  0  0  0  0  0
  187.1140  178.2900  142.7950 C   0  0  0  0  0  3  0  0  0  0  0  0
  189.3160  174.6360  145.2810 C   0  0  2  0  0  3  0  0  0  0  0  0
  193.7950  176.2560  144.9680 C   0  0  0  0  0  2  0  0  0  0  0  0
  191.8310  175.0640  143.8630 C   0  0  1  0  0  3  0  0  0  0  0  0
  193.5020  176.4160  142.4240 C   0  0  0  0  0  2  0  0  0  0  0  0
  194.5900  175.8810  141.6120 N   0  0  0  0  0  0  0  0  0  0  0  0
  196.8190  175.6600  140.7300 C   0  0  1  0  0  3  0  0  0  0  0  0
  194.4090  175.2560  140.3190 C   0  0  0  0  0  3  0  0  0  0  0  0
  196.3850  176.8010  142.8180 O   0  0  0  0  0  0  0  0  0  0  0  0
  195.9570  176.1630  141.8200 C   0  0  0  0  0  0  0  0  0  0  0  0
  197.7530  174.5870  141.2560 C   0  0  0  0  0  1  0  0  0  0  0  0
  195.8200  175.0270  139.7580 C   0  0  0  0  0  3  0  0  0  0  0  0
  1 21  1  6  0  0  0
  1 20  1  0  0  0  0
  1 19  1  0  0  0  0
  2  7  1  0  0  0  0
  3 14  1  0  0  0  0
  4 12  1  0  0  0  0
  5 11  1  1  0  0  0
  5 18  1  0  0  0  0
  6  9  2  0  0  0  0
  7  5  1  0  0  0  0
  7  4  2  0  0  0  0
  9  4  1  0  0  0  0
 10 14  1  0  0  0  0
 10 15  1  1  0  0  0
 12  8  1  0  0  0  0
 13 15  1  0  0  0  0
 16  6  1  0  0  0  0
 17  2  2  0  0  0  0
 17  6  1  0  0  0  0
 18 14  1  0  0  0  0
 18  8  1  1  0  0  0
 19 13  1  0  0  0  0
 20 11  1  1  0  0  0
 20 10  1  0  0  0  0
 22 26  1  0  0  0  0
 22 21  1  0  0  0  0
 23 27  1  1  0  0  0
 23 26  1  0  0  0  0
 24 22  1  0  0  0  0
 26 25  2  0  0  0  0
 28 24  2  0  0  0  0
 28 23  1  0  0  0  0
M  END
>  <MODEL>
3

>  <REMARK>
 VINA RESULT:      -7.3      3.159      7.471
  Name = 
  2 active torsions:
  status: ('A' for Active; 'I' for Inactive)
    1  A    between atoms: C_1  and  C_2
    2  A    between atoms: C_2  and  N_3
                            x       y       z     vdW  Elec       q    Type
                         _______ _______ _______ _____ _____    ______ ____

>  <TORSDO>
F 2

$$$$
=
 OpenBabel11052418013D

 28 32  0  0  1  0  0  0  0  0999 V2000
  192.8730  175.8890  144.0110 C   0  0  1  0  0  3  0  0  0  0  0  0
  187.6370  177.4640  143.1210 C   0  0  0  0  0  3  0  0  0  0  0  0
  189.8090  172.8660  144.8810 C   0  0  0  0  0  1  0  0  0  0  0  0
  187.3170  177.3060  145.5260 C   0  0  0  0  0  0  0  0  0  0  0  0
  189.0230  175.8020  144.3760 C   0  0  1  0  0  3  0  0  0  0  0  0
  186.0600  178.9250  144.2290 C   0  0  0  0  0  0  0  0  0  0  0  0
  187.9550  176.8610  144.3440 C   0  0  0  0  0  0  0  0  0  0  0  0
  188.8360  175.8300  146.8980 C   0  0  0  0  0  2  0  0  0  0  0  0
  186.3660  178.3280  145.4550 C   0  0  0  0  0  3  0  0  0  0  0  0
  191.3900  174.5330  145.5160 C   0  0  2  0  0  3  0  0  0  0  0  0
  190.3950  176.4450  144.2390 C   0  0  0  0  0  2  0  0  0  0  0  0
  187.5340  176.6240  146.8480 C   0  0  0  0  0  2  0  0  0  0  0  0
  193.2590  175.6720  146.4580 C   0  0  0  0  0  2  0  0  0  0  0  0
  190.0520  173.9770  145.7910 N   0  0  0  0  0  0  0  0  0  0  0  0
  191.8530  175.3280  146.6570 N   0  0  0  0  0  2  0  0  0  0  0  0
  185.1220  179.9460  144.1700 O   0  0  0  0  0  1  0  0  0  0  0  0
  186.6920  178.4910  143.0630 C   0  0  0  0  0  3  0  0  0  0  0  0
  188.9490  174.9470  145.6580 C   0  0  2  0  0  3  0  0  0  0  0  0
  193.4090  176.5970  145.2530 C   0  0  0  0  0  2  0  0  0  0  0  0
  191.4480  175.3480  144.2060 C   0  0  1  0  0  3  0  0  0  0  0  0
  193.0960  176.6650  142.7080 C   0  0  0  0  0  2  0  0  0  0  0  0
  194.2050  176.1330  141.9230 N   0  0  0  0  0  0  0  0  0  0  0  0
  195.3970  174.6160  140.4840 C   0  0  1  0  0  3  0  0  0  0  0  0
  195.6010  176.3670  142.2250 C   0  0  0  0  0  3  0  0  0  0  0  0
  192.9820  174.6150  140.6100 O   0  0  0  0  0  0  0  0  0  0  0  0
  194.0890  175.0950  140.9740 C   0  0  0  0  0  0  0  0  0  0  0  0
  195.5410  174.9100  139.0030 C   0  0  0  0  0  1  0  0  0  0  0  0
  196.3990  175.4700  141.2670 C   0  0  0  0  0  3  0  0  0  0  0  0
  1 21  1  6  0  0  0
  1 20  1  0  0  0  0
  1 19  1  0  0  0  0
  2  7  1  0  0  0  0
  3 14  1  0  0  0  0
  4 12  1  0  0  0  0
  5 11  1  1  0  0  0
  5 18  1  0  0  0  0
  6  9  2  0  0  0  0
  7  5  1  0  0  0  0
  7  4  2  0  0  0  0
  9  4  1  0  0  0  0
 10 14  1  0  0  0  0
 10 15  1  1  0  0  0
 12  8  1  0  0  0  0
 13 15  1  0  0  0  0
 16  6  1  0  0  0  0
 17  2  2  0  0  0  0
 17  6  1  0  0  0  0
 18 14  1  0  0  0  0
 18  8  1  1  0  0  0
 19 13  1  0  0  0  0
 20 11  1  1  0  0  0
 20 10  1  0  0  0  0
 22 24  1  0  0  0  0
 22 21  1  0  0  0  0
 23 27  1  6  0  0  0
 23 26  1  0  0  0  0
 23 28  1  0  0  0  0
 25 26  2  0  0  0  0
 26 22  1  0  0  0  0
 28 24  2  0  0  0  0
M  END
>  <MODEL>
4

>  <REMARK>
 VINA RESULT:      -7.3      2.661      7.197
  Name = 
  2 active torsions:
  status: ('A' for Active; 'I' for Inactive)
    1  A    between atoms: C_1  and  C_2
    2  A    between atoms: C_2  and  N_3
                            x       y       z     vdW  Elec       q    Type
                         _______ _______ _______ _____ _____    ______ ____

>  <TORSDO>
F 2

$$$$
=
 OpenBabel11052418013D

 28 32  0  0  1  0  0  0  0  0999 V2000
  188.3350  176.8970  145.9260 C   0  0  1  0  0  3  0  0  0  0  0  0
  189.4400  173.0920  142.0550 C   0  0  0  0  0  3  0  0  0  0  0  0
  191.5680  177.9150  143.1340 C   0  0  0  0  0  1  0  0  0  0  0  0
  191.5860  172.7830  143.1560 C   0  0  0  0  0  0  0  0  0  0  0  0
  190.4320  175.0530  143.2490 C   0  0  1  0  0  3  0  0  0  0  0  0
  190.5170  170.9270  142.0190 C   0  0  0  0  0  0  0  0  0  0  0  0
  190.5050  173.6210  142.7950 C   0  0  0  0  0  0  0  0  0  0  0  0
  192.5420  174.6350  144.5790 C   0  0  0  0  0  2  0  0  0  0  0  0
  191.5870  171.4440  142.7540 C   0  0  0  0  0  3  0  0  0  0  0  0
  190.7340  177.1670  145.2370 C   0  0  2  0  0  3  0  0  0  0  0  0
  189.4520  175.1820  144.4060 C   0  0  0  0  0  2  0  0  0  0  0  0
  192.8060  173.3200  143.8510 C   0  0  0  0  0  2  0  0  0  0  0  0
  190.2120  176.9790  147.5550 C   0  0  0  0  0  2  0  0  0  0  0  0
  191.7770  176.9630  144.2150 N   0  0  0  0  0  0  0  0  0  0  0  0
  191.1470  176.5670  146.5100 N   0  0  0  0  0  2  0  0  0  0  0  0
  190.5220  169.5930  141.6330 O   0  0  0  0  0  1  0  0  0  0  0  0
  189.4470  171.7500  141.6670 C   0  0  0  0  0  3  0  0  0  0  0  0
  191.8180  175.6030  143.6470 C   0  0  2  0  0  3  0  0  0  0  0  0
  188.8280  176.3970  147.2820 C   0  0  0  0  0  2  0  0  0  0  0  0
  189.3480  176.6480  144.7980 C   0  0  1  0  0  3  0  0  0  0  0  0
  186.8930  176.4910  145.6000 C   0  0  0  0  0  2  0  0  0  0  0  0
  186.2160  177.4670  144.7520 N   0  0  0  0  0  0  0  0  0  0  0  0
  185.4920  178.5420  142.7240 C   0  0  1  0  0  3  0  0  0  0  0  0
  185.9420  178.8340  145.1430 C   0  0  0  0  0  3  0  0  0  0  0  0
  186.2820  176.2560  142.7380 O   0  0  0  0  0  0  0  0  0  0  0  0
  186.0140  177.3170  143.3630 C   0  0  0  0  0  0  0  0  0  0  0  0
  184.1020  178.2910  142.1720 C   0  0  0  0  0  1  0  0  0  0  0  0
  185.4010  179.5330  143.8870 C   0  0  0  0  0  3  0  0  0  0  0  0
  1 21  1  6  0  0  0
  1 19  1  0  0  0  0
  2  7  1  0  0  0  0
  3 14  1  0  0  0  0
  4 12  1  0  0  0  0
  5 18  1  0  0  0  0
  5 11  1  1  0  0  0
  6  9  2  0  0  0  0
  7  4  2  0  0  0  0
  7  5  1  0  0  0  0
  9  4  1  0  0  0  0
 10 15  1  1  0  0  0
 12  8  1  0  0  0  0
 14 10  1  0  0  0  0
 15 13  1  0  0  0  0
 16  6  1  0  0  0  0
 17  6  1  0  0  0  0
 17  2  2  0  0  0  0
 18 14  1  0  0  0  0
 18  8  1  1  0  0  0
 19 13  1  0  0  0  0
 20 11  1  1  0  0  0
 20 10  1  0  0  0  0
 20  1  1  0  0  0  0
 22 24  1  0  0  0  0
 22 21  1  0  0  0  0
 23 27  1  1  0  0  0
 23 26  1  0  0  0  0
 23 28  1  0  0  0  0
 25 26  2  0  0  0  0
 26 22  1  0  0  0  0
 28 24  2  0  0  0  0
M  END
>  <MODEL>
5

>  <REMARK>
 VINA RESULT:      -7.1      1.852      2.074
  Name = 
  2 active torsions:
  status: ('A' for Active; 'I' for Inactive)
    1  A    between atoms: C_1  and  C_2
    2  A    between atoms: C_2  and  N_3
                            x       y       z     vdW  Elec       q    Type
                         _______ _______ _______ _____ _____    ______ ____

>  <TORSDO>
F 2

$$$$
=
 OpenBabel11052418013D

 28 32  0  0  1  0  0  0  0  0999 V2000
  192.9300  174.8040  145.6920 C   0  0  1  0  0  3  0  0  0  0  0  0
  188.6230  174.9960  142.2150 C   0  0  0  0  0  3  0  0  0  0  0  0
  188.9800  174.2680  147.5350 C   0  0  0  0  0  1  0  0  0  0  0  0
  187.9710  177.0490  143.3410 C   0  0  0  0  0  0  0  0  0  0  0  0
  189.2390  175.2510  144.6260 C   0  0  1  0  0  3  0  0  0  0  0  0
  187.4670  176.7310  140.9900 C   0  0  0  0  0  0  0  0  0  0  0  0
  188.5760  175.7710  143.3800 C   0  0  0  0  0  0  0  0  0  0  0  0
  188.7560  177.4890  145.6980 C   0  0  0  0  0  2  0  0  0  0  0  0
  187.4110  177.5130  142.1470 C   0  0  0  0  0  3  0  0  0  0  0  0
  190.9160  175.5480  146.9940 C   0  0  2  0  0  3  0  0  0  0  0  0
  190.7500  175.3760  144.5010 C   0  0  0  0  0  2  0  0  0  0  0  0
  187.7910  177.8790  144.5820 C   0  0  0  0  0  2  0  0  0  0  0  0
  192.9170  176.8360  147.1270 C   0  0  0  0  0  2  0  0  0  0  0  0
  189.4480  175.5840  147.1230 N   0  0  0  0  0  0  0  0  0  0  0  0
  191.4610  176.9090  147.0230 N   0  0  0  0  0  2  0  0  0  0  0  0
  186.9180  177.2050  139.8060 O   0  0  0  0  0  1  0  0  0  0  0  0
  188.0690  175.4730  141.0250 C   0  0  0  0  0  3  0  0  0  0  0  0
  188.7370  175.9760  145.8920 C   0  0  2  0  0  3  0  0  0  0  0  0
  193.5040  176.2090  145.8650 C   0  0  0  0  0  2  0  0  0  0  0  0
  191.3950  174.7810  145.7430 C   0  0  1  0  0  3  0  0  0  0  0  0
  193.5500  174.0170  144.5330 C   0  0  0  0  0  2  0  0  0  0  0  0
  194.9010  173.5540  144.8300 N   0  0  0  0  0  0  0  0  0  0  0  0
  196.6420  172.2840  145.9040 C   0  0  1  0  0  3  0  0  0  0  0  0
  196.0910  174.3640  144.6750 C   0  0  0  0  0  3  0  0  0  0  0  0
  194.3310  171.5700  145.9550 O   0  0  0  0  0  0  0  0  0  0  0  0
  195.2050  172.3980  145.5800 C   0  0  0  0  0  0  0  0  0  0  0  0
  197.2340  171.0630  145.2270 C   0  0  0  0  0  1  0  0  0  0  0  0
  197.2420  173.5470  145.2800 C   0  0  0  0  0  3  0  0  0  0  0  0
  1 21  1  6  0  0  0
  1 20  1  0  0  0  0
  1 19  1  0  0  0  0
  2  7  1  0  0  0  0
  4  7  2  0  0  0  0
  4 12  1  0  0  0  0
  5 11  1  6  0  0  0
  5 18  1  0  0  0  0
  6 17  1  0  0  0  0
  6  9  2  0  0  0  0
  7  5  1  0  0  0  0
  9  4  1  0  0  0  0
 10 15  1  6  0  0  0
 10 14  1  0  0  0  0
 12  8  1  0  0  0  0
 14  3  1  0  0  0  0
 15 13  1  0  0  0  0
 16  6  1  0  0  0  0
 17  2  2  0  0  0  0
 18  8  1  6  0  0  0
 18 14  1  0  0  0  0
 19 13  1  0  0  0  0
 20 11  1  6  0  0  0
 20 10  1  0  0  0  0
 21 22  1  0  0  0  0
 22 26  1  0  0  0  0
 23 27  1  6  0  0  0
 24 22  1  0  0  0  0
 24 28  2  0  0  0  0
 26 23  1  0  0  0  0
 26 25  2  0  0  0  0
 28 23  1  0  0  0  0
M  END
>  <MODEL>
6

>  <REMARK>
 VINA RESULT:      -7.1      3.416      6.886
  Name = 
  2 active torsions:
  status: ('A' for Active; 'I' for Inactive)
    1  A    between atoms: C_1  and  C_2
    2  A    between atoms: C_2  and  N_3
                            x       y       z     vdW  Elec       q    Type
                         _______ _______ _______ _____ _____    ______ ____

>  <TORSDO>
F 2

$$$$
=
 OpenBabel11052418013D

 28 32  0  0  1  0  0  0  0  0999 V2000
  190.1200  174.3890  143.4460 C   0  0  1  0  0  3  0  0  0  0  0  0
  187.2720  177.9110  146.6350 C   0  0  0  0  0  3  0  0  0  0  0  0
  189.2310  178.2910  141.6370 C   0  0  0  0  0  1  0  0  0  0  0  0
  185.4460  177.6690  145.0480 C   0  0  0  0  0  0  0  0  0  0  0  0
  187.8540  177.4180  144.2530 C   0  0  1  0  0  3  0  0  0  0  0  0
  184.9820  178.0920  147.3900 C   0  0  0  0  0  0  0  0  0  0  0  0
  186.8330  177.6930  145.3230 C   0  0  0  0  0  0  0  0  0  0  0  0
  185.9310  176.9400  142.6810 C   0  0  0  0  0  2  0  0  0  0  0  0
  184.5320  177.8800  146.0840 C   0  0  0  0  0  3  0  0  0  0  0  0
  188.8630  175.9560  141.9380 C   0  0  2  0  0  3  0  0  0  0  0  0
  188.3910  176.0030  144.3980 C   0  0  0  0  0  2  0  0  0  0  0  0
  184.9190  177.5520  143.6440 C   0  0  0  0  0  2  0  0  0  0  0  0
  188.6650  173.6070  141.5860 C   0  0  0  0  0  2  0  0  0  0  0  0
  188.2060  177.2630  141.7540 N   0  0  0  0  0  0  0  0  0  0  0  0
  187.9300  174.8700  141.6190 N   0  0  0  0  0  2  0  0  0  0  0  0
  184.0660  178.2910  148.4150 O   0  0  0  0  0  1  0  0  0  0  0  0
  186.3500  178.1110  147.6640 C   0  0  0  0  0  3  0  0  0  0  0  0
  187.2790  177.6390  142.8380 C   0  0  2  0  0  3  0  0  0  0  0  0
  189.1930  173.2680  142.9770 C   0  0  0  0  0  2  0  0  0  0  0  0
  189.4670  175.7760  143.3480 C   0  0  1  0  0  3  0  0  0  0  0  0
  190.8240  174.0990  144.7750 C   0  0  0  0  0  2  0  0  0  0  0  0
  192.0420  174.8840  144.9460 N   0  0  0  0  0  0  0  0  0  0  0  0
  193.4230  176.7630  145.5440 C   0  0  1  0  0  3  0  0  0  0  0  0
  193.2210  174.7470  144.1170 C   0  0  0  0  0  3  0  0  0  0  0  0
  191.1960  176.4830  146.4470 O   0  0  0  0  0  0  0  0  0  0  0  0
  192.1330  176.0630  145.7150 C   0  0  0  0  0  0  0  0  0  0  0  0
  194.1910  176.7700  146.8510 C   0  0  0  0  0  1  0  0  0  0  0  0
  194.1630  175.8880  144.5280 C   0  0  0  0  0  3  0  0  0  0  0  0
  1 21  1  1  0  0  0
  2 17  1  0  0  0  0
  3 14  1  0  0  0  0
  4  7  1  0  0  0  0
  4  9  2  0  0  0  0
  5 11  1  6  0  0  0
  5  7  1  0  0  0  0
  6 17  2  0  0  0  0
  6 16  1  0  0  0  0
  7  2  2  0  0  0  0
  8 12  1  0  0  0  0
  9  6  1  0  0  0  0
 10 15  1  1  0  0  0
 10 20  1  0  0  0  0
 12  4  1  0  0  0  0
 13 15  1  0  0  0  0
 13 19  1  0  0  0  0
 14 10  1  0  0  0  0
 14 18  1  0  0  0  0
 18  8  1  1  0  0  0
 18  5  1  0  0  0  0
 19  1  1  0  0  0  0
 20  1  1  0  0  0  0
 20 11  1  1  0  0  0
 21 22  1  0  0  0  0
 22 26  1  0  0  0  0
 23 26  1  0  0  0  0
 23 27  1  1  0  0  0
 24 28  2  0  0  0  0
 24 22  1  0  0  0  0
 26 25  2  0  0  0  0
 28 23  1  0  0  0  0
M  END
>  <MODEL>
7

>  <REMARK>
 VINA RESULT:      -7.0      2.733      6.860
  Name = 
  2 active torsions:
  status: ('A' for Active; 'I' for Inactive)
    1  A    between atoms: C_1  and  C_2
    2  A    between atoms: C_2  and  N_3
                            x       y       z     vdW  Elec       q    Type
                         _______ _______ _______ _____ _____    ______ ____

>  <TORSDO>
F 2

$$$$
=
 OpenBabel11052418013D

 28 32  0  0  1  0  0  0  0  0999 V2000
  192.8660  174.7460  145.7370 C   0  0  1  0  0  3  0  0  0  0  0  0
  188.5060  175.1340  142.3430 C   0  0  0  0  0  3  0  0  0  0  0  0
  188.9420  174.1660  147.6180 C   0  0  0  0  0  1  0  0  0  0  0  0
  187.8930  177.1410  143.5700 C   0  0  0  0  0  0  0  0  0  0  0  0
  189.1640  175.2750  144.7520 C   0  0  1  0  0  3  0  0  0  0  0  0
  187.3480  176.9330  141.2160 C   0  0  0  0  0  0  0  0  0  0  0  0
  188.4860  175.8570  143.5420 C   0  0  0  0  0  0  0  0  0  0  0  0
  188.7200  177.4680  145.9310 C   0  0  0  0  0  2  0  0  0  0  0  0
  187.3180  177.6630  142.4070 C   0  0  0  0  0  3  0  0  0  0  0  0
  190.8810  175.4500  147.1040 C   0  0  2  0  0  3  0  0  0  0  0  0
  190.6730  175.3910  144.6080 C   0  0  0  0  0  2  0  0  0  0  0  0
  187.7420  177.9160  144.8500 C   0  0  0  0  0  2  0  0  0  0  0  0
  192.8970  176.7120  147.2600 C   0  0  0  0  0  2  0  0  0  0  0  0
  189.4160  175.4940  147.2580 N   0  0  0  0  0  0  0  0  0  0  0  0
  191.4400  176.8040  147.1840 N   0  0  0  0  0  2  0  0  0  0  0  0
  186.7850  177.4640  140.0640 O   0  0  0  0  0  1  0  0  0  0  0  0
  187.9380  175.6690  141.1850 C   0  0  0  0  0  3  0  0  0  0  0  0
  188.6890  175.9470  146.0570 C   0  0  2  0  0  3  0  0  0  0  0  0
  193.4570  176.1370  145.9620 C   0  0  0  0  0  2  0  0  0  0  0  0
  191.3320  174.7360  145.8120 C   0  0  1  0  0  3  0  0  0  0  0  0
  193.4600  174.0060  144.5330 C   0  0  0  0  0  2  0  0  0  0  0  0
  194.8180  174.4400  144.2240 N   0  0  0  0  0  0  0  0  0  0  0  0
  196.6300  175.3560  142.9310 C   0  0  1  0  0  3  0  0  0  0  0  0
  196.0100  173.8610  144.8080 C   0  0  0  0  0  3  0  0  0  0  0  0
  194.3190  175.7850  142.3620 O   0  0  0  0  0  0  0  0  0  0  0  0
  195.1690  175.2450  143.1200 C   0  0  0  0  0  0  0  0  0  0  0  0
  197.0760  176.7910  143.1380 C   0  0  0  0  0  1  0  0  0  0  0  0
  197.1950  174.4850  144.0570 C   0  0  0  0  0  3  0  0  0  0  0  0
  1 21  1  6  0  0  0
  1 20  1  0  0  0  0
  1 19  1  0  0  0  0
  2  7  1  0  0  0  0
  4 12  1  0  0  0  0
  5 11  1  6  0  0  0
  5 18  1  0  0  0  0
  6  9  2  0  0  0  0
  7  4  2  0  0  0  0
  7  5  1  0  0  0  0
  9  4  1  0  0  0  0
 10 15  1  6  0  0  0
 10 14  1  0  0  0  0
 12  8  1  0  0  0  0
 14  3  1  0  0  0  0
 15 13  1  0  0  0  0
 16  6  1  0  0  0  0
 17  6  1  0  0  0  0
 17  2  2  0  0  0  0
 18  8  1  6  0  0  0
 18 14  1  0  0  0  0
 19 13  1  0  0  0  0
 20 11  1  6  0  0  0
 20 10  1  0  0  0  0
 22 21  1  0  0  0  0
 22 24  1  0  0  0  0
 23 26  1  0  0  0  0
 23 27  1  1  0  0  0
 23 28  1  0  0  0  0
 25 26  2  0  0  0  0
 26 22  1  0  0  0  0
 28 24  2  0  0  0  0
M  END
>  <MODEL>
8

>  <REMARK>
 VINA RESULT:      -7.0      2.989      6.608
  Name = 
  2 active torsions:
  status: ('A' for Active; 'I' for Inactive)
    1  A    between atoms: C_1  and  C_2
    2  A    between atoms: C_2  and  N_3
                            x       y       z     vdW  Elec       q    Type
                         _______ _______ _______ _____ _____    ______ ____

>  <TORSDO>
F 2

$$$$
=
 OpenBabel11052418013D

 28 32  0  0  1  0  0  0  0  0999 V2000
  187.4260  176.7890  144.4790 C   0  0  1  0  0  3  0  0  0  0  0  0
  191.0200  173.0080  142.6180 C   0  0  0  0  0  3  0  0  0  0  0  0
  191.4470  178.2900  143.5520 C   0  0  0  0  0  1  0  0  0  0  0  0
  192.2520  173.3490  144.6860 C   0  0  0  0  0  0  0  0  0  0  0  0
  190.8920  175.2630  143.6930 C   0  0  1  0  0  3  0  0  0  0  0  0
  192.2700  171.1830  143.5960 C   0  0  0  0  0  0  0  0  0  0  0  0
  191.4210  173.8540  143.6590 C   0  0  0  0  0  0  0  0  0  0  0  0
  191.9880  175.5120  145.9590 C   0  0  0  0  0  2  0  0  0  0  0  0
  192.6790  172.0190  144.6380 C   0  0  0  0  0  3  0  0  0  0  0  0
  189.7410  177.5730  145.0530 C   0  0  2  0  0  3  0  0  0  0  0  0
  189.4380  175.2600  144.1400 C   0  0  0  0  0  2  0  0  0  0  0  0
  192.8040  174.2380  145.7660 C   0  0  0  0  0  2  0  0  0  0  0  0
  188.0900  177.4940  146.7690 C   0  0  0  0  0  2  0  0  0  0  0  0
  191.1870  177.5320  144.7680 N   0  0  0  0  0  0  0  0  0  0  0  0
  189.4910  177.2240  146.4550 N   0  0  0  0  0  2  0  0  0  0  0  0
  192.6900  169.8610  143.5630 O   0  0  0  0  0  1  0  0  0  0  0  0
  191.4440  171.6780  142.5850 C   0  0  0  0  0  3  0  0  0  0  0  0
  191.7390  176.1740  144.6060 C   0  0  2  0  0  3  0  0  0  0  0  0
  187.1820  176.5640  145.9700 C   0  0  0  0  0  2  0  0  0  0  0  0
  188.9110  176.6870  144.1000 C   0  0  1  0  0  3  0  0  0  0  0  0
  186.4710  176.0100  143.5670 C   0  0  0  0  0  2  0  0  0  0  0  0
  186.2300  176.6900  142.2990 N   0  0  0  0  0  0  0  0  0  0  0  0
  186.7000  177.5420  140.0970 C   0  0  1  0  0  3  0  0  0  0  0  0
  185.2980  177.7840  142.1260 C   0  0  0  0  0  3  0  0  0  0  0  0
  188.0370  175.7910  141.0940 O   0  0  0  0  0  0  0  0  0  0  0  0
  187.0660  176.5900  141.1660 C   0  0  0  0  0  0  0  0  0  0  0  0
  186.2360  176.7890  138.8650 C   0  0  0  0  0  1  0  0  0  0  0  0
  185.5150  178.3040  140.6970 C   0  0  0  0  0  3  0  0  0  0  0  0
  1 21  1  6  0  0  0
  1 19  1  0  0  0  0
  2  7  1  0  0  0  0
  3 14  1  0  0  0  0
  4 12  1  0  0  0  0
  5 11  1  1  0  0  0
  5 18  1  0  0  0  0
  6  9  2  0  0  0  0
  7  5  1  0  0  0  0
  7  4  2  0  0  0  0
  9  4  1  0  0  0  0
 10 15  1  1  0  0  0
 12  8  1  0  0  0  0
 14 10  1  0  0  0  0
 15 13  1  0  0  0  0
 16  6  1  0  0  0  0
 17  2  2  0  0  0  0
 17  6  1  0  0  0  0
 18 14  1  0  0  0  0
 18  8  1  1  0  0  0
 19 13  1  0  0  0  0
 20 11  1  1  0  0  0
 20  1  1  0  0  0  0
 20 10  1  0  0  0  0
 22 21  1  0  0  0  0
 23 27  1  6  0  0  0
 23 28  1  0  0  0  0
 23 26  1  0  0  0  0
 24 22  1  0  0  0  0
 25 26  2  0  0  0  0
 26 22  1  0  0  0  0
 28 24  2  0  0  0  0
M  END
>  <MODEL>
9

>  <REMARK>
 VINA RESULT:      -6.9      2.833      3.950
  Name = 
  2 active torsions:
  status: ('A' for Active; 'I' for Inactive)
    1  A    between atoms: C_1  and  C_2
    2  A    between atoms: C_2  and  N_3
                            x       y       z     vdW  Elec       q    Type
                         _______ _______ _______ _____ _____    ______ ____

>  <TORSDO>
F 2

$$$$
