=
 OpenBabel11052418373D

 34 39  0  0  1  0  0  0  0  0999 V2000
  188.9980  173.5440  142.3970 C   0  0  0  0  0  0  0  0  0  0  0  0
  191.3390  173.2480  142.8180 C   0  0  0  0  0  0  0  0  0  0  0  0
  190.1420  175.3610  143.7560 C   0  0  1  0  0  3  0  0  0  0  0  0
  190.6970  176.7090  145.5940 C   0  0  2  0  0  3  0  0  0  0  0  0
  190.0740  171.5440  141.7650 C   0  0  0  0  0  3  0  0  0  0  0  0
  191.2550  172.0260  142.2270 N   0  0  0  0  0  0  0  0  0  0  0  0
  191.7550  174.6930  145.5310 C   0  0  0  0  0  2  0  0  0  0  0  0
  190.1660  174.0030  143.0380 C   0  0  0  0  0  0  0  0  0  0  0  0
  191.4420  176.6760  146.9040 C   0  0  0  0  0  2  0  0  0  0  0  0
  188.9610  172.3150  141.8230 N   0  0  0  0  0  0  0  0  0  0  0  0
  188.7110  175.9570  143.7360 C   0  0  1  0  0  3  0  0  0  0  0  0
  187.8920  174.4360  142.2370 N   0  0  0  0  0  2  0  0  0  0  0  0
  192.6290  173.7870  143.0840 N   0  0  0  0  0  1  0  0  0  0  0  0
  189.3690  177.4560  145.6480 C   0  0  0  0  0  2  0  0  0  0  0  0
  188.7120  177.4030  144.2590 C   0  0  2  0  0  3  0  0  0  0  0  0
  192.2540  175.3950  146.7910 C   0  0  2  0  0  3  0  0  0  0  0  0
  190.4890  175.3210  145.1890 N   0  0  2  0  0  0  0  0  0  0  0  0
  188.0790  175.8150  142.4340 N   0  0  0  0  0  2  0  0  0  0  0  0
  185.3080  178.4060  145.5840 C   0  0  0  0  0  0  0  0  0  0  0  0
  184.7430  179.0420  144.4740 C   0  0  0  0  0  3  0  0  0  0  0  0
  187.3300  177.9780  144.3160 C   0  0  0  0  0  0  0  0  0  0  0  0
  185.4680  179.1470  143.2840 C   0  0  0  0  0  3  0  0  0  0  0  0
  186.5980  177.8760  145.5050 C   0  0  0  0  0  3  0  0  0  0  0  0
  186.7600  178.6170  143.2040 C   0  0  0  0  0  3  0  0  0  0  0  0
  184.3990  178.2760  147.0730 Cl  0  0  0  0  0  0  0  0  0  0  0  0
  193.6980  175.6440  146.7530 N   0  0  0  0  0  2  0  0  0  0  0  0
  194.1430  175.9930  145.4060 C   0  0  0  0  0  2  0  0  0  0  0  0
  195.7330  176.6150  143.1140 F   0  0  0  0  0  0  0  0  0  0  0  0
  195.4440  175.3290  145.1160 C   0  0  0  0  0  0  0  0  0  0  0  0
  196.1920  175.6780  143.9810 C   0  0  0  0  0  0  0  0  0  0  0  0
  197.9080  174.0930  144.6240 C   0  0  0  0  0  3  0  0  0  0  0  0
  197.1680  173.7490  145.7580 C   0  0  0  0  0  3  0  0  0  0  0  0
  195.9380  174.3680  146.0050 C   0  0  0  0  0  3  0  0  0  0  0  0
  197.4210  175.0570  143.7370 C   0  0  0  0  0  3  0  0  0  0  0  0
  1  8  1  0  0  0  0
  2  8  2  0  0  0  0
  2 13  1  0  0  0  0
  3  8  1  1  0  0  0
  3 17  1  0  0  0  0
  4 14  1  1  0  0  0
  4  9  1  0  0  0  0
  5 10  1  0  0  0  0
  5  6  2  0  0  0  0
  6  2  1  0  0  0  0
  7 16  1  0  0  0  0
 10  1  2  0  0  0  0
 11 18  1  6  0  0  0
 11  3  1  0  0  0  0
 11 15  1  0  0  0  0
 12  1  1  0  0  0  0
 12 18  1  0  0  0  0
 15 21  1  1  0  0  0
 15 14  1  0  0  0  0
 16 26  1  6  0  0  0
 16  9  1  0  0  0  0
 17  7  1  6  0  0  0
 17  4  1  0  0  0  0
 19 25  1  0  0  0  0
 20 19  2  0  0  0  0
 21 23  2  0  0  0  0
 22 20  1  0  0  0  0
 23 19  1  0  0  0  0
 24 22  2  0  0  0  0
 24 21  1  0  0  0  0
 27 26  1  0  0  0  0
 28 30  1  0  0  0  0
 29 27  1  0  0  0  0
 29 33  1  0  0  0  0
 30 29  2  0  0  0  0
 31 32  1  0  0  0  0
 32 33  2  0  0  0  0
 34 30  1  0  0  0  0
 34 31  2  0  0  0  0
M  END
>  <MODEL>
1

>  <REMARK>
 VINA RESULT:      -9.0      0.000      0.000
  Name = 
  4 active torsions:
  status: ('A' for Active; 'I' for Inactive)
    1  A    between atoms: C_3  and  C_13
    2  A    between atoms: C_3  and  N_17
    3  A    between atoms: C_12  and  C_28
    4  A    between atoms: N_17  and  C_29
                            x       y       z     vdW  Elec       q    Type
                         _______ _______ _______ _____ _____    ______ ____

>  <TORSDO>
F 4

$$$$
=
 OpenBabel11052418373D

 34 39  0  0  1  0  0  0  0  0999 V2000
  189.3640  173.9010  142.2890 C   0  0  0  0  0  0  0  0  0  0  0  0
  191.7600  173.9550  142.3020 C   0  0  0  0  0  0  0  0  0  0  0  0
  190.4500  175.5420  143.8970 C   0  0  1  0  0  3  0  0  0  0  0  0
  191.1150  176.5170  145.9250 C   0  0  2  0  0  3  0  0  0  0  0  0
  190.5940  172.3310  141.0320 C   0  0  0  0  0  3  0  0  0  0  0  0
  191.7530  172.9060  141.4380 N   0  0  0  0  0  0  0  0  0  0  0  0
  192.4290  174.7980  145.2110 C   0  0  0  0  0  2  0  0  0  0  0  0
  190.5470  174.4110  142.8620 C   0  0  0  0  0  0  0  0  0  0  0  0
  192.0750  176.3250  147.0710 C   0  0  0  0  0  2  0  0  0  0  0  0
  189.4070  172.8500  141.4330 N   0  0  0  0  0  0  0  0  0  0  0  0
  188.9660  175.8530  144.2210 C   0  0  1  0  0  3  0  0  0  0  0  0
  188.1290  174.5870  142.5100 N   0  0  0  0  0  2  0  0  0  0  0  0
  192.9840  174.6480  142.5200 N   0  0  0  0  0  1  0  0  0  0  0  0
  189.7220  176.9730  146.3440 C   0  0  0  0  0  2  0  0  0  0  0  0
  188.8470  177.1170  145.0880 C   0  0  2  0  0  3  0  0  0  0  0  0
  193.0330  175.2750  146.5290 C   0  0  2  0  0  3  0  0  0  0  0  0
  191.0450  175.2430  145.2130 N   0  0  2  0  0  0  0  0  0  0  0  0
  188.1430  175.8950  143.0230 N   0  0  0  0  0  2  0  0  0  0  0  0
  185.3750  178.6330  145.0950 C   0  0  0  0  0  0  0  0  0  0  0  0
  184.7670  177.9540  146.1550 C   0  0  0  0  0  3  0  0  0  0  0  0
  187.4270  177.3980  145.4740 C   0  0  0  0  0  0  0  0  0  0  0  0
  185.4860  176.9970  146.8770 C   0  0  0  0  0  3  0  0  0  0  0  0
  186.7020  178.3550  144.7550 C   0  0  0  0  0  3  0  0  0  0  0  0
  186.8130  176.7190  146.5380 C   0  0  0  0  0  3  0  0  0  0  0  0
  184.4750  179.8300  144.1910 Cl  0  0  0  0  0  0  0  0  0  0  0  0
  194.3960  175.7890  146.3620 N   0  0  0  0  0  2  0  0  0  0  0  0
  195.3220  174.7250  145.9810 C   0  0  0  0  0  2  0  0  0  0  0  0
  197.5740  173.2550  145.0130 F   0  0  0  0  0  0  0  0  0  0  0  0
  196.1230  175.1510  144.8010 C   0  0  0  0  0  0  0  0  0  0  0  0
  197.2140  174.3880  144.3590 C   0  0  0  0  0  0  0  0  0  0  0  0
  197.5790  175.9580  142.5490 C   0  0  0  0  0  3  0  0  0  0  0  0
  196.4890  176.7160  142.9840 C   0  0  0  0  0  3  0  0  0  0  0  0
  195.7600  176.3110  144.1070 C   0  0  0  0  0  3  0  0  0  0  0  0
  197.9410  174.7950  143.2360 C   0  0  0  0  0  3  0  0  0  0  0  0
  1 12  1  0  0  0  0
  1  8  1  0  0  0  0
  2 13  1  0  0  0  0
  2  8  2  0  0  0  0
  3  8  1  6  0  0  0
  3 11  1  0  0  0  0
  3 17  1  0  0  0  0
  4 14  1  1  0  0  0
  4  9  1  0  0  0  0
  5 10  1  0  0  0  0
  5  6  2  0  0  0  0
  6  2  1  0  0  0  0
  7 16  1  0  0  0  0
 10  1  2  0  0  0  0
 11 18  1  6  0  0  0
 11 15  1  0  0  0  0
 12 18  1  0  0  0  0
 15 21  1  1  0  0  0
 15 14  1  0  0  0  0
 16 26  1  6  0  0  0
 16  9  1  0  0  0  0
 17  7  1  6  0  0  0
 17  4  1  0  0  0  0
 19 20  1  0  0  0  0
 20 22  2  0  0  0  0
 21 24  2  0  0  0  0
 23 19  2  0  0  0  0
 23 21  1  0  0  0  0
 24 22  1  0  0  0  0
 25 19  1  0  0  0  0
 27 26  1  0  0  0  0
 29 27  1  0  0  0  0
 30 29  1  0  0  0  0
 30 28  1  0  0  0  0
 31 32  2  0  0  0  0
 31 34  1  0  0  0  0
 32 33  1  0  0  0  0
 33 29  2  0  0  0  0
 34 30  2  0  0  0  0
M  END
>  <MODEL>
2

>  <REMARK>
 VINA RESULT:      -9.0      1.308      1.878
  Name = 
  4 active torsions:
  status: ('A' for Active; 'I' for Inactive)
    1  A    between atoms: C_3  and  C_13
    2  A    between atoms: C_3  and  N_17
    3  A    between atoms: C_12  and  C_28
    4  A    between atoms: N_17  and  C_29
                            x       y       z     vdW  Elec       q    Type
                         _______ _______ _______ _____ _____    ______ ____

>  <TORSDO>
F 4

$$$$
=
 OpenBabel11052418373D

 34 39  0  0  1  0  0  0  0  0999 V2000
  188.2720  174.3580  142.2020 C   0  0  0  0  0  0  0  0  0  0  0  0
  190.6570  174.1400  142.2850 C   0  0  0  0  0  0  0  0  0  0  0  0
  189.4790  175.7960  143.9130 C   0  0  1  0  0  3  0  0  0  0  0  0
  190.1810  176.6020  146.0020 C   0  0  2  0  0  3  0  0  0  0  0  0
  189.3600  172.7140  140.9100 C   0  0  0  0  0  3  0  0  0  0  0  0
  190.5630  173.1360  141.3740 N   0  0  0  0  0  0  0  0  0  0  0  0
  191.3180  174.7790  145.2480 C   0  0  0  0  0  2  0  0  0  0  0  0
  189.4840  174.7060  142.8310 C   0  0  0  0  0  0  0  0  0  0  0  0
  191.0750  176.2560  147.1650 C   0  0  0  0  0  2  0  0  0  0  0  0
  188.2260  173.3450  141.3000 N   0  0  0  0  0  0  0  0  0  0  0  0
  188.0300  176.2580  144.2100 C   0  0  1  0  0  3  0  0  0  0  0  0
  187.1140  175.1680  142.4190 N   0  0  0  0  0  2  0  0  0  0  0  0
  191.9420  174.6820  142.5690 N   0  0  0  0  0  1  0  0  0  0  0  0
  188.8340  177.1950  146.4020 C   0  0  0  0  0  2  0  0  0  0  0  0
  188.0230  177.4890  145.1300 C   0  0  2  0  0  3  0  0  0  0  0  0
  191.9280  175.1290  146.6030 C   0  0  2  0  0  3  0  0  0  0  0  0
  189.9930  175.3760  145.2310 N   0  0  2  0  0  0  0  0  0  0  0  0
  187.2560  176.4430  142.9920 N   0  0  0  0  0  2  0  0  0  0  0  0
  184.4380  178.6620  144.7760 C   0  0  0  0  0  0  0  0  0  0  0  0
  184.0160  178.7020  146.1090 C   0  0  0  0  0  3  0  0  0  0  0  0
  186.6310  177.9110  145.4880 C   0  0  0  0  0  0  0  0  0  0  0  0
  184.8990  178.3490  147.1330 C   0  0  0  0  0  3  0  0  0  0  0  0
  185.7420  178.2670  144.4670 C   0  0  0  0  0  3  0  0  0  0  0  0
  186.2040  177.9530  146.8240 C   0  0  0  0  0  3  0  0  0  0  0  0
  183.3320  179.1050  143.4950 Cl  0  0  0  0  0  0  0  0  0  0  0  0
  193.3440  175.4920  146.4980 N   0  0  0  0  0  2  0  0  0  0  0  0
  193.9220  175.0230  145.2400 C   0  0  0  0  0  2  0  0  0  0  0  0
  193.2870  172.2460  145.0150 F   0  0  0  0  0  0  0  0  0  0  0  0
  194.9080  173.9400  145.5110 C   0  0  0  0  0  0  0  0  0  0  0  0
  194.5480  172.5910  145.3760 C   0  0  0  0  0  0  0  0  0  0  0  0
  196.7990  171.9300  145.9840 C   0  0  0  0  0  3  0  0  0  0  0  0
  197.1610  173.2740  146.1130 C   0  0  0  0  0  3  0  0  0  0  0  0
  196.2170  174.2780  145.8740 C   0  0  0  0  0  3  0  0  0  0  0  0
  195.4950  171.5890  145.6150 C   0  0  0  0  0  3  0  0  0  0  0  0
  1 12  1  0  0  0  0
  1  8  1  0  0  0  0
  2 13  1  0  0  0  0
  2  8  2  0  0  0  0
  3  8  1  6  0  0  0
  3 11  1  0  0  0  0
  3 17  1  0  0  0  0
  4 14  1  1  0  0  0
  4  9  1  0  0  0  0
  5 10  1  0  0  0  0
  5  6  2  0  0  0  0
  6  2  1  0  0  0  0
  7 16  1  0  0  0  0
 10  1  2  0  0  0  0
 11 18  1  6  0  0  0
 11 15  1  0  0  0  0
 12 18  1  0  0  0  0
 15 21  1  1  0  0  0
 15 14  1  0  0  0  0
 16 26  1  6  0  0  0
 16  9  1  0  0  0  0
 17  7  1  6  0  0  0
 17  4  1  0  0  0  0
 19 20  1  0  0  0  0
 20 22  2  0  0  0  0
 21 24  2  0  0  0  0
 23 19  2  0  0  0  0
 23 21  1  0  0  0  0
 24 22  1  0  0  0  0
 25 19  1  0  0  0  0
 27 29  1  0  0  0  0
 27 26  1  0  0  0  0
 28 30  1  0  0  0  0
 29 33  1  0  0  0  0
 30 29  2  0  0  0  0
 30 34  1  0  0  0  0
 31 32  1  0  0  0  0
 33 32  2  0  0  0  0
 34 31  2  0  0  0  0
M  END
>  <MODEL>
3

>  <REMARK>
 VINA RESULT:      -8.9      1.633      2.078
  Name = 
  4 active torsions:
  status: ('A' for Active; 'I' for Inactive)
    1  A    between atoms: C_3  and  C_13
    2  A    between atoms: C_3  and  N_17
    3  A    between atoms: C_12  and  C_28
    4  A    between atoms: N_17  and  C_29
                            x       y       z     vdW  Elec       q    Type
                         _______ _______ _______ _____ _____    ______ ____

>  <TORSDO>
F 4

$$$$
=
 OpenBabel11052418373D

 34 39  0  0  1  0  0  0  0  0999 V2000
  191.3040  172.9790  141.0430 C   0  0  0  0  0  0  0  0  0  0  0  0
  189.2690  174.1790  141.4530 C   0  0  0  0  0  0  0  0  0  0  0  0
  190.9960  173.9160  143.3850 C   0  0  1  0  0  3  0  0  0  0  0  0
  191.3450  175.2570  145.2790 C   0  0  2  0  0  3  0  0  0  0  0  0
  189.8180  173.4380  139.2720 C   0  0  0  0  0  3  0  0  0  0  0  0
  188.9670  174.0470  140.1350 N   0  0  0  0  0  0  0  0  0  0  0  0
  190.0850  176.2190  143.6430 C   0  0  0  0  0  2  0  0  0  0  0  0
  190.5280  173.7530  141.9310 C   0  0  0  0  0  0  0  0  0  0  0  0
  191.1430  176.6610  145.7890 C   0  0  0  0  0  2  0  0  0  0  0  0
  190.9630  172.8800  139.7340 N   0  0  0  0  0  0  0  0  0  0  0  0
  192.3810  173.2510  143.5860 C   0  0  1  0  0  3  0  0  0  0  0  0
  192.3770  172.1890  141.5600 N   0  0  0  0  0  2  0  0  0  0  0  0
  188.2530  174.6300  142.3420 N   0  0  0  0  0  1  0  0  0  0  0  0
  192.6840  174.6370  145.6650 C   0  0  0  0  0  2  0  0  0  0  0  0
  192.7640  173.2200  145.0750 C   0  0  2  0  0  3  0  0  0  0  0  0
  190.1870  177.2510  144.7630 C   0  0  2  0  0  3  0  0  0  0  0  0
  191.2040  175.3080  143.8260 N   0  0  2  0  0  0  0  0  0  0  0  0
  192.4600  171.9490  142.9420 N   0  0  0  0  0  2  0  0  0  0  0  0
  196.5350  172.9610  145.3260 C   0  0  0  0  0  0  0  0  0  0  0  0
  196.7080  171.6200  145.6820 C   0  0  0  0  0  3  0  0  0  0  0  0
  194.1310  172.6460  145.2880 C   0  0  0  0  0  0  0  0  0  0  0  0
  195.5950  170.7890  145.8410 C   0  0  0  0  0  3  0  0  0  0  0  0
  195.2500  173.4720  145.1310 C   0  0  0  0  0  3  0  0  0  0  0  0
  194.3090  171.3000  145.6450 C   0  0  0  0  0  3  0  0  0  0  0  0
  197.9290  173.9990  145.1290 Cl  0  0  0  0  0  0  0  0  0  0  0  0
  188.8780  177.5790  145.3370 N   0  0  0  0  0  2  0  0  0  0  0  0
  187.8720  177.7680  144.2930 C   0  0  0  0  0  2  0  0  0  0  0  0
  186.0620  179.7550  143.3230 F   0  0  0  0  0  0  0  0  0  0  0  0
  186.5440  178.0280  144.9140 C   0  0  0  0  0  0  0  0  0  0  0  0
  185.6870  179.0100  144.3920 C   0  0  0  0  0  0  0  0  0  0  0  0
  184.0340  178.4610  146.0770 C   0  0  0  0  0  3  0  0  0  0  0  0
  184.8830  177.4790  146.5940 C   0  0  0  0  0  3  0  0  0  0  0  0
  186.1360  177.2610  146.0110 C   0  0  0  0  0  3  0  0  0  0  0  0
  184.4350  179.2250  144.9770 C   0  0  0  0  0  3  0  0  0  0  0  0
  1 12  1  0  0  0  0
  1  8  1  0  0  0  0
  2  8  2  0  0  0  0
  2 13  1  0  0  0  0
  3  8  1  6  0  0  0
  3 11  1  0  0  0  0
  3 17  1  0  0  0  0
  4 14  1  6  0  0  0
  4  9  1  0  0  0  0
  5 10  1  0  0  0  0
  5  6  2  0  0  0  0
  6  2  1  0  0  0  0
  7 16  1  0  0  0  0
 10  1  2  0  0  0  0
 11 18  1  1  0  0  0
 11 15  1  0  0  0  0
 12 18  1  0  0  0  0
 15 21  1  6  0  0  0
 15 14  1  0  0  0  0
 16 26  1  1  0  0  0
 16  9  1  0  0  0  0
 17  7  1  1  0  0  0
 17  4  1  0  0  0  0
 19 20  1  0  0  0  0
 20 22  2  0  0  0  0
 21 24  2  0  0  0  0
 23 21  1  0  0  0  0
 23 19  2  0  0  0  0
 24 22  1  0  0  0  0
 25 19  1  0  0  0  0
 27 29  1  0  0  0  0
 27 26  1  0  0  0  0
 28 30  1  0  0  0  0
 29 33  1  0  0  0  0
 30 29  2  0  0  0  0
 30 34  1  0  0  0  0
 31 32  1  0  0  0  0
 33 32  2  0  0  0  0
 34 31  2  0  0  0  0
M  END
>  <MODEL>
4

>  <REMARK>
 VINA RESULT:      -8.7      3.454      8.250
  Name = 
  4 active torsions:
  status: ('A' for Active; 'I' for Inactive)
    1  A    between atoms: C_3  and  C_13
    2  A    between atoms: C_3  and  N_17
    3  A    between atoms: C_12  and  C_28
    4  A    between atoms: N_17  and  C_29
                            x       y       z     vdW  Elec       q    Type
                         _______ _______ _______ _____ _____    ______ ____

>  <TORSDO>
F 4

$$$$
=
 OpenBabel11052418373D

 34 39  0  0  1  0  0  0  0  0999 V2000
  190.8560  172.7310  140.8710 C   0  0  0  0  0  0  0  0  0  0  0  0
  188.5640  173.4270  140.9700 C   0  0  0  0  0  0  0  0  0  0  0  0
  190.2760  174.4670  142.6330 C   0  0  1  0  0  3  0  0  0  0  0  0
  190.2200  176.5300  143.7500 C   0  0  2  0  0  3  0  0  0  0  0  0
  189.3190  171.9890  139.2450 C   0  0  0  0  0  3  0  0  0  0  0  0
  188.3240  172.6700  139.8670 N   0  0  0  0  0  0  0  0  0  0  0  0
  188.7580  176.3410  142.0140 C   0  0  0  0  0  2  0  0  0  0  0  0
  189.8870  173.5840  141.4380 C   0  0  0  0  0  0  0  0  0  0  0  0
  189.6290  177.9130  143.6520 C   0  0  0  0  0  2  0  0  0  0  0  0
  190.5700  171.9970  139.7660 N   0  0  0  0  0  0  0  0  0  0  0  0
  191.7900  174.3310  142.9360 C   0  0  1  0  0  3  0  0  0  0  0  0
  192.1020  172.5420  141.5460 N   0  0  0  0  0  2  0  0  0  0  0  0
  187.4540  173.9380  141.6990 N   0  0  0  0  0  1  0  0  0  0  0  0
  191.6740  176.5010  144.2070 C   0  0  0  0  0  2  0  0  0  0  0  0
  192.1520  175.0400  144.2520 C   0  0  2  0  0  3  0  0  0  0  0  0
  188.5570  177.7410  142.5880 C   0  0  2  0  0  3  0  0  0  0  0  0
  190.0840  175.9160  142.4320 N   0  0  2  0  0  0  0  0  0  0  0  0
  192.2350  172.9470  142.8850 N   0  0  0  0  0  2  0  0  0  0  0  0
  195.8640  175.7660  144.0360 C   0  0  0  0  0  0  0  0  0  0  0  0
  196.3800  174.9180  145.0210 C   0  0  0  0  0  3  0  0  0  0  0  0
  193.6230  174.9830  144.5310 C   0  0  0  0  0  0  0  0  0  0  0  0
  195.5210  174.1000  145.7610 C   0  0  0  0  0  3  0  0  0  0  0  0
  194.4880  175.7990  143.7930 C   0  0  0  0  0  3  0  0  0  0  0  0
  194.1450  174.1330  145.5170 C   0  0  0  0  0  3  0  0  0  0  0  0
  196.9400  176.7890  143.1110 Cl  0  0  0  0  0  0  0  0  0  0  0  0
  187.2030  177.9370  143.1140 N   0  0  0  0  0  2  0  0  0  0  0  0
  186.7840  176.8060  143.9390 C   0  0  0  0  0  2  0  0  0  0  0  0
  187.6650  176.1580  146.5800 F   0  0  0  0  0  0  0  0  0  0  0  0
  186.1030  177.3020  145.1670 C   0  0  0  0  0  0  0  0  0  0  0  0
  186.5820  176.9630  146.4420 C   0  0  0  0  0  0  0  0  0  0  0  0
  184.8250  178.2890  147.4540 C   0  0  0  0  0  3  0  0  0  0  0  0
  184.3500  178.6330  146.1860 C   0  0  0  0  0  3  0  0  0  0  0  0
  184.9900  178.1420  145.0430 C   0  0  0  0  0  3  0  0  0  0  0  0
  185.9400  177.4560  147.5820 C   0  0  0  0  0  3  0  0  0  0  0  0
  1  8  1  0  0  0  0
  1 12  1  0  0  0  0
  2  8  2  0  0  0  0
  2 13  1  0  0  0  0
  3  8  1  6  0  0  0
  3 11  1  0  0  0  0
  4  9  1  6  0  0  0
  4 14  1  0  0  0  0
  5 10  1  0  0  0  0
  5  6  2  0  0  0  0
  6  2  1  0  0  0  0
  7 16  1  0  0  0  0
 10  1  2  0  0  0  0
 11 18  1  1  0  0  0
 11 15  1  0  0  0  0
 12 18  1  0  0  0  0
 14 15  1  0  0  0  0
 15 21  1  6  0  0  0
 16 26  1  1  0  0  0
 16  9  1  0  0  0  0
 17  7  1  1  0  0  0
 17  3  1  0  0  0  0
 17  4  1  0  0  0  0
 19 20  1  0  0  0  0
 20 22  2  0  0  0  0
 21 24  2  0  0  0  0
 23 19  2  0  0  0  0
 23 21  1  0  0  0  0
 24 22  1  0  0  0  0
 25 19  1  0  0  0  0
 26 27  1  0  0  0  0
 27 29  1  0  0  0  0
 29 30  1  0  0  0  0
 30 28  1  0  0  0  0
 30 34  2  0  0  0  0
 31 34  1  0  0  0  0
 32 31  2  0  0  0  0
 33 29  2  0  0  0  0
 33 32  1  0  0  0  0
M  END
>  <MODEL>
5

>  <REMARK>
 VINA RESULT:      -8.5      3.234      7.844
  Name = 
  4 active torsions:
  status: ('A' for Active; 'I' for Inactive)
    1  A    between atoms: C_3  and  C_13
    2  A    between atoms: C_3  and  N_17
    3  A    between atoms: C_12  and  C_28
    4  A    between atoms: N_17  and  C_29
                            x       y       z     vdW  Elec       q    Type
                         _______ _______ _______ _____ _____    ______ ____

>  <TORSDO>
F 4

$$$$
=
 OpenBabel11052418373D

 34 39  0  0  1  0  0  0  0  0999 V2000
  188.7210  174.0870  141.4800 C   0  0  0  0  0  0  0  0  0  0  0  0
  191.1110  173.9090  141.4240 C   0  0  0  0  0  0  0  0  0  0  0  0
  190.0140  175.7970  142.8430 C   0  0  1  0  0  3  0  0  0  0  0  0
  190.8440  176.9410  144.7160 C   0  0  2  0  0  3  0  0  0  0  0  0
  189.7510  172.2640  140.3960 C   0  0  0  0  0  3  0  0  0  0  0  0
  190.9740  172.7690  140.6970 N   0  0  0  0  0  0  0  0  0  0  0  0
  191.9640  175.0300  144.1870 C   0  0  0  0  0  2  0  0  0  0  0  0
  189.9670  174.5450  141.9550 C   0  0  0  0  0  0  0  0  0  0  0  0
  191.8250  176.7980  145.8520 C   0  0  0  0  0  2  0  0  0  0  0  0
  188.6340  172.9400  140.7600 N   0  0  0  0  0  0  0  0  0  0  0  0
  188.5800  176.2870  143.1640 C   0  0  1  0  0  3  0  0  0  0  0  0
  187.5640  174.9100  141.6460 N   0  0  0  0  0  2  0  0  0  0  0  0
  192.4010  174.5020  141.5220 N   0  0  0  0  0  1  0  0  0  0  0  0
  189.5160  177.5780  145.1110 C   0  0  0  0  0  2  0  0  0  0  0  0
  188.6120  177.6520  143.8700 C   0  0  2  0  0  3  0  0  0  0  0  0
  192.6590  175.6020  145.4190 C   0  0  2  0  0  3  0  0  0  0  0  0
  190.6290  175.6030  144.1700 N   0  0  2  0  0  0  0  0  0  0  0  0
  187.7190  176.2630  141.9920 N   0  0  0  0  0  2  0  0  0  0  0  0
  185.5490  178.4050  145.9700 C   0  0  0  0  0  0  0  0  0  0  0  0
  184.6850  178.9690  145.0260 C   0  0  0  0  0  3  0  0  0  0  0  0
  187.2400  178.1140  144.2560 C   0  0  0  0  0  0  0  0  0  0  0  0
  185.0950  179.1070  143.6970 C   0  0  0  0  0  3  0  0  0  0  0  0
  186.8230  177.9800  145.5850 C   0  0  0  0  0  3  0  0  0  0  0  0
  186.3700  178.6810  143.3120 C   0  0  0  0  0  3  0  0  0  0  0  0
  185.0350  178.2340  147.6330 Cl  0  0  0  0  0  0  0  0  0  0  0  0
  194.0570  175.9570  145.1540 N   0  0  0  0  0  2  0  0  0  0  0  0
  194.6300  175.1160  144.1050 C   0  0  0  0  0  2  0  0  0  0  0  0
  194.2020  172.3970  143.3350 F   0  0  0  0  0  0  0  0  0  0  0  0
  195.3630  173.9740  144.7180 C   0  0  0  0  0  0  0  0  0  0  0  0
  195.1230  172.6570  144.2960 C   0  0  0  0  0  0  0  0  0  0  0  0
  196.7910  171.8530  145.8600 C   0  0  0  0  0  3  0  0  0  0  0  0
  197.0350  173.1640  146.2770 C   0  0  0  0  0  3  0  0  0  0  0  0
  196.3240  174.2240  145.7040 C   0  0  0  0  0  3  0  0  0  0  0  0
  195.8360  171.6000  144.8710 C   0  0  0  0  0  3  0  0  0  0  0  0
  1 12  1  0  0  0  0
  1  8  1  0  0  0  0
  2 13  1  0  0  0  0
  2  8  2  0  0  0  0
  3  8  1  1  0  0  0
  3 11  1  0  0  0  0
  3 17  1  0  0  0  0
  4 14  1  1  0  0  0
  4  9  1  0  0  0  0
  5  6  2  0  0  0  0
  5 10  1  0  0  0  0
  6  2  1  0  0  0  0
  7 16  1  0  0  0  0
 10  1  2  0  0  0  0
 11 18  1  6  0  0  0
 11 15  1  0  0  0  0
 12 18  1  0  0  0  0
 15 21  1  1  0  0  0
 15 14  1  0  0  0  0
 16 26  1  6  0  0  0
 16  9  1  0  0  0  0
 17  7  1  6  0  0  0
 17  4  1  0  0  0  0
 19 25  1  0  0  0  0
 20 19  2  0  0  0  0
 21 23  2  0  0  0  0
 22 20  1  0  0  0  0
 23 19  1  0  0  0  0
 24 22  2  0  0  0  0
 24 21  1  0  0  0  0
 27 29  1  0  0  0  0
 27 26  1  0  0  0  0
 28 30  1  0  0  0  0
 29 33  1  0  0  0  0
 30 29  2  0  0  0  0
 30 34  1  0  0  0  0
 31 32  1  0  0  0  0
 33 32  2  0  0  0  0
 34 31  2  0  0  0  0
M  END
>  <MODEL>
6

>  <REMARK>
 VINA RESULT:      -8.4      1.457      1.628
  Name = 
  4 active torsions:
  status: ('A' for Active; 'I' for Inactive)
    1  A    between atoms: C_3  and  C_13
    2  A    between atoms: C_3  and  N_17
    3  A    between atoms: C_12  and  C_28
    4  A    between atoms: N_17  and  C_29
                            x       y       z     vdW  Elec       q    Type
                         _______ _______ _______ _____ _____    ______ ____

>  <TORSDO>
F 4

$$$$
=
 OpenBabel11052418373D

 34 39  0  0  1  0  0  0  0  0999 V2000
  192.2760  176.1730  146.3390 C   0  0  0  0  0  0  0  0  0  0  0  0
  193.0930  174.3550  145.0070 C   0  0  0  0  0  0  0  0  0  0  0  0
  190.5860  175.0340  144.8220 C   0  0  1  0  0  3  0  0  0  0  0  0
  189.0760  174.7320  143.0520 C   0  0  2  0  0  3  0  0  0  0  0  0
  194.5780  175.6680  146.3030 C   0  0  0  0  0  3  0  0  0  0  0  0
  194.3430  174.6290  145.4640 N   0  0  0  0  0  0  0  0  0  0  0  0
  191.2670  174.4440  142.5010 C   0  0  0  0  0  2  0  0  0  0  0  0
  192.0210  175.2140  145.3380 C   0  0  0  0  0  0  0  0  0  0  0  0
  189.0270  174.5370  141.5580 C   0  0  0  0  0  2  0  0  0  0  0  0
  193.5430  176.4130  146.7610 N   0  0  0  0  0  0  0  0  0  0  0  0
  189.6460  176.0890  145.4590 C   0  0  1  0  0  3  0  0  0  0  0  0
  191.1760  176.7960  147.0050 N   0  0  0  0  0  2  0  0  0  0  0  0
  192.8760  173.1340  144.3090 N   0  0  0  0  0  1  0  0  0  0  0  0
  188.0060  175.6730  143.5950 C   0  0  0  0  0  2  0  0  0  0  0  0
  188.1770  175.7920  145.1190 C   0  0  2  0  0  3  0  0  0  0  0  0
  190.4730  174.2060  141.2200 C   0  0  2  0  0  3  0  0  0  0  0  0
  190.4100  175.2330  143.3710 N   0  0  2  0  0  0  0  0  0  0  0  0
  189.8880  176.2460  146.8840 N   0  0  0  0  0  2  0  0  0  0  0  0
  185.9720  178.8670  145.3130 C   0  0  0  0  0  0  0  0  0  0  0  0
  185.5230  178.8150  146.6360 C   0  0  0  0  0  3  0  0  0  0  0  0
  187.2540  176.8380  145.6640 C   0  0  0  0  0  0  0  0  0  0  0  0
  185.9380  177.7780  147.4760 C   0  0  0  0  0  3  0  0  0  0  0  0
  186.8350  177.8800  144.8280 C   0  0  0  0  0  3  0  0  0  0  0  0
  186.8010  176.7900  146.9910 C   0  0  0  0  0  3  0  0  0  0  0  0
  185.4520  180.1660  144.2630 Cl  0  0  0  0  0  0  0  0  0  0  0  0
  190.6340  172.8400  140.7110 N   0  0  0  0  0  2  0  0  0  0  0  0
  189.3600  172.2870  140.2590 C   0  0  0  0  0  2  0  0  0  0  0  0
  189.0620  174.1660  138.1260 F   0  0  0  0  0  0  0  0  0  0  0  0
  189.4570  171.9060  138.8220 C   0  0  0  0  0  0  0  0  0  0  0  0
  189.3130  172.8710  137.8130 C   0  0  0  0  0  0  0  0  0  0  0  0
  189.6910  171.1660  136.1320 C   0  0  0  0  0  3  0  0  0  0  0  0
  189.8410  170.2060  137.1360 C   0  0  0  0  0  3  0  0  0  0  0  0
  189.7270  170.5760  138.4800 C   0  0  0  0  0  3  0  0  0  0  0  0
  189.4280  172.4960  136.4700 C   0  0  0  0  0  3  0  0  0  0  0  0
  1 10  2  0  0  0  0
  1 12  1  0  0  0  0
  2  8  2  0  0  0  0
  2  6  1  0  0  0  0
  3  8  1  1  0  0  0
  3 11  1  0  0  0  0
  4  9  1  6  0  0  0
  4 17  1  0  0  0  0
  4 14  1  0  0  0  0
  5 10  1  0  0  0  0
  6  5  2  0  0  0  0
  8  1  1  0  0  0  0
 11 18  1  1  0  0  0
 13  2  1  0  0  0  0
 14 15  1  0  0  0  0
 15 11  1  0  0  0  0
 15 21  1  6  0  0  0
 16 26  1  1  0  0  0
 16  9  1  0  0  0  0
 16  7  1  0  0  0  0
 17  7  1  6  0  0  0
 17  3  1  0  0  0  0
 18 12  1  0  0  0  0
 19 20  1  0  0  0  0
 20 22  2  0  0  0  0
 21 24  2  0  0  0  0
 23 19  2  0  0  0  0
 23 21  1  0  0  0  0
 24 22  1  0  0  0  0
 25 19  1  0  0  0  0
 27 26  1  0  0  0  0
 29 27  1  0  0  0  0
 30 28  1  0  0  0  0
 30 29  2  0  0  0  0
 31 34  2  0  0  0  0
 31 32  1  0  0  0  0
 32 33  2  0  0  0  0
 33 29  1  0  0  0  0
 34 30  1  0  0  0  0
M  END
>  <MODEL>
7

>  <REMARK>
 VINA RESULT:      -8.4      2.807      6.269
  Name = 
  4 active torsions:
  status: ('A' for Active; 'I' for Inactive)
    1  A    between atoms: C_3  and  C_13
    2  A    between atoms: C_3  and  N_17
    3  A    between atoms: C_12  and  C_28
    4  A    between atoms: N_17  and  C_29
                            x       y       z     vdW  Elec       q    Type
                         _______ _______ _______ _____ _____    ______ ____

>  <TORSDO>
F 4

$$$$
=
 OpenBabel11052418373D

 34 39  0  0  1  0  0  0  0  0999 V2000
  191.3890  176.2940  145.9310 C   0  0  0  0  0  0  0  0  0  0  0  0
  192.2450  174.2710  144.9700 C   0  0  0  0  0  0  0  0  0  0  0  0
  189.9080  175.1390  144.2200 C   0  0  1  0  0  3  0  0  0  0  0  0
  188.7410  174.7680  142.2180 C   0  0  2  0  0  3  0  0  0  0  0  0
  193.5880  175.5910  146.4080 C   0  0  0  0  0  3  0  0  0  0  0  0
  193.4070  174.4860  145.6420 N   0  0  0  0  0  0  0  0  0  0  0  0
  190.9530  174.2290  142.1510 C   0  0  0  0  0  2  0  0  0  0  0  0
  191.2290  175.2520  144.9950 C   0  0  0  0  0  0  0  0  0  0  0  0
  188.9580  174.4070  140.7710 C   0  0  0  0  0  2  0  0  0  0  0  0
  192.5700  176.4700  146.5750 N   0  0  0  0  0  0  0  0  0  0  0  0
  188.9830  176.3380  144.5500 C   0  0  1  0  0  3  0  0  0  0  0  0
  190.2550  177.0830  146.2990 N   0  0  0  0  0  2  0  0  0  0  0  0
  192.0360  173.0010  144.3630 N   0  0  0  0  0  1  0  0  0  0  0  0
  187.6950  175.8540  142.4430 C   0  0  0  0  0  2  0  0  0  0  0  0
  187.5820  176.1310  143.9510 C   0  0  2  0  0  3  0  0  0  0  0  0
  190.3970  173.9160  140.7650 C   0  0  2  0  0  3  0  0  0  0  0  0
  190.0350  175.1850  142.7510 N   0  0  2  0  0  0  0  0  0  0  0  0
  188.9630  176.6360  145.9740 N   0  0  0  0  0  2  0  0  0  0  0  0
  185.0340  178.4100  145.5850 C   0  0  0  0  0  0  0  0  0  0  0  0
  185.0090  179.4930  144.7010 C   0  0  0  0  0  3  0  0  0  0  0  0
  186.6900  177.3100  144.1960 C   0  0  0  0  0  0  0  0  0  0  0  0
  185.8230  179.4880  143.5650 C   0  0  0  0  0  3  0  0  0  0  0  0
  185.8730  177.3210  145.3330 C   0  0  0  0  0  3  0  0  0  0  0  0
  186.6620  178.3990  143.3120 C   0  0  0  0  0  3  0  0  0  0  0  0
  184.0150  178.4170  147.0070 Cl  0  0  0  0  0  0  0  0  0  0  0  0
  190.5060  172.4920  140.4320 N   0  0  0  0  0  2  0  0  0  0  0  0
  189.2740  171.9920  139.8250 C   0  0  0  0  0  2  0  0  0  0  0  0
  189.0140  173.7570  137.5920 F   0  0  0  0  0  0  0  0  0  0  0  0
  189.5380  171.5700  138.4220 C   0  0  0  0  0  0  0  0  0  0  0  0
  189.4050  172.4790  137.3610 C   0  0  0  0  0  0  0  0  0  0  0  0
  190.0870  170.7550  135.8000 C   0  0  0  0  0  3  0  0  0  0  0  0
  190.2250  169.8510  136.8560 C   0  0  0  0  0  3  0  0  0  0  0  0
  189.9530  170.2580  138.1660 C   0  0  0  0  0  3  0  0  0  0  0  0
  189.6780  172.0680  136.0520 C   0  0  0  0  0  3  0  0  0  0  0  0
  1 12  1  0  0  0  0
  1 10  2  0  0  0  0
  2  8  2  0  0  0  0
  2  6  1  0  0  0  0
  3 11  1  0  0  0  0
  3  8  1  1  0  0  0
  4  9  1  6  0  0  0
  4 14  1  0  0  0  0
  4 17  1  0  0  0  0
  5 10  1  0  0  0  0
  6  5  2  0  0  0  0
  8  1  1  0  0  0  0
 11 18  1  1  0  0  0
 13  2  1  0  0  0  0
 14 15  1  0  0  0  0
 15 21  1  6  0  0  0
 15 11  1  0  0  0  0
 16 26  1  1  0  0  0
 16  9  1  0  0  0  0
 16  7  1  0  0  0  0
 17  7  1  6  0  0  0
 17  3  1  0  0  0  0
 18 12  1  0  0  0  0
 19 25  1  0  0  0  0
 20 19  2  0  0  0  0
 21 23  2  0  0  0  0
 22 20  1  0  0  0  0
 23 19  1  0  0  0  0
 24 22  2  0  0  0  0
 24 21  1  0  0  0  0
 27 26  1  0  0  0  0
 29 27  1  0  0  0  0
 30 28  1  0  0  0  0
 30 29  2  0  0  0  0
 31 34  2  0  0  0  0
 31 32  1  0  0  0  0
 32 33  2  0  0  0  0
 33 29  1  0  0  0  0
 34 30  1  0  0  0  0
M  END
>  <MODEL>
8

>  <REMARK>
 VINA RESULT:      -8.1      2.865      6.194
  Name = 
  4 active torsions:
  status: ('A' for Active; 'I' for Inactive)
    1  A    between atoms: C_3  and  C_13
    2  A    between atoms: C_3  and  N_17
    3  A    between atoms: C_12  and  C_28
    4  A    between atoms: N_17  and  C_29
                            x       y       z     vdW  Elec       q    Type
                         _______ _______ _______ _____ _____    ______ ____

>  <TORSDO>
F 4

$$$$
=
 OpenBabel11052418373D

 34 39  0  0  1  0  0  0  0  0999 V2000
  191.9290  172.5930  140.8400 C   0  0  0  0  0  0  0  0  0  0  0  0
  189.6230  172.9140  141.4130 C   0  0  0  0  0  0  0  0  0  0  0  0
  191.4600  173.5620  143.1410 C   0  0  1  0  0  3  0  0  0  0  0  0
  191.3860  175.1160  144.8980 C   0  0  2  0  0  3  0  0  0  0  0  0
  190.2450  172.2350  139.2310 C   0  0  0  0  0  3  0  0  0  0  0  0
  189.2940  172.5380  140.1490 N   0  0  0  0  0  0  0  0  0  0  0  0
  189.7130  175.3220  143.3660 C   0  0  0  0  0  2  0  0  0  0  0  0
  190.9810  173.0780  141.7640 C   0  0  0  0  0  0  0  0  0  0  0  0
  190.6710  176.3660  145.3430 C   0  0  0  0  0  2  0  0  0  0  0  0
  191.5520  172.2320  139.5880 N   0  0  0  0  0  0  0  0  0  0  0  0
  193.0070  173.5310  143.2190 C   0  0  1  0  0  3  0  0  0  0  0  0
  193.2700  172.3550  141.2740 N   0  0  0  0  0  2  0  0  0  0  0  0
  188.5890  173.0090  142.3860 N   0  0  0  0  0  1  0  0  0  0  0  0
  192.8880  175.1270  145.1610 C   0  0  0  0  0  2  0  0  0  0  0  0
  193.4910  173.8080  144.6510 C   0  0  2  0  0  3  0  0  0  0  0  0
  189.4760  176.4160  144.4030 C   0  0  2  0  0  3  0  0  0  0  0  0
  191.1170  174.9580  143.4710 N   0  0  2  0  0  0  0  0  0  0  0  0
  193.5580  172.3110  142.6490 N   0  0  0  0  0  2  0  0  0  0  0  0
  197.0770  174.8790  144.0610 C   0  0  0  0  0  0  0  0  0  0  0  0
  197.7810  173.9820  144.8700 C   0  0  0  0  0  3  0  0  0  0  0  0
  194.9860  173.8540  144.7370 C   0  0  0  0  0  0  0  0  0  0  0  0
  197.0920  173.0200  145.6130 C   0  0  0  0  0  3  0  0  0  0  0  0
  195.6820  174.8150  143.9960 C   0  0  0  0  0  3  0  0  0  0  0  0
  195.6970  172.9550  145.5480 C   0  0  0  0  0  3  0  0  0  0  0  0
  197.9410  176.0830  143.1310 Cl  0  0  0  0  0  0  0  0  0  0  0  0
  188.2000  176.2510  145.1050 N   0  0  0  0  0  2  0  0  0  0  0  0
  188.0040  177.2960  146.1070 C   0  0  0  0  0  2  0  0  0  0  0  0
  187.1470  178.6690  143.7530 F   0  0  0  0  0  0  0  0  0  0  0  0
  186.6450  177.8860  145.9620 C   0  0  0  0  0  0  0  0  0  0  0  0
  186.2700  178.5420  144.7790 C   0  0  0  0  0  0  0  0  0  0  0  0
  184.0660  178.9460  145.7040 C   0  0  0  0  0  3  0  0  0  0  0  0
  184.4360  178.2870  146.8790 C   0  0  0  0  0  3  0  0  0  0  0  0
  185.7230  177.7560  147.0070 C   0  0  0  0  0  3  0  0  0  0  0  0
  184.9820  179.0730  144.6550 C   0  0  0  0  0  3  0  0  0  0  0  0
  1 12  1  0  0  0  0
  1  8  1  0  0  0  0
  2  8  2  0  0  0  0
  2 13  1  0  0  0  0
  3  8  1  6  0  0  0
  3 11  1  0  0  0  0
  3 17  1  0  0  0  0
  4 14  1  6  0  0  0
  4  9  1  0  0  0  0
  5 10  1  0  0  0  0
  5  6  2  0  0  0  0
  6  2  1  0  0  0  0
  7 16  1  0  0  0  0
 10  1  2  0  0  0  0
 11 18  1  1  0  0  0
 11 15  1  0  0  0  0
 12 18  1  0  0  0  0
 15 21  1  6  0  0  0
 15 14  1  0  0  0  0
 16 26  1  1  0  0  0
 16  9  1  0  0  0  0
 17  7  1  1  0  0  0
 17  4  1  0  0  0  0
 19 20  1  0  0  0  0
 20 22  2  0  0  0  0
 21 24  2  0  0  0  0
 23 19  2  0  0  0  0
 23 21  1  0  0  0  0
 24 22  1  0  0  0  0
 25 19  1  0  0  0  0
 26 27  1  0  0  0  0
 28 30  1  0  0  0  0
 29 27  1  0  0  0  0
 29 33  1  0  0  0  0
 30 29  2  0  0  0  0
 31 32  1  0  0  0  0
 32 33  2  0  0  0  0
 34 30  1  0  0  0  0
 34 31  2  0  0  0  0
M  END
>  <MODEL>
9

>  <REMARK>
 VINA RESULT:      -8.0      3.242      8.241
  Name = 
  4 active torsions:
  status: ('A' for Active; 'I' for Inactive)
    1  A    between atoms: C_3  and  C_13
    2  A    between atoms: C_3  and  N_17
    3  A    between atoms: C_12  and  C_28
    4  A    between atoms: N_17  and  C_29
                            x       y       z     vdW  Elec       q    Type
                         _______ _______ _______ _____ _____    ______ ____

>  <TORSDO>
F 4

$$$$
