=
 OpenBabel11052421363D

 32 35  0  0  1  0  0  0  0  0999 V2000
  183.2360  178.2380  141.2370 C   0  0  0  0  0  0  0  0  0  0  0  0
  187.8140  177.6540  143.2240 C   0  0  0  0  0  0  0  0  0  0  0  0
  185.9900  177.9450  141.6750 C   0  0  0  0  0  0  0  0  0  0  0  0
  185.5670  177.7860  144.0320 N   0  0  0  0  0  0  0  0  0  0  0  0
  183.7240  178.0870  142.5410 C   0  0  0  0  0  3  0  0  0  0  0  0
  186.8990  177.6440  144.2830 C   0  0  0  0  0  0  0  0  0  0  0  0
  187.3950  177.4230  145.6560 C   0  0  0  0  0  0  0  0  0  0  0  0
  189.7230  177.6420  144.7970 C   0  0  2  0  0  3  0  0  0  0  0  0
  184.1340  178.2400  140.1550 C   0  0  0  0  0  3  0  0  0  0  0  0
  185.0950  177.9410  142.7660 C   0  0  0  0  0  0  0  0  0  0  0  0
  185.5070  178.0940  140.3740 C   0  0  0  0  0  3  0  0  0  0  0  0
  189.1970  177.1610  147.2280 N   0  0  0  0  0  1  0  0  0  0  0  0
  188.7200  177.3510  145.8950 C   0  0  0  0  0  0  0  0  0  0  0  0
  187.3560  177.7980  141.9130 C   0  0  0  0  0  3  0  0  0  0  0  0
  189.1750  177.4960  143.4830 O   0  0  0  0  0  0  0  0  0  0  0  0
  180.9780  178.8620  141.9820 C   0  0  0  0  0  3  0  0  0  0  0  0
  181.7890  178.3920  141.0380 C   0  0  0  0  0  3  0  0  0  0  0  0
  178.6060  178.8810  143.4630 C   0  0  0  0  0  1  0  0  0  0  0  0
  179.1720  179.0430  141.6960 P   0  0  2  0  0  0  0  0  0  0  0  0
  178.8750  177.3910  141.2530 O   0  0  0  0  0  1  0  0  0  0  0  0
  186.4100  177.2660  146.7780 C   0  0  0  0  0  2  0  0  0  0  0  0
  185.9490  178.6230  147.2900 C   0  0  0  0  0  2  0  0  0  0  0  0
  184.5560  178.6940  147.2780 O   0  0  0  0  0  1  0  0  0  0  0  0
  190.9590  176.7630  144.9290 C   0  0  0  0  0  2  0  0  0  0  0  0
  191.0590  175.8700  143.7790 N   0  0  0  0  0  0  0  0  0  0  0  0
  189.9430  173.6680  143.9580 C   0  0  1  0  0  3  0  0  0  0  0  0
  188.9630  174.4160  143.3270 F   0  0  0  0  0  0  0  0  0  0  0  0
  191.1930  174.4950  144.2610 C   0  0  2  0  0  3  0  0  0  0  0  0
  190.1710  174.2180  145.3490 C   0  0  0  0  0  2  0  0  0  0  0  0
  192.2360  176.2340  142.9800 C   0  0  0  0  0  2  0  0  0  0  0  0
  193.5930  175.0050  143.0750 S   0  0  0  0  0  0  0  0  0  0  0  0
  194.6650  176.1620  143.9710 C   0  0  0  0  0  1  0  0  0  0  0  0
  1  5  1  0  0  0  0
  2 15  1  0  0  0  0
  2  6  1  0  0  0  0
  3 14  1  0  0  0  0
  3 10  1  0  0  0  0
  4  6  2  0  0  0  0
  5 10  2  0  0  0  0
  6  7  1  0  0  0  0
  7 13  2  0  0  0  0
  7 21  1  0  0  0  0
  8 24  1  6  0  0  0
  8 13  1  0  0  0  0
  9 11  1  0  0  0  0
  9  1  2  0  0  0  0
 10  4  1  0  0  0  0
 11  3  2  0  0  0  0
 13 12  1  0  0  0  0
 14  2  2  0  0  0  0
 15  8  1  0  0  0  0
 17  1  1  0  0  0  0
 17 16  2  0  0  0  0
 19 16  1  0  0  0  0
 19 18  1  1  0  0  0
 20 19  1  0  0  0  0
 21 22  1  0  0  0  0
 23 22  1  0  0  0  0
 25 24  1  0  0  0  0
 26 27  1  6  0  0  0
 26 28  1  0  0  0  0
 26 29  1  0  0  0  0
 28 25  1  6  0  0  0
 28 29  1  0  0  0  0
 30 31  1  0  0  0  0
 30 25  1  0  0  0  0
 31 32  1  0  0  0  0
M  END
>  <MODEL>
1

>  <REMARK>
 VINA RESULT:      -7.1      0.000      0.000
  Name = 
  9 active torsions:
  status: ('A' for Active; 'I' for Inactive)
    1  A    between atoms: C_2  and  C_24
    2  A    between atoms: C_4  and  C_13
    3  A    between atoms: S_6  and  C_7
    4  A    between atoms: C_7  and  N_32
    5  A    between atoms: C_10  and  P_17
    6  A    between atoms: C_13  and  C_15
    7  A    between atoms: C_16  and  C_27
    8  A    between atoms: C_22  and  N_32
    9  A    between atoms: C_27  and  N_32
                            x       y       z     vdW  Elec       q    Type
                         _______ _______ _______ _____ _____    ______ ____

>  <TORSDO>
F 9

$$$$
=
 OpenBabel11052421363D

 32 35  0  0  1  0  0  0  0  0999 V2000
  183.7760  178.5060  142.8870 C   0  0  0  0  0  0  0  0  0  0  0  0
  188.4730  177.0210  143.8790 C   0  0  0  0  0  0  0  0  0  0  0  0
  186.3360  178.1320  143.9700 C   0  0  0  0  0  0  0  0  0  0  0  0
  186.8020  176.5380  142.2370 N   0  0  0  0  0  0  0  0  0  0  0  0
  184.6620  177.6020  142.2890 C   0  0  0  0  0  3  0  0  0  0  0  0
  188.0530  176.3280  142.7370 C   0  0  0  0  0  0  0  0  0  0  0  0
  189.0000  175.4190  142.0610 C   0  0  0  0  0  0  0  0  0  0  0  0
  190.5600  175.6960  143.9830 C   0  0  2  0  0  3  0  0  0  0  0  0
  184.1790  179.2220  144.0280 C   0  0  0  0  0  3  0  0  0  0  0  0
  185.9390  177.4100  142.8230 C   0  0  0  0  0  0  0  0  0  0  0  0
  185.4550  179.0350  144.5670 C   0  0  0  0  0  3  0  0  0  0  0  0
  191.1120  174.2730  141.9620 N   0  0  0  0  0  1  0  0  0  0  0  0
  190.2080  175.1720  142.6060 C   0  0  0  0  0  0  0  0  0  0  0  0
  187.6130  177.9320  144.4930 C   0  0  0  0  0  3  0  0  0  0  0  0
  189.7570  176.8130  144.3810 O   0  0  0  0  0  0  0  0  0  0  0  0
  182.0700  178.0860  141.1690 C   0  0  0  0  0  3  0  0  0  0  0  0
  182.4410  178.6800  142.2990 C   0  0  0  0  0  3  0  0  0  0  0  0
  180.2450  180.1620  140.7400 C   0  0  0  0  0  1  0  0  0  0  0  0
  180.3890  178.3250  140.4640 P   0  0  2  0  0  0  0  0  0  0  0  0
  179.5100  177.8530  141.8830 O   0  0  0  0  0  1  0  0  0  0  0  0
  188.6080  174.7850  140.7580 C   0  0  0  0  0  2  0  0  0  0  0  0
  188.0810  173.3750  140.9770 C   0  0  0  0  0  2  0  0  0  0  0  0
  188.1190  172.6560  139.7810 O   0  0  0  0  0  1  0  0  0  0  0  0
  192.0310  176.0770  144.0710 C   0  0  0  0  0  2  0  0  0  0  0  0
  192.5540  175.7420  145.3920 N   0  0  0  0  0  0  0  0  0  0  0  0
  194.9000  175.7040  146.1780 C   0  0  1  0  0  3  0  0  0  0  0  0
  194.3780  176.7360  146.9410 F   0  0  0  0  0  0  0  0  0  0  0  0
  193.8600  175.1010  145.2340 C   0  0  2  0  0  3  0  0  0  0  0  0
  194.8770  176.1040  144.7180 C   0  0  0  0  0  2  0  0  0  0  0  0
  191.6270  174.8230  146.0650 C   0  0  0  0  0  2  0  0  0  0  0  0
  191.0170  175.4500  147.6750 S   0  0  0  0  0  0  0  0  0  0  0  0
  189.3510  174.8000  147.3710 C   0  0  0  0  0  1  0  0  0  0  0  0
  1  9  1  0  0  0  0
  2 15  1  0  0  0  0
  2 14  1  0  0  0  0
  3 14  2  0  0  0  0
  3 11  1  0  0  0  0
  4  6  1  0  0  0  0
  4 10  2  0  0  0  0
  5 10  1  0  0  0  0
  5  1  2  0  0  0  0
  6  2  2  0  0  0  0
  7 13  2  0  0  0  0
  7  6  1  0  0  0  0
  8 24  1  6  0  0  0
  8 15  1  0  0  0  0
  9 11  2  0  0  0  0
 10  3  1  0  0  0  0
 12 13  1  0  0  0  0
 13  8  1  0  0  0  0
 16 17  2  0  0  0  0
 17  1  1  0  0  0  0
 19 18  1  1  0  0  0
 19 16  1  0  0  0  0
 19 20  1  0  0  0  0
 21 22  1  0  0  0  0
 21  7  1  0  0  0  0
 23 22  1  0  0  0  0
 24 25  1  0  0  0  0
 25 30  1  0  0  0  0
 26 27  1  1  0  0  0
 28 25  1  1  0  0  0
 28 26  1  0  0  0  0
 29 28  1  0  0  0  0
 29 26  1  0  0  0  0
 30 31  1  0  0  0  0
 32 31  1  0  0  0  0
M  END
>  <MODEL>
2

>  <REMARK>
 VINA RESULT:      -6.6      2.607      4.325
  Name = 
  9 active torsions:
  status: ('A' for Active; 'I' for Inactive)
    1  A    between atoms: C_2  and  C_24
    2  A    between atoms: C_4  and  C_13
    3  A    between atoms: S_6  and  C_7
    4  A    between atoms: C_7  and  N_32
    5  A    between atoms: C_10  and  P_17
    6  A    between atoms: C_13  and  C_15
    7  A    between atoms: C_16  and  C_27
    8  A    between atoms: C_22  and  N_32
    9  A    between atoms: C_27  and  N_32
                            x       y       z     vdW  Elec       q    Type
                         _______ _______ _______ _____ _____    ______ ____

>  <TORSDO>
F 9

$$$$
=
 OpenBabel11052421363D

 32 35  0  0  1  0  0  0  0  0999 V2000
  194.7420  174.8250  145.3860 C   0  0  0  0  0  0  0  0  0  0  0  0
  190.0010  176.4220  144.9210 C   0  0  0  0  0  0  0  0  0  0  0  0
  192.2700  176.1170  145.6730 C   0  0  0  0  0  0  0  0  0  0  0  0
  191.4240  174.8450  143.8230 N   0  0  0  0  0  0  0  0  0  0  0  0
  193.6860  174.5130  144.5210 C   0  0  0  0  0  3  0  0  0  0  0  0
  190.2100  175.4550  143.9310 C   0  0  0  0  0  0  0  0  0  0  0  0
  189.0860  175.0720  143.0540 C   0  0  0  0  0  0  0  0  0  0  0  0
  187.7690  176.9630  144.0010 C   0  0  2  0  0  3  0  0  0  0  0  0
  194.5540  175.7840  146.3960 C   0  0  0  0  0  3  0  0  0  0  0  0
  192.4520  175.1530  144.6580 C   0  0  0  0  0  0  0  0  0  0  0  0
  193.3210  176.4280  146.5390 C   0  0  0  0  0  3  0  0  0  0  0  0
  186.8350  175.3750  142.2620 N   0  0  0  0  0  1  0  0  0  0  0  0
  187.9130  175.7320  143.1300 C   0  0  0  0  0  0  0  0  0  0  0  0
  191.0340  176.7480  145.8010 C   0  0  0  0  0  3  0  0  0  0  0  0
  188.7540  177.0340  145.0370 O   0  0  0  0  0  0  0  0  0  0  0  0
  196.1130  172.8550  144.8560 C   0  0  0  0  0  3  0  0  0  0  0  0
  196.0270  174.1340  145.2100 C   0  0  0  0  0  3  0  0  0  0  0  0
  197.6620  171.7580  142.8010 C   0  0  0  0  0  1  0  0  0  0  0  0
  197.7380  172.0230  144.6440 P   0  0  2  0  0  0  0  0  0  0  0  0
  197.2060  170.4310  145.0840 O   0  0  0  0  0  1  0  0  0  0  0  0
  189.2600  173.9360  142.0880 C   0  0  0  0  0  2  0  0  0  0  0  0
  188.9100  172.6080  142.7430 C   0  0  0  0  0  2  0  0  0  0  0  0
  189.9760  171.7160  142.6210 O   0  0  0  0  0  1  0  0  0  0  0  0
  186.3800  177.0460  144.6180 C   0  0  0  0  0  2  0  0  0  0  0  0
  185.9510  178.4390  144.6920 N   0  0  0  0  0  0  0  0  0  0  0  0
  184.9870  178.9010  146.9240 C   0  0  1  0  0  3  0  0  0  0  0  0
  186.3390  179.0680  147.1760 F   0  0  0  0  0  0  0  0  0  0  0  0
  184.7150  178.5100  145.4720 C   0  0  2  0  0  3  0  0  0  0  0  0
  184.7220  177.4560  146.5640 C   0  0  0  0  0  2  0  0  0  0  0  0
  185.7140  178.9490  143.3360 C   0  0  0  0  0  2  0  0  0  0  0  0
  184.3260  178.1180  142.4740 S   0  0  0  0  0  0  0  0  0  0  0  0
  185.1750  178.2170  140.8740 C   0  0  0  0  0  1  0  0  0  0  0  0
  1  9  1  0  0  0  0
  2 15  1  0  0  0  0
  2 14  1  0  0  0  0
  3 14  2  0  0  0  0
  3 11  1  0  0  0  0
  4  6  1  0  0  0  0
  4 10  2  0  0  0  0
  5 10  1  0  0  0  0
  5  1  2  0  0  0  0
  6  2  2  0  0  0  0
  7 13  2  0  0  0  0
  7  6  1  0  0  0  0
  8 24  1  1  0  0  0
  8 15  1  0  0  0  0
  9 11  2  0  0  0  0
 10  3  1  0  0  0  0
 12 13  1  0  0  0  0
 13  8  1  0  0  0  0
 16 17  2  0  0  0  0
 17  1  1  0  0  0  0
 19 18  1  6  0  0  0
 19 16  1  0  0  0  0
 19 20  1  0  0  0  0
 21 22  1  0  0  0  0
 21  7  1  0  0  0  0
 23 22  1  0  0  0  0
 24 25  1  0  0  0  0
 26 27  1  6  0  0  0
 28 25  1  6  0  0  0
 28 29  1  0  0  0  0
 28 26  1  0  0  0  0
 29 26  1  0  0  0  0
 30 25  1  0  0  0  0
 31 30  1  0  0  0  0
 32 31  1  0  0  0  0
M  END
>  <MODEL>
3

>  <REMARK>
 VINA RESULT:      -6.5      5.077     10.103
  Name = 
  9 active torsions:
  status: ('A' for Active; 'I' for Inactive)
    1  A    between atoms: C_2  and  C_24
    2  A    between atoms: C_4  and  C_13
    3  A    between atoms: S_6  and  C_7
    4  A    between atoms: C_7  and  N_32
    5  A    between atoms: C_10  and  P_17
    6  A    between atoms: C_13  and  C_15
    7  A    between atoms: C_16  and  C_27
    8  A    between atoms: C_22  and  N_32
    9  A    between atoms: C_27  and  N_32
                            x       y       z     vdW  Elec       q    Type
                         _______ _______ _______ _____ _____    ______ ____

>  <TORSDO>
F 9

$$$$
=
 OpenBabel11052421363D

 32 35  0  0  1  0  0  0  0  0999 V2000
  182.9880  178.2790  141.5150 C   0  0  0  0  0  0  0  0  0  0  0  0
  187.9040  177.7280  142.3980 C   0  0  0  0  0  0  0  0  0  0  0  0
  185.7620  177.9220  141.3100 C   0  0  0  0  0  0  0  0  0  0  0  0
  185.9230  178.0410  143.7020 N   0  0  0  0  0  0  0  0  0  0  0  0
  183.7760  178.2520  142.6720 C   0  0  0  0  0  3  0  0  0  0  0  0
  187.2750  177.8730  143.6400 C   0  0  0  0  0  0  0  0  0  0  0  0
  188.0870  177.7830  144.8700 C   0  0  0  0  0  0  0  0  0  0  0  0
  190.1390  177.8100  143.4570 C   0  0  2  0  0  3  0  0  0  0  0  0
  183.5950  178.1240  140.2570 C   0  0  0  0  0  3  0  0  0  0  0  0
  185.1590  178.0750  142.5770 C   0  0  0  0  0  0  0  0  0  0  0  0
  184.9780  177.9460  140.1550 C   0  0  0  0  0  3  0  0  0  0  0  0
  190.2140  177.6220  145.9820 N   0  0  0  0  0  1  0  0  0  0  0  0
  189.4290  177.6830  144.7890 C   0  0  0  0  0  0  0  0  0  0  0  0
  187.1430  177.7450  141.2280 C   0  0  0  0  0  3  0  0  0  0  0  0
  189.2840  177.5430  142.3390 O   0  0  0  0  0  0  0  0  0  0  0  0
  180.8390  179.2710  140.8550 C   0  0  0  0  0  3  0  0  0  0  0  0
  181.5380  178.4700  141.6530 C   0  0  0  0  0  3  0  0  0  0  0  0
  178.8570  178.7410  142.7560 C   0  0  0  0  0  1  0  0  0  0  0  0
  179.0240  179.4840  141.0560 P   0  0  2  0  0  0  0  0  0  0  0  0
  178.5590  178.0590  140.1830 O   0  0  0  0  0  1  0  0  0  0  0  0
  187.4030  177.7920  146.2060 C   0  0  0  0  0  2  0  0  0  0  0  0
  186.8930  176.4030  146.5640 C   0  0  0  0  0  2  0  0  0  0  0  0
  187.9000  175.6680  147.1900 O   0  0  0  0  0  1  0  0  0  0  0  0
  191.3570  176.9000  143.3890 C   0  0  0  0  0  2  0  0  0  0  0  0
  190.9330  175.5060  143.3010 N   0  0  0  0  0  0  0  0  0  0  0  0
  191.3400  174.0070  145.2270 C   0  0  1  0  0  3  0  0  0  0  0  0
  190.0220  174.3740  145.4460 F   0  0  0  0  0  0  0  0  0  0  0  0
  191.9230  174.6680  143.9780 C   0  0  2  0  0  3  0  0  0  0  0  0
  192.2260  175.2260  145.3580 C   0  0  0  0  0  2  0  0  0  0  0  0
  190.8340  175.1150  141.8890 C   0  0  0  0  0  2  0  0  0  0  0  0
  190.0510  173.4780  141.6370 S   0  0  0  0  0  0  0  0  0  0  0  0
  188.4650  174.0620  142.2960 C   0  0  0  0  0  1  0  0  0  0  0  0
  1 17  1  0  0  0  0
  1  5  1  0  0  0  0
  2  6  1  0  0  0  0
  3 10  1  0  0  0  0
  6  4  2  0  0  0  0
  6  7  1  0  0  0  0
  7 21  1  0  0  0  0
  8 24  1  1  0  0  0
  8 13  1  0  0  0  0
  9  1  2  0  0  0  0
 10  5  2  0  0  0  0
 10  4  1  0  0  0  0
 11  9  1  0  0  0  0
 11  3  2  0  0  0  0
 13  7  2  0  0  0  0
 13 12  1  0  0  0  0
 14  3  1  0  0  0  0
 14  2  2  0  0  0  0
 15  2  1  0  0  0  0
 15  8  1  0  0  0  0
 16 19  1  0  0  0  0
 16 17  2  0  0  0  0
 19 18  1  1  0  0  0
 20 19  1  0  0  0  0
 21 22  1  0  0  0  0
 22 23  1  0  0  0  0
 25 24  1  0  0  0  0
 26 29  1  0  0  0  0
 26 27  1  6  0  0  0
 28 25  1  6  0  0  0
 28 26  1  0  0  0  0
 28 29  1  0  0  0  0
 30 25  1  0  0  0  0
 31 30  1  0  0  0  0
 31 32  1  0  0  0  0
M  END
>  <MODEL>
4

>  <REMARK>
 VINA RESULT:      -6.4      1.581      2.020
  Name = 
  9 active torsions:
  status: ('A' for Active; 'I' for Inactive)
    1  A    between atoms: C_2  and  C_24
    2  A    between atoms: C_4  and  C_13
    3  A    between atoms: S_6  and  C_7
    4  A    between atoms: C_7  and  N_32
    5  A    between atoms: C_10  and  P_17
    6  A    between atoms: C_13  and  C_15
    7  A    between atoms: C_16  and  C_27
    8  A    between atoms: C_22  and  N_32
    9  A    between atoms: C_27  and  N_32
                            x       y       z     vdW  Elec       q    Type
                         _______ _______ _______ _____ _____    ______ ____

>  <TORSDO>
F 9

$$$$
=
 OpenBabel11052421363D

 32 35  0  0  1  0  0  0  0  0999 V2000
  183.9160  178.4430  142.8770 C   0  0  0  0  0  0  0  0  0  0  0  0
  188.5630  176.8060  143.8610 C   0  0  0  0  0  0  0  0  0  0  0  0
  186.4530  177.9650  143.9710 C   0  0  0  0  0  0  0  0  0  0  0  0
  186.9010  176.4260  142.1840 N   0  0  0  0  0  0  0  0  0  0  0  0
  184.7870  177.5400  142.2540 C   0  0  0  0  0  3  0  0  0  0  0  0
  188.1400  176.1670  142.6890 C   0  0  0  0  0  0  0  0  0  0  0  0
  189.0730  175.2620  141.9890 C   0  0  0  0  0  0  0  0  0  0  0  0
  190.6170  175.4280  143.9370 C   0  0  2  0  0  3  0  0  0  0  0  0
  184.3230  179.1050  144.0480 C   0  0  0  0  0  3  0  0  0  0  0  0
  186.0530  177.2970  142.7940 C   0  0  0  0  0  0  0  0  0  0  0  0
  185.5880  178.8670  144.5930 C   0  0  0  0  0  3  0  0  0  0  0  0
  191.1580  174.0690  141.8690 N   0  0  0  0  0  1  0  0  0  0  0  0
  190.2680  174.9650  142.5370 C   0  0  0  0  0  0  0  0  0  0  0  0
  187.7190  177.7140  144.5000 C   0  0  0  0  0  3  0  0  0  0  0  0
  189.8360  176.5480  144.3680 O   0  0  0  0  0  0  0  0  0  0  0  0
  182.1390  177.9720  141.2460 C   0  0  0  0  0  3  0  0  0  0  0  0
  182.5930  178.6720  142.2820 C   0  0  0  0  0  3  0  0  0  0  0  0
  180.3190  180.0820  140.9950 C   0  0  0  0  0  1  0  0  0  0  0  0
  180.4750  178.2850  140.5290 P   0  0  2  0  0  0  0  0  0  0  0  0
  179.5620  177.6640  141.8680 O   0  0  0  0  0  1  0  0  0  0  0  0
  188.6810  174.6870  140.6590 C   0  0  0  0  0  2  0  0  0  0  0  0
  188.1500  173.2700  140.8140 C   0  0  0  0  0  2  0  0  0  0  0  0
  188.1500  172.6180  139.5800 O   0  0  0  0  0  1  0  0  0  0  0  0
  192.0960  175.7680  144.0550 C   0  0  0  0  0  2  0  0  0  0  0  0
  192.6340  175.2270  145.3000 N   0  0  0  0  0  0  0  0  0  0  0  0
  194.2110  176.5970  146.6250 C   0  0  1  0  0  3  0  0  0  0  0  0
  193.0170  176.8550  147.2790 F   0  0  0  0  0  0  0  0  0  0  0  0
  194.0260  175.6540  145.4370 C   0  0  2  0  0  3  0  0  0  0  0  0
  194.1390  177.1530  145.2190 C   0  0  0  0  0  2  0  0  0  0  0  0
  192.5640  173.7610  145.2640 C   0  0  0  0  0  2  0  0  0  0  0  0
  193.8680  172.9920  144.2310 S   0  0  0  0  0  0  0  0  0  0  0  0
  192.8720  171.4990  143.9690 C   0  0  0  0  0  1  0  0  0  0  0  0
  1  9  1  0  0  0  0
  2 15  1  0  0  0  0
  2 14  1  0  0  0  0
  3 14  2  0  0  0  0
  3 11  1  0  0  0  0
  4  6  1  0  0  0  0
  4 10  2  0  0  0  0
  5 10  1  0  0  0  0
  5  1  2  0  0  0  0
  6  2  2  0  0  0  0
  7 13  2  0  0  0  0
  7  6  1  0  0  0  0
  8 24  1  6  0  0  0
  8 15  1  0  0  0  0
  9 11  2  0  0  0  0
 10  3  1  0  0  0  0
 12 13  1  0  0  0  0
 13  8  1  0  0  0  0
 16 17  2  0  0  0  0
 17  1  1  0  0  0  0
 19 18  1  1  0  0  0
 19 16  1  0  0  0  0
 19 20  1  0  0  0  0
 21 22  1  0  0  0  0
 21  7  1  0  0  0  0
 23 22  1  0  0  0  0
 24 25  1  0  0  0  0
 26 27  1  1  0  0  0
 28 25  1  1  0  0  0
 28 26  1  0  0  0  0
 29 28  1  0  0  0  0
 29 26  1  0  0  0  0
 30 25  1  0  0  0  0
 31 30  1  0  0  0  0
 32 31  1  0  0  0  0
M  END
>  <MODEL>
5

>  <REMARK>
 VINA RESULT:      -6.2      2.482      4.219
  Name = 
  9 active torsions:
  status: ('A' for Active; 'I' for Inactive)
    1  A    between atoms: C_2  and  C_24
    2  A    between atoms: C_4  and  C_13
    3  A    between atoms: S_6  and  C_7
    4  A    between atoms: C_7  and  N_32
    5  A    between atoms: C_10  and  P_17
    6  A    between atoms: C_13  and  C_15
    7  A    between atoms: C_16  and  C_27
    8  A    between atoms: C_22  and  N_32
    9  A    between atoms: C_27  and  N_32
                            x       y       z     vdW  Elec       q    Type
                         _______ _______ _______ _____ _____    ______ ____

>  <TORSDO>
F 9

$$$$
=
 OpenBabel11052421363D

 32 35  0  0  1  0  0  0  0  0999 V2000
  188.2330  177.1640  145.8500 C   0  0  0  0  0  0  0  0  0  0  0  0
  192.1250  174.0530  145.2030 C   0  0  0  0  0  0  0  0  0  0  0  0
  190.6650  175.7800  146.0350 C   0  0  0  0  0  0  0  0  0  0  0  0
  190.0100  174.4390  144.1560 N   0  0  0  0  0  0  0  0  0  0  0  0
  188.5190  176.1310  144.9490 C   0  0  0  0  0  3  0  0  0  0  0  0
  191.1800  173.7430  144.2180 C   0  0  0  0  0  0  0  0  0  0  0  0
  191.4980  172.6980  143.2240 C   0  0  0  0  0  0  0  0  0  0  0  0
  193.5170  172.1110  144.5600 C   0  0  2  0  0  3  0  0  0  0  0  0
  189.1710  177.5020  146.8410 C   0  0  0  0  0  3  0  0  0  0  0  0
  189.7290  175.4370  145.0360 C   0  0  0  0  0  0  0  0  0  0  0  0
  190.3830  176.8120  146.9330 C   0  0  0  0  0  3  0  0  0  0  0  0
  192.9210  170.9480  142.3900 N   0  0  0  0  0  1  0  0  0  0  0  0
  192.6290  171.9740  143.3400 C   0  0  0  0  0  0  0  0  0  0  0  0
  191.8690  175.0810  146.1110 C   0  0  0  0  0  3  0  0  0  0  0  0
  193.3260  173.3470  145.2560 O   0  0  0  0  0  0  0  0  0  0  0  0
  186.5550  178.4580  144.6050 C   0  0  0  0  0  3  0  0  0  0  0  0
  186.9500  177.8700  145.7300 C   0  0  0  0  0  3  0  0  0  0  0  0
  184.1480  178.6220  146.0220 C   0  0  0  0  0  1  0  0  0  0  0  0
  184.9410  179.3310  144.4920 P   0  0  2  0  0  0  0  0  0  0  0  0
  184.1990  178.2320  143.3710 O   0  0  0  0  0  1  0  0  0  0  0  0
  190.5550  172.4610  142.0800 C   0  0  0  0  0  2  0  0  0  0  0  0
  190.8410  173.4190  140.9330 C   0  0  0  0  0  2  0  0  0  0  0  0
  189.6710  174.0770  140.5530 O   0  0  0  0  0  1  0  0  0  0  0  0
  194.9860  171.9580  144.1950 C   0  0  0  0  0  2  0  0  0  0  0  0
  195.7900  172.9080  144.9580 N   0  0  0  0  0  0  0  0  0  0  0  0
  196.5240  175.1540  144.2240 C   0  0  1  0  0  3  0  0  0  0  0  0
  195.5970  175.4800  145.2000 F   0  0  0  0  0  0  0  0  0  0  0  0
  196.6550  173.6420  144.0360 C   0  0  2  0  0  3  0  0  0  0  0  0
  195.8170  174.4670  143.0750 C   0  0  0  0  0  2  0  0  0  0  0  0
  196.6100  172.1780  145.9350 C   0  0  0  0  0  2  0  0  0  0  0  0
  197.2820  170.6000  145.2900 S   0  0  0  0  0  0  0  0  0  0  0  0
  196.5040  169.6480  146.6240 C   0  0  0  0  0  1  0  0  0  0  0  0
  1  9  1  0  0  0  0
  2 15  1  0  0  0  0
  2 14  1  0  0  0  0
  3 14  2  0  0  0  0
  3 11  1  0  0  0  0
  4  6  1  0  0  0  0
  4 10  2  0  0  0  0
  5 10  1  0  0  0  0
  5  1  2  0  0  0  0
  6  2  2  0  0  0  0
  7 13  2  0  0  0  0
  7  6  1  0  0  0  0
  8 24  1  6  0  0  0
  8 15  1  0  0  0  0
  9 11  2  0  0  0  0
 10  3  1  0  0  0  0
 12 13  1  0  0  0  0
 13  8  1  0  0  0  0
 16 17  2  0  0  0  0
 17  1  1  0  0  0  0
 19 16  1  0  0  0  0
 19 18  1  1  0  0  0
 20 19  1  0  0  0  0
 21  7  1  0  0  0  0
 22 21  1  0  0  0  0
 23 22  1  0  0  0  0
 24 25  1  0  0  0  0
 25 30  1  0  0  0  0
 26 27  1  1  0  0  0
 28 26  1  0  0  0  0
 28 25  1  1  0  0  0
 29 28  1  0  0  0  0
 29 26  1  0  0  0  0
 31 30  1  0  0  0  0
 31 32  1  0  0  0  0
M  END
>  <MODEL>
6

>  <REMARK>
 VINA RESULT:      -5.9      3.877      6.874
  Name = 
  9 active torsions:
  status: ('A' for Active; 'I' for Inactive)
    1  A    between atoms: C_2  and  C_24
    2  A    between atoms: C_4  and  C_13
    3  A    between atoms: S_6  and  C_7
    4  A    between atoms: C_7  and  N_32
    5  A    between atoms: C_10  and  P_17
    6  A    between atoms: C_13  and  C_15
    7  A    between atoms: C_16  and  C_27
    8  A    between atoms: C_22  and  N_32
    9  A    between atoms: C_27  and  N_32
                            x       y       z     vdW  Elec       q    Type
                         _______ _______ _______ _____ _____    ______ ____

>  <TORSDO>
F 9

$$$$
=
 OpenBabel11052421363D

 32 35  0  0  1  0  0  0  0  0999 V2000
  188.7660  177.0940  146.3170 C   0  0  0  0  0  0  0  0  0  0  0  0
  192.8430  174.8070  144.4760 C   0  0  0  0  0  0  0  0  0  0  0  0
  191.3340  176.0580  145.8790 C   0  0  0  0  0  0  0  0  0  0  0  0
  190.5750  175.1420  143.7940 N   0  0  0  0  0  0  0  0  0  0  0  0
  189.0350  176.3640  145.1530 C   0  0  0  0  0  3  0  0  0  0  0  0
  191.8110  174.6210  143.5490 C   0  0  0  0  0  0  0  0  0  0  0  0
  192.1000  173.9070  142.2890 C   0  0  0  0  0  0  0  0  0  0  0  0
  194.3330  173.2950  143.2060 C   0  0  2  0  0  3  0  0  0  0  0  0
  189.7890  177.3040  147.2580 C   0  0  0  0  0  3  0  0  0  0  0  0
  190.3120  175.8440  144.9290 C   0  0  0  0  0  0  0  0  0  0  0  0
  191.0690  176.7880  147.0390 C   0  0  0  0  0  3  0  0  0  0  0  0
  193.5740  172.6290  140.8830 N   0  0  0  0  0  1  0  0  0  0  0  0
  193.3070  173.3410  142.0930 C   0  0  0  0  0  0  0  0  0  0  0  0
  192.6050  175.5350  145.6420 C   0  0  0  0  0  3  0  0  0  0  0  0
  194.1090  174.2830  144.2170 O   0  0  0  0  0  0  0  0  0  0  0  0
  186.3590  177.1930  145.8300 C   0  0  0  0  0  3  0  0  0  0  0  0
  187.4100  177.6230  146.5210 C   0  0  0  0  0  3  0  0  0  0  0  0
  184.6320  179.0730  144.6870 C   0  0  0  0  0  1  0  0  0  0  0  0
  184.6760  177.8770  146.1140 P   0  0  2  0  0  0  0  0  0  0  0  0
  185.1360  179.0390  147.3180 O   0  0  0  0  0  1  0  0  0  0  0  0
  191.0400  173.8300  141.2280 C   0  0  0  0  0  2  0  0  0  0  0  0
  190.1480  172.6150  141.4390 C   0  0  0  0  0  2  0  0  0  0  0  0
  188.8290  173.0170  141.6500 O   0  0  0  0  0  1  0  0  0  0  0  0
  195.7470  173.4410  142.6620 C   0  0  0  0  0  2  0  0  0  0  0  0
  196.5080  174.3670  143.4950 N   0  0  0  0  0  0  0  0  0  0  0  0
  196.8210  176.7940  143.1290 C   0  0  1  0  0  3  0  0  0  0  0  0
  196.0120  176.7940  144.2540 F   0  0  0  0  0  0  0  0  0  0  0  0
  197.1230  175.3790  142.6370 C   0  0  2  0  0  3  0  0  0  0  0  0
  196.0510  176.2160  141.9620 C   0  0  0  0  0  2  0  0  0  0  0  0
  197.5510  173.6270  144.2180 C   0  0  0  0  0  2  0  0  0  0  0  0
  197.1900  173.4070  146.0010 S   0  0  0  0  0  0  0  0  0  0  0  0
  196.8170  171.6470  145.7750 C   0  0  0  0  0  1  0  0  0  0  0  0
  1 17  1  0  0  0  0
  1  9  1  0  0  0  0
  2 14  1  0  0  0  0
  3 11  1  0  0  0  0
  4 10  2  0  0  0  0
  5  1  2  0  0  0  0
  6  4  1  0  0  0  0
  6  2  2  0  0  0  0
  7  6  1  0  0  0  0
  8 24  1  6  0  0  0
  8 15  1  0  0  0  0
 10  5  1  0  0  0  0
 10  3  1  0  0  0  0
 11  9  2  0  0  0  0
 12 13  1  0  0  0  0
 13  7  2  0  0  0  0
 13  8  1  0  0  0  0
 14  3  2  0  0  0  0
 15  2  1  0  0  0  0
 16 19  1  0  0  0  0
 16 17  2  0  0  0  0
 19 18  1  6  0  0  0
 19 20  1  0  0  0  0
 21 22  1  0  0  0  0
 21  7  1  0  0  0  0
 22 23  1  0  0  0  0
 24 25  1  0  0  0  0
 25 30  1  0  0  0  0
 26 27  1  1  0  0  0
 28 26  1  0  0  0  0
 28 25  1  1  0  0  0
 29 28  1  0  0  0  0
 29 26  1  0  0  0  0
 30 31  1  0  0  0  0
 32 31  1  0  0  0  0
M  END
>  <MODEL>
7

>  <REMARK>
 VINA RESULT:      -5.8      3.939      7.111
  Name = 
  9 active torsions:
  status: ('A' for Active; 'I' for Inactive)
    1  A    between atoms: C_2  and  C_24
    2  A    between atoms: C_4  and  C_13
    3  A    between atoms: S_6  and  C_7
    4  A    between atoms: C_7  and  N_32
    5  A    between atoms: C_10  and  P_17
    6  A    between atoms: C_13  and  C_15
    7  A    between atoms: C_16  and  C_27
    8  A    between atoms: C_22  and  N_32
    9  A    between atoms: C_27  and  N_32
                            x       y       z     vdW  Elec       q    Type
                         _______ _______ _______ _____ _____    ______ ____

>  <TORSDO>
F 9

$$$$
=
 OpenBabel11052421363D

 32 35  0  0  1  0  0  0  0  0999 V2000
  184.7320  178.3690  143.0850 C   0  0  0  0  0  0  0  0  0  0  0  0
  188.7690  175.5600  144.1130 C   0  0  0  0  0  0  0  0  0  0  0  0
  187.0610  177.2590  144.1830 C   0  0  0  0  0  0  0  0  0  0  0  0
  187.0330  175.5800  142.4680 N   0  0  0  0  0  0  0  0  0  0  0  0
  185.3080  177.2350  142.4990 C   0  0  0  0  0  3  0  0  0  0  0  0
  188.1630  175.0120  142.9770 C   0  0  0  0  0  0  0  0  0  0  0  0
  188.7970  173.8550  142.3140 C   0  0  0  0  0  0  0  0  0  0  0  0
  190.3660  173.6740  144.2410 C   0  0  2  0  0  3  0  0  0  0  0  0
  185.3280  178.9440  144.2200 C   0  0  0  0  0  3  0  0  0  0  0  0
  186.4690  176.6770  143.0420 C   0  0  0  0  0  0  0  0  0  0  0  0
  186.4890  178.3910  144.7680 C   0  0  0  0  0  3  0  0  0  0  0  0
  190.4710  172.1300  142.2360 N   0  0  0  0  0  1  0  0  0  0  0  0
  189.8750  173.2650  142.8670 C   0  0  0  0  0  0  0  0  0  0  0  0
  188.2190  176.6930  144.7140 C   0  0  0  0  0  3  0  0  0  0  0  0
  189.9310  174.9840  144.6230 O   0  0  0  0  0  0  0  0  0  0  0  0
  182.5830  178.1710  141.9070 C   0  0  0  0  0  3  0  0  0  0  0  0
  183.5100  178.9270  142.4890 C   0  0  0  0  0  3  0  0  0  0  0  0
  179.8060  177.9420  142.1510 C   0  0  0  0  0  1  0  0  0  0  0  0
  181.0660  178.9050  141.1730 P   0  0  2  0  0  0  0  0  0  0  0  0
  181.0190  177.8950  139.7630 O   0  0  0  0  0  1  0  0  0  0  0  0
  188.2360  173.3530  141.0150 C   0  0  0  0  0  2  0  0  0  0  0  0
  188.8940  174.0510  139.8330 C   0  0  0  0  0  2  0  0  0  0  0  0
  187.9230  174.6160  139.0070 O   0  0  0  0  0  1  0  0  0  0  0  0
  191.8830  173.5990  144.3320 C   0  0  0  0  0  2  0  0  0  0  0  0
  192.4300  174.9190  144.6340 N   0  0  0  0  0  0  0  0  0  0  0  0
  193.0300  176.4160  142.7580 C   0  0  1  0  0  3  0  0  0  0  0  0
  191.7650  176.8810  143.0780 F   0  0  0  0  0  0  0  0  0  0  0  0
  193.4540  175.2430  143.6410 C   0  0  2  0  0  3  0  0  0  0  0  0
  192.9230  174.9980  142.2400 C   0  0  0  0  0  2  0  0  0  0  0  0
  193.0250  174.9040  145.9760 C   0  0  0  0  0  2  0  0  0  0  0  0
  194.7420  175.5440  146.0220 S   0  0  0  0  0  0  0  0  0  0  0  0
  194.1910  177.1640  146.6230 C   0  0  0  0  0  1  0  0  0  0  0  0
  1  9  1  0  0  0  0
  2 15  1  0  0  0  0
  2 14  1  0  0  0  0
  3 14  2  0  0  0  0
  3 11  1  0  0  0  0
  4  6  1  0  0  0  0
  4 10  2  0  0  0  0
  5 10  1  0  0  0  0
  5  1  2  0  0  0  0
  6  2  2  0  0  0  0
  7 13  2  0  0  0  0
  7  6  1  0  0  0  0
  8 24  1  6  0  0  0
  8 15  1  0  0  0  0
  9 11  2  0  0  0  0
 10  3  1  0  0  0  0
 12 13  1  0  0  0  0
 13  8  1  0  0  0  0
 16 17  2  0  0  0  0
 17  1  1  0  0  0  0
 19 16  1  0  0  0  0
 19 18  1  1  0  0  0
 20 19  1  0  0  0  0
 21  7  1  0  0  0  0
 22 21  1  0  0  0  0
 23 22  1  0  0  0  0
 24 25  1  0  0  0  0
 25 30  1  0  0  0  0
 26 27  1  1  0  0  0
 26 28  1  0  0  0  0
 28 25  1  1  0  0  0
 29 26  1  0  0  0  0
 29 28  1  0  0  0  0
 30 31  1  0  0  0  0
 31 32  1  0  0  0  0
M  END
>  <MODEL>
8

>  <REMARK>
 VINA RESULT:      -5.7      2.425      4.266
  Name = 
  9 active torsions:
  status: ('A' for Active; 'I' for Inactive)
    1  A    between atoms: C_2  and  C_24
    2  A    between atoms: C_4  and  C_13
    3  A    between atoms: S_6  and  C_7
    4  A    between atoms: C_7  and  N_32
    5  A    between atoms: C_10  and  P_17
    6  A    between atoms: C_13  and  C_15
    7  A    between atoms: C_16  and  C_27
    8  A    between atoms: C_22  and  N_32
    9  A    between atoms: C_27  and  N_32
                            x       y       z     vdW  Elec       q    Type
                         _______ _______ _______ _____ _____    ______ ____

>  <TORSDO>
F 9

$$$$
=
 OpenBabel11052421363D

 32 35  0  0  1  0  0  0  0  0999 V2000
  192.3190  170.8550  143.1050 C   0  0  0  0  0  0  0  0  0  0  0  0
  189.2200  174.7900  143.4960 C   0  0  0  0  0  0  0  0  0  0  0  0
  190.5910  173.0110  142.6240 C   0  0  0  0  0  0  0  0  0  0  0  0
  190.4310  173.3710  144.9920 N   0  0  0  0  0  0  0  0  0  0  0  0
  191.7950  171.5830  144.1800 C   0  0  0  0  0  3  0  0  0  0  0  0
  189.5860  174.4220  144.7960 C   0  0  0  0  0  0  0  0  0  0  0  0
  189.0900  175.2220  145.9340 C   0  0  0  0  0  0  0  0  0  0  0  0
  187.5880  176.4370  144.3610 C   0  0  2  0  0  3  0  0  0  0  0  0
  191.9750  171.2130  141.7900 C   0  0  0  0  0  3  0  0  0  0  0  0
  190.9330  172.6590  143.9480 C   0  0  0  0  0  0  0  0  0  0  0  0
  191.1140  172.2870  141.5500 C   0  0  0  0  0  3  0  0  0  0  0  0
  187.7070  176.9710  146.8340 N   0  0  0  0  0  1  0  0  0  0  0  0
  188.2030  176.2160  145.7280 C   0  0  0  0  0  0  0  0  0  0  0  0
  189.7310  174.0860  142.4050 C   0  0  0  0  0  3  0  0  0  0  0  0
  188.3660  175.8740  143.2990 O   0  0  0  0  0  0  0  0  0  0  0  0
  193.9840  169.6750  144.4750 C   0  0  0  0  0  3  0  0  0  0  0  0
  193.2200  169.7290  143.3880 C   0  0  0  0  0  3  0  0  0  0  0  0
  195.0080  168.2540  146.6560 C   0  0  0  0  0  1  0  0  0  0  0  0
  195.0980  168.2480  144.7950 P   0  0  2  0  0  0  0  0  0  0  0  0
  196.5880  169.1300  144.6780 O   0  0  0  0  0  1  0  0  0  0  0  0
  189.5930  174.9240  147.3170 C   0  0  0  0  0  2  0  0  0  0  0  0
  190.8440  175.7330  147.6270 C   0  0  0  0  0  2  0  0  0  0  0  0
  191.6310  175.0620  148.5630 O   0  0  0  0  0  1  0  0  0  0  0  0
  187.3580  177.9160  144.0900 C   0  0  0  0  0  2  0  0  0  0  0  0
  185.9840  178.1340  143.6480 N   0  0  0  0  0  0  0  0  0  0  0  0
  184.0510  179.0290  144.9090 C   0  0  1  0  0  3  0  0  0  0  0  0
  184.2240  180.0120  143.9490 F   0  0  0  0  0  0  0  0  0  0  0  0
  185.0830  177.9090  144.7790 C   0  0  2  0  0  3  0  0  0  0  0  0
  185.2610  179.0020  145.8180 C   0  0  0  0  0  2  0  0  0  0  0  0
  185.6660  177.1960  142.5640 C   0  0  0  0  0  2  0  0  0  0  0  0
  185.9370  177.8940  140.8910 S   0  0  0  0  0  0  0  0  0  0  0  0
  184.1910  178.3580  140.7300 C   0  0  0  0  0  1  0  0  0  0  0  0
  1 17  1  0  0  0  0
  1  5  1  0  0  0  0
  2  6  1  0  0  0  0
  3 10  1  0  0  0  0
  6  4  2  0  0  0  0
  6  7  1  0  0  0  0
  7 21  1  0  0  0  0
  8 24  1  6  0  0  0
  8 13  1  0  0  0  0
  9  1  2  0  0  0  0
 10  5  2  0  0  0  0
 10  4  1  0  0  0  0
 11  9  1  0  0  0  0
 11  3  2  0  0  0  0
 13  7  2  0  0  0  0
 13 12  1  0  0  0  0
 14  3  1  0  0  0  0
 14  2  2  0  0  0  0
 15  2  1  0  0  0  0
 15  8  1  0  0  0  0
 16 19  1  0  0  0  0
 17 16  2  0  0  0  0
 19 18  1  1  0  0  0
 20 19  1  0  0  0  0
 21 22  1  0  0  0  0
 22 23  1  0  0  0  0
 25 24  1  0  0  0  0
 26 27  1  6  0  0  0
 26 29  1  0  0  0  0
 28 25  1  6  0  0  0
 28 26  1  0  0  0  0
 28 29  1  0  0  0  0
 30 25  1  0  0  0  0
 31 30  1  0  0  0  0
 32 31  1  0  0  0  0
M  END
>  <MODEL>
9

>  <REMARK>
 VINA RESULT:      -5.7      5.274      9.529
  Name = 
  9 active torsions:
  status: ('A' for Active; 'I' for Inactive)
    1  A    between atoms: C_2  and  C_24
    2  A    between atoms: C_4  and  C_13
    3  A    between atoms: S_6  and  C_7
    4  A    between atoms: C_7  and  N_32
    5  A    between atoms: C_10  and  P_17
    6  A    between atoms: C_13  and  C_15
    7  A    between atoms: C_16  and  C_27
    8  A    between atoms: C_22  and  N_32
    9  A    between atoms: C_27  and  N_32
                            x       y       z     vdW  Elec       q    Type
                         _______ _______ _______ _____ _____    ______ ____

>  <TORSDO>
F 9

$$$$
