=
 OpenBabel11052417383D

 25 25  0  0  1  0  0  0  0  0999 V2000
  190.0990  175.5040  143.1800 C   0  0  1  0  0  3  0  0  0  0  0  0
  191.6720  175.7360  144.9900 O   0  0  0  0  0  0  0  0  0  0  0  0
  189.6150  177.1160  145.0760 C   0  0  0  0  0  2  0  0  0  0  0  0
  191.0480  175.4960  148.0440 O   0  0  0  0  0  1  0  0  0  0  0  0
  190.9280  176.5550  147.1430 C   0  0  2  0  0  3  0  0  0  0  0  0
  189.5590  176.4890  146.4670 C   0  0  0  0  0  2  0  0  0  0  0  0
  190.7290  176.4700  144.2110 C   0  0  2  0  0  0  0  0  0  0  0  0
  192.0620  176.4920  146.1180 C   0  0  0  0  0  2  0  0  0  0  0  0
  191.4520  177.5900  143.4550 C   0  0  0  0  0  2  0  0  0  0  0  0
  191.0290  178.8320  143.8960 F   0  0  0  0  0  0  0  0  0  0  0  0
  191.1740  173.3950  142.8630 O   0  0  0  0  0  0  0  0  0  0  0  0
  189.5910  173.4340  144.5730 N   0  0  0  0  0  2  0  0  0  0  0  0
  189.8020  172.1350  144.8910 O   0  0  0  0  0  1  0  0  0  0  0  0
  190.3210  174.0550  143.5140 C   0  0  0  0  0  0  0  0  0  0  0  0
  188.6240  175.7950  142.8970 C   0  0  0  0  0  2  0  0  0  0  0  0
  188.4600  176.1960  141.5700 O   0  0  0  0  0  0  0  0  0  0  0  0
  188.0370  177.5210  141.6560 C   0  0  0  0  0  2  0  0  0  0  0  0
  185.6460  177.7600  141.1810 N   0  0  0  0  0  0  0  0  0  0  0  0
  186.8620  177.7320  140.7520 C   0  0  0  0  0  3  0  0  0  0  0  0
  185.2890  177.5890  142.5710 C   0  0  0  0  0  2  0  0  0  0  0  0
  185.2210  178.9360  143.2660 C   0  0  0  0  0  2  0  0  0  0  0  0
  185.7470  178.7990  144.6800 C   0  0  0  0  0  2  0  0  0  0  0  0
  185.9070  177.3310  145.0190 C   0  0  0  0  0  2  0  0  0  0  0  0
  185.2940  177.0570  146.3760 C   0  0  0  0  0  2  0  0  0  0  0  0
  184.4720  178.2530  146.8110 C   0  0  0  0  0  1  0  0  0  0  0  0
  1 15  1  1  0  0  0
  1 14  1  0  0  0  0
  1  7  1  0  0  0  0
  2  8  1  0  0  0  0
  3  6  1  0  0  0  0
  5  4  1  1  0  0  0
  6  5  1  0  0  0  0
  7  9  1  6  0  0  0
  7  2  1  0  0  0  0
  7  3  1  0  0  0  0
  8  5  1  0  0  0  0
  9 10  1  0  0  0  0
 11 14  2  0  0  0  0
 12 13  1  0  0  0  0
 14 12  1  0  0  0  0
 16 17  1  0  0  0  0
 16 15  1  0  0  0  0
 18 20  1  0  0  0  0
 19 18  2  0  0  0  0
 19 17  1  0  0  0  0
 20 21  1  0  0  0  0
 21 22  1  0  0  0  0
 22 23  1  0  0  0  0
 23 24  1  0  0  0  0
 24 25  1  0  0  0  0
M  END
>  <MODEL>
1

>  <REMARK>
 VINA RESULT:      -5.4      0.000      0.000
  Name = 
  12 active torsions:
  status: ('A' for Active; 'I' for Inactive)
    1  A    between atoms: C_1  and  C_3
    2  A    between atoms: C_1  and  C_18
    3  A    between atoms: C_1  and  C_24
    4  A    between atoms: C_2  and  C_7
    5  A    between atoms: C_2  and  C_25
    6  A    between atoms: C_3  and  O_16
    7  A    between atoms: C_6  and  N_15
    8  A    between atoms: C_6  and  C_21
    9  A    between atoms: O_16  and  C_23
   10  A    between atoms: C_17  and  C_18
   11  A    between atoms: C_20  and  C_23
   12  A    between atoms: C_21  and  C_25
                            x       y       z     vdW  Elec       q    Type
                         _______ _______ _______ _____ _____    ______ ____

>  <TORSDO>
F 12

$$$$
=
 OpenBabel11052417383D

 25 25  0  0  1  0  0  0  0  0999 V2000
  189.3780  176.8640  145.3900 C   0  0  1  0  0  3  0  0  0  0  0  0
  191.1190  176.1630  146.9010 O   0  0  0  0  0  0  0  0  0  0  0  0
  191.5270  175.8790  144.4730 C   0  0  0  0  0  2  0  0  0  0  0  0
  194.1250  177.0170  146.8050 O   0  0  0  0  0  1  0  0  0  0  0  0
  193.4100  176.0280  146.1290 C   0  0  2  0  0  3  0  0  0  0  0  0
  192.8020  176.6230  144.8600 C   0  0  0  0  0  2  0  0  0  0  0  0
  190.5150  175.8470  145.6470 C   0  0  2  0  0  0  0  0  0  0  0  0
  192.3300  175.4520  147.0480 C   0  0  0  0  0  2  0  0  0  0  0  0
  189.9090  174.4410  145.7130 C   0  0  0  0  0  2  0  0  0  0  0  0
  190.4420  173.6300  144.7260 F   0  0  0  0  0  0  0  0  0  0  0  0
  188.2070  176.1080  143.4510 O   0  0  0  0  0  0  0  0  0  0  0  0
  189.4840  178.0300  143.1300 N   0  0  0  0  0  2  0  0  0  0  0  0
  189.1220  178.1360  141.8290 O   0  0  0  0  0  1  0  0  0  0  0  0
  188.9910  176.9640  143.9410 C   0  0  0  0  0  0  0  0  0  0  0  0
  188.1550  176.6460  146.2840 C   0  0  0  0  0  2  0  0  0  0  0  0
  188.0980  177.6350  147.2670 O   0  0  0  0  0  0  0  0  0  0  0  0
  186.7940  178.1220  147.1960 C   0  0  0  0  0  2  0  0  0  0  0  0
  184.6940  177.2480  146.2870 N   0  0  0  0  0  0  0  0  0  0  0  0
  185.8710  177.0240  146.7630 C   0  0  0  0  0  3  0  0  0  0  0  0
  184.1400  178.5730  146.1250 C   0  0  0  0  0  2  0  0  0  0  0  0
  184.0590  178.9330  144.6530 C   0  0  0  0  0  2  0  0  0  0  0  0
  185.2620  179.7730  144.2750 C   0  0  0  0  0  2  0  0  0  0  0  0
  186.0160  179.0970  143.1480 C   0  0  0  0  0  2  0  0  0  0  0  0
  185.1590  177.9960  142.5580 C   0  0  0  0  0  2  0  0  0  0  0  0
  185.1670  178.1030  141.0460 C   0  0  0  0  0  1  0  0  0  0  0  0
  1  7  1  0  0  0  0
  1 15  1  1  0  0  0
  2  8  1  0  0  0  0
  3  6  1  0  0  0  0
  3  7  1  0  0  0  0
  5  4  1  1  0  0  0
  5  8  1  0  0  0  0
  6  5  1  0  0  0  0
  7  9  1  1  0  0  0
  7  2  1  0  0  0  0
 10  9  1  0  0  0  0
 11 14  2  0  0  0  0
 12 14  1  0  0  0  0
 13 12  1  0  0  0  0
 14  1  1  0  0  0  0
 15 16  1  0  0  0  0
 17 16  1  0  0  0  0
 18 19  2  0  0  0  0
 19 17  1  0  0  0  0
 20 18  1  0  0  0  0
 21 20  1  0  0  0  0
 22 21  1  0  0  0  0
 23 22  1  0  0  0  0
 24 23  1  0  0  0  0
 25 24  1  0  0  0  0
M  END
>  <MODEL>
2

>  <REMARK>
 VINA RESULT:      -5.3      2.494      4.083
  Name = 
  12 active torsions:
  status: ('A' for Active; 'I' for Inactive)
    1  A    between atoms: C_1  and  C_3
    2  A    between atoms: C_1  and  C_18
    3  A    between atoms: C_1  and  C_24
    4  A    between atoms: C_2  and  C_7
    5  A    between atoms: C_2  and  C_25
    6  A    between atoms: C_3  and  O_16
    7  A    between atoms: C_6  and  N_15
    8  A    between atoms: C_6  and  C_21
    9  A    between atoms: O_16  and  C_23
   10  A    between atoms: C_17  and  C_18
   11  A    between atoms: C_20  and  C_23
   12  A    between atoms: C_21  and  C_25
                            x       y       z     vdW  Elec       q    Type
                         _______ _______ _______ _____ _____    ______ ____

>  <TORSDO>
F 12

$$$$
=
 OpenBabel11052417383D

 25 25  0  0  1  0  0  0  0  0999 V2000
  189.4920  177.0980  145.8730 C   0  0  1  0  0  3  0  0  0  0  0  0
  191.4430  175.8740  145.1670 O   0  0  0  0  0  0  0  0  0  0  0  0
  189.6720  174.6170  146.3620 C   0  0  0  0  0  2  0  0  0  0  0  0
  191.4820  173.2440  143.4780 O   0  0  0  0  0  1  0  0  0  0  0  0
  191.3170  173.4780  144.8430 C   0  0  2  0  0  3  0  0  0  0  0  0
  189.8370  173.7220  145.1370 C   0  0  0  0  0  2  0  0  0  0  0  0
  190.4640  175.9410  146.2030 C   0  0  2  0  0  0  0  0  0  0  0  0
  192.1750  174.6710  145.2700 C   0  0  0  0  0  2  0  0  0  0  0  0
  191.1530  176.2450  147.5380 C   0  0  0  0  0  2  0  0  0  0  0  0
  191.1220  175.1390  148.3700 F   0  0  0  0  0  0  0  0  0  0  0  0
  190.5610  178.5310  144.2900 O   0  0  0  0  0  0  0  0  0  0  0  0
  188.8860  177.1760  143.4020 N   0  0  0  0  0  2  0  0  0  0  0  0
  189.0660  177.6580  142.1490 O   0  0  0  0  0  1  0  0  0  0  0  0
  189.6790  177.6530  144.4890 C   0  0  0  0  0  0  0  0  0  0  0  0
  188.0260  176.7560  146.1460 C   0  0  0  0  0  2  0  0  0  0  0  0
  187.5130  177.5980  147.1350 O   0  0  0  0  0  0  0  0  0  0  0  0
  186.2020  177.1600  147.3200 C   0  0  0  0  0  2  0  0  0  0  0  0
  184.6800  178.8920  146.4930 N   0  0  0  0  0  0  0  0  0  0  0  0
  185.2970  178.3420  147.4830 C   0  0  0  0  0  3  0  0  0  0  0  0
  184.7980  178.4310  145.1280 C   0  0  0  0  0  2  0  0  0  0  0  0
  185.5840  179.4320  144.3010 C   0  0  0  0  0  2  0  0  0  0  0  0
  185.7670  178.8890  142.8990 C   0  0  0  0  0  2  0  0  0  0  0  0
  184.6250  177.9510  142.5660 C   0  0  0  0  0  2  0  0  0  0  0  0
  184.1490  178.2190  141.1540 C   0  0  0  0  0  2  0  0  0  0  0  0
  182.6340  178.1900  141.1150 C   0  0  0  0  0  1  0  0  0  0  0  0
  1 15  1  6  0  0  0
  1  7  1  0  0  0  0
  2  8  1  0  0  0  0
  2  7  1  0  0  0  0
  5  4  1  6  0  0  0
  5  6  1  0  0  0  0
  5  8  1  0  0  0  0
  6  3  1  0  0  0  0
  7  3  1  0  0  0  0
  7  9  1  1  0  0  0
  9 10  1  0  0  0  0
 11 14  2  0  0  0  0
 12 14  1  0  0  0  0
 13 12  1  0  0  0  0
 14  1  1  0  0  0  0
 15 16  1  0  0  0  0
 16 17  1  0  0  0  0
 17 19  1  0  0  0  0
 18 19  2  0  0  0  0
 20 18  1  0  0  0  0
 21 20  1  0  0  0  0
 22 21  1  0  0  0  0
 23 22  1  0  0  0  0
 24 23  1  0  0  0  0
 25 24  1  0  0  0  0
M  END
>  <MODEL>
3

>  <REMARK>
 VINA RESULT:      -5.3      2.437      4.348
  Name = 
  12 active torsions:
  status: ('A' for Active; 'I' for Inactive)
    1  A    between atoms: C_1  and  C_3
    2  A    between atoms: C_1  and  C_18
    3  A    between atoms: C_1  and  C_24
    4  A    between atoms: C_2  and  C_7
    5  A    between atoms: C_2  and  C_25
    6  A    between atoms: C_3  and  O_16
    7  A    between atoms: C_6  and  N_15
    8  A    between atoms: C_6  and  C_21
    9  A    between atoms: O_16  and  C_23
   10  A    between atoms: C_17  and  C_18
   11  A    between atoms: C_20  and  C_23
   12  A    between atoms: C_21  and  C_25
                            x       y       z     vdW  Elec       q    Type
                         _______ _______ _______ _____ _____    ______ ____

>  <TORSDO>
F 12

$$$$
=
 OpenBabel11052417383D

 25 25  0  0  1  0  0  0  0  0999 V2000
  185.4540  177.2950  142.8620 C   0  0  1  0  0  3  0  0  0  0  0  0
  186.8250  177.6870  144.8040 O   0  0  0  0  0  0  0  0  0  0  0  0
  184.4310  178.3100  144.9480 C   0  0  0  0  0  2  0  0  0  0  0  0
  186.2430  176.7260  147.7210 O   0  0  0  0  0  1  0  0  0  0  0  0
  185.8070  177.8340  146.9950 C   0  0  2  0  0  3  0  0  0  0  0  0
  184.5490  177.4610  146.2110 C   0  0  0  0  0  2  0  0  0  0  0  0
  185.7130  178.2120  144.0810 C   0  0  2  0  0  0  0  0  0  0  0  0
  186.9230  178.3150  146.0650 C   0  0  0  0  0  2  0  0  0  0  0  0
  186.0510  179.6180  143.5740 C   0  0  0  0  0  2  0  0  0  0  0  0
  185.2230  180.5620  144.1570 F   0  0  0  0  0  0  0  0  0  0  0  0
  185.1500  178.3810  140.7580 O   0  0  0  0  0  0  0  0  0  0  0  0
  183.1890  178.0400  141.9700 N   0  0  0  0  0  2  0  0  0  0  0  0
  182.4170  178.6040  141.0110 O   0  0  0  0  0  1  0  0  0  0  0  0
  184.6040  177.9420  141.8050 C   0  0  0  0  0  0  0  0  0  0  0  0
  186.7330  176.7010  142.2680 C   0  0  0  0  0  2  0  0  0  0  0  0
  186.7860  175.3290  142.5180 O   0  0  0  0  0  0  0  0  0  0  0  0
  188.0100  174.9250  141.9880 C   0  0  0  0  0  2  0  0  0  0  0  0
  189.8740  175.1120  143.5650 N   0  0  0  0  0  0  0  0  0  0  0  0
  188.8930  174.4240  143.0890 C   0  0  0  0  0  3  0  0  0  0  0  0
  190.2260  176.4300  143.0890 C   0  0  0  0  0  2  0  0  0  0  0  0
  190.2650  177.4150  144.2430 C   0  0  0  0  0  2  0  0  0  0  0  0
  191.0490  176.8120  145.3910 C   0  0  0  0  0  2  0  0  0  0  0  0
  190.1590  176.7110  146.6130 C   0  0  0  0  0  2  0  0  0  0  0  0
  190.3710  175.3680  147.2800 C   0  0  0  0  0  2  0  0  0  0  0  0
  189.0590  174.6110  147.3240 C   0  0  0  0  0  1  0  0  0  0  0  0
  1 15  1  6  0  0  0
  1  7  1  0  0  0  0
  2  8  1  0  0  0  0
  3  6  1  0  0  0  0
  5  4  1  6  0  0  0
  6  5  1  0  0  0  0
  7  9  1  6  0  0  0
  7  2  1  0  0  0  0
  7  3  1  0  0  0  0
  8  5  1  0  0  0  0
  9 10  1  0  0  0  0
 11 14  2  0  0  0  0
 13 12  1  0  0  0  0
 14 12  1  0  0  0  0
 14  1  1  0  0  0  0
 15 16  1  0  0  0  0
 17 16  1  0  0  0  0
 17 19  1  0  0  0  0
 19 18  2  0  0  0  0
 20 18  1  0  0  0  0
 20 21  1  0  0  0  0
 21 22  1  0  0  0  0
 22 23  1  0  0  0  0
 23 24  1  0  0  0  0
 24 25  1  0  0  0  0
M  END
>  <MODEL>
4

>  <REMARK>
 VINA RESULT:      -5.2      2.671      5.739
  Name = 
  12 active torsions:
  status: ('A' for Active; 'I' for Inactive)
    1  A    between atoms: C_1  and  C_3
    2  A    between atoms: C_1  and  C_18
    3  A    between atoms: C_1  and  C_24
    4  A    between atoms: C_2  and  C_7
    5  A    between atoms: C_2  and  C_25
    6  A    between atoms: C_3  and  O_16
    7  A    between atoms: C_6  and  N_15
    8  A    between atoms: C_6  and  C_21
    9  A    between atoms: O_16  and  C_23
   10  A    between atoms: C_17  and  C_18
   11  A    between atoms: C_20  and  C_23
   12  A    between atoms: C_21  and  C_25
                            x       y       z     vdW  Elec       q    Type
                         _______ _______ _______ _____ _____    ______ ____

>  <TORSDO>
F 12

$$$$
=
 OpenBabel11052417383D

 25 25  0  0  1  0  0  0  0  0999 V2000
  189.2360  175.8230  145.1750 C   0  0  1  0  0  3  0  0  0  0  0  0
  191.5210  175.8810  144.4140 O   0  0  0  0  0  0  0  0  0  0  0  0
  191.0750  176.5800  146.7490 C   0  0  0  0  0  2  0  0  0  0  0  0
  193.9830  174.5480  145.8040 O   0  0  0  0  0  1  0  0  0  0  0  0
  193.3340  175.7650  146.0140 C   0  0  2  0  0  3  0  0  0  0  0  0
  192.1820  175.5590  146.9960 C   0  0  0  0  0  2  0  0  0  0  0  0
  190.5990  176.5480  145.2730 C   0  0  2  0  0  0  0  0  0  0  0  0
  192.8360  176.3220  144.6780 C   0  0  0  0  0  2  0  0  0  0  0  0
  190.4180  177.9960  144.8020 C   0  0  0  0  0  2  0  0  0  0  0  0
  189.5550  178.0560  143.7210 F   0  0  0  0  0  0  0  0  0  0  0  0
  189.6610  173.4900  145.4510 O   0  0  0  0  0  0  0  0  0  0  0  0
  189.0860  174.1250  143.2840 N   0  0  0  0  0  2  0  0  0  0  0  0
  189.1680  172.8570  142.8170 O   0  0  0  0  0  1  0  0  0  0  0  0
  189.3500  174.4170  144.6570 C   0  0  0  0  0  0  0  0  0  0  0  0
  188.4240  175.8790  146.4710 C   0  0  0  0  0  2  0  0  0  0  0  0
  187.7570  177.1010  146.5670 O   0  0  0  0  0  0  0  0  0  0  0  0
  186.5480  176.7900  147.1880 C   0  0  0  0  0  2  0  0  0  0  0  0
  185.0960  178.7600  147.1150 N   0  0  0  0  0  0  0  0  0  0  0  0
  185.9440  178.0350  147.7610 C   0  0  0  0  0  3  0  0  0  0  0  0
  184.6420  178.4540  145.7780 C   0  0  0  0  0  2  0  0  0  0  0  0
  185.2980  179.3820  144.7730 C   0  0  0  0  0  2  0  0  0  0  0  0
  186.2150  178.5810  143.8730 C   0  0  0  0  0  2  0  0  0  0  0  0
  185.6400  177.1940  143.6700 C   0  0  0  0  0  2  0  0  0  0  0  0
  186.4100  176.4840  142.5760 C   0  0  0  0  0  2  0  0  0  0  0  0
  187.0580  177.5080  141.6660 C   0  0  0  0  0  1  0  0  0  0  0  0
  1  7  1  0  0  0  0
  1 15  1  1  0  0  0
  2  8  1  0  0  0  0
  2  7  1  0  0  0  0
  3  6  1  0  0  0  0
  5  4  1  6  0  0  0
  5  6  1  0  0  0  0
  7  9  1  6  0  0  0
  7  3  1  0  0  0  0
  8  5  1  0  0  0  0
 10  9  1  0  0  0  0
 12 14  1  0  0  0  0
 13 12  1  0  0  0  0
 14  1  1  0  0  0  0
 14 11  2  0  0  0  0
 15 16  1  0  0  0  0
 16 17  1  0  0  0  0
 17 19  1  0  0  0  0
 18 19  2  0  0  0  0
 20 18  1  0  0  0  0
 21 20  1  0  0  0  0
 22 21  1  0  0  0  0
 23 22  1  0  0  0  0
 24 23  1  0  0  0  0
 25 24  1  0  0  0  0
M  END
>  <MODEL>
5

>  <REMARK>
 VINA RESULT:      -5.2      1.997      3.434
  Name = 
  12 active torsions:
  status: ('A' for Active; 'I' for Inactive)
    1  A    between atoms: C_1  and  C_3
    2  A    between atoms: C_1  and  C_18
    3  A    between atoms: C_1  and  C_24
    4  A    between atoms: C_2  and  C_7
    5  A    between atoms: C_2  and  C_25
    6  A    between atoms: C_3  and  O_16
    7  A    between atoms: C_6  and  N_15
    8  A    between atoms: C_6  and  C_21
    9  A    between atoms: O_16  and  C_23
   10  A    between atoms: C_17  and  C_18
   11  A    between atoms: C_20  and  C_23
   12  A    between atoms: C_21  and  C_25
                            x       y       z     vdW  Elec       q    Type
                         _______ _______ _______ _____ _____    ______ ____

>  <TORSDO>
F 12

$$$$
=
 OpenBabel11052417383D

 25 25  0  0  1  0  0  0  0  0999 V2000
  188.4180  177.0140  143.5960 C   0  0  1  0  0  3  0  0  0  0  0  0
  187.0370  178.7440  144.5480 O   0  0  0  0  0  0  0  0  0  0  0  0
  185.9830  176.5420  144.1230 C   0  0  0  0  0  2  0  0  0  0  0  0
  185.2950  178.5260  147.1350 O   0  0  0  0  0  1  0  0  0  0  0  0
  185.0580  178.1560  145.8120 C   0  0  2  0  0  3  0  0  0  0  0  0
  185.5820  176.7380  145.5820 C   0  0  0  0  0  2  0  0  0  0  0  0
  186.9970  177.6230  143.6670 C   0  0  2  0  0  0  0  0  0  0  0  0
  185.7250  179.1570  144.8660 C   0  0  0  0  0  2  0  0  0  0  0  0
  186.5940  178.0900  142.2640 C   0  0  0  0  0  2  0  0  0  0  0  0
  185.4090  177.4930  141.8700 F   0  0  0  0  0  0  0  0  0  0  0  0
  188.6460  174.6400  143.4960 O   0  0  0  0  0  0  0  0  0  0  0  0
  188.2840  175.6710  141.4380 N   0  0  0  0  0  2  0  0  0  0  0  0
  188.3060  174.4950  140.7670 O   0  0  0  0  0  1  0  0  0  0  0  0
  188.4650  175.7080  142.8530 C   0  0  0  0  0  0  0  0  0  0  0  0
  189.4730  177.9940  143.0780 C   0  0  0  0  0  2  0  0  0  0  0  0
  190.5600  178.0350  143.9520 O   0  0  0  0  0  0  0  0  0  0  0  0
  191.6550  177.6860  143.1640 C   0  0  0  0  0  2  0  0  0  0  0  0
  192.8810  175.9160  144.3310 N   0  0  0  0  0  0  0  0  0  0  0  0
  192.0270  176.2590  143.4270 C   0  0  0  0  0  3  0  0  0  0  0  0
  193.5680  176.8640  145.1780 C   0  0  0  0  0  2  0  0  0  0  0  0
  193.4600  176.4450  146.6330 C   0  0  0  0  0  2  0  0  0  0  0  0
  192.5500  175.2380  146.7410 C   0  0  0  0  0  2  0  0  0  0  0  0
  191.3760  175.5690  147.6390 C   0  0  0  0  0  2  0  0  0  0  0  0
  190.1360  175.7700  146.7920 C   0  0  0  0  0  2  0  0  0  0  0  0
  189.0930  174.7370  147.1680 C   0  0  0  0  0  1  0  0  0  0  0  0
  1 15  1  6  0  0  0
  1  7  1  0  0  0  0
  2  8  1  0  0  0  0
  3  6  1  0  0  0  0
  5  4  1  1  0  0  0
  6  5  1  0  0  0  0
  7  9  1  6  0  0  0
  7  3  1  0  0  0  0
  7  2  1  0  0  0  0
  8  5  1  0  0  0  0
 10  9  1  0  0  0  0
 12 14  1  0  0  0  0
 13 12  1  0  0  0  0
 14 11  2  0  0  0  0
 14  1  1  0  0  0  0
 15 16  1  0  0  0  0
 17 19  1  0  0  0  0
 17 16  1  0  0  0  0
 18 20  1  0  0  0  0
 19 18  2  0  0  0  0
 20 21  1  0  0  0  0
 21 22  1  0  0  0  0
 22 23  1  0  0  0  0
 24 25  1  0  0  0  0
 24 23  1  0  0  0  0
M  END
>  <MODEL>
6

>  <REMARK>
 VINA RESULT:      -5.0      2.646      5.629
  Name = 
  12 active torsions:
  status: ('A' for Active; 'I' for Inactive)
    1  A    between atoms: C_1  and  C_3
    2  A    between atoms: C_1  and  C_18
    3  A    between atoms: C_1  and  C_24
    4  A    between atoms: C_2  and  C_7
    5  A    between atoms: C_2  and  C_25
    6  A    between atoms: C_3  and  O_16
    7  A    between atoms: C_6  and  N_15
    8  A    between atoms: C_6  and  C_21
    9  A    between atoms: O_16  and  C_23
   10  A    between atoms: C_17  and  C_18
   11  A    between atoms: C_20  and  C_23
   12  A    between atoms: C_21  and  C_25
                            x       y       z     vdW  Elec       q    Type
                         _______ _______ _______ _____ _____    ______ ____

>  <TORSDO>
F 12

$$$$
=
 OpenBabel11052417383D

 25 25  0  0  1  0  0  0  0  0999 V2000
  190.7250  175.4700  144.0210 C   0  0  1  0  0  3  0  0  0  0  0  0
  193.1080  175.8130  143.9720 O   0  0  0  0  0  0  0  0  0  0  0  0
  191.8930  176.5070  146.0170 C   0  0  0  0  0  2  0  0  0  0  0  0
  195.1730  174.8600  146.1180 O   0  0  0  0  0  1  0  0  0  0  0  0
  194.3500  175.9840  146.0440 C   0  0  2  0  0  3  0  0  0  0  0  0
  192.9870  175.6520  146.6500 C   0  0  0  0  0  2  0  0  0  0  0  0
  191.8960  176.3740  144.4720 C   0  0  2  0  0  0  0  0  0  0  0  0
  194.2180  176.4330  144.5870 C   0  0  0  0  0  2  0  0  0  0  0  0
  191.6950  177.7710  143.8750 C   0  0  0  0  0  2  0  0  0  0  0  0
  190.7920  178.5020  144.6280 F   0  0  0  0  0  0  0  0  0  0  0  0
  189.6210  174.2090  145.7220 O   0  0  0  0  0  0  0  0  0  0  0  0
  188.7530  176.3430  145.3740 N   0  0  0  0  0  2  0  0  0  0  0  0
  187.8170  176.1950  146.3410 O   0  0  0  0  0  1  0  0  0  0  0  0
  189.6720  175.2910  145.0790 C   0  0  0  0  0  0  0  0  0  0  0  0
  190.1100  175.8940  142.6850 C   0  0  0  0  0  2  0  0  0  0  0  0
  189.2030  174.9280  142.2460 O   0  0  0  0  0  0  0  0  0  0  0  0
  188.1980  175.6570  141.6120 C   0  0  0  0  0  2  0  0  0  0  0  0
  186.3420  176.6490  142.8650 N   0  0  0  0  0  0  0  0  0  0  0  0
  186.9440  175.5950  142.4290 C   0  0  0  0  0  3  0  0  0  0  0  0
  186.8110  177.9940  142.6160 C   0  0  0  0  0  2  0  0  0  0  0  0
  185.9000  179.0030  143.2900 C   0  0  0  0  0  2  0  0  0  0  0  0
  185.8770  178.7400  144.7820 C   0  0  0  0  0  2  0  0  0  0  0  0
  184.4850  178.3090  145.1980 C   0  0  0  0  0  2  0  0  0  0  0  0
  184.3880  178.3130  146.7090 C   0  0  0  0  0  2  0  0  0  0  0  0
  185.6360  178.9420  147.2960 C   0  0  0  0  0  1  0  0  0  0  0  0
  1 15  1  6  0  0  0
  1  7  1  0  0  0  0
  1 14  1  0  0  0  0
  2  7  1  0  0  0  0
  2  8  1  0  0  0  0
  3  6  1  0  0  0  0
  5  4  1  6  0  0  0
  5  6  1  0  0  0  0
  7  9  1  6  0  0  0
  7  3  1  0  0  0  0
  8  5  1  0  0  0  0
  9 10  1  0  0  0  0
 12 13  1  0  0  0  0
 14 12  1  0  0  0  0
 14 11  2  0  0  0  0
 16 15  1  0  0  0  0
 17 16  1  0  0  0  0
 17 19  1  0  0  0  0
 19 18  2  0  0  0  0
 20 18  1  0  0  0  0
 20 21  1  0  0  0  0
 21 22  1  0  0  0  0
 22 23  1  0  0  0  0
 23 24  1  0  0  0  0
 24 25  1  0  0  0  0
M  END
>  <MODEL>
7

>  <REMARK>
 VINA RESULT:      -5.0      1.863      2.415
  Name = 
  12 active torsions:
  status: ('A' for Active; 'I' for Inactive)
    1  A    between atoms: C_1  and  C_3
    2  A    between atoms: C_1  and  C_18
    3  A    between atoms: C_1  and  C_24
    4  A    between atoms: C_2  and  C_7
    5  A    between atoms: C_2  and  C_25
    6  A    between atoms: C_3  and  O_16
    7  A    between atoms: C_6  and  N_15
    8  A    between atoms: C_6  and  C_21
    9  A    between atoms: O_16  and  C_23
   10  A    between atoms: C_17  and  C_18
   11  A    between atoms: C_20  and  C_23
   12  A    between atoms: C_21  and  C_25
                            x       y       z     vdW  Elec       q    Type
                         _______ _______ _______ _____ _____    ______ ____

>  <TORSDO>
F 12

$$$$
=
 OpenBabel11052417383D

 25 25  0  0  1  0  0  0  0  0999 V2000
  188.6550  175.3870  141.9530 C   0  0  1  0  0  3  0  0  0  0  0  0
  190.9950  175.1860  142.4900 O   0  0  0  0  0  0  0  0  0  0  0  0
  189.4070  175.4610  144.3730 C   0  0  0  0  0  2  0  0  0  0  0  0
  192.2770  173.1760  144.5120 O   0  0  0  0  0  1  0  0  0  0  0  0
  191.6720  174.4200  144.6850 C   0  0  2  0  0  3  0  0  0  0  0  0
  190.1660  174.2290  144.8580 C   0  0  0  0  0  2  0  0  0  0  0  0
  189.7880  175.8190  142.9130 C   0  0  2  0  0  0  0  0  0  0  0  0
  191.9870  175.3190  143.4870 C   0  0  0  0  0  2  0  0  0  0  0  0
  189.9520  177.3400  142.8250 C   0  0  0  0  0  2  0  0  0  0  0  0
  189.4080  177.9580  143.9380 F   0  0  0  0  0  0  0  0  0  0  0  0
  188.3660  173.0220  142.1060 O   0  0  0  0  0  0  0  0  0  0  0  0
  189.4650  173.7460  140.1830 N   0  0  0  0  0  2  0  0  0  0  0  0
  189.5980  172.4870  139.7020 O   0  0  0  0  0  1  0  0  0  0  0  0
  188.8210  173.9860  141.4350 C   0  0  0  0  0  0  0  0  0  0  0  0
  187.2550  175.6100  142.5280 C   0  0  0  0  0  2  0  0  0  0  0  0
  186.5570  176.5330  141.7470 O   0  0  0  0  0  0  0  0  0  0  0  0
  185.7270  177.1960  142.6490 C   0  0  0  0  0  2  0  0  0  0  0  0
  185.5630  179.4720  143.5390 N   0  0  0  0  0  0  0  0  0  0  0  0
  186.1430  178.6320  142.7510 C   0  0  0  0  0  3  0  0  0  0  0  0
  184.4570  179.1220  144.4010 C   0  0  0  0  0  2  0  0  0  0  0  0
  184.9320  178.9760  145.8350 C   0  0  0  0  0  2  0  0  0  0  0  0
  184.5010  177.6270  146.3710 C   0  0  0  0  0  2  0  0  0  0  0  0
  185.7220  176.8400  146.8020 C   0  0  0  0  0  2  0  0  0  0  0  0
  186.9590  177.4470  146.1730 C   0  0  0  0  0  2  0  0  0  0  0  0
  188.1470  177.2440  147.0920 C   0  0  0  0  0  1  0  0  0  0  0  0
  1 15  1  1  0  0  0
  1  7  1  0  0  0  0
  2  7  1  0  0  0  0
  2  8  1  0  0  0  0
  3  6  1  0  0  0  0
  5  4  1  6  0  0  0
  5  6  1  0  0  0  0
  7  9  1  6  0  0  0
  7  3  1  0  0  0  0
  8  5  1  0  0  0  0
  9 10  1  0  0  0  0
 12 14  1  0  0  0  0
 13 12  1  0  0  0  0
 14  1  1  0  0  0  0
 14 11  2  0  0  0  0
 16 15  1  0  0  0  0
 16 17  1  0  0  0  0
 17 19  1  0  0  0  0
 18 20  1  0  0  0  0
 19 18  2  0  0  0  0
 20 21  1  0  0  0  0
 21 22  1  0  0  0  0
 22 23  1  0  0  0  0
 24 23  1  0  0  0  0
 24 25  1  0  0  0  0
M  END
>  <MODEL>
8

>  <REMARK>
 VINA RESULT:      -5.0      2.180      2.811
  Name = 
  12 active torsions:
  status: ('A' for Active; 'I' for Inactive)
    1  A    between atoms: C_1  and  C_3
    2  A    between atoms: C_1  and  C_18
    3  A    between atoms: C_1  and  C_24
    4  A    between atoms: C_2  and  C_7
    5  A    between atoms: C_2  and  C_25
    6  A    between atoms: C_3  and  O_16
    7  A    between atoms: C_6  and  N_15
    8  A    between atoms: C_6  and  C_21
    9  A    between atoms: O_16  and  C_23
   10  A    between atoms: C_17  and  C_18
   11  A    between atoms: C_20  and  C_23
   12  A    between atoms: C_21  and  C_25
                            x       y       z     vdW  Elec       q    Type
                         _______ _______ _______ _____ _____    ______ ____

>  <TORSDO>
F 12

$$$$
=
 OpenBabel11052417383D

 25 25  0  0  1  0  0  0  0  0999 V2000
  188.1950  177.5700  144.5030 C   0  0  1  0  0  3  0  0  0  0  0  0
  186.3550  178.9920  145.1310 O   0  0  0  0  0  0  0  0  0  0  0  0
  185.9120  176.5600  144.9500 C   0  0  0  0  0  2  0  0  0  0  0  0
  184.4960  178.6430  147.6210 O   0  0  0  0  0  1  0  0  0  0  0  0
  184.4750  178.0720  146.3490 C   0  0  2  0  0  3  0  0  0  0  0  0
  185.3470  176.8180  146.3440 C   0  0  0  0  0  2  0  0  0  0  0  0
  186.6680  177.8020  144.4100 C   0  0  2  0  0  0  0  0  0  0  0  0
  184.9580  179.0930  145.3160 C   0  0  0  0  0  2  0  0  0  0  0  0
  186.2890  177.9850  142.9360 C   0  0  0  0  0  2  0  0  0  0  0  0
  186.6200  179.2560  142.4980 F   0  0  0  0  0  0  0  0  0  0  0  0
  188.6740  177.5270  146.8410 O   0  0  0  0  0  0  0  0  0  0  0  0
  188.9100  175.4760  145.7610 N   0  0  0  0  0  2  0  0  0  0  0  0
  189.2660  174.8380  146.9020 O   0  0  0  0  0  1  0  0  0  0  0  0
  188.6110  176.8720  145.7670 C   0  0  0  0  0  0  0  0  0  0  0  0
  188.7810  176.8870  143.2650 C   0  0  0  0  0  2  0  0  0  0  0  0
  189.5250  177.8030  142.5190 O   0  0  0  0  0  0  0  0  0  0  0  0
  190.7280  177.9210  143.2120 C   0  0  0  0  0  2  0  0  0  0  0  0
  192.1940  176.1440  144.0440 N   0  0  0  0  0  0  0  0  0  0  0  0
  191.5130  176.6530  143.0740 C   0  0  0  0  0  3  0  0  0  0  0  0
  192.2760  176.7400  145.3580 C   0  0  0  0  0  2  0  0  0  0  0  0
  193.0300  175.8250  146.3050 C   0  0  0  0  0  2  0  0  0  0  0  0
  194.5020  176.1800  146.2790 C   0  0  0  0  0  2  0  0  0  0  0  0
  195.3240  174.9160  146.1260 C   0  0  0  0  0  2  0  0  0  0  0  0
  194.5490  173.9080  145.3050 C   0  0  0  0  0  2  0  0  0  0  0  0
  195.1170  172.5220  145.5340 C   0  0  0  0  0  1  0  0  0  0  0  0
  1 15  1  6  0  0  0
  1 14  1  0  0  0  0
  2  8  1  0  0  0  0
  3  6  1  0  0  0  0
  5  4  1  1  0  0  0
  6  5  1  0  0  0  0
  7  9  1  6  0  0  0
  7  1  1  0  0  0  0
  7  3  1  0  0  0  0
  7  2  1  0  0  0  0
  8  5  1  0  0  0  0
 10  9  1  0  0  0  0
 12 14  1  0  0  0  0
 12 13  1  0  0  0  0
 14 11  2  0  0  0  0
 16 17  1  0  0  0  0
 16 15  1  0  0  0  0
 18 20  1  0  0  0  0
 19 17  1  0  0  0  0
 19 18  2  0  0  0  0
 20 21  1  0  0  0  0
 22 21  1  0  0  0  0
 23 22  1  0  0  0  0
 24 25  1  0  0  0  0
 24 23  1  0  0  0  0
M  END
>  <MODEL>
9

>  <REMARK>
 VINA RESULT:      -5.0      2.916      6.440
  Name = 
  12 active torsions:
  status: ('A' for Active; 'I' for Inactive)
    1  A    between atoms: C_1  and  C_3
    2  A    between atoms: C_1  and  C_18
    3  A    between atoms: C_1  and  C_24
    4  A    between atoms: C_2  and  C_7
    5  A    between atoms: C_2  and  C_25
    6  A    between atoms: C_3  and  O_16
    7  A    between atoms: C_6  and  N_15
    8  A    between atoms: C_6  and  C_21
    9  A    between atoms: O_16  and  C_23
   10  A    between atoms: C_17  and  C_18
   11  A    between atoms: C_20  and  C_23
   12  A    between atoms: C_21  and  C_25
                            x       y       z     vdW  Elec       q    Type
                         _______ _______ _______ _____ _____    ______ ____

>  <TORSDO>
F 12

$$$$
