=
 OpenBabel11052417343D

 25 28  0  0  1  0  0  0  0  0999 V2000
  186.1760  177.2710  143.9230 C   0  0  0  0  0  0  0  0  0  0  0  0
  185.5950  177.4710  142.6700 C   0  0  0  0  0  0  0  0  0  0  0  0
  188.3330  176.9090  142.9330 C   0  0  0  0  0  3  0  0  0  0  0  0
  185.5650  177.1980  145.2760 C   0  0  1  0  0  3  0  0  0  0  0  0
  182.4590  178.4170  140.9240 C   0  0  0  0  0  0  0  0  0  0  0  0
  185.9280  178.1760  147.9610 C   0  0  0  0  0  3  0  0  0  0  0  0
  187.7780  177.1200  141.7050 N   0  0  0  0  0  0  0  0  0  0  0  0
  186.8060  176.9510  146.0950 C   0  0  0  0  0  0  0  0  0  0  0  0
  186.8080  177.2640  147.5260 C   0  0  0  0  0  3  0  0  0  0  0  0
  185.9000  177.6160  140.1840 C   0  0  0  0  0  0  0  0  0  0  0  0
  186.7780  177.5030  138.9860 C   0  0  0  0  0  1  0  0  0  0  0  0
  181.2200  178.7650  140.7080 C   0  0  0  0  0  3  0  0  0  0  0  0
  184.1140  177.7070  142.5400 C   0  0  0  0  0  2  0  0  0  0  0  0
  185.0230  178.8770  147.0110 C   0  0  0  0  0  3  0  0  0  0  0  0
  187.5080  176.9720  144.0490 C   0  0  0  0  0  0  0  0  0  0  0  0
  187.8960  176.8170  145.4030 N   0  0  0  0  0  0  0  0  0  0  0  0
  184.6190  177.9400  140.0080 C   0  0  0  0  0  3  0  0  0  0  0  0
  184.8960  178.4670  145.7380 C   0  0  0  0  0  3  0  0  0  0  0  0
  183.6950  178.0700  141.1450 C   0  0  0  0  0  0  0  0  0  0  0  0
  186.4450  177.3940  141.5400 C   0  0  0  0  0  0  0  0  0  0  0  0
  180.4200  179.4290  141.7780 C   0  0  2  0  0  3  0  0  0  0  0  0
  181.1520  179.4870  142.9650 O   0  0  0  0  0  1  0  0  0  0  0  0
  179.1440  178.6860  142.0010 C   0  0  0  0  0  0  0  0  0  0  0  0
  177.9690  179.3910  142.2230 O   0  0  0  0  0  1  0  0  0  0  0  0
  179.1220  177.4270  141.9690 O   0  0  0  0  0  0  0  0  0  0  0  0
  1 15  1  0  0  0  0
  1  4  1  0  0  0  0
  2  1  2  0  0  0  0
  3 15  2  0  0  0  0
  4 18  1  1  0  0  0
  4  8  1  0  0  0  0
  5 19  2  0  0  0  0
  7  3  1  0  0  0  0
  8  9  1  0  0  0  0
  9  6  2  0  0  0  0
 10 20  1  0  0  0  0
 11 10  1  0  0  0  0
 12  5  2  0  0  0  0
 12 21  1  0  0  0  0
 13  2  1  0  0  0  0
 14  6  1  0  0  0  0
 15 16  1  0  0  0  0
 16  8  2  0  0  0  0
 17 10  2  0  0  0  0
 17 19  1  0  0  0  0
 18 14  2  0  0  0  0
 19 13  1  0  0  0  0
 20  7  2  0  0  0  0
 20  2  1  0  0  0  0
 21 23  1  0  0  0  0
 21 22  1  1  0  0  0
 23 24  1  0  0  0  0
 25 23  2  0  0  0  0
M  END
>  <MODEL>
1

>  <REMARK>
 VINA RESULT:      -7.9      0.000      0.000
  Name = 
  2 active torsions:
  status: ('A' for Active; 'I' for Inactive)
    1  A    between atoms: C_2  and  C_21
    2  A    between atoms: C_15  and  C_21
                            x       y       z     vdW  Elec       q    Type
                         _______ _______ _______ _____ _____    ______ ____

>  <TORSDO>
F 2

$$$$
=
 OpenBabel11052417343D

 25 28  0  0  1  0  0  0  0  0999 V2000
  189.6600  175.4320  144.9180 C   0  0  0  0  0  0  0  0  0  0  0  0
  188.7040  175.6880  143.9330 C   0  0  0  0  0  0  0  0  0  0  0  0
  191.0050  174.1800  143.3740 C   0  0  0  0  0  3  0  0  0  0  0  0
  189.6650  175.7490  146.3700 C   0  0  1  0  0  3  0  0  0  0  0  0
  185.5670  177.5280  143.1910 C   0  0  0  0  0  0  0  0  0  0  0  0
  191.3710  176.8220  148.4280 C   0  0  0  0  0  3  0  0  0  0  0  0
  190.0860  174.4390  142.3990 N   0  0  0  0  0  0  0  0  0  0  0  0
  190.9980  175.1530  146.7470 C   0  0  0  0  0  0  0  0  0  0  0  0
  191.6790  175.6050  147.9620 C   0  0  0  0  0  3  0  0  0  0  0  0
  187.9910  175.4210  141.5420 C   0  0  0  0  0  0  0  0  0  0  0  0
  188.2230  174.8520  140.1860 C   0  0  0  0  0  1  0  0  0  0  0  0
  184.5140  178.2850  143.3330 C   0  0  0  0  0  3  0  0  0  0  0  0
  187.4450  176.4430  144.2650 C   0  0  0  0  0  2  0  0  0  0  0  0
  190.4090  177.6960  147.7030 C   0  0  0  0  0  3  0  0  0  0  0  0
  190.7700  174.6750  144.6500 C   0  0  0  0  0  0  0  0  0  0  0  0
  191.6140  174.5430  145.7820 N   0  0  0  0  0  0  0  0  0  0  0  0
  186.9110  176.1770  141.7410 C   0  0  0  0  0  3  0  0  0  0  0  0
  189.6560  177.2200  146.6980 C   0  0  0  0  0  3  0  0  0  0  0  0
  186.6190  176.7720  143.0540 C   0  0  0  0  0  0  0  0  0  0  0  0
  188.9510  175.1700  142.6380 C   0  0  0  0  0  0  0  0  0  0  0  0
  184.4600  179.3180  144.4080 C   0  0  2  0  0  3  0  0  0  0  0  0
  185.3490  180.3570  144.1260 O   0  0  0  0  0  1  0  0  0  0  0  0
  184.7940  178.7040  145.7270 C   0  0  0  0  0  0  0  0  0  0  0  0
  185.9730  179.0580  146.3700 O   0  0  0  0  0  1  0  0  0  0  0  0
  184.0070  177.8850  146.2700 O   0  0  0  0  0  0  0  0  0  0  0  0
  1  4  1  0  0  0  0
  2 13  1  0  0  0  0
  2  1  2  0  0  0  0
  3 15  2  0  0  0  0
  4 18  1  6  0  0  0
  4  8  1  0  0  0  0
  5 12  2  0  0  0  0
  7 20  2  0  0  0  0
  7  3  1  0  0  0  0
  8  9  1  0  0  0  0
  9  6  2  0  0  0  0
 10 17  2  0  0  0  0
 10 20  1  0  0  0  0
 11 10  1  0  0  0  0
 12 21  1  0  0  0  0
 14  6  1  0  0  0  0
 15  1  1  0  0  0  0
 15 16  1  0  0  0  0
 16  8  2  0  0  0  0
 17 19  1  0  0  0  0
 18 14  2  0  0  0  0
 19  5  2  0  0  0  0
 19 13  1  0  0  0  0
 20  2  1  0  0  0  0
 21 22  1  6  0  0  0
 21 23  1  0  0  0  0
 23 25  2  0  0  0  0
 23 24  1  0  0  0  0
M  END
>  <MODEL>
2

>  <REMARK>
 VINA RESULT:      -7.7      3.416      4.779
  Name = 
  2 active torsions:
  status: ('A' for Active; 'I' for Inactive)
    1  A    between atoms: C_2  and  C_21
    2  A    between atoms: C_15  and  C_21
                            x       y       z     vdW  Elec       q    Type
                         _______ _______ _______ _____ _____    ______ ____

>  <TORSDO>
F 2

$$$$
=
 OpenBabel11052417343D

 25 28  0  0  1  0  0  0  0  0999 V2000
  186.6020  177.9010  143.9840 C   0  0  0  0  0  0  0  0  0  0  0  0
  187.1510  177.1210  142.9650 C   0  0  0  0  0  0  0  0  0  0  0  0
  185.1700  179.0350  142.4270 C   0  0  0  0  0  3  0  0  0  0  0  0
  186.9500  177.9990  145.4250 C   0  0  1  0  0  3  0  0  0  0  0  0
  189.4630  174.3080  142.2430 C   0  0  0  0  0  0  0  0  0  0  0  0
  185.7270  178.0670  148.0320 C   0  0  0  0  0  3  0  0  0  0  0  0
  185.6870  178.2660  141.4270 N   0  0  0  0  0  0  0  0  0  0  0  0
  185.9460  179.0410  145.8510 C   0  0  0  0  0  0  0  0  0  0  0  0
  185.5660  179.1510  147.2620 C   0  0  0  0  0  3  0  0  0  0  0  0
  187.1790  176.5170  140.5300 C   0  0  0  0  0  0  0  0  0  0  0  0
  186.6910  176.7470  139.1410 C   0  0  0  0  0  1  0  0  0  0  0  0
  190.3230  173.3410  142.4070 C   0  0  0  0  0  3  0  0  0  0  0  0
  188.2590  176.1450  143.2590 C   0  0  0  0  0  2  0  0  0  0  0  0
  186.2230  176.7880  147.4570 C   0  0  0  0  0  3  0  0  0  0  0  0
  185.6530  178.8520  143.7170 C   0  0  0  0  0  0  0  0  0  0  0  0
  185.2230  179.5250  144.8890 N   0  0  0  0  0  0  0  0  0  0  0  0
  188.0810  175.5580  140.7400 C   0  0  0  0  0  3  0  0  0  0  0  0
  186.7370  176.7350  146.2170 C   0  0  0  0  0  3  0  0  0  0  0  0
  188.6050  175.2760  142.0840 C   0  0  0  0  0  0  0  0  0  0  0  0
  186.6570  177.3240  141.6530 C   0  0  0  0  0  0  0  0  0  0  0  0
  190.4620  172.6640  143.7290 C   0  0  2  0  0  3  0  0  0  0  0  0
  189.3160  171.9190  144.0150 O   0  0  0  0  0  1  0  0  0  0  0  0
  190.6950  173.6750  144.8020 C   0  0  0  0  0  0  0  0  0  0  0  0
  189.6910  173.9400  145.7240 O   0  0  0  0  0  1  0  0  0  0  0  0
  191.7980  174.2750  144.8890 O   0  0  0  0  0  0  0  0  0  0  0  0
  1  4  1  0  0  0  0
  2 13  1  0  0  0  0
  2  1  2  0  0  0  0
  3 15  2  0  0  0  0
  4  8  1  0  0  0  0
  4 18  1  1  0  0  0
  5 12  2  0  0  0  0
  7 20  2  0  0  0  0
  7  3  1  0  0  0  0
  8  9  1  0  0  0  0
  9  6  2  0  0  0  0
 10 17  2  0  0  0  0
 10 20  1  0  0  0  0
 11 10  1  0  0  0  0
 12 21  1  0  0  0  0
 14  6  1  0  0  0  0
 15  1  1  0  0  0  0
 15 16  1  0  0  0  0
 16  8  2  0  0  0  0
 17 19  1  0  0  0  0
 18 14  2  0  0  0  0
 19  5  2  0  0  0  0
 19 13  1  0  0  0  0
 20  2  1  0  0  0  0
 21 22  1  1  0  0  0
 21 23  1  0  0  0  0
 23 25  2  0  0  0  0
 23 24  1  0  0  0  0
M  END
>  <MODEL>
3

>  <REMARK>
 VINA RESULT:      -7.5      4.752      6.721
  Name = 
  2 active torsions:
  status: ('A' for Active; 'I' for Inactive)
    1  A    between atoms: C_2  and  C_21
    2  A    between atoms: C_15  and  C_21
                            x       y       z     vdW  Elec       q    Type
                         _______ _______ _______ _____ _____    ______ ____

>  <TORSDO>
F 2

$$$$
=
 OpenBabel11052417343D

 25 28  0  0  1  0  0  0  0  0999 V2000
  185.7760  177.7440  143.6400 C   0  0  0  0  0  0  0  0  0  0  0  0
  186.4500  177.4940  144.8360 C   0  0  0  0  0  0  0  0  0  0  0  0
  184.5510  179.5510  144.6370 C   0  0  0  0  0  3  0  0  0  0  0  0
  185.7930  177.0150  142.3450 C   0  0  1  0  0  3  0  0  0  0  0  0
  189.1250  175.4600  146.4130 C   0  0  0  0  0  0  0  0  0  0  0  0
  185.9830  177.4770  139.5080 C   0  0  0  0  0  3  0  0  0  0  0  0
  185.2170  179.3260  145.8070 N   0  0  0  0  0  0  0  0  0  0  0  0
  184.8200  177.8660  141.5690 C   0  0  0  0  0  0  0  0  0  0  0  0
  184.8420  177.8450  140.1050 C   0  0  0  0  0  3  0  0  0  0  0  0
  186.8400  178.1320  147.2310 C   0  0  0  0  0  0  0  0  0  0  0  0
  186.5050  178.9820  148.4070 C   0  0  0  0  0  1  0  0  0  0  0  0
  190.0800  174.5860  146.5780 C   0  0  0  0  0  3  0  0  0  0  0  0
  187.4170  176.3450  144.9450 C   0  0  0  0  0  2  0  0  0  0  0  0
  187.1940  177.1530  140.3100 C   0  0  0  0  0  3  0  0  0  0  0  0
  184.8310  178.7330  143.5500 C   0  0  0  0  0  0  0  0  0  0  0  0
  184.2750  178.8270  142.2500 N   0  0  0  0  0  0  0  0  0  0  0  0
  187.7890  177.2050  147.3620 C   0  0  0  0  0  3  0  0  0  0  0  0
  187.1260  177.0000  141.6430 C   0  0  0  0  0  3  0  0  0  0  0  0
  188.1710  176.3310  146.2430 C   0  0  0  0  0  0  0  0  0  0  0  0
  186.1480  178.3280  145.9390 C   0  0  0  0  0  0  0  0  0  0  0  0
  190.8640  174.0880  145.4110 C   0  0  2  0  0  3  0  0  0  0  0  0
  191.4080  175.1590  144.7000 O   0  0  0  0  0  1  0  0  0  0  0  0
  189.9910  173.2720  144.5160 C   0  0  0  0  0  0  0  0  0  0  0  0
  189.5910  173.7890  143.2910 O   0  0  0  0  0  0  0  0  0  0  0  0
  189.6320  172.1130  144.8530 O   0  0  0  0  0  1  0  0  0  0  0  0
  1  2  1  0  0  0  0
  2 13  1  0  0  0  0
  2 20  2  0  0  0  0
  3  7  2  0  0  0  0
  4 18  1  6  0  0  0
  4  1  1  0  0  0  0
  5 12  2  0  0  0  0
  6  9  2  0  0  0  0
  6 14  1  0  0  0  0
  7 20  1  0  0  0  0
  8 16  2  0  0  0  0
  8  4  1  0  0  0  0
  9  8  1  0  0  0  0
 10 17  2  0  0  0  0
 10 11  1  0  0  0  0
 13 19  1  0  0  0  0
 14 18  2  0  0  0  0
 15  1  2  0  0  0  0
 15  3  1  0  0  0  0
 16 15  1  0  0  0  0
 19  5  2  0  0  0  0
 19 17  1  0  0  0  0
 20 10  1  0  0  0  0
 21 22  1  6  0  0  0
 21 12  1  0  0  0  0
 23 25  1  0  0  0  0
 23 21  1  0  0  0  0
 24 23  2  0  0  0  0
M  END
>  <MODEL>
4

>  <REMARK>
 VINA RESULT:      -7.5      4.562      7.978
  Name = 
  2 active torsions:
  status: ('A' for Active; 'I' for Inactive)
    1  A    between atoms: C_2  and  C_21
    2  A    between atoms: C_15  and  C_21
                            x       y       z     vdW  Elec       q    Type
                         _______ _______ _______ _____ _____    ______ ____

>  <TORSDO>
F 2

$$$$
=
 OpenBabel11052417343D

 25 28  0  0  1  0  0  0  0  0999 V2000
  188.7230  176.5350  144.0620 C   0  0  0  0  0  0  0  0  0  0  0  0
  187.6010  177.2080  144.5510 C   0  0  0  0  0  0  0  0  0  0  0  0
  189.6950  176.4380  146.2550 C   0  0  0  0  0  3  0  0  0  0  0  0
  189.1170  176.1890  142.6720 C   0  0  1  0  0  3  0  0  0  0  0  0
  184.2610  178.5430  143.6380 C   0  0  0  0  0  0  0  0  0  0  0  0
  190.1360  173.9960  141.1060 C   0  0  0  0  0  3  0  0  0  0  0  0
  188.5960  177.0790  146.7450 N   0  0  0  0  0  0  0  0  0  0  0  0
  190.4290  175.4990  142.9520 C   0  0  0  0  0  0  0  0  0  0  0  0
  190.9860  174.5690  141.9670 C   0  0  0  0  0  3  0  0  0  0  0  0
  186.3890  178.1610  146.5290 C   0  0  0  0  0  0  0  0  0  0  0  0
  186.3470  178.4740  147.9850 C   0  0  0  0  0  1  0  0  0  0  0  0
  183.2050  178.8650  142.9420 C   0  0  0  0  0  3  0  0  0  0  0  0
  186.5180  177.6720  143.6140 C   0  0  0  0  0  2  0  0  0  0  0  0
  188.6740  174.2590  141.1880 C   0  0  0  0  0  3  0  0  0  0  0  0
  189.7560  176.1820  144.8910 C   0  0  0  0  0  0  0  0  0  0  0  0
  190.7900  175.5030  144.1980 N   0  0  0  0  0  0  0  0  0  0  0  0
  185.3440  178.5000  145.7730 C   0  0  0  0  0  3  0  0  0  0  0  0
  188.1840  175.2390  141.9660 C   0  0  0  0  0  3  0  0  0  0  0  0
  185.3170  178.2200  144.3290 C   0  0  0  0  0  0  0  0  0  0  0  0
  187.5570  177.4720  145.9410 C   0  0  0  0  0  0  0  0  0  0  0  0
  182.8860  178.1510  141.6720 C   0  0  2  0  0  3  0  0  0  0  0  0
  183.8160  178.4820  140.6830 O   0  0  0  0  0  1  0  0  0  0  0  0
  181.5090  178.5040  141.2160 C   0  0  0  0  0  0  0  0  0  0  0  0
  180.7260  179.3500  141.9910 O   0  0  0  0  0  1  0  0  0  0  0  0
  181.0600  178.0580  140.1280 O   0  0  0  0  0  0  0  0  0  0  0  0
  1  2  2  0  0  0  0
  1 15  1  0  0  0  0
  2 20  1  0  0  0  0
  3  7  1  0  0  0  0
  4 18  1  1  0  0  0
  4  8  1  0  0  0  0
  4  1  1  0  0  0  0
  5 19  2  0  0  0  0
  6 14  1  0  0  0  0
  6  9  2  0  0  0  0
  8 16  2  0  0  0  0
  9  8  1  0  0  0  0
 10 11  1  0  0  0  0
 12  5  2  0  0  0  0
 13 19  1  0  0  0  0
 13  2  1  0  0  0  0
 14 18  2  0  0  0  0
 15  3  2  0  0  0  0
 16 15  1  0  0  0  0
 17 10  2  0  0  0  0
 19 17  1  0  0  0  0
 20 10  1  0  0  0  0
 20  7  2  0  0  0  0
 21 22  1  6  0  0  0
 21 12  1  0  0  0  0
 23 21  1  0  0  0  0
 23 24  1  0  0  0  0
 25 23  2  0  0  0  0
M  END
>  <MODEL>
5

>  <REMARK>
 VINA RESULT:      -7.5      2.132      4.974
  Name = 
  2 active torsions:
  status: ('A' for Active; 'I' for Inactive)
    1  A    between atoms: C_2  and  C_21
    2  A    between atoms: C_15  and  C_21
                            x       y       z     vdW  Elec       q    Type
                         _______ _______ _______ _____ _____    ______ ____

>  <TORSDO>
F 2

$$$$
=
 OpenBabel11052417343D

 25 28  0  0  1  0  0  0  0  0999 V2000
  187.1180  177.3950  143.1810 C   0  0  0  0  0  0  0  0  0  0  0  0
  188.2790  176.6220  143.2380 C   0  0  0  0  0  0  0  0  0  0  0  0
  186.7050  176.7170  140.9150 C   0  0  0  0  0  3  0  0  0  0  0  0
  186.5340  178.3440  144.1650 C   0  0  1  0  0  3  0  0  0  0  0  0
  191.0020  175.4440  145.4690 C   0  0  0  0  0  0  0  0  0  0  0  0
  184.0260  179.0410  145.3970 C   0  0  0  0  0  3  0  0  0  0  0  0
  187.8290  175.9450  140.9660 N   0  0  0  0  0  0  0  0  0  0  0  0
  185.3160  178.7820  143.3920 C   0  0  0  0  0  0  0  0  0  0  0  0
  184.1710  179.3550  144.1030 C   0  0  0  0  0  3  0  0  0  0  0  0
  189.8270  175.0220  142.0810 C   0  0  0  0  0  0  0  0  0  0  0  0
  190.2150  174.2620  140.8610 C   0  0  0  0  0  1  0  0  0  0  0  0
  191.7480  175.2710  146.5250 C   0  0  0  0  0  3  0  0  0  0  0  0
  189.1470  176.6340  144.4680 C   0  0  0  0  0  2  0  0  0  0  0  0
  184.9670  178.1030  146.0650 C   0  0  0  0  0  3  0  0  0  0  0  0
  186.3640  177.4600  142.0390 C   0  0  0  0  0  0  0  0  0  0  0  0
  185.2260  178.2910  142.1940 N   0  0  0  0  0  0  0  0  0  0  0  0
  190.5780  174.8990  143.1760 C   0  0  0  0  0  3  0  0  0  0  0  0
  186.1100  177.7210  145.4700 C   0  0  0  0  0  3  0  0  0  0  0  0
  190.2540  175.6200  144.4170 C   0  0  0  0  0  0  0  0  0  0  0  0
  188.6220  175.8780  142.0830 C   0  0  0  0  0  0  0  0  0  0  0  0
  191.1960  175.5040  147.8920 C   0  0  2  0  0  3  0  0  0  0  0  0
  189.9360  174.9140  148.0130 O   0  0  0  0  0  1  0  0  0  0  0  0
  191.1020  176.9690  148.1650 C   0  0  0  0  0  0  0  0  0  0  0  0
  190.0520  177.7010  147.6270 O   0  0  0  0  0  0  0  0  0  0  0  0
  191.9550  177.5410  148.8930 O   0  0  0  0  0  1  0  0  0  0  0  0
  1  2  1  0  0  0  0
  1  4  1  0  0  0  0
  2 13  1  0  0  0  0
  3  7  2  0  0  0  0
  3 15  1  0  0  0  0
  4 18  1  1  0  0  0
  5 12  2  0  0  0  0
  6 14  1  0  0  0  0
  7 20  1  0  0  0  0
  8  9  1  0  0  0  0
  8  4  1  0  0  0  0
  9  6  2  0  0  0  0
 10 20  1  0  0  0  0
 10 17  2  0  0  0  0
 11 10  1  0  0  0  0
 12 21  1  0  0  0  0
 15 16  1  0  0  0  0
 15  1  2  0  0  0  0
 16  8  2  0  0  0  0
 17 19  1  0  0  0  0
 18 14  2  0  0  0  0
 19 13  1  0  0  0  0
 19  5  2  0  0  0  0
 20  2  2  0  0  0  0
 21 22  1  6  0  0  0
 21 23  1  0  0  0  0
 23 25  1  0  0  0  0
 24 23  2  0  0  0  0
M  END
>  <MODEL>
6

>  <REMARK>
 VINA RESULT:      -7.4      4.821      7.557
  Name = 
  2 active torsions:
  status: ('A' for Active; 'I' for Inactive)
    1  A    between atoms: C_2  and  C_21
    2  A    between atoms: C_15  and  C_21
                            x       y       z     vdW  Elec       q    Type
                         _______ _______ _______ _____ _____    ______ ____

>  <TORSDO>
F 2

$$$$
=
 OpenBabel11052417343D

 25 28  0  0  1  0  0  0  0  0999 V2000
  187.3300  177.3310  144.0500 C   0  0  0  0  0  0  0  0  0  0  0  0
  188.3170  176.5150  143.4940 C   0  0  0  0  0  0  0  0  0  0  0  0
  185.8440  176.8870  142.2180 C   0  0  0  0  0  3  0  0  0  0  0  0
  187.3560  178.2030  145.2540 C   0  0  1  0  0  3  0  0  0  0  0  0
  191.6700  175.0330  144.0700 C   0  0  0  0  0  0  0  0  0  0  0  0
  185.7900  178.8710  147.5780 C   0  0  0  0  0  3  0  0  0  0  0  0
  186.7950  176.0730  141.6750 N   0  0  0  0  0  0  0  0  0  0  0  0
  185.9550  178.7570  145.1880 C   0  0  0  0  0  0  0  0  0  0  0  0
  185.3300  179.3000  146.3960 C   0  0  0  0  0  3  0  0  0  0  0  0
  189.0050  174.9770  141.6360 C   0  0  0  0  0  0  0  0  0  0  0  0
  188.7100  174.3220  140.3310 C   0  0  0  0  0  1  0  0  0  0  0  0
  192.8110  174.7340  144.6280 C   0  0  0  0  0  3  0  0  0  0  0  0
  189.6610  176.3780  144.1580 C   0  0  0  0  0  2  0  0  0  0  0  0
  186.8610  177.8400  147.6510 C   0  0  0  0  0  3  0  0  0  0  0  0
  186.1330  177.5320  143.4140 C   0  0  0  0  0  0  0  0  0  0  0  0
  185.2720  178.3850  144.1490 N   0  0  0  0  0  0  0  0  0  0  0  0
  190.1730  174.7240  142.2280 C   0  0  0  0  0  3  0  0  0  0  0  0
  187.5530  177.4750  146.5590 C   0  0  0  0  0  3  0  0  0  0  0  0
  190.5300  175.3340  143.5170 C   0  0  0  0  0  0  0  0  0  0  0  0
  188.0140  175.8720  142.2700 C   0  0  0  0  0  0  0  0  0  0  0  0
  192.9910  174.8560  146.1030 C   0  0  2  0  0  3  0  0  0  0  0  0
  191.8610  175.4360  146.6830 O   0  0  0  0  0  1  0  0  0  0  0  0
  194.2000  175.6780  146.4070 C   0  0  0  0  0  0  0  0  0  0  0  0
  194.0470  176.9610  146.9160 O   0  0  0  0  0  1  0  0  0  0  0  0
  195.3550  175.2110  146.2250 O   0  0  0  0  0  0  0  0  0  0  0  0
  1  4  1  0  0  0  0
  2  1  1  0  0  0  0
  2 13  1  0  0  0  0
  3 15  1  0  0  0  0
  4 18  1  1  0  0  0
  5 12  2  0  0  0  0
  6 14  1  0  0  0  0
  7  3  2  0  0  0  0
  7 20  1  0  0  0  0
  8  4  1  0  0  0  0
  8  9  1  0  0  0  0
  9  6  2  0  0  0  0
 10 17  2  0  0  0  0
 10 20  1  0  0  0  0
 11 10  1  0  0  0  0
 12 21  1  0  0  0  0
 15  1  2  0  0  0  0
 15 16  1  0  0  0  0
 16  8  2  0  0  0  0
 17 19  1  0  0  0  0
 18 14  2  0  0  0  0
 19  5  2  0  0  0  0
 19 13  1  0  0  0  0
 20  2  2  0  0  0  0
 21 23  1  0  0  0  0
 21 22  1  1  0  0  0
 23 24  1  0  0  0  0
 25 23  2  0  0  0  0
M  END
>  <MODEL>
7

>  <REMARK>
 VINA RESULT:      -7.2      5.490      8.215
  Name = 
  2 active torsions:
  status: ('A' for Active; 'I' for Inactive)
    1  A    between atoms: C_2  and  C_21
    2  A    between atoms: C_15  and  C_21
                            x       y       z     vdW  Elec       q    Type
                         _______ _______ _______ _____ _____    ______ ____

>  <TORSDO>
F 2

$$$$
=
 OpenBabel11052417343D

 25 28  0  0  1  0  0  0  0  0999 V2000
  187.9470  176.8070  145.6740 C   0  0  0  0  0  0  0  0  0  0  0  0
  189.0040  176.1420  145.0500 C   0  0  0  0  0  0  0  0  0  0  0  0
  189.4130  177.6870  147.3580 C   0  0  0  0  0  3  0  0  0  0  0  0
  186.4880  176.7900  145.3910 C   0  0  1  0  0  3  0  0  0  0  0  0
  189.9510  174.1020  142.0970 C   0  0  0  0  0  0  0  0  0  0  0  0
  184.2350  178.5610  145.1050 C   0  0  0  0  0  3  0  0  0  0  0  0
  190.4570  177.0550  146.7460 N   0  0  0  0  0  0  0  0  0  0  0  0
  186.0150  177.7240  146.4760 C   0  0  0  0  0  0  0  0  0  0  0  0
  184.7230  178.4010  146.3420 C   0  0  0  0  0  3  0  0  0  0  0  0
  191.4600  175.6310  144.9990 C   0  0  0  0  0  0  0  0  0  0  0  0
  192.8130  175.7530  145.6090 C   0  0  0  0  0  1  0  0  0  0  0  0
  189.8740  173.4340  140.9790 C   0  0  0  0  0  3  0  0  0  0  0  0
  188.7570  175.2650  143.8520 C   0  0  0  0  0  2  0  0  0  0  0  0
  185.0060  178.1130  143.9150 C   0  0  0  0  0  3  0  0  0  0  0  0
  188.1430  177.5400  146.8150 C   0  0  0  0  0  0  0  0  0  0  0  0
  186.9460  178.1390  147.2800 N   0  0  0  0  0  0  0  0  0  0  0  0
  191.3290  174.9320  143.8710 C   0  0  0  0  0  3  0  0  0  0  0  0
  186.0970  177.3390  144.0430 C   0  0  0  0  0  3  0  0  0  0  0  0
  190.0230  174.7710  143.2130 C   0  0  0  0  0  0  0  0  0  0  0  0
  190.2920  176.2910  145.6200 C   0  0  0  0  0  0  0  0  0  0  0  0
  188.7640  173.6890  140.0160 C   0  0  2  0  0  3  0  0  0  0  0  0
  187.8160  172.6660  140.0870 O   0  0  0  0  0  1  0  0  0  0  0  0
  189.3020  173.7930  138.6280 C   0  0  0  0  0  0  0  0  0  0  0  0
  188.4460  174.1140  137.5830 O   0  0  0  0  0  0  0  0  0  0  0  0
  190.5270  173.6100  138.4000 O   0  0  0  0  0  1  0  0  0  0  0  0
  1 15  1  0  0  0  0
  2 20  1  0  0  0  0
  2  1  2  0  0  0  0
  4 18  1  6  0  0  0
  4  1  1  0  0  0  0
  4  8  1  0  0  0  0
  5 19  2  0  0  0  0
  6  9  2  0  0  0  0
  7  3  1  0  0  0  0
  8 16  2  0  0  0  0
  9  8  1  0  0  0  0
 10 11  1  0  0  0  0
 10 20  1  0  0  0  0
 12  5  2  0  0  0  0
 13  2  1  0  0  0  0
 14 18  2  0  0  0  0
 14  6  1  0  0  0  0
 15 16  1  0  0  0  0
 15  3  2  0  0  0  0
 17 10  2  0  0  0  0
 19 13  1  0  0  0  0
 19 17  1  0  0  0  0
 20  7  2  0  0  0  0
 21 22  1  6  0  0  0
 21 12  1  0  0  0  0
 23 21  1  0  0  0  0
 24 23  2  0  0  0  0
 25 23  1  0  0  0  0
M  END
>  <MODEL>
8

>  <REMARK>
 VINA RESULT:      -7.2      4.787      7.203
  Name = 
  2 active torsions:
  status: ('A' for Active; 'I' for Inactive)
    1  A    between atoms: C_2  and  C_21
    2  A    between atoms: C_15  and  C_21
                            x       y       z     vdW  Elec       q    Type
                         _______ _______ _______ _____ _____    ______ ____

>  <TORSDO>
F 2

$$$$
=
 OpenBabel11052417343D

 25 28  0  0  1  0  0  0  0  0999 V2000
  187.3540  176.4380  144.2450 C   0  0  0  0  0  0  0  0  0  0  0  0
  188.5200  175.7530  144.5930 C   0  0  0  0  0  0  0  0  0  0  0  0
  187.2130  177.4320  146.4250 C   0  0  0  0  0  3  0  0  0  0  0  0
  186.5290  176.3840  143.0090 C   0  0  1  0  0  3  0  0  0  0  0  0
  191.2230  173.5630  143.2990 C   0  0  0  0  0  0  0  0  0  0  0  0
  185.2030  178.1040  141.1170 C   0  0  0  0  0  3  0  0  0  0  0  0
  188.3620  176.7820  146.7700 N   0  0  0  0  0  0  0  0  0  0  0  0
  185.4540  177.3710  143.3870 C   0  0  0  0  0  0  0  0  0  0  0  0
  184.6630  178.0210  142.3390 C   0  0  0  0  0  3  0  0  0  0  0  0
  190.2660  175.2760  146.3300 C   0  0  0  0  0  0  0  0  0  0  0  0
  190.7860  175.4520  147.7140 C   0  0  0  0  0  1  0  0  0  0  0  0
  191.9430  172.8310  142.4940 C   0  0  0  0  0  3  0  0  0  0  0  0
  189.1710  174.8060  143.6210 C   0  0  0  0  0  2  0  0  0  0  0  0
  186.5780  177.5990  140.8540 C   0  0  0  0  0  3  0  0  0  0  0  0
  186.7030  177.2380  145.1470 C   0  0  0  0  0  0  0  0  0  0  0  0
  185.5490  177.8440  144.5910 N   0  0  0  0  0  0  0  0  0  0  0  0
  190.9540  174.5110  145.4810 C   0  0  0  0  0  3  0  0  0  0  0  0
  187.2300  176.8490  141.7590 C   0  0  0  0  0  3  0  0  0  0  0  0
  190.5000  174.2950  144.0990 C   0  0  0  0  0  0  0  0  0  0  0  0
  189.0240  175.9530  145.9010 C   0  0  0  0  0  0  0  0  0  0  0  0
  191.8550  173.0150  141.0160 C   0  0  2  0  0  3  0  0  0  0  0  0
  192.3170  174.2840  140.6580 O   0  0  0  0  0  1  0  0  0  0  0  0
  190.4460  172.8370  140.5590 C   0  0  0  0  0  0  0  0  0  0  0  0
  189.7160  173.9420  140.1390 O   0  0  0  0  0  0  0  0  0  0  0  0
  189.9200  171.6940  140.5330 O   0  0  0  0  0  1  0  0  0  0  0  0
  1  2  2  0  0  0  0
  1 15  1  0  0  0  0
  2 20  1  0  0  0  0
  3  7  1  0  0  0  0
  4 18  1  6  0  0  0
  4  8  1  0  0  0  0
  4  1  1  0  0  0  0
  5 19  2  0  0  0  0
  6  9  2  0  0  0  0
  8 16  2  0  0  0  0
  9  8  1  0  0  0  0
 10 11  1  0  0  0  0
 12  5  2  0  0  0  0
 13 19  1  0  0  0  0
 13  2  1  0  0  0  0
 14  6  1  0  0  0  0
 14 18  2  0  0  0  0
 15  3  2  0  0  0  0
 16 15  1  0  0  0  0
 17 10  2  0  0  0  0
 19 17  1  0  0  0  0
 20 10  1  0  0  0  0
 20  7  2  0  0  0  0
 21 22  1  1  0  0  0
 21 12  1  0  0  0  0
 23 21  1  0  0  0  0
 24 23  2  0  0  0  0
 25 23  1  0  0  0  0
M  END
>  <MODEL>
9

>  <REMARK>
 VINA RESULT:      -7.1      4.970      8.190
  Name = 
  2 active torsions:
  status: ('A' for Active; 'I' for Inactive)
    1  A    between atoms: C_2  and  C_21
    2  A    between atoms: C_15  and  C_21
                            x       y       z     vdW  Elec       q    Type
                         _______ _______ _______ _____ _____    ______ ____

>  <TORSDO>
F 2

$$$$
