=
 OpenBabel11052420273D

 34 38  0  0  1  0  0  0  0  0999 V2000
  191.0550  173.9500  145.2270 C   0  0  2  0  0  3  0  0  0  0  0  0
  192.6040  172.4940  142.1130 C   0  0  0  0  0  3  0  0  0  0  0  0
  193.4860  172.2130  144.6430 S   0  0  0  0  0  0  0  0  0  0  0  0
  189.8760  175.4740  146.8660 C   0  0  1  0  0  3  0  0  0  0  0  0
  189.9140  174.9410  145.4300 C   0  0  0  0  0  2  0  0  0  0  0  0
  192.4800  175.2380  146.9140 C   0  0  1  0  0  3  0  0  0  0  0  0
  193.1720  176.5870  146.9390 C   0  0  0  0  0  1  0  0  0  0  0  0
  191.1590  175.2890  147.7030 C   0  0  0  0  0  2  0  0  0  0  0  0
  193.6070  173.9480  145.0790 C   0  0  0  0  0  0  0  0  0  0  0  0
  192.3700  174.7200  145.4730 C   0  0  1  0  0  3  0  0  0  0  0  0
  194.6740  174.5270  144.9580 O   0  0  0  0  0  0  0  0  0  0  0  0
  191.7200  172.9360  140.9970 C   0  0  0  0  0  2  0  0  0  0  0  0
  190.4250  172.1880  141.0040 C   0  0  0  0  0  0  0  0  0  0  0  0
  189.5700  172.3010  142.0280 C   0  0  0  0  0  3  0  0  0  0  0  0
  192.2750  172.6330  143.3980 C   0  0  0  0  0  0  0  0  0  0  0  0
  189.8230  173.0310  143.2880 C   0  0  0  0  0  3  0  0  0  0  0  0
  191.0130  173.2630  143.8710 C   0  0  0  0  0  0  0  0  0  0  0  0
  190.0480  171.3930  139.8220 C   0  0  0  0  0  0  0  0  0  0  0  0
  189.1370  171.9200  138.8630 N   0  0  0  0  0  1  0  0  0  0  0  0
  190.5300  170.2410  139.6430 O   0  0  0  0  0  0  0  0  0  0  0  0
  189.2710  176.8760  146.9580 C   0  0  0  0  0  2  0  0  0  0  0  0
  185.7330  177.0050  145.6760 N   0  0  0  0  0  0  0  0  0  0  0  0
  188.2910  177.5480  144.7560 C   0  0  0  0  0  3  0  0  0  0  0  0
  184.9590  178.0900  142.2540 C   0  0  0  0  0  0  0  0  0  0  0  0
  184.7900  177.6290  143.5700 C   0  0  0  0  0  3  0  0  0  0  0  0
  185.8980  177.4510  144.4010 C   0  0  0  0  0  0  0  0  0  0  0  0
  187.3650  178.1930  142.6100 C   0  0  0  0  0  3  0  0  0  0  0  0
  187.1920  177.7340  143.9170 C   0  0  0  0  0  0  0  0  0  0  0  0
  186.2510  178.3700  141.7820 C   0  0  0  0  0  3  0  0  0  0  0  0
  188.0960  177.0790  146.0570 C   0  0  0  0  0  0  0  0  0  0  0  0
  186.7950  176.8180  146.5050 C   0  0  0  0  0  3  0  0  0  0  0  0
  183.7900  178.2790  141.3770 C   0  0  0  0  0  0  0  0  0  0  0  0
  182.4760  178.3170  141.9250 N   0  0  0  0  0  1  0  0  0  0  0  0
  183.9440  178.4090  140.1330 O   0  0  0  0  0  0  0  0  0  0  0  0
  1  5  1  6  0  0  0
  1 10  1  0  0  0  0
  2 15  2  0  0  0  0
  3  9  1  0  0  0  0
  4 21  1  6  0  0  0
  4  8  1  0  0  0  0
  5  4  1  0  0  0  0
  6  7  1  6  0  0  0
  6  8  1  0  0  0  0
 10  9  1  1  0  0  0
 10  6  1  0  0  0  0
 11  9  2  0  0  0  0
 12 13  1  0  0  0  0
 12  2  1  0  0  0  0
 13 14  2  0  0  0  0
 14 16  1  0  0  0  0
 15 17  1  0  0  0  0
 15  3  1  0  0  0  0
 16 17  2  0  0  0  0
 17  1  1  0  0  0  0
 18 13  1  0  0  0  0
 19 18  1  0  0  0  0
 20 18  2  0  0  0  0
 22 31  1  0  0  0  0
 23 30  1  0  0  0  0
 24 25  2  0  0  0  0
 25 26  1  0  0  0  0
 26 22  2  0  0  0  0
 27 28  1  0  0  0  0
 28 26  1  0  0  0  0
 28 23  2  0  0  0  0
 29 24  1  0  0  0  0
 29 27  2  0  0  0  0
 30 31  2  0  0  0  0
 30 21  1  0  0  0  0
 32 33  1  0  0  0  0
 32 24  1  0  0  0  0
 34 32  2  0  0  0  0
M  END
>  <MODEL>
1

>  <REMARK>
 VINA RESULT:      -8.7      0.000      0.000
  Name = 
  4 active torsions:
  status: ('A' for Active; 'I' for Inactive)
    1  A    between atoms: C_3  and  C_25
    2  A    between atoms: C_7  and  C_11
    3  A    between atoms: C_8  and  C_18
    4  A    between atoms: C_18  and  C_30
                            x       y       z     vdW  Elec       q    Type
                         _______ _______ _______ _____ _____    ______ ____

>  <TORSDO>
F 4

$$$$
=
 OpenBabel11052420273D

 34 38  0  0  1  0  0  0  0  0999 V2000
  190.4080  176.1700  143.9770 C   0  0  2  0  0  3  0  0  0  0  0  0
  193.5410  175.9670  146.0650 C   0  0  0  0  0  3  0  0  0  0  0  0
  191.2090  174.6970  146.5180 S   0  0  0  0  0  0  0  0  0  0  0  0
  188.5260  176.9900  142.4980 C   0  0  1  0  0  3  0  0  0  0  0  0
  190.0290  177.0500  142.7910 C   0  0  0  0  0  2  0  0  0  0  0  0
  188.1440  176.6500  145.0620 C   0  0  1  0  0  3  0  0  0  0  0  0
  187.4860  177.8560  145.7030 C   0  0  0  0  0  1  0  0  0  0  0  0
  187.6270  176.4460  143.6270 C   0  0  0  0  0  2  0  0  0  0  0  0
  190.1220  176.1240  146.5160 C   0  0  0  0  0  0  0  0  0  0  0  0
  189.6700  176.7320  145.2100 C   0  0  1  0  0  3  0  0  0  0  0  0
  189.8320  176.6610  147.5720 O   0  0  0  0  0  0  0  0  0  0  0  0
  194.5290  176.8400  145.3690 C   0  0  0  0  0  2  0  0  0  0  0  0
  195.0250  176.1990  144.1120 C   0  0  0  0  0  0  0  0  0  0  0  0
  194.1940  175.9420  143.0950 C   0  0  0  0  0  3  0  0  0  0  0  0
  192.3760  175.6130  145.5210 C   0  0  0  0  0  0  0  0  0  0  0  0
  192.7270  176.1200  143.1120 C   0  0  0  0  0  3  0  0  0  0  0  0
  191.9120  176.0610  144.1820 C   0  0  0  0  0  0  0  0  0  0  0  0
  196.4680  175.9370  143.9610 C   0  0  0  0  0  0  0  0  0  0  0  0
  197.2620  176.7610  143.1140 N   0  0  0  0  0  1  0  0  0  0  0  0
  197.0150  174.9850  144.5810 O   0  0  0  0  0  0  0  0  0  0  0  0
  188.0010  178.2710  141.8480 C   0  0  0  0  0  2  0  0  0  0  0  0
  184.7730  177.7590  139.9780 N   0  0  0  0  0  0  0  0  0  0  0  0
  185.6030  178.5890  142.4900 C   0  0  0  0  0  3  0  0  0  0  0  0
  181.5160  178.4490  141.5280 C   0  0  0  0  0  0  0  0  0  0  0  0
  182.4800  178.0770  140.5780 C   0  0  0  0  0  3  0  0  0  0  0  0
  183.8390  178.1220  140.8990 C   0  0  0  0  0  0  0  0  0  0  0  0
  183.2870  178.9160  143.1300 C   0  0  0  0  0  3  0  0  0  0  0  0
  184.2430  178.5440  142.1820 C   0  0  0  0  0  0  0  0  0  0  0  0
  181.9290  178.8680  142.8030 C   0  0  0  0  0  3  0  0  0  0  0  0
  186.5430  178.2210  141.5240 C   0  0  0  0  0  0  0  0  0  0  0  0
  186.1020  177.7980  140.2630 C   0  0  0  0  0  3  0  0  0  0  0  0
  180.0820  178.4020  141.1890 C   0  0  0  0  0  0  0  0  0  0  0  0
  179.5320  179.3240  140.2520 N   0  0  0  0  0  1  0  0  0  0  0  0
  179.3300  177.5440  141.7250 O   0  0  0  0  0  0  0  0  0  0  0  0
  1  5  1  6  0  0  0
  1 17  1  0  0  0  0
  1 10  1  0  0  0  0
  4 21  1  1  0  0  0
  4  5  1  0  0  0  0
  4  8  1  0  0  0  0
  6 10  1  0  0  0  0
  6  7  1  6  0  0  0
  8  6  1  0  0  0  0
  9  3  1  0  0  0  0
  9 11  2  0  0  0  0
 10  9  1  1  0  0  0
 12  2  1  0  0  0  0
 13 12  1  0  0  0  0
 14 16  1  0  0  0  0
 14 13  2  0  0  0  0
 15  2  2  0  0  0  0
 15  3  1  0  0  0  0
 16 17  2  0  0  0  0
 17 15  1  0  0  0  0
 18 13  1  0  0  0  0
 18 20  2  0  0  0  0
 19 18  1  0  0  0  0
 22 31  2  0  0  0  0
 22 26  1  0  0  0  0
 24 29  1  0  0  0  0
 25 26  1  0  0  0  0
 25 24  2  0  0  0  0
 26 28  2  0  0  0  0
 28 23  1  0  0  0  0
 28 27  1  0  0  0  0
 29 27  2  0  0  0  0
 30 21  1  0  0  0  0
 30 23  2  0  0  0  0
 31 30  1  0  0  0  0
 32 24  1  0  0  0  0
 32 34  2  0  0  0  0
 33 32  1  0  0  0  0
M  END
>  <MODEL>
2

>  <REMARK>
 VINA RESULT:      -8.3      3.492      5.333
  Name = 
  4 active torsions:
  status: ('A' for Active; 'I' for Inactive)
    1  A    between atoms: C_3  and  C_25
    2  A    between atoms: C_7  and  C_11
    3  A    between atoms: C_8  and  C_18
    4  A    between atoms: C_18  and  C_30
                            x       y       z     vdW  Elec       q    Type
                         _______ _______ _______ _____ _____    ______ ____

>  <TORSDO>
F 4

$$$$
=
 OpenBabel11052420273D

 34 38  0  0  1  0  0  0  0  0999 V2000
  190.3230  177.1830  144.5960 C   0  0  2  0  0  3  0  0  0  0  0  0
  186.5900  176.7110  144.8420 C   0  0  0  0  0  3  0  0  0  0  0  0
  188.2680  177.4060  146.8320 S   0  0  0  0  0  0  0  0  0  0  0  0
  192.7610  176.9510  143.9650 C   0  0  1  0  0  3  0  0  0  0  0  0
  191.3120  176.9080  143.4680 C   0  0  0  0  0  2  0  0  0  0  0  0
  191.8950  176.0470  146.2600 C   0  0  1  0  0  3  0  0  0  0  0  0
  192.3510  174.6250  146.5200 C   0  0  0  0  0  1  0  0  0  0  0  0
  192.9710  176.8320  145.4890 C   0  0  0  0  0  2  0  0  0  0  0  0
  189.4230  176.0400  146.6970 C   0  0  0  0  0  0  0  0  0  0  0  0
  190.4940  176.0530  145.6320 C   0  0  1  0  0  3  0  0  0  0  0  0
  189.2760  175.0550  147.4020 O   0  0  0  0  0  0  0  0  0  0  0  0
  186.1520  176.3500  143.4640 C   0  0  0  0  0  2  0  0  0  0  0  0
  186.1940  177.5370  142.5550 C   0  0  0  0  0  0  0  0  0  0  0  0
  187.3510  178.1490  142.2730 C   0  0  0  0  0  3  0  0  0  0  0  0
  187.8140  177.1610  145.1200 C   0  0  0  0  0  0  0  0  0  0  0  0
  188.6610  177.8430  142.8840 C   0  0  0  0  0  3  0  0  0  0  0  0
  188.8890  177.3300  144.1070 C   0  0  0  0  0  0  0  0  0  0  0  0
  184.9540  177.9760  141.8890 C   0  0  0  0  0  0  0  0  0  0  0  0
  184.9350  178.2030  140.4830 N   0  0  0  0  0  1  0  0  0  0  0  0
  183.8970  178.1530  142.5540 O   0  0  0  0  0  0  0  0  0  0  0  0
  193.6930  176.0630  143.1390 C   0  0  0  0  0  2  0  0  0  0  0  0
  193.0160  172.4610  144.0040 N   0  0  0  0  0  0  0  0  0  0  0  0
  195.0030  174.3510  144.4100 C   0  0  0  0  0  3  0  0  0  0  0  0
  195.3970  170.4680  145.9630 C   0  0  0  0  0  0  0  0  0  0  0  0
  194.2540  170.8250  145.2320 C   0  0  0  0  0  3  0  0  0  0  0  0
  194.1240  172.1160  144.7140 C   0  0  0  0  0  0  0  0  0  0  0  0
  196.2850  172.7130  145.6560 C   0  0  0  0  0  3  0  0  0  0  0  0
  195.1460  173.0640  144.9290 C   0  0  0  0  0  0  0  0  0  0  0  0
  196.4090  171.4180  146.1710 C   0  0  0  0  0  3  0  0  0  0  0  0
  193.8510  174.6840  143.6930 C   0  0  0  0  0  0  0  0  0  0  0  0
  192.8620  173.7120  143.4930 C   0  0  0  0  0  3  0  0  0  0  0  0
  195.5340  169.1050  146.5090 C   0  0  0  0  0  0  0  0  0  0  0  0
  194.7080  168.6740  147.5870 N   0  0  0  0  0  1  0  0  0  0  0  0
  196.3840  168.3090  146.0270 O   0  0  0  0  0  0  0  0  0  0  0  0
  1  5  1  6  0  0  0
  1 10  1  0  0  0  0
  2 15  2  0  0  0  0
  4 21  1  6  0  0  0
  4  8  1  0  0  0  0
  5  4  1  0  0  0  0
  6  7  1  6  0  0  0
  8  6  1  0  0  0  0
  9  3  1  0  0  0  0
  9 11  2  0  0  0  0
 10  6  1  0  0  0  0
 10  9  1  1  0  0  0
 12  2  1  0  0  0  0
 13 12  1  0  0  0  0
 14 13  2  0  0  0  0
 14 16  1  0  0  0  0
 15  3  1  0  0  0  0
 16 17  2  0  0  0  0
 17  1  1  0  0  0  0
 17 15  1  0  0  0  0
 18 20  2  0  0  0  0
 18 13  1  0  0  0  0
 19 18  1  0  0  0  0
 21 30  1  0  0  0  0
 22 26  1  0  0  0  0
 23 28  1  0  0  0  0
 24 29  1  0  0  0  0
 24 32  1  0  0  0  0
 25 24  2  0  0  0  0
 26 28  2  0  0  0  0
 26 25  1  0  0  0  0
 27 29  2  0  0  0  0
 28 27  1  0  0  0  0
 30 23  2  0  0  0  0
 31 30  1  0  0  0  0
 31 22  2  0  0  0  0
 32 33  1  0  0  0  0
 34 32  2  0  0  0  0
M  END
>  <MODEL>
3

>  <REMARK>
 VINA RESULT:      -8.3      3.631      8.727
  Name = 
  4 active torsions:
  status: ('A' for Active; 'I' for Inactive)
    1  A    between atoms: C_3  and  C_25
    2  A    between atoms: C_7  and  C_11
    3  A    between atoms: C_8  and  C_18
    4  A    between atoms: C_18  and  C_30
                            x       y       z     vdW  Elec       q    Type
                         _______ _______ _______ _____ _____    ______ ____

>  <TORSDO>
F 4

$$$$
=
 OpenBabel11052420273D

 34 38  0  0  1  0  0  0  0  0999 V2000
  192.5180  174.2600  144.5300 C   0  0  2  0  0  3  0  0  0  0  0  0
  192.7860  173.4620  140.8550 C   0  0  0  0  0  3  0  0  0  0  0  0
  194.7590  173.3440  142.6850 S   0  0  0  0  0  0  0  0  0  0  0  0
  191.8790  175.2980  146.7470 C   0  0  1  0  0  3  0  0  0  0  0  0
  191.3900  174.8610  145.3620 C   0  0  0  0  0  2  0  0  0  0  0  0
  194.1900  175.8370  145.6490 C   0  0  1  0  0  3  0  0  0  0  0  0
  194.4660  177.3280  145.6080 C   0  0  0  0  0  1  0  0  0  0  0  0
  193.4040  175.4630  146.9180 C   0  0  0  0  0  2  0  0  0  0  0  0
  194.6370  175.0180  143.3180 C   0  0  0  0  0  0  0  0  0  0  0  0
  193.5680  175.3720  144.3240 C   0  0  1  0  0  3  0  0  0  0  0  0
  195.3560  175.8890  142.8580 O   0  0  0  0  0  0  0  0  0  0  0  0
  191.4140  173.6720  140.3110 C   0  0  0  0  0  2  0  0  0  0  0  0
  190.4900  172.5750  140.7370 C   0  0  0  0  0  0  0  0  0  0  0  0
  190.1950  172.3870  142.0290 C   0  0  0  0  0  3  0  0  0  0  0  0
  193.0530  173.4420  142.1610 C   0  0  0  0  0  0  0  0  0  0  0  0
  190.8050  173.1040  143.1680 C   0  0  0  0  0  3  0  0  0  0  0  0
  192.0330  173.6510  143.2230 C   0  0  0  0  0  0  0  0  0  0  0  0
  189.8240  171.7560  139.7080 C   0  0  0  0  0  0  0  0  0  0  0  0
  190.3790  170.5030  139.3190 N   0  0  0  0  0  1  0  0  0  0  0  0
  188.7570  172.1500  139.1650 O   0  0  0  0  0  0  0  0  0  0  0  0
  191.0610  176.4530  147.3240 C   0  0  0  0  0  2  0  0  0  0  0  0
  189.1760  177.9800  144.4430 N   0  0  0  0  0  0  0  0  0  0  0  0
  188.6210  176.6130  146.7900 C   0  0  0  0  0  3  0  0  0  0  0  0
  185.5090  177.8880  144.2730 C   0  0  0  0  0  0  0  0  0  0  0  0
  186.8460  178.1510  143.9350 C   0  0  0  0  0  3  0  0  0  0  0  0
  187.8810  177.7250  144.7720 C   0  0  0  0  0  0  0  0  0  0  0  0
  186.2510  176.7650  146.3000 C   0  0  0  0  0  3  0  0  0  0  0  0
  187.5800  177.0290  145.9610 C   0  0  0  0  0  0  0  0  0  0  0  0
  185.2210  177.1940  145.4580 C   0  0  0  0  0  3  0  0  0  0  0  0
  189.9430  176.8950  146.4360 C   0  0  0  0  0  0  0  0  0  0  0  0
  190.2020  177.5810  145.2420 C   0  0  0  0  0  3  0  0  0  0  0  0
  184.4180  178.3370  143.3900 C   0  0  0  0  0  0  0  0  0  0  0  0
  184.4300  178.0090  142.0030 N   0  0  0  0  0  1  0  0  0  0  0  0
  183.4620  179.0150  143.8540 O   0  0  0  0  0  0  0  0  0  0  0  0
  1  5  1  6  0  0  0
  2 15  2  0  0  0  0
  3  9  1  0  0  0  0
  4  8  1  0  0  0  0
  4 21  1  6  0  0  0
  5  4  1  0  0  0  0
  6  7  1  6  0  0  0
  6  8  1  0  0  0  0
 10  9  1  6  0  0  0
 10  1  1  0  0  0  0
 10  6  1  0  0  0  0
 11  9  2  0  0  0  0
 12 13  1  0  0  0  0
 12  2  1  0  0  0  0
 13 14  2  0  0  0  0
 14 16  1  0  0  0  0
 15  3  1  0  0  0  0
 15 17  1  0  0  0  0
 16 17  2  0  0  0  0
 17  1  1  0  0  0  0
 18 13  1  0  0  0  0
 19 18  1  0  0  0  0
 20 18  2  0  0  0  0
 22 26  2  0  0  0  0
 22 31  1  0  0  0  0
 24 29  1  0  0  0  0
 25 24  2  0  0  0  0
 25 26  1  0  0  0  0
 26 28  1  0  0  0  0
 28 27  1  0  0  0  0
 28 23  2  0  0  0  0
 29 27  2  0  0  0  0
 30 23  1  0  0  0  0
 30 21  1  0  0  0  0
 31 30  2  0  0  0  0
 32 34  2  0  0  0  0
 32 24  1  0  0  0  0
 33 32  1  0  0  0  0
M  END
>  <MODEL>
4

>  <REMARK>
 VINA RESULT:      -8.2      1.645      2.302
  Name = 
  4 active torsions:
  status: ('A' for Active; 'I' for Inactive)
    1  A    between atoms: C_3  and  C_25
    2  A    between atoms: C_7  and  C_11
    3  A    between atoms: C_8  and  C_18
    4  A    between atoms: C_18  and  C_30
                            x       y       z     vdW  Elec       q    Type
                         _______ _______ _______ _____ _____    ______ ____

>  <TORSDO>
F 4

$$$$
=
 OpenBabel11052420273D

 34 38  0  0  1  0  0  0  0  0999 V2000
  190.2200  177.1740  144.9210 C   0  0  2  0  0  3  0  0  0  0  0  0
  186.5050  176.6770  144.5030 C   0  0  0  0  0  3  0  0  0  0  0  0
  187.8110  177.2860  146.7800 S   0  0  0  0  0  0  0  0  0  0  0  0
  192.7330  176.9790  144.7080 C   0  0  1  0  0  3  0  0  0  0  0  0
  191.3910  176.9540  143.9690 C   0  0  0  0  0  2  0  0  0  0  0  0
  191.4970  175.9680  146.7780 C   0  0  1  0  0  3  0  0  0  0  0  0
  191.9190  174.5370  147.0490 C   0  0  0  0  0  1  0  0  0  0  0  0
  192.6800  176.7910  146.2380 C   0  0  0  0  0  2  0  0  0  0  0  0
  188.9870  175.9320  146.7840 C   0  0  0  0  0  0  0  0  0  0  0  0
  190.2240  175.9980  145.9200 C   0  0  1  0  0  3  0  0  0  0  0  0
  188.7320  174.9150  147.4090 O   0  0  0  0  0  0  0  0  0  0  0  0
  186.3140  176.3780  143.0550 C   0  0  0  0  0  2  0  0  0  0  0  0
  186.4970  177.6060  142.2200 C   0  0  0  0  0  0  0  0  0  0  0  0
  187.6780  178.2340  142.1680 C   0  0  0  0  0  3  0  0  0  0  0  0
  187.6590  177.1180  145.0070 C   0  0  0  0  0  0  0  0  0  0  0  0
  188.8680  177.9050  142.9810 C   0  0  0  0  0  3  0  0  0  0  0  0
  188.8900  177.3370  144.2010 C   0  0  0  0  0  0  0  0  0  0  0  0
  185.3840  178.0710  141.3730 C   0  0  0  0  0  0  0  0  0  0  0  0
  184.0930  178.2810  141.9350 N   0  0  0  0  0  1  0  0  0  0  0  0
  185.5620  178.2900  140.1440 O   0  0  0  0  0  0  0  0  0  0  0  0
  193.8020  176.1340  144.0150 C   0  0  0  0  0  2  0  0  0  0  0  0
  192.9320  174.4960  140.7380 N   0  0  0  0  0  0  0  0  0  0  0  0
  192.5360  174.0520  143.4450 C   0  0  0  0  0  3  0  0  0  0  0  0
  190.9830  171.3880  140.5920 C   0  0  0  0  0  0  0  0  0  0  0  0
  191.7090  172.5170  140.1840 C   0  0  0  0  0  3  0  0  0  0  0  0
  192.2270  173.4020  141.1340 C   0  0  0  0  0  0  0  0  0  0  0  0
  191.2950  172.0360  142.9160 C   0  0  0  0  0  3  0  0  0  0  0  0
  192.0180  173.1590  142.5070 C   0  0  0  0  0  0  0  0  0  0  0  0
  190.7810  171.1540  141.9610 C   0  0  0  0  0  3  0  0  0  0  0  0
  193.2480  175.1730  143.0130 C   0  0  0  0  0  0  0  0  0  0  0  0
  193.4430  175.3760  141.6400 C   0  0  0  0  0  3  0  0  0  0  0  0
  190.4360  170.4540  139.5900 C   0  0  0  0  0  0  0  0  0  0  0  0
  189.7340  170.9470  138.4530 N   0  0  0  0  0  1  0  0  0  0  0  0
  190.5870  169.2110  139.7310 O   0  0  0  0  0  0  0  0  0  0  0  0
  1  5  1  6  0  0  0
  1 10  1  0  0  0  0
  2 15  2  0  0  0  0
  3  9  1  0  0  0  0
  4 21  1  6  0  0  0
  4  8  1  0  0  0  0
  5  4  1  0  0  0  0
  6  7  1  6  0  0  0
  8  6  1  0  0  0  0
  9 11  2  0  0  0  0
 10  6  1  0  0  0  0
 10  9  1  1  0  0  0
 12  2  1  0  0  0  0
 13 12  1  0  0  0  0
 14 13  2  0  0  0  0
 14 16  1  0  0  0  0
 15  3  1  0  0  0  0
 16 17  2  0  0  0  0
 17  1  1  0  0  0  0
 17 15  1  0  0  0  0
 18 19  1  0  0  0  0
 18 13  1  0  0  0  0
 20 18  2  0  0  0  0
 22 26  2  0  0  0  0
 22 31  1  0  0  0  0
 24 29  1  0  0  0  0
 25 24  2  0  0  0  0
 25 26  1  0  0  0  0
 26 28  1  0  0  0  0
 28 27  1  0  0  0  0
 28 23  2  0  0  0  0
 29 27  2  0  0  0  0
 30 23  1  0  0  0  0
 30 21  1  0  0  0  0
 31 30  2  0  0  0  0
 32 34  2  0  0  0  0
 32 24  1  0  0  0  0
 33 32  1  0  0  0  0
M  END
>  <MODEL>
5

>  <REMARK>
 VINA RESULT:      -8.1      2.428      7.114
  Name = 
  4 active torsions:
  status: ('A' for Active; 'I' for Inactive)
    1  A    between atoms: C_3  and  C_25
    2  A    between atoms: C_7  and  C_11
    3  A    between atoms: C_8  and  C_18
    4  A    between atoms: C_18  and  C_30
                            x       y       z     vdW  Elec       q    Type
                         _______ _______ _______ _____ _____    ______ ____

>  <TORSDO>
F 4

$$$$
=
 OpenBabel11052420273D

 34 38  0  0  1  0  0  0  0  0999 V2000
  194.5670  174.5990  142.4310 C   0  0  2  0  0  3  0  0  0  0  0  0
  197.6490  174.0140  140.3380 C   0  0  0  0  0  3  0  0  0  0  0  0
  196.6710  172.4040  142.2640 S   0  0  0  0  0  0  0  0  0  0  0  0
  192.7230  175.6780  143.7850 C   0  0  1  0  0  3  0  0  0  0  0  0
  193.6390  175.8020  142.5620 C   0  0  0  0  0  2  0  0  0  0  0  0
  194.6580  174.3840  144.9760 C   0  0  1  0  0  3  0  0  0  0  0  0
  195.2660  175.1870  146.1090 C   0  0  0  0  0  1  0  0  0  0  0  0
  193.1480  174.6590  144.8620 C   0  0  0  0  0  2  0  0  0  0  0  0
  196.6060  173.5970  143.6020 C   0  0  0  0  0  0  0  0  0  0  0  0
  195.4650  174.5840  143.6860 C   0  0  1  0  0  3  0  0  0  0  0  0
  197.5380  173.6740  144.3860 O   0  0  0  0  0  0  0  0  0  0  0  0
  197.7270  175.1900  139.4240 C   0  0  0  0  0  2  0  0  0  0  0  0
  196.6820  175.1140  138.3560 C   0  0  0  0  0  0  0  0  0  0  0  0
  195.3800  175.1510  138.6630 C   0  0  0  0  0  3  0  0  0  0  0  0
  196.5800  173.7500  141.0910 C   0  0  0  0  0  0  0  0  0  0  0  0
  194.8120  175.1380  140.0280 C   0  0  0  0  0  3  0  0  0  0  0  0
  195.3600  174.5990  141.1320 C   0  0  0  0  0  0  0  0  0  0  0  0
  197.1000  175.0940  136.9430 C   0  0  0  0  0  0  0  0  0  0  0  0
  197.2520  173.8560  136.2570 N   0  0  0  0  0  1  0  0  0  0  0  0
  197.3240  176.1710  136.3250 O   0  0  0  0  0  0  0  0  0  0  0  0
  192.3040  177.0370  144.3470 C   0  0  0  0  0  2  0  0  0  0  0  0
  189.0170  177.9440  142.7480 N   0  0  0  0  0  0  0  0  0  0  0  0
  189.9850  177.2730  145.2570 C   0  0  0  0  0  3  0  0  0  0  0  0
  185.9120  178.1400  144.6980 C   0  0  0  0  0  0  0  0  0  0  0  0
  186.8020  178.1880  143.6130 C   0  0  0  0  0  3  0  0  0  0  0  0
  188.1560  177.8980  143.8000 C   0  0  0  0  0  0  0  0  0  0  0  0
  187.7490  177.5070  146.1650 C   0  0  0  0  0  3  0  0  0  0  0  0
  188.6300  177.5570  145.0830 C   0  0  0  0  0  0  0  0  0  0  0  0
  186.3940  177.7980  145.9720 C   0  0  0  0  0  3  0  0  0  0  0  0
  190.8510  177.3370  144.1630 C   0  0  0  0  0  0  0  0  0  0  0  0
  190.3410  177.6710  142.9020 C   0  0  0  0  0  3  0  0  0  0  0  0
  184.4840  178.4460  144.5020 C   0  0  0  0  0  0  0  0  0  0  0  0
  183.9080  178.3950  143.2000 N   0  0  0  0  0  1  0  0  0  0  0  0
  183.7590  178.7550  145.4850 O   0  0  0  0  0  0  0  0  0  0  0  0
  1  5  1  1  0  0  0
  1 10  1  0  0  0  0
  2 15  2  0  0  0  0
  3  9  1  0  0  0  0
  4 21  1  1  0  0  0
  4  8  1  0  0  0  0
  5  4  1  0  0  0  0
  6  7  1  1  0  0  0
  8  6  1  0  0  0  0
  9 11  2  0  0  0  0
 10  9  1  6  0  0  0
 10  6  1  0  0  0  0
 12  2  1  0  0  0  0
 13 14  2  0  0  0  0
 13 12  1  0  0  0  0
 14 16  1  0  0  0  0
 15 17  1  0  0  0  0
 15  3  1  0  0  0  0
 16 17  2  0  0  0  0
 17  1  1  0  0  0  0
 18 13  1  0  0  0  0
 19 18  1  0  0  0  0
 20 18  2  0  0  0  0
 22 31  2  0  0  0  0
 22 26  1  0  0  0  0
 24 29  1  0  0  0  0
 25 26  1  0  0  0  0
 25 24  2  0  0  0  0
 26 28  2  0  0  0  0
 28 23  1  0  0  0  0
 28 27  1  0  0  0  0
 29 27  2  0  0  0  0
 30 21  1  0  0  0  0
 30 23  2  0  0  0  0
 31 30  1  0  0  0  0
 32 24  1  0  0  0  0
 32 34  2  0  0  0  0
 33 32  1  0  0  0  0
M  END
>  <MODEL>
6

>  <REMARK>
 VINA RESULT:      -8.0      3.998      4.930
  Name = 
  4 active torsions:
  status: ('A' for Active; 'I' for Inactive)
    1  A    between atoms: C_3  and  C_25
    2  A    between atoms: C_7  and  C_11
    3  A    between atoms: C_8  and  C_18
    4  A    between atoms: C_18  and  C_30
                            x       y       z     vdW  Elec       q    Type
                         _______ _______ _______ _____ _____    ______ ____

>  <TORSDO>
F 4

$$$$
=
 OpenBabel11052420273D

 34 38  0  0  1  0  0  0  0  0999 V2000
  190.3370  176.2080  144.0080 C   0  0  2  0  0  3  0  0  0  0  0  0
  193.7150  175.6530  145.5900 C   0  0  0  0  0  3  0  0  0  0  0  0
  191.4490  174.2830  146.0890 S   0  0  0  0  0  0  0  0  0  0  0  0
  188.2860  177.2700  142.9760 C   0  0  1  0  0  3  0  0  0  0  0  0
  189.8150  177.2960  143.0760 C   0  0  0  0  0  2  0  0  0  0  0  0
  188.2400  176.4340  145.4530 C   0  0  1  0  0  3  0  0  0  0  0  0
  187.6840  177.4820  146.3970 C   0  0  0  0  0  1  0  0  0  0  0  0
  187.5370  176.5040  144.0860 C   0  0  0  0  0  2  0  0  0  0  0  0
  190.3860  175.6670  146.5060 C   0  0  0  0  0  0  0  0  0  0  0  0
  189.7730  176.5100  145.4130 C   0  0  1  0  0  3  0  0  0  0  0  0
  190.2430  175.9840  147.6750 O   0  0  0  0  0  0  0  0  0  0  0  0
  194.6110  176.6600  144.9540 C   0  0  0  0  0  2  0  0  0  0  0  0
  194.9320  176.2830  143.5420 C   0  0  0  0  0  0  0  0  0  0  0  0
  193.9720  176.2150  142.6120 C   0  0  0  0  0  3  0  0  0  0  0  0
  192.4850  175.3930  145.1450 C   0  0  0  0  0  0  0  0  0  0  0  0
  192.5210  176.3630  142.8550 C   0  0  0  0  0  3  0  0  0  0  0  0
  191.8530  176.0850  143.9900 C   0  0  0  0  0  0  0  0  0  0  0  0
  196.3400  176.0770  143.1560 C   0  0  0  0  0  0  0  0  0  0  0  0
  196.8020  174.7800  142.7910 N   0  0  0  0  0  1  0  0  0  0  0  0
  197.1490  177.0440  143.1390 O   0  0  0  0  0  0  0  0  0  0  0  0
  187.6930  178.6440  142.6620 C   0  0  0  0  0  2  0  0  0  0  0  0
  184.0730  179.0290  143.6260 N   0  0  0  0  0  0  0  0  0  0  0  0
  185.5580  178.2800  141.4080 C   0  0  0  0  0  3  0  0  0  0  0  0
  181.3590  178.2930  141.2650 C   0  0  0  0  0  0  0  0  0  0  0  0
  182.0290  178.6670  142.4410 C   0  0  0  0  0  3  0  0  0  0  0  0
  183.4260  178.6650  142.4870 C   0  0  0  0  0  0  0  0  0  0  0  0
  183.5020  177.9100  140.1770 C   0  0  0  0  0  3  0  0  0  0  0  0
  184.1650  178.2830  141.3480 C   0  0  0  0  0  0  0  0  0  0  0  0
  182.1040  177.9160  140.1370 C   0  0  0  0  0  3  0  0  0  0  0  0
  186.2000  178.6490  142.5930 C   0  0  0  0  0  0  0  0  0  0  0  0
  185.4310  179.0300  143.7000 C   0  0  0  0  0  3  0  0  0  0  0  0
  179.8860  178.2960  141.2160 C   0  0  0  0  0  0  0  0  0  0  0  0
  179.1330  177.4770  142.1070 N   0  0  0  0  0  1  0  0  0  0  0  0
  179.2790  179.0240  140.3850 O   0  0  0  0  0  0  0  0  0  0  0  0
  1  5  1  6  0  0  0
  1 10  1  0  0  0  0
  3  9  1  0  0  0  0
  4 21  1  1  0  0  0
  4  5  1  0  0  0  0
  4  8  1  0  0  0  0
  6  7  1  1  0  0  0
  8  6  1  0  0  0  0
  9 11  2  0  0  0  0
 10  6  1  0  0  0  0
 10  9  1  1  0  0  0
 12  2  1  0  0  0  0
 13 12  1  0  0  0  0
 14 16  1  0  0  0  0
 14 13  2  0  0  0  0
 15  2  2  0  0  0  0
 15  3  1  0  0  0  0
 16 17  2  0  0  0  0
 17  1  1  0  0  0  0
 17 15  1  0  0  0  0
 18 13  1  0  0  0  0
 19 18  1  0  0  0  0
 20 18  2  0  0  0  0
 22 31  1  0  0  0  0
 23 30  1  0  0  0  0
 24 25  2  0  0  0  0
 25 26  1  0  0  0  0
 26 22  2  0  0  0  0
 27 28  1  0  0  0  0
 28 23  2  0  0  0  0
 28 26  1  0  0  0  0
 29 27  2  0  0  0  0
 29 24  1  0  0  0  0
 30 21  1  0  0  0  0
 30 31  2  0  0  0  0
 32 24  1  0  0  0  0
 32 33  1  0  0  0  0
 34 32  2  0  0  0  0
M  END
>  <MODEL>
7

>  <REMARK>
 VINA RESULT:      -8.0      3.539      4.995
  Name = 
  4 active torsions:
  status: ('A' for Active; 'I' for Inactive)
    1  A    between atoms: C_3  and  C_25
    2  A    between atoms: C_7  and  C_11
    3  A    between atoms: C_8  and  C_18
    4  A    between atoms: C_18  and  C_30
                            x       y       z     vdW  Elec       q    Type
                         _______ _______ _______ _____ _____    ______ ____

>  <TORSDO>
F 4

$$$$
=
 OpenBabel11052420273D

 34 38  0  0  1  0  0  0  0  0999 V2000
  192.3060  174.0430  144.6690 C   0  0  2  0  0  3  0  0  0  0  0  0
  194.4210  171.6130  142.7100 C   0  0  0  0  0  3  0  0  0  0  0  0
  194.3350  171.8900  145.3880 S   0  0  0  0  0  0  0  0  0  0  0  0
  191.0310  176.0970  145.4150 C   0  0  1  0  0  3  0  0  0  0  0  0
  191.4170  175.2030  144.2320 C   0  0  0  0  0  2  0  0  0  0  0  0
  193.3490  175.5190  146.4770 C   0  0  1  0  0  3  0  0  0  0  0  0
  194.2810  176.7150  146.4930 C   0  0  0  0  0  1  0  0  0  0  0  0
  191.8910  175.9620  146.6890 C   0  0  0  0  0  2  0  0  0  0  0  0
  194.6940  173.6440  145.4870 C   0  0  0  0  0  0  0  0  0  0  0  0
  193.6050  174.6590  145.2310 C   0  0  1  0  0  3  0  0  0  0  0  0
  195.8440  174.0140  145.6630 O   0  0  0  0  0  0  0  0  0  0  0  0
  194.0770  171.8640  141.2810 C   0  0  0  0  0  2  0  0  0  0  0  0
  192.7180  171.3340  140.9500 C   0  0  0  0  0  0  0  0  0  0  0  0
  191.6230  171.8320  141.5380 C   0  0  0  0  0  3  0  0  0  0  0  0
  193.7280  172.1320  143.7240 C   0  0  0  0  0  0  0  0  0  0  0  0
  191.6050  172.8270  142.6310 C   0  0  0  0  0  3  0  0  0  0  0  0
  192.5580  173.0350  143.5580 C   0  0  0  0  0  0  0  0  0  0  0  0
  192.5810  170.3150  139.8940 C   0  0  0  0  0  0  0  0  0  0  0  0
  191.3130  170.0690  139.2940 N   0  0  0  0  0  1  0  0  0  0  0  0
  193.5820  169.6540  139.5070 O   0  0  0  0  0  0  0  0  0  0  0  0
  190.7640  177.5430  144.9970 C   0  0  0  0  0  2  0  0  0  0  0  0
  188.4990  178.0630  142.0340 N   0  0  0  0  0  0  0  0  0  0  0  0
  188.2740  177.6410  144.7640 C   0  0  0  0  0  3  0  0  0  0  0  0
  184.8440  178.1220  142.3860 C   0  0  0  0  0  0  0  0  0  0  0  0
  186.1210  178.1750  141.8060 C   0  0  0  0  0  3  0  0  0  0  0  0
  187.2610  178.0130  142.5970 C   0  0  0  0  0  0  0  0  0  0  0  0
  185.8590  177.7430  144.5650 C   0  0  0  0  0  3  0  0  0  0  0  0
  187.1280  177.7970  143.9840 C   0  0  0  0  0  0  0  0  0  0  0  0
  184.7220  177.9050  143.7680 C   0  0  0  0  0  3  0  0  0  0  0  0
  189.5330  177.7070  144.1640 C   0  0  0  0  0  0  0  0  0  0  0  0
  189.6250  177.9140  142.7810 C   0  0  0  0  0  3  0  0  0  0  0  0
  183.6410  178.2920  141.5510 C   0  0  0  0  0  0  0  0  0  0  0  0
  183.7150  178.1290  140.1380 N   0  0  0  0  0  1  0  0  0  0  0  0
  182.5350  178.5830  142.0810 O   0  0  0  0  0  0  0  0  0  0  0  0
  1  5  1  6  0  0  0
  1 10  1  0  0  0  0
  2 15  2  0  0  0  0
  3  9  1  0  0  0  0
  4 21  1  6  0  0  0
  4  8  1  0  0  0  0
  5  4  1  0  0  0  0
  6  7  1  6  0  0  0
  6  8  1  0  0  0  0
  9 11  2  0  0  0  0
 10  9  1  1  0  0  0
 10  6  1  0  0  0  0
 12  2  1  0  0  0  0
 13 12  1  0  0  0  0
 13 14  2  0  0  0  0
 14 16  1  0  0  0  0
 15  3  1  0  0  0  0
 16 17  2  0  0  0  0
 17 15  1  0  0  0  0
 17  1  1  0  0  0  0
 18 13  1  0  0  0  0
 19 18  1  0  0  0  0
 20 18  2  0  0  0  0
 22 26  2  0  0  0  0
 22 31  1  0  0  0  0
 24 29  1  0  0  0  0
 25 24  2  0  0  0  0
 25 26  1  0  0  0  0
 26 28  1  0  0  0  0
 28 27  1  0  0  0  0
 28 23  2  0  0  0  0
 29 27  2  0  0  0  0
 30 23  1  0  0  0  0
 30 21  1  0  0  0  0
 31 30  2  0  0  0  0
 32 34  2  0  0  0  0
 32 24  1  0  0  0  0
 33 32  1  0  0  0  0
M  END
>  <MODEL>
8

>  <REMARK>
 VINA RESULT:      -8.0      1.745      2.226
  Name = 
  4 active torsions:
  status: ('A' for Active; 'I' for Inactive)
    1  A    between atoms: C_3  and  C_25
    2  A    between atoms: C_7  and  C_11
    3  A    between atoms: C_8  and  C_18
    4  A    between atoms: C_18  and  C_30
                            x       y       z     vdW  Elec       q    Type
                         _______ _______ _______ _____ _____    ______ ____

>  <TORSDO>
F 4

$$$$
=
 OpenBabel11052420273D

 34 38  0  0  1  0  0  0  0  0999 V2000
  193.1010  175.1210  143.3640 C   0  0  2  0  0  3  0  0  0  0  0  0
  196.6570  174.4870  142.2830 C   0  0  0  0  0  3  0  0  0  0  0  0
  195.2930  173.1830  144.2060 S   0  0  0  0  0  0  0  0  0  0  0  0
  190.9040  176.2300  143.9490 C   0  0  1  0  0  3  0  0  0  0  0  0
  192.1040  176.2150  142.9970 C   0  0  0  0  0  2  0  0  0  0  0  0
  192.5200  175.4150  145.8360 C   0  0  1  0  0  3  0  0  0  0  0  0
  192.7570  176.4850  146.8830 C   0  0  0  0  0  1  0  0  0  0  0  0
  191.0820  175.4920  145.2930 C   0  0  0  0  0  2  0  0  0  0  0  0
  194.8060  174.5980  145.1950 C   0  0  0  0  0  0  0  0  0  0  0  0
  193.6300  175.4480  144.7760 C   0  0  1  0  0  3  0  0  0  0  0  0
  195.4890  174.9290  146.1500 O   0  0  0  0  0  0  0  0  0  0  0  0
  196.9090  175.4640  141.1860 C   0  0  0  0  0  2  0  0  0  0  0  0
  196.1940  175.0680  139.9340 C   0  0  0  0  0  0  0  0  0  0  0  0
  194.8570  175.0180  139.8900 C   0  0  0  0  0  3  0  0  0  0  0  0
  195.4430  174.2570  142.7850 C   0  0  0  0  0  0  0  0  0  0  0  0
  193.9480  175.2070  141.0400 C   0  0  0  0  0  3  0  0  0  0  0  0
  194.2100  174.9570  142.3360 C   0  0  0  0  0  0  0  0  0  0  0  0
  196.9750  174.8210  138.7080 C   0  0  0  0  0  0  0  0  0  0  0  0
  196.9400  173.5430  138.0800 N   0  0  0  0  0  1  0  0  0  0  0  0
  197.6770  175.7360  138.1990 O   0  0  0  0  0  0  0  0  0  0  0  0
  190.2730  177.6160  144.0810 C   0  0  0  0  0  2  0  0  0  0  0  0
  187.6220  177.8030  141.4140 N   0  0  0  0  0  0  0  0  0  0  0  0
  187.7870  177.8770  144.1800 C   0  0  0  0  0  3  0  0  0  0  0  0
  184.0710  178.2210  142.2500 C   0  0  0  0  0  0  0  0  0  0  0  0
  185.2470  178.0680  141.4990 C   0  0  0  0  0  3  0  0  0  0  0  0
  186.4820  177.9520  142.1420 C   0  0  0  0  0  0  0  0  0  0  0  0
  185.3790  178.1410  144.3000 C   0  0  0  0  0  3  0  0  0  0  0  0
  186.5470  177.9890  143.5500 C   0  0  0  0  0  0  0  0  0  0  0  0
  184.1460  178.2560  143.6510 C   0  0  0  0  0  3  0  0  0  0  0  0
  188.9430  177.7340  143.4090 C   0  0  0  0  0  0  0  0  0  0  0  0
  188.8370  177.6920  142.0130 C   0  0  0  0  0  3  0  0  0  0  0  0
  182.7670  178.3430  141.5720 C   0  0  0  0  0  0  0  0  0  0  0  0
  182.5790  177.8020  140.2680 N   0  0  0  0  0  1  0  0  0  0  0  0
  181.8070  178.9280  142.1410 O   0  0  0  0  0  0  0  0  0  0  0  0
  1  5  1  6  0  0  0
  1 10  1  0  0  0  0
  2 15  2  0  0  0  0
  3  9  1  0  0  0  0
  4 21  1  1  0  0  0
  4  8  1  0  0  0  0
  5  4  1  0  0  0  0
  6  7  1  1  0  0  0
  8  6  1  0  0  0  0
  9 11  2  0  0  0  0
 10  9  1  1  0  0  0
 10  6  1  0  0  0  0
 12  2  1  0  0  0  0
 13 12  1  0  0  0  0
 14 13  2  0  0  0  0
 14 16  1  0  0  0  0
 15  3  1  0  0  0  0
 16 17  2  0  0  0  0
 17 15  1  0  0  0  0
 17  1  1  0  0  0  0
 18 13  1  0  0  0  0
 19 18  1  0  0  0  0
 20 18  2  0  0  0  0
 22 31  2  0  0  0  0
 22 26  1  0  0  0  0
 24 29  1  0  0  0  0
 25 26  1  0  0  0  0
 25 24  2  0  0  0  0
 26 28  2  0  0  0  0
 28 23  1  0  0  0  0
 28 27  1  0  0  0  0
 29 27  2  0  0  0  0
 30 21  1  0  0  0  0
 30 23  2  0  0  0  0
 31 30  1  0  0  0  0
 32 34  2  0  0  0  0
 32 24  1  0  0  0  0
 33 32  1  0  0  0  0
M  END
>  <MODEL>
9

>  <REMARK>
 VINA RESULT:      -7.9      3.207      4.043
  Name = 
  4 active torsions:
  status: ('A' for Active; 'I' for Inactive)
    1  A    between atoms: C_3  and  C_25
    2  A    between atoms: C_7  and  C_11
    3  A    between atoms: C_8  and  C_18
    4  A    between atoms: C_18  and  C_30
                            x       y       z     vdW  Elec       q    Type
                         _______ _______ _______ _____ _____    ______ ____

>  <TORSDO>
F 4

$$$$
