=
 OpenBabel11052417533D

 31 35  0  0  0  0  0  0  0  0999 V2000
  188.6990  177.2530  144.4520 C   0  0  0  0  0  0  0  0  0  0  0  0
  187.4730  177.9640  144.5320 C   0  0  0  0  0  0  0  0  0  0  0  0
  185.5780  178.8070  145.8090 C   0  0  0  0  0  0  0  0  0  0  0  0
  186.7880  178.1110  145.7500 C   0  0  0  0  0  3  0  0  0  0  0  0
  187.5430  178.3780  142.1360 C   0  0  0  0  0  3  0  0  0  0  0  0
  184.9330  178.9430  146.9930 F   0  0  0  0  0  0  0  0  0  0  0  0
  189.3440  177.1290  143.1880 C   0  0  0  0  0  0  0  0  0  0  0  0
  185.0330  179.3630  144.6510 C   0  0  0  0  0  3  0  0  0  0  0  0
  188.7480  177.6860  142.0530 C   0  0  0  0  0  3  0  0  0  0  0  0
  186.9060  178.5260  143.3630 C   0  0  0  0  0  0  0  0  0  0  0  0
  185.6950  179.2210  143.4290 C   0  0  0  0  0  3  0  0  0  0  0  0
  189.2470  176.5980  145.6600 C   0  0  0  0  0  0  0  0  0  0  0  0
  190.7710  176.5280  147.5650 C   0  0  0  0  0  0  0  0  0  0  0  0
  189.3290  174.5450  147.1300 C   0  0  0  0  0  2  0  0  0  0  0  0
  190.2640  177.1480  146.3290 C   0  0  0  0  0  3  0  0  0  0  0  0
  188.6490  175.3920  146.1500 N   0  0  0  0  0  2  0  0  0  0  0  0
  190.3000  175.3360  147.9640 C   0  0  0  0  0  3  0  0  0  0  0  0
  191.7250  177.2240  148.3150 O   0  0  0  0  0  0  0  0  0  0  0  0
  191.3990  177.9830  149.4730 C   0  0  0  0  0  1  0  0  0  0  0  0
  190.6450  176.4640  142.9540 C   0  0  0  0  0  3  0  0  0  0  0  0
  191.8340  177.0100  143.1880 C   0  0  0  0  0  3  0  0  0  0  0  0
  196.1050  174.4940  145.0860 C   0  0  0  0  0  0  0  0  0  0  0  0
  193.9790  175.7020  145.2550 C   0  0  0  0  0  3  0  0  0  0  0  0
  194.7140  175.4160  141.8400 O   0  0  0  0  0  0  0  0  0  0  0  0
  193.5870  176.0650  141.7020 N   0  0  0  0  0  0  0  0  0  0  0  0
  197.2470  173.8170  145.7530 C   0  0  0  0  0  1  0  0  0  0  0  0
  193.0950  176.2970  142.9420 C   0  0  0  0  0  0  0  0  0  0  0  0
  195.0700  175.0550  145.8670 C   0  0  0  0  0  3  0  0  0  0  0  0
  194.9720  175.2180  143.1080 C   0  0  0  0  0  0  0  0  0  0  0  0
  193.9720  175.7590  143.8640 C   0  0  0  0  0  0  0  0  0  0  0  0
  196.0650  174.5730  143.6800 C   0  0  0  0  0  3  0  0  0  0  0  0
  1  2  1  0  0  0  0
  1 12  1  0  0  0  0
  2  4  1  0  0  0  0
  3  6  1  0  0  0  0
  4  3  2  0  0  0  0
  5 10  1  0  0  0  0
  7  1  2  0  0  0  0
  8  3  1  0  0  0  0
  9  5  2  0  0  0  0
  9  7  1  0  0  0  0
 10 11  1  0  0  0  0
 10  2  2  0  0  0  0
 11  8  2  0  0  0  0
 12 16  1  0  0  0  0
 12 15  2  0  0  0  0
 13 17  2  0  0  0  0
 13 18  1  0  0  0  0
 14 17  1  0  0  0  0
 15 13  1  0  0  0  0
 16 14  1  0  0  0  0
 18 19  1  0  0  0  0
 20  7  1  0  0  0  0
 20 21  2  0  0  0  0
 22 26  1  0  0  0  0
 22 28  1  0  0  0  0
 23 28  2  0  0  0  0
 24 29  1  0  0  0  0
 25 24  1  0  0  0  0
 25 27  2  0  0  0  0
 27 21  1  0  0  0  0
 27 30  1  0  0  0  0
 29 31  1  0  0  0  0
 29 30  2  0  0  0  0
 30 23  1  0  0  0  0
 31 22  2  0  0  0  0
M  END
>  <MODEL>
1

>  <REMARK>
 VINA RESULT:      -8.8      0.000      0.000
  Name = 
  4 active torsions:
  status: ('A' for Active; 'I' for Inactive)
    1  A    between atoms: O_2  and  C_13
    2  A    between atoms: C_4  and  C_12
    3  A    between atoms: C_9  and  C_23
    4  A    between atoms: C_15  and  C_21
                            x       y       z     vdW  Elec       q    Type
                         _______ _______ _______ _____ _____    ______ ____

>  <TORSDO>
F 4

$$$$
=
 OpenBabel11052417533D

 31 35  0  0  0  0  0  0  0  0999 V2000
  188.1790  177.4260  144.6790 C   0  0  0  0  0  0  0  0  0  0  0  0
  186.9240  178.0060  145.0010 C   0  0  0  0  0  0  0  0  0  0  0  0
  185.1700  178.5350  146.6070 C   0  0  0  0  0  0  0  0  0  0  0  0
  186.4110  177.9670  146.3090 C   0  0  0  0  0  3  0  0  0  0  0  0
  186.6150  178.6560  142.6770 C   0  0  0  0  0  3  0  0  0  0  0  0
  184.6930  178.4930  147.8740 F   0  0  0  0  0  0  0  0  0  0  0  0
  188.6430  177.4880  143.3340 C   0  0  0  0  0  0  0  0  0  0  0  0
  184.4210  179.1470  145.6000 C   0  0  0  0  0  3  0  0  0  0  0  0
  187.8470  178.0940  142.3580 C   0  0  0  0  0  3  0  0  0  0  0  0
  186.1510  178.6220  143.9880 C   0  0  0  0  0  0  0  0  0  0  0  0
  184.9100  179.1890  144.2930 C   0  0  0  0  0  3  0  0  0  0  0  0
  188.9460  176.7120  145.7240 C   0  0  0  0  0  0  0  0  0  0  0  0
  190.6960  176.6190  147.4220 C   0  0  0  0  0  0  0  0  0  0  0  0
  189.4460  174.5300  146.8950 C   0  0  0  0  0  2  0  0  0  0  0  0
  189.9700  177.3080  146.3410 C   0  0  0  0  0  3  0  0  0  0  0  0
  188.5560  175.3910  146.1160 N   0  0  0  0  0  2  0  0  0  0  0  0
  190.4190  175.3380  147.7110 C   0  0  0  0  0  3  0  0  0  0  0  0
  191.6530  177.3410  148.1440 O   0  0  0  0  0  0  0  0  0  0  0  0
  191.3960  177.8990  149.4270 C   0  0  0  0  0  1  0  0  0  0  0  0
  189.9460  176.9760  142.8550 C   0  0  0  0  0  3  0  0  0  0  0  0
  190.3130  175.6990  142.8580 C   0  0  0  0  0  3  0  0  0  0  0  0
  195.5950  175.5830  143.3630 C   0  0  0  0  0  0  0  0  0  0  0  0
  193.3140  176.2110  144.0040 C   0  0  0  0  0  3  0  0  0  0  0  0
  193.0540  174.2730  141.0950 O   0  0  0  0  0  0  0  0  0  0  0  0
  191.7730  174.4890  141.2530 N   0  0  0  0  0  0  0  0  0  0  0  0
  197.0570  175.6350  143.6260 C   0  0  0  0  0  1  0  0  0  0  0  0
  191.6210  175.2490  142.3630 C   0  0  0  0  0  0  0  0  0  0  0  0
  194.7020  176.2470  144.2340 C   0  0  0  0  0  3  0  0  0  0  0  0
  193.7340  174.8560  142.0490 C   0  0  0  0  0  0  0  0  0  0  0  0
  192.8720  175.4980  142.8920 C   0  0  0  0  0  0  0  0  0  0  0  0
  195.1110  174.8720  142.2480 C   0  0  0  0  0  3  0  0  0  0  0  0
  1  2  1  0  0  0  0
  1 12  1  0  0  0  0
  2  4  1  0  0  0  0
  3  6  1  0  0  0  0
  4  3  2  0  0  0  0
  5 10  1  0  0  0  0
  7  1  2  0  0  0  0
  8  3  1  0  0  0  0
  9  5  2  0  0  0  0
  9  7  1  0  0  0  0
 10 11  1  0  0  0  0
 10  2  2  0  0  0  0
 11  8  2  0  0  0  0
 12 16  1  0  0  0  0
 12 15  2  0  0  0  0
 13 17  2  0  0  0  0
 13 18  1  0  0  0  0
 14 17  1  0  0  0  0
 15 13  1  0  0  0  0
 16 14  1  0  0  0  0
 18 19  1  0  0  0  0
 20 21  2  0  0  0  0
 20  7  1  0  0  0  0
 22 26  1  0  0  0  0
 22 28  1  0  0  0  0
 23 28  2  0  0  0  0
 24 25  1  0  0  0  0
 24 29  1  0  0  0  0
 25 27  2  0  0  0  0
 27 21  1  0  0  0  0
 27 30  1  0  0  0  0
 29 31  1  0  0  0  0
 29 30  2  0  0  0  0
 30 23  1  0  0  0  0
 31 22  2  0  0  0  0
M  END
>  <MODEL>
2

>  <REMARK>
 VINA RESULT:      -8.6      1.184      1.347
  Name = 
  4 active torsions:
  status: ('A' for Active; 'I' for Inactive)
    1  A    between atoms: O_2  and  C_13
    2  A    between atoms: C_4  and  C_12
    3  A    between atoms: C_9  and  C_23
    4  A    between atoms: C_15  and  C_21
                            x       y       z     vdW  Elec       q    Type
                         _______ _______ _______ _____ _____    ______ ____

>  <TORSDO>
F 4

$$$$
=
 OpenBabel11052417533D

 31 35  0  0  0  0  0  0  0  0999 V2000
  187.6720  176.7130  144.5660 C   0  0  0  0  0  0  0  0  0  0  0  0
  186.8680  177.4840  145.4460 C   0  0  0  0  0  0  0  0  0  0  0  0
  186.5110  178.5920  147.5860 C   0  0  0  0  0  0  0  0  0  0  0  0
  187.3180  177.8400  146.7300 C   0  0  0  0  0  3  0  0  0  0  0  0
  185.0860  177.5360  143.7920 C   0  0  0  0  0  3  0  0  0  0  0  0
  186.9620  178.9310  148.8180 F   0  0  0  0  0  0  0  0  0  0  0  0
  187.1590  176.3740  143.2810 C   0  0  0  0  0  0  0  0  0  0  0  0
  185.2390  178.9950  147.1740 C   0  0  0  0  0  3  0  0  0  0  0  0
  185.8720  176.7850  142.9230 C   0  0  0  0  0  3  0  0  0  0  0  0
  185.5740  177.8920  145.0450 C   0  0  0  0  0  0  0  0  0  0  0  0
  184.7710  178.6440  145.9070 C   0  0  0  0  0  3  0  0  0  0  0  0
  188.9910  176.2190  145.0200 C   0  0  0  0  0  0  0  0  0  0  0  0
  191.4190  176.4050  145.1780 C   0  0  0  0  0  0  0  0  0  0  0  0
  190.3260  174.3640  146.0970 C   0  0  0  0  0  2  0  0  0  0  0  0
  190.1110  176.8610  144.6770 C   0  0  0  0  0  3  0  0  0  0  0  0
  189.0660  175.0750  145.8790 N   0  0  0  0  0  2  0  0  0  0  0  0
  191.5120  175.2640  145.8810 C   0  0  0  0  0  3  0  0  0  0  0  0
  192.5420  177.1990  144.9250 O   0  0  0  0  0  0  0  0  0  0  0  0
  193.8680  176.6840  144.9030 C   0  0  0  0  0  1  0  0  0  0  0  0
  187.8930  175.6230  142.2390 C   0  0  0  0  0  3  0  0  0  0  0  0
  187.7880  174.3160  142.0220 C   0  0  0  0  0  3  0  0  0  0  0  0
  191.0780  170.4180  140.5580 C   0  0  0  0  0  0  0  0  0  0  0  0
  189.7420  171.7190  142.1490 C   0  0  0  0  0  3  0  0  0  0  0  0
  189.2930  173.1940  139.0010 O   0  0  0  0  0  0  0  0  0  0  0  0
  188.5220  174.0140  139.6680 N   0  0  0  0  0  0  0  0  0  0  0  0
  192.0030  169.2850  140.2910 C   0  0  0  0  0  1  0  0  0  0  0  0
  188.5390  173.6250  140.9650 C   0  0  0  0  0  0  0  0  0  0  0  0
  190.6180  170.6510  141.8730 C   0  0  0  0  0  3  0  0  0  0  0  0
  189.8040  172.2960  139.8050 C   0  0  0  0  0  0  0  0  0  0  0  0
  189.3590  172.5200  141.0760 C   0  0  0  0  0  0  0  0  0  0  0  0
  190.6700  171.2500  139.4980 C   0  0  0  0  0  3  0  0  0  0  0  0
  1 12  1  0  0  0  0
  1  2  1  0  0  0  0
  2  4  1  0  0  0  0
  3  6  1  0  0  0  0
  4  3  2  0  0  0  0
  5 10  1  0  0  0  0
  7  1  2  0  0  0  0
  8  3  1  0  0  0  0
  9  7  1  0  0  0  0
  9  5  2  0  0  0  0
 10  2  2  0  0  0  0
 10 11  1  0  0  0  0
 11  8  2  0  0  0  0
 12 16  1  0  0  0  0
 13 17  2  0  0  0  0
 15 12  2  0  0  0  0
 15 13  1  0  0  0  0
 16 14  1  0  0  0  0
 17 14  1  0  0  0  0
 18 13  1  0  0  0  0
 19 18  1  0  0  0  0
 20  7  1  0  0  0  0
 21 20  2  0  0  0  0
 22 28  1  0  0  0  0
 24 25  1  0  0  0  0
 24 29  1  0  0  0  0
 25 27  2  0  0  0  0
 26 22  1  0  0  0  0
 27 30  1  0  0  0  0
 27 21  1  0  0  0  0
 28 23  2  0  0  0  0
 29 30  2  0  0  0  0
 30 23  1  0  0  0  0
 31 29  1  0  0  0  0
 31 22  2  0  0  0  0
M  END
>  <MODEL>
3

>  <REMARK>
 VINA RESULT:      -8.1      3.625      4.551
  Name = 
  4 active torsions:
  status: ('A' for Active; 'I' for Inactive)
    1  A    between atoms: O_2  and  C_13
    2  A    between atoms: C_4  and  C_12
    3  A    between atoms: C_9  and  C_23
    4  A    between atoms: C_15  and  C_21
                            x       y       z     vdW  Elec       q    Type
                         _______ _______ _______ _____ _____    ______ ____

>  <TORSDO>
F 4

$$$$
=
 OpenBabel11052417533D

 31 35  0  0  0  0  0  0  0  0999 V2000
  191.4800  174.8820  144.9030 C   0  0  0  0  0  0  0  0  0  0  0  0
  192.8750  174.6720  145.0620 C   0  0  0  0  0  0  0  0  0  0  0  0
  194.9380  173.5190  144.4700 C   0  0  0  0  0  0  0  0  0  0  0  0
  193.5660  173.7190  144.2950 C   0  0  0  0  0  3  0  0  0  0  0  0
  192.9400  176.3510  146.8220 C   0  0  0  0  0  3  0  0  0  0  0  0
  195.5890  172.5990  143.7180 F   0  0  0  0  0  0  0  0  0  0  0  0
  190.8320  175.8550  145.7170 C   0  0  0  0  0  0  0  0  0  0  0  0
  195.6380  174.2670  145.4180 C   0  0  0  0  0  3  0  0  0  0  0  0
  191.5730  176.5640  146.6660 C   0  0  0  0  0  3  0  0  0  0  0  0
  193.5950  175.4170  146.0260 C   0  0  0  0  0  0  0  0  0  0  0  0
  194.9680  175.2130  146.1960 C   0  0  0  0  0  3  0  0  0  0  0  0
  190.7160  174.0440  143.9530 C   0  0  0  0  0  0  0  0  0  0  0  0
  189.7670  173.6150  141.7460 C   0  0  0  0  0  0  0  0  0  0  0  0
  189.2660  172.0090  143.5830 C   0  0  0  0  0  2  0  0  0  0  0  0
  190.4750  174.4730  142.7110 C   0  0  0  0  0  3  0  0  0  0  0  0
  190.2760  172.7390  144.3480 N   0  0  0  0  0  2  0  0  0  0  0  0
  189.2440  172.4440  142.1420 C   0  0  0  0  0  3  0  0  0  0  0  0
  189.6800  174.0410  140.4170 O   0  0  0  0  0  0  0  0  0  0  0  0
  188.5930  173.7020  139.5640 C   0  0  0  0  0  1  0  0  0  0  0  0
  189.4010  176.2210  145.6330 C   0  0  0  0  0  3  0  0  0  0  0  0
  188.9360  177.3980  145.2240 C   0  0  0  0  0  3  0  0  0  0  0  0
  184.5360  178.0480  142.3280 C   0  0  0  0  0  0  0  0  0  0  0  0
  186.9140  177.5660  142.6820 C   0  0  0  0  0  3  0  0  0  0  0  0
  185.5270  178.2070  145.8370 O   0  0  0  0  0  0  0  0  0  0  0  0
  186.7490  177.9830  146.2460 N   0  0  0  0  0  0  0  0  0  0  0  0
  183.3880  178.2010  141.3970 C   0  0  0  0  0  1  0  0  0  0  0  0
  187.5000  177.7020  145.1560 C   0  0  0  0  0  0  0  0  0  0  0  0
  185.8120  177.7150  141.8180 C   0  0  0  0  0  3  0  0  0  0  0  0
  185.4540  178.0830  144.5360 C   0  0  0  0  0  0  0  0  0  0  0  0
  186.6870  177.7600  144.0420 C   0  0  0  0  0  0  0  0  0  0  0  0
  184.3450  178.2380  143.7100 C   0  0  0  0  0  3  0  0  0  0  0  0
  1  2  2  0  0  0  0
  1  7  1  0  0  0  0
  2 10  1  0  0  0  0
  3  8  1  0  0  0  0
  4  3  2  0  0  0  0
  4  2  1  0  0  0  0
  6  3  1  0  0  0  0
  7  9  2  0  0  0  0
  8 11  2  0  0  0  0
  9  5  1  0  0  0  0
 10 11  1  0  0  0  0
 10  5  2  0  0  0  0
 12 16  1  0  0  0  0
 12  1  1  0  0  0  0
 13 17  2  0  0  0  0
 13 15  1  0  0  0  0
 14 16  1  0  0  0  0
 15 12  2  0  0  0  0
 17 14  1  0  0  0  0
 18 13  1  0  0  0  0
 19 18  1  0  0  0  0
 20  7  1  0  0  0  0
 21 20  2  0  0  0  0
 22 31  1  0  0  0  0
 23 30  2  0  0  0  0
 24 25  1  0  0  0  0
 26 22  1  0  0  0  0
 27 21  1  0  0  0  0
 27 25  2  0  0  0  0
 28 22  2  0  0  0  0
 28 23  1  0  0  0  0
 29 24  1  0  0  0  0
 30 29  1  0  0  0  0
 30 27  1  0  0  0  0
 31 29  2  0  0  0  0
M  END
>  <MODEL>
4

>  <REMARK>
 VINA RESULT:      -8.1      3.571      8.542
  Name = 
  4 active torsions:
  status: ('A' for Active; 'I' for Inactive)
    1  A    between atoms: O_2  and  C_13
    2  A    between atoms: C_4  and  C_12
    3  A    between atoms: C_9  and  C_23
    4  A    between atoms: C_15  and  C_21
                            x       y       z     vdW  Elec       q    Type
                         _______ _______ _______ _____ _____    ______ ____

>  <TORSDO>
F 4

$$$$
=
 OpenBabel11052417533D

 31 35  0  0  0  0  0  0  0  0999 V2000
  188.2360  177.1070  145.0550 C   0  0  0  0  0  0  0  0  0  0  0  0
  187.1540  177.6390  145.8040 C   0  0  0  0  0  0  0  0  0  0  0  0
  184.8250  178.3300  145.9870 C   0  0  0  0  0  0  0  0  0  0  0  0
  185.8770  177.7970  145.2390 C   0  0  0  0  0  3  0  0  0  0  0  0
  188.6130  177.9270  147.7300 C   0  0  0  0  0  3  0  0  0  0  0  0
  183.5990  178.4710  145.4280 F   0  0  0  0  0  0  0  0  0  0  0  0
  189.5110  176.9800  145.6790 C   0  0  0  0  0  0  0  0  0  0  0  0
  185.0360  178.7180  147.3120 C   0  0  0  0  0  3  0  0  0  0  0  0
  189.6750  177.4010  147.0010 C   0  0  0  0  0  3  0  0  0  0  0  0
  187.3560  178.0440  147.1450 C   0  0  0  0  0  0  0  0  0  0  0  0
  186.2990  178.5770  147.8890 C   0  0  0  0  0  3  0  0  0  0  0  0
  188.0410  176.7610  143.6300 C   0  0  0  0  0  0  0  0  0  0  0  0
  187.8730  175.1400  141.8140 C   0  0  0  0  0  0  0  0  0  0  0  0
  187.8130  177.5640  141.2450 C   0  0  0  0  0  2  0  0  0  0  0  0
  188.1260  175.4920  143.2210 C   0  0  0  0  0  3  0  0  0  0  0  0
  187.7060  177.7860  142.6870 N   0  0  0  0  0  2  0  0  0  0  0  0
  187.6800  176.1050  140.9010 C   0  0  0  0  0  3  0  0  0  0  0  0
  187.8150  173.7860  141.4670 O   0  0  0  0  0  0  0  0  0  0  0  0
  188.5900  172.7850  142.1170 C   0  0  0  0  0  1  0  0  0  0  0  0
  190.7160  176.3990  145.0480 C   0  0  0  0  0  3  0  0  0  0  0  0
  191.7130  177.1000  144.5160 C   0  0  0  0  0  3  0  0  0  0  0  0
  196.3030  174.4960  145.0820 C   0  0  0  0  0  0  0  0  0  0  0  0
  194.2630  175.6020  145.8720 C   0  0  0  0  0  3  0  0  0  0  0  0
  194.2300  175.7900  142.3710 O   0  0  0  0  0  0  0  0  0  0  0  0
  193.0980  176.4150  142.5710 N   0  0  0  0  0  0  0  0  0  0  0  0
  197.5650  173.7740  145.3870 C   0  0  0  0  0  1  0  0  0  0  0  0
  192.8900  176.4660  143.9080 C   0  0  0  0  0  0  0  0  0  0  0  0
  195.4630  174.9160  146.1380 C   0  0  0  0  0  3  0  0  0  0  0  0
  194.7610  175.4360  143.5140 C   0  0  0  0  0  0  0  0  0  0  0  0
  193.9490  175.8410  144.5350 C   0  0  0  0  0  0  0  0  0  0  0  0
  195.9540  174.7560  143.7420 C   0  0  0  0  0  3  0  0  0  0  0  0
  1  7  2  0  0  0  0
  1  2  1  0  0  0  0
  2 10  1  0  0  0  0
  3  8  2  0  0  0  0
  4  2  2  0  0  0  0
  4  3  1  0  0  0  0
  6  3  1  0  0  0  0
  7  9  1  0  0  0  0
  8 11  1  0  0  0  0
  9  5  2  0  0  0  0
 10  5  1  0  0  0  0
 10 11  2  0  0  0  0
 12  1  1  0  0  0  0
 13 15  1  0  0  0  0
 14 16  1  0  0  0  0
 15 12  2  0  0  0  0
 16 12  1  0  0  0  0
 17 14  1  0  0  0  0
 17 13  2  0  0  0  0
 18 13  1  0  0  0  0
 18 19  1  0  0  0  0
 20  7  1  0  0  0  0
 21 20  2  0  0  0  0
 22 26  1  0  0  0  0
 22 28  1  0  0  0  0
 23 28  2  0  0  0  0
 24 25  1  0  0  0  0
 24 29  1  0  0  0  0
 25 27  2  0  0  0  0
 27 21  1  0  0  0  0
 27 30  1  0  0  0  0
 29 31  1  0  0  0  0
 29 30  2  0  0  0  0
 30 23  1  0  0  0  0
 31 22  2  0  0  0  0
M  END
>  <MODEL>
5

>  <REMARK>
 VINA RESULT:      -8.0      2.118      3.926
  Name = 
  4 active torsions:
  status: ('A' for Active; 'I' for Inactive)
    1  A    between atoms: O_2  and  C_13
    2  A    between atoms: C_4  and  C_12
    3  A    between atoms: C_9  and  C_23
    4  A    between atoms: C_15  and  C_21
                            x       y       z     vdW  Elec       q    Type
                         _______ _______ _______ _____ _____    ______ ____

>  <TORSDO>
F 4

$$$$
=
 OpenBabel11052417533D

 31 35  0  0  0  0  0  0  0  0999 V2000
  187.8740  176.5020  144.5360 C   0  0  0  0  0  0  0  0  0  0  0  0
  187.0310  177.3030  145.3510 C   0  0  0  0  0  0  0  0  0  0  0  0
  186.5920  178.5150  147.4170 C   0  0  0  0  0  0  0  0  0  0  0  0
  187.4380  177.7350  146.6250 C   0  0  0  0  0  3  0  0  0  0  0  0
  185.2970  177.2320  143.6470 C   0  0  0  0  0  3  0  0  0  0  0  0
  187.0020  178.9280  148.6410 F   0  0  0  0  0  0  0  0  0  0  0  0
  187.4050  176.0850  143.2570 C   0  0  0  0  0  0  0  0  0  0  0  0
  185.3260  178.8720  146.9490 C   0  0  0  0  0  3  0  0  0  0  0  0
  186.1220  176.4510  142.8420 C   0  0  0  0  0  3  0  0  0  0  0  0
  185.7420  177.6640  144.8920 C   0  0  0  0  0  0  0  0  0  0  0  0
  184.9010  178.4450  145.6890 C   0  0  0  0  0  3  0  0  0  0  0  0
  189.1880  176.0590  145.0530 C   0  0  0  0  0  0  0  0  0  0  0  0
  191.6000  176.3270  145.3100 C   0  0  0  0  0  0  0  0  0  0  0  0
  190.5360  174.2640  146.2120 C   0  0  0  0  0  2  0  0  0  0  0  0
  190.3000  176.7330  144.7480 C   0  0  0  0  0  3  0  0  0  0  0  0
  189.2640  174.9300  145.9310 N   0  0  0  0  0  2  0  0  0  0  0  0
  191.7000  175.2000  146.0330 C   0  0  0  0  0  3  0  0  0  0  0  0
  192.7060  177.1560  145.0920 O   0  0  0  0  0  0  0  0  0  0  0  0
  194.0460  176.6770  145.0980 C   0  0  0  0  0  1  0  0  0  0  0  0
  188.1820  175.2950  142.2780 C   0  0  0  0  0  3  0  0  0  0  0  0
  187.9740  174.0130  141.9930 C   0  0  0  0  0  3  0  0  0  0  0  0
  189.4070  173.2430  136.9410 C   0  0  0  0  0  0  0  0  0  0  0  0
  188.1730  174.3260  138.7610 C   0  0  0  0  0  3  0  0  0  0  0  0
  190.1710  171.8450  140.2250 O   0  0  0  0  0  0  0  0  0  0  0  0
  189.6240  172.2770  141.3310 N   0  0  0  0  0  0  0  0  0  0  0  0
  189.7130  173.1370  135.4910 C   0  0  0  0  0  1  0  0  0  0  0  0
  188.7760  173.2810  141.0040 C   0  0  0  0  0  0  0  0  0  0  0  0
  188.4780  174.2080  137.3920 C   0  0  0  0  0  3  0  0  0  0  0  0
  189.7190  172.5230  139.2000 C   0  0  0  0  0  0  0  0  0  0  0  0
  188.8220  173.4560  139.6350 C   0  0  0  0  0  0  0  0  0  0  0  0
  190.0430  172.3800  137.8540 C   0  0  0  0  0  3  0  0  0  0  0  0
  1 12  1  0  0  0  0
  1  2  1  0  0  0  0
  2  4  1  0  0  0  0
  3  6  1  0  0  0  0
  4  3  2  0  0  0  0
  5 10  1  0  0  0  0
  7  1  2  0  0  0  0
  8  3  1  0  0  0  0
  9  7  1  0  0  0  0
  9  5  2  0  0  0  0
 10  2  2  0  0  0  0
 10 11  1  0  0  0  0
 11  8  2  0  0  0  0
 12 16  1  0  0  0  0
 13 17  2  0  0  0  0
 15 12  2  0  0  0  0
 15 13  1  0  0  0  0
 16 14  1  0  0  0  0
 17 14  1  0  0  0  0
 18 19  1  0  0  0  0
 18 13  1  0  0  0  0
 20  7  1  0  0  0  0
 21 20  2  0  0  0  0
 22 28  2  0  0  0  0
 22 31  1  0  0  0  0
 23 30  2  0  0  0  0
 24 25  1  0  0  0  0
 26 22  1  0  0  0  0
 27 25  2  0  0  0  0
 27 21  1  0  0  0  0
 28 23  1  0  0  0  0
 29 30  1  0  0  0  0
 29 24  1  0  0  0  0
 30 27  1  0  0  0  0
 31 29  2  0  0  0  0
M  END
>  <MODEL>
6

>  <REMARK>
 VINA RESULT:      -7.9      3.699      5.344
  Name = 
  4 active torsions:
  status: ('A' for Active; 'I' for Inactive)
    1  A    between atoms: O_2  and  C_13
    2  A    between atoms: C_4  and  C_12
    3  A    between atoms: C_9  and  C_23
    4  A    between atoms: C_15  and  C_21
                            x       y       z     vdW  Elec       q    Type
                         _______ _______ _______ _____ _____    ______ ____

>  <TORSDO>
F 4

$$$$
=
 OpenBabel11052417533D

 31 35  0  0  0  0  0  0  0  0999 V2000
  187.5060  176.9530  144.1090 C   0  0  0  0  0  0  0  0  0  0  0  0
  186.6740  177.5600  145.0860 C   0  0  0  0  0  0  0  0  0  0  0  0
  186.2990  178.3950  147.3430 C   0  0  0  0  0  0  0  0  0  0  0  0
  187.1340  177.8050  146.3910 C   0  0  0  0  0  3  0  0  0  0  0  0
  184.8460  177.6620  143.4840 C   0  0  0  0  0  3  0  0  0  0  0  0
  186.7600  178.6290  148.5950 F   0  0  0  0  0  0  0  0  0  0  0  0
  186.9820  176.7200  142.8040 C   0  0  0  0  0  0  0  0  0  0  0  0
  184.9910  178.7470  147.0050 C   0  0  0  0  0  3  0  0  0  0  0  0
  185.6590  177.0720  142.5210 C   0  0  0  0  0  3  0  0  0  0  0  0
  185.3430  177.9130  144.7580 C   0  0  0  0  0  0  0  0  0  0  0  0
  184.5130  178.5040  145.7150 C   0  0  0  0  0  3  0  0  0  0  0  0
  188.8680  176.5110  144.4780 C   0  0  0  0  0  0  0  0  0  0  0  0
  190.4720  174.7840  145.1090 C   0  0  0  0  0  0  0  0  0  0  0  0
  191.2350  177.1540  145.0850 C   0  0  0  0  0  2  0  0  0  0  0  0
  189.1060  175.2370  144.8000 C   0  0  0  0  0  3  0  0  0  0  0  0
  189.9550  177.4440  144.4390 N   0  0  0  0  0  2  0  0  0  0  0  0
  191.4750  175.6730  145.1960 C   0  0  0  0  0  3  0  0  0  0  0  0
  190.6960  173.4130  145.2820 O   0  0  0  0  0  0  0  0  0  0  0  0
  189.8260  172.4150  144.7610 C   0  0  0  0  0  1  0  0  0  0  0  0
  187.7380  176.1460  141.6700 C   0  0  0  0  0  3  0  0  0  0  0  0
  187.9020  174.8460  141.4410 C   0  0  0  0  0  3  0  0  0  0  0  0
  192.2640  172.5140  139.5180 C   0  0  0  0  0  0  0  0  0  0  0  0
  190.8250  173.4270  141.2790 C   0  0  0  0  0  3  0  0  0  0  0  0
  189.1160  173.8560  138.2480 O   0  0  0  0  0  0  0  0  0  0  0  0
  188.2040  174.3900  139.0180 N   0  0  0  0  0  0  0  0  0  0  0  0
  193.5360  171.8560  139.1190 C   0  0  0  0  0  1  0  0  0  0  0  0
  188.6600  174.3340  140.2920 C   0  0  0  0  0  0  0  0  0  0  0  0
  192.0220  172.8040  140.8790 C   0  0  0  0  0  3  0  0  0  0  0  0
  190.1380  173.4580  138.9640 C   0  0  0  0  0  0  0  0  0  0  0  0
  189.9050  173.7380  140.2800 C   0  0  0  0  0  0  0  0  0  0  0  0
  191.3110  172.8430  138.5350 C   0  0  0  0  0  3  0  0  0  0  0  0
  1 12  1  0  0  0  0
  1  2  1  0  0  0  0
  2  4  1  0  0  0  0
  3  6  1  0  0  0  0
  4  3  2  0  0  0  0
  5 10  1  0  0  0  0
  7  1  2  0  0  0  0
  8  3  1  0  0  0  0
  9  7  1  0  0  0  0
  9  5  2  0  0  0  0
 10  2  2  0  0  0  0
 10 11  1  0  0  0  0
 11  8  2  0  0  0  0
 12 15  2  0  0  0  0
 13 17  2  0  0  0  0
 13 18  1  0  0  0  0
 14 17  1  0  0  0  0
 15 13  1  0  0  0  0
 16 12  1  0  0  0  0
 16 14  1  0  0  0  0
 19 18  1  0  0  0  0
 20  7  1  0  0  0  0
 21 20  2  0  0  0  0
 22 28  1  0  0  0  0
 24 29  1  0  0  0  0
 24 25  1  0  0  0  0
 25 27  2  0  0  0  0
 26 22  1  0  0  0  0
 27 21  1  0  0  0  0
 28 23  2  0  0  0  0
 29 30  2  0  0  0  0
 30 27  1  0  0  0  0
 30 23  1  0  0  0  0
 31 29  1  0  0  0  0
 31 22  2  0  0  0  0
M  END
>  <MODEL>
7

>  <REMARK>
 VINA RESULT:      -7.9      3.403      4.569
  Name = 
  4 active torsions:
  status: ('A' for Active; 'I' for Inactive)
    1  A    between atoms: O_2  and  C_13
    2  A    between atoms: C_4  and  C_12
    3  A    between atoms: C_9  and  C_23
    4  A    between atoms: C_15  and  C_21
                            x       y       z     vdW  Elec       q    Type
                         _______ _______ _______ _____ _____    ______ ____

>  <TORSDO>
F 4

$$$$
=
 OpenBabel11052417533D

 31 35  0  0  0  0  0  0  0  0999 V2000
  193.0890  174.1630  144.6030 C   0  0  0  0  0  0  0  0  0  0  0  0
  194.3380  173.6180  144.9990 C   0  0  0  0  0  0  0  0  0  0  0  0
  195.9180  171.7670  145.1040 C   0  0  0  0  0  0  0  0  0  0  0  0
  194.6870  172.2900  144.6990 C   0  0  0  0  0  3  0  0  0  0  0  0
  194.9320  175.7210  146.0680 C   0  0  0  0  0  3  0  0  0  0  0  0
  196.2400  170.4860  144.8020 F   0  0  0  0  0  0  0  0  0  0  0  0
  192.7860  175.5130  144.9440 C   0  0  0  0  0  0  0  0  0  0  0  0
  196.8160  172.5620  145.8170 C   0  0  0  0  0  3  0  0  0  0  0  0
  193.7100  176.2620  145.6770 C   0  0  0  0  0  3  0  0  0  0  0  0
  195.2540  174.4110  145.7300 C   0  0  0  0  0  0  0  0  0  0  0  0
  196.4840  173.8810  146.1320 C   0  0  0  0  0  3  0  0  0  0  0  0
  192.1010  173.3070  143.9100 C   0  0  0  0  0  0  0  0  0  0  0  0
  191.2130  172.2390  141.9040 C   0  0  0  0  0  0  0  0  0  0  0  0
  189.9330  172.0150  144.0290 C   0  0  0  0  0  2  0  0  0  0  0  0
  192.1580  173.1390  142.5860 C   0  0  0  0  0  3  0  0  0  0  0  0
  191.1070  172.6090  144.6690 N   0  0  0  0  0  2  0  0  0  0  0  0
  190.2030  171.6780  142.5870 C   0  0  0  0  0  3  0  0  0  0  0  0
  191.4130  171.9710  140.5450 O   0  0  0  0  0  0  0  0  0  0  0  0
  190.4710  171.2640  139.7480 C   0  0  0  0  0  1  0  0  0  0  0  0
  191.5530  176.2350  144.5600 C   0  0  0  0  0  3  0  0  0  0  0  0
  190.4140  176.2210  145.2470 C   0  0  0  0  0  3  0  0  0  0  0  0
  185.4530  177.8430  146.2060 C   0  0  0  0  0  0  0  0  0  0  0  0
  187.5460  176.6730  146.7140 C   0  0  0  0  0  3  0  0  0  0  0  0
  187.9570  178.1720  143.5720 O   0  0  0  0  0  0  0  0  0  0  0  0
  189.1440  177.6270  143.6400 N   0  0  0  0  0  0  0  0  0  0  0  0
  184.0720  178.2230  146.6030 C   0  0  0  0  0  1  0  0  0  0  0  0
  189.2220  176.9650  144.8190 C   0  0  0  0  0  0  0  0  0  0  0  0
  186.2360  177.0450  147.0700 C   0  0  0  0  0  3  0  0  0  0  0  0
  187.2680  177.8950  144.6490 C   0  0  0  0  0  0  0  0  0  0  0  0
  188.0240  177.1240  145.4850 C   0  0  0  0  0  0  0  0  0  0  0  0
  185.9690  178.2800  144.9710 C   0  0  0  0  0  3  0  0  0  0  0  0
  1  7  2  0  0  0  0
  1  2  1  0  0  0  0
  2 10  1  0  0  0  0
  3  8  2  0  0  0  0
  4  2  2  0  0  0  0
  4  3  1  0  0  0  0
  6  3  1  0  0  0  0
  7  9  1  0  0  0  0
  8 11  1  0  0  0  0
  9  5  2  0  0  0  0
 10  5  1  0  0  0  0
 10 11  2  0  0  0  0
 12  1  1  0  0  0  0
 12 16  1  0  0  0  0
 13 15  1  0  0  0  0
 13 17  2  0  0  0  0
 14 16  1  0  0  0  0
 15 12  2  0  0  0  0
 17 14  1  0  0  0  0
 18 13  1  0  0  0  0
 19 18  1  0  0  0  0
 20  7  1  0  0  0  0
 20 21  2  0  0  0  0
 22 26  1  0  0  0  0
 22 28  1  0  0  0  0
 23 28  2  0  0  0  0
 24 25  1  0  0  0  0
 24 29  1  0  0  0  0
 25 27  2  0  0  0  0
 27 21  1  0  0  0  0
 27 30  1  0  0  0  0
 29 31  1  0  0  0  0
 29 30  2  0  0  0  0
 30 23  1  0  0  0  0
 31 22  2  0  0  0  0
M  END
>  <MODEL>
8

>  <REMARK>
 VINA RESULT:      -7.9      3.831      8.639
  Name = 
  4 active torsions:
  status: ('A' for Active; 'I' for Inactive)
    1  A    between atoms: O_2  and  C_13
    2  A    between atoms: C_4  and  C_12
    3  A    between atoms: C_9  and  C_23
    4  A    between atoms: C_15  and  C_21
                            x       y       z     vdW  Elec       q    Type
                         _______ _______ _______ _____ _____    ______ ____

>  <TORSDO>
F 4

$$$$
=
 OpenBabel11052417533D

 31 35  0  0  0  0  0  0  0  0999 V2000
  187.4000  176.8410  144.6020 C   0  0  0  0  0  0  0  0  0  0  0  0
  186.2840  177.5580  145.1060 C   0  0  0  0  0  0  0  0  0  0  0  0
  184.1410  178.6690  144.7780 C   0  0  0  0  0  0  0  0  0  0  0  0
  185.2290  177.9570  144.2670 C   0  0  0  0  0  3  0  0  0  0  0  0
  187.2660  177.5490  147.3310 C   0  0  0  0  0  3  0  0  0  0  0  0
  183.1300  179.0410  143.9560 F   0  0  0  0  0  0  0  0  0  0  0  0
  188.4450  176.4720  145.4980 C   0  0  0  0  0  0  0  0  0  0  0  0
  184.0930  178.9970  146.1340 C   0  0  0  0  0  3  0  0  0  0  0  0
  188.3610  176.8410  146.8430 C   0  0  0  0  0  3  0  0  0  0  0  0
  186.2270  177.9040  146.4770 C   0  0  0  0  0  0  0  0  0  0  0  0
  185.1360  178.6160  146.9820 C   0  0  0  0  0  3  0  0  0  0  0  0
  187.4940  176.5530  143.1540 C   0  0  0  0  0  0  0  0  0  0  0  0
  187.9260  175.0440  141.2850 C   0  0  0  0  0  0  0  0  0  0  0  0
  187.4720  177.4420  140.7900 C   0  0  0  0  0  2  0  0  0  0  0  0
  187.8900  175.3510  142.7250 C   0  0  0  0  0  3  0  0  0  0  0  0
  187.1070  177.5510  142.2020 N   0  0  0  0  0  2  0  0  0  0  0  0
  187.6850  176.0090  140.3830 C   0  0  0  0  0  3  0  0  0  0  0  0
  188.1910  173.7280  140.8930 O   0  0  0  0  0  0  0  0  0  0  0  0
  188.5080  173.3670  139.5530 C   0  0  0  0  0  1  0  0  0  0  0  0
  189.6430  175.6840  145.1350 C   0  0  0  0  0  3  0  0  0  0  0  0
  190.0170  174.5500  145.7200 C   0  0  0  0  0  3  0  0  0  0  0  0
  195.3060  174.1490  145.5440 C   0  0  0  0  0  0  0  0  0  0  0  0
  193.1760  175.2110  146.1290 C   0  0  0  0  0  3  0  0  0  0  0  0
  192.3990  172.2440  144.4310 O   0  0  0  0  0  0  0  0  0  0  0  0
  191.1670  172.6310  144.6400 N   0  0  0  0  0  0  0  0  0  0  0  0
  196.7920  174.1670  145.5670 C   0  0  0  0  0  1  0  0  0  0  0  0
  191.2160  173.8060  145.3110 C   0  0  0  0  0  0  0  0  0  0  0  0
  194.5840  175.2080  146.1400 C   0  0  0  0  0  3  0  0  0  0  0  0
  193.2390  173.1130  144.9350 C   0  0  0  0  0  0  0  0  0  0  0  0
  192.5420  174.1360  145.5110 C   0  0  0  0  0  0  0  0  0  0  0  0
  194.6310  173.0780  144.9280 C   0  0  0  0  0  3  0  0  0  0  0  0
  1  2  2  0  0  0  0
  1  7  1  0  0  0  0
  2 10  1  0  0  0  0
  3  8  1  0  0  0  0
  4  3  2  0  0  0  0
  4  2  1  0  0  0  0
  6  3  1  0  0  0  0
  7  9  2  0  0  0  0
  8 11  2  0  0  0  0
  9  5  1  0  0  0  0
 10 11  1  0  0  0  0
 10  5  2  0  0  0  0
 12  1  1  0  0  0  0
 13 15  1  0  0  0  0
 14 16  1  0  0  0  0
 15 12  2  0  0  0  0
 16 12  1  0  0  0  0
 17 14  1  0  0  0  0
 17 13  2  0  0  0  0
 18 13  1  0  0  0  0
 19 18  1  0  0  0  0
 20  7  1  0  0  0  0
 20 21  2  0  0  0  0
 22 26  1  0  0  0  0
 22 28  1  0  0  0  0
 23 28  2  0  0  0  0
 24 25  1  0  0  0  0
 24 29  1  0  0  0  0
 25 27  2  0  0  0  0
 27 30  1  0  0  0  0
 27 21  1  0  0  0  0
 29 30  2  0  0  0  0
 30 23  1  0  0  0  0
 31 29  1  0  0  0  0
 31 22  2  0  0  0  0
M  END
>  <MODEL>
9

>  <REMARK>
 VINA RESULT:      -7.8      2.697      4.582
  Name = 
  4 active torsions:
  status: ('A' for Active; 'I' for Inactive)
    1  A    between atoms: O_2  and  C_13
    2  A    between atoms: C_4  and  C_12
    3  A    between atoms: C_9  and  C_23
    4  A    between atoms: C_15  and  C_21
                            x       y       z     vdW  Elec       q    Type
                         _______ _______ _______ _____ _____    ______ ____

>  <TORSDO>
F 4

$$$$
