=
 OpenBabel11052419333D

 55 61  0  0  1  0  0  0  0  0999 V2000
  194.3730  174.9780  146.2650 N   0  0  0  0  0  0  0  0  0  0  0  0
  194.7820  175.9710  145.2820 C   0  0  0  0  0  2  0  0  0  0  0  0
  196.0830  175.5410  144.6120 C   0  0  0  0  0  2  0  0  0  0  0  0
  194.8760  176.2940  142.6810 O   0  0  0  0  0  1  0  0  0  0  0  0
  196.1440  175.9030  143.1240 C   0  0  0  0  0  0  0  0  0  0  0  0
  197.0070  176.9940  142.9820 O   0  0  0  0  0  1  0  0  0  0  0  0
  197.1410  172.8360  139.6460 O   0  0  0  0  0  1  0  0  0  0  0  0
  196.6350  174.6960  142.2730 C   0  0  1  0  0  0  0  0  0  0  0  0
  196.8410  176.2390  140.4640 O   0  0  0  0  0  1  0  0  0  0  0  0
  197.0350  174.9030  140.8340 C   0  0  1  0  0  0  0  0  0  0  0  0
  196.3790  173.9980  139.8330 C   0  0  2  0  0  0  0  0  0  0  0  0
  197.6330  173.7350  142.9300 C   0  0  0  0  0  1  0  0  0  0  0  0
  195.6660  174.1810  141.1850 C   0  0  2  0  0  0  0  0  0  0  0  0
  195.2550  172.7730  141.6240 C   0  0  0  0  0  0  0  0  0  0  0  0
  194.0370  172.4820  141.7760 O   0  0  0  0  0  1  0  0  0  0  0  0
  196.1870  171.7370  141.6650 O   0  0  0  0  0  0  0  0  0  0  0  0
  195.6850  174.5550  138.5750 C   0  0  1  0  0  3  0  0  0  0  0  0
  196.5930  174.8110  137.5410 O   0  0  0  0  0  1  0  0  0  0  0  0
  194.5900  173.6130  138.0940 C   0  0  0  0  0  2  0  0  0  0  0  0
  193.4660  174.3440  137.7120 O   0  0  0  0  0  1  0  0  0  0  0  0
  192.9150  174.9620  146.2990 C   0  0  0  0  0  2  0  0  0  0  0  0
  192.4040  176.3520  146.6340 C   0  0  0  0  0  2  0  0  0  0  0  0
  191.2950  176.2690  147.6610 C   0  0  0  0  0  2  0  0  0  0  0  0
  189.4600  174.7520  147.5450 O   0  0  0  0  0  0  0  0  0  0  0  0
  189.6790  176.2220  145.7350 N   0  0  0  0  0  2  0  0  0  0  0  0
  190.0800  175.7110  147.0080 C   0  0  0  0  0  0  0  0  0  0  0  0
  190.9310  173.6550  142.6900 C   0  0  0  0  0  3  0  0  0  0  0  0
  187.2200  177.6720  145.5680 C   0  0  0  0  0  3  0  0  0  0  0  0
  188.2260  174.2700  140.0670 C   0  0  0  0  0  2  0  0  0  0  0  0
  186.2250  178.6150  145.2970 C   0  0  0  0  0  3  0  0  0  0  0  0
  186.8340  176.6330  143.4120 C   0  0  0  0  0  0  0  0  0  0  0  0
  185.8300  177.5730  143.1510 C   0  0  0  0  0  3  0  0  0  0  0  0
  185.5310  178.5670  144.0870 C   0  0  0  0  0  3  0  0  0  0  0  0
  187.5460  176.6810  144.6270 C   0  0  0  0  0  0  0  0  0  0  0  0
  190.3900  174.2960  143.8000 C   0  0  0  0  0  3  0  0  0  0  0  0
  189.9370  172.7100  139.1620 C   0  0  1  0  0  3  0  0  0  0  0  0
  188.4530  174.9600  142.4920 C   0  0  0  0  0  0  0  0  0  0  0  0
  190.2520  173.6600  141.4730 C   0  0  0  0  0  0  0  0  0  0  0  0
  187.0620  175.5370  142.4220 C   0  0  0  0  0  2  0  0  0  0  0  0
  190.9210  173.0150  140.2900 C   0  0  0  0  0  2  0  0  0  0  0  0
  188.5950  175.6350  144.9500 C   0  0  1  0  0  3  0  0  0  0  0  0
  189.1030  173.9490  138.8590 C   0  0  0  0  0  2  0  0  0  0  0  0
  189.1620  174.9710  143.7130 C   0  0  0  0  0  0  0  0  0  0  0  0
  189.0080  174.3280  141.3590 C   0  0  0  0  0  0  0  0  0  0  0  0
  190.6610  172.2500  137.9400 C   0  0  0  0  0  0  0  0  0  0  0  0
  191.3880  171.2210  137.9690 O   0  0  0  0  0  1  0  0  0  0  0  0
  190.5400  172.9730  136.7600 O   0  0  0  0  0  0  0  0  0  0  0  0
  194.8050  173.6890  145.7480 C   0  0  0  0  0  2  0  0  0  0  0  0
  193.6050  172.9130  145.2300 C   0  0  0  0  0  2  0  0  0  0  0  0
  194.2980  168.6810  145.2060 C   0  0  0  0  0  3  0  0  0  0  0  0
  193.9300  171.4640  145.1130 C   0  0  0  0  0  0  0  0  0  0  0  0
  193.1050  170.6530  144.5160 N   0  0  0  0  0  0  0  0  0  0  0  0
  195.0390  169.5230  146.2050 C   0  0  0  0  0  2  0  0  0  0  0  0
  193.3540  169.2400  144.4420 C   0  0  0  0  0  3  0  0  0  0  0  0
  195.2250  170.9470  145.6790 C   0  0  0  0  0  2  0  0  0  0  0  0
  1 21  1  0  0  0  0
  2  1  1  0  0  0  0
  3  2  1  0  0  0  0
  4  5  1  0  0  0  0
  5  3  1  0  0  0  0
  6  5  1  0  0  0  0
  8 12  1  1  0  0  0
  8  5  1  0  0  0  0
 10  9  1  6  0  0  0
 10 13  1  0  0  0  0
 10  8  1  0  0  0  0
 11  7  1  6  0  0  0
 11 10  1  0  0  0  0
 11 13  1  0  0  0  0
 13 14  1  1  0  0  0
 13  8  1  0  0  0  0
 14 16  2  0  0  0  0
 14 15  1  0  0  0  0
 17 18  1  6  0  0  0
 17 11  1  0  0  0  0
 19 17  1  0  0  0  0
 20 19  1  0  0  0  0
 21 22  1  0  0  0  0
 22 23  1  0  0  0  0
 25 26  1  0  0  0  0
 26 24  2  0  0  0  0
 26 23  1  0  0  0  0
 27 35  1  0  0  0  0
 29 44  1  0  0  0  0
 30 28  1  0  0  0  0
 31 34  1  0  0  0  0
 32 31  2  0  0  0  0
 32 33  1  0  0  0  0
 33 30  2  0  0  0  0
 34 41  1  0  0  0  0
 34 28  2  0  0  0  0
 36 45  1  6  0  0  0
 36 40  1  0  0  0  0
 37 43  1  0  0  0  0
 38 27  2  0  0  0  0
 39 37  1  0  0  0  0
 39 31  1  0  0  0  0
 40 38  1  0  0  0  0
 41 25  1  6  0  0  0
 42 36  1  0  0  0  0
 42 29  1  0  0  0  0
 43 35  2  0  0  0  0
 43 41  1  0  0  0  0
 44 38  1  0  0  0  0
 44 37  2  0  0  0  0
 45 46  1  0  0  0  0
 47 45  2  0  0  0  0
 48  1  1  0  0  0  0
 49 48  1  0  0  0  0
 50 53  1  0  0  0  0
 51 49  1  0  0  0  0
 51 55  1  0  0  0  0
 52 51  2  0  0  0  0
 54 52  1  0  0  0  0
 54 50  2  0  0  0  0
 55 53  1  0  0  0  0
M  END
>  <MODEL>
1

>  <REMARK>
 VINA RESULT:      -6.9      0.000      0.000
  Name = 
  16 active torsions:
  status: ('A' for Active; 'I' for Inactive)
    1  A    between atoms: C_1  and  C_53
    2  A    between atoms: C_4  and  C_35
    3  A    between atoms: C_4  and  C_37
    4  A    between atoms: C_6  and  C_20
    5  A    between atoms: C_8  and  C_22
    6  A    between atoms: C_8  and  N_43
    7  A    between atoms: C_10  and  C_32
    8  A    between atoms: C_11  and  C_29
    9  A    between atoms: N_19  and  C_45
   10  A    between atoms: C_20  and  C_22
   11  A    between atoms: C_27  and  C_54
   12  A    between atoms: C_29  and  C_38
   13  A    between atoms: C_35  and  N_43
   14  A    between atoms: C_37  and  C_40
   15  A    between atoms: N_43  and  C_51
   16  A    between atoms: C_51  and  C_54
                            x       y       z     vdW  Elec       q    Type
                         _______ _______ _______ _____ _____    ______ ____

>  <TORSDO>
F 16

$$$$
=
 OpenBabel11052419333D

 55 61  0  0  1  0  0  0  0  0999 V2000
  193.6030  175.2870  145.0130 N   0  0  0  0  0  0  0  0  0  0  0  0
  195.0010  175.5240  145.3370 C   0  0  0  0  0  2  0  0  0  0  0  0
  195.6460  174.2420  145.8540 C   0  0  0  0  0  2  0  0  0  0  0  0
  196.5740  174.2930  143.6430 O   0  0  0  0  0  1  0  0  0  0  0  0
  196.6620  173.6410  144.8780 C   0  0  0  0  0  0  0  0  0  0  0  0
  197.9410  173.8660  145.3960 O   0  0  0  0  0  1  0  0  0  0  0  0
  195.7990  169.3220  143.1150 O   0  0  0  0  0  1  0  0  0  0  0  0
  196.4090  172.1190  144.6730 C   0  0  1  0  0  0  0  0  0  0  0  0
  197.4070  172.3880  142.5220 O   0  0  0  0  0  1  0  0  0  0  0  0
  196.8450  171.4490  143.3940 C   0  0  1  0  0  0  0  0  0  0  0  0
  195.7940  170.6550  142.6770 C   0  0  2  0  0  0  0  0  0  0  0  0
  196.7280  171.1900  145.8510 C   0  0  0  0  0  1  0  0  0  0  0  0
  195.3070  171.7340  143.6610 C   0  0  2  0  0  0  0  0  0  0  0  0
  194.1990  171.0680  144.4820 C   0  0  0  0  0  0  0  0  0  0  0  0
  194.3700  169.9170  144.9690 O   0  0  0  0  0  1  0  0  0  0  0  0
  193.0730  171.7880  144.8780 O   0  0  0  0  0  0  0  0  0  0  0  0
  195.5040  170.8670  141.1780 C   0  0  1  0  0  3  0  0  0  0  0  0
  196.4850  170.2890  140.3650 O   0  0  0  0  0  1  0  0  0  0  0  0
  194.1290  170.3300  140.8070 C   0  0  0  0  0  2  0  0  0  0  0  0
  194.2100  169.5810  139.6350 O   0  0  0  0  0  1  0  0  0  0  0  0
  192.8900  175.0550  146.2630 C   0  0  0  0  0  2  0  0  0  0  0  0
  192.1160  176.3050  146.6420 C   0  0  0  0  0  2  0  0  0  0  0  0
  191.0440  175.9700  147.6570 C   0  0  0  0  0  2  0  0  0  0  0  0
  189.1760  174.5150  147.3840 O   0  0  0  0  0  0  0  0  0  0  0  0
  189.4800  176.1070  145.6930 N   0  0  0  0  0  2  0  0  0  0  0  0
  189.8340  175.4940  146.9350 C   0  0  0  0  0  0  0  0  0  0  0  0
  190.6830  173.3230  142.8240 C   0  0  0  0  0  3  0  0  0  0  0  0
  187.2060  177.7950  145.2950 C   0  0  0  0  0  3  0  0  0  0  0  0
  188.2650  174.1230  139.9800 C   0  0  0  0  0  2  0  0  0  0  0  0
  186.3390  178.8250  144.9220 C   0  0  0  0  0  3  0  0  0  0  0  0
  186.8790  176.7290  143.1430 C   0  0  0  0  0  0  0  0  0  0  0  0
  186.0020  177.7570  142.7790 C   0  0  0  0  0  3  0  0  0  0  0  0
  185.7390  178.8080  143.6620 C   0  0  0  0  0  3  0  0  0  0  0  0
  187.4980  176.7440  144.4090 C   0  0  0  0  0  0  0  0  0  0  0  0
  190.1290  174.0530  143.8710 C   0  0  0  0  0  3  0  0  0  0  0  0
  189.8670  172.3660  139.2540 C   0  0  1  0  0  3  0  0  0  0  0  0
  188.3780  174.8680  142.3970 C   0  0  0  0  0  0  0  0  0  0  0  0
  190.1030  173.3560  141.5570 C   0  0  0  0  0  0  0  0  0  0  0  0
  187.0650  175.5820  142.2020 C   0  0  0  0  0  2  0  0  0  0  0  0
  190.7890  172.6060  140.4480 C   0  0  0  0  0  2  0  0  0  0  0  0
  188.4030  175.6080  144.8400 C   0  0  1  0  0  3  0  0  0  0  0  0
  189.1930  173.6730  138.8550 C   0  0  0  0  0  2  0  0  0  0  0  0
  188.9900  174.8470  143.6700 C   0  0  0  0  0  0  0  0  0  0  0  0
  188.9490  174.1440  141.3280 C   0  0  0  0  0  0  0  0  0  0  0  0
  190.6290  171.7930  138.1050 C   0  0  0  0  0  0  0  0  0  0  0  0
  191.5160  170.9170  138.2920 O   0  0  0  0  0  1  0  0  0  0  0  0
  190.3650  172.2400  136.8180 O   0  0  0  0  0  0  0  0  0  0  0  0
  193.0960  176.5300  144.4520 C   0  0  0  0  0  2  0  0  0  0  0  0
  192.6130  176.2950  143.0300 C   0  0  0  0  0  2  0  0  0  0  0  0
  195.7120  175.3730  140.2130 C   0  0  0  0  0  3  0  0  0  0  0  0
  193.7500  175.9000  142.1520 C   0  0  0  0  0  0  0  0  0  0  0  0
  194.7390  176.7220  141.9500 N   0  0  0  0  0  0  0  0  0  0  0  0
  194.4220  174.6060  140.1360 C   0  0  0  0  0  2  0  0  0  0  0  0
  195.8190  176.4010  141.0590 C   0  0  0  0  0  3  0  0  0  0  0  0
  193.7530  174.5390  141.5090 C   0  0  0  0  0  2  0  0  0  0  0  0
  1  2  1  0  0  0  0
  1 21  1  0  0  0  0
  2  3  1  0  0  0  0
  4  5  1  0  0  0  0
  5  6  1  0  0  0  0
  5  3  1  0  0  0  0
  8  5  1  0  0  0  0
  8 12  1  1  0  0  0
 10  9  1  6  0  0  0
 10 13  1  0  0  0  0
 10  8  1  0  0  0  0
 11  7  1  1  0  0  0
 11 10  1  0  0  0  0
 11 13  1  0  0  0  0
 13 14  1  1  0  0  0
 13  8  1  0  0  0  0
 14 16  2  0  0  0  0
 14 15  1  0  0  0  0
 17 18  1  6  0  0  0
 17 11  1  0  0  0  0
 19 17  1  0  0  0  0
 20 19  1  0  0  0  0
 21 22  1  0  0  0  0
 22 23  1  0  0  0  0
 25 26  1  0  0  0  0
 26 24  2  0  0  0  0
 26 23  1  0  0  0  0
 27 35  1  0  0  0  0
 29 44  1  0  0  0  0
 30 28  1  0  0  0  0
 31 34  1  0  0  0  0
 32 31  2  0  0  0  0
 32 33  1  0  0  0  0
 33 30  2  0  0  0  0
 34 41  1  0  0  0  0
 34 28  2  0  0  0  0
 36 45  1  6  0  0  0
 36 40  1  0  0  0  0
 37 43  1  0  0  0  0
 38 27  2  0  0  0  0
 39 37  1  0  0  0  0
 39 31  1  0  0  0  0
 40 38  1  0  0  0  0
 41 25  1  6  0  0  0
 42 36  1  0  0  0  0
 42 29  1  0  0  0  0
 43 35  2  0  0  0  0
 43 41  1  0  0  0  0
 44 38  1  0  0  0  0
 44 37  2  0  0  0  0
 45 46  1  0  0  0  0
 47 45  2  0  0  0  0
 48  1  1  0  0  0  0
 49 48  1  0  0  0  0
 50 54  2  0  0  0  0
 51 49  1  0  0  0  0
 52 51  2  0  0  0  0
 53 50  1  0  0  0  0
 53 55  1  0  0  0  0
 54 52  1  0  0  0  0
 55 51  1  0  0  0  0
M  END
>  <MODEL>
2

>  <REMARK>
 VINA RESULT:      -6.7      1.821      3.438
  Name = 
  16 active torsions:
  status: ('A' for Active; 'I' for Inactive)
    1  A    between atoms: C_1  and  C_53
    2  A    between atoms: C_4  and  C_35
    3  A    between atoms: C_4  and  C_37
    4  A    between atoms: C_6  and  C_20
    5  A    between atoms: C_8  and  C_22
    6  A    between atoms: C_8  and  N_43
    7  A    between atoms: C_10  and  C_32
    8  A    between atoms: C_11  and  C_29
    9  A    between atoms: N_19  and  C_45
   10  A    between atoms: C_20  and  C_22
   11  A    between atoms: C_27  and  C_54
   12  A    between atoms: C_29  and  C_38
   13  A    between atoms: C_35  and  N_43
   14  A    between atoms: C_37  and  C_40
   15  A    between atoms: N_43  and  C_51
   16  A    between atoms: C_51  and  C_54
                            x       y       z     vdW  Elec       q    Type
                         _______ _______ _______ _____ _____    ______ ____

>  <TORSDO>
F 16

$$$$
=
 OpenBabel11052419333D

 55 61  0  0  1  0  0  0  0  0999 V2000
  187.5250  177.5340  141.7370 N   0  0  0  0  0  0  0  0  0  0  0  0
  188.9340  177.8340  141.9400 C   0  0  0  0  0  2  0  0  0  0  0  0
  189.2380  177.9440  143.4310 C   0  0  0  0  0  2  0  0  0  0  0  0
  191.3700  177.1310  142.6920 O   0  0  0  0  0  1  0  0  0  0  0  0
  190.7250  177.7660  143.7580 C   0  0  0  0  0  0  0  0  0  0  0  0
  191.2870  179.0370  143.9090 O   0  0  0  0  0  1  0  0  0  0  0  0
  192.3120  174.8610  147.1560 O   0  0  0  0  0  1  0  0  0  0  0  0
  190.9160  176.9200  145.0500 C   0  0  1  0  0  0  0  0  0  0  0  0
  193.2620  177.2040  144.7180 O   0  0  0  0  0  1  0  0  0  0  0  0
  192.3040  176.6470  145.5720 C   0  0  1  0  0  0  0  0  0  0  0  0
  192.6350  175.2070  145.8360 C   0  0  2  0  0  0  0  0  0  0  0  0
  189.9960  177.2330  146.2360 C   0  0  0  0  0  1  0  0  0  0  0  0
  191.4770  175.4930  144.8630 C   0  0  2  0  0  0  0  0  0  0  0  0
  190.3510  174.5420  145.2780 C   0  0  0  0  0  0  0  0  0  0  0  0
  189.1570  174.9470  145.3180 O   0  0  0  0  0  0  0  0  0  0  0  0
  190.5860  173.1760  145.4210 O   0  0  0  0  0  1  0  0  0  0  0  0
  193.9080  174.5540  145.2640 C   0  0  1  0  0  3  0  0  0  0  0  0
  195.0510  174.8990  145.9940 O   0  0  0  0  0  1  0  0  0  0  0  0
  193.7620  173.0400  145.1980 C   0  0  0  0  0  2  0  0  0  0  0  0
  194.9010  172.4280  145.7190 O   0  0  0  0  0  1  0  0  0  0  0  0
  187.3320  176.1120  141.9950 C   0  0  0  0  0  2  0  0  0  0  0  0
  188.3500  175.3130  141.2000 C   0  0  0  0  0  2  0  0  0  0  0  0
  187.8160  175.0150  139.8150 C   0  0  0  0  0  2  0  0  0  0  0  0
  188.1170  173.1740  138.3320 O   0  0  0  0  0  0  0  0  0  0  0  0
  189.9390  173.6710  139.7180 N   0  0  0  0  0  2  0  0  0  0  0  0
  188.6230  173.9180  139.2180 C   0  0  0  0  0  0  0  0  0  0  0  0
  191.0000  171.0800  142.8140 C   0  0  0  0  0  3  0  0  0  0  0  0
  191.5490  173.9550  137.3720 C   0  0  0  0  0  3  0  0  0  0  0  0
  194.4180  169.8770  141.6130 C   0  0  0  0  0  2  0  0  0  0  0  0
  192.5180  174.3300  136.4370 C   0  0  0  0  0  3  0  0  0  0  0  0
  193.0730  172.3150  138.3030 C   0  0  0  0  0  0  0  0  0  0  0  0
  194.0340  172.6860  137.3560 C   0  0  0  0  0  3  0  0  0  0  0  0
  193.7620  173.6970  136.4300 C   0  0  0  0  0  3  0  0  0  0  0  0
  191.8180  172.9560  138.3230 C   0  0  0  0  0  0  0  0  0  0  0  0
  190.5220  171.7310  141.6810 C   0  0  0  0  0  3  0  0  0  0  0  0
  193.9310  168.9220  143.8550 C   0  0  1  0  0  3  0  0  0  0  0  0
  192.5830  171.2190  140.5000 C   0  0  0  0  0  0  0  0  0  0  0  0
  192.2660  170.4970  142.8110 C   0  0  0  0  0  0  0  0  0  0  0  0
  193.3740  171.1720  139.2180 C   0  0  0  0  0  2  0  0  0  0  0  0
  192.7570  169.8720  144.0880 C   0  0  0  0  0  2  0  0  0  0  0  0
  190.7450  172.5250  139.3020 C   0  0  1  0  0  3  0  0  0  0  0  0
  194.9890  169.6120  143.0040 C   0  0  0  0  0  2  0  0  0  0  0  0
  191.3090  171.8290  140.5230 C   0  0  0  0  0  0  0  0  0  0  0  0
  193.0780  170.5750  141.6540 C   0  0  0  0  0  0  0  0  0  0  0  0
  194.5110  168.4700  145.1550 C   0  0  0  0  0  0  0  0  0  0  0  0
  193.7650  168.1680  146.1250 O   0  0  0  0  0  1  0  0  0  0  0  0
  195.8900  168.3950  145.2990 O   0  0  0  0  0  0  0  0  0  0  0  0
  186.7990  178.2610  142.7680 C   0  0  0  0  0  2  0  0  0  0  0  0
  185.5830  177.4590  143.2040 C   0  0  0  0  0  2  0  0  0  0  0  0
  185.0810  178.2810  147.3820 C   0  0  0  0  0  3  0  0  0  0  0  0
  185.3490  177.6190  144.6660 C   0  0  0  0  0  0  0  0  0  0  0  0
  184.3370  178.3180  145.0950 N   0  0  0  0  0  0  0  0  0  0  0  0
  186.4270  177.8200  146.8990 C   0  0  0  0  0  2  0  0  0  0  0  0
  184.1180  178.5480  146.4960 C   0  0  0  0  0  3  0  0  0  0  0  0
  186.2830  176.9590  145.6440 C   0  0  0  0  0  2  0  0  0  0  0  0
  1  2  1  0  0  0  0
  1 21  1  0  0  0  0
  1 48  1  0  0  0  0
  2  3  1  0  0  0  0
  3  5  1  0  0  0  0
  4  5  1  0  0  0  0
  5  6  1  0  0  0  0
  5  8  1  0  0  0  0
  8 10  1  0  0  0  0
  8 12  1  1  0  0  0
 10  9  1  6  0  0  0
 10 11  1  0  0  0  0
 11  7  1  1  0  0  0
 13  8  1  0  0  0  0
 13 14  1  1  0  0  0
 13 10  1  0  0  0  0
 13 11  1  0  0  0  0
 14 15  2  0  0  0  0
 14 16  1  0  0  0  0
 17 11  1  0  0  0  0
 17 18  1  1  0  0  0
 19 17  1  0  0  0  0
 19 20  1  0  0  0  0
 22 21  1  0  0  0  0
 23 22  1  0  0  0  0
 24 26  2  0  0  0  0
 26 25  1  0  0  0  0
 26 23  1  0  0  0  0
 28 34  1  0  0  0  0
 29 44  1  0  0  0  0
 29 42  1  0  0  0  0
 30 28  2  0  0  0  0
 31 34  2  0  0  0  0
 31 39  1  0  0  0  0
 32 31  1  0  0  0  0
 33 30  1  0  0  0  0
 33 32  2  0  0  0  0
 34 41  1  0  0  0  0
 35 27  2  0  0  0  0
 36 40  1  0  0  0  0
 36 45  1  1  0  0  0
 37 43  2  0  0  0  0
 37 44  1  0  0  0  0
 38 27  1  0  0  0  0
 38 40  1  0  0  0  0
 39 37  1  0  0  0  0
 41 25  1  1  0  0  0
 41 43  1  0  0  0  0
 42 36  1  0  0  0  0
 43 35  1  0  0  0  0
 44 38  2  0  0  0  0
 45 47  2  0  0  0  0
 45 46  1  0  0  0  0
 48 49  1  0  0  0  0
 49 51  1  0  0  0  0
 51 52  2  0  0  0  0
 51 55  1  0  0  0  0
 52 54  1  0  0  0  0
 53 50  1  0  0  0  0
 54 50  2  0  0  0  0
 55 53  1  0  0  0  0
M  END
>  <MODEL>
3

>  <REMARK>
 VINA RESULT:      -6.6      3.231      8.345
  Name = 
  16 active torsions:
  status: ('A' for Active; 'I' for Inactive)
    1  A    between atoms: C_1  and  C_53
    2  A    between atoms: C_4  and  C_35
    3  A    between atoms: C_4  and  C_37
    4  A    between atoms: C_6  and  C_20
    5  A    between atoms: C_8  and  C_22
    6  A    between atoms: C_8  and  N_43
    7  A    between atoms: C_10  and  C_32
    8  A    between atoms: C_11  and  C_29
    9  A    between atoms: N_19  and  C_45
   10  A    between atoms: C_20  and  C_22
   11  A    between atoms: C_27  and  C_54
   12  A    between atoms: C_29  and  C_38
   13  A    between atoms: C_35  and  N_43
   14  A    between atoms: C_37  and  C_40
   15  A    between atoms: N_43  and  C_51
   16  A    between atoms: C_51  and  C_54
                            x       y       z     vdW  Elec       q    Type
                         _______ _______ _______ _____ _____    ______ ____

>  <TORSDO>
F 16

$$$$
=
 OpenBabel11052419333D

 55 61  0  0  1  0  0  0  0  0999 V2000
  195.2110  171.7230  140.6050 N   0  0  0  0  0  0  0  0  0  0  0  0
  195.6400  171.8290  139.2190 C   0  0  0  0  0  2  0  0  0  0  0  0
  194.5540  171.2910  138.2910 C   0  0  0  0  0  2  0  0  0  0  0  0
  193.5420  173.4640  138.3690 O   0  0  0  0  0  1  0  0  0  0  0  0
  193.8240  172.3930  137.5150 C   0  0  0  0  0  0  0  0  0  0  0  0
  194.6830  172.8540  136.5120 O   0  0  0  0  0  1  0  0  0  0  0  0
  189.3880  171.8580  135.9220 O   0  0  0  0  0  1  0  0  0  0  0  0
  192.4960  171.8600  136.9040 C   0  0  1  0  0  0  0  0  0  0  0  0
  192.0600  174.1140  136.2490 O   0  0  0  0  0  1  0  0  0  0  0  0
  191.5610  172.8080  136.1950 C   0  0  1  0  0  0  0  0  0  0  0  0
  190.1330  172.7900  136.6580 C   0  0  2  0  0  0  0  0  0  0  0  0
  192.5640  170.5500  136.1110 C   0  0  0  0  0  1  0  0  0  0  0  0
  191.1940  172.2530  137.6360 C   0  0  2  0  0  0  0  0  0  0  0  0
  190.6150  170.9480  138.1900 C   0  0  0  0  0  0  0  0  0  0  0  0
  190.3660  170.8330  139.4210 O   0  0  0  0  0  1  0  0  0  0  0  0
  190.1640  169.9460  137.3330 O   0  0  0  0  0  0  0  0  0  0  0  0
  189.3940  174.0870  137.0430 C   0  0  1  0  0  3  0  0  0  0  0  0
  188.9650  174.8020  135.9190 O   0  0  0  0  0  1  0  0  0  0  0  0
  188.2150  173.7910  137.9600 C   0  0  0  0  0  2  0  0  0  0  0  0
  188.6230  173.8430  139.2920 O   0  0  0  0  0  1  0  0  0  0  0  0
  194.6840  170.3780  140.8060 C   0  0  0  0  0  2  0  0  0  0  0  0
  193.3250  170.4630  141.4770 C   0  0  0  0  0  2  0  0  0  0  0  0
  192.8100  171.8860  141.4370 C   0  0  0  0  0  2  0  0  0  0  0  0
  192.1640  171.3580  143.6700 O   0  0  0  0  0  0  0  0  0  0  0  0
  191.9080  173.6000  143.0410 N   0  0  0  0  0  2  0  0  0  0  0  0
  192.3050  172.2500  142.7880 C   0  0  0  0  0  0  0  0  0  0  0  0
  187.9590  174.8790  142.5940 C   0  0  0  0  0  3  0  0  0  0  0  0
  193.5740  174.5630  145.1560 C   0  0  0  0  0  3  0  0  0  0  0  0
  187.7480  177.5450  145.3190 C   0  0  0  0  0  2  0  0  0  0  0  0
  194.4440  175.3090  145.9550 C   0  0  0  0  0  3  0  0  0  0  0  0
  191.7070  175.9080  145.9200 C   0  0  0  0  0  0  0  0  0  0  0  0
  192.5820  176.6440  146.7280 C   0  0  0  0  0  3  0  0  0  0  0  0
  193.9480  176.3520  146.7400 C   0  0  0  0  0  3  0  0  0  0  0  0
  192.2010  174.8610  145.1170 C   0  0  0  0  0  0  0  0  0  0  0  0
  189.1700  174.2660  142.9000 C   0  0  0  0  0  3  0  0  0  0  0  0
  185.6160  177.4750  144.0430 C   0  0  1  0  0  3  0  0  0  0  0  0
  189.4920  175.7970  144.7590 C   0  0  0  0  0  0  0  0  0  0  0  0
  187.5010  175.9540  143.3540 C   0  0  0  0  0  0  0  0  0  0  0  0
  190.2430  176.1980  146.0030 C   0  0  0  0  0  2  0  0  0  0  0  0
  186.2220  176.6230  142.9290 C   0  0  0  0  0  2  0  0  0  0  0  0
  191.2590  174.0160  144.2830 C   0  0  1  0  0  3  0  0  0  0  0  0
  186.6830  178.3920  144.6270 C   0  0  0  0  0  2  0  0  0  0  0  0
  189.9590  174.7260  143.9660 C   0  0  0  0  0  0  0  0  0  0  0  0
  188.2740  176.4340  144.4390 C   0  0  0  0  0  0  0  0  0  0  0  0
  184.4600  178.2700  143.5300 C   0  0  0  0  0  0  0  0  0  0  0  0
  184.1770  178.2790  142.3020 O   0  0  0  0  0  0  0  0  0  0  0  0
  183.6960  179.0160  144.4180 O   0  0  0  0  0  1  0  0  0  0  0  0
  196.4130  171.8400  141.4150 C   0  0  0  0  0  2  0  0  0  0  0  0
  196.0860  172.5420  142.7240 C   0  0  0  0  0  2  0  0  0  0  0  0
  196.6090  176.7990  142.7400 C   0  0  0  0  0  3  0  0  0  0  0  0
  196.3230  174.0080  142.6020 C   0  0  0  0  0  0  0  0  0  0  0  0
  197.3570  174.5540  143.1750 N   0  0  0  0  0  0  0  0  0  0  0  0
  195.2490  176.2450  142.4220 C   0  0  0  0  0  2  0  0  0  0  0  0
  197.5820  175.9730  143.1340 C   0  0  0  0  0  3  0  0  0  0  0  0
  195.3660  174.8510  141.8040 C   0  0  0  0  0  2  0  0  0  0  0  0
  1 21  1  0  0  0  0
  1 48  1  0  0  0  0
  2  1  1  0  0  0  0
  3  2  1  0  0  0  0
  5  3  1  0  0  0  0
  5  4  1  0  0  0  0
  6  5  1  0  0  0  0
  8 12  1  6  0  0  0
  8  5  1  0  0  0  0
  8 13  1  0  0  0  0
 10  9  1  1  0  0  0
 10 11  1  0  0  0  0
 10  8  1  0  0  0  0
 10 13  1  0  0  0  0
 11  7  1  6  0  0  0
 11 17  1  0  0  0  0
 11 13  1  0  0  0  0
 13 14  1  6  0  0  0
 14 15  1  0  0  0  0
 16 14  2  0  0  0  0
 17 18  1  6  0  0  0
 17 19  1  0  0  0  0
 19 20  1  0  0  0  0
 21 22  1  0  0  0  0
 23 22  1  0  0  0  0
 23 26  1  0  0  0  0
 26 25  1  0  0  0  0
 26 24  2  0  0  0  0
 27 35  2  0  0  0  0
 27 38  1  0  0  0  0
 28 30  1  0  0  0  0
 30 33  2  0  0  0  0
 31 39  1  0  0  0  0
 31 32  2  0  0  0  0
 32 33  1  0  0  0  0
 34 28  2  0  0  0  0
 34 31  1  0  0  0  0
 35 43  1  0  0  0  0
 36 45  1  6  0  0  0
 36 42  1  0  0  0  0
 37 39  1  0  0  0  0
 38 44  2  0  0  0  0
 40 38  1  0  0  0  0
 40 36  1  0  0  0  0
 41 25  1  6  0  0  0
 41 34  1  0  0  0  0
 42 29  1  0  0  0  0
 43 41  1  0  0  0  0
 43 37  2  0  0  0  0
 44 37  1  0  0  0  0
 44 29  1  0  0  0  0
 45 47  1  0  0  0  0
 46 45  2  0  0  0  0
 48 49  1  0  0  0  0
 50 54  2  0  0  0  0
 51 49  1  0  0  0  0
 51 52  2  0  0  0  0
 53 50  1  0  0  0  0
 54 52  1  0  0  0  0
 55 53  1  0  0  0  0
 55 51  1  0  0  0  0
M  END
>  <MODEL>
4

>  <REMARK>
 VINA RESULT:      -6.3      2.659      6.820
  Name = 
  16 active torsions:
  status: ('A' for Active; 'I' for Inactive)
    1  A    between atoms: C_1  and  C_53
    2  A    between atoms: C_4  and  C_35
    3  A    between atoms: C_4  and  C_37
    4  A    between atoms: C_6  and  C_20
    5  A    between atoms: C_8  and  C_22
    6  A    between atoms: C_8  and  N_43
    7  A    between atoms: C_10  and  C_32
    8  A    between atoms: C_11  and  C_29
    9  A    between atoms: N_19  and  C_45
   10  A    between atoms: C_20  and  C_22
   11  A    between atoms: C_27  and  C_54
   12  A    between atoms: C_29  and  C_38
   13  A    between atoms: C_35  and  N_43
   14  A    between atoms: C_37  and  C_40
   15  A    between atoms: N_43  and  C_51
   16  A    between atoms: C_51  and  C_54
                            x       y       z     vdW  Elec       q    Type
                         _______ _______ _______ _____ _____    ______ ____

>  <TORSDO>
F 16

$$$$
=
 OpenBabel11052419333D

 55 61  0  0  1  0  0  0  0  0999 V2000
  189.8560  175.3830  146.1370 N   0  0  0  0  0  0  0  0  0  0  0  0
  190.0400  175.2830  144.6960 C   0  0  0  0  0  2  0  0  0  0  0  0
  189.7030  173.8740  144.2200 C   0  0  0  0  0  2  0  0  0  0  0  0
  191.3260  174.4990  142.5690 O   0  0  0  0  0  1  0  0  0  0  0  0
  190.5050  173.4460  142.9870 C   0  0  0  0  0  0  0  0  0  0  0  0
  191.3270  172.3770  143.3570 O   0  0  0  0  0  1  0  0  0  0  0  0
  188.6270  172.2650  138.7940 O   0  0  0  0  0  1  0  0  0  0  0  0
  189.5610  173.0380  141.8190 C   0  0  1  0  0  0  0  0  0  0  0  0
  191.4580  171.9600  140.8510 O   0  0  0  0  0  1  0  0  0  0  0  0
  190.0910  172.2070  140.6780 C   0  0  1  0  0  0  0  0  0  0  0  0
  189.8430  172.7470  139.3010 C   0  0  2  0  0  0  0  0  0  0  0  0
  188.1630  172.5300  142.1920 C   0  0  0  0  0  1  0  0  0  0  0  0
  189.7890  173.7500  140.4670 C   0  0  2  0  0  0  0  0  0  0  0  0
  188.5350  174.5950  140.2220 C   0  0  0  0  0  0  0  0  0  0  0  0
  188.1870  175.4760  141.0550 O   0  0  0  0  0  1  0  0  0  0  0  0
  187.8750  174.5540  138.9950 O   0  0  0  0  0  0  0  0  0  0  0  0
  190.9840  172.9000  138.2760 C   0  0  1  0  0  3  0  0  0  0  0  0
  191.2690  171.6950  137.6220 O   0  0  0  0  0  1  0  0  0  0  0  0
  190.6630  173.9870  137.2600 C   0  0  0  0  0  2  0  0  0  0  0  0
  189.8640  173.4700  136.2430 O   0  0  0  0  0  1  0  0  0  0  0  0
  191.1670  175.5910  146.7390 C   0  0  0  0  0  2  0  0  0  0  0  0
  192.0820  176.2680  145.7330 C   0  0  0  0  0  2  0  0  0  0  0  0
  193.5260  176.1410  146.1710 C   0  0  0  0  0  2  0  0  0  0  0  0
  193.7340  174.3440  144.6190 O   0  0  0  0  0  0  0  0  0  0  0  0
  195.6150  175.7220  144.8370 N   0  0  0  0  0  2  0  0  0  0  0  0
  194.2690  175.3580  145.1480 C   0  0  0  0  0  0  0  0  0  0  0  0
  194.8770  176.2130  140.7570 C   0  0  0  0  0  3  0  0  0  0  0  0
  196.6980  173.2940  145.8910 C   0  0  0  0  0  3  0  0  0  0  0  0
  195.6890  172.7200  139.4480 C   0  0  0  0  0  2  0  0  0  0  0  0
  196.8760  172.0050  146.4000 C   0  0  0  0  0  3  0  0  0  0  0  0
  196.7510  172.4180  143.6310 C   0  0  0  0  0  0  0  0  0  0  0  0
  196.9420  171.1300  144.1460 C   0  0  0  0  0  3  0  0  0  0  0  0
  196.9960  170.9220  145.5270 C   0  0  0  0  0  3  0  0  0  0  0  0
  196.6190  173.5150  144.5050 C   0  0  0  0  0  0  0  0  0  0  0  0
  195.3650  176.1410  142.0580 C   0  0  0  0  0  3  0  0  0  0  0  0
  194.8510  174.1410  137.5900 C   0  0  1  0  0  3  0  0  0  0  0  0
  196.0380  173.8350  141.6940 C   0  0  0  0  0  0  0  0  0  0  0  0
  194.9550  175.1060  139.9120 C   0  0  0  0  0  0  0  0  0  0  0  0
  196.7860  172.6070  142.1480 C   0  0  0  0  0  2  0  0  0  0  0  0
  194.3440  175.2210  138.5430 C   0  0  0  0  0  2  0  0  0  0  0  0
  196.4720  174.9220  143.9630 C   0  0  1  0  0  3  0  0  0  0  0  0
  194.7390  172.7750  138.2550 C   0  0  0  0  0  2  0  0  0  0  0  0
  195.9290  174.9540  142.5490 C   0  0  0  0  0  0  0  0  0  0  0  0
  195.5260  173.8980  140.3810 C   0  0  0  0  0  0  0  0  0  0  0  0
  194.0860  174.1670  136.3070 C   0  0  0  0  0  0  0  0  0  0  0  0
  193.7600  175.2610  135.7720 O   0  0  0  0  0  1  0  0  0  0  0  0
  193.7210  172.9710  135.7030 O   0  0  0  0  0  0  0  0  0  0  0  0
  189.0790  176.5910  146.3670 C   0  0  0  0  0  2  0  0  0  0  0  0
  187.6690  176.2230  146.7990 C   0  0  0  0  0  2  0  0  0  0  0  0
  184.8870  179.0020  145.0880 C   0  0  0  0  0  3  0  0  0  0  0  0
  186.6700  177.0890  146.1120 C   0  0  0  0  0  0  0  0  0  0  0  0
  187.0610  177.9850  145.2520 N   0  0  0  0  0  0  0  0  0  0  0  0
  184.4860  178.2610  146.3310 C   0  0  0  0  0  2  0  0  0  0  0  0
  186.1330  178.8820  144.6200 C   0  0  0  0  0  3  0  0  0  0  0  0
  185.2060  176.9140  146.4110 C   0  0  0  0  0  2  0  0  0  0  0  0
  1 48  1  0  0  0  0
  1 21  1  0  0  0  0
  2  1  1  0  0  0  0
  3  2  1  0  0  0  0
  4  5  1  0  0  0  0
  5  6  1  0  0  0  0
  5  3  1  0  0  0  0
  8 12  1  1  0  0  0
  8  5  1  0  0  0  0
 10  9  1  1  0  0  0
 10  8  1  0  0  0  0
 11  7  1  6  0  0  0
 11 13  1  0  0  0  0
 11 10  1  0  0  0  0
 13 14  1  6  0  0  0
 13 10  1  0  0  0  0
 13  8  1  0  0  0  0
 14 15  1  0  0  0  0
 16 14  2  0  0  0  0
 17 18  1  6  0  0  0
 17 11  1  0  0  0  0
 19 17  1  0  0  0  0
 20 19  1  0  0  0  0
 22 23  1  0  0  0  0
 22 21  1  0  0  0  0
 24 26  2  0  0  0  0
 25 26  1  0  0  0  0
 26 23  1  0  0  0  0
 27 35  1  0  0  0  0
 28 30  1  0  0  0  0
 29 44  1  0  0  0  0
 31 32  2  0  0  0  0
 31 34  1  0  0  0  0
 32 33  1  0  0  0  0
 33 30  2  0  0  0  0
 34 28  2  0  0  0  0
 35 43  2  0  0  0  0
 36 45  1  6  0  0  0
 36 42  1  0  0  0  0
 36 40  1  0  0  0  0
 37 39  1  0  0  0  0
 37 43  1  0  0  0  0
 38 44  1  0  0  0  0
 38 27  2  0  0  0  0
 39 31  1  0  0  0  0
 40 38  1  0  0  0  0
 41 34  1  0  0  0  0
 41 25  1  1  0  0  0
 42 29  1  0  0  0  0
 43 41  1  0  0  0  0
 44 37  2  0  0  0  0
 46 45  1  0  0  0  0
 47 45  2  0  0  0  0
 48 49  1  0  0  0  0
 50 53  1  0  0  0  0
 51 55  1  0  0  0  0
 51 49  1  0  0  0  0
 52 51  2  0  0  0  0
 53 55  1  0  0  0  0
 54 50  2  0  0  0  0
 54 52  1  0  0  0  0
M  END
>  <MODEL>
5

>  <REMARK>
 VINA RESULT:      -6.3      2.403      7.778
  Name = 
  16 active torsions:
  status: ('A' for Active; 'I' for Inactive)
    1  A    between atoms: C_1  and  C_53
    2  A    between atoms: C_4  and  C_35
    3  A    between atoms: C_4  and  C_37
    4  A    between atoms: C_6  and  C_20
    5  A    between atoms: C_8  and  C_22
    6  A    between atoms: C_8  and  N_43
    7  A    between atoms: C_10  and  C_32
    8  A    between atoms: C_11  and  C_29
    9  A    between atoms: N_19  and  C_45
   10  A    between atoms: C_20  and  C_22
   11  A    between atoms: C_27  and  C_54
   12  A    between atoms: C_29  and  C_38
   13  A    between atoms: C_35  and  N_43
   14  A    between atoms: C_37  and  C_40
   15  A    between atoms: N_43  and  C_51
   16  A    between atoms: C_51  and  C_54
                            x       y       z     vdW  Elec       q    Type
                         _______ _______ _______ _____ _____    ______ ____

>  <TORSDO>
F 16

$$$$
=
 OpenBabel11052419333D

 55 61  0  0  1  0  0  0  0  0999 V2000
  193.7710  174.2160  137.1190 N   0  0  0  0  0  0  0  0  0  0  0  0
  194.4380  174.8870  138.2240 C   0  0  0  0  0  2  0  0  0  0  0  0
  194.2700  174.0790  139.5070 C   0  0  0  0  0  2  0  0  0  0  0  0
  194.4030  176.2570  140.5030 O   0  0  0  0  0  1  0  0  0  0  0  0
  193.9660  174.9480  140.7320 C   0  0  0  0  0  0  0  0  0  0  0  0
  192.5790  174.9790  140.9040 O   0  0  0  0  0  1  0  0  0  0  0  0
  195.3640  173.9830  145.1610 O   0  0  0  0  0  1  0  0  0  0  0  0
  194.6680  174.3880  142.0040 C   0  0  1  0  0  0  0  0  0  0  0  0
  192.6030  174.7710  143.1380 O   0  0  0  0  0  1  0  0  0  0  0  0
  193.9020  174.2750  143.2970 C   0  0  1  0  0  0  0  0  0  0  0  0
  194.5430  174.9070  144.4980 C   0  0  2  0  0  0  0  0  0  0  0  0
  195.5350  173.1360  141.8320 C   0  0  0  0  0  1  0  0  0  0  0  0
  194.9960  175.4090  143.1160 C   0  0  2  0  0  0  0  0  0  0  0  0
  196.5240  175.4750  143.1860 C   0  0  0  0  0  0  0  0  0  0  0  0
  197.1660  176.2350  142.4100 O   0  0  0  0  0  0  0  0  0  0  0  0
  197.2180  174.8620  144.2280 O   0  0  0  0  0  1  0  0  0  0  0  0
  193.7720  175.8890  145.4010 C   0  0  1  0  0  3  0  0  0  0  0  0
  193.1270  175.2370  146.4590 O   0  0  0  0  0  1  0  0  0  0  0  0
  194.6930  176.9760  145.9360 C   0  0  0  0  0  2  0  0  0  0  0  0
  194.1930  177.4760  147.1380 O   0  0  0  0  0  1  0  0  0  0  0  0
  192.3600  174.5830  137.1630 C   0  0  0  0  0  2  0  0  0  0  0  0
  191.5110  173.3240  137.1500 C   0  0  0  0  0  2  0  0  0  0  0  0
  190.0880  173.6480  137.5540 C   0  0  0  0  0  2  0  0  0  0  0  0
  188.7040  172.1270  138.7580 O   0  0  0  0  0  0  0  0  0  0  0  0
  190.5440  172.9750  139.9340 N   0  0  0  0  0  2  0  0  0  0  0  0
  189.7390  172.8490  138.7590 C   0  0  0  0  0  0  0  0  0  0  0  0
  188.2900  175.3890  142.4890 C   0  0  0  0  0  3  0  0  0  0  0  0
  192.2660  170.9220  140.9300 C   0  0  0  0  0  3  0  0  0  0  0  0
  189.5500  174.2120  145.8950 C   0  0  0  0  0  2  0  0  0  0  0  0
  193.3410  170.1970  141.4520 C   0  0  0  0  0  3  0  0  0  0  0  0
  191.5780  171.5300  143.1740 C   0  0  0  0  0  0  0  0  0  0  0  0
  192.6490  170.7920  143.6910 C   0  0  0  0  0  3  0  0  0  0  0  0
  193.5350  170.1350  142.8320 C   0  0  0  0  0  3  0  0  0  0  0  0
  191.3810  171.6070  141.7810 C   0  0  0  0  0  0  0  0  0  0  0  0
  188.8300  174.4220  141.6460 C   0  0  0  0  0  3  0  0  0  0  0  0
  187.9470  176.0880  146.1930 C   0  0  1  0  0  3  0  0  0  0  0  0
  189.8750  173.3270  143.5460 C   0  0  0  0  0  0  0  0  0  0  0  0
  188.5340  175.3440  143.8600 C   0  0  0  0  0  0  0  0  0  0  0  0
  190.6070  172.1460  144.1300 C   0  0  0  0  0  2  0  0  0  0  0  0
  187.9850  176.4560  144.7110 C   0  0  0  0  0  2  0  0  0  0  0  0
  190.1920  172.3510  141.2080 C   0  0  1  0  0  3  0  0  0  0  0  0
  189.3000  175.5330  146.6190 C   0  0  0  0  0  2  0  0  0  0  0  0
  189.6420  173.3980  142.1550 C   0  0  0  0  0  0  0  0  0  0  0  0
  189.3450  174.3160  144.4010 C   0  0  0  0  0  0  0  0  0  0  0  0
  187.5790  177.2750  147.0220 C   0  0  0  0  0  0  0  0  0  0  0  0
  188.4520  178.1160  147.3690 O   0  0  0  0  0  0  0  0  0  0  0  0
  186.2620  177.4460  147.4240 O   0  0  0  0  0  1  0  0  0  0  0  0
  194.3250  174.7850  135.9000 C   0  0  0  0  0  2  0  0  0  0  0  0
  193.3270  175.7500  135.2810 C   0  0  0  0  0  2  0  0  0  0  0  0
  195.3370  179.4590  134.5130 C   0  0  0  0  0  3  0  0  0  0  0  0
  194.0040  177.0150  134.8790 C   0  0  0  0  0  0  0  0  0  0  0  0
  195.3050  177.0750  134.8330 N   0  0  0  0  0  0  0  0  0  0  0  0
  193.8960  179.4990  134.9330 C   0  0  0  0  0  2  0  0  0  0  0  0
  195.9930  178.2950  134.5130 C   0  0  0  0  0  3  0  0  0  0  0  0
  193.1760  178.2170  134.5140 C   0  0  0  0  0  2  0  0  0  0  0  0
  1 21  1  0  0  0  0
  1  2  1  0  0  0  0
  2  3  1  0  0  0  0
  3  5  1  0  0  0  0
  4  5  1  0  0  0  0
  5  6  1  0  0  0  0
  5  8  1  0  0  0  0
  8 12  1  6  0  0  0
  8 13  1  0  0  0  0
  8 10  1  0  0  0  0
 10  9  1  6  0  0  0
 10 11  1  0  0  0  0
 11  7  1  1  0  0  0
 11 17  1  0  0  0  0
 13 14  1  1  0  0  0
 13 10  1  0  0  0  0
 13 11  1  0  0  0  0
 14 16  1  0  0  0  0
 15 14  2  0  0  0  0
 17 19  1  0  0  0  0
 17 18  1  1  0  0  0
 19 20  1  0  0  0  0
 22 21  1  0  0  0  0
 22 23  1  0  0  0  0
 23 26  1  0  0  0  0
 24 26  2  0  0  0  0
 26 25  1  0  0  0  0
 27 38  1  0  0  0  0
 28 30  2  0  0  0  0
 28 34  1  0  0  0  0
 29 42  1  0  0  0  0
 30 33  1  0  0  0  0
 31 32  1  0  0  0  0
 31 39  1  0  0  0  0
 33 32  2  0  0  0  0
 34 31  2  0  0  0  0
 35 43  1  0  0  0  0
 35 27  2  0  0  0  0
 36 42  1  0  0  0  0
 36 45  1  1  0  0  0
 37 39  1  0  0  0  0
 37 44  1  0  0  0  0
 38 44  2  0  0  0  0
 38 40  1  0  0  0  0
 40 36  1  0  0  0  0
 41 25  1  6  0  0  0
 41 34  1  0  0  0  0
 41 43  1  0  0  0  0
 43 37  2  0  0  0  0
 44 29  1  0  0  0  0
 45 46  2  0  0  0  0
 45 47  1  0  0  0  0
 48  1  1  0  0  0  0
 49 48  1  0  0  0  0
 50 53  1  0  0  0  0
 51 49  1  0  0  0  0
 52 51  2  0  0  0  0
 54 50  2  0  0  0  0
 54 52  1  0  0  0  0
 55 51  1  0  0  0  0
 55 53  1  0  0  0  0
M  END
>  <MODEL>
6

>  <REMARK>
 VINA RESULT:      -6.2      3.381      8.297
  Name = 
  16 active torsions:
  status: ('A' for Active; 'I' for Inactive)
    1  A    between atoms: C_1  and  C_53
    2  A    between atoms: C_4  and  C_35
    3  A    between atoms: C_4  and  C_37
    4  A    between atoms: C_6  and  C_20
    5  A    between atoms: C_8  and  C_22
    6  A    between atoms: C_8  and  N_43
    7  A    between atoms: C_10  and  C_32
    8  A    between atoms: C_11  and  C_29
    9  A    between atoms: N_19  and  C_45
   10  A    between atoms: C_20  and  C_22
   11  A    between atoms: C_27  and  C_54
   12  A    between atoms: C_29  and  C_38
   13  A    between atoms: C_35  and  N_43
   14  A    between atoms: C_37  and  C_40
   15  A    between atoms: N_43  and  C_51
   16  A    between atoms: C_51  and  C_54
                            x       y       z     vdW  Elec       q    Type
                         _______ _______ _______ _____ _____    ______ ____

>  <TORSDO>
F 16

$$$$
=
 OpenBabel11052419333D

 55 61  0  0  1  0  0  0  0  0999 V2000
  195.3380  174.1800  140.4320 N   0  0  0  0  0  0  0  0  0  0  0  0
  195.7340  174.4250  139.0530 C   0  0  0  0  0  2  0  0  0  0  0  0
  194.5130  174.7770  138.2100 C   0  0  0  0  0  2  0  0  0  0  0  0
  194.6720  175.8100  136.0510 O   0  0  0  0  0  1  0  0  0  0  0  0
  194.7390  174.5770  136.7080 C   0  0  0  0  0  0  0  0  0  0  0  0
  196.0260  174.0610  136.5320 O   0  0  0  0  0  1  0  0  0  0  0  0
  190.7830  172.1730  135.6700 O   0  0  0  0  0  1  0  0  0  0  0  0
  193.6720  173.6170  136.1050 C   0  0  1  0  0  0  0  0  0  0  0  0
  192.0630  175.2930  136.6510 O   0  0  0  0  0  1  0  0  0  0  0  0
  192.2240  174.0350  136.0580 C   0  0  1  0  0  0  0  0  0  0  0  0
  191.2410  173.0670  136.6480 C   0  0  2  0  0  0  0  0  0  0  0  0
  194.0250  172.9140  134.7890 C   0  0  0  0  0  1  0  0  0  0  0  0
  192.7060  172.9450  137.1050 C   0  0  2  0  0  0  0  0  0  0  0  0
  193.0260  171.4480  137.0550 C   0  0  0  0  0  0  0  0  0  0  0  0
  194.0810  171.0030  137.5840 O   0  0  0  0  0  1  0  0  0  0  0  0
  192.0760  170.5290  136.6120 O   0  0  0  0  0  0  0  0  0  0  0  0
  190.1980  173.5110  137.6920 C   0  0  1  0  0  3  0  0  0  0  0  0
  189.0730  174.0940  137.0980 O   0  0  0  0  0  1  0  0  0  0  0  0
  189.7820  172.3440  138.5770 C   0  0  0  0  0  2  0  0  0  0  0  0
  189.3390  172.8170  139.8110 O   0  0  0  0  0  1  0  0  0  0  0  0
  194.6060  172.9190  140.4660 C   0  0  0  0  0  2  0  0  0  0  0  0
  193.1660  173.1830  140.8680 C   0  0  0  0  0  2  0  0  0  0  0  0
  192.5530  171.9360  141.4700 C   0  0  0  0  0  2  0  0  0  0  0  0
  191.6220  171.3510  143.5850 O   0  0  0  0  0  0  0  0  0  0  0  0
  191.8320  173.6460  143.1660 N   0  0  0  0  0  2  0  0  0  0  0  0
  192.0010  172.2720  142.8090 C   0  0  0  0  0  0  0  0  0  0  0  0
  187.8960  174.9290  142.6290 C   0  0  0  0  0  3  0  0  0  0  0  0
  193.4550  174.6200  145.3090 C   0  0  0  0  0  3  0  0  0  0  0  0
  187.6330  177.6110  145.3330 C   0  0  0  0  0  2  0  0  0  0  0  0
  194.3100  175.3690  146.1210 C   0  0  0  0  0  3  0  0  0  0  0  0
  191.5760  175.9730  146.0260 C   0  0  0  0  0  0  0  0  0  0  0  0
  192.4340  176.7120  146.8480 C   0  0  0  0  0  3  0  0  0  0  0  0
  193.8000  176.4170  146.8890 C   0  0  0  0  0  3  0  0  0  0  0  0
  192.0840  174.9190  145.2400 C   0  0  0  0  0  0  0  0  0  0  0  0
  189.0990  174.3160  142.9640 C   0  0  0  0  0  3  0  0  0  0  0  0
  185.5280  177.5370  144.0140 C   0  0  1  0  0  3  0  0  0  0  0  0
  189.3850  175.8580  144.8200 C   0  0  0  0  0  0  0  0  0  0  0  0
  187.4230  176.0090  143.3730 C   0  0  0  0  0  0  0  0  0  0  0  0
  190.1100  176.2650  146.0770 C   0  0  0  0  0  2  0  0  0  0  0  0
  186.1550  176.6780  142.9180 C   0  0  0  0  0  2  0  0  0  0  0  0
  191.1580  174.0720  144.3910 C   0  0  1  0  0  3  0  0  0  0  0  0
  186.5840  178.4560  144.6140 C   0  0  0  0  0  2  0  0  0  0  0  0
  189.8660  174.7810  144.0430 C   0  0  0  0  0  0  0  0  0  0  0  0
  188.1750  176.4940  144.4710 C   0  0  0  0  0  0  0  0  0  0  0  0
  184.3840  178.3310  143.4730 C   0  0  0  0  0  0  0  0  0  0  0  0
  183.8710  178.0460  142.3570 O   0  0  0  0  0  0  0  0  0  0  0  0
  183.8880  179.4020  144.2030 O   0  0  0  0  0  1  0  0  0  0  0  0
  196.5680  173.9830  141.1830 C   0  0  0  0  0  2  0  0  0  0  0  0
  196.3730  174.4390  142.6200 C   0  0  0  0  0  2  0  0  0  0  0  0
  197.1580  171.2840  145.4150 C   0  0  0  0  0  3  0  0  0  0  0  0
  196.7810  173.3650  143.5680 C   0  0  0  0  0  0  0  0  0  0  0  0
  196.7580  172.1180  143.1950 N   0  0  0  0  0  0  0  0  0  0  0  0
  196.8200  172.6470  145.9490 C   0  0  0  0  0  2  0  0  0  0  0  0
  197.0810  171.0520  144.1020 C   0  0  0  0  0  3  0  0  0  0  0  0
  197.2320  173.7330  144.9560 C   0  0  0  0  0  2  0  0  0  0  0  0
  1 21  1  0  0  0  0
  1 48  1  0  0  0  0
  2  1  1  0  0  0  0
  3  2  1  0  0  0  0
  4  5  1  0  0  0  0
  5  3  1  0  0  0  0
  6  5  1  0  0  0  0
  8 12  1  6  0  0  0
  8  5  1  0  0  0  0
  8 13  1  0  0  0  0
 10  8  1  0  0  0  0
 10 11  1  0  0  0  0
 10  9  1  1  0  0  0
 10 13  1  0  0  0  0
 11  7  1  6  0  0  0
 11 13  1  0  0  0  0
 11 17  1  0  0  0  0
 13 14  1  6  0  0  0
 14 15  1  0  0  0  0
 16 14  2  0  0  0  0
 17 18  1  6  0  0  0
 17 19  1  0  0  0  0
 19 20  1  0  0  0  0
 21 22  1  0  0  0  0
 22 23  1  0  0  0  0
 23 26  1  0  0  0  0
 26 25  1  0  0  0  0
 26 24  2  0  0  0  0
 27 35  2  0  0  0  0
 27 38  1  0  0  0  0
 28 30  1  0  0  0  0
 30 33  2  0  0  0  0
 31 39  1  0  0  0  0
 31 32  2  0  0  0  0
 32 33  1  0  0  0  0
 34 28  2  0  0  0  0
 34 31  1  0  0  0  0
 35 43  1  0  0  0  0
 36 45  1  6  0  0  0
 36 42  1  0  0  0  0
 37 39  1  0  0  0  0
 38 44  2  0  0  0  0
 40 38  1  0  0  0  0
 40 36  1  0  0  0  0
 41 25  1  6  0  0  0
 41 34  1  0  0  0  0
 42 29  1  0  0  0  0
 43 41  1  0  0  0  0
 43 37  2  0  0  0  0
 44 37  1  0  0  0  0
 44 29  1  0  0  0  0
 45 47  1  0  0  0  0
 46 45  2  0  0  0  0
 48 49  1  0  0  0  0
 49 51  1  0  0  0  0
 50 53  1  0  0  0  0
 51 55  1  0  0  0  0
 52 51  2  0  0  0  0
 52 54  1  0  0  0  0
 54 50  2  0  0  0  0
 55 53  1  0  0  0  0
M  END
>  <MODEL>
7

>  <REMARK>
 VINA RESULT:      -6.1      2.535      6.272
  Name = 
  16 active torsions:
  status: ('A' for Active; 'I' for Inactive)
    1  A    between atoms: C_1  and  C_53
    2  A    between atoms: C_4  and  C_35
    3  A    between atoms: C_4  and  C_37
    4  A    between atoms: C_6  and  C_20
    5  A    between atoms: C_8  and  C_22
    6  A    between atoms: C_8  and  N_43
    7  A    between atoms: C_10  and  C_32
    8  A    between atoms: C_11  and  C_29
    9  A    between atoms: N_19  and  C_45
   10  A    between atoms: C_20  and  C_22
   11  A    between atoms: C_27  and  C_54
   12  A    between atoms: C_29  and  C_38
   13  A    between atoms: C_35  and  N_43
   14  A    between atoms: C_37  and  C_40
   15  A    between atoms: N_43  and  C_51
   16  A    between atoms: C_51  and  C_54
                            x       y       z     vdW  Elec       q    Type
                         _______ _______ _______ _____ _____    ______ ____

>  <TORSDO>
F 16

$$$$
=
 OpenBabel11052419333D

 55 61  0  0  1  0  0  0  0  0999 V2000
  193.7410  174.7300  145.3480 N   0  0  0  0  0  0  0  0  0  0  0  0
  194.9370  174.2660  146.0340 C   0  0  0  0  0  2  0  0  0  0  0  0
  195.8560  173.5410  145.0560 C   0  0  0  0  0  2  0  0  0  0  0  0
  196.5790  171.2590  145.2100 O   0  0  0  0  0  1  0  0  0  0  0  0
  195.4890  172.0650  144.8650 C   0  0  0  0  0  0  0  0  0  0  0  0
  194.4370  171.7680  145.7370 O   0  0  0  0  0  1  0  0  0  0  0  0
  193.3300  170.6440  140.8870 O   0  0  0  0  0  1  0  0  0  0  0  0
  195.0830  171.7760  143.3900 C   0  0  1  0  0  0  0  0  0  0  0  0
  192.8210  171.8370  144.1510 O   0  0  0  0  0  1  0  0  0  0  0  0
  193.6250  171.6820  143.0160 C   0  0  1  0  0  0  0  0  0  0  0  0
  193.2170  170.4450  142.2710 C   0  0  2  0  0  0  0  0  0  0  0  0
  195.8250  172.5500  142.2940 C   0  0  0  0  0  1  0  0  0  0  0  0
  194.5150  170.3700  143.0950 C   0  0  2  0  0  0  0  0  0  0  0  0
  195.5390  169.6880  142.1840 C   0  0  0  0  0  0  0  0  0  0  0  0
  196.7650  169.6980  142.4820 O   0  0  0  0  0  1  0  0  0  0  0  0
  195.1270  168.8760  141.1280 O   0  0  0  0  0  0  0  0  0  0  0  0
  192.0250  169.5830  142.7290 C   0  0  1  0  0  3  0  0  0  0  0  0
  190.7970  170.1470  142.3680 O   0  0  0  0  0  1  0  0  0  0  0  0
  192.1350  168.1660  142.1830 C   0  0  0  0  0  2  0  0  0  0  0  0
  191.9070  168.1660  140.8080 O   0  0  0  0  0  1  0  0  0  0  0  0
  192.6710  174.8240  146.3340 C   0  0  0  0  0  2  0  0  0  0  0  0
  192.3600  176.2860  146.6030 C   0  0  0  0  0  2  0  0  0  0  0  0
  191.2150  176.4060  147.5850 C   0  0  0  0  0  2  0  0  0  0  0  0
  189.3660  174.9040  147.4900 O   0  0  0  0  0  0  0  0  0  0  0  0
  189.5600  176.3920  145.6910 N   0  0  0  0  0  2  0  0  0  0  0  0
  189.9830  175.8650  146.9510 C   0  0  0  0  0  0  0  0  0  0  0  0
  190.7300  173.8300  142.6100 C   0  0  0  0  0  3  0  0  0  0  0  0
  187.1150  177.8700  145.5760 C   0  0  0  0  0  3  0  0  0  0  0  0
  187.9870  174.4900  140.0380 C   0  0  0  0  0  2  0  0  0  0  0  0
  186.1260  178.8250  145.3280 C   0  0  0  0  0  3  0  0  0  0  0  0
  186.6800  176.8490  143.4210 C   0  0  0  0  0  0  0  0  0  0  0  0
  185.6820  177.8010  143.1830 C   0  0  0  0  0  3  0  0  0  0  0  0
  185.4110  178.7920  144.1300 C   0  0  0  0  0  3  0  0  0  0  0  0
  187.4140  176.8810  144.6240 C   0  0  0  0  0  0  0  0  0  0  0  0
  190.2150  174.4700  143.7330 C   0  0  0  0  0  3  0  0  0  0  0  0
  189.6640  172.9180  139.0940 C   0  0  1  0  0  3  0  0  0  0  0  0
  188.2640  175.1630  142.4630 C   0  0  0  0  0  0  0  0  0  0  0  0
  190.0300  173.8490  141.4050 C   0  0  0  0  0  0  0  0  0  0  0  0
  186.8780  175.7560  142.4200 C   0  0  0  0  0  2  0  0  0  0  0  0
  190.6710  173.2040  140.2070 C   0  0  0  0  0  2  0  0  0  0  0  0
  188.4560  175.8220  144.9220 C   0  0  1  0  0  3  0  0  0  0  0  0
  188.8390  174.1670  138.8130 C   0  0  0  0  0  2  0  0  0  0  0  0
  188.9950  175.1590  143.6710 C   0  0  0  0  0  0  0  0  0  0  0  0
  188.7920  174.5320  141.3160 C   0  0  0  0  0  0  0  0  0  0  0  0
  190.3620  172.4570  137.8560 C   0  0  0  0  0  0  0  0  0  0  0  0
  189.7060  172.1030  136.8400 O   0  0  0  0  0  0  0  0  0  0  0  0
  191.7490  172.4070  137.8310 O   0  0  0  0  0  1  0  0  0  0  0  0
  194.0270  176.0810  144.8930 C   0  0  0  0  0  2  0  0  0  0  0  0
  193.7470  176.1930  143.4020 C   0  0  0  0  0  2  0  0  0  0  0  0
  197.4350  175.9680  141.2260 C   0  0  0  0  0  3  0  0  0  0  0  0
  195.0220  176.2540  142.6350 C   0  0  0  0  0  0  0  0  0  0  0  0
  195.0330  175.9850  141.3610 N   0  0  0  0  0  0  0  0  0  0  0  0
  197.4820  175.8960  142.7260 C   0  0  0  0  0  2  0  0  0  0  0  0
  196.2540  175.9700  140.6020 C   0  0  0  0  0  3  0  0  0  0  0  0
  196.2950  176.6380  143.3390 C   0  0  0  0  0  2  0  0  0  0  0  0
  1  2  1  0  0  0  0
  1 21  1  0  0  0  0
  3  2  1  0  0  0  0
  5  3  1  0  0  0  0
  5  4  1  0  0  0  0
  5  6  1  0  0  0  0
  8 12  1  6  0  0  0
  8  5  1  0  0  0  0
 10 13  1  0  0  0  0
 10  8  1  0  0  0  0
 10  9  1  1  0  0  0
 11  7  1  6  0  0  0
 11 17  1  0  0  0  0
 11 10  1  0  0  0  0
 11 13  1  0  0  0  0
 13 14  1  6  0  0  0
 13  8  1  0  0  0  0
 14 15  1  0  0  0  0
 16 14  2  0  0  0  0
 17 18  1  6  0  0  0
 19 17  1  0  0  0  0
 20 19  1  0  0  0  0
 21 22  1  0  0  0  0
 22 23  1  0  0  0  0
 25 26  1  0  0  0  0
 26 24  2  0  0  0  0
 26 23  1  0  0  0  0
 27 35  1  0  0  0  0
 29 44  1  0  0  0  0
 30 28  1  0  0  0  0
 31 34  1  0  0  0  0
 32 31  2  0  0  0  0
 32 33  1  0  0  0  0
 33 30  2  0  0  0  0
 34 41  1  0  0  0  0
 34 28  2  0  0  0  0
 36 45  1  6  0  0  0
 36 40  1  0  0  0  0
 37 43  1  0  0  0  0
 38 27  2  0  0  0  0
 39 37  1  0  0  0  0
 39 31  1  0  0  0  0
 40 38  1  0  0  0  0
 41 25  1  6  0  0  0
 42 36  1  0  0  0  0
 42 29  1  0  0  0  0
 43 35  2  0  0  0  0
 43 41  1  0  0  0  0
 44 38  1  0  0  0  0
 44 37  2  0  0  0  0
 46 45  2  0  0  0  0
 47 45  1  0  0  0  0
 48  1  1  0  0  0  0
 49 48  1  0  0  0  0
 50 53  1  0  0  0  0
 51 55  1  0  0  0  0
 51 49  1  0  0  0  0
 52 51  2  0  0  0  0
 53 55  1  0  0  0  0
 54 50  2  0  0  0  0
 54 52  1  0  0  0  0
M  END
>  <MODEL>
8

>  <REMARK>
 VINA RESULT:      -6.1      2.210      4.012
  Name = 
  16 active torsions:
  status: ('A' for Active; 'I' for Inactive)
    1  A    between atoms: C_1  and  C_53
    2  A    between atoms: C_4  and  C_35
    3  A    between atoms: C_4  and  C_37
    4  A    between atoms: C_6  and  C_20
    5  A    between atoms: C_8  and  C_22
    6  A    between atoms: C_8  and  N_43
    7  A    between atoms: C_10  and  C_32
    8  A    between atoms: C_11  and  C_29
    9  A    between atoms: N_19  and  C_45
   10  A    between atoms: C_20  and  C_22
   11  A    between atoms: C_27  and  C_54
   12  A    between atoms: C_29  and  C_38
   13  A    between atoms: C_35  and  N_43
   14  A    between atoms: C_37  and  C_40
   15  A    between atoms: N_43  and  C_51
   16  A    between atoms: C_51  and  C_54
                            x       y       z     vdW  Elec       q    Type
                         _______ _______ _______ _____ _____    ______ ____

>  <TORSDO>
F 16

$$$$
=
 OpenBabel11052419333D

 55 61  0  0  1  0  0  0  0  0999 V2000
  190.3810  175.3150  146.2870 N   0  0  0  0  0  0  0  0  0  0  0  0
  189.9420  174.1540  145.5260 C   0  0  0  0  0  2  0  0  0  0  0  0
  189.7280  174.5350  144.0650 C   0  0  0  0  0  2  0  0  0  0  0  0
  191.5840  174.3400  142.5590 O   0  0  0  0  0  1  0  0  0  0  0  0
  190.4970  173.6380  143.0890 C   0  0  0  0  0  0  0  0  0  0  0  0
  190.9950  172.5470  143.8080 O   0  0  0  0  0  1  0  0  0  0  0  0
  188.7120  172.2230  138.9280 O   0  0  0  0  0  1  0  0  0  0  0  0
  189.5790  173.1600  141.9260 C   0  0  1  0  0  0  0  0  0  0  0  0
  191.5050  172.0550  141.0510 O   0  0  0  0  0  1  0  0  0  0  0  0
  190.1390  172.2770  140.8400 C   0  0  1  0  0  0  0  0  0  0  0  0
  189.9130  172.7440  139.4320 C   0  0  2  0  0  0  0  0  0  0  0  0
  188.1800  172.6570  142.2990 C   0  0  0  0  0  1  0  0  0  0  0  0
  189.8270  173.8050  140.5440 C   0  0  2  0  0  0  0  0  0  0  0  0
  188.5700  174.6220  140.2320 C   0  0  0  0  0  0  0  0  0  0  0  0
  188.1960  175.5400  141.0120 O   0  0  0  0  0  1  0  0  0  0  0  0
  187.9340  174.5120  138.9970 O   0  0  0  0  0  0  0  0  0  0  0  0
  191.0720  172.8560  138.4220 C   0  0  1  0  0  3  0  0  0  0  0  0
  191.4840  171.6030  137.9520 O   0  0  0  0  0  1  0  0  0  0  0  0
  190.6940  173.7580  137.2550 C   0  0  0  0  0  2  0  0  0  0  0  0
  191.2690  173.2810  136.0790 O   0  0  0  0  0  1  0  0  0  0  0  0
  191.6430  175.7690  145.7160 C   0  0  0  0  0  2  0  0  0  0  0  0
  192.7490  174.8050  146.1080 C   0  0  0  0  0  2  0  0  0  0  0  0
  194.0890  175.5110  146.0940 C   0  0  0  0  0  2  0  0  0  0  0  0
  194.5320  173.9990  144.3060 O   0  0  0  0  0  0  0  0  0  0  0  0
  196.4160  174.9210  145.3480 N   0  0  0  0  0  2  0  0  0  0  0  0
  195.0040  174.7830  145.1760 C   0  0  0  0  0  0  0  0  0  0  0  0
  197.0160  176.1790  141.4130 C   0  0  0  0  0  3  0  0  0  0  0  0
  196.8120  172.2010  146.1380 C   0  0  0  0  0  3  0  0  0  0  0  0
  197.7370  172.8500  139.6900 C   0  0  0  0  0  2  0  0  0  0  0  0
  196.6630  170.8370  146.4010 C   0  0  0  0  0  3  0  0  0  0  0  0
  197.4360  171.7000  143.8490 C   0  0  0  0  0  0  0  0  0  0  0  0
  197.2970  170.3340  144.1220 C   0  0  0  0  0  3  0  0  0  0  0  0
  196.9040  169.9030  145.3920 C   0  0  0  0  0  3  0  0  0  0  0  0
  197.1860  172.6500  144.8600 C   0  0  0  0  0  0  0  0  0  0  0  0
  197.0740  175.8140  142.7550 C   0  0  0  0  0  3  0  0  0  0  0  0
  197.6880  174.6760  138.0050 C   0  0  1  0  0  3  0  0  0  0  0  0
  197.5280  173.5120  142.1240 C   0  0  0  0  0  0  0  0  0  0  0  0
  197.2060  175.2260  140.4140 C   0  0  0  0  0  0  0  0  0  0  0  0
  197.9410  172.1130  142.5040 C   0  0  0  0  0  2  0  0  0  0  0  0
  197.0570  175.6650  138.9830 C   0  0  0  0  0  2  0  0  0  0  0  0
  197.3890  174.1290  144.5980 C   0  0  1  0  0  3  0  0  0  0  0  0
  197.2080  173.2650  138.3190 C   0  0  0  0  0  2  0  0  0  0  0  0
  197.3080  174.4820  143.1270 C   0  0  0  0  0  0  0  0  0  0  0  0
  197.4500  173.8750  140.7630 C   0  0  0  0  0  0  0  0  0  0  0  0
  197.3580  175.0440  136.5950 C   0  0  0  0  0  0  0  0  0  0  0  0
  197.5410  176.2170  136.1750 O   0  0  0  0  0  1  0  0  0  0  0  0
  196.8310  174.0820  135.7430 O   0  0  0  0  0  0  0  0  0  0  0  0
  189.3980  176.3590  146.0430 C   0  0  0  0  0  2  0  0  0  0  0  0
  188.1560  176.1030  146.8820 C   0  0  0  0  0  2  0  0  0  0  0  0
  184.7200  178.2490  145.4760 C   0  0  0  0  0  3  0  0  0  0  0  0
  187.0310  176.9660  146.4250 C   0  0  0  0  0  0  0  0  0  0  0  0
  186.0030  177.1670  147.1990 N   0  0  0  0  0  0  0  0  0  0  0  0
  185.6940  177.7140  144.4650 C   0  0  0  0  0  2  0  0  0  0  0  0
  184.8710  177.9390  146.7670 C   0  0  0  0  0  3  0  0  0  0  0  0
  187.0950  177.6130  145.0680 C   0  0  0  0  0  2  0  0  0  0  0  0
  2  1  1  0  0  0  0
  3  2  1  0  0  0  0
  4  5  1  0  0  0  0
  5  6  1  0  0  0  0
  5  3  1  0  0  0  0
  8 12  1  1  0  0  0
  8  5  1  0  0  0  0
 10  9  1  1  0  0  0
 10  8  1  0  0  0  0
 11  7  1  6  0  0  0
 11 13  1  0  0  0  0
 11 10  1  0  0  0  0
 13 14  1  6  0  0  0
 13 10  1  0  0  0  0
 13  8  1  0  0  0  0
 14 15  1  0  0  0  0
 16 14  2  0  0  0  0
 17 18  1  6  0  0  0
 17 11  1  0  0  0  0
 19 17  1  0  0  0  0
 20 19  1  0  0  0  0
 21 22  1  0  0  0  0
 21  1  1  0  0  0  0
 23 22  1  0  0  0  0
 24 26  2  0  0  0  0
 26 25  1  0  0  0  0
 26 23  1  0  0  0  0
 27 35  1  0  0  0  0
 28 30  1  0  0  0  0
 29 44  1  0  0  0  0
 31 32  2  0  0  0  0
 31 34  1  0  0  0  0
 32 33  1  0  0  0  0
 33 30  2  0  0  0  0
 34 28  2  0  0  0  0
 35 43  2  0  0  0  0
 36 45  1  6  0  0  0
 36 42  1  0  0  0  0
 36 40  1  0  0  0  0
 37 39  1  0  0  0  0
 37 43  1  0  0  0  0
 38 44  1  0  0  0  0
 38 27  2  0  0  0  0
 39 31  1  0  0  0  0
 40 38  1  0  0  0  0
 41 34  1  0  0  0  0
 41 25  1  1  0  0  0
 42 29  1  0  0  0  0
 43 41  1  0  0  0  0
 44 37  2  0  0  0  0
 46 45  1  0  0  0  0
 47 45  2  0  0  0  0
 48  1  1  0  0  0  0
 48 49  1  0  0  0  0
 50 54  2  0  0  0  0
 51 49  1  0  0  0  0
 51 52  2  0  0  0  0
 53 55  1  0  0  0  0
 53 50  1  0  0  0  0
 54 52  1  0  0  0  0
 55 51  1  0  0  0  0
M  END
>  <MODEL>
9

>  <REMARK>
 VINA RESULT:      -6.1      2.210      8.293
  Name = 
  16 active torsions:
  status: ('A' for Active; 'I' for Inactive)
    1  A    between atoms: C_1  and  C_53
    2  A    between atoms: C_4  and  C_35
    3  A    between atoms: C_4  and  C_37
    4  A    between atoms: C_6  and  C_20
    5  A    between atoms: C_8  and  C_22
    6  A    between atoms: C_8  and  N_43
    7  A    between atoms: C_10  and  C_32
    8  A    between atoms: C_11  and  C_29
    9  A    between atoms: N_19  and  C_45
   10  A    between atoms: C_20  and  C_22
   11  A    between atoms: C_27  and  C_54
   12  A    between atoms: C_29  and  C_38
   13  A    between atoms: C_35  and  N_43
   14  A    between atoms: C_37  and  C_40
   15  A    between atoms: N_43  and  C_51
   16  A    between atoms: C_51  and  C_54
                            x       y       z     vdW  Elec       q    Type
                         _______ _______ _______ _____ _____    ______ ____

>  <TORSDO>
F 16

$$$$
