=
 OpenBabel11052419203D

 32 33  0  0  1  0  0  0  0  0999 V2000
  190.1250  176.4000  144.3030 C   0  0  2  0  0  3  0  0  0  0  0  0
  190.5800  174.1100  143.0320 C   0  0  1  0  0  3  0  0  0  0  0  0
  189.9970  175.1270  142.0670 C   0  0  0  0  0  2  0  0  0  0  0  0
  190.8820  175.6080  143.2050 C   0  0  1  0  0  3  0  0  0  0  0  0
  189.4740  173.5450  143.9180 C   0  0  0  0  0  2  0  0  0  0  0  0
  191.0790  171.7220  144.2930 C   0  0  0  0  0  2  0  0  0  0  0  0
  189.9470  172.3280  144.6430 C   0  0  0  0  0  3  0  0  0  0  0  0
  189.4060  177.5940  143.7680 C   0  0  0  0  0  0  0  0  0  0  0  0
  190.0270  178.4610  143.0940 O   0  0  0  0  0  0  0  0  0  0  0  0
  188.0420  177.7410  144.0570 O   0  0  0  0  0  0  0  0  0  0  0  0
  187.1430  176.6720  144.3660 C   0  0  1  0  0  3  0  0  0  0  0  0
  186.3010  176.9220  145.6260 C   0  0  1  0  0  3  0  0  0  0  0  0
  187.0390  176.6110  146.9280 C   0  0  0  0  0  1  0  0  0  0  0  0
  185.5380  178.1130  145.6120 O   0  0  0  0  0  0  0  0  0  0  0  0
  184.4040  177.9600  146.4260 C   0  0  0  0  0  1  0  0  0  0  0  0
  186.3170  176.2180  143.1660 C   0  0  0  0  0  2  0  0  0  0  0  0
  185.2710  178.1920  142.3340 O   0  0  0  0  0  1  0  0  0  0  0  0
  186.9990  177.3760  141.0660 O   0  0  0  0  0  0  0  0  0  0  0  0
  186.1680  177.3220  142.1760 C   0  0  0  0  0  0  0  0  0  0  0  0
  190.8390  176.7080  145.6230 C   0  0  0  0  0  2  0  0  0  0  0  0
  190.5350  175.2960  147.6710 C   0  0  0  0  0  1  0  0  0  0  0  0
  191.2570  175.4290  146.3360 C   0  0  2  0  0  3  0  0  0  0  0  0
  192.7780  175.3750  146.4920 C   0  0  2  0  0  3  0  0  0  0  0  0
  193.4180  176.6870  146.0160 C   0  0  0  0  0  2  0  0  0  0  0  0
  193.4060  174.1060  145.8810 C   0  0  0  0  0  2  0  0  0  0  0  0
  195.0930  175.4600  144.5740 C   0  0  1  0  0  3  0  0  0  0  0  0
  194.8980  176.5010  145.6930 C   0  0  0  0  0  2  0  0  0  0  0  0
  194.0030  174.3670  144.5000 C   0  0  1  0  0  3  0  0  0  0  0  0
  194.7590  172.0570  145.0710 C   0  0  0  0  0  1  0  0  0  0  0  0
  194.5790  173.0690  143.9570 C   0  0  0  0  0  2  0  0  0  0  0  0
  195.3970  176.0410  143.3230 O   0  0  0  0  0  0  0  0  0  0  0  0
  196.6780  176.6160  143.3890 C   0  0  0  0  0  1  0  0  0  0  0  0
  1 20  1  1  0  0  0
  2  4  1  0  0  0  0
  2  5  1  1  0  0  0
  3  2  1  0  0  0  0
  3  4  1  0  0  0  0
  4  1  1  1  0  0  0
  5  7  1  0  0  0  0
  6  7  2  0  0  0  0
  8 10  1  0  0  0  0
  8  1  1  0  0  0  0
  9  8  2  0  0  0  0
 10 11  1  0  0  0  0
 11 16  1  6  0  0  0
 11 12  1  0  0  0  0
 12 13  1  1  0  0  0
 14 12  1  0  0  0  0
 14 15  1  0  0  0  0
 18 19  2  0  0  0  0
 19 17  1  0  0  0  0
 19 16  1  0  0  0  0
 20 22  1  0  0  0  0
 22 21  1  1  0  0  0
 23 22  1  6  0  0  0
 24 23  1  0  0  0  0
 25 23  1  0  0  0  0
 26 31  1  6  0  0  0
 26 27  1  0  0  0  0
 27 24  1  0  0  0  0
 28 30  1  1  0  0  0
 28 26  1  0  0  0  0
 28 25  1  0  0  0  0
 30 29  1  0  0  0  0
 31 32  1  0  0  0  0
M  END
>  <MODEL>
1

>  <REMARK>
 VINA RESULT:      -5.6      0.000      0.000
  Name = 
  15 active torsions:
  status: ('A' for Active; 'I' for Inactive)
    1  A    between atoms: C_2  and  C_5
    2  A    between atoms: C_3  and  C_20
    3  A    between atoms: C_3  and  O_22
    4  A    between atoms: C_4  and  C_14
    5  A    between atoms: C_4  and  C_24
    6  A    between atoms: C_4  and  C_30
    7  A    between atoms: C_5  and  C_14
    8  A    between atoms: O_11  and  C_12
    9  A    between atoms: C_13  and  C_18
   10  A    between atoms: C_13  and  C_29
   11  A    between atoms: C_15  and  C_20
   12  A    between atoms: C_15  and  C_26
   13  A    between atoms: O_16  and  C_20
   14  A    between atoms: O_16  and  C_24
   15  A    between atoms: C_28  and  C_32
                            x       y       z     vdW  Elec       q    Type
                         _______ _______ _______ _____ _____    ______ ____

>  <TORSDO>
F 15

$$$$
=
 OpenBabel11052419203D

 32 33  0  0  1  0  0  0  0  0999 V2000
  190.0190  176.0690  144.0940 C   0  0  2  0  0  3  0  0  0  0  0  0
  190.7440  173.8440  142.8330 C   0  0  1  0  0  3  0  0  0  0  0  0
  190.1280  174.8180  141.8450 C   0  0  0  0  0  2  0  0  0  0  0  0
  190.9030  175.3600  143.0340 C   0  0  1  0  0  3  0  0  0  0  0  0
  189.6440  173.1730  143.6490 C   0  0  0  0  0  2  0  0  0  0  0  0
  191.3910  171.5530  144.2520 C   0  0  0  0  0  2  0  0  0  0  0  0
  190.2120  172.1070  144.5270 C   0  0  0  0  0  3  0  0  0  0  0  0
  189.1570  177.1400  143.5110 C   0  0  0  0  0  0  0  0  0  0  0  0
  189.6770  178.1940  143.0530 O   0  0  0  0  0  0  0  0  0  0  0  0
  187.7680  176.9600  143.5150 O   0  0  0  0  0  0  0  0  0  0  0  0
  186.8350  177.7420  144.2670 C   0  0  1  0  0  3  0  0  0  0  0  0
  185.9150  178.6080  143.3940 C   0  0  1  0  0  3  0  0  0  0  0  0
  185.4640  179.9010  144.0730 C   0  0  0  0  0  1  0  0  0  0  0  0
  186.3020  178.7190  142.0380 O   0  0  0  0  0  0  0  0  0  0  0  0
  185.2910  178.2020  141.2110 C   0  0  0  0  0  1  0  0  0  0  0  0
  186.0840  176.9310  145.3190 C   0  0  0  0  0  2  0  0  0  0  0  0
  187.2620  176.1510  147.2390 O   0  0  0  0  0  0  0  0  0  0  0  0
  186.6050  178.3480  147.3040 O   0  0  0  0  0  1  0  0  0  0  0  0
  186.6920  177.1170  146.6670 C   0  0  0  0  0  0  0  0  0  0  0  0
  190.6520  176.5030  145.4200 C   0  0  0  0  0  2  0  0  0  0  0  0
  190.3840  175.1850  147.5340 C   0  0  0  0  0  1  0  0  0  0  0  0
  191.1420  175.3030  146.2180 C   0  0  2  0  0  3  0  0  0  0  0  0
  192.6550  175.3790  146.4250 C   0  0  2  0  0  3  0  0  0  0  0  0
  193.2010  176.7300  145.9430 C   0  0  0  0  0  2  0  0  0  0  0  0
  193.4070  174.1550  145.8640 C   0  0  0  0  0  2  0  0  0  0  0  0
  195.0210  175.6210  144.5850 C   0  0  1  0  0  3  0  0  0  0  0  0
  194.7010  176.6620  145.6740 C   0  0  0  0  0  2  0  0  0  0  0  0
  194.0290  174.4390  144.4970 C   0  0  1  0  0  3  0  0  0  0  0  0
  195.7240  172.6860  145.0310 C   0  0  0  0  0  1  0  0  0  0  0  0
  194.7280  173.1840  144.0020 C   0  0  0  0  0  2  0  0  0  0  0  0
  195.3200  176.2010  143.3330 O   0  0  0  0  0  0  0  0  0  0  0  0
  196.6340  176.6970  143.3650 C   0  0  0  0  0  1  0  0  0  0  0  0
  1 20  1  1  0  0  0
  2  4  1  0  0  0  0
  2  5  1  1  0  0  0
  3  2  1  0  0  0  0
  3  4  1  0  0  0  0
  4  1  1  1  0  0  0
  5  7  1  0  0  0  0
  6  7  2  0  0  0  0
  8 10  1  0  0  0  0
  8  1  1  0  0  0  0
  9  8  2  0  0  0  0
 10 11  1  0  0  0  0
 11 16  1  6  0  0  0
 12 13  1  1  0  0  0
 12 11  1  0  0  0  0
 14 12  1  0  0  0  0
 15 14  1  0  0  0  0
 16 19  1  0  0  0  0
 19 17  2  0  0  0  0
 19 18  1  0  0  0  0
 20 22  1  0  0  0  0
 22 21  1  1  0  0  0
 23 22  1  6  0  0  0
 24 23  1  0  0  0  0
 25 23  1  0  0  0  0
 26 31  1  6  0  0  0
 26 27  1  0  0  0  0
 27 24  1  0  0  0  0
 28 30  1  1  0  0  0
 28 26  1  0  0  0  0
 28 25  1  0  0  0  0
 30 29  1  0  0  0  0
 31 32  1  0  0  0  0
M  END
>  <MODEL>
2

>  <REMARK>
 VINA RESULT:      -5.5      1.079      2.337
  Name = 
  15 active torsions:
  status: ('A' for Active; 'I' for Inactive)
    1  A    between atoms: C_2  and  C_5
    2  A    between atoms: C_3  and  C_20
    3  A    between atoms: C_3  and  O_22
    4  A    between atoms: C_4  and  C_14
    5  A    between atoms: C_4  and  C_24
    6  A    between atoms: C_4  and  C_30
    7  A    between atoms: C_5  and  C_14
    8  A    between atoms: O_11  and  C_12
    9  A    between atoms: C_13  and  C_18
   10  A    between atoms: C_13  and  C_29
   11  A    between atoms: C_15  and  C_20
   12  A    between atoms: C_15  and  C_26
   13  A    between atoms: O_16  and  C_20
   14  A    between atoms: O_16  and  C_24
   15  A    between atoms: C_28  and  C_32
                            x       y       z     vdW  Elec       q    Type
                         _______ _______ _______ _____ _____    ______ ____

>  <TORSDO>
F 15

$$$$
=
 OpenBabel11052419203D

 32 33  0  0  1  0  0  0  0  0999 V2000
  189.8520  175.9580  144.9730 C   0  0  2  0  0  3  0  0  0  0  0  0
  190.2950  173.9430  143.2970 C   0  0  1  0  0  3  0  0  0  0  0  0
  188.9050  174.5060  143.0680 C   0  0  0  0  0  2  0  0  0  0  0  0
  190.0160  175.4380  143.5200 C   0  0  1  0  0  3  0  0  0  0  0  0
  190.2980  173.0690  144.5480 C   0  0  0  0  0  2  0  0  0  0  0  0
  191.1040  171.3230  143.0170 C   0  0  0  0  0  2  0  0  0  0  0  0
  190.9310  171.7460  144.2670 C   0  0  0  0  0  3  0  0  0  0  0  0
  188.5310  176.6100  145.2120 C   0  0  0  0  0  0  0  0  0  0  0  0
  187.7500  176.1580  146.0940 O   0  0  0  0  0  0  0  0  0  0  0  0
  188.1690  177.7050  144.4160 O   0  0  0  0  0  0  0  0  0  0  0  0
  186.8580  177.9540  143.8990 C   0  0  1  0  0  3  0  0  0  0  0  0
  185.9520  178.7260  144.8680 C   0  0  1  0  0  3  0  0  0  0  0  0
  185.3850  180.0180  144.2790 C   0  0  0  0  0  1  0  0  0  0  0  0
  185.0470  177.9300  145.6090 O   0  0  0  0  0  0  0  0  0  0  0  0
  183.9290  178.6970  145.9740 C   0  0  0  0  0  1  0  0  0  0  0  0
  186.8720  178.5360  142.4880 C   0  0  0  0  0  2  0  0  0  0  0  0
  189.0870  178.3350  141.6320 O   0  0  0  0  0  1  0  0  0  0  0  0
  187.5870  176.7760  140.8720 O   0  0  0  0  0  0  0  0  0  0  0  0
  187.9140  177.8770  141.6520 C   0  0  0  0  0  0  0  0  0  0  0  0
  191.0010  176.7420  145.6150 C   0  0  0  0  0  2  0  0  0  0  0  0
  191.3460  176.5090  148.0870 C   0  0  0  0  0  1  0  0  0  0  0  0
  191.6750  175.9330  146.7150 C   0  0  2  0  0  3  0  0  0  0  0  0
  193.1820  175.8460  146.4690 C   0  0  2  0  0  3  0  0  0  0  0  0
  193.6560  177.0130  145.5920 C   0  0  0  0  0  2  0  0  0  0  0  0
  193.6380  174.4570  145.9780 C   0  0  0  0  0  2  0  0  0  0  0  0
  194.8970  175.4610  144.0290 C   0  0  1  0  0  3  0  0  0  0  0  0
  194.9970  176.7050  144.9310 C   0  0  0  0  0  2  0  0  0  0  0  0
  193.8400  174.4210  144.4640 C   0  0  1  0  0  3  0  0  0  0  0  0
  194.4770  172.1480  145.2780 C   0  0  0  0  0  1  0  0  0  0  0  0
  194.2630  173.0200  144.0560 C   0  0  0  0  0  2  0  0  0  0  0  0
  194.8480  175.7750  142.6530 O   0  0  0  0  0  0  0  0  0  0  0  0
  196.0410  176.4240  142.2930 C   0  0  0  0  0  1  0  0  0  0  0  0
  1  8  1  0  0  0  0
  1 20  1  6  0  0  0
  2  4  1  0  0  0  0
  2  5  1  1  0  0  0
  3  2  1  0  0  0  0
  3  4  1  0  0  0  0
  4  1  1  1  0  0  0
  6  7  2  0  0  0  0
  7  5  1  0  0  0  0
  8  9  2  0  0  0  0
 10  8  1  0  0  0  0
 11 16  1  6  0  0  0
 11 10  1  0  0  0  0
 11 12  1  0  0  0  0
 12 13  1  6  0  0  0
 12 14  1  0  0  0  0
 14 15  1  0  0  0  0
 17 19  1  0  0  0  0
 18 19  2  0  0  0  0
 19 16  1  0  0  0  0
 20 22  1  0  0  0  0
 22 21  1  1  0  0  0
 23 22  1  6  0  0  0
 24 23  1  0  0  0  0
 25 23  1  0  0  0  0
 26 31  1  6  0  0  0
 26 28  1  0  0  0  0
 26 27  1  0  0  0  0
 27 24  1  0  0  0  0
 28 30  1  1  0  0  0
 28 25  1  0  0  0  0
 30 29  1  0  0  0  0
 32 31  1  0  0  0  0
M  END
>  <MODEL>
3

>  <REMARK>
 VINA RESULT:      -5.4      1.246      1.714
  Name = 
  15 active torsions:
  status: ('A' for Active; 'I' for Inactive)
    1  A    between atoms: C_2  and  C_5
    2  A    between atoms: C_3  and  C_20
    3  A    between atoms: C_3  and  O_22
    4  A    between atoms: C_4  and  C_14
    5  A    between atoms: C_4  and  C_24
    6  A    between atoms: C_4  and  C_30
    7  A    between atoms: C_5  and  C_14
    8  A    between atoms: O_11  and  C_12
    9  A    between atoms: C_13  and  C_18
   10  A    between atoms: C_13  and  C_29
   11  A    between atoms: C_15  and  C_20
   12  A    between atoms: C_15  and  C_26
   13  A    between atoms: O_16  and  C_20
   14  A    between atoms: O_16  and  C_24
   15  A    between atoms: C_28  and  C_32
                            x       y       z     vdW  Elec       q    Type
                         _______ _______ _______ _____ _____    ______ ____

>  <TORSDO>
F 15

$$$$
=
 OpenBabel11052419203D

 32 33  0  0  1  0  0  0  0  0999 V2000
  188.0760  176.9290  143.6890 C   0  0  2  0  0  3  0  0  0  0  0  0
  185.5590  177.6060  143.1710 C   0  0  1  0  0  3  0  0  0  0  0  0
  186.1320  176.8260  142.0020 C   0  0  0  0  0  2  0  0  0  0  0  0
  186.6090  176.5090  143.4100 C   0  0  1  0  0  3  0  0  0  0  0  0
  186.0830  179.0380  143.1420 C   0  0  0  0  0  2  0  0  0  0  0  0
  185.3110  179.3270  145.4570 C   0  0  0  0  0  2  0  0  0  0  0  0
  185.4780  179.8460  144.2430 C   0  0  0  0  0  3  0  0  0  0  0  0
  189.0720  176.0460  143.0140 C   0  0  0  0  0  0  0  0  0  0  0  0
  190.1060  176.5410  142.4880 O   0  0  0  0  0  0  0  0  0  0  0  0
  188.8160  174.6690  142.9520 O   0  0  0  0  0  0  0  0  0  0  0  0
  189.3160  173.7800  141.9490 C   0  0  1  0  0  3  0  0  0  0  0  0
  190.0180  172.5400  142.5220 C   0  0  1  0  0  3  0  0  0  0  0  0
  189.3660  172.0000  143.7950 C   0  0  0  0  0  1  0  0  0  0  0  0
  190.4090  171.5740  141.5650 O   0  0  0  0  0  0  0  0  0  0  0  0
  191.7260  171.8250  141.1480 C   0  0  0  0  0  1  0  0  0  0  0  0
  188.2840  173.4490  140.8740 C   0  0  0  0  0  2  0  0  0  0  0  0
  187.9120  174.9370  139.0490 O   0  0  0  0  0  1  0  0  0  0  0  0
  189.8160  173.6660  138.9180 O   0  0  0  0  0  0  0  0  0  0  0  0
  188.6590  174.0680  139.5710 C   0  0  0  0  0  0  0  0  0  0  0  0
  188.4920  177.2670  145.1240 C   0  0  0  0  0  2  0  0  0  0  0  0
  187.0070  176.4560  146.9720 C   0  0  0  0  0  1  0  0  0  0  0  0
  188.1890  176.1160  146.0740 C   0  0  2  0  0  3  0  0  0  0  0  0
  189.4360  175.7390  146.8740 C   0  0  2  0  0  3  0  0  0  0  0  0
  190.2120  176.9960  147.2930 C   0  0  0  0  0  2  0  0  0  0  0  0
  190.2990  174.6630  146.1840 C   0  0  0  0  0  2  0  0  0  0  0  0
  192.3940  176.0540  146.4330 C   0  0  1  0  0  3  0  0  0  0  0  0
  191.6610  176.6680  147.6410 C   0  0  0  0  0  2  0  0  0  0  0  0
  191.4950  175.2670  145.4520 C   0  0  1  0  0  3  0  0  0  0  0  0
  193.2780  173.5440  145.7480 C   0  0  0  0  0  1  0  0  0  0  0  0
  192.2790  174.1520  144.7810 C   0  0  0  0  0  2  0  0  0  0  0  0
  193.2680  176.9620  145.7950 O   0  0  0  0  0  0  0  0  0  0  0  0
  194.4850  176.9890  146.4960 C   0  0  0  0  0  1  0  0  0  0  0  0
  1 20  1  1  0  0  0
  2  5  1  6  0  0  0
  2  4  1  0  0  0  0
  3  2  1  0  0  0  0
  3  4  1  0  0  0  0
  4  1  1  6  0  0  0
  5  7  1  0  0  0  0
  7  6  2  0  0  0  0
  8  1  1  0  0  0  0
  9  8  2  0  0  0  0
 10  8  1  0  0  0  0
 11 16  1  1  0  0  0
 11 12  1  0  0  0  0
 11 10  1  0  0  0  0
 12 13  1  1  0  0  0
 14 12  1  0  0  0  0
 15 14  1  0  0  0  0
 17 19  1  0  0  0  0
 18 19  2  0  0  0  0
 19 16  1  0  0  0  0
 20 22  1  0  0  0  0
 22 21  1  1  0  0  0
 23 22  1  6  0  0  0
 23 24  1  0  0  0  0
 24 27  1  0  0  0  0
 25 23  1  0  0  0  0
 26 31  1  6  0  0  0
 26 27  1  0  0  0  0
 28 30  1  1  0  0  0
 28 25  1  0  0  0  0
 28 26  1  0  0  0  0
 30 29  1  0  0  0  0
 31 32  1  0  0  0  0
M  END
>  <MODEL>
4

>  <REMARK>
 VINA RESULT:      -5.4      2.408      5.122
  Name = 
  15 active torsions:
  status: ('A' for Active; 'I' for Inactive)
    1  A    between atoms: C_2  and  C_5
    2  A    between atoms: C_3  and  C_20
    3  A    between atoms: C_3  and  O_22
    4  A    between atoms: C_4  and  C_14
    5  A    between atoms: C_4  and  C_24
    6  A    between atoms: C_4  and  C_30
    7  A    between atoms: C_5  and  C_14
    8  A    between atoms: O_11  and  C_12
    9  A    between atoms: C_13  and  C_18
   10  A    between atoms: C_13  and  C_29
   11  A    between atoms: C_15  and  C_20
   12  A    between atoms: C_15  and  C_26
   13  A    between atoms: O_16  and  C_20
   14  A    between atoms: O_16  and  C_24
   15  A    between atoms: C_28  and  C_32
                            x       y       z     vdW  Elec       q    Type
                         _______ _______ _______ _____ _____    ______ ____

>  <TORSDO>
F 15

$$$$
=
 OpenBabel11052419203D

 32 33  0  0  1  0  0  0  0  0999 V2000
  189.2710  176.8820  143.2840 C   0  0  2  0  0  3  0  0  0  0  0  0
  191.7910  177.4810  143.8810 C   0  0  1  0  0  3  0  0  0  0  0  0
  191.0450  178.7400  143.4800 C   0  0  0  0  0  2  0  0  0  0  0  0
  190.2910  177.6260  144.1860 C   0  0  1  0  0  3  0  0  0  0  0  0
  192.1460  176.6720  142.6380 C   0  0  0  0  0  2  0  0  0  0  0  0
  194.3150  175.8620  141.8150 C   0  0  0  0  0  2  0  0  0  0  0  0
  193.4490  175.9650  142.8200 C   0  0  0  0  0  3  0  0  0  0  0  0
  188.1960  177.7770  142.7630 C   0  0  0  0  0  0  0  0  0  0  0  0
  188.1730  178.1000  141.5440 O   0  0  0  0  0  0  0  0  0  0  0  0
  187.2390  178.2700  143.6610 O   0  0  0  0  0  0  0  0  0  0  0  0
  185.8460  177.9450  143.6450 C   0  0  1  0  0  3  0  0  0  0  0  0
  185.2650  177.6620  145.0390 C   0  0  1  0  0  3  0  0  0  0  0  0
  186.1540  176.7670  145.9030 C   0  0  0  0  0  1  0  0  0  0  0  0
  184.6870  178.7780  145.6870 O   0  0  0  0  0  0  0  0  0  0  0  0
  184.9900  178.7400  147.0580 C   0  0  0  0  0  1  0  0  0  0  0  0
  185.0110  178.9280  142.8290 C   0  0  0  0  0  2  0  0  0  0  0  0
  183.1000  177.9790  141.7660 O   0  0  0  0  0  1  0  0  0  0  0  0
  185.0590  177.8470  140.5830 O   0  0  0  0  0  0  0  0  0  0  0  0
  184.3310  178.2360  141.6990 C   0  0  0  0  0  0  0  0  0  0  0  0
  188.7170  175.5310  143.7460 C   0  0  0  0  0  2  0  0  0  0  0  0
  189.4030  173.2860  142.8690 C   0  0  0  0  0  1  0  0  0  0  0  0
  189.8010  174.4620  143.7520 C   0  0  2  0  0  3  0  0  0  0  0  0
  190.1190  174.0290  145.1850 C   0  0  2  0  0  3  0  0  0  0  0  0
  189.2620  174.8110  146.1900 C   0  0  0  0  0  2  0  0  0  0  0  0
  191.6280  174.0350  145.5000 C   0  0  0  0  0  2  0  0  0  0  0  0
  191.2780  175.4100  147.5910 C   0  0  1  0  0  3  0  0  0  0  0  0
  189.8720  174.7790  147.5880 C   0  0  0  0  0  2  0  0  0  0  0  0
  192.0530  175.2900  146.2590 C   0  0  1  0  0  3  0  0  0  0  0  0
  194.1490  176.6260  146.4870 C   0  0  0  0  0  1  0  0  0  0  0  0
  193.5500  175.2330  146.5110 C   0  0  0  0  0  2  0  0  0  0  0  0
  191.3010  176.7090  148.1440 O   0  0  0  0  0  0  0  0  0  0  0  0
  190.1690  177.4130  147.6990 C   0  0  0  0  0  1  0  0  0  0  0  0
  1 20  1  1  0  0  0
  2  5  1  6  0  0  0
  2  4  1  0  0  0  0
  3  2  1  0  0  0  0
  3  4  1  0  0  0  0
  4  1  1  6  0  0  0
  5  7  1  0  0  0  0
  6  7  2  0  0  0  0
  8  1  1  0  0  0  0
  8 10  1  0  0  0  0
  9  8  2  0  0  0  0
 11 16  1  1  0  0  0
 11 10  1  0  0  0  0
 11 12  1  0  0  0  0
 12 14  1  0  0  0  0
 12 13  1  1  0  0  0
 14 15  1  0  0  0  0
 18 19  2  0  0  0  0
 19 17  1  0  0  0  0
 19 16  1  0  0  0  0
 20 22  1  0  0  0  0
 22 21  1  6  0  0  0
 23 22  1  6  0  0  0
 23 25  1  0  0  0  0
 23 24  1  0  0  0  0
 24 27  1  0  0  0  0
 25 28  1  0  0  0  0
 26 31  1  6  0  0  0
 27 26  1  0  0  0  0
 28 30  1  1  0  0  0
 28 26  1  0  0  0  0
 29 30  1  0  0  0  0
 32 31  1  0  0  0  0
M  END
>  <MODEL>
5

>  <REMARK>
 VINA RESULT:      -5.3      2.095      3.724
  Name = 
  15 active torsions:
  status: ('A' for Active; 'I' for Inactive)
    1  A    between atoms: C_2  and  C_5
    2  A    between atoms: C_3  and  C_20
    3  A    between atoms: C_3  and  O_22
    4  A    between atoms: C_4  and  C_14
    5  A    between atoms: C_4  and  C_24
    6  A    between atoms: C_4  and  C_30
    7  A    between atoms: C_5  and  C_14
    8  A    between atoms: O_11  and  C_12
    9  A    between atoms: C_13  and  C_18
   10  A    between atoms: C_13  and  C_29
   11  A    between atoms: C_15  and  C_20
   12  A    between atoms: C_15  and  C_26
   13  A    between atoms: O_16  and  C_20
   14  A    between atoms: O_16  and  C_24
   15  A    between atoms: C_28  and  C_32
                            x       y       z     vdW  Elec       q    Type
                         _______ _______ _______ _____ _____    ______ ____

>  <TORSDO>
F 15

$$$$
=
 OpenBabel11052419203D

 32 33  0  0  1  0  0  0  0  0999 V2000
  190.2560  176.5460  145.7740 C   0  0  2  0  0  3  0  0  0  0  0  0
  192.2570  175.2650  146.9650 C   0  0  1  0  0  3  0  0  0  0  0  0
  191.0610  175.3290  147.8980 C   0  0  0  0  0  2  0  0  0  0  0  0
  190.8280  175.2460  146.3980 C   0  0  1  0  0  3  0  0  0  0  0  0
  192.9680  176.6140  146.9440 C   0  0  0  0  0  2  0  0  0  0  0  0
  194.8090  175.3100  145.9700 C   0  0  0  0  0  2  0  0  0  0  0  0
  194.3000  176.5010  146.2790 C   0  0  0  0  0  3  0  0  0  0  0  0
  188.9970  177.0020  146.4340 C   0  0  0  0  0  0  0  0  0  0  0  0
  189.0440  177.7880  147.4190 O   0  0  0  0  0  0  0  0  0  0  0  0
  187.7740  176.5130  145.9550 O   0  0  0  0  0  0  0  0  0  0  0  0
  186.7110  177.3150  145.4320 C   0  0  1  0  0  3  0  0  0  0  0  0
  186.7580  177.4790  143.9060 C   0  0  1  0  0  3  0  0  0  0  0  0
  186.1970  176.2780  143.1430 C   0  0  0  0  0  1  0  0  0  0  0  0
  186.3780  178.7540  143.4260 O   0  0  0  0  0  0  0  0  0  0  0  0
  185.2830  178.6270  142.5570 C   0  0  0  0  0  1  0  0  0  0  0  0
  185.3370  176.9040  145.9550 C   0  0  0  0  0  2  0  0  0  0  0  0
  183.7440  178.6650  145.7470 O   0  0  0  0  0  0  0  0  0  0  0  0
  184.8530  178.5640  147.7520 O   0  0  0  0  0  1  0  0  0  0  0  0
  184.5920  178.0850  146.4750 C   0  0  0  0  0  0  0  0  0  0  0  0
  190.1790  176.6670  144.2500 C   0  0  0  0  0  2  0  0  0  0  0  0
  191.9920  177.9160  143.0520 C   0  0  0  0  0  1  0  0  0  0  0  0
  191.5600  176.5690  143.6160 C   0  0  2  0  0  3  0  0  0  0  0  0
  191.5880  175.4620  142.5610 C   0  0  2  0  0  3  0  0  0  0  0  0
  190.1770  174.9120  142.3150 C   0  0  0  0  0  2  0  0  0  0  0  0
  192.6500  174.3790  142.8440 C   0  0  0  0  0  2  0  0  0  0  0  0
  190.9560  172.5220  142.5780 C   0  0  1  0  0  3  0  0  0  0  0  0
  190.2200  173.5290  141.6730 C   0  0  0  0  0  2  0  0  0  0  0  0
  192.0430  173.1350  143.4890 C   0  0  1  0  0  3  0  0  0  0  0  0
  193.5530  172.1540  145.2190 C   0  0  0  0  0  1  0  0  0  0  0  0
  193.1500  172.1280  143.7580 C   0  0  0  0  0  2  0  0  0  0  0  0
  190.0820  171.6420  143.2530 O   0  0  0  0  0  0  0  0  0  0  0  0
  189.7450  172.2020  144.4960 C   0  0  0  0  0  1  0  0  0  0  0  0
  1 20  1  6  0  0  0
  1  8  1  0  0  0  0
  2  5  1  6  0  0  0
  2  3  1  0  0  0  0
  4  1  1  6  0  0  0
  4  2  1  0  0  0  0
  4  3  1  0  0  0  0
  6  7  2  0  0  0  0
  7  5  1  0  0  0  0
  8  9  2  0  0  0  0
 10  8  1  0  0  0  0
 11 16  1  6  0  0  0
 11 10  1  0  0  0  0
 12 13  1  6  0  0  0
 12 11  1  0  0  0  0
 14 12  1  0  0  0  0
 15 14  1  0  0  0  0
 16 19  1  0  0  0  0
 17 19  2  0  0  0  0
 19 18  1  0  0  0  0
 22 21  1  6  0  0  0
 22 20  1  0  0  0  0
 23 25  1  0  0  0  0
 23 22  1  1  0  0  0
 24 23  1  0  0  0  0
 25 28  1  0  0  0  0
 26 31  1  1  0  0  0
 26 28  1  0  0  0  0
 27 24  1  0  0  0  0
 27 26  1  0  0  0  0
 28 30  1  6  0  0  0
 30 29  1  0  0  0  0
 31 32  1  0  0  0  0
M  END
>  <MODEL>
6

>  <REMARK>
 VINA RESULT:      -5.3      1.959      4.462
  Name = 
  15 active torsions:
  status: ('A' for Active; 'I' for Inactive)
    1  A    between atoms: C_2  and  C_5
    2  A    between atoms: C_3  and  C_20
    3  A    between atoms: C_3  and  O_22
    4  A    between atoms: C_4  and  C_14
    5  A    between atoms: C_4  and  C_24
    6  A    between atoms: C_4  and  C_30
    7  A    between atoms: C_5  and  C_14
    8  A    between atoms: O_11  and  C_12
    9  A    between atoms: C_13  and  C_18
   10  A    between atoms: C_13  and  C_29
   11  A    between atoms: C_15  and  C_20
   12  A    between atoms: C_15  and  C_26
   13  A    between atoms: O_16  and  C_20
   14  A    between atoms: O_16  and  C_24
   15  A    between atoms: C_28  and  C_32
                            x       y       z     vdW  Elec       q    Type
                         _______ _______ _______ _____ _____    ______ ____

>  <TORSDO>
F 15

$$$$
=
 OpenBabel11052419203D

 32 33  0  0  1  0  0  0  0  0999 V2000
  189.9980  175.8160  145.5220 C   0  0  2  0  0  3  0  0  0  0  0  0
  191.4350  175.4400  147.7270 C   0  0  1  0  0  3  0  0  0  0  0  0
  190.9230  176.8690  147.6840 C   0  0  0  0  0  2  0  0  0  0  0  0
  190.0820  175.7610  147.0700 C   0  0  1  0  0  3  0  0  0  0  0  0
  192.6190  175.2880  146.7780 C   0  0  0  0  0  2  0  0  0  0  0  0
  194.2040  176.8710  145.7650 C   0  0  0  0  0  2  0  0  0  0  0  0
  193.4980  176.4950  146.8290 C   0  0  0  0  0  3  0  0  0  0  0  0
  189.5870  177.1560  145.0090 C   0  0  0  0  0  0  0  0  0  0  0  0
  190.3790  177.8360  144.3010 O   0  0  0  0  0  0  0  0  0  0  0  0
  188.3220  177.6490  145.3590 O   0  0  0  0  0  0  0  0  0  0  0  0
  187.1040  177.3680  144.6620 C   0  0  1  0  0  3  0  0  0  0  0  0
  185.9460  176.9670  145.5870 C   0  0  1  0  0  3  0  0  0  0  0  0
  186.3610  176.7920  147.0480 C   0  0  0  0  0  1  0  0  0  0  0  0
  184.7310  177.6550  145.3620 O   0  0  0  0  0  0  0  0  0  0  0  0
  184.3350  178.3150  146.5370 C   0  0  0  0  0  1  0  0  0  0  0  0
  186.7270  178.4510  143.6540 C   0  0  0  0  0  2  0  0  0  0  0  0
  186.1270  177.4510  141.5750 O   0  0  0  0  0  0  0  0  0  0  0  0
  188.2950  178.1800  141.7340 O   0  0  0  0  0  1  0  0  0  0  0  0
  187.0230  178.0070  142.2630 C   0  0  0  0  0  0  0  0  0  0  0  0
  189.2970  174.6780  144.7750 C   0  0  0  0  0  2  0  0  0  0  0  0
  188.4800  174.6720  142.4060 C   0  0  0  0  0  1  0  0  0  0  0  0
  189.7060  174.6430  143.3090 C   0  0  2  0  0  3  0  0  0  0  0  0
  190.6020  173.4350  143.0320 C   0  0  2  0  0  3  0  0  0  0  0  0
  190.5900  172.4660  144.2230 C   0  0  0  0  0  2  0  0  0  0  0  0
  192.0130  173.8240  142.5470 C   0  0  0  0  0  2  0  0  0  0  0  0
  193.1140  172.3480  144.2790 C   0  0  1  0  0  3  0  0  0  0  0  0
  191.8030  171.5420  144.2030 C   0  0  0  0  0  2  0  0  0  0  0  0
  193.0450  173.7680  143.6720 C   0  0  1  0  0  3  0  0  0  0  0  0
  194.8890  173.1860  142.0940 C   0  0  0  0  0  1  0  0  0  0  0  0
  194.3990  174.1850  143.1230 C   0  0  0  0  0  2  0  0  0  0  0  0
  193.7180  172.3070  145.5550 O   0  0  0  0  0  0  0  0  0  0  0  0
  194.6790  171.2820  145.5690 C   0  0  0  0  0  1  0  0  0  0  0  0
  1 20  1  1  0  0  0
  2  5  1  6  0  0  0
  3  2  1  0  0  0  0
  4  1  1  6  0  0  0
  4  3  1  0  0  0  0
  4  2  1  0  0  0  0
  5  7  1  0  0  0  0
  6  7  2  0  0  0  0
  8 10  1  0  0  0  0
  8  1  1  0  0  0  0
  9  8  2  0  0  0  0
 11 16  1  1  0  0  0
 11 10  1  0  0  0  0
 11 12  1  0  0  0  0
 12 13  1  1  0  0  0
 14 12  1  0  0  0  0
 14 15  1  0  0  0  0
 17 19  2  0  0  0  0
 18 19  1  0  0  0  0
 19 16  1  0  0  0  0
 22 21  1  6  0  0  0
 22 20  1  0  0  0  0
 23 22  1  1  0  0  0
 23 24  1  0  0  0  0
 25 23  1  0  0  0  0
 25 28  1  0  0  0  0
 26 31  1  1  0  0  0
 27 24  1  0  0  0  0
 27 26  1  0  0  0  0
 28 30  1  6  0  0  0
 28 26  1  0  0  0  0
 29 30  1  0  0  0  0
 31 32  1  0  0  0  0
M  END
>  <MODEL>
7

>  <REMARK>
 VINA RESULT:      -5.2      1.534      3.658
  Name = 
  15 active torsions:
  status: ('A' for Active; 'I' for Inactive)
    1  A    between atoms: C_2  and  C_5
    2  A    between atoms: C_3  and  C_20
    3  A    between atoms: C_3  and  O_22
    4  A    between atoms: C_4  and  C_14
    5  A    between atoms: C_4  and  C_24
    6  A    between atoms: C_4  and  C_30
    7  A    between atoms: C_5  and  C_14
    8  A    between atoms: O_11  and  C_12
    9  A    between atoms: C_13  and  C_18
   10  A    between atoms: C_13  and  C_29
   11  A    between atoms: C_15  and  C_20
   12  A    between atoms: C_15  and  C_26
   13  A    between atoms: O_16  and  C_20
   14  A    between atoms: O_16  and  C_24
   15  A    between atoms: C_28  and  C_32
                            x       y       z     vdW  Elec       q    Type
                         _______ _______ _______ _____ _____    ______ ____

>  <TORSDO>
F 15

$$$$
=
 OpenBabel11052419203D

 32 33  0  0  1  0  0  0  0  0999 V2000
  190.0910  175.9770  145.6780 C   0  0  2  0  0  3  0  0  0  0  0  0
  192.2860  175.2100  146.9660 C   0  0  1  0  0  3  0  0  0  0  0  0
  191.1360  175.3470  147.9470 C   0  0  0  0  0  2  0  0  0  0  0  0
  190.8450  174.9140  146.5200 C   0  0  1  0  0  3  0  0  0  0  0  0
  192.8270  176.5910  146.6080 C   0  0  0  0  0  2  0  0  0  0  0  0
  194.9390  175.5140  145.9600 C   0  0  0  0  0  2  0  0  0  0  0  0
  194.3160  176.5630  146.4930 C   0  0  0  0  0  3  0  0  0  0  0  0
  188.7310  176.2830  146.2110 C   0  0  0  0  0  0  0  0  0  0  0  0
  188.1840  175.5050  147.0400 O   0  0  0  0  0  0  0  0  0  0  0  0
  188.0700  177.4290  145.7470 O   0  0  0  0  0  0  0  0  0  0  0  0
  186.9030  177.4310  144.9200 C   0  0  1  0  0  3  0  0  0  0  0  0
  185.6330  177.8900  145.6520 C   0  0  1  0  0  3  0  0  0  0  0  0
  184.9940  176.8010  146.5140 C   0  0  0  0  0  1  0  0  0  0  0  0
  185.7050  179.1800  146.2290 O   0  0  0  0  0  0  0  0  0  0  0  0
  185.6970  179.0740  147.6290 C   0  0  0  0  0  1  0  0  0  0  0  0
  187.1180  178.1330  143.5820 C   0  0  0  0  0  2  0  0  0  0  0  0
  186.5600  176.0300  142.6070 O   0  0  0  0  0  1  0  0  0  0  0  0
  186.3590  177.8480  141.2240 O   0  0  0  0  0  0  0  0  0  0  0  0
  186.6560  177.2760  142.4530 C   0  0  0  0  0  0  0  0  0  0  0  0
  190.0930  175.8530  144.1520 C   0  0  0  0  0  2  0  0  0  0  0  0
  191.4790  177.5420  142.9240 C   0  0  0  0  0  1  0  0  0  0  0  0
  191.4660  176.1640  143.5730 C   0  0  2  0  0  3  0  0  0  0  0  0
  191.9000  175.0630  142.6040 C   0  0  2  0  0  3  0  0  0  0  0  0
  190.7190  174.6070  141.7360 C   0  0  0  0  0  2  0  0  0  0  0  0
  192.6610  173.9120  143.2940 C   0  0  0  0  0  2  0  0  0  0  0  0
  191.1640  172.1700  142.2390 C   0  0  1  0  0  3  0  0  0  0  0  0
  190.9680  173.2270  141.1350 C   0  0  0  0  0  2  0  0  0  0  0  0
  191.7620  172.7060  143.5600 C   0  0  1  0  0  3  0  0  0  0  0  0
  193.7010  172.2460  145.0640 C   0  0  0  0  0  1  0  0  0  0  0  0
  192.5740  171.6290  144.2590 C   0  0  0  0  0  2  0  0  0  0  0  0
  190.0330  171.3450  142.4250 O   0  0  0  0  0  0  0  0  0  0  0  0
  189.1700  171.9590  143.3480 C   0  0  0  0  0  1  0  0  0  0  0  0
  1 20  1  6  0  0  0
  1  8  1  0  0  0  0
  2  5  1  6  0  0  0
  2  3  1  0  0  0  0
  4  1  1  6  0  0  0
  4  2  1  0  0  0  0
  4  3  1  0  0  0  0
  6  7  2  0  0  0  0
  7  5  1  0  0  0  0
  8  9  2  0  0  0  0
 10  8  1  0  0  0  0
 11 16  1  6  0  0  0
 11 12  1  0  0  0  0
 11 10  1  0  0  0  0
 12 14  1  0  0  0  0
 12 13  1  1  0  0  0
 14 15  1  0  0  0  0
 18 19  2  0  0  0  0
 19 17  1  0  0  0  0
 19 16  1  0  0  0  0
 22 21  1  6  0  0  0
 22 20  1  0  0  0  0
 23 25  1  0  0  0  0
 23 22  1  1  0  0  0
 24 23  1  0  0  0  0
 25 28  1  0  0  0  0
 26 31  1  1  0  0  0
 26 28  1  0  0  0  0
 27 24  1  0  0  0  0
 27 26  1  0  0  0  0
 28 30  1  6  0  0  0
 30 29  1  0  0  0  0
 31 32  1  0  0  0  0
M  END
>  <MODEL>
8

>  <REMARK>
 VINA RESULT:      -5.1      1.964      4.147
  Name = 
  15 active torsions:
  status: ('A' for Active; 'I' for Inactive)
    1  A    between atoms: C_2  and  C_5
    2  A    between atoms: C_3  and  C_20
    3  A    between atoms: C_3  and  O_22
    4  A    between atoms: C_4  and  C_14
    5  A    between atoms: C_4  and  C_24
    6  A    between atoms: C_4  and  C_30
    7  A    between atoms: C_5  and  C_14
    8  A    between atoms: O_11  and  C_12
    9  A    between atoms: C_13  and  C_18
   10  A    between atoms: C_13  and  C_29
   11  A    between atoms: C_15  and  C_20
   12  A    between atoms: C_15  and  C_26
   13  A    between atoms: O_16  and  C_20
   14  A    between atoms: O_16  and  C_24
   15  A    between atoms: C_28  and  C_32
                            x       y       z     vdW  Elec       q    Type
                         _______ _______ _______ _____ _____    ______ ____

>  <TORSDO>
F 15

$$$$
=
 OpenBabel11052419203D

 32 33  0  0  1  0  0  0  0  0999 V2000
  190.2310  175.5610  142.9430 C   0  0  2  0  0  3  0  0  0  0  0  0
  190.1480  173.1070  141.9250 C   0  0  1  0  0  3  0  0  0  0  0  0
  191.5250  173.3770  142.5040 C   0  0  0  0  0  2  0  0  0  0  0  0
  190.3110  174.0250  143.1480 C   0  0  1  0  0  3  0  0  0  0  0  0
  190.0080  173.8060  140.5770 C   0  0  0  0  0  2  0  0  0  0  0  0
  188.1910  174.1040  138.9500 C   0  0  0  0  0  2  0  0  0  0  0  0
  188.7830  173.3380  139.8620 C   0  0  0  0  0  3  0  0  0  0  0  0
  191.4370  176.2790  143.4510 C   0  0  0  0  0  0  0  0  0  0  0  0
  191.9030  177.2660  142.8180 O   0  0  0  0  0  0  0  0  0  0  0  0
  192.0520  175.8130  144.6210 O   0  0  0  0  0  0  0  0  0  0  0  0
  192.1200  176.5270  145.8590 C   0  0  1  0  0  3  0  0  0  0  0  0
  190.9190  176.2740  146.7810 C   0  0  1  0  0  3  0  0  0  0  0  0
  189.8280  177.3410  146.6740 C   0  0  0  0  0  1  0  0  0  0  0  0
  190.4740  174.9320  146.8340 O   0  0  0  0  0  0  0  0  0  0  0  0
  189.0900  174.9000  147.0750 C   0  0  0  0  0  1  0  0  0  0  0  0
  193.4660  176.3770  146.5640 C   0  0  0  0  0  2  0  0  0  0  0  0
  195.3070  175.7760  145.1740 O   0  0  0  0  0  0  0  0  0  0  0  0
  194.0290  174.0300  145.9330 O   0  0  0  0  0  1  0  0  0  0  0  0
  194.3260  175.3840  145.8590 C   0  0  0  0  0  0  0  0  0  0  0  0
  188.9350  176.2930  143.3050 C   0  0  0  0  0  2  0  0  0  0  0  0
  188.6170  178.2230  141.7400 C   0  0  0  0  0  1  0  0  0  0  0  0
  188.2140  176.7900  142.0600 C   0  0  2  0  0  3  0  0  0  0  0  0
  186.7000  176.6350  142.2200 C   0  0  2  0  0  3  0  0  0  0  0  0
  185.9710  177.8890  141.7170 C   0  0  0  0  0  2  0  0  0  0  0  0
  186.2820  176.1830  143.6340 C   0  0  0  0  0  2  0  0  0  0  0  0
  184.5990  178.0580  143.8330 C   0  0  1  0  0  3  0  0  0  0  0  0
  184.5620  177.9840  142.2950 C   0  0  0  0  0  2  0  0  0  0  0  0
  185.8040  177.3520  144.4940 C   0  0  1  0  0  3  0  0  0  0  0  0
  186.1760  177.5990  146.9500 C   0  0  0  0  0  1  0  0  0  0  0  0
  185.4340  176.8320  145.8730 C   0  0  0  0  0  2  0  0  0  0  0  0
  184.3620  179.3580  144.3320 O   0  0  0  0  0  0  0  0  0  0  0  0
  185.5570  180.0940  144.2660 C   0  0  0  0  0  1  0  0  0  0  0  0
  1 20  1  1  0  0  0
  1  8  1  0  0  0  0
  2  5  1  6  0  0  0
  2  3  1  0  0  0  0
  2  4  1  0  0  0  0
  3  4  1  0  0  0  0
  4  1  1  6  0  0  0
  6  7  2  0  0  0  0
  7  5  1  0  0  0  0
  8 10  1  0  0  0  0
  9  8  2  0  0  0  0
 10 11  1  0  0  0  0
 11 16  1  1  0  0  0
 11 12  1  0  0  0  0
 12 13  1  6  0  0  0
 12 14  1  0  0  0  0
 14 15  1  0  0  0  0
 17 19  2  0  0  0  0
 19 18  1  0  0  0  0
 19 16  1  0  0  0  0
 22 21  1  1  0  0  0
 22 20  1  0  0  0  0
 23 22  1  1  0  0  0
 23 25  1  0  0  0  0
 24 23  1  0  0  0  0
 24 27  1  0  0  0  0
 25 28  1  0  0  0  0
 26 31  1  6  0  0  0
 26 28  1  0  0  0  0
 27 26  1  0  0  0  0
 28 30  1  1  0  0  0
 30 29  1  0  0  0  0
 32 31  1  0  0  0  0
M  END
>  <MODEL>
9

>  <REMARK>
 VINA RESULT:      -5.1      2.092      7.219
  Name = 
  15 active torsions:
  status: ('A' for Active; 'I' for Inactive)
    1  A    between atoms: C_2  and  C_5
    2  A    between atoms: C_3  and  C_20
    3  A    between atoms: C_3  and  O_22
    4  A    between atoms: C_4  and  C_14
    5  A    between atoms: C_4  and  C_24
    6  A    between atoms: C_4  and  C_30
    7  A    between atoms: C_5  and  C_14
    8  A    between atoms: O_11  and  C_12
    9  A    between atoms: C_13  and  C_18
   10  A    between atoms: C_13  and  C_29
   11  A    between atoms: C_15  and  C_20
   12  A    between atoms: C_15  and  C_26
   13  A    between atoms: O_16  and  C_20
   14  A    between atoms: O_16  and  C_24
   15  A    between atoms: C_28  and  C_32
                            x       y       z     vdW  Elec       q    Type
                         _______ _______ _______ _____ _____    ______ ____

>  <TORSDO>
F 15

$$$$
