=
 OpenBabel11052417203D

 30 34  0  0  1  0  0  0  0  0999 V2000
  192.9510  175.9100  145.9230 C   0  0  1  0  0  3  0  0  0  0  0  0
  190.8800  177.0470  146.8700 C   0  0  1  0  0  3  0  0  0  0  0  0
  189.9420  174.5240  144.4980 C   0  0  0  0  0  2  0  0  0  0  0  0
  193.6090  174.5590  145.4860 C   0  0  2  0  0  3  0  0  0  0  0  0
  193.4070  177.0170  145.1720 O   0  0  0  0  0  0  0  0  0  0  0  0
  196.0650  172.4920  145.6460 C   0  0  0  0  0  2  0  0  0  0  0  0
  195.4510  175.9830  144.4160 C   0  0  1  0  0  3  0  0  0  0  0  0
  192.8280  172.5330  143.0010 C   0  0  0  0  0  2  0  0  0  0  0  0
  190.6830  173.3960  143.7590 C   0  0  2  0  0  3  0  0  0  0  0  0
  194.8050  177.0540  145.3050 C   0  0  0  0  0  2  0  0  0  0  0  0
  194.5070  174.7840  144.2470 C   0  0  1  0  0  3  0  0  0  0  0  0
  189.3660  177.1160  146.7520 C   0  0  0  0  0  2  0  0  0  0  0  0
  194.3180  172.2950  143.3430 C   0  0  2  0  0  3  0  0  0  0  0  0
  195.3150  171.2260  145.3580 C   0  0  0  0  0  3  0  0  0  0  0  0
  191.2490  176.8130  148.3230 C   0  0  0  0  0  1  0  0  0  0  0  0
  190.7510  175.8170  144.5990 C   0  0  2  0  0  3  0  0  0  0  0  0
  188.9260  177.4890  145.3330 C   0  0  0  0  0  2  0  0  0  0  0  0
  191.4130  175.9040  145.9980 C   0  0  1  0  0  3  0  0  0  0  0  0
  192.6020  173.4310  145.2530 C   0  0  0  0  0  2  0  0  0  0  0  0
  190.1610  172.0430  144.2320 C   0  0  0  0  0  1  0  0  0  0  0  0
  192.1460  173.5090  143.8660 N   0  0  1  0  0  0  0  0  0  0  0  0
  194.4840  171.1500  144.3130 C   0  0  0  0  0  3  0  0  0  0  0  0
  196.4230  173.1700  144.4000 N   0  0  0  0  0  2  0  0  0  0  0  0
  189.8850  177.0290  144.2250 C   0  0  1  0  0  3  0  0  0  0  0  0
  190.7600  178.1860  143.7810 C   0  0  0  0  0  1  0  0  0  0  0  0
  195.2060  173.5360  143.6630 C   0  0  2  0  0  3  0  0  0  0  0  0
  195.7410  176.5280  143.1650 O   0  0  0  0  0  0  0  0  0  0  0  0
  197.1300  176.6810  143.1530 C   0  0  0  0  0  2  0  0  0  0  0  0
  197.7160  175.7640  142.1910 N   0  0  0  0  0  2  0  0  0  0  0  0
  196.9280  175.8590  140.9740 C   0  0  0  0  0  1  0  0  0  0  0  0
  1  5  1  6  0  0  0
  1 18  1  0  0  0  0
  2 15  1  1  0  0  0
  3 16  1  0  0  0  0
  4 19  1  6  0  0  0
  4  1  1  0  0  0  0
  5 10  1  0  0  0  0
  7 27  1  6  0  0  0
  7 10  1  0  0  0  0
  8 13  1  0  0  0  0
  8 21  1  0  0  0  0
  9 21  1  0  0  0  0
  9 20  1  1  0  0  0
  9  3  1  0  0  0  0
 11  7  1  0  0  0  0
 11  4  1  0  0  0  0
 12  2  1  0  0  0  0
 13 26  1  0  0  0  0
 13 22  1  0  0  0  0
 14  6  1  0  0  0  0
 16 18  1  0  0  0  0
 17 12  1  0  0  0  0
 18  2  1  0  0  0  0
 21 19  1  0  0  0  0
 22 14  2  0  0  0  0
 23  6  1  0  0  0  0
 24 16  1  0  0  0  0
 24 17  1  0  0  0  0
 25 24  1  0  0  0  0
 26 11  1  0  0  0  0
 26 23  1  0  0  0  0
 28 27  1  0  0  0  0
 29 28  1  0  0  0  0
 30 29  1  0  0  0  0
M  END
>  <MODEL>
1

>  <REMARK>
 VINA RESULT:      -7.0      0.000      0.000
  Name = 
  3 active torsions:
  status: ('A' for Active; 'I' for Inactive)
    1  A    between atoms: O_6  and  C_8
    2  A    between atoms: O_6  and  C_21
    3  A    between atoms: N_9  and  C_21
                            x       y       z     vdW  Elec       q    Type
                         _______ _______ _______ _____ _____    ______ ____

>  <TORSDO>
F 3

$$$$
=
 OpenBabel11052417203D

 30 34  0  0  1  0  0  0  0  0999 V2000
  191.0660  174.4030  145.3660 C   0  0  1  0  0  3  0  0  0  0  0  0
  189.1170  175.6690  146.4050 C   0  0  1  0  0  3  0  0  0  0  0  0
  188.4910  175.0540  142.9270 C   0  0  0  0  0  2  0  0  0  0  0  0
  191.5040  173.2630  144.3890 C   0  0  2  0  0  3  0  0  0  0  0  0
  191.9930  175.4690  145.4240 O   0  0  0  0  0  0  0  0  0  0  0  0
  193.2130  170.6000  143.8230 C   0  0  0  0  0  2  0  0  0  0  0  0
  193.8750  174.2120  144.5930 C   0  0  1  0  0  3  0  0  0  0  0  0
  191.1730  173.0430  141.1120 C   0  0  0  0  0  2  0  0  0  0  0  0
  189.1580  174.2000  141.8360 C   0  0  2  0  0  3  0  0  0  0  0  0
  193.2300  174.9170  145.7930 C   0  0  0  0  0  2  0  0  0  0  0  0
  192.7970  173.6710  143.6430 C   0  0  1  0  0  3  0  0  0  0  0  0
  187.7930  176.3440  146.0860 C   0  0  0  0  0  2  0  0  0  0  0  0
  192.3590  172.1380  141.5200 C   0  0  2  0  0  3  0  0  0  0  0  0
  192.3360  169.9870  142.7720 C   0  0  0  0  0  3  0  0  0  0  0  0
  188.9040  174.6820  147.5390 C   0  0  0  0  0  1  0  0  0  0  0  0
  189.4900  175.7520  143.8480 C   0  0  2  0  0  3  0  0  0  0  0  0
  187.9620  177.4530  145.0440 C   0  0  0  0  0  2  0  0  0  0  0  0
  189.6380  174.9400  145.1600 C   0  0  1  0  0  3  0  0  0  0  0  0
  190.4060  172.8330  143.4130 C   0  0  0  0  0  2  0  0  0  0  0  0
  188.2090  173.0860  141.4040 C   0  0  0  0  0  1  0  0  0  0  0  0
  190.4810  173.6950  142.2350 N   0  0  1  0  0  0  0  0  0  0  0  0
  191.9180  170.7100  141.7280 C   0  0  0  0  0  3  0  0  0  0  0  0
  194.1200  171.5800  143.2260 N   0  0  0  0  0  2  0  0  0  0  0  0
  189.1080  177.2250  144.0470 C   0  0  1  0  0  3  0  0  0  0  0  0
  190.3230  178.0360  144.4570 C   0  0  0  0  0  1  0  0  0  0  0  0
  193.3460  172.6650  142.6070 C   0  0  2  0  0  3  0  0  0  0  0  0
  194.6920  175.1120  143.9070 O   0  0  0  0  0  0  0  0  0  0  0  0
  195.8710  175.1680  144.6540 C   0  0  0  0  0  2  0  0  0  0  0  0
  196.9980  175.4250  143.7750 N   0  0  0  0  0  2  0  0  0  0  0  0
  196.8160  176.7580  143.2260 C   0  0  0  0  0  1  0  0  0  0  0  0
  1  5  1  6  0  0  0
  2 15  1  1  0  0  0
  3 16  1  0  0  0  0
  4 19  1  6  0  0  0
  4  1  1  0  0  0  0
  5 10  1  0  0  0  0
  7 27  1  6  0  0  0
  7 10  1  0  0  0  0
  8 13  1  0  0  0  0
  8 21  1  0  0  0  0
  9 20  1  1  0  0  0
  9 21  1  0  0  0  0
  9  3  1  0  0  0  0
 11  4  1  0  0  0  0
 11  7  1  0  0  0  0
 12  2  1  0  0  0  0
 13 22  1  0  0  0  0
 13 26  1  0  0  0  0
 14  6  1  0  0  0  0
 16 24  1  0  0  0  0
 16 18  1  0  0  0  0
 17 12  1  0  0  0  0
 18  1  1  0  0  0  0
 18  2  1  0  0  0  0
 21 19  1  0  0  0  0
 22 14  2  0  0  0  0
 23  6  1  0  0  0  0
 24 25  1  0  0  0  0
 24 17  1  0  0  0  0
 26 23  1  0  0  0  0
 26 11  1  0  0  0  0
 27 28  1  0  0  0  0
 29 28  1  0  0  0  0
 30 29  1  0  0  0  0
M  END
>  <MODEL>
2

>  <REMARK>
 VINA RESULT:      -6.8      1.799      2.551
  Name = 
  3 active torsions:
  status: ('A' for Active; 'I' for Inactive)
    1  A    between atoms: O_6  and  C_8
    2  A    between atoms: O_6  and  C_21
    3  A    between atoms: N_9  and  C_21
                            x       y       z     vdW  Elec       q    Type
                         _______ _______ _______ _____ _____    ______ ____

>  <TORSDO>
F 3

$$$$
=
 OpenBabel11052417203D

 30 34  0  0  1  0  0  0  0  0999 V2000
  189.3330  174.3060  143.1880 C   0  0  1  0  0  3  0  0  0  0  0  0
  191.0120  172.4310  142.8090 C   0  0  1  0  0  3  0  0  0  0  0  0
  192.2480  174.7310  145.2690 C   0  0  0  0  0  2  0  0  0  0  0  0
  188.6270  175.2280  144.2370 C   0  0  2  0  0  3  0  0  0  0  0  0
  189.5090  174.9300  141.9320 O   0  0  0  0  0  0  0  0  0  0  0  0
  185.9270  176.4440  145.4860 C   0  0  0  0  0  2  0  0  0  0  0  0
  187.7980  176.6010  142.2390 C   0  0  1  0  0  3  0  0  0  0  0  0
  189.8900  177.5890  146.1670 C   0  0  0  0  0  2  0  0  0  0  0  0
  191.6490  175.9110  146.0530 C   0  0  2  0  0  3  0  0  0  0  0  0
  188.2370  175.3340  141.4930 C   0  0  0  0  0  2  0  0  0  0  0  0
  188.4170  176.6410  143.6430 C   0  0  1  0  0  3  0  0  0  0  0  0
  192.4030  171.9470  143.1830 C   0  0  0  0  0  2  0  0  0  0  0  0
  188.3850  177.8960  145.9830 C   0  0  2  0  0  3  0  0  0  0  0  0
  186.4110  176.6780  146.8870 C   0  0  0  0  0  3  0  0  0  0  0  0
  190.0190  171.3080  143.0550 C   0  0  0  0  0  1  0  0  0  0  0  0
  191.7980  174.6820  143.8090 C   0  0  2  0  0  3  0  0  0  0  0  0
  193.4750  172.9820  142.8290 C   0  0  0  0  0  2  0  0  0  0  0  0
  190.6470  173.6550  143.6570 C   0  0  1  0  0  3  0  0  0  0  0  0
  189.3450  175.2880  145.5870 C   0  0  0  0  0  2  0  0  0  0  0  0
  191.5910  175.5640  147.5370 C   0  0  0  0  0  1  0  0  0  0  0  0
  190.3490  176.3480  145.5220 N   0  0  1  0  0  0  0  0  0  0  0  0
  187.5620  177.3210  147.1100 C   0  0  0  0  0  3  0  0  0  0  0  0
  186.2970  177.5640  144.6220 N   0  0  0  0  0  2  0  0  0  0  0  0
  192.9960  174.4400  142.8800 C   0  0  1  0  0  3  0  0  0  0  0  0
  192.6880  174.9360  141.4790 C   0  0  0  0  0  1  0  0  0  0  0  0
  187.7610  177.6900  144.5680 C   0  0  2  0  0  3  0  0  0  0  0  0
  188.2000  177.7280  141.5200 O   0  0  0  0  0  0  0  0  0  0  0  0
  187.1730  177.9510  140.5980 C   0  0  0  0  0  2  0  0  0  0  0  0
  185.9560  178.3180  141.3000 N   0  0  0  0  0  2  0  0  0  0  0  0
  184.8640  178.2080  140.3480 C   0  0  0  0  0  1  0  0  0  0  0  0
  1  5  1  6  0  0  0
  1 18  1  0  0  0  0
  1  4  1  0  0  0  0
  2 15  1  1  0  0  0
  2 12  1  0  0  0  0
  2 18  1  0  0  0  0
  3  9  1  0  0  0  0
  4 19  1  1  0  0  0
  6 14  1  0  0  0  0
  7 27  1  6  0  0  0
  7 11  1  0  0  0  0
  9 20  1  1  0  0  0
 10  5  1  0  0  0  0
 10  7  1  0  0  0  0
 11  4  1  0  0  0  0
 11 26  1  0  0  0  0
 13  8  1  0  0  0  0
 13 22  1  0  0  0  0
 14 22  2  0  0  0  0
 16  3  1  0  0  0  0
 17 24  1  0  0  0  0
 17 12  1  0  0  0  0
 18 16  1  0  0  0  0
 21 19  1  0  0  0  0
 21  9  1  0  0  0  0
 21  8  1  0  0  0  0
 23  6  1  0  0  0  0
 24 16  1  0  0  0  0
 25 24  1  0  0  0  0
 26 23  1  0  0  0  0
 26 13  1  0  0  0  0
 28 29  1  0  0  0  0
 28 27  1  0  0  0  0
 30 29  1  0  0  0  0
M  END
>  <MODEL>
3

>  <REMARK>
 VINA RESULT:      -6.7      3.405      7.449
  Name = 
  3 active torsions:
  status: ('A' for Active; 'I' for Inactive)
    1  A    between atoms: O_6  and  C_8
    2  A    between atoms: O_6  and  C_21
    3  A    between atoms: N_9  and  C_21
                            x       y       z     vdW  Elec       q    Type
                         _______ _______ _______ _____ _____    ______ ____

>  <TORSDO>
F 3

$$$$
=
 OpenBabel11052417203D

 30 34  0  0  1  0  0  0  0  0999 V2000
  192.5850  175.8580  142.9350 C   0  0  1  0  0  3  0  0  0  0  0  0
  195.1120  175.9570  143.2260 C   0  0  1  0  0  3  0  0  0  0  0  0
  193.8480  172.8050  144.3820 C   0  0  0  0  0  2  0  0  0  0  0  0
  191.3570  174.9830  142.5180 C   0  0  2  0  0  3  0  0  0  0  0  0
  192.2750  176.8050  143.9370 O   0  0  0  0  0  0  0  0  0  0  0  0
  188.6890  174.6070  140.7660 C   0  0  0  0  0  2  0  0  0  0  0  0
  189.8970  176.8250  143.5390 C   0  0  1  0  0  3  0  0  0  0  0  0
  190.0960  172.2890  143.9480 C   0  0  0  0  0  2  0  0  0  0  0  0
  192.4950  172.0780  144.2970 C   0  0  2  0  0  3  0  0  0  0  0  0
  191.2220  177.5930  143.4450 C   0  0  0  0  0  2  0  0  0  0  0  0
  190.1410  175.3140  143.4160 C   0  0  1  0  0  3  0  0  0  0  0  0
  196.3050  175.2000  143.7860 C   0  0  0  0  0  2  0  0  0  0  0  0
  188.9640  172.9520  143.1290 C   0  0  2  0  0  3  0  0  0  0  0  0
  188.6980  173.1100  140.6590 C   0  0  0  0  0  3  0  0  0  0  0  0
  195.4000  176.3280  141.7820 C   0  0  0  0  0  1  0  0  0  0  0  0
  193.7160  174.3050  144.6430 C   0  0  2  0  0  3  0  0  0  0  0  0
  196.1420  174.9150  145.2810 C   0  0  0  0  0  2  0  0  0  0  0  0
  193.8590  175.0770  143.3060 C   0  0  1  0  0  3  0  0  0  0  0  0
  191.6480  173.4810  142.5000 C   0  0  0  0  0  2  0  0  0  0  0  0
  192.6390  170.8240  143.4410 C   0  0  0  0  0  1  0  0  0  0  0  0
  191.4040  172.9540  143.8420 N   0  0  1  0  0  0  0  0  0  0  0  0
  188.8570  172.3520  141.7480 C   0  0  0  0  0  3  0  0  0  0  0  0
  188.0730  175.0270  142.0240 N   0  0  0  0  0  2  0  0  0  0  0  0
  194.6870  174.7520  145.7450 C   0  0  1  0  0  3  0  0  0  0  0  0
  194.2000  176.0360  146.3900 C   0  0  0  0  0  1  0  0  0  0  0  0
  188.8500  174.5070  143.1580 C   0  0  2  0  0  3  0  0  0  0  0  0
  189.2850  177.1010  144.7630 O   0  0  0  0  0  0  0  0  0  0  0  0
  188.1200  177.7980  144.4320 C   0  0  0  0  0  2  0  0  0  0  0  0
  186.9580  177.0650  144.9050 N   0  0  0  0  0  2  0  0  0  0  0  0
  187.2660  176.5950  146.2450 C   0  0  0  0  0  1  0  0  0  0  0  0
  1 18  1  0  0  0  0
  1  5  1  1  0  0  0
  2 15  1  6  0  0  0
  2 18  1  0  0  0  0
  2 12  1  0  0  0  0
  3 16  1  0  0  0  0
  4 19  1  1  0  0  0
  4  1  1  0  0  0  0
  4 11  1  0  0  0  0
  6 23  1  0  0  0  0
  7 27  1  1  0  0  0
  9 20  1  6  0  0  0
  9  3  1  0  0  0  0
 10  7  1  0  0  0  0
 10  5  1  0  0  0  0
 11  7  1  0  0  0  0
 12 17  1  0  0  0  0
 13 26  1  0  0  0  0
 13  8  1  0  0  0  0
 14  6  1  0  0  0  0
 14 22  2  0  0  0  0
 16 24  1  0  0  0  0
 17 24  1  0  0  0  0
 18 16  1  0  0  0  0
 19 21  1  0  0  0  0
 21  8  1  0  0  0  0
 21  9  1  0  0  0  0
 22 13  1  0  0  0  0
 23 26  1  0  0  0  0
 24 25  1  0  0  0  0
 26 11  1  0  0  0  0
 28 27  1  0  0  0  0
 28 29  1  0  0  0  0
 29 30  1  0  0  0  0
M  END
>  <MODEL>
4

>  <REMARK>
 VINA RESULT:      -6.6      2.426      6.196
  Name = 
  3 active torsions:
  status: ('A' for Active; 'I' for Inactive)
    1  A    between atoms: O_6  and  C_8
    2  A    between atoms: O_6  and  C_21
    3  A    between atoms: N_9  and  C_21
                            x       y       z     vdW  Elec       q    Type
                         _______ _______ _______ _____ _____    ______ ____

>  <TORSDO>
F 3

$$$$
=
 OpenBabel11052417203D

 30 34  0  0  1  0  0  0  0  0999 V2000
  191.1780  175.6660  143.0930 C   0  0  1  0  0  3  0  0  0  0  0  0
  189.2250  176.5500  144.4640 C   0  0  1  0  0  3  0  0  0  0  0  0
  192.1330  176.1790  146.5320 C   0  0  0  0  0  2  0  0  0  0  0  0
  192.7120  175.7600  142.8020 C   0  0  2  0  0  3  0  0  0  0  0  0
  190.6560  174.3660  142.8980 O   0  0  0  0  0  0  0  0  0  0  0  0
  195.1200  176.0980  140.7000 C   0  0  0  0  0  2  0  0  0  0  0  0
  192.4320  173.5940  141.4620 C   0  0  1  0  0  3  0  0  0  0  0  0
  195.2800  175.0020  144.7320 C   0  0  0  0  0  2  0  0  0  0  0  0
  193.6220  175.8940  146.2730 C   0  0  2  0  0  3  0  0  0  0  0  0
  190.9570  173.9970  141.5770 C   0  0  0  0  0  2  0  0  0  0  0  0
  193.2800  174.3550  142.4920 C   0  0  1  0  0  3  0  0  0  0  0  0
  188.7930  176.9180  145.8750 C   0  0  0  0  0  2  0  0  0  0  0  0
  195.7590  174.9080  143.2640 C   0  0  2  0  0  3  0  0  0  0  0  0
  196.1290  176.7320  141.6110 C   0  0  0  0  0  3  0  0  0  0  0  0
  188.9290  177.7190  143.5410 C   0  0  0  0  0  1  0  0  0  0  0  0
  191.1950  175.3620  145.6450 C   0  0  2  0  0  3  0  0  0  0  0  0
  188.9350  175.7330  146.8350 C   0  0  0  0  0  2  0  0  0  0  0  0
  190.7250  176.2320  144.4510 C   0  0  1  0  0  3  0  0  0  0  0  0
  193.5070  176.4540  143.9090 C   0  0  0  0  0  2  0  0  0  0  0  0
  194.4540  177.1110  146.6660 C   0  0  0  0  0  1  0  0  0  0  0  0
  193.8870  175.4460  144.8980 N   0  0  1  0  0  0  0  0  0  0  0  0
  196.3970  176.1970  142.8070 C   0  0  0  0  0  3  0  0  0  0  0  0
  195.1480  174.6420  140.8400 N   0  0  0  0  0  2  0  0  0  0  0  0
  190.0590  174.7500  146.4750 C   0  0  1  0  0  3  0  0  0  0  0  0
  189.4820  173.5360  145.7700 C   0  0  0  0  0  1  0  0  0  0  0  0
  194.7970  174.2660  142.2170 C   0  0  2  0  0  3  0  0  0  0  0  0
  192.5580  172.2210  141.6780 O   0  0  0  0  0  0  0  0  0  0  0  0
  192.0860  171.6280  140.5030 C   0  0  0  0  0  2  0  0  0  0  0  0
  191.7480  170.2380  140.7560 N   0  0  0  0  0  2  0  0  0  0  0  0
  190.8400  170.2180  141.8890 C   0  0  0  0  0  1  0  0  0  0  0  0
  1  5  1  1  0  0  0
  1 18  1  0  0  0  0
  2 15  1  6  0  0  0
  2 12  1  0  0  0  0
  4  1  1  0  0  0  0
  4 19  1  1  0  0  0
  6 23  1  0  0  0  0
  6 14  1  0  0  0  0
  7 10  1  0  0  0  0
  7 27  1  1  0  0  0
  7 11  1  0  0  0  0
  8 21  1  0  0  0  0
  9  3  1  0  0  0  0
  9 20  1  6  0  0  0
 10  5  1  0  0  0  0
 11  4  1  0  0  0  0
 12 17  1  0  0  0  0
 13  8  1  0  0  0  0
 14 22  2  0  0  0  0
 16 24  1  0  0  0  0
 16  3  1  0  0  0  0
 18  2  1  0  0  0  0
 18 16  1  0  0  0  0
 19 21  1  0  0  0  0
 21  9  1  0  0  0  0
 22 13  1  0  0  0  0
 23 26  1  0  0  0  0
 24 17  1  0  0  0  0
 25 24  1  0  0  0  0
 26 11  1  0  0  0  0
 26 13  1  0  0  0  0
 28 29  1  0  0  0  0
 28 27  1  0  0  0  0
 29 30  1  0  0  0  0
M  END
>  <MODEL>
5

>  <REMARK>
 VINA RESULT:      -6.5      2.380      4.763
  Name = 
  3 active torsions:
  status: ('A' for Active; 'I' for Inactive)
    1  A    between atoms: O_6  and  C_8
    2  A    between atoms: O_6  and  C_21
    3  A    between atoms: N_9  and  C_21
                            x       y       z     vdW  Elec       q    Type
                         _______ _______ _______ _____ _____    ______ ____

>  <TORSDO>
F 3

$$$$
=
 OpenBabel11052417203D

 30 34  0  0  1  0  0  0  0  0999 V2000
  187.7210  177.3020  143.8440 C   0  0  1  0  0  3  0  0  0  0  0  0
  185.7750  178.7960  144.5220 C   0  0  1  0  0  3  0  0  0  0  0  0
  187.7590  177.9540  147.3900 C   0  0  0  0  0  2  0  0  0  0  0  0
  189.2400  176.9780  144.0320 C   0  0  2  0  0  3  0  0  0  0  0  0
  186.9440  176.1600  143.5440 O   0  0  0  0  0  0  0  0  0  0  0  0
  192.1450  176.4630  142.7560 C   0  0  0  0  0  2  0  0  0  0  0  0
  188.7770  174.8110  142.7460 C   0  0  1  0  0  3  0  0  0  0  0  0
  190.8450  175.8320  146.6790 C   0  0  0  0  0  2  0  0  0  0  0  0
  189.1240  177.2790  147.6090 C   0  0  2  0  0  3  0  0  0  0  0  0
  187.4970  175.5790  142.3910 C   0  0  0  0  0  2  0  0  0  0  0  0
  189.4690  175.4500  143.9590 C   0  0  1  0  0  3  0  0  0  0  0  0
  185.0760  179.4190  145.7200 C   0  0  0  0  0  2  0  0  0  0  0  0
  191.6780  175.4540  145.4310 C   0  0  2  0  0  3  0  0  0  0  0  0
  192.9840  176.9280  143.9090 C   0  0  0  0  0  3  0  0  0  0  0  0
  186.0840  179.8880  143.5130 C   0  0  0  0  0  1  0  0  0  0  0  0
  186.9270  177.2990  146.2880 C   0  0  2  0  0  3  0  0  0  0  0  0
  184.6110  178.3540  146.7180 C   0  0  0  0  0  2  0  0  0  0  0  0
  187.0720  178.1160  144.9780 C   0  0  1  0  0  3  0  0  0  0  0  0
  189.8440  177.5760  145.3050 C   0  0  0  0  0  2  0  0  0  0  0  0
  190.1070  178.2880  148.1950 C   0  0  0  0  0  1  0  0  0  0  0  0
  189.6380  176.6250  146.3960 N   0  0  1  0  0  0  0  0  0  0  0  0
  192.7440  176.4840  145.1470 C   0  0  0  0  0  3  0  0  0  0  0  0
  191.7350  175.0730  142.9470 N   0  0  0  0  0  2  0  0  0  0  0  0
  185.4800  177.0880  146.7530 C   0  0  1  0  0  3  0  0  0  0  0  0
  184.8210  175.9830  145.9470 C   0  0  0  0  0  1  0  0  0  0  0  0
  190.9180  174.9560  144.1640 C   0  0  2  0  0  3  0  0  0  0  0  0
  188.4580  173.4840  143.0380 O   0  0  0  0  0  0  0  0  0  0  0  0
  187.8330  173.0030  141.8840 C   0  0  0  0  0  2  0  0  0  0  0  0
  188.8360  172.5820  140.9210 N   0  0  0  0  0  2  0  0  0  0  0  0
  188.2660  172.7740  139.5990 C   0  0  0  0  0  1  0  0  0  0  0  0
  1  5  1  1  0  0  0
  1  4  1  0  0  0  0
  1 18  1  0  0  0  0
  2 15  1  6  0  0  0
  2 18  1  0  0  0  0
  2 12  1  0  0  0  0
  3  9  1  0  0  0  0
  4 19  1  1  0  0  0
  6 23  1  0  0  0  0
  6 14  1  0  0  0  0
  7 27  1  1  0  0  0
  7 11  1  0  0  0  0
  9 20  1  6  0  0  0
 10  7  1  0  0  0  0
 10  5  1  0  0  0  0
 11  4  1  0  0  0  0
 11 26  1  0  0  0  0
 12 17  1  0  0  0  0
 13  8  1  0  0  0  0
 14 22  2  0  0  0  0
 16 24  1  0  0  0  0
 16  3  1  0  0  0  0
 17 24  1  0  0  0  0
 18 16  1  0  0  0  0
 19 21  1  0  0  0  0
 21  8  1  0  0  0  0
 21  9  1  0  0  0  0
 22 13  1  0  0  0  0
 23 26  1  0  0  0  0
 25 24  1  0  0  0  0
 26 13  1  0  0  0  0
 28 27  1  0  0  0  0
 29 28  1  0  0  0  0
 30 29  1  0  0  0  0
M  END
>  <MODEL>
6

>  <REMARK>
 VINA RESULT:      -6.3      3.658      6.349
  Name = 
  3 active torsions:
  status: ('A' for Active; 'I' for Inactive)
    1  A    between atoms: O_6  and  C_8
    2  A    between atoms: O_6  and  C_21
    3  A    between atoms: N_9  and  C_21
                            x       y       z     vdW  Elec       q    Type
                         _______ _______ _______ _____ _____    ______ ____

>  <TORSDO>
F 3

$$$$
=
 OpenBabel11052417203D

 30 34  0  0  1  0  0  0  0  0999 V2000
  193.1550  172.9210  144.3180 C   0  0  1  0  0  3  0  0  0  0  0  0
  195.2820  171.8230  145.1830 C   0  0  1  0  0  3  0  0  0  0  0  0
  195.4400  175.3780  145.6380 C   0  0  0  0  0  2  0  0  0  0  0  0
  192.0630  174.0150  144.5620 C   0  0  2  0  0  3  0  0  0  0  0  0
  193.4020  172.6810  142.9470 O   0  0  0  0  0  0  0  0  0  0  0  0
  188.9640  174.8350  144.7980 C   0  0  0  0  0  2  0  0  0  0  0  0
  191.3070  173.5740  142.1540 C   0  0  1  0  0  3  0  0  0  0  0  0
  192.3300  177.3040  144.5670 C   0  0  0  0  0  2  0  0  0  0  0  0
  194.4360  176.5370  145.5140 C   0  0  2  0  0  3  0  0  0  0  0  0
  192.1740  172.3260  142.3650 C   0  0  0  0  0  2  0  0  0  0  0  0
  191.6270  174.6370  143.2150 C   0  0  1  0  0  3  0  0  0  0  0  0
  196.6560  172.1170  145.7640 C   0  0  0  0  0  2  0  0  0  0  0  0
  190.8560  176.9590  144.2470 C   0  0  2  0  0  3  0  0  0  0  0  0
  189.1090  175.9970  145.7360 C   0  0  0  0  0  3  0  0  0  0  0  0
  194.5670  170.8380  146.0900 C   0  0  0  0  0  1  0  0  0  0  0  0
  195.2950  174.3270  144.5390 C   0  0  2  0  0  3  0  0  0  0  0  0
  197.4880  172.9980  144.8270 C   0  0  0  0  0  2  0  0  0  0  0  0
  194.4780  173.1250  145.0780 C   0  0  1  0  0  3  0  0  0  0  0  0
  192.4820  175.0900  145.5670 C   0  0  0  0  0  2  0  0  0  0  0  0
  194.1910  177.1540  146.8880 C   0  0  0  0  0  1  0  0  0  0  0  0
  193.1900  176.1420  144.8400 N   0  0  1  0  0  0  0  0  0  0  0  0
  190.0060  176.9590  145.4940 C   0  0  0  0  0  3  0  0  0  0  0  0
  189.2030  175.2560  143.4190 N   0  0  0  0  0  2  0  0  0  0  0  0
  196.6660  173.9590  143.9550 C   0  0  1  0  0  3  0  0  0  0  0  0
  196.5100  173.3890  142.5570 C   0  0  0  0  0  1  0  0  0  0  0  0
  190.5750  175.7660  143.2820 C   0  0  2  0  0  3  0  0  0  0  0  0
  191.5470  174.0980  140.8820 O   0  0  0  0  0  0  0  0  0  0  0  0
  190.7220  173.3600  140.0290 C   0  0  0  0  0  2  0  0  0  0  0  0
  189.3400  173.7690  140.2080 N   0  0  0  0  0  2  0  0  0  0  0  0
  188.5380  172.9820  139.2870 C   0  0  0  0  0  1  0  0  0  0  0  0
  1  5  1  6  0  0  0
  1  4  1  0  0  0  0
  1 18  1  0  0  0  0
  2 12  1  0  0  0  0
  2 15  1  1  0  0  0
  4 19  1  1  0  0  0
  6 14  1  0  0  0  0
  7 27  1  6  0  0  0
  7 10  1  0  0  0  0
  7 11  1  0  0  0  0
  8 21  1  0  0  0  0
  9  3  1  0  0  0  0
  9 20  1  1  0  0  0
 10  5  1  0  0  0  0
 11 26  1  0  0  0  0
 11  4  1  0  0  0  0
 13  8  1  0  0  0  0
 13 22  1  0  0  0  0
 16 18  1  0  0  0  0
 16  3  1  0  0  0  0
 17 12  1  0  0  0  0
 18  2  1  0  0  0  0
 21  9  1  0  0  0  0
 21 19  1  0  0  0  0
 22 14  2  0  0  0  0
 23  6  1  0  0  0  0
 24 16  1  0  0  0  0
 24 17  1  0  0  0  0
 25 24  1  0  0  0  0
 26 23  1  0  0  0  0
 26 13  1  0  0  0  0
 28 29  1  0  0  0  0
 28 27  1  0  0  0  0
 30 29  1  0  0  0  0
M  END
>  <MODEL>
7

>  <REMARK>
 VINA RESULT:      -6.1      2.387      6.403
  Name = 
  3 active torsions:
  status: ('A' for Active; 'I' for Inactive)
    1  A    between atoms: O_6  and  C_8
    2  A    between atoms: O_6  and  C_21
    3  A    between atoms: N_9  and  C_21
                            x       y       z     vdW  Elec       q    Type
                         _______ _______ _______ _____ _____    ______ ____

>  <TORSDO>
F 3

$$$$
=
 OpenBabel11052417203D

 30 34  0  0  1  0  0  0  0  0999 V2000
  190.0760  173.8470  142.3770 C   0  0  1  0  0  3  0  0  0  0  0  0
  191.5930  171.9520  141.6110 C   0  0  1  0  0  3  0  0  0  0  0  0
  193.5460  174.6560  142.9340 C   0  0  0  0  0  2  0  0  0  0  0  0
  189.7960  174.9290  143.4720 C   0  0  2  0  0  3  0  0  0  0  0  0
  189.6610  174.2470  141.0860 O   0  0  0  0  0  0  0  0  0  0  0  0
  187.7710  176.3130  145.5480 C   0  0  0  0  0  2  0  0  0  0  0  0
  188.1010  175.9280  141.8310 C   0  0  1  0  0  3  0  0  0  0  0  0
  191.5490  177.6000  144.3020 C   0  0  0  0  0  2  0  0  0  0  0  0
  193.2320  175.9460  143.7090 C   0  0  2  0  0  3  0  0  0  0  0  0
  188.2940  174.5560  141.1720 C   0  0  0  0  0  2  0  0  0  0  0  0
  189.2430  176.2160  142.8170 C   0  0  1  0  0  3  0  0  0  0  0  0
  193.0490  171.5550  141.4280 C   0  0  0  0  0  2  0  0  0  0  0  0
  190.0830  177.8550  144.7290 C   0  0  2  0  0  3  0  0  0  0  0  0
  188.7720  176.7910  146.5580 C   0  0  0  0  0  3  0  0  0  0  0  0
  190.8900  170.8790  142.4220 C   0  0  0  0  0  1  0  0  0  0  0  0
  192.5360  174.3500  141.8290 C   0  0  2  0  0  3  0  0  0  0  0  0
  193.7870  172.5240  140.5010 C   0  0  0  0  0  2  0  0  0  0  0  0
  191.5150  173.3010  142.3370 C   0  0  1  0  0  3  0  0  0  0  0  0
  191.0030  175.2280  144.3640 C   0  0  0  0  0  2  0  0  0  0  0  0
  193.8260  175.8590  145.1120 C   0  0  0  0  0  1  0  0  0  0  0  0
  191.7980  176.2720  143.7200 N   0  0  1  0  0  0  0  0  0  0  0  0
  189.8550  177.4740  146.1710 C   0  0  0  0  0  3  0  0  0  0  0  0
  187.6540  177.2710  144.4490 N   0  0  0  0  0  2  0  0  0  0  0  0
  193.2540  173.9650  140.5280 C   0  0  1  0  0  3  0  0  0  0  0  0
  192.3520  174.2080  139.3330 C   0  0  0  0  0  1  0  0  0  0  0  0
  188.9470  177.4020  143.7620 C   0  0  2  0  0  3  0  0  0  0  0  0
  188.0740  176.9180  140.8480 O   0  0  0  0  0  0  0  0  0  0  0  0
  186.7180  177.1060  140.5660 C   0  0  0  0  0  2  0  0  0  0  0  0
  186.2380  178.3010  141.2380 N   0  0  0  0  0  2  0  0  0  0  0  0
  184.8370  178.0810  141.5520 C   0  0  0  0  0  1  0  0  0  0  0  0
  1  5  1  6  0  0  0
  1  4  1  0  0  0  0
  2 18  1  0  0  0  0
  2 15  1  1  0  0  0
  3  9  1  0  0  0  0
  4 19  1  6  0  0  0
  5 10  1  0  0  0  0
  6 14  1  0  0  0  0
  7 27  1  6  0  0  0
  7 11  1  0  0  0  0
  8 13  1  0  0  0  0
  9 21  1  0  0  0  0
  9 20  1  1  0  0  0
 10  7  1  0  0  0  0
 11  4  1  0  0  0  0
 11 26  1  0  0  0  0
 12  2  1  0  0  0  0
 13 22  1  0  0  0  0
 16 18  1  0  0  0  0
 16  3  1  0  0  0  0
 17 24  1  0  0  0  0
 17 12  1  0  0  0  0
 18  1  1  0  0  0  0
 21  8  1  0  0  0  0
 21 19  1  0  0  0  0
 22 14  2  0  0  0  0
 23  6  1  0  0  0  0
 24 16  1  0  0  0  0
 25 24  1  0  0  0  0
 26 23  1  0  0  0  0
 26 13  1  0  0  0  0
 28 27  1  0  0  0  0
 28 29  1  0  0  0  0
 29 30  1  0  0  0  0
M  END
>  <MODEL>
8

>  <REMARK>
 VINA RESULT:      -6.0      3.393      7.321
  Name = 
  3 active torsions:
  status: ('A' for Active; 'I' for Inactive)
    1  A    between atoms: O_6  and  C_8
    2  A    between atoms: O_6  and  C_21
    3  A    between atoms: N_9  and  C_21
                            x       y       z     vdW  Elec       q    Type
                         _______ _______ _______ _____ _____    ______ ____

>  <TORSDO>
F 3

$$$$
=
 OpenBabel11052417203D

 30 34  0  0  1  0  0  0  0  0999 V2000
  189.9800  176.4290  142.8980 C   0  0  1  0  0  3  0  0  0  0  0  0
  188.0180  177.9020  142.2210 C   0  0  1  0  0  3  0  0  0  0  0  0
  188.1140  177.5130  145.7870 C   0  0  0  0  0  2  0  0  0  0  0  0
  191.1470  176.2020  143.9150 C   0  0  2  0  0  3  0  0  0  0  0  0
  189.4570  175.2240  142.3770 O   0  0  0  0  0  0  0  0  0  0  0  0
  194.2650  175.6700  144.4840 C   0  0  0  0  0  2  0  0  0  0  0  0
  191.3920  173.8740  142.8740 C   0  0  1  0  0  3  0  0  0  0  0  0
  191.0350  175.4670  147.1310 C   0  0  0  0  0  2  0  0  0  0  0  0
  189.1250  176.9350  146.7910 C   0  0  2  0  0  3  0  0  0  0  0  0
  190.5290  174.5310  141.7900 C   0  0  0  0  0  2  0  0  0  0  0  0
  191.3370  174.6890  144.1740 C   0  0  1  0  0  3  0  0  0  0  0  0
  186.8000  178.6340  142.7620 C   0  0  0  0  0  2  0  0  0  0  0  0
  192.4000  174.9780  146.5900 C   0  0  2  0  0  3  0  0  0  0  0  0
  194.3610  176.3120  145.8360 C   0  0  0  0  0  3  0  0  0  0  0  0
  188.8520  178.8740  141.4070 C   0  0  0  0  0  1  0  0  0  0  0  0
  187.9920  176.6900  144.5050 C   0  0  2  0  0  3  0  0  0  0  0  0
  185.8400  177.6800  143.4790 C   0  0  0  0  0  2  0  0  0  0  0  0
  188.8430  177.3450  143.3870 C   0  0  1  0  0  3  0  0  0  0  0  0
  190.9830  176.9790  145.2230 C   0  0  0  0  0  2  0  0  0  0  0  0
  189.6630  178.0530  147.6790 C   0  0  0  0  0  1  0  0  0  0  0  0
  190.1940  176.1610  146.1430 N   0  0  1  0  0  0  0  0  0  0  0  0
  193.4780  176.0130  146.7950 C   0  0  0  0  0  3  0  0  0  0  0  0
  193.7790  174.2960  144.6010 N   0  0  0  0  0  2  0  0  0  0  0  0
  186.5170  176.4690  144.1390 C   0  0  1  0  0  3  0  0  0  0  0  0
  186.3680  175.2450  143.2560 C   0  0  0  0  0  1  0  0  0  0  0  0
  192.4310  174.2920  145.1890 C   0  0  2  0  0  3  0  0  0  0  0  0
  190.9300  172.5790  143.1160 O   0  0  0  0  0  0  0  0  0  0  0  0
  191.4930  171.8020  142.1000 C   0  0  0  0  0  2  0  0  0  0  0  0
  190.4860  170.9140  141.5460 N   0  0  0  0  0  2  0  0  0  0  0  0
  190.5340  171.0600  140.1020 C   0  0  0  0  0  1  0  0  0  0  0  0
  1  5  1  1  0  0  0
  1 18  1  0  0  0  0
  1  4  1  0  0  0  0
  2 15  1  1  0  0  0
  2 12  1  0  0  0  0
  2 18  1  0  0  0  0
  3  9  1  0  0  0  0
  4 11  1  0  0  0  0
  4 19  1  1  0  0  0
  6 23  1  0  0  0  0
  6 14  1  0  0  0  0
  7 27  1  1  0  0  0
  7 11  1  0  0  0  0
  9 20  1  6  0  0  0
 10  5  1  0  0  0  0
 10  7  1  0  0  0  0
 11 26  1  0  0  0  0
 12 17  1  0  0  0  0
 13 22  1  0  0  0  0
 13  8  1  0  0  0  0
 14 22  2  0  0  0  0
 16  3  1  0  0  0  0
 17 24  1  0  0  0  0
 18 16  1  0  0  0  0
 19 21  1  0  0  0  0
 21  9  1  0  0  0  0
 21  8  1  0  0  0  0
 23 26  1  0  0  0  0
 24 16  1  0  0  0  0
 25 24  1  0  0  0  0
 26 13  1  0  0  0  0
 28 27  1  0  0  0  0
 29 28  1  0  0  0  0
 30 29  1  0  0  0  0
M  END
>  <MODEL>
9

>  <REMARK>
 VINA RESULT:      -6.0      2.760      5.202
  Name = 
  3 active torsions:
  status: ('A' for Active; 'I' for Inactive)
    1  A    between atoms: O_6  and  C_8
    2  A    between atoms: O_6  and  C_21
    3  A    between atoms: N_9  and  C_21
                            x       y       z     vdW  Elec       q    Type
                         _______ _______ _______ _____ _____    ______ ____

>  <TORSDO>
F 3

$$$$
