=
 OpenBabel11052417513D

 31 34  0  0  1  0  0  0  0  0999 V2000
  188.7620  176.4690  144.3600 C   0  0  1  0  0  3  0  0  0  0  0  0
  187.7790  177.5980  144.7470 C   0  0  2  0  0  3  0  0  0  0  0  0
  185.7760  178.1600  146.1630 C   0  0  0  0  0  2  0  0  0  0  0  0
  186.9710  177.2300  146.0040 C   0  0  0  0  0  2  0  0  0  0  0  0
  187.4320  177.6200  142.2060 C   0  0  0  0  0  2  0  0  0  0  0  0
  184.7840  177.9840  145.0080 C   0  0  1  0  0  3  0  0  0  0  0  0
  189.5660  176.7680  143.1560 N   0  0  0  0  0  0  0  0  0  0  0  0
  184.0140  179.2710  144.8000 C   0  0  0  0  0  1  0  0  0  0  0  0
  188.9490  177.7260  142.2250 C   0  0  0  0  0  2  0  0  0  0  0  0
  186.8750  178.0350  143.5610 C   0  0  1  0  0  3  0  0  0  0  0  0
  185.4350  177.5370  143.6930 C   0  0  0  0  0  2  0  0  0  0  0  0
  191.8270  176.3410  146.8430 C   0  0  0  0  0  0  0  0  0  0  0  0
  189.6790  176.1390  145.5000 C   0  0  0  0  0  0  0  0  0  0  0  0
  191.4020  175.4100  147.8590 C   0  0  0  0  0  3  0  0  0  0  0  0
  193.0510  176.9080  146.9520 F   0  0  0  0  0  0  0  0  0  0  0  0
  188.8910  174.4000  147.4560 O   0  0  0  0  0  0  0  0  0  0  0  0
  190.9900  176.6970  145.6980 C   0  0  0  0  0  3  0  0  0  0  0  0
  189.3640  175.2860  146.5130 C   0  0  0  0  0  0  0  0  0  0  0  0
  190.1450  174.9580  147.5770 C   0  0  0  0  0  0  0  0  0  0  0  0
  189.7540  175.5200  142.4270 C   0  0  0  0  0  2  0  0  0  0  0  0
  191.2160  175.1040  142.4590 C   0  0  0  0  0  2  0  0  0  0  0  0
  191.3260  173.5920  142.5030 C   0  0  0  0  0  2  0  0  0  0  0  0
  189.9500  172.2390  144.3770 S   0  0  0  0  0  0  0  0  0  0  0  0
  191.2530  173.1180  143.9090 C   0  0  0  0  0  0  0  0  0  0  0  0
  192.3380  173.4290  144.7970 N   0  0  0  0  0  2  0  0  0  0  0  0
  193.5980  171.4550  144.6430 O   0  0  0  0  0  0  0  0  0  0  0  0
  193.4960  172.6270  145.0870 C   0  0  0  0  0  0  0  0  0  0  0  0
  194.5220  173.1370  145.8850 O   0  0  0  0  0  0  0  0  0  0  0  0
  195.6640  173.7850  145.3390 C   0  0  0  0  0  3  0  0  0  0  0  0
  196.8980  173.4420  146.1520 C   0  0  0  0  0  1  0  0  0  0  0  0
  195.4520  175.2830  145.3690 C   0  0  0  0  0  1  0  0  0  0  0  0
  1  2  1  0  0  0  0
  1 13  1  1  0  0  0
  2  4  1  1  0  0  0
  4  3  1  0  0  0  0
  5  9  1  0  0  0  0
  6  8  1  6  0  0  0
  6  3  1  0  0  0  0
  7  1  1  0  0  0  0
  9  7  1  0  0  0  0
 10  5  1  6  0  0  0
 10 11  1  0  0  0  0
 10  2  1  0  0  0  0
 11  6  1  0  0  0  0
 12 15  1  0  0  0  0
 12 14  1  0  0  0  0
 13 17  1  0  0  0  0
 13 18  2  0  0  0  0
 16 19  1  0  0  0  0
 17 12  2  0  0  0  0
 18 16  1  0  0  0  0
 18 19  1  0  0  0  0
 19 14  2  0  0  0  0
 20 21  1  0  0  0  0
 20  7  1  0  0  0  0
 21 22  1  0  0  0  0
 22 24  1  0  0  0  0
 24 23  2  0  0  0  0
 24 25  1  0  0  0  0
 25 27  1  0  0  0  0
 26 27  2  0  0  0  0
 27 28  1  0  0  0  0
 29 31  1  0  0  0  0
 29 28  1  0  0  0  0
 29 30  1  0  0  0  0
M  END
>  <MODEL>
1

>  <REMARK>
 VINA RESULT:      -7.3      0.000      0.000
  Name = 
  8 active torsions:
  status: ('A' for Active; 'I' for Inactive)
    1  A    between atoms: C_1  and  O_24
    2  A    between atoms: N_3  and  C_22
    3  A    between atoms: C_4  and  C_12
    4  A    between atoms: C_9  and  C_22
    5  A    between atoms: C_9  and  C_23
    6  A    between atoms: C_15  and  N_21
    7  A    between atoms: C_15  and  C_23
    8  A    between atoms: C_19  and  O_24
                            x       y       z     vdW  Elec       q    Type
                         _______ _______ _______ _____ _____    ______ ____

>  <TORSDO>
F 8

$$$$
=
 OpenBabel11052417513D

 31 34  0  0  1  0  0  0  0  0999 V2000
  188.8100  176.6010  144.4140 C   0  0  1  0  0  3  0  0  0  0  0  0
  187.7810  177.6480  144.9000 C   0  0  2  0  0  3  0  0  0  0  0  0
  185.7670  177.9980  146.3660 C   0  0  0  0  0  2  0  0  0  0  0  0
  187.0000  177.1390  146.1230 C   0  0  0  0  0  2  0  0  0  0  0  0
  187.4150  177.8710  142.3710 C   0  0  0  0  0  2  0  0  0  0  0  0
  184.7750  177.8770  145.2040 C   0  0  1  0  0  3  0  0  0  0  0  0
  189.5920  177.0370  143.2370 N   0  0  0  0  0  0  0  0  0  0  0  0
  183.9470  179.1420  145.1090 C   0  0  0  0  0  1  0  0  0  0  0  0
  188.9260  178.0420  142.3930 C   0  0  0  0  0  2  0  0  0  0  0  0
  186.8500  178.1440  143.7580 C   0  0  1  0  0  3  0  0  0  0  0  0
  185.4350  177.5740  143.8530 C   0  0  0  0  0  2  0  0  0  0  0  0
  191.9410  176.3200  146.8010 C   0  0  0  0  0  0  0  0  0  0  0  0
  189.7500  176.2160  145.5190 C   0  0  0  0  0  0  0  0  0  0  0  0
  191.5170  175.3780  147.8070 C   0  0  0  0  0  3  0  0  0  0  0  0
  193.1840  176.8480  146.8870 F   0  0  0  0  0  0  0  0  0  0  0  0
  188.9650  174.4540  147.4550 O   0  0  0  0  0  0  0  0  0  0  0  0
  191.0820  176.7290  145.6900 C   0  0  0  0  0  3  0  0  0  0  0  0
  189.4380  175.3480  146.5190 C   0  0  0  0  0  0  0  0  0  0  0  0
  190.2390  174.9710  147.5520 C   0  0  0  0  0  0  0  0  0  0  0  0
  189.8290  175.8650  142.4030 C   0  0  0  0  0  2  0  0  0  0  0  0
  188.6740  174.8850  142.5280 C   0  0  0  0  0  2  0  0  0  0  0  0
  188.1380  174.5330  141.1540 C   0  0  0  0  0  2  0  0  0  0  0  0
  188.4190  172.7110  139.1940 S   0  0  0  0  0  0  0  0  0  0  0  0
  188.6190  173.1860  140.7510 C   0  0  0  0  0  0  0  0  0  0  0  0
  189.2600  172.3620  141.7370 N   0  0  0  0  0  2  0  0  0  0  0  0
  191.5080  172.6130  141.1110 O   0  0  0  0  0  0  0  0  0  0  0  0
  190.6700  172.1500  141.9260 C   0  0  0  0  0  0  0  0  0  0  0  0
  191.1290  171.4110  143.0170 O   0  0  0  0  0  0  0  0  0  0  0  0
  191.1470  171.9310  144.3400 C   0  0  0  0  0  3  0  0  0  0  0  0
  189.7310  172.1060  144.8530 C   0  0  0  0  0  1  0  0  0  0  0  0
  191.8430  173.2750  144.3410 C   0  0  0  0  0  1  0  0  0  0  0  0
  1  2  1  0  0  0  0
  1 13  1  1  0  0  0
  2  4  1  1  0  0  0
  4  3  1  0  0  0  0
  5  9  1  0  0  0  0
  6  8  1  6  0  0  0
  6  3  1  0  0  0  0
  7  1  1  0  0  0  0
  9  7  1  0  0  0  0
 10  5  1  6  0  0  0
 10 11  1  0  0  0  0
 10  2  1  0  0  0  0
 11  6  1  0  0  0  0
 12 15  1  0  0  0  0
 12 14  1  0  0  0  0
 13 17  1  0  0  0  0
 13 18  2  0  0  0  0
 16 19  1  0  0  0  0
 17 12  2  0  0  0  0
 18 16  1  0  0  0  0
 18 19  1  0  0  0  0
 19 14  2  0  0  0  0
 20 21  1  0  0  0  0
 20  7  1  0  0  0  0
 22 21  1  0  0  0  0
 23 24  2  0  0  0  0
 24 22  1  0  0  0  0
 24 25  1  0  0  0  0
 25 27  1  0  0  0  0
 26 27  2  0  0  0  0
 27 28  1  0  0  0  0
 28 29  1  0  0  0  0
 29 31  1  0  0  0  0
 29 30  1  0  0  0  0
M  END
>  <MODEL>
2

>  <REMARK>
 VINA RESULT:      -7.2      2.211      2.803
  Name = 
  8 active torsions:
  status: ('A' for Active; 'I' for Inactive)
    1  A    between atoms: C_1  and  O_24
    2  A    between atoms: N_3  and  C_22
    3  A    between atoms: C_4  and  C_12
    4  A    between atoms: C_9  and  C_22
    5  A    between atoms: C_9  and  C_23
    6  A    between atoms: C_15  and  N_21
    7  A    between atoms: C_15  and  C_23
    8  A    between atoms: C_19  and  O_24
                            x       y       z     vdW  Elec       q    Type
                         _______ _______ _______ _____ _____    ______ ____

>  <TORSDO>
F 8

$$$$
=
 OpenBabel11052417513D

 31 34  0  0  1  0  0  0  0  0999 V2000
  190.3200  175.5550  145.0840 C   0  0  1  0  0  3  0  0  0  0  0  0
  191.8100  175.8790  144.8340 C   0  0  2  0  0  3  0  0  0  0  0  0
  193.9010  175.0910  143.6770 C   0  0  0  0  0  2  0  0  0  0  0  0
  192.3800  175.0380  143.6790 C   0  0  0  0  0  2  0  0  0  0  0  0
  191.8340  175.8450  147.3980 C   0  0  0  0  0  2  0  0  0  0  0  0
  194.4760  174.4400  144.9400 C   0  0  1  0  0  3  0  0  0  0  0  0
  189.7190  176.3360  146.1870 N   0  0  0  0  0  0  0  0  0  0  0  0
  195.8250  175.0520  145.2570 C   0  0  0  0  0  1  0  0  0  0  0  0
  190.6750  176.8110  147.1990 C   0  0  0  0  0  2  0  0  0  0  0  0
  192.6680  175.7800  146.1270 C   0  0  1  0  0  3  0  0  0  0  0  0
  193.5520  174.5330  146.1610 C   0  0  0  0  0  2  0  0  0  0  0  0
  188.4520  177.1380  141.9880 C   0  0  0  0  0  0  0  0  0  0  0  0
  189.5090  175.7520  143.8380 C   0  0  0  0  0  0  0  0  0  0  0  0
  187.8900  175.9960  141.3110 C   0  0  0  0  0  3  0  0  0  0  0  0
  188.2420  178.3700  141.4690 F   0  0  0  0  0  0  0  0  0  0  0  0
  188.4540  173.6040  142.5160 O   0  0  0  0  0  0  0  0  0  0  0  0
  189.2400  177.0200  143.2150 C   0  0  0  0  0  3  0  0  0  0  0  0
  188.9500  174.7380  143.1210 C   0  0  0  0  0  0  0  0  0  0  0  0
  188.2190  174.8520  141.9800 C   0  0  0  0  0  0  0  0  0  0  0  0
  188.7620  175.4730  146.8710 C   0  0  0  0  0  2  0  0  0  0  0  0
  187.4180  176.1710  146.9970 C   0  0  0  0  0  2  0  0  0  0  0  0
  187.4310  177.4700  146.2160 C   0  0  0  0  0  2  0  0  0  0  0  0
  185.2290  178.8300  146.9520 S   0  0  0  0  0  0  0  0  0  0  0  0
  186.0400  177.8800  145.8890 C   0  0  0  0  0  0  0  0  0  0  0  0
  185.4710  177.4460  144.6440 N   0  0  0  0  0  2  0  0  0  0  0  0
  185.4160  179.4760  143.4670 O   0  0  0  0  0  0  0  0  0  0  0  0
  185.2350  178.2320  143.4630 C   0  0  0  0  0  0  0  0  0  0  0  0
  184.7860  177.6210  142.2910 O   0  0  0  0  0  0  0  0  0  0  0  0
  184.4450  178.3610  141.1250 C   0  0  0  0  0  3  0  0  0  0  0  0
  182.9730  178.1860  140.8060 C   0  0  0  0  0  1  0  0  0  0  0  0
  185.2680  177.8610  139.9570 C   0  0  0  0  0  1  0  0  0  0  0  0
  1 13  1  6  0  0  0
  1  7  1  0  0  0  0
  2  4  1  6  0  0  0
  2  1  1  0  0  0  0
  2 10  1  0  0  0  0
  3  4  1  0  0  0  0
  3  6  1  0  0  0  0
  6  8  1  1  0  0  0
  6 11  1  0  0  0  0
  7 20  1  0  0  0  0
  7  9  1  0  0  0  0
  9  5  1  0  0  0  0
 10 11  1  6  0  0  0
 10  5  1  0  0  0  0
 12 17  1  0  0  0  0
 14 19  1  0  0  0  0
 14 12  2  0  0  0  0
 15 12  1  0  0  0  0
 16 18  1  0  0  0  0
 17 13  2  0  0  0  0
 18 13  1  0  0  0  0
 19 16  1  0  0  0  0
 19 18  2  0  0  0  0
 20 21  1  0  0  0  0
 22 21  1  0  0  0  0
 24 22  1  0  0  0  0
 24 23  2  0  0  0  0
 25 24  1  0  0  0  0
 27 26  2  0  0  0  0
 27 25  1  0  0  0  0
 28 27  1  0  0  0  0
 29 28  1  0  0  0  0
 30 29  1  0  0  0  0
 31 29  1  0  0  0  0
M  END
>  <MODEL>
3

>  <REMARK>
 VINA RESULT:      -7.2      3.408      8.142
  Name = 
  8 active torsions:
  status: ('A' for Active; 'I' for Inactive)
    1  A    between atoms: C_1  and  O_24
    2  A    between atoms: N_3  and  C_22
    3  A    between atoms: C_4  and  C_12
    4  A    between atoms: C_9  and  C_22
    5  A    between atoms: C_9  and  C_23
    6  A    between atoms: C_15  and  N_21
    7  A    between atoms: C_15  and  C_23
    8  A    between atoms: C_19  and  O_24
                            x       y       z     vdW  Elec       q    Type
                         _______ _______ _______ _____ _____    ______ ____

>  <TORSDO>
F 8

$$$$
=
 OpenBabel11052417513D

 31 34  0  0  1  0  0  0  0  0999 V2000
  188.7100  175.8870  144.7270 C   0  0  1  0  0  3  0  0  0  0  0  0
  187.8220  177.1140  145.0350 C   0  0  2  0  0  3  0  0  0  0  0  0
  186.3820  178.1980  146.7910 C   0  0  0  0  0  2  0  0  0  0  0  0
  187.5290  177.2280  146.5410 C   0  0  0  0  0  2  0  0  0  0  0  0
  186.6260  176.2750  142.9280 C   0  0  0  0  0  2  0  0  0  0  0  0
  185.0750  177.6710  146.1890 C   0  0  1  0  0  3  0  0  0  0  0  0
  189.0240  175.7260  143.2910 N   0  0  0  0  0  0  0  0  0  0  0  0
  184.1670  178.8360  145.8490 C   0  0  0  0  0  1  0  0  0  0  0  0
  188.0420  176.3270  142.3740 C   0  0  0  0  0  2  0  0  0  0  0  0
  186.5310  177.1490  144.1700 C   0  0  1  0  0  3  0  0  0  0  0  0
  185.2740  176.7780  144.9580 C   0  0  0  0  0  2  0  0  0  0  0  0
  191.4640  175.4280  147.5170 C   0  0  0  0  0  0  0  0  0  0  0  0
  189.9880  175.9360  145.5120 C   0  0  0  0  0  0  0  0  0  0  0  0
  192.6240  176.0800  146.9590 C   0  0  0  0  0  3  0  0  0  0  0  0
  191.5630  174.8600  148.7410 F   0  0  0  0  0  0  0  0  0  0  0  0
  192.2100  177.1400  144.4700 O   0  0  0  0  0  0  0  0  0  0  0  0
  190.1840  175.3560  146.8130 C   0  0  0  0  0  3  0  0  0  0  0  0
  191.1370  176.5140  145.0660 C   0  0  0  0  0  0  0  0  0  0  0  0
  192.3260  176.5780  145.7230 C   0  0  0  0  0  0  0  0  0  0  0  0
  189.0630  174.2970  143.0030 C   0  0  0  0  0  2  0  0  0  0  0  0
  189.9380  174.0260  141.7910 C   0  0  0  0  0  2  0  0  0  0  0  0
  191.3100  174.6390  141.9920 C   0  0  0  0  0  2  0  0  0  0  0  0
  192.4240  172.4620  140.8720 S   0  0  0  0  0  0  0  0  0  0  0  0
  192.3370  173.5690  142.0790 C   0  0  0  0  0  0  0  0  0  0  0  0
  193.2270  173.5610  143.2060 N   0  0  0  0  0  2  0  0  0  0  0  0
  191.7610  172.8740  144.9050 O   0  0  0  0  0  0  0  0  0  0  0  0
  192.9350  173.1590  144.5550 C   0  0  0  0  0  0  0  0  0  0  0  0
  193.9550  173.0950  145.5060 O   0  0  0  0  0  0  0  0  0  0  0  0
  195.3180  173.3390  145.1830 C   0  0  0  0  0  3  0  0  0  0  0  0
  196.1980  172.2510  145.7680 C   0  0  0  0  0  1  0  0  0  0  0  0
  195.7370  174.6760  145.7560 C   0  0  0  0  0  1  0  0  0  0  0  0
  1  2  1  0  0  0  0
  1 13  1  1  0  0  0
  2  4  1  1  0  0  0
  4  3  1  0  0  0  0
  6  8  1  6  0  0  0
  6  3  1  0  0  0  0
  7  1  1  0  0  0  0
  9  5  1  0  0  0  0
  9  7  1  0  0  0  0
 10  5  1  6  0  0  0
 10 11  1  0  0  0  0
 10  2  1  0  0  0  0
 11  6  1  0  0  0  0
 12 15  1  0  0  0  0
 13 17  1  0  0  0  0
 14 12  1  0  0  0  0
 16 18  1  0  0  0  0
 16 19  1  0  0  0  0
 17 12  2  0  0  0  0
 18 13  2  0  0  0  0
 18 19  1  0  0  0  0
 19 14  2  0  0  0  0
 20  7  1  0  0  0  0
 21 22  1  0  0  0  0
 21 20  1  0  0  0  0
 22 24  1  0  0  0  0
 23 24  2  0  0  0  0
 24 25  1  0  0  0  0
 25 27  1  0  0  0  0
 27 26  2  0  0  0  0
 27 28  1  0  0  0  0
 29 28  1  0  0  0  0
 29 31  1  0  0  0  0
 29 30  1  0  0  0  0
M  END
>  <MODEL>
4

>  <REMARK>
 VINA RESULT:      -7.1      1.690      1.980
  Name = 
  8 active torsions:
  status: ('A' for Active; 'I' for Inactive)
    1  A    between atoms: C_1  and  O_24
    2  A    between atoms: N_3  and  C_22
    3  A    between atoms: C_4  and  C_12
    4  A    between atoms: C_9  and  C_22
    5  A    between atoms: C_9  and  C_23
    6  A    between atoms: C_15  and  N_21
    7  A    between atoms: C_15  and  C_23
    8  A    between atoms: C_19  and  O_24
                            x       y       z     vdW  Elec       q    Type
                         _______ _______ _______ _____ _____    ______ ____

>  <TORSDO>
F 8

$$$$
=
 OpenBabel11052417513D

 31 34  0  0  1  0  0  0  0  0999 V2000
  192.7830  175.6390  144.5710 C   0  0  1  0  0  3  0  0  0  0  0  0
  194.0650  176.1920  143.9090 C   0  0  2  0  0  3  0  0  0  0  0  0
  195.5050  176.0840  141.8480 C   0  0  0  0  0  2  0  0  0  0  0  0
  194.1060  175.8640  142.4060 C   0  0  0  0  0  2  0  0  0  0  0  0
  195.0940  175.2900  146.0780 C   0  0  0  0  0  2  0  0  0  0  0  0
  196.5070  175.1100  142.4770 C   0  0  1  0  0  3  0  0  0  0  0  0
  192.6910  175.9250  146.0190 N   0  0  0  0  0  0  0  0  0  0  0  0
  197.8920  175.7230  142.4560 C   0  0  0  0  0  1  0  0  0  0  0  0
  193.9840  176.1300  146.6910 C   0  0  0  0  0  2  0  0  0  0  0  0
  195.3580  175.7550  144.6530 C   0  0  1  0  0  3  0  0  0  0  0  0
  196.1420  174.6770  143.9030 C   0  0  0  0  0  2  0  0  0  0  0  0
  189.3550  175.9130  142.6350 C   0  0  0  0  0  0  0  0  0  0  0  0
  191.5540  176.1570  143.8840 C   0  0  0  0  0  0  0  0  0  0  0  0
  189.1170  177.3330  142.5660 C   0  0  0  0  0  3  0  0  0  0  0  0
  188.4480  175.0730  142.0820 F   0  0  0  0  0  0  0  0  0  0  0  0
  191.0600  178.8430  143.7620 O   0  0  0  0  0  0  0  0  0  0  0  0
  190.5380  175.3410  143.2770 C   0  0  0  0  0  3  0  0  0  0  0  0
  191.2350  177.4760  143.7800 C   0  0  0  0  0  0  0  0  0  0  0  0
  190.1330  178.0040  143.1830 C   0  0  0  0  0  0  0  0  0  0  0  0
  192.0510  174.7800  146.6570 C   0  0  0  0  0  2  0  0  0  0  0  0
  190.9640  175.2470  147.6110 C   0  0  0  0  0  2  0  0  0  0  0  0
  189.6020  175.0960  146.9620 C   0  0  0  0  0  2  0  0  0  0  0  0
  189.7290  177.7540  147.3530 S   0  0  0  0  0  0  0  0  0  0  0  0
  189.0200  176.4350  146.6860 C   0  0  0  0  0  0  0  0  0  0  0  0
  187.8720  176.5210  145.8270 N   0  0  0  0  0  2  0  0  0  0  0  0
  186.1650  176.7790  147.4170 O   0  0  0  0  0  0  0  0  0  0  0  0
  186.5040  176.7500  146.2060 C   0  0  0  0  0  0  0  0  0  0  0  0
  185.5250  176.9310  145.2280 O   0  0  0  0  0  0  0  0  0  0  0  0
  185.6380  177.9100  144.2040 C   0  0  0  0  0  3  0  0  0  0  0  0
  184.6730  179.0510  144.4620 C   0  0  0  0  0  1  0  0  0  0  0  0
  185.3110  177.2780  142.8680 C   0  0  0  0  0  1  0  0  0  0  0  0
  1 13  1  6  0  0  0
  1  7  1  0  0  0  0
  2  4  1  6  0  0  0
  2  1  1  0  0  0  0
  2 10  1  0  0  0  0
  3  4  1  0  0  0  0
  3  6  1  0  0  0  0
  5  9  1  0  0  0  0
  6  8  1  1  0  0  0
  6 11  1  0  0  0  0
  7 20  1  0  0  0  0
  7  9  1  0  0  0  0
 10 11  1  6  0  0  0
 10  5  1  0  0  0  0
 12 17  1  0  0  0  0
 14 12  2  0  0  0  0
 14 19  1  0  0  0  0
 15 12  1  0  0  0  0
 16 18  1  0  0  0  0
 17 13  2  0  0  0  0
 18 13  1  0  0  0  0
 19 16  1  0  0  0  0
 19 18  2  0  0  0  0
 20 21  1  0  0  0  0
 22 21  1  0  0  0  0
 24 22  1  0  0  0  0
 24 23  2  0  0  0  0
 25 27  1  0  0  0  0
 25 24  1  0  0  0  0
 27 26  2  0  0  0  0
 28 27  1  0  0  0  0
 29 30  1  0  0  0  0
 29 28  1  0  0  0  0
 31 29  1  0  0  0  0
M  END
>  <MODEL>
5

>  <REMARK>
 VINA RESULT:      -7.1      3.054      8.025
  Name = 
  8 active torsions:
  status: ('A' for Active; 'I' for Inactive)
    1  A    between atoms: C_1  and  O_24
    2  A    between atoms: N_3  and  C_22
    3  A    between atoms: C_4  and  C_12
    4  A    between atoms: C_9  and  C_22
    5  A    between atoms: C_9  and  C_23
    6  A    between atoms: C_15  and  N_21
    7  A    between atoms: C_15  and  C_23
    8  A    between atoms: C_19  and  O_24
                            x       y       z     vdW  Elec       q    Type
                         _______ _______ _______ _____ _____    ______ ____

>  <TORSDO>
F 8

$$$$
=
 OpenBabel11052417513D

 31 34  0  0  1  0  0  0  0  0999 V2000
  189.9890  174.8100  143.5770 C   0  0  1  0  0  3  0  0  0  0  0  0
  190.0130  173.2830  143.3420 C   0  0  2  0  0  3  0  0  0  0  0  0
  191.5200  171.2940  143.0180 C   0  0  0  0  0  2  0  0  0  0  0  0
  191.4150  172.7010  143.5920 C   0  0  0  0  0  2  0  0  0  0  0  0
  188.5740  173.9730  141.3350 C   0  0  0  0  0  2  0  0  0  0  0  0
  191.3820  171.3120  141.4920 C   0  0  1  0  0  3  0  0  0  0  0  0
  188.6640  175.4260  143.3500 N   0  0  0  0  0  0  0  0  0  0  0  0
  190.8340  169.9820  141.0170 C   0  0  0  0  0  1  0  0  0  0  0  0
  187.7900  174.6860  142.4260 C   0  0  0  0  0  2  0  0  0  0  0  0
  189.4370  172.8830  141.9550 C   0  0  1  0  0  3  0  0  0  0  0  0
  190.5180  172.4610  140.9590 C   0  0  0  0  0  2  0  0  0  0  0  0
  192.0880  176.1480  146.6410 C   0  0  0  0  0  0  0  0  0  0  0  0
  190.4640  175.1510  144.9590 C   0  0  0  0  0  0  0  0  0  0  0  0
  191.2780  175.8030  147.7830 C   0  0  0  0  0  3  0  0  0  0  0  0
  193.2620  176.7890  146.8450 F   0  0  0  0  0  0  0  0  0  0  0  0
  188.9390  174.5350  147.1420 O   0  0  0  0  0  0  0  0  0  0  0  0
  191.6920  175.8330  145.2680 C   0  0  0  0  0  3  0  0  0  0  0  0
  189.7670  174.8810  146.0960 C   0  0  0  0  0  0  0  0  0  0  0  0
  190.1380  175.1760  147.3700 C   0  0  0  0  0  0  0  0  0  0  0  0
  188.8810  176.7470  142.7720 C   0  0  0  0  0  2  0  0  0  0  0  0
  187.8150  177.7170  143.2540 C   0  0  0  0  0  2  0  0  0  0  0  0
  187.2140  178.4570  142.0750 C   0  0  0  0  0  2  0  0  0  0  0  0
  184.9640  178.2870  140.6090 S   0  0  0  0  0  0  0  0  0  0  0  0
  185.7400  178.2680  142.0540 C   0  0  0  0  0  0  0  0  0  0  0  0
  185.0570  178.0530  143.2990 N   0  0  0  0  0  2  0  0  0  0  0  0
  185.2450  180.1830  144.2660 O   0  0  0  0  0  0  0  0  0  0  0  0
  184.7770  179.0180  144.3280 C   0  0  0  0  0  0  0  0  0  0  0  0
  183.9900  178.6670  145.4260 O   0  0  0  0  0  0  0  0  0  0  0  0
  184.5380  178.1070  146.6120 C   0  0  0  0  0  3  0  0  0  0  0  0
  185.5670  179.0480  147.2080 C   0  0  0  0  0  1  0  0  0  0  0  0
  185.2060  176.7890  146.2820 C   0  0  0  0  0  1  0  0  0  0  0  0
  1 13  1  1  0  0  0
  2  1  1  0  0  0  0
  2  4  1  6  0  0  0
  3  4  1  0  0  0  0
  5 10  1  0  0  0  0
  5  9  1  0  0  0  0
  6  8  1  1  0  0  0
  6  3  1  0  0  0  0
  7  1  1  0  0  0  0
  9  7  1  0  0  0  0
 10 11  1  6  0  0  0
 10  2  1  0  0  0  0
 11  6  1  0  0  0  0
 12 15  1  0  0  0  0
 12 14  1  0  0  0  0
 13 17  1  0  0  0  0
 13 18  2  0  0  0  0
 16 19  1  0  0  0  0
 17 12  2  0  0  0  0
 18 16  1  0  0  0  0
 18 19  1  0  0  0  0
 19 14  2  0  0  0  0
 20 21  1  0  0  0  0
 20  7  1  0  0  0  0
 22 21  1  0  0  0  0
 23 24  2  0  0  0  0
 24 22  1  0  0  0  0
 24 25  1  0  0  0  0
 25 27  1  0  0  0  0
 26 27  2  0  0  0  0
 27 28  1  0  0  0  0
 28 29  1  0  0  0  0
 29 30  1  0  0  0  0
 31 29  1  0  0  0  0
M  END
>  <MODEL>
6

>  <REMARK>
 VINA RESULT:      -7.0      2.956      7.262
  Name = 
  8 active torsions:
  status: ('A' for Active; 'I' for Inactive)
    1  A    between atoms: C_1  and  O_24
    2  A    between atoms: N_3  and  C_22
    3  A    between atoms: C_4  and  C_12
    4  A    between atoms: C_9  and  C_22
    5  A    between atoms: C_9  and  C_23
    6  A    between atoms: C_15  and  N_21
    7  A    between atoms: C_15  and  C_23
    8  A    between atoms: C_19  and  O_24
                            x       y       z     vdW  Elec       q    Type
                         _______ _______ _______ _____ _____    ______ ____

>  <TORSDO>
F 8

$$$$
=
 OpenBabel11052417513D

 31 34  0  0  1  0  0  0  0  0999 V2000
  188.8530  176.5390  144.9190 C   0  0  1  0  0  3  0  0  0  0  0  0
  187.4030  176.7210  144.4170 C   0  0  2  0  0  3  0  0  0  0  0  0
  185.9620  177.9220  142.7400 C   0  0  0  0  0  2  0  0  0  0  0  0
  187.3680  177.4280  143.0510 C   0  0  0  0  0  2  0  0  0  0  0  0
  187.0520  177.3370  146.8820 C   0  0  0  0  0  2  0  0  0  0  0  0
  185.5250  179.0010  143.7360 C   0  0  1  0  0  3  0  0  0  0  0  0
  188.9480  175.8650  146.2320 N   0  0  0  0  0  0  0  0  0  0  0  0
  184.0150  178.9990  143.8560 C   0  0  0  0  0  1  0  0  0  0  0  0
  187.7560  176.0030  147.0830 C   0  0  0  0  0  2  0  0  0  0  0  0
  186.4880  177.4080  145.4700 C   0  0  1  0  0  3  0  0  0  0  0  0
  186.1670  178.8620  145.1220 C   0  0  0  0  0  2  0  0  0  0  0  0
  190.2590  173.7900  142.4610 C   0  0  0  0  0  0  0  0  0  0  0  0
  189.6810  175.7910  143.9170 C   0  0  0  0  0  0  0  0  0  0  0  0
  191.4120  174.4220  141.8690 C   0  0  0  0  0  3  0  0  0  0  0  0
  189.9420  172.5290  142.0830 F   0  0  0  0  0  0  0  0  0  0  0  0
  191.8560  176.9720  142.7560 O   0  0  0  0  0  0  0  0  0  0  0  0
  189.4160  174.4550  143.4540 C   0  0  0  0  0  3  0  0  0  0  0  0
  190.7760  176.3050  143.2940 C   0  0  0  0  0  0  0  0  0  0  0  0
  191.5560  175.6840  142.3690 C   0  0  0  0  0  0  0  0  0  0  0  0
  190.0650  176.4600  146.9570 C   0  0  0  0  0  2  0  0  0  0  0  0
  191.1370  175.4160  147.2220 C   0  0  0  0  0  2  0  0  0  0  0  0
  192.5130  176.0160  147.0060 C   0  0  0  0  0  2  0  0  0  0  0  0
  192.7950  173.8400  145.4500 S   0  0  0  0  0  0  0  0  0  0  0  0
  193.1560  175.3970  145.8180 C   0  0  0  0  0  0  0  0  0  0  0  0
  194.0510  176.1930  145.0270 N   0  0  0  0  0  2  0  0  0  0  0  0
  196.0660  175.0380  145.3640 O   0  0  0  0  0  0  0  0  0  0  0  0
  195.4470  175.9610  144.7740 C   0  0  0  0  0  0  0  0  0  0  0  0
  196.1440  176.7710  143.8760 O   0  0  0  0  0  0  0  0  0  0  0  0
  196.4730  176.3460  142.5590 C   0  0  0  0  0  3  0  0  0  0  0  0
  195.5550  175.2170  142.1290 C   0  0  0  0  0  1  0  0  0  0  0  0
  197.9050  175.8560  142.5340 C   0  0  0  0  0  1  0  0  0  0  0  0
  1 13  1  6  0  0  0
  1  7  1  0  0  0  0
  2  4  1  6  0  0  0
  2  1  1  0  0  0  0
  2 10  1  0  0  0  0
  3  4  1  0  0  0  0
  3  6  1  0  0  0  0
  5  9  1  0  0  0  0
  6  8  1  1  0  0  0
  6 11  1  0  0  0  0
  7 20  1  0  0  0  0
  7  9  1  0  0  0  0
 10 11  1  6  0  0  0
 10  5  1  0  0  0  0
 12 17  1  0  0  0  0
 14 19  1  0  0  0  0
 14 12  2  0  0  0  0
 15 12  1  0  0  0  0
 16 18  1  0  0  0  0
 17 13  2  0  0  0  0
 18 13  1  0  0  0  0
 19 16  1  0  0  0  0
 19 18  2  0  0  0  0
 20 21  1  0  0  0  0
 22 21  1  0  0  0  0
 23 24  2  0  0  0  0
 24 22  1  0  0  0  0
 25 24  1  0  0  0  0
 27 25  1  0  0  0  0
 27 26  2  0  0  0  0
 28 27  1  0  0  0  0
 29 28  1  0  0  0  0
 30 29  1  0  0  0  0
 31 29  1  0  0  0  0
M  END
>  <MODEL>
7

>  <REMARK>
 VINA RESULT:      -6.9      2.587      4.097
  Name = 
  8 active torsions:
  status: ('A' for Active; 'I' for Inactive)
    1  A    between atoms: C_1  and  O_24
    2  A    between atoms: N_3  and  C_22
    3  A    between atoms: C_4  and  C_12
    4  A    between atoms: C_9  and  C_22
    5  A    between atoms: C_9  and  C_23
    6  A    between atoms: C_15  and  N_21
    7  A    between atoms: C_15  and  C_23
    8  A    between atoms: C_19  and  O_24
                            x       y       z     vdW  Elec       q    Type
                         _______ _______ _______ _____ _____    ______ ____

>  <TORSDO>
F 8

$$$$
=
 OpenBabel11052417513D

 31 34  0  0  1  0  0  0  0  0999 V2000
  191.7710  174.9520  144.1050 C   0  0  1  0  0  3  0  0  0  0  0  0
  193.0300  174.3660  144.7840 C   0  0  2  0  0  3  0  0  0  0  0  0
  195.0680  174.9400  146.1420 C   0  0  0  0  0  2  0  0  0  0  0  0
  193.6590  175.3730  145.7620 C   0  0  0  0  0  2  0  0  0  0  0  0
  193.4400  173.5290  142.3940 C   0  0  0  0  0  2  0  0  0  0  0  0
  195.9980  174.9620  144.9240 C   0  0  1  0  0  3  0  0  0  0  0  0
  191.1240  174.0260  143.1510 N   0  0  0  0  0  0  0  0  0  0  0  0
  197.1160  173.9590  145.1210 C   0  0  0  0  0  1  0  0  0  0  0  0
  192.0190  173.0140  142.5700 C   0  0  0  0  0  2  0  0  0  0  0  0
  194.0550  173.8050  143.7590 C   0  0  1  0  0  3  0  0  0  0  0  0
  195.2830  174.7020  143.5920 C   0  0  0  0  0  2  0  0  0  0  0  0
  189.1580  175.0440  147.0610 C   0  0  0  0  0  0  0  0  0  0  0  0
  190.7660  175.3970  145.1250 C   0  0  0  0  0  0  0  0  0  0  0  0
  188.7870  176.4360  147.1420 C   0  0  0  0  0  3  0  0  0  0  0  0
  188.5930  174.1690  147.9250 F   0  0  0  0  0  0  0  0  0  0  0  0
  190.0630  178.0320  145.3220 O   0  0  0  0  0  0  0  0  0  0  0  0
  190.1210  174.5400  146.0820 C   0  0  0  0  0  3  0  0  0  0  0  0
  190.3630  176.6870  145.2890 C   0  0  0  0  0  0  0  0  0  0  0  0
  189.4680  177.1530  146.2010 C   0  0  0  0  0  0  0  0  0  0  0  0
  190.6000  174.8210  142.0460 C   0  0  0  0  0  2  0  0  0  0  0  0
  189.3240  174.1980  141.5060 C   0  0  0  0  0  2  0  0  0  0  0  0
  188.1490  174.5680  142.3890 C   0  0  0  0  0  2  0  0  0  0  0  0
  187.4400  176.4180  140.5690 S   0  0  0  0  0  0  0  0  0  0  0  0
  187.7320  175.9690  142.1190 C   0  0  0  0  0  0  0  0  0  0  0  0
  187.5790  176.8670  143.2290 N   0  0  0  0  0  2  0  0  0  0  0  0
  185.2620  177.2330  143.1690 O   0  0  0  0  0  0  0  0  0  0  0  0
  186.3590  177.4170  143.7550 C   0  0  0  0  0  0  0  0  0  0  0  0
  186.3780  178.1810  144.9230 O   0  0  0  0  0  0  0  0  0  0  0  0
  185.3120  178.1680  145.8630 C   0  0  0  0  0  3  0  0  0  0  0  0
  185.5670  179.1850  146.9580 C   0  0  0  0  0  1  0  0  0  0  0  0
  185.2070  176.7900  146.4810 C   0  0  0  0  0  1  0  0  0  0  0  0
  1  2  1  0  0  0  0
  1 13  1  1  0  0  0
  2  4  1  6  0  0  0
  4  3  1  0  0  0  0
  5  9  1  0  0  0  0
  6  8  1  1  0  0  0
  6  3  1  0  0  0  0
  7  1  1  0  0  0  0
  9  7  1  0  0  0  0
 10  5  1  6  0  0  0
 10  2  1  0  0  0  0
 11 10  1  0  0  0  0
 11  6  1  0  0  0  0
 12 14  1  0  0  0  0
 12 15  1  0  0  0  0
 13 18  2  0  0  0  0
 13 17  1  0  0  0  0
 16 19  1  0  0  0  0
 17 12  2  0  0  0  0
 18 16  1  0  0  0  0
 18 19  1  0  0  0  0
 19 14  2  0  0  0  0
 20  7  1  0  0  0  0
 21 20  1  0  0  0  0
 21 22  1  0  0  0  0
 23 24  2  0  0  0  0
 24 22  1  0  0  0  0
 24 25  1  0  0  0  0
 25 27  1  0  0  0  0
 26 27  2  0  0  0  0
 27 28  1  0  0  0  0
 28 29  1  0  0  0  0
 29 31  1  0  0  0  0
 29 30  1  0  0  0  0
M  END
>  <MODEL>
8

>  <REMARK>
 VINA RESULT:      -6.8      2.808      7.338
  Name = 
  8 active torsions:
  status: ('A' for Active; 'I' for Inactive)
    1  A    between atoms: C_1  and  O_24
    2  A    between atoms: N_3  and  C_22
    3  A    between atoms: C_4  and  C_12
    4  A    between atoms: C_9  and  C_22
    5  A    between atoms: C_9  and  C_23
    6  A    between atoms: C_15  and  N_21
    7  A    between atoms: C_15  and  C_23
    8  A    between atoms: C_19  and  O_24
                            x       y       z     vdW  Elec       q    Type
                         _______ _______ _______ _____ _____    ______ ____

>  <TORSDO>
F 8

$$$$
=
 OpenBabel11052417513D

 31 34  0  0  1  0  0  0  0  0999 V2000
  188.9660  176.5720  144.4760 C   0  0  1  0  0  3  0  0  0  0  0  0
  187.9790  177.5430  145.1620 C   0  0  2  0  0  3  0  0  0  0  0  0
  186.3670  177.7960  147.0770 C   0  0  0  0  0  2  0  0  0  0  0  0
  187.5900  177.0470  146.5660 C   0  0  0  0  0  2  0  0  0  0  0  0
  186.9700  177.5480  142.8040 C   0  0  0  0  0  2  0  0  0  0  0  0
  185.1370  177.4940  146.2140 C   0  0  1  0  0  3  0  0  0  0  0  0
  189.3750  176.9980  143.1200 N   0  0  0  0  0  0  0  0  0  0  0  0
  184.1730  178.6610  146.2790 C   0  0  0  0  0  1  0  0  0  0  0  0
  188.4100  177.8690  142.4310 C   0  0  0  0  0  2  0  0  0  0  0  0
  186.7420  177.8620  144.2760 C   0  0  1  0  0  3  0  0  0  0  0  0
  185.4690  177.1620  144.7540 C   0  0  0  0  0  2  0  0  0  0  0  0
  191.4410  175.5290  147.3680 C   0  0  0  0  0  0  0  0  0  0  0  0
  190.1890  176.3610  145.3190 C   0  0  0  0  0  0  0  0  0  0  0  0
  192.7270  175.9740  146.8900 C   0  0  0  0  0  3  0  0  0  0  0  0
  191.3710  174.9160  148.5730 F   0  0  0  0  0  0  0  0  0  0  0  0
  192.6440  177.1660  144.4280 O   0  0  0  0  0  0  0  0  0  0  0  0
  190.2080  175.7160  146.6040 C   0  0  0  0  0  3  0  0  0  0  0  0
  191.4450  176.7310  144.9500 C   0  0  0  0  0  0  0  0  0  0  0  0
  192.5900  176.5540  145.6620 C   0  0  0  0  0  0  0  0  0  0  0  0
  189.5280  175.7980  142.3060 C   0  0  0  0  0  2  0  0  0  0  0  0
  188.8280  174.6200  142.9620 C   0  0  0  0  0  2  0  0  0  0  0  0
  187.9610  173.8980  141.9490 C   0  0  0  0  0  2  0  0  0  0  0  0
  188.5100  172.9770  139.4810 S   0  0  0  0  0  0  0  0  0  0  0  0
  188.8030  173.0210  141.0950 C   0  0  0  0  0  0  0  0  0  0  0  0
  189.8540  172.2630  141.7130 N   0  0  0  0  0  2  0  0  0  0  0  0
  191.7390  173.3780  140.8710 O   0  0  0  0  0  0  0  0  0  0  0  0
  191.2710  172.4970  141.6360 C   0  0  0  0  0  0  0  0  0  0  0  0
  192.1520  171.7340  142.4030 O   0  0  0  0  0  0  0  0  0  0  0  0
  191.9740  171.5330  143.8000 C   0  0  0  0  0  3  0  0  0  0  0  0
  192.0390  172.8600  144.5310 C   0  0  0  0  0  1  0  0  0  0  0  0
  193.0710  170.6280  144.3190 C   0  0  0  0  0  1  0  0  0  0  0  0
  1  2  1  0  0  0  0
  1 13  1  1  0  0  0
  2  4  1  1  0  0  0
  4  3  1  0  0  0  0
  6  8  1  6  0  0  0
  6  3  1  0  0  0  0
  7  1  1  0  0  0  0
  9  5  1  0  0  0  0
  9  7  1  0  0  0  0
 10  5  1  6  0  0  0
 10 11  1  0  0  0  0
 10  2  1  0  0  0  0
 11  6  1  0  0  0  0
 12 15  1  0  0  0  0
 13 17  1  0  0  0  0
 14 12  1  0  0  0  0
 16 18  1  0  0  0  0
 16 19  1  0  0  0  0
 17 12  2  0  0  0  0
 18 13  2  0  0  0  0
 18 19  1  0  0  0  0
 19 14  2  0  0  0  0
 20 21  1  0  0  0  0
 20  7  1  0  0  0  0
 22 21  1  0  0  0  0
 23 24  2  0  0  0  0
 24 25  1  0  0  0  0
 24 22  1  0  0  0  0
 26 27  2  0  0  0  0
 27 25  1  0  0  0  0
 27 28  1  0  0  0  0
 28 29  1  0  0  0  0
 29 31  1  0  0  0  0
 29 30  1  0  0  0  0
M  END
>  <MODEL>
9

>  <REMARK>
 VINA RESULT:      -6.8      2.423      3.045
  Name = 
  8 active torsions:
  status: ('A' for Active; 'I' for Inactive)
    1  A    between atoms: C_1  and  O_24
    2  A    between atoms: N_3  and  C_22
    3  A    between atoms: C_4  and  C_12
    4  A    between atoms: C_9  and  C_22
    5  A    between atoms: C_9  and  C_23
    6  A    between atoms: C_15  and  N_21
    7  A    between atoms: C_15  and  C_23
    8  A    between atoms: C_19  and  O_24
                            x       y       z     vdW  Elec       q    Type
                         _______ _______ _______ _____ _____    ______ ____

>  <TORSDO>
F 8

$$$$
