=
 OpenBabel11052420383D

 34 39  0  0  1  0  0  0  0  0999 V2000
  188.9350  176.0110  143.3930 C   0  0  1  0  0  3  0  0  0  0  0  0
  186.5390  178.5760  144.9020 C   0  0  0  0  0  0  0  0  0  0  0  0
  187.4870  178.6650  142.6120 C   0  0  1  0  0  3  0  0  0  0  0  0
  186.7780  175.5070  142.2190 C   0  0  0  0  0  2  0  0  0  0  0  0
  187.1630  176.4010  141.0580 C   0  0  0  0  0  2  0  0  0  0  0  0
  188.5700  178.2910  141.6380 C   0  0  0  0  0  2  0  0  0  0  0  0
  188.0410  174.9080  142.8280 C   0  0  0  0  0  2  0  0  0  0  0  0
  187.1230  177.9160  141.3130 C   0  0  2  0  0  3  0  0  0  0  0  0
  185.7800  179.6770  144.5080 O   0  0  0  0  0  1  0  0  0  0  0  0
  186.4500  178.0990  146.2280 C   0  0  0  0  0  0  0  0  0  0  0  0
  187.2210  176.9990  146.6060 C   0  0  0  0  0  3  0  0  0  0  0  0
  187.3970  177.9590  143.9630 C   0  0  0  0  0  0  0  0  0  0  0  0
  188.0600  176.3740  145.6930 C   0  0  0  0  0  3  0  0  0  0  0  0
  188.1800  176.8470  144.3810 C   0  0  0  0  0  0  0  0  0  0  0  0
  190.4720  174.0000  143.9980 C   0  0  1  0  0  3  0  0  0  0  0  0
  192.8010  174.5110  141.9540 C   0  0  0  0  0  2  0  0  0  0  0  0
  190.4420  170.7820  142.2100 C   0  0  0  0  0  2  0  0  0  0  0  0
  191.4490  176.3180  143.1720 C   0  0  1  0  0  3  0  0  0  0  0  0
  190.3160  175.5350  143.8670 C   0  0  1  0  0  3  0  0  0  0  0  0
  191.7650  171.7970  140.3760 C   0  0  0  0  0  0  0  0  0  0  0  0
  191.2960  171.8130  142.9220 C   0  0  2  0  0  3  0  0  0  0  0  0
  192.0150  171.1660  139.3600 O   0  0  0  0  0  0  0  0  0  0  0  0
  190.7040  173.2100  142.6820 C   0  0  2  0  0  3  0  0  0  0  0  0
  191.6300  177.5330  143.8370 O   0  0  0  0  0  1  0  0  0  0  0  0
  193.8540  176.4160  142.9250 O   0  0  0  0  0  1  0  0  0  0  0  0
  191.8370  171.0710  141.6950 C   0  0  1  0  0  3  0  0  0  0  0  0
  191.4220  173.2560  140.2460 C   0  0  2  0  0  3  0  0  0  0  0  0
  191.4130  173.9970  141.5750 C   0  0  2  0  0  3  0  0  0  0  0  0
  190.0820  173.4220  139.5520 C   0  0  0  0  0  1  0  0  0  0  0  0
  192.7770  175.5420  143.0910 C   0  0  2  0  0  3  0  0  0  0  0  0
  191.4500  173.6650  145.1190 C   0  0  0  0  0  1  0  0  0  0  0  0
  185.5670  178.7250  147.2410 C   0  0  0  0  0  0  0  0  0  0  0  0
  186.0030  179.7930  148.0160 O   0  0  0  0  0  1  0  0  0  0  0  0
  184.3960  178.2910  147.4130 O   0  0  0  0  0  0  0  0  0  0  0  0
  1  7  1  1  0  0  0
  1 14  1  0  0  0  0
  2 10  1  0  0  0  0
  3  6  1  6  0  0  0
  3 12  1  0  0  0  0
  4  7  1  0  0  0  0
  5  4  1  0  0  0  0
  8  5  1  1  0  0  0
  8  6  1  0  0  0  0
  8  3  1  0  0  0  0
  9  2  1  0  0  0  0
 10 11  2  0  0  0  0
 10 32  1  0  0  0  0
 12 14  1  0  0  0  0
 12  2  2  0  0  0  0
 13 11  1  0  0  0  0
 14 13  2  0  0  0  0
 15 31  1  1  0  0  0
 16 30  1  0  0  0  0
 18 24  1  1  0  0  0
 18 19  1  0  0  0  0
 19  1  1  6  0  0  0
 19 15  1  0  0  0  0
 20 26  1  0  0  0  0
 21 17  1  6  0  0  0
 22 20  2  0  0  0  0
 23 21  1  0  0  0  0
 23 15  1  0  0  0  0
 25 30  1  0  0  0  0
 26 17  1  0  0  0  0
 26 21  1  0  0  0  0
 27 20  1  0  0  0  0
 27 28  1  0  0  0  0
 28 16  1  0  0  0  0
 28 23  1  0  0  0  0
 29 27  1  0  0  0  0
 30 18  1  0  0  0  0
 32 34  2  0  0  0  0
 32 33  1  0  0  0  0
M  END
>  <MODEL>
1

>  <REMARK>
 VINA RESULT:      -8.5      0.000      0.000
  Name = 
  2 active torsions:
  status: ('A' for Active; 'I' for Inactive)
    1  A    between atoms: C_1  and  C_9
    2  A    between atoms: C_3  and  C_25
                            x       y       z     vdW  Elec       q    Type
                         _______ _______ _______ _____ _____    ______ ____

>  <TORSDO>
F 2

$$$$
=
 OpenBabel11052420383D

 34 39  0  0  1  0  0  0  0  0999 V2000
  189.9620  175.8090  143.8700 C   0  0  1  0  0  3  0  0  0  0  0  0
  186.3950  177.1680  143.7050 C   0  0  0  0  0  0  0  0  0  0  0  0
  187.5280  176.3450  145.7510 C   0  0  1  0  0  3  0  0  0  0  0  0
  190.1800  178.0610  144.9470 C   0  0  0  0  0  2  0  0  0  0  0  0
  189.9930  177.4580  146.3250 C   0  0  0  0  0  2  0  0  0  0  0  0
  188.5800  175.4870  146.4000 C   0  0  0  0  0  2  0  0  0  0  0  0
  190.8540  177.0380  144.0410 C   0  0  0  0  0  2  0  0  0  0  0  0
  188.5750  176.9900  146.6840 C   0  0  2  0  0  3  0  0  0  0  0  0
  185.3640  177.5420  144.5640 O   0  0  0  0  0  1  0  0  0  0  0  0
  186.2500  177.3490  142.3120 C   0  0  0  0  0  0  0  0  0  0  0  0
  187.2920  176.9630  141.4660 C   0  0  0  0  0  3  0  0  0  0  0  0
  187.5710  176.6000  144.2470 C   0  0  0  0  0  0  0  0  0  0  0  0
  188.4580  176.4150  141.9830 C   0  0  0  0  0  3  0  0  0  0  0  0
  188.6100  176.2050  143.3590 C   0  0  0  0  0  0  0  0  0  0  0  0
  191.9530  174.9810  142.4130 C   0  0  1  0  0  3  0  0  0  0  0  0
  193.0160  172.6820  144.2690 C   0  0  0  0  0  2  0  0  0  0  0  0
  195.4300  176.1050  142.8570 C   0  0  0  0  0  2  0  0  0  0  0  0
  190.5580  173.3380  143.9520 C   0  0  1  0  0  3  0  0  0  0  0  0
  190.6200  174.6390  143.1240 C   0  0  1  0  0  3  0  0  0  0  0  0
  195.6640  174.5890  144.8050 C   0  0  0  0  0  0  0  0  0  0  0  0
  194.5230  174.9410  142.5070 C   0  0  2  0  0  3  0  0  0  0  0  0
  196.6810  174.5900  145.4810 O   0  0  0  0  0  0  0  0  0  0  0  0
  193.2180  175.0600  143.3080 C   0  0  2  0  0  3  0  0  0  0  0  0
  189.3020  172.7540  143.7770 O   0  0  0  0  0  1  0  0  0  0  0  0
  191.3120  171.0400  143.9890 O   0  0  0  0  0  1  0  0  0  0  0  0
  195.8090  174.7100  143.3090 C   0  0  1  0  0  3  0  0  0  0  0  0
  194.3390  174.4480  145.5040 C   0  0  2  0  0  3  0  0  0  0  0  0
  193.1800  174.1730  144.5570 C   0  0  2  0  0  3  0  0  0  0  0  0
  194.0480  175.6860  146.3330 C   0  0  0  0  0  1  0  0  0  0  0  0
  191.6750  172.3340  143.6100 C   0  0  2  0  0  3  0  0  0  0  0  0
  192.1150  174.1260  141.1610 C   0  0  0  0  0  1  0  0  0  0  0  0
  185.0290  177.9340  141.7070 C   0  0  0  0  0  0  0  0  0  0  0  0
  183.8100  177.9040  142.3740 O   0  0  0  0  0  1  0  0  0  0  0  0
  185.0850  178.4720  140.5690 O   0  0  0  0  0  0  0  0  0  0  0  0
  1  7  1  6  0  0  0
  2 12  1  0  0  0  0
  2  9  1  0  0  0  0
  3  6  1  6  0  0  0
  3  8  1  0  0  0  0
  4  5  1  0  0  0  0
  6  8  1  0  0  0  0
  7  4  1  0  0  0  0
  8  5  1  6  0  0  0
 10  2  2  0  0  0  0
 11 13  2  0  0  0  0
 11 10  1  0  0  0  0
 12  3  1  0  0  0  0
 13 14  1  0  0  0  0
 14  1  1  0  0  0  0
 14 12  2  0  0  0  0
 15 31  1  6  0  0  0
 15 19  1  0  0  0  0
 15 23  1  0  0  0  0
 16 28  1  0  0  0  0
 17 26  1  0  0  0  0
 18 24  1  6  0  0  0
 19  1  1  1  0  0  0
 19 18  1  0  0  0  0
 20 22  2  0  0  0  0
 20 27  1  0  0  0  0
 21 17  1  1  0  0  0
 21 23  1  0  0  0  0
 21 26  1  0  0  0  0
 23 28  1  0  0  0  0
 26 20  1  0  0  0  0
 27 29  1  0  0  0  0
 28 27  1  0  0  0  0
 30 18  1  0  0  0  0
 30 25  1  0  0  0  0
 30 16  1  0  0  0  0
 32 10  1  0  0  0  0
 32 33  1  0  0  0  0
 34 32  2  0  0  0  0
M  END
>  <MODEL>
2

>  <REMARK>
 VINA RESULT:      -8.4      2.406      4.872
  Name = 
  2 active torsions:
  status: ('A' for Active; 'I' for Inactive)
    1  A    between atoms: C_1  and  C_9
    2  A    between atoms: C_3  and  C_25
                            x       y       z     vdW  Elec       q    Type
                         _______ _______ _______ _____ _____    ______ ____

>  <TORSDO>
F 2

$$$$
=
 OpenBabel11052420383D

 34 39  0  0  1  0  0  0  0  0999 V2000
  190.6950  175.3050  144.5880 C   0  0  1  0  0  3  0  0  0  0  0  0
  187.5380  177.3310  145.3200 C   0  0  0  0  0  0  0  0  0  0  0  0
  189.0540  177.6760  143.3870 C   0  0  1  0  0  3  0  0  0  0  0  0
  189.0840  174.4580  142.8650 C   0  0  0  0  0  2  0  0  0  0  0  0
  189.6040  175.4480  141.8430 C   0  0  0  0  0  2  0  0  0  0  0  0
  190.4160  177.5420  142.7630 C   0  0  0  0  0  2  0  0  0  0  0  0
  190.2150  174.0790  143.8140 C   0  0  0  0  0  2  0  0  0  0  0  0
  189.2140  176.9200  142.0510 C   0  0  2  0  0  3  0  0  0  0  0  0
  186.7290  178.2870  144.7100 O   0  0  0  0  0  1  0  0  0  0  0  0
  187.1730  176.7980  146.5750 C   0  0  0  0  0  0  0  0  0  0  0  0
  187.9990  175.8450  147.1740 C   0  0  0  0  0  3  0  0  0  0  0  0
  188.7240  176.9160  144.6700 C   0  0  0  0  0  0  0  0  0  0  0  0
  189.1610  175.4190  146.5440 C   0  0  0  0  0  3  0  0  0  0  0  0
  189.5520  175.9530  145.3100 C   0  0  0  0  0  0  0  0  0  0  0  0
  192.8770  173.9340  144.9480 C   0  0  1  0  0  3  0  0  0  0  0  0
  194.9670  176.2750  144.8500 C   0  0  0  0  0  2  0  0  0  0  0  0
  195.0210  172.7320  142.2090 C   0  0  0  0  0  2  0  0  0  0  0  0
  192.6080  176.4110  145.8460 C   0  0  1  0  0  3  0  0  0  0  0  0
  191.9510  175.0740  145.4400 C   0  0  1  0  0  3  0  0  0  0  0  0
  195.9780  175.0060  141.9690 C   0  0  0  0  0  0  0  0  0  0  0  0
  194.9820  173.2800  143.6230 C   0  0  2  0  0  3  0  0  0  0  0  0
  196.7640  175.2640  141.0700 O   0  0  0  0  0  0  0  0  0  0  0  0
  193.8060  174.2600  143.7500 C   0  0  2  0  0  3  0  0  0  0  0  0
  191.9380  176.9210  146.9600 O   0  0  0  0  0  1  0  0  0  0  0  0
  194.5530  177.3480  146.9370 O   0  0  0  0  0  1  0  0  0  0  0  0
  196.1130  173.6760  142.6670 C   0  0  1  0  0  3  0  0  0  0  0  0
  194.9430  176.0360  142.3330 C   0  0  2  0  0  3  0  0  0  0  0  0
  194.2180  175.7320  143.6350 C   0  0  2  0  0  3  0  0  0  0  0  0
  193.9400  176.1940  141.2050 C   0  0  0  0  0  1  0  0  0  0  0  0
  194.1180  176.2970  146.1280 C   0  0  2  0  0  3  0  0  0  0  0  0
  193.5780  173.2790  146.1330 C   0  0  0  0  0  1  0  0  0  0  0  0
  185.9420  177.2140  147.2890 C   0  0  0  0  0  0  0  0  0  0  0  0
  184.6830  176.8420  146.8310 O   0  0  0  0  0  0  0  0  0  0  0  0
  186.0240  177.9170  148.3320 O   0  0  0  0  0  1  0  0  0  0  0  0
  1  7  1  1  0  0  0
  1 14  1  0  0  0  0
  2 10  1  0  0  0  0
  3  6  1  1  0  0  0
  3 12  1  0  0  0  0
  4  7  1  0  0  0  0
  5  4  1  0  0  0  0
  8  5  1  1  0  0  0
  8  6  1  0  0  0  0
  8  3  1  0  0  0  0
  9  2  1  0  0  0  0
 10 11  2  0  0  0  0
 10 32  1  0  0  0  0
 12 14  1  0  0  0  0
 12  2  2  0  0  0  0
 13 11  1  0  0  0  0
 14 13  2  0  0  0  0
 15 19  1  0  0  0  0
 15 31  1  1  0  0  0
 16 30  1  0  0  0  0
 17 26  1  0  0  0  0
 18 30  1  0  0  0  0
 18 24  1  1  0  0  0
 19  1  1  6  0  0  0
 19 18  1  0  0  0  0
 20 27  1  0  0  0  0
 20 26  1  0  0  0  0
 21 17  1  6  0  0  0
 21 23  1  0  0  0  0
 22 20  2  0  0  0  0
 23 15  1  0  0  0  0
 26 21  1  0  0  0  0
 27 28  1  0  0  0  0
 28 23  1  0  0  0  0
 28 16  1  0  0  0  0
 29 27  1  0  0  0  0
 30 25  1  0  0  0  0
 32 34  1  0  0  0  0
 33 32  2  0  0  0  0
M  END
>  <MODEL>
3

>  <REMARK>
 VINA RESULT:      -8.1      2.447      3.331
  Name = 
  2 active torsions:
  status: ('A' for Active; 'I' for Inactive)
    1  A    between atoms: C_1  and  C_9
    2  A    between atoms: C_3  and  C_25
                            x       y       z     vdW  Elec       q    Type
                         _______ _______ _______ _____ _____    ______ ____

>  <TORSDO>
F 2

$$$$
=
 OpenBabel11052420383D

 34 39  0  0  1  0  0  0  0  0999 V2000
  190.3730  175.2940  143.8230 C   0  0  1  0  0  3  0  0  0  0  0  0
  187.1460  177.0340  144.9010 C   0  0  0  0  0  0  0  0  0  0  0  0
  188.5200  175.5390  146.3250 C   0  0  1  0  0  3  0  0  0  0  0  0
  191.2050  177.1060  145.3420 C   0  0  0  0  0  2  0  0  0  0  0  0
  191.2080  176.1600  146.5250 C   0  0  0  0  0  2  0  0  0  0  0  0
  189.5170  174.4210  146.4530 C   0  0  0  0  0  2  0  0  0  0  0  0
  191.4820  176.3150  144.0690 C   0  0  0  0  0  2  0  0  0  0  0  0
  189.8360  175.7700  147.0980 C   0  0  2  0  0  3  0  0  0  0  0  0
  186.4000  177.2600  146.0560 O   0  0  0  0  0  1  0  0  0  0  0  0
  186.7470  177.6200  143.6800 C   0  0  0  0  0  0  0  0  0  0  0  0
  187.5040  177.3770  142.5320 C   0  0  0  0  0  3  0  0  0  0  0  0
  188.2920  176.2070  144.9720 C   0  0  0  0  0  0  0  0  0  0  0  0
  188.6370  176.5770  142.5860 C   0  0  0  0  0  3  0  0  0  0  0  0
  189.0350  175.9680  143.7830 C   0  0  0  0  0  0  0  0  0  0  0  0
  192.0420  174.4500  142.0140 C   0  0  1  0  0  3  0  0  0  0  0  0
  192.2270  171.4330  142.8660 C   0  0  0  0  0  2  0  0  0  0  0  0
  195.6750  174.1800  142.5360 C   0  0  0  0  0  2  0  0  0  0  0  0
  190.1300  172.9020  142.9960 C   0  0  1  0  0  3  0  0  0  0  0  0
  190.6430  174.3200  142.6670 C   0  0  1  0  0  3  0  0  0  0  0  0
  195.3280  172.0830  143.8130 C   0  0  0  0  0  0  0  0  0  0  0  0
  194.4530  173.5660  141.8790 C   0  0  2  0  0  3  0  0  0  0  0  0
  196.2640  171.5220  144.3630 O   0  0  0  0  0  0  0  0  0  0  0  0
  193.2280  173.8010  142.7740 C   0  0  2  0  0  3  0  0  0  0  0  0
  188.7600  172.8480  142.7320 O   0  0  0  0  0  1  0  0  0  0  0  0
  190.0950  170.6280  142.1730 O   0  0  0  0  0  1  0  0  0  0  0  0
  195.5620  172.6720  142.4450 C   0  0  1  0  0  3  0  0  0  0  0  0
  194.0040  172.1320  144.5250 C   0  0  2  0  0  3  0  0  0  0  0  0
  192.8560  172.5910  143.6390 C   0  0  2  0  0  3  0  0  0  0  0  0
  194.0990  173.0200  145.7520 C   0  0  0  0  0  1  0  0  0  0  0  0
  190.8720  171.7850  142.2380 C   0  0  2  0  0  3  0  0  0  0  0  0
  191.9650  174.0880  140.5340 C   0  0  0  0  0  1  0  0  0  0  0  0
  185.5490  178.4860  143.5660 C   0  0  0  0  0  0  0  0  0  0  0  0
  185.6070  179.8400  143.8730 O   0  0  0  0  0  1  0  0  0  0  0  0
  184.4510  177.9970  143.1840 O   0  0  0  0  0  0  0  0  0  0  0  0
  1  7  1  6  0  0  0
  2 12  1  0  0  0  0
  2  9  1  0  0  0  0
  3  6  1  6  0  0  0
  3  8  1  0  0  0  0
  4  5  1  0  0  0  0
  5  8  1  0  0  0  0
  7  4  1  0  0  0  0
  8  6  1  6  0  0  0
 10  2  2  0  0  0  0
 11 13  2  0  0  0  0
 11 10  1  0  0  0  0
 12  3  1  0  0  0  0
 13 14  1  0  0  0  0
 14  1  1  0  0  0  0
 14 12  2  0  0  0  0
 15 31  1  6  0  0  0
 15 19  1  0  0  0  0
 15 23  1  0  0  0  0
 16 28  1  0  0  0  0
 18 24  1  6  0  0  0
 19 18  1  0  0  0  0
 19  1  1  1  0  0  0
 20 22  2  0  0  0  0
 20 27  1  0  0  0  0
 21 26  1  0  0  0  0
 21 17  1  1  0  0  0
 21 23  1  0  0  0  0
 23 28  1  0  0  0  0
 25 30  1  0  0  0  0
 26 17  1  0  0  0  0
 26 20  1  0  0  0  0
 27 29  1  0  0  0  0
 28 27  1  0  0  0  0
 30 16  1  0  0  0  0
 30 18  1  0  0  0  0
 32 10  1  0  0  0  0
 32 33  1  0  0  0  0
 34 32  2  0  0  0  0
M  END
>  <MODEL>
4

>  <REMARK>
 VINA RESULT:      -8.0      2.328      4.516
  Name = 
  2 active torsions:
  status: ('A' for Active; 'I' for Inactive)
    1  A    between atoms: C_1  and  C_9
    2  A    between atoms: C_3  and  C_25
                            x       y       z     vdW  Elec       q    Type
                         _______ _______ _______ _____ _____    ______ ____

>  <TORSDO>
F 2

$$$$
=
 OpenBabel11052420383D

 34 39  0  0  1  0  0  0  0  0999 V2000
  190.9010  174.3510  143.9930 C   0  0  1  0  0  3  0  0  0  0  0  0
  187.4840  176.0390  143.7120 C   0  0  0  0  0  0  0  0  0  0  0  0
  188.5850  174.7130  141.9280 C   0  0  1  0  0  3  0  0  0  0  0  0
  189.3160  172.4130  144.1210 C   0  0  0  0  0  2  0  0  0  0  0  0
  189.4340  172.1760  142.6290 C   0  0  0  0  0  2  0  0  0  0  0  0
  189.8380  174.1660  141.3010 C   0  0  0  0  0  2  0  0  0  0  0  0
  190.6270  172.9930  144.6380 C   0  0  0  0  0  2  0  0  0  0  0  0
  188.7330  173.1920  141.7130 C   0  0  2  0  0  3  0  0  0  0  0  0
  186.3910  176.0790  142.8490 O   0  0  0  0  0  1  0  0  0  0  0  0
  187.4380  176.7370  144.9380 C   0  0  0  0  0  0  0  0  0  0  0  0
  188.5440  176.6900  145.7880 C   0  0  0  0  0  3  0  0  0  0  0  0
  188.6320  175.3020  143.3360 C   0  0  0  0  0  0  0  0  0  0  0  0
  189.6740  175.9620  145.4390 C   0  0  0  0  0  3  0  0  0  0  0  0
  189.7480  175.2830  144.2170 C   0  0  0  0  0  0  0  0  0  0  0  0
  193.1430  174.1120  145.2910 C   0  0  1  0  0  3  0  0  0  0  0  0
  195.1360  174.1290  142.8630 C   0  0  0  0  0  2  0  0  0  0  0  0
  194.8480  170.9020  145.8710 C   0  0  0  0  0  2  0  0  0  0  0  0
  192.9640  175.4820  143.0310 C   0  0  1  0  0  3  0  0  0  0  0  0
  192.2820  174.9420  144.3060 C   0  0  1  0  0  3  0  0  0  0  0  0
  195.7010  170.9430  143.5430 C   0  0  0  0  0  0  0  0  0  0  0  0
  195.0230  172.3820  145.5860 C   0  0  2  0  0  3  0  0  0  0  0  0
  196.3270  169.9970  143.0880 O   0  0  0  0  0  0  0  0  0  0  0  0
  193.8610  172.8660  144.7070 C   0  0  2  0  0  3  0  0  0  0  0  0
  192.4700  176.7600  142.7640 O   0  0  0  0  0  1  0  0  0  0  0  0
  195.0360  176.4160  142.2030 O   0  0  0  0  0  1  0  0  0  0  0  0
  195.9770  171.3540  144.9670 C   0  0  1  0  0  3  0  0  0  0  0  0
  194.7140  171.6440  142.6500 C   0  0  2  0  0  3  0  0  0  0  0  0
  194.2140  172.9630  143.2190 C   0  0  2  0  0  3  0  0  0  0  0  0
  193.5390  170.7320  142.3460 C   0  0  0  0  0  1  0  0  0  0  0  0
  194.5020  175.5030  143.1150 C   0  0  2  0  0  3  0  0  0  0  0  0
  194.0410  175.0340  146.1090 C   0  0  0  0  0  1  0  0  0  0  0  0
  186.2550  177.5250  145.3610 C   0  0  0  0  0  0  0  0  0  0  0  0
  185.2510  176.9580  146.1370 O   0  0  0  0  0  1  0  0  0  0  0  0
  186.1470  178.7340  145.0190 O   0  0  0  0  0  0  0  0  0  0  0  0
  1 14  1  0  0  0  0
  1  7  1  1  0  0  0
  2 10  1  0  0  0  0
  3  6  1  6  0  0  0
  3 12  1  0  0  0  0
  4  7  1  0  0  0  0
  5  4  1  0  0  0  0
  8  6  1  6  0  0  0
  8  3  1  0  0  0  0
  8  5  1  0  0  0  0
  9  2  1  0  0  0  0
 10 32  1  0  0  0  0
 10 11  2  0  0  0  0
 12  2  2  0  0  0  0
 12 14  1  0  0  0  0
 13 11  1  0  0  0  0
 14 13  2  0  0  0  0
 15 31  1  6  0  0  0
 16 30  1  0  0  0  0
 16 28  1  0  0  0  0
 18 24  1  1  0  0  0
 18 30  1  0  0  0  0
 18 19  1  0  0  0  0
 19  1  1  6  0  0  0
 19 15  1  0  0  0  0
 20 26  1  0  0  0  0
 21 17  1  1  0  0  0
 22 20  2  0  0  0  0
 23 15  1  0  0  0  0
 23 21  1  0  0  0  0
 25 30  1  0  0  0  0
 26 21  1  0  0  0  0
 26 17  1  0  0  0  0
 27 28  1  0  0  0  0
 27 20  1  0  0  0  0
 28 23  1  0  0  0  0
 29 27  1  0  0  0  0
 32 33  1  0  0  0  0
 34 32  2  0  0  0  0
M  END
>  <MODEL>
5

>  <REMARK>
 VINA RESULT:      -7.9      2.498      3.661
  Name = 
  2 active torsions:
  status: ('A' for Active; 'I' for Inactive)
    1  A    between atoms: C_1  and  C_9
    2  A    between atoms: C_3  and  C_25
                            x       y       z     vdW  Elec       q    Type
                         _______ _______ _______ _____ _____    ______ ____

>  <TORSDO>
F 2

$$$$
=
 OpenBabel11052420383D

 34 39  0  0  1  0  0  0  0  0999 V2000
  190.1100  174.2650  142.6070 C   0  0  1  0  0  3  0  0  0  0  0  0
  191.1310  171.5310  140.1420 C   0  0  0  0  0  0  0  0  0  0  0  0
  192.2320  171.9930  142.3150 C   0  0  1  0  0  3  0  0  0  0  0  0
  189.3030  172.1770  143.7350 C   0  0  0  0  0  2  0  0  0  0  0  0
  190.5850  172.0740  144.5350 C   0  0  0  0  0  2  0  0  0  0  0  0
  192.5600  172.9480  143.4290 C   0  0  0  0  0  2  0  0  0  0  0  0
  189.0030  173.6460  143.4590 C   0  0  0  0  0  2  0  0  0  0  0  0
  191.8430  171.6400  143.7670 C   0  0  2  0  0  3  0  0  0  0  0  0
  191.9800  170.4280  140.0760 O   0  0  0  0  0  1  0  0  0  0  0  0
  190.2690  171.8190  139.0620 C   0  0  0  0  0  0  0  0  0  0  0  0
  189.4290  172.9320  139.1430 C   0  0  0  0  0  3  0  0  0  0  0  0
  191.1570  172.3520  141.2930 C   0  0  0  0  0  0  0  0  0  0  0  0
  189.4340  173.7420  140.2710 C   0  0  0  0  0  3  0  0  0  0  0  0
  190.2990  173.4850  141.3410 C   0  0  0  0  0  0  0  0  0  0  0  0
  188.5750  176.3660  142.5870 C   0  0  1  0  0  3  0  0  0  0  0  0
  190.0030  178.0570  144.8140 C   0  0  0  0  0  2  0  0  0  0  0  0
  185.7470  176.8650  144.8900 C   0  0  0  0  0  2  0  0  0  0  0  0
  191.1640  176.5220  143.1210 C   0  0  1  0  0  3  0  0  0  0  0  0
  190.0010  175.7860  142.4220 C   0  0  1  0  0  3  0  0  0  0  0  0
  187.3320  177.5090  146.6850 C   0  0  0  0  0  0  0  0  0  0  0  0
  186.8820  177.5300  144.1340 C   0  0  2  0  0  3  0  0  0  0  0  0
  186.9380  177.7260  147.8200 O   0  0  0  0  0  0  0  0  0  0  0  0
  188.0640  176.5540  144.0400 C   0  0  2  0  0  3  0  0  0  0  0  0
  192.2820  176.4920  142.2850 O   0  0  0  0  0  1  0  0  0  0  0  0
  191.9900  178.7250  143.6810 O   0  0  0  0  0  1  0  0  0  0  0  0
  186.4940  178.0130  145.5370 C   0  0  1  0  0  3  0  0  0  0  0  0
  188.6310  176.7720  146.5060 C   0  0  2  0  0  3  0  0  0  0  0  0
  189.1590  176.8110  145.0800 C   0  0  2  0  0  3  0  0  0  0  0  0
  188.4870  175.3330  146.9660 C   0  0  0  0  0  1  0  0  0  0  0  0
  190.8260  177.9700  143.5220 C   0  0  2  0  0  3  0  0  0  0  0  0
  188.3980  177.5870  141.6900 C   0  0  0  0  0  1  0  0  0  0  0  0
  190.2200  170.9850  137.8370 C   0  0  0  0  0  0  0  0  0  0  0  0
  189.5670  169.7580  137.8270 O   0  0  0  0  0  1  0  0  0  0  0  0
  190.7740  171.3850  136.7780 O   0  0  0  0  0  0  0  0  0  0  0  0
  1  7  1  6  0  0  0
  2 12  1  0  0  0  0
  3  6  1  1  0  0  0
  3  8  1  0  0  0  0
  4  5  1  0  0  0  0
  7  4  1  0  0  0  0
  8  6  1  1  0  0  0
  8  5  1  0  0  0  0
  9  2  1  0  0  0  0
 10 11  1  0  0  0  0
 10  2  2  0  0  0  0
 11 13  2  0  0  0  0
 12 14  2  0  0  0  0
 12  3  1  0  0  0  0
 13 14  1  0  0  0  0
 14  1  1  0  0  0  0
 15 31  1  1  0  0  0
 15 23  1  0  0  0  0
 16 28  1  0  0  0  0
 17 26  1  0  0  0  0
 18 24  1  6  0  0  0
 18 30  1  0  0  0  0
 19 15  1  0  0  0  0
 19  1  1  1  0  0  0
 19 18  1  0  0  0  0
 20 22  2  0  0  0  0
 21 17  1  1  0  0  0
 21 26  1  0  0  0  0
 23 21  1  0  0  0  0
 23 28  1  0  0  0  0
 26 20  1  0  0  0  0
 27 20  1  0  0  0  0
 27 29  1  0  0  0  0
 28 27  1  0  0  0  0
 30 25  1  0  0  0  0
 30 16  1  0  0  0  0
 32 10  1  0  0  0  0
 33 32  1  0  0  0  0
 34 32  2  0  0  0  0
M  END
>  <MODEL>
6

>  <REMARK>
 VINA RESULT:      -7.8      1.594      7.837
  Name = 
  2 active torsions:
  status: ('A' for Active; 'I' for Inactive)
    1  A    between atoms: C_1  and  C_9
    2  A    between atoms: C_3  and  C_25
                            x       y       z     vdW  Elec       q    Type
                         _______ _______ _______ _____ _____    ______ ____

>  <TORSDO>
F 2

$$$$
=
 OpenBabel11052420383D

 34 39  0  0  1  0  0  0  0  0999 V2000
  191.5860  174.8210  143.5460 C   0  0  1  0  0  3  0  0  0  0  0  0
  193.9500  172.0490  144.6990 C   0  0  0  0  0  0  0  0  0  0  0  0
  191.4990  171.8180  144.4020 C   0  0  1  0  0  3  0  0  0  0  0  0
  191.7260  173.3410  141.5280 C   0  0  0  0  0  2  0  0  0  0  0  0
  190.4790  172.5910  141.9500 C   0  0  0  0  0  2  0  0  0  0  0  0
  190.1310  172.4420  144.3470 C   0  0  0  0  0  2  0  0  0  0  0  0
  191.6330  174.7810  142.0200 C   0  0  0  0  0  2  0  0  0  0  0  0
  190.6230  171.6350  143.1440 C   0  0  2  0  0  3  0  0  0  0  0  0
  193.9350  170.6760  144.9400 O   0  0  0  0  0  1  0  0  0  0  0  0
  195.1590  172.7690  144.8120 C   0  0  0  0  0  0  0  0  0  0  0  0
  195.1540  174.1440  144.5730 C   0  0  0  0  0  3  0  0  0  0  0  0
  192.7430  172.7010  144.3550 C   0  0  0  0  0  0  0  0  0  0  0  0
  193.9800  174.7980  144.2230 C   0  0  0  0  0  3  0  0  0  0  0  0
  192.7670  174.1050  144.1290 C   0  0  0  0  0  0  0  0  0  0  0  0
  190.7070  177.2380  143.1560 C   0  0  1  0  0  3  0  0  0  0  0  0
  188.4250  177.3010  145.3130 C   0  0  0  0  0  2  0  0  0  0  0  0
  187.8400  178.0570  140.9970 C   0  0  0  0  0  2  0  0  0  0  0  0
  190.6790  176.1010  145.5470 C   0  0  1  0  0  3  0  0  0  0  0  0
  191.3100  176.2080  144.1430 C   0  0  1  0  0  3  0  0  0  0  0  0
  186.2910  177.3210  142.7870 C   0  0  0  0  0  0  0  0  0  0  0  0
  188.5880  178.3980  142.2710 C   0  0  2  0  0  3  0  0  0  0  0  0
  185.0850  177.2810  142.5950 O   0  0  0  0  0  0  0  0  0  0  0  0
  189.1880  177.1140  142.8620 C   0  0  2  0  0  3  0  0  0  0  0  0
  191.6950  175.8930  146.4820 O   0  0  0  0  0  1  0  0  0  0  0  0
  189.6970  177.4160  147.3240 O   0  0  0  0  0  1  0  0  0  0  0  0
  187.0590  178.4880  142.2210 C   0  0  1  0  0  3  0  0  0  0  0  0
  186.9250  176.2170  143.5890 C   0  0  2  0  0  3  0  0  0  0  0  0
  188.3580  176.5160  144.0030 C   0  0  2  0  0  3  0  0  0  0  0  0
  186.8710  174.9090  142.8190 C   0  0  0  0  0  1  0  0  0  0  0  0
  189.8270  177.3230  145.9370 C   0  0  2  0  0  3  0  0  0  0  0  0
  191.1690  178.6460  143.5180 C   0  0  0  0  0  1  0  0  0  0  0  0
  196.4410  172.1200  145.1780 C   0  0  0  0  0  0  0  0  0  0  0  0
  197.1320  171.3270  144.2710 O   0  0  0  0  0  0  0  0  0  0  0  0
  196.9250  172.2850  146.3310 O   0  0  0  0  0  1  0  0  0  0  0  0
  1  7  1  6  0  0  0
  1 14  1  0  0  0  0
  2 10  1  0  0  0  0
  2  9  1  0  0  0  0
  3  6  1  1  0  0  0
  4  5  1  0  0  0  0
  4  7  1  0  0  0  0
  8  5  1  6  0  0  0
  8  6  1  0  0  0  0
  8  3  1  0  0  0  0
 10 32  1  0  0  0  0
 11 10  2  0  0  0  0
 12  3  1  0  0  0  0
 12  2  2  0  0  0  0
 13 11  1  0  0  0  0
 14 13  2  0  0  0  0
 14 12  1  0  0  0  0
 15 31  1  1  0  0  0
 15 19  1  0  0  0  0
 16 30  1  0  0  0  0
 17 26  1  0  0  0  0
 18 30  1  0  0  0  0
 18 24  1  1  0  0  0
 19  1  1  6  0  0  0
 19 18  1  0  0  0  0
 20 27  1  0  0  0  0
 21 17  1  6  0  0  0
 21 23  1  0  0  0  0
 22 20  2  0  0  0  0
 23 15  1  0  0  0  0
 23 28  1  0  0  0  0
 26 21  1  0  0  0  0
 26 20  1  0  0  0  0
 27 28  1  0  0  0  0
 28 16  1  0  0  0  0
 29 27  1  0  0  0  0
 30 25  1  0  0  0  0
 32 34  1  0  0  0  0
 33 32  2  0  0  0  0
M  END
>  <MODEL>
7

>  <REMARK>
 VINA RESULT:      -7.7      2.728      7.615
  Name = 
  2 active torsions:
  status: ('A' for Active; 'I' for Inactive)
    1  A    between atoms: C_1  and  C_9
    2  A    between atoms: C_3  and  C_25
                            x       y       z     vdW  Elec       q    Type
                         _______ _______ _______ _____ _____    ______ ____

>  <TORSDO>
F 2

$$$$
=
 OpenBabel11052420383D

 34 39  0  0  1  0  0  0  0  0999 V2000
  190.0040  175.0100  143.3210 C   0  0  1  0  0  3  0  0  0  0  0  0
  187.1450  177.0980  144.7600 C   0  0  0  0  0  0  0  0  0  0  0  0
  188.6960  175.6790  146.0770 C   0  0  1  0  0  3  0  0  0  0  0  0
  191.2090  176.9190  144.4090 C   0  0  0  0  0  2  0  0  0  0  0  0
  191.3980  176.1170  145.6820 C   0  0  0  0  0  2  0  0  0  0  0  0
  189.6410  174.5120  146.1550 C   0  0  0  0  0  2  0  0  0  0  0  0
  191.1900  175.9670  143.2190 C   0  0  0  0  0  2  0  0  0  0  0  0
  190.1490  175.9000  146.5490 C   0  0  2  0  0  3  0  0  0  0  0  0
  186.6540  177.5110  145.9970 O   0  0  0  0  0  1  0  0  0  0  0  0
  186.5430  177.5670  143.5730 C   0  0  0  0  0  0  0  0  0  0  0  0
  187.0440  177.1380  142.3420 C   0  0  0  0  0  3  0  0  0  0  0  0
  188.2390  176.2020  144.7170 C   0  0  0  0  0  0  0  0  0  0  0  0
  188.1240  176.2680  142.2820 C   0  0  0  0  0  3  0  0  0  0  0  0
  188.7200  175.7730  143.4490 C   0  0  0  0  0  0  0  0  0  0  0  0
  190.7960  174.1940  140.9800 C   0  0  1  0  0  3  0  0  0  0  0  0
  192.3000  171.5750  141.8410 C   0  0  0  0  0  2  0  0  0  0  0  0
  194.1240  174.9040  139.5770 C   0  0  0  0  0  2  0  0  0  0  0  0
  190.1680  172.5040  142.9210 C   0  0  1  0  0  3  0  0  0  0  0  0
  189.9910  173.8920  142.2680 C   0  0  1  0  0  3  0  0  0  0  0  0
  195.0970  173.1260  141.0040 C   0  0  0  0  0  0  0  0  0  0  0  0
  193.0010  173.8910  139.6910 C   0  0  2  0  0  3  0  0  0  0  0  0
  196.3040  172.9370  141.0350 O   0  0  0  0  0  0  0  0  0  0  0  0
  192.3360  174.0280  141.0680 C   0  0  2  0  0  3  0  0  0  0  0  0
  188.9310  172.0740  143.4050 O   0  0  0  0  0  1  0  0  0  0  0  0
  190.4690  170.1590  142.4090 O   0  0  0  0  0  1  0  0  0  0  0  0
  194.4630  173.4300  139.6710 C   0  0  1  0  0  3  0  0  0  0  0  0
  194.3240  173.0230  142.2900 C   0  0  2  0  0  3  0  0  0  0  0  0
  192.8160  172.9910  142.0890 C   0  0  2  0  0  3  0  0  0  0  0  0
  194.6980  174.1620  143.2220 C   0  0  0  0  0  1  0  0  0  0  0  0
  190.7760  171.4510  141.9760 C   0  0  2  0  0  3  0  0  0  0  0  0
  190.1520  173.5010  139.7840 C   0  0  0  0  0  1  0  0  0  0  0  0
  185.3910  178.5000  143.5790 C   0  0  0  0  0  0  0  0  0  0  0  0
  185.5580  179.8490  143.8710 O   0  0  0  0  0  1  0  0  0  0  0  0
  184.2330  178.0770  143.3150 O   0  0  0  0  0  0  0  0  0  0  0  0
  1  7  1  6  0  0  0
  1 14  1  0  0  0  0
  2  9  1  0  0  0  0
  3  6  1  6  0  0  0
  3  8  1  0  0  0  0
  4  5  1  0  0  0  0
  6  8  1  0  0  0  0
  7  4  1  0  0  0  0
  8  5  1  6  0  0  0
 10 32  1  0  0  0  0
 10  2  2  0  0  0  0
 11 10  1  0  0  0  0
 12  2  1  0  0  0  0
 12  3  1  0  0  0  0
 13 11  2  0  0  0  0
 13 14  1  0  0  0  0
 14 12  2  0  0  0  0
 15 31  1  6  0  0  0
 15 23  1  0  0  0  0
 15 19  1  0  0  0  0
 16 30  1  0  0  0  0
 16 28  1  0  0  0  0
 17 26  1  0  0  0  0
 18 24  1  6  0  0  0
 19 18  1  0  0  0  0
 19  1  1  1  0  0  0
 20 22  2  0  0  0  0
 20 27  1  0  0  0  0
 21 17  1  1  0  0  0
 21 23  1  0  0  0  0
 23 28  1  0  0  0  0
 26 21  1  0  0  0  0
 26 20  1  0  0  0  0
 27 29  1  0  0  0  0
 28 27  1  0  0  0  0
 30 25  1  0  0  0  0
 30 18  1  0  0  0  0
 32 33  1  0  0  0  0
 34 32  2  0  0  0  0
M  END
>  <MODEL>
8

>  <REMARK>
 VINA RESULT:      -7.5      2.098      4.292
  Name = 
  2 active torsions:
  status: ('A' for Active; 'I' for Inactive)
    1  A    between atoms: C_1  and  C_9
    2  A    between atoms: C_3  and  C_25
                            x       y       z     vdW  Elec       q    Type
                         _______ _______ _______ _____ _____    ______ ____

>  <TORSDO>
F 2

$$$$
=
 OpenBabel11052420383D

 34 39  0  0  1  0  0  0  0  0999 V2000
  193.1480  173.9030  144.5100 C   0  0  1  0  0  3  0  0  0  0  0  0
  196.5370  172.1830  144.9000 C   0  0  0  0  0  0  0  0  0  0  0  0
  196.1270  174.2880  143.6550 C   0  0  1  0  0  3  0  0  0  0  0  0
  194.3340  175.3860  146.1470 C   0  0  0  0  0  2  0  0  0  0  0  0
  194.8100  176.2930  145.0310 C   0  0  0  0  0  2  0  0  0  0  0  0
  195.1890  175.1920  142.9030 C   0  0  0  0  0  2  0  0  0  0  0  0
  192.9940  174.7740  145.7560 C   0  0  0  0  0  2  0  0  0  0  0  0
  195.9230  175.7440  144.1260 C   0  0  2  0  0  3  0  0  0  0  0  0
  197.8850  172.4280  144.6440 O   0  0  0  0  0  1  0  0  0  0  0  0
  196.1530  170.9980  145.5650 C   0  0  0  0  0  0  0  0  0  0  0  0
  194.7980  170.7660  145.8070 C   0  0  0  0  0  3  0  0  0  0  0  0
  195.5730  173.1260  144.4760 C   0  0  0  0  0  0  0  0  0  0  0  0
  193.8390  171.6880  145.4080 C   0  0  0  0  0  3  0  0  0  0  0  0
  194.1990  172.8570  144.7270 C   0  0  0  0  0  0  0  0  0  0  0  0
  190.5760  173.6380  144.8000 C   0  0  1  0  0  3  0  0  0  0  0  0
  189.6180  175.1390  142.2140 C   0  0  0  0  0  2  0  0  0  0  0  0
  188.4080  176.1870  146.3340 C   0  0  0  0  0  2  0  0  0  0  0  0
  191.7240  173.6900  142.4150 C   0  0  1  0  0  3  0  0  0  0  0  0
  191.8270  173.3840  143.9240 C   0  0  1  0  0  3  0  0  0  0  0  0
  188.4700  177.4960  144.2290 C   0  0  0  0  0  0  0  0  0  0  0  0
  188.5260  175.1210  145.2610 C   0  0  2  0  0  3  0  0  0  0  0  0
  187.9450  178.5970  144.1600 O   0  0  0  0  0  0  0  0  0  0  0  0
  189.9770  175.0680  144.7610 C   0  0  2  0  0  3  0  0  0  0  0  0
  192.4310  172.7140  141.7090 O   0  0  0  0  0  1  0  0  0  0  0  0
  190.2210  173.5720  140.5230 O   0  0  0  0  0  1  0  0  0  0  0  0
  187.7470  176.4140  144.9900 C   0  0  1  0  0  3  0  0  0  0  0  0
  189.7900  177.2870  143.5370 C   0  0  2  0  0  3  0  0  0  0  0  0
  190.2030  175.8260  143.4470 C   0  0  2  0  0  3  0  0  0  0  0  0
  190.8780  178.0910  144.2260 C   0  0  0  0  0  1  0  0  0  0  0  0
  190.2750  173.7880  141.9020 C   0  0  2  0  0  3  0  0  0  0  0  0
  189.5590  172.5190  144.5990 C   0  0  0  0  0  1  0  0  0  0  0  0
  197.1350  169.9840  146.0170 C   0  0  0  0  0  0  0  0  0  0  0  0
  197.1880  169.5730  147.3430 O   0  0  0  0  0  1  0  0  0  0  0  0
  197.9410  169.4750  145.1920 O   0  0  0  0  0  0  0  0  0  0  0  0
  1 14  1  0  0  0  0
  1  7  1  1  0  0  0
  2 10  1  0  0  0  0
  3  6  1  6  0  0  0
  3  8  1  0  0  0  0
  3 12  1  0  0  0  0
  5  4  1  0  0  0  0
  7  4  1  0  0  0  0
  8  6  1  6  0  0  0
  8  5  1  0  0  0  0
  9  2  1  0  0  0  0
 10 11  2  0  0  0  0
 10 32  1  0  0  0  0
 12 14  1  0  0  0  0
 12  2  2  0  0  0  0
 13 11  1  0  0  0  0
 14 13  2  0  0  0  0
 15 31  1  6  0  0  0
 16 28  1  0  0  0  0
 18 24  1  6  0  0  0
 18 19  1  0  0  0  0
 19  1  1  1  0  0  0
 19 15  1  0  0  0  0
 20 26  1  0  0  0  0
 21 17  1  1  0  0  0
 22 20  2  0  0  0  0
 23 15  1  0  0  0  0
 23 21  1  0  0  0  0
 25 30  1  0  0  0  0
 26 21  1  0  0  0  0
 26 17  1  0  0  0  0
 27 29  1  0  0  0  0
 27 20  1  0  0  0  0
 28 27  1  0  0  0  0
 28 23  1  0  0  0  0
 30 16  1  0  0  0  0
 30 18  1  0  0  0  0
 32 33  1  0  0  0  0
 34 32  2  0  0  0  0
M  END
>  <MODEL>
9

>  <REMARK>
 VINA RESULT:      -7.4      3.618      8.406
  Name = 
  2 active torsions:
  status: ('A' for Active; 'I' for Inactive)
    1  A    between atoms: C_1  and  C_9
    2  A    between atoms: C_3  and  C_25
                            x       y       z     vdW  Elec       q    Type
                         _______ _______ _______ _____ _____    ______ ____

>  <TORSDO>
F 2

$$$$
