=
 OpenBabel11052417353D

 25 28  0  0  1  0  0  0  0  0999 V2000
  186.6060  176.7510  144.3000 C   0  0  0  0  0  0  0  0  0  0  0  0
  187.6940  176.1330  143.6800 C   0  0  0  0  0  0  0  0  0  0  0  0
  185.6690  177.3700  142.1780 C   0  0  0  0  0  3  0  0  0  0  0  0
  186.2240  176.8360  145.7350 C   0  0  2  0  0  3  0  0  0  0  0  0
  189.6720  174.5820  143.6810 C   0  0  1  0  0  3  0  0  0  0  0  0
  185.3220  178.7230  147.7140 C   0  0  0  0  0  3  0  0  0  0  0  0
  186.7410  176.7940  141.5620 N   0  0  0  0  0  0  0  0  0  0  0  0
  184.9560  177.6400  145.6050 C   0  0  0  0  0  0  0  0  0  0  0  0
  184.4450  178.3830  146.7600 C   0  0  0  0  0  3  0  0  0  0  0  0
  188.8020  175.5330  144.4990 C   0  0  0  0  0  2  0  0  0  0  0  0
  186.7680  178.4010  147.5720 C   0  0  0  0  0  3  0  0  0  0  0  0
  185.6030  177.3270  143.5650 C   0  0  0  0  0  0  0  0  0  0  0  0
  184.6040  177.9100  144.3860 N   0  0  0  0  0  0  0  0  0  0  0  0
  188.8610  175.5180  141.4980 C   0  0  2  0  0  3  0  0  0  0  0  0
  187.2050  177.5710  146.6100 C   0  0  0  0  0  3  0  0  0  0  0  0
  190.0890  175.2450  142.3720 C   0  0  0  0  0  2  0  0  0  0  0  0
  187.7510  176.1890  142.2630 C   0  0  0  0  0  0  0  0  0  0  0  0
  192.8170  174.9230  145.9180 C   0  0  0  0  0  0  0  0  0  0  0  0
  193.4770  175.9890  146.5140 O   0  0  0  0  0  1  0  0  0  0  0  0
  193.2570  173.7540  146.0760 O   0  0  0  0  0  0  0  0  0  0  0  0
  190.8720  174.1670  144.4660 C   0  0  0  0  0  0  0  0  0  0  0  0
  191.6450  175.1700  145.1320 N   0  0  0  0  0  2  0  0  0  0  0  0
  191.1920  172.9490  144.5350 O   0  0  0  0  0  0  0  0  0  0  0  0
  188.3750  174.2750  140.9180 N   0  0  0  0  0  2  0  0  0  0  0  0
  189.4010  173.7970  140.0080 C   0  0  0  0  0  1  0  0  0  0  0  0
  1  4  1  0  0  0  0
  2  1  1  0  0  0  0
  2 10  1  0  0  0  0
  3 12  1  0  0  0  0
  4 15  1  1  0  0  0
  5 21  1  1  0  0  0
  5 10  1  0  0  0  0
  7  3  2  0  0  0  0
  7 17  1  0  0  0  0
  8  4  1  0  0  0  0
  8  9  1  0  0  0  0
  9  6  2  0  0  0  0
 11  6  1  0  0  0  0
 12  1  2  0  0  0  0
 12 13  1  0  0  0  0
 13  8  2  0  0  0  0
 14 24  1  1  0  0  0
 14 17  1  0  0  0  0
 14 16  1  0  0  0  0
 15 11  2  0  0  0  0
 16  5  1  0  0  0  0
 17  2  2  0  0  0  0
 18 20  2  0  0  0  0
 18 19  1  0  0  0  0
 21 23  2  0  0  0  0
 21 22  1  0  0  0  0
 22 18  1  0  0  0  0
 25 24  1  0  0  0  0
M  END
>  <MODEL>
1

>  <REMARK>
 VINA RESULT:      -7.7      0.000      0.000
  Name = 
  2 active torsions:
  status: ('A' for Active; 'I' for Inactive)
    1  A    between atoms: C_6  and  C_15
    2  A    between atoms: N_13  and  C_20
                            x       y       z     vdW  Elec       q    Type
                         _______ _______ _______ _____ _____    ______ ____

>  <TORSDO>
F 2

$$$$
=
 OpenBabel11052417353D

 25 28  0  0  1  0  0  0  0  0999 V2000
  187.4080  177.6990  143.9740 C   0  0  0  0  0  0  0  0  0  0  0  0
  188.5870  177.2870  144.5950 C   0  0  0  0  0  0  0  0  0  0  0  0
  186.1420  177.3090  145.9770 C   0  0  0  0  0  3  0  0  0  0  0  0
  187.1660  178.2510  142.6140 C   0  0  2  0  0  3  0  0  0  0  0  0
  191.0920  177.1350  144.7410 C   0  0  1  0  0  3  0  0  0  0  0  0
  185.4010  177.9770  140.3560 C   0  0  0  0  0  3  0  0  0  0  0  0
  187.2850  176.8780  146.5870 N   0  0  0  0  0  0  0  0  0  0  0  0
  185.6740  178.4520  142.6910 C   0  0  0  0  0  0  0  0  0  0  0  0
  184.8880  178.5410  141.4580 C   0  0  0  0  0  3  0  0  0  0  0  0
  189.8750  177.2180  143.8230 C   0  0  0  0  0  2  0  0  0  0  0  0
  186.6950  177.2440  140.4050 C   0  0  0  0  0  3  0  0  0  0  0  0
  186.2210  177.7390  144.6580 C   0  0  0  0  0  0  0  0  0  0  0  0
  185.1440  178.1700  143.8410 N   0  0  0  0  0  0  0  0  0  0  0  0
  189.7140  176.4200  146.7130 C   0  0  2  0  0  3  0  0  0  0  0  0
  187.4950  177.3150  141.4810 C   0  0  0  0  0  3  0  0  0  0  0  0
  190.8840  176.0520  145.7950 C   0  0  0  0  0  2  0  0  0  0  0  0
  188.4920  176.8450  145.9410 C   0  0  0  0  0  0  0  0  0  0  0  0
  194.7430  176.0770  143.9940 C   0  0  0  0  0  0  0  0  0  0  0  0
  195.7980  175.6090  144.7660 O   0  0  0  0  0  1  0  0  0  0  0  0
  194.9020  176.2300  142.7550 O   0  0  0  0  0  0  0  0  0  0  0  0
  192.3270  176.8660  143.9470 C   0  0  0  0  0  0  0  0  0  0  0  0
  193.4920  176.3780  144.6210 N   0  0  0  0  0  2  0  0  0  0  0  0
  192.3360  177.0680  142.7020 O   0  0  0  0  0  0  0  0  0  0  0  0
  190.1100  177.4800  147.6270 N   0  0  0  0  0  2  0  0  0  0  0  0
  191.2790  177.0090  148.3480 C   0  0  0  0  0  1  0  0  0  0  0  0
  1  2  2  0  0  0  0
  1 12  1  0  0  0  0
  2 17  1  0  0  0  0
  3  7  1  0  0  0  0
  4 15  1  6  0  0  0
  4  8  1  0  0  0  0
  4  1  1  0  0  0  0
  5 21  1  6  0  0  0
  5 16  1  0  0  0  0
  6 11  1  0  0  0  0
  6  9  2  0  0  0  0
  8 13  2  0  0  0  0
  9  8  1  0  0  0  0
 10  2  1  0  0  0  0
 10  5  1  0  0  0  0
 11 15  2  0  0  0  0
 12  3  2  0  0  0  0
 13 12  1  0  0  0  0
 14 24  1  1  0  0  0
 16 14  1  0  0  0  0
 17  7  2  0  0  0  0
 17 14  1  0  0  0  0
 18 22  1  0  0  0  0
 18 19  1  0  0  0  0
 20 18  2  0  0  0  0
 21 22  1  0  0  0  0
 23 21  2  0  0  0  0
 24 25  1  0  0  0  0
M  END
>  <MODEL>
2

>  <REMARK>
 VINA RESULT:      -7.5      2.594      4.549
  Name = 
  2 active torsions:
  status: ('A' for Active; 'I' for Inactive)
    1  A    between atoms: C_6  and  C_15
    2  A    between atoms: N_13  and  C_20
                            x       y       z     vdW  Elec       q    Type
                         _______ _______ _______ _____ _____    ______ ____

>  <TORSDO>
F 2

$$$$
=
 OpenBabel11052417353D

 25 28  0  0  1  0  0  0  0  0999 V2000
  186.7440  177.8410  144.8840 C   0  0  0  0  0  0  0  0  0  0  0  0
  188.0350  177.4340  145.2180 C   0  0  0  0  0  0  0  0  0  0  0  0
  185.9450  177.3360  147.0910 C   0  0  0  0  0  3  0  0  0  0  0  0
  186.2070  178.4430  143.6340 C   0  0  2  0  0  3  0  0  0  0  0  0
  190.5150  177.3400  144.8180 C   0  0  1  0  0  3  0  0  0  0  0  0
  184.0020  178.2180  141.7960 C   0  0  0  0  0  3  0  0  0  0  0  0
  187.1980  176.9090  147.4220 N   0  0  0  0  0  0  0  0  0  0  0  0
  184.7630  178.6030  144.0370 C   0  0  0  0  0  0  0  0  0  0  0  0
  183.7290  178.7230  143.0060 C   0  0  0  0  0  3  0  0  0  0  0  0
  189.1290  177.4300  144.1870 C   0  0  0  0  0  2  0  0  0  0  0  0
  185.2880  177.5170  141.5320 C   0  0  0  0  0  3  0  0  0  0  0  0
  185.7310  177.8220  145.8070 C   0  0  0  0  0  0  0  0  0  0  0  0
  184.4970  178.2590  145.2600 N   0  0  0  0  0  0  0  0  0  0  0  0
  189.6050  176.5090  147.0040 C   0  0  2  0  0  3  0  0  0  0  0  0
  186.3000  177.5630  142.4150 C   0  0  0  0  0  3  0  0  0  0  0  0
  190.5560  176.2090  145.8410 C   0  0  0  0  0  2  0  0  0  0  0  0
  188.2390  176.9340  146.5320 C   0  0  0  0  0  0  0  0  0  0  0  0
  193.6650  175.8890  143.0910 C   0  0  0  0  0  0  0  0  0  0  0  0
  194.6210  174.9470  143.4440 O   0  0  0  0  0  1  0  0  0  0  0  0
  193.7450  176.4670  141.9750 O   0  0  0  0  0  0  0  0  0  0  0  0
  191.5550  177.1360  143.7670 C   0  0  0  0  0  0  0  0  0  0  0  0
  192.6030  176.1900  144.0030 N   0  0  0  0  0  2  0  0  0  0  0  0
  191.5050  177.7910  142.6900 O   0  0  0  0  0  0  0  0  0  0  0  0
  190.1710  177.5400  147.8600 N   0  0  0  0  0  2  0  0  0  0  0  0
  191.4300  177.0290  148.3710 C   0  0  0  0  0  1  0  0  0  0  0  0
  1  2  2  0  0  0  0
  1 12  1  0  0  0  0
  2 17  1  0  0  0  0
  3  7  1  0  0  0  0
  4 15  1  6  0  0  0
  4  8  1  0  0  0  0
  4  1  1  0  0  0  0
  5 21  1  6  0  0  0
  5 16  1  0  0  0  0
  6  9  2  0  0  0  0
  8 13  2  0  0  0  0
  9  8  1  0  0  0  0
 10  5  1  0  0  0  0
 10  2  1  0  0  0  0
 11  6  1  0  0  0  0
 11 15  2  0  0  0  0
 12  3  2  0  0  0  0
 13 12  1  0  0  0  0
 14 24  1  6  0  0  0
 16 14  1  0  0  0  0
 17 14  1  0  0  0  0
 17  7  2  0  0  0  0
 18 19  1  0  0  0  0
 18 22  1  0  0  0  0
 20 18  2  0  0  0  0
 21 22  1  0  0  0  0
 23 21  2  0  0  0  0
 24 25  1  0  0  0  0
M  END
>  <MODEL>
3

>  <REMARK>
 VINA RESULT:      -7.3      2.762      4.475
  Name = 
  2 active torsions:
  status: ('A' for Active; 'I' for Inactive)
    1  A    between atoms: C_6  and  C_15
    2  A    between atoms: N_13  and  C_20
                            x       y       z     vdW  Elec       q    Type
                         _______ _______ _______ _____ _____    ______ ____

>  <TORSDO>
F 2

$$$$
=
 OpenBabel11052417353D

 25 28  0  0  1  0  0  0  0  0999 V2000
  186.4260  177.2690  142.1780 C   0  0  0  0  0  0  0  0  0  0  0  0
  186.5230  177.2420  143.5700 C   0  0  0  0  0  0  0  0  0  0  0  0
  184.2290  178.2310  142.2860 C   0  0  0  0  0  3  0  0  0  0  0  0
  187.4160  176.9100  141.1280 C   0  0  2  0  0  3  0  0  0  0  0  0
  187.8310  177.0610  145.7090 C   0  0  1  0  0  3  0  0  0  0  0  0
  187.6450  175.4420  138.6610 C   0  0  0  0  0  3  0  0  0  0  0  0
  184.3010  178.1850  143.6480 N   0  0  0  0  0  0  0  0  0  0  0  0
  186.5910  177.2040  139.9010 C   0  0  0  0  0  0  0  0  0  0  0  0
  186.9440  176.5830  138.6220 C   0  0  0  0  0  3  0  0  0  0  0  0
  187.7290  176.6490  144.2430 C   0  0  0  0  0  2  0  0  0  0  0  0
  188.0030  174.8100  139.9590 C   0  0  0  0  0  3  0  0  0  0  0  0
  185.3200  177.7810  141.5530 C   0  0  0  0  0  0  0  0  0  0  0  0
  185.4160  177.6990  140.1400 N   0  0  0  0  0  0  0  0  0  0  0  0
  185.4210  177.7520  145.8130 C   0  0  2  0  0  3  0  0  0  0  0  0
  187.8380  175.4640  141.1220 C   0  0  0  0  0  3  0  0  0  0  0  0
  186.4950  176.8400  146.4120 C   0  0  0  0  0  2  0  0  0  0  0  0
  185.4000  177.7010  144.3080 C   0  0  0  0  0  0  0  0  0  0  0  0
  191.4140  176.1020  146.8270 C   0  0  0  0  0  0  0  0  0  0  0  0
  192.6780  176.6250  146.5960 O   0  0  0  0  0  0  0  0  0  0  0  0
  191.2890  175.0810  147.5530 O   0  0  0  0  0  1  0  0  0  0  0  0
  188.9170  176.2980  146.3910 C   0  0  0  0  0  0  0  0  0  0  0  0
  190.2720  176.7320  146.2350 N   0  0  0  0  0  2  0  0  0  0  0  0
  188.6370  175.2880  147.0920 O   0  0  0  0  0  0  0  0  0  0  0  0
  185.6260  179.1230  146.2550 N   0  0  0  0  0  2  0  0  0  0  0  0
  185.7430  179.0940  147.7020 C   0  0  0  0  0  1  0  0  0  0  0  0
  1  2  1  0  0  0  0
  2 10  1  0  0  0  0
  2 17  2  0  0  0  0
  3  7  2  0  0  0  0
  4 15  1  1  0  0  0
  4  1  1  0  0  0  0
  5 21  1  1  0  0  0
  5 16  1  0  0  0  0
  6 11  1  0  0  0  0
  7 17  1  0  0  0  0
  8 13  2  0  0  0  0
  8  4  1  0  0  0  0
  9  6  2  0  0  0  0
  9  8  1  0  0  0  0
 10  5  1  0  0  0  0
 11 15  2  0  0  0  0
 12  1  2  0  0  0  0
 12  3  1  0  0  0  0
 13 12  1  0  0  0  0
 14 24  1  6  0  0  0
 14 16  1  0  0  0  0
 17 14  1  0  0  0  0
 18 20  1  0  0  0  0
 19 18  2  0  0  0  0
 21 23  2  0  0  0  0
 22 21  1  0  0  0  0
 22 18  1  0  0  0  0
 24 25  1  0  0  0  0
M  END
>  <MODEL>
4

>  <REMARK>
 VINA RESULT:      -7.2      2.004      5.252
  Name = 
  2 active torsions:
  status: ('A' for Active; 'I' for Inactive)
    1  A    between atoms: C_6  and  C_15
    2  A    between atoms: N_13  and  C_20
                            x       y       z     vdW  Elec       q    Type
                         _______ _______ _______ _____ _____    ______ ____

>  <TORSDO>
F 2

$$$$
=
 OpenBabel11052417353D

 25 28  0  0  1  0  0  0  0  0999 V2000
  189.1360  175.3790  144.6910 C   0  0  0  0  0  0  0  0  0  0  0  0
  188.0620  176.2690  144.6770 C   0  0  0  0  0  0  0  0  0  0  0  0
  189.6790  175.9690  146.9540 C   0  0  0  0  0  3  0  0  0  0  0  0
  189.6060  174.4060  143.6690 C   0  0  2  0  0  3  0  0  0  0  0  0
  185.9150  177.1540  143.7160 C   0  0  1  0  0  3  0  0  0  0  0  0
  192.0070  173.4960  142.3660 C   0  0  0  0  0  3  0  0  0  0  0  0
  188.6480  176.8620  146.9430 N   0  0  0  0  0  0  0  0  0  0  0  0
  190.7870  173.8250  144.4040 C   0  0  0  0  0  0  0  0  0  0  0  0
  191.8550  173.1610  143.6540 C   0  0  0  0  0  3  0  0  0  0  0  0
  187.2470  176.4670  143.4300 C   0  0  0  0  0  2  0  0  0  0  0  0
  191.1540  174.5430  141.7430 C   0  0  0  0  0  3  0  0  0  0  0  0
  189.9050  175.2100  145.8130 C   0  0  0  0  0  0  0  0  0  0  0  0
  190.9510  174.2730  145.6110 N   0  0  0  0  0  0  0  0  0  0  0  0
  186.6870  178.0010  145.9490 C   0  0  2  0  0  3  0  0  0  0  0  0
  190.0670  175.0200  142.3730 C   0  0  0  0  0  3  0  0  0  0  0  0
  186.1370  178.3960  144.5750 C   0  0  0  0  0  2  0  0  0  0  0  0
  187.8450  177.0420  145.8480 C   0  0  0  0  0  0  0  0  0  0  0  0
  183.0660  178.2770  141.3420 C   0  0  0  0  0  0  0  0  0  0  0  0
  181.7380  178.6390  141.5190 O   0  0  0  0  0  1  0  0  0  0  0  0
  183.5610  178.2790  140.1840 O   0  0  0  0  0  0  0  0  0  0  0  0
  185.2290  177.5140  142.4400 C   0  0  0  0  0  0  0  0  0  0  0  0
  183.8530  177.9070  142.4800 N   0  0  0  0  0  2  0  0  0  0  0  0
  185.8580  177.4700  141.3480 O   0  0  0  0  0  0  0  0  0  0  0  0
  185.6320  177.4130  146.7600 N   0  0  0  0  0  2  0  0  0  0  0  0
  184.7730  178.4980  147.1980 C   0  0  0  0  0  1  0  0  0  0  0  0
  1 12  1  0  0  0  0
  2  1  2  0  0  0  0
  2 17  1  0  0  0  0
  4 15  1  6  0  0  0
  4  8  1  0  0  0  0
  4  1  1  0  0  0  0
  5 21  1  6  0  0  0
  5 16  1  0  0  0  0
  6  9  2  0  0  0  0
  7  3  1  0  0  0  0
  8 13  2  0  0  0  0
  9  8  1  0  0  0  0
 10  5  1  0  0  0  0
 10  2  1  0  0  0  0
 11  6  1  0  0  0  0
 11 15  2  0  0  0  0
 12  3  2  0  0  0  0
 13 12  1  0  0  0  0
 14 24  1  1  0  0  0
 16 14  1  0  0  0  0
 17 14  1  0  0  0  0
 17  7  2  0  0  0  0
 18 19  1  0  0  0  0
 18 22  1  0  0  0  0
 20 18  2  0  0  0  0
 21 22  1  0  0  0  0
 23 21  2  0  0  0  0
 24 25  1  0  0  0  0
M  END
>  <MODEL>
5

>  <REMARK>
 VINA RESULT:      -7.2      3.793      7.497
  Name = 
  2 active torsions:
  status: ('A' for Active; 'I' for Inactive)
    1  A    between atoms: C_6  and  C_15
    2  A    between atoms: N_13  and  C_20
                            x       y       z     vdW  Elec       q    Type
                         _______ _______ _______ _____ _____    ______ ____

>  <TORSDO>
F 2

$$$$
=
 OpenBabel11052417353D

 25 28  0  0  1  0  0  0  0  0999 V2000
  187.6810  176.7880  144.4140 C   0  0  0  0  0  0  0  0  0  0  0  0
  188.4320  175.7070  143.9520 C   0  0  0  0  0  0  0  0  0  0  0  0
  188.4720  176.4610  146.6570 C   0  0  0  0  0  3  0  0  0  0  0  0
  186.8330  177.7670  143.6820 C   0  0  2  0  0  3  0  0  0  0  0  0
  189.5070  174.3620  142.1210 C   0  0  1  0  0  3  0  0  0  0  0  0
  184.2540  179.0410  143.8040 C   0  0  0  0  0  3  0  0  0  0  0  0
  189.1890  175.3850  146.2220 N   0  0  0  0  0  0  0  0  0  0  0  0
  186.3720  178.6110  144.8420 C   0  0  0  0  0  0  0  0  0  0  0  0
  185.1590  179.4220  144.7150 C   0  0  0  0  0  3  0  0  0  0  0  0
  188.3500  175.2750  142.5140 C   0  0  0  0  0  2  0  0  0  0  0  0
  184.4580  177.8100  142.9930 C   0  0  0  0  0  3  0  0  0  0  0  0
  187.7260  177.1750  145.7280 C   0  0  0  0  0  0  0  0  0  0  0  0
  186.8790  178.2820  145.9910 N   0  0  0  0  0  0  0  0  0  0  0  0
  190.0630  173.8260  144.5090 C   0  0  2  0  0  3  0  0  0  0  0  0
  185.6400  177.1720  142.9810 C   0  0  0  0  0  3  0  0  0  0  0  0
  189.6700  173.2450  143.1480 C   0  0  0  0  0  2  0  0  0  0  0  0
  189.1870  174.9830  144.9130 C   0  0  0  0  0  0  0  0  0  0  0  0
  188.2100  174.1260  138.4780 C   0  0  0  0  0  0  0  0  0  0  0  0
  187.4420  174.9460  137.6640 O   0  0  0  0  0  0  0  0  0  0  0  0
  188.6350  173.0290  138.0300 O   0  0  0  0  0  1  0  0  0  0  0  0
  189.2850  173.7950  140.7580 C   0  0  0  0  0  0  0  0  0  0  0  0
  188.5070  174.5410  139.8160 N   0  0  0  0  0  2  0  0  0  0  0  0
  189.7770  172.6760  140.4490 O   0  0  0  0  0  0  0  0  0  0  0  0
  191.4550  174.2490  144.4890 N   0  0  0  0  0  2  0  0  0  0  0  0
  192.2670  173.0550  144.6380 C   0  0  0  0  0  1  0  0  0  0  0  0
  1 12  1  0  0  0  0
  2  1  2  0  0  0  0
  2 17  1  0  0  0  0
  4 15  1  1  0  0  0
  4  1  1  0  0  0  0
  4  8  1  0  0  0  0
  5 21  1  6  0  0  0
  5 10  1  0  0  0  0
  5 16  1  0  0  0  0
  6  9  2  0  0  0  0
  7  3  1  0  0  0  0
  8 13  2  0  0  0  0
  9  8  1  0  0  0  0
 10  2  1  0  0  0  0
 11  6  1  0  0  0  0
 12 13  1  0  0  0  0
 12  3  2  0  0  0  0
 14 24  1  6  0  0  0
 14 17  1  0  0  0  0
 15 11  2  0  0  0  0
 16 14  1  0  0  0  0
 17  7  2  0  0  0  0
 18 22  1  0  0  0  0
 19 18  2  0  0  0  0
 20 18  1  0  0  0  0
 22 21  1  0  0  0  0
 23 21  2  0  0  0  0
 24 25  1  0  0  0  0
M  END
>  <MODEL>
6

>  <REMARK>
 VINA RESULT:      -7.2      2.760      4.868
  Name = 
  2 active torsions:
  status: ('A' for Active; 'I' for Inactive)
    1  A    between atoms: C_6  and  C_15
    2  A    between atoms: N_13  and  C_20
                            x       y       z     vdW  Elec       q    Type
                         _______ _______ _______ _____ _____    ______ ____

>  <TORSDO>
F 2

$$$$
=
 OpenBabel11052417353D

 25 28  0  0  1  0  0  0  0  0999 V2000
  190.1180  176.0250  144.0680 C   0  0  0  0  0  0  0  0  0  0  0  0
  188.8850  176.3230  143.4870 C   0  0  0  0  0  0  0  0  0  0  0  0
  190.8530  174.8970  142.0800 C   0  0  0  0  0  3  0  0  0  0  0  0
  190.6890  176.4070  145.3870 C   0  0  2  0  0  3  0  0  0  0  0  0
  186.7250  177.6050  143.3780 C   0  0  1  0  0  3  0  0  0  0  0  0
  192.0930  175.2890  147.6390 C   0  0  0  0  0  3  0  0  0  0  0  0
  189.6410  175.1590  141.5110 N   0  0  0  0  0  0  0  0  0  0  0  0
  192.0300  175.7270  145.2820 C   0  0  0  0  0  0  0  0  0  0  0  0
  192.7840  175.4140  146.4980 C   0  0  0  0  0  3  0  0  0  0  0  0
  187.8170  177.0290  144.2750 C   0  0  0  0  0  2  0  0  0  0  0  0
  190.6100  175.4130  147.6510 C   0  0  0  0  0  3  0  0  0  0  0  0
  191.0890  175.3570  143.3700 C   0  0  0  0  0  0  0  0  0  0  0  0
  192.2570  175.1430  144.1460 N   0  0  0  0  0  0  0  0  0  0  0  0
  187.3720  176.1470  141.4410 C   0  0  2  0  0  3  0  0  0  0  0  0
  189.9410  175.8740  146.5810 C   0  0  0  0  0  3  0  0  0  0  0  0
  186.2410  176.5460  142.3920 C   0  0  0  0  0  2  0  0  0  0  0  0
  188.6550  175.8430  142.1710 C   0  0  0  0  0  0  0  0  0  0  0  0
  184.7320  178.6280  146.5390 C   0  0  0  0  0  0  0  0  0  0  0  0
  184.9970  178.6220  147.9010 O   0  0  0  0  0  1  0  0  0  0  0  0
  183.6160  179.0400  146.1260 O   0  0  0  0  0  0  0  0  0  0  0  0
  185.5900  178.1170  144.2010 C   0  0  0  0  0  0  0  0  0  0  0  0
  185.7310  178.1640  145.6240 N   0  0  0  0  0  2  0  0  0  0  0  0
  184.5260  178.4990  143.6430 O   0  0  0  0  0  0  0  0  0  0  0  0
  187.6010  177.2020  140.4650 N   0  0  0  0  0  2  0  0  0  0  0  0
  186.3220  177.4940  139.8430 C   0  0  0  0  0  1  0  0  0  0  0  0
  1  4  1  0  0  0  0
  2  1  1  0  0  0  0
  2 10  1  0  0  0  0
  3 12  1  0  0  0  0
  4 15  1  1  0  0  0
  5 21  1  1  0  0  0
  5 10  1  0  0  0  0
  6 11  1  0  0  0  0
  7  3  2  0  0  0  0
  7 17  1  0  0  0  0
  8  4  1  0  0  0  0
  8  9  1  0  0  0  0
  9  6  2  0  0  0  0
 12  1  2  0  0  0  0
 12 13  1  0  0  0  0
 13  8  2  0  0  0  0
 14 24  1  6  0  0  0
 14 17  1  0  0  0  0
 14 16  1  0  0  0  0
 15 11  2  0  0  0  0
 16  5  1  0  0  0  0
 17  2  2  0  0  0  0
 18 19  1  0  0  0  0
 20 18  2  0  0  0  0
 21 22  1  0  0  0  0
 22 18  1  0  0  0  0
 23 21  2  0  0  0  0
 25 24  1  0  0  0  0
M  END
>  <MODEL>
7

>  <REMARK>
 VINA RESULT:      -7.1      3.500      6.072
  Name = 
  2 active torsions:
  status: ('A' for Active; 'I' for Inactive)
    1  A    between atoms: C_6  and  C_15
    2  A    between atoms: N_13  and  C_20
                            x       y       z     vdW  Elec       q    Type
                         _______ _______ _______ _____ _____    ______ ____

>  <TORSDO>
F 2

$$$$
=
 OpenBabel11052417353D

 25 28  0  0  1  0  0  0  0  0999 V2000
  191.1080  176.0770  145.3670 C   0  0  0  0  0  0  0  0  0  0  0  0
  189.8360  176.5340  145.0220 C   0  0  0  0  0  0  0  0  0  0  0  0
  190.8180  176.7900  147.6400 C   0  0  0  0  0  3  0  0  0  0  0  0
  192.1270  175.3450  144.5690 C   0  0  2  0  0  3  0  0  0  0  0  0
  187.8370  176.6210  143.5000 C   0  0  1  0  0  3  0  0  0  0  0  0
  194.9430  175.3530  143.9660 C   0  0  0  0  0  3  0  0  0  0  0  0
  189.5820  177.2650  147.3090 N   0  0  0  0  0  0  0  0  0  0  0  0
  193.2060  175.2070  145.6130 C   0  0  0  0  0  0  0  0  0  0  0  0
  194.5910  174.9690  145.2000 C   0  0  0  0  0  3  0  0  0  0  0  0
  189.3500  176.4490  143.6020 C   0  0  0  0  0  2  0  0  0  0  0  0
  193.9720  176.0420  143.0740 C   0  0  0  0  0  3  0  0  0  0  0  0
  191.5740  176.1740  146.6520 C   0  0  0  0  0  0  0  0  0  0  0  0
  192.8920  175.6670  146.7850 N   0  0  0  0  0  0  0  0  0  0  0  0
  187.6740  177.6550  145.7810 C   0  0  2  0  0  3  0  0  0  0  0  0
  192.6640  176.0990  143.3800 C   0  0  0  0  0  3  0  0  0  0  0  0
  187.3920  177.8490  144.2880 C   0  0  0  0  0  2  0  0  0  0  0  0
  189.0750  177.1660  146.0410 C   0  0  0  0  0  0  0  0  0  0  0  0
  185.8110  177.7950  140.4140 C   0  0  0  0  0  0  0  0  0  0  0  0
  184.7380  178.6540  140.2230 O   0  0  0  0  0  1  0  0  0  0  0  0
  186.3190  177.2080  139.4220 O   0  0  0  0  0  0  0  0  0  0  0  0
  187.4190  176.7330  142.0710 C   0  0  0  0  0  0  0  0  0  0  0  0
  186.3220  177.5880  141.7350 N   0  0  0  0  0  2  0  0  0  0  0  0
  188.0280  176.0800  141.1810 O   0  0  0  0  0  0  0  0  0  0  0  0
  186.7140  176.7230  146.3540 N   0  0  0  0  0  2  0  0  0  0  0  0
  185.3980  177.3150  146.1980 C   0  0  0  0  0  1  0  0  0  0  0  0
  1 12  1  0  0  0  0
  2  1  2  0  0  0  0
  2 17  1  0  0  0  0
  4 15  1  6  0  0  0
  4  1  1  0  0  0  0
  4  8  1  0  0  0  0
  5 21  1  6  0  0  0
  5 10  1  0  0  0  0
  5 16  1  0  0  0  0
  6  9  2  0  0  0  0
  7  3  1  0  0  0  0
  8 13  2  0  0  0  0
  9  8  1  0  0  0  0
 10  2  1  0  0  0  0
 11 15  2  0  0  0  0
 11  6  1  0  0  0  0
 12 13  1  0  0  0  0
 12  3  2  0  0  0  0
 14 17  1  0  0  0  0
 14 24  1  6  0  0  0
 16 14  1  0  0  0  0
 17  7  2  0  0  0  0
 18 22  1  0  0  0  0
 19 18  1  0  0  0  0
 20 18  2  0  0  0  0
 22 21  1  0  0  0  0
 23 21  2  0  0  0  0
 25 24  1  0  0  0  0
M  END
>  <MODEL>
8

>  <REMARK>
 VINA RESULT:      -7.1      3.395      7.237
  Name = 
  2 active torsions:
  status: ('A' for Active; 'I' for Inactive)
    1  A    between atoms: C_6  and  C_15
    2  A    between atoms: N_13  and  C_20
                            x       y       z     vdW  Elec       q    Type
                         _______ _______ _______ _____ _____    ______ ____

>  <TORSDO>
F 2

$$$$
=
 OpenBabel11052417353D

 25 28  0  0  1  0  0  0  0  0999 V2000
  187.9720  176.4280  145.4240 C   0  0  0  0  0  0  0  0  0  0  0  0
  188.5330  175.5740  144.4740 C   0  0  0  0  0  0  0  0  0  0  0  0
  189.1480  175.3260  147.2020 C   0  0  0  0  0  3  0  0  0  0  0  0
  187.0800  177.6080  145.2650 C   0  0  2  0  0  3  0  0  0  0  0  0
  189.1270  174.9540  142.1110 C   0  0  1  0  0  3  0  0  0  0  0  0
  184.6800  178.7750  146.3480 C   0  0  0  0  0  3  0  0  0  0  0  0
  189.6820  174.4670  146.2860 N   0  0  0  0  0  0  0  0  0  0  0  0
  186.9180  177.9920  146.7140 C   0  0  0  0  0  0  0  0  0  0  0  0
  185.7700  178.8040  147.1270 C   0  0  0  0  0  3  0  0  0  0  0  0
  188.1430  175.6780  143.0260 C   0  0  0  0  0  2  0  0  0  0  0  0
  184.6270  177.9070  145.1410 C   0  0  0  0  0  3  0  0  0  0  0  0
  188.2970  176.3260  146.7510 C   0  0  0  0  0  0  0  0  0  0  0  0
  187.6070  177.2760  147.5480 N   0  0  0  0  0  0  0  0  0  0  0  0
  190.0850  173.6070  144.0000 C   0  0  2  0  0  3  0  0  0  0  0  0
  185.7310  177.3060  144.6660 C   0  0  0  0  0  3  0  0  0  0  0  0
  189.3940  173.5450  142.6350 C   0  0  0  0  0  2  0  0  0  0  0  0
  189.3970  174.5530  144.9490 C   0  0  0  0  0  0  0  0  0  0  0  0
  188.6010  173.6610  138.4970 C   0  0  0  0  0  0  0  0  0  0  0  0
  189.0780  172.5790  137.7720 O   0  0  0  0  0  0  0  0  0  0  0  0
  187.8080  174.4740  137.9510 O   0  0  0  0  0  1  0  0  0  0  0  0
  188.6040  174.9050  140.7140 C   0  0  0  0  0  0  0  0  0  0  0  0
  189.0180  173.8380  139.8560 N   0  0  0  0  0  2  0  0  0  0  0  0
  187.8100  175.7950  140.3050 O   0  0  0  0  0  0  0  0  0  0  0  0
  191.4770  174.0000  143.8380 N   0  0  0  0  0  2  0  0  0  0  0  0
  192.2910  172.9020  144.3270 C   0  0  0  0  0  1  0  0  0  0  0  0
  1 12  1  0  0  0  0
  2 17  1  0  0  0  0
  2  1  2  0  0  0  0
  4 15  1  1  0  0  0
  4  1  1  0  0  0  0
  4  8  1  0  0  0  0
  5 21  1  6  0  0  0
  5 16  1  0  0  0  0
  5 10  1  0  0  0  0
  6  9  2  0  0  0  0
  7  3  1  0  0  0  0
  8  9  1  0  0  0  0
  8 13  2  0  0  0  0
 10  2  1  0  0  0  0
 11  6  1  0  0  0  0
 12  3  2  0  0  0  0
 12 13  1  0  0  0  0
 14 24  1  6  0  0  0
 14 17  1  0  0  0  0
 15 11  2  0  0  0  0
 16 14  1  0  0  0  0
 17  7  2  0  0  0  0
 18 22  1  0  0  0  0
 19 18  2  0  0  0  0
 20 18  1  0  0  0  0
 22 21  1  0  0  0  0
 23 21  2  0  0  0  0
 24 25  1  0  0  0  0
M  END
>  <MODEL>
9

>  <REMARK>
 VINA RESULT:      -7.1      3.127      4.896
  Name = 
  2 active torsions:
  status: ('A' for Active; 'I' for Inactive)
    1  A    between atoms: C_6  and  C_15
    2  A    between atoms: N_13  and  C_20
                            x       y       z     vdW  Elec       q    Type
                         _______ _______ _______ _____ _____    ______ ____

>  <TORSDO>
F 2

$$$$
