=
 OpenBabel11052418213D

 27 31  0  0  1  0  0  0  0  0999 V2000
  187.6120  176.8460  142.7610 C   0  0  0  0  0  2  0  0  0  0  0  0
  188.7640  176.4880  144.9290 C   0  0  0  0  0  0  0  0  0  0  0  0
  189.3890  174.4460  143.7550 N   0  0  0  0  0  2  0  0  0  0  0  0
  192.4170  176.5060  146.7810 O   0  0  0  0  0  0  0  0  0  0  0  0
  194.3680  176.0700  145.4480 C   0  0  0  0  0  1  0  0  0  0  0  0
  188.9780  177.3020  145.9300 N   0  0  0  0  0  0  0  0  0  0  0  0
  192.2220  174.8190  145.1390 C   0  0  1  0  0  3  0  0  0  0  0  0
  190.4940  173.1090  140.4760 C   0  0  0  0  0  3  0  0  0  0  0  0
  192.3510  173.3100  145.2010 C   0  0  0  0  0  1  0  0  0  0  0  0
  189.5420  173.6460  139.6090 C   0  0  0  0  0  3  0  0  0  0  0  0
  190.8180  175.2420  145.5600 C   0  0  1  0  0  3  0  0  0  0  0  0
  187.4370  176.4570  144.2190 C   0  0  1  0  0  3  0  0  0  0  0  0
  193.1700  175.4740  146.1610 C   0  0  2  0  0  3  0  0  0  0  0  0
  191.1050  176.4310  146.3800 C   0  0  0  0  0  0  0  0  0  0  0  0
  187.4400  175.6880  141.8950 N   0  0  0  0  0  2  0  0  0  0  0  0
  189.9070  175.6410  144.4010 C   0  0  2  0  0  3  0  0  0  0  0  0
  190.4450  173.4110  141.8370 C   0  0  0  0  0  3  0  0  0  0  0  0
  190.2270  177.3620  146.5830 N   0  0  0  0  0  0  0  0  0  0  0  0
  188.5490  174.4930  140.1030 C   0  0  0  0  0  3  0  0  0  0  0  0
  188.5030  174.8290  141.4610 C   0  0  0  0  0  0  0  0  0  0  0  0
  189.4620  174.2710  142.3420 C   0  0  0  0  0  0  0  0  0  0  0  0
  184.3330  178.7970  146.0680 C   0  0  0  0  0  3  0  0  0  0  0  0
  186.3580  177.2630  144.8850 C   0  0  0  0  0  0  0  0  0  0  0  0
  186.0970  178.5600  144.4260 C   0  0  0  0  0  3  0  0  0  0  0  0
  185.0880  179.3260  145.0170 C   0  0  0  0  0  3  0  0  0  0  0  0
  184.5850  177.5010  146.5270 C   0  0  0  0  0  3  0  0  0  0  0  0
  185.5940  176.7340  145.9370 C   0  0  0  0  0  3  0  0  0  0  0  0
  1 12  1  0  0  0  0
  2  6  2  0  0  0  0
  6 18  1  0  0  0  0
  7  9  1  1  0  0  0
  7 11  1  0  0  0  0
  7 13  1  0  0  0  0
  8 17  1  0  0  0  0
 10 19  1  0  0  0  0
 10  8  2  0  0  0  0
 11 14  1  1  0  0  0
 12 23  1  1  0  0  0
 12  2  1  0  0  0  0
 13  5  1  6  0  0  0
 13  4  1  0  0  0  0
 14 18  2  0  0  0  0
 14  4  1  0  0  0  0
 15  1  1  0  0  0  0
 16  3  1  1  0  0  0
 16  2  1  0  0  0  0
 16 11  1  0  0  0  0
 17 21  2  0  0  0  0
 19 20  2  0  0  0  0
 20 15  1  0  0  0  0
 20 21  1  0  0  0  0
 21  3  1  0  0  0  0
 22 26  1  0  0  0  0
 23 27  1  0  0  0  0
 24 23  2  0  0  0  0
 24 25  1  0  0  0  0
 25 22  2  0  0  0  0
 27 26  2  0  0  0  0
M  END
>  <MODEL>
1

>  <REMARK>
 VINA RESULT:      -8.6      0.000      0.000
  Name = 
  1 active torsions:
  status: ('A' for Active; 'I' for Inactive)
    1  A    between atoms: C_9  and  C_15
                            x       y       z     vdW  Elec       q    Type
                         _______ _______ _______ _____ _____    ______ ____

>  <TORSDO>
F 1

$$$$
=
 OpenBabel11052418213D

 27 31  0  0  1  0  0  0  0  0999 V2000
  188.4070  176.6470  146.3080 C   0  0  0  0  0  2  0  0  0  0  0  0
  188.0480  176.1190  143.9100 C   0  0  0  0  0  0  0  0  0  0  0  0
  190.4710  176.3770  143.9470 N   0  0  0  0  0  2  0  0  0  0  0  0
  188.4330  173.1920  141.0700 O   0  0  0  0  0  0  0  0  0  0  0  0
  190.1230  171.5140  141.3900 C   0  0  0  0  0  1  0  0  0  0  0  0
  186.9880  175.6870  143.2780 N   0  0  0  0  0  0  0  0  0  0  0  0
  190.5080  173.9300  141.9240 C   0  0  1  0  0  3  0  0  0  0  0  0
  193.5260  175.5890  145.8980 C   0  0  0  0  0  3  0  0  0  0  0  0
  191.7280  174.5410  141.2630 C   0  0  0  0  0  1  0  0  0  0  0  0
  193.1810  176.0410  147.1720 C   0  0  0  0  0  3  0  0  0  0  0  0
  189.4660  175.0100  142.1980 C   0  0  1  0  0  3  0  0  0  0  0  0
  187.9460  177.1880  144.9650 C   0  0  1  0  0  3  0  0  0  0  0  0
  189.8260  172.9380  140.9630 C   0  0  2  0  0  3  0  0  0  0  0  0
  188.2210  174.3120  141.8370 C   0  0  0  0  0  0  0  0  0  0  0  0
  189.6910  177.2230  146.6800 N   0  0  0  0  0  2  0  0  0  0  0  0
  189.3870  175.4510  143.6590 C   0  0  2  0  0  3  0  0  0  0  0  0
  192.6050  175.6790  144.8540 C   0  0  0  0  0  3  0  0  0  0  0  0
  187.0660  174.6640  142.3100 N   0  0  0  0  0  0  0  0  0  0  0  0
  191.9110  176.5730  147.4020 C   0  0  0  0  0  3  0  0  0  0  0  0
  190.9650  176.6450  146.3710 C   0  0  0  0  0  0  0  0  0  0  0  0
  191.3240  176.1980  145.0750 C   0  0  0  0  0  0  0  0  0  0  0  0
  184.0750  179.0410  145.3050 C   0  0  0  0  0  3  0  0  0  0  0  0
  186.5940  177.8380  145.0600 C   0  0  0  0  0  0  0  0  0  0  0  0
  185.7000  177.4040  146.0450 C   0  0  0  0  0  3  0  0  0  0  0  0
  184.4420  178.0030  146.1660 C   0  0  0  0  0  3  0  0  0  0  0  0
  184.9660  179.4820  144.3230 C   0  0  0  0  0  3  0  0  0  0  0  0
  186.2240  178.8840  144.2000 C   0  0  0  0  0  3  0  0  0  0  0  0
  1 15  1  0  0  0  0
  2 12  1  0  0  0  0
  3 21  1  0  0  0  0
  4 14  1  0  0  0  0
  6  2  2  0  0  0  0
  7  9  1  6  0  0  0
  7 11  1  0  0  0  0
  8 10  1  0  0  0  0
 10 19  2  0  0  0  0
 11 14  1  1  0  0  0
 11 16  1  0  0  0  0
 12 23  1  1  0  0  0
 12  1  1  0  0  0  0
 13  4  1  0  0  0  0
 13  5  1  1  0  0  0
 13  7  1  0  0  0  0
 14 18  2  0  0  0  0
 16  2  1  6  0  0  0
 16  3  1  0  0  0  0
 17 21  1  0  0  0  0
 17  8  2  0  0  0  0
 18  6  1  0  0  0  0
 20 15  1  0  0  0  0
 20 19  1  0  0  0  0
 21 20  2  0  0  0  0
 22 25  1  0  0  0  0
 23 24  1  0  0  0  0
 24 25  2  0  0  0  0
 26 22  2  0  0  0  0
 27 26  1  0  0  0  0
 27 23  2  0  0  0  0
M  END
>  <MODEL>
2

>  <REMARK>
 VINA RESULT:      -8.3      1.842      4.798
  Name = 
  1 active torsions:
  status: ('A' for Active; 'I' for Inactive)
    1  A    between atoms: C_9  and  C_15
                            x       y       z     vdW  Elec       q    Type
                         _______ _______ _______ _____ _____    ______ ____

>  <TORSDO>
F 1

$$$$
=
 OpenBabel11052418213D

 27 31  0  0  1  0  0  0  0  0999 V2000
  189.4240  176.1480  145.9730 C   0  0  0  0  0  2  0  0  0  0  0  0
  188.8760  175.6030  143.6150 C   0  0  0  0  0  0  0  0  0  0  0  0
  191.2810  175.9560  143.4390 N   0  0  0  0  0  2  0  0  0  0  0  0
  189.1240  172.6920  140.7440 O   0  0  0  0  0  0  0  0  0  0  0  0
  190.9000  171.0820  140.9100 C   0  0  0  0  0  1  0  0  0  0  0  0
  187.7820  175.1300  143.0770 N   0  0  0  0  0  0  0  0  0  0  0  0
  191.2360  173.5110  141.4140 C   0  0  1  0  0  3  0  0  0  0  0  0
  194.5240  175.2900  145.1120 C   0  0  0  0  0  3  0  0  0  0  0  0
  192.3680  174.1690  140.6500 C   0  0  0  0  0  1  0  0  0  0  0  0
  194.2750  175.7290  146.4120 C   0  0  0  0  0  3  0  0  0  0  0  0
  190.1800  174.5500  141.7820 C   0  0  1  0  0  3  0  0  0  0  0  0
  188.8250  176.6690  144.6770 C   0  0  1  0  0  3  0  0  0  0  0  0
  190.5100  172.4930  140.5140 C   0  0  2  0  0  3  0  0  0  0  0  0
  188.9360  173.8030  141.5300 C   0  0  0  0  0  0  0  0  0  0  0  0
  190.7120  176.7740  146.2330 N   0  0  0  0  0  2  0  0  0  0  0  0
  190.2130  174.9890  143.2450 C   0  0  2  0  0  3  0  0  0  0  0  0
  193.5120  175.3430  144.1530 C   0  0  0  0  0  3  0  0  0  0  0  0
  187.8150  174.1100  142.1030 N   0  0  0  0  0  0  0  0  0  0  0  0
  193.0100  176.2120  146.7540 C   0  0  0  0  0  3  0  0  0  0  0  0
  191.9760  176.2450  145.8110 C   0  0  0  0  0  0  0  0  0  0  0  0
  192.2360  175.8120  144.4880 C   0  0  0  0  0  0  0  0  0  0  0  0
  184.9170  178.3870  145.2270 C   0  0  0  0  0  3  0  0  0  0  0  0
  187.4630  177.2650  144.8920 C   0  0  0  0  0  0  0  0  0  0  0  0
  187.0290  178.2910  144.0460 C   0  0  0  0  0  3  0  0  0  0  0  0
  185.7590  178.8520  144.2130 C   0  0  0  0  0  3  0  0  0  0  0  0
  185.3420  177.3580  146.0720 C   0  0  0  0  0  3  0  0  0  0  0  0
  186.6120  176.7960  145.9060 C   0  0  0  0  0  3  0  0  0  0  0  0
  1 15  1  0  0  0  0
  2 12  1  0  0  0  0
  3 21  1  0  0  0  0
  4 14  1  0  0  0  0
  6  2  2  0  0  0  0
  7  9  1  6  0  0  0
  7 11  1  0  0  0  0
  8 10  1  0  0  0  0
 10 19  2  0  0  0  0
 11 14  1  1  0  0  0
 11 16  1  0  0  0  0
 12 23  1  1  0  0  0
 12  1  1  0  0  0  0
 13  4  1  0  0  0  0
 13  5  1  1  0  0  0
 13  7  1  0  0  0  0
 14 18  2  0  0  0  0
 16  3  1  6  0  0  0
 16  2  1  0  0  0  0
 17 21  1  0  0  0  0
 17  8  2  0  0  0  0
 18  6  1  0  0  0  0
 20 15  1  0  0  0  0
 20 19  1  0  0  0  0
 21 20  2  0  0  0  0
 22 26  1  0  0  0  0
 23 27  1  0  0  0  0
 24 25  1  0  0  0  0
 24 23  2  0  0  0  0
 25 22  2  0  0  0  0
 27 26  2  0  0  0  0
M  END
>  <MODEL>
3

>  <REMARK>
 VINA RESULT:      -7.9      1.974      4.788
  Name = 
  1 active torsions:
  status: ('A' for Active; 'I' for Inactive)
    1  A    between atoms: C_9  and  C_15
                            x       y       z     vdW  Elec       q    Type
                         _______ _______ _______ _____ _____    ______ ____

>  <TORSDO>
F 1

$$$$
=
 OpenBabel11052418213D

 27 31  0  0  1  0  0  0  0  0999 V2000
  189.1970  175.1850  143.1650 C   0  0  0  0  0  2  0  0  0  0  0  0
  190.6920  175.3590  145.1380 C   0  0  0  0  0  0  0  0  0  0  0  0
  191.1250  173.0600  144.4580 N   0  0  0  0  0  2  0  0  0  0  0  0
  194.6010  175.7180  146.3110 O   0  0  0  0  0  0  0  0  0  0  0  0
  196.3080  174.8750  144.8440 C   0  0  0  0  0  1  0  0  0  0  0  0
  191.0650  176.3970  145.8410 N   0  0  0  0  0  0  0  0  0  0  0  0
  194.1460  173.6700  145.2230 C   0  0  1  0  0  3  0  0  0  0  0  0
  191.6820  170.8730  141.5140 C   0  0  0  0  0  3  0  0  0  0  0  0
  194.2910  172.2260  145.6590 C   0  0  0  0  0  1  0  0  0  0  0  0
  190.5980  171.2020  140.7000 C   0  0  0  0  0  3  0  0  0  0  0  0
  192.8290  174.2420  145.7380 C   0  0  1  0  0  3  0  0  0  0  0  0
  189.2670  175.1970  144.6840 C   0  0  1  0  0  3  0  0  0  0  0  0
  195.2470  174.5320  145.8710 C   0  0  2  0  0  3  0  0  0  0  0  0
  193.2410  175.5920  146.1580 C   0  0  0  0  0  0  0  0  0  0  0  0
  188.8920  173.8490  142.6750 N   0  0  0  0  0  2  0  0  0  0  0  0
  191.7370  174.3610  144.6760 C   0  0  2  0  0  3  0  0  0  0  0  0
  191.8570  171.5210  142.7370 C   0  0  0  0  0  3  0  0  0  0  0  0
  192.4040  176.5770  146.2470 N   0  0  0  0  0  0  0  0  0  0  0  0
  189.6960  172.1860  141.1060 C   0  0  0  0  0  3  0  0  0  0  0  0
  189.8720  172.8660  142.3180 C   0  0  0  0  0  0  0  0  0  0  0  0
  190.9660  172.5200  143.1490 C   0  0  0  0  0  0  0  0  0  0  0  0
  186.4930  178.0500  146.3240 C   0  0  0  0  0  3  0  0  0  0  0  0
  188.3090  176.1900  145.2780 C   0  0  0  0  0  0  0  0  0  0  0  0
  187.8570  177.2530  144.4880 C   0  0  0  0  0  3  0  0  0  0  0  0
  186.9520  178.1820  145.0110 C   0  0  0  0  0  3  0  0  0  0  0  0
  186.9370  176.9860  147.1160 C   0  0  0  0  0  3  0  0  0  0  0  0
  187.8420  176.0570  146.5950 C   0  0  0  0  0  3  0  0  0  0  0  0
  1 12  1  0  0  0  0
  2  6  2  0  0  0  0
  6 18  1  0  0  0  0
  7  9  1  1  0  0  0
  7 11  1  0  0  0  0
  7 13  1  0  0  0  0
  8 17  1  0  0  0  0
 10 19  1  0  0  0  0
 10  8  2  0  0  0  0
 11 14  1  6  0  0  0
 12  2  1  0  0  0  0
 12 23  1  6  0  0  0
 13  5  1  6  0  0  0
 13  4  1  0  0  0  0
 14 18  2  0  0  0  0
 14  4  1  0  0  0  0
 15  1  1  0  0  0  0
 16  3  1  1  0  0  0
 16  2  1  0  0  0  0
 16 11  1  0  0  0  0
 17 21  2  0  0  0  0
 19 20  2  0  0  0  0
 20 15  1  0  0  0  0
 20 21  1  0  0  0  0
 21  3  1  0  0  0  0
 22 26  1  0  0  0  0
 23 27  1  0  0  0  0
 24 25  1  0  0  0  0
 24 23  2  0  0  0  0
 25 22  2  0  0  0  0
 27 26  2  0  0  0  0
M  END
>  <MODEL>
4

>  <REMARK>
 VINA RESULT:      -7.6      1.693      2.390
  Name = 
  1 active torsions:
  status: ('A' for Active; 'I' for Inactive)
    1  A    between atoms: C_9  and  C_15
                            x       y       z     vdW  Elec       q    Type
                         _______ _______ _______ _____ _____    ______ ____

>  <TORSDO>
F 1

$$$$
=
 OpenBabel11052418213D

 27 31  0  0  1  0  0  0  0  0999 V2000
  191.0430  175.2620  142.6300 C   0  0  0  0  0  2  0  0  0  0  0  0
  188.5770  175.4250  142.4130 C   0  0  0  0  0  0  0  0  0  0  0  0
  188.8050  175.3980  144.8380 N   0  0  0  0  0  2  0  0  0  0  0  0
  185.3800  177.9610  142.7720 O   0  0  0  0  0  0  0  0  0  0  0  0
  185.5660  179.8150  144.2900 C   0  0  0  0  0  1  0  0  0  0  0  0
  187.8230  175.6670  141.3720 N   0  0  0  0  0  0  0  0  0  0  0  0
  186.4610  177.5390  144.8300 C   0  0  1  0  0  3  0  0  0  0  0  0
  190.8160  176.7200  147.6610 C   0  0  0  0  0  3  0  0  0  0  0  0
  185.9740  176.9590  146.1420 C   0  0  0  0  0  1  0  0  0  0  0  0
  192.1160  176.4160  147.2580 C   0  0  0  0  0  3  0  0  0  0  0  0
  186.8190  176.4160  143.8620 C   0  0  1  0  0  3  0  0  0  0  0  0
  189.7640  174.5040  142.3180 C   0  0  1  0  0  3  0  0  0  0  0  0
  185.3270  178.3250  144.1430 C   0  0  2  0  0  3  0  0  0  0  0  0
  186.2840  176.9410  142.5940 C   0  0  0  0  0  0  0  0  0  0  0  0
  191.5750  174.8630  143.9250 N   0  0  0  0  0  2  0  0  0  0  0  0
  188.3190  176.1720  143.7080 C   0  0  2  0  0  3  0  0  0  0  0  0
  189.7380  176.4050  146.8330 C   0  0  0  0  0  3  0  0  0  0  0  0
  186.7270  176.5520  141.4400 N   0  0  0  0  0  0  0  0  0  0  0  0
  192.3380  175.8050  146.0220 C   0  0  0  0  0  3  0  0  0  0  0  0
  191.2690  175.5080  145.1670 C   0  0  0  0  0  0  0  0  0  0  0  0
  189.9490  175.8060  145.5850 C   0  0  0  0  0  0  0  0  0  0  0  0
  190.1150  172.3380  138.6150 C   0  0  0  0  0  3  0  0  0  0  0  0
  189.8630  173.7520  141.0210 C   0  0  0  0  0  0  0  0  0  0  0  0
  191.0650  173.7910  140.3040 C   0  0  0  0  0  3  0  0  0  0  0  0
  191.1900  173.0860  139.1030 C   0  0  0  0  0  3  0  0  0  0  0  0
  188.9150  172.2910  139.3300 C   0  0  0  0  0  3  0  0  0  0  0  0
  188.7880  172.9950  140.5310 C   0  0  0  0  0  3  0  0  0  0  0  0
  1 15  1  0  0  0  0
  3 21  1  0  0  0  0
  4 13  1  0  0  0  0
  6 18  1  0  0  0  0
  6  2  2  0  0  0  0
  7  9  1  1  0  0  0
 10  8  1  0  0  0  0
 11 14  1  6  0  0  0
 11  7  1  0  0  0  0
 12 23  1  6  0  0  0
 12  2  1  0  0  0  0
 12  1  1  0  0  0  0
 13  5  1  6  0  0  0
 13  7  1  0  0  0  0
 14  4  1  0  0  0  0
 15 20  1  0  0  0  0
 16  2  1  6  0  0  0
 16 11  1  0  0  0  0
 16  3  1  0  0  0  0
 17  8  2  0  0  0  0
 18 14  2  0  0  0  0
 19 10  2  0  0  0  0
 20 21  2  0  0  0  0
 20 19  1  0  0  0  0
 21 17  1  0  0  0  0
 22 25  2  0  0  0  0
 22 26  1  0  0  0  0
 24 23  2  0  0  0  0
 25 24  1  0  0  0  0
 26 27  2  0  0  0  0
 27 23  1  0  0  0  0
M  END
>  <MODEL>
5

>  <REMARK>
 VINA RESULT:      -7.6      2.124      6.856
  Name = 
  1 active torsions:
  status: ('A' for Active; 'I' for Inactive)
    1  A    between atoms: C_9  and  C_15
                            x       y       z     vdW  Elec       q    Type
                         _______ _______ _______ _____ _____    ______ ____

>  <TORSDO>
F 1

$$$$
=
 OpenBabel11052418213D

 27 31  0  0  1  0  0  0  0  0999 V2000
  187.5410  176.6800  144.7160 C   0  0  0  0  0  2  0  0  0  0  0  0
  188.4030  175.5980  142.6560 C   0  0  0  0  0  0  0  0  0  0  0  0
  190.4960  176.1170  143.7910 N   0  0  0  0  0  2  0  0  0  0  0  0
  190.0920  172.1740  141.1710 O   0  0  0  0  0  0  0  0  0  0  0  0
  191.3770  170.8010  142.6680 C   0  0  0  0  0  1  0  0  0  0  0  0
  187.7860  174.9250  141.7190 N   0  0  0  0  0  0  0  0  0  0  0  0
  191.4880  173.3020  142.7080 C   0  0  1  0  0  3  0  0  0  0  0  0
  192.1780  176.1150  147.0970 C   0  0  0  0  0  3  0  0  0  0  0  0
  192.8840  173.8790  142.5900 C   0  0  0  0  0  1  0  0  0  0  0  0
  191.2560  176.7980  147.8910 C   0  0  0  0  0  3  0  0  0  0  0  0
  190.4630  174.2970  142.1720 C   0  0  1  0  0  3  0  0  0  0  0  0
  187.8100  176.8560  143.2300 C   0  0  1  0  0  3  0  0  0  0  0  0
  191.3520  172.0540  141.8150 C   0  0  2  0  0  3  0  0  0  0  0  0
  189.5470  173.4060  141.4400 C   0  0  0  0  0  0  0  0  0  0  0  0
  188.4830  177.4590  145.5060 N   0  0  0  0  0  2  0  0  0  0  0  0
  189.6810  175.0390  143.2540 C   0  0  2  0  0  3  0  0  0  0  0  0
  191.8940  175.8710  145.7530 C   0  0  0  0  0  3  0  0  0  0  0  0
  188.3150  173.7270  141.1950 N   0  0  0  0  0  0  0  0  0  0  0  0
  190.0470  177.2280  147.3420 C   0  0  0  0  0  3  0  0  0  0  0  0
  189.7340  176.9670  146.0020 C   0  0  0  0  0  0  0  0  0  0  0  0
  190.6780  176.2850  145.1940 C   0  0  0  0  0  0  0  0  0  0  0  0
  184.3160  178.3300  141.1960 C   0  0  0  0  0  3  0  0  0  0  0  0
  186.5990  177.3610  142.5000 C   0  0  0  0  0  0  0  0  0  0  0  0
  185.3770  177.4340  143.1790 C   0  0  0  0  0  3  0  0  0  0  0  0
  184.2380  177.9160  142.5280 C   0  0  0  0  0  3  0  0  0  0  0  0
  185.5340  178.2660  140.5140 C   0  0  0  0  0  3  0  0  0  0  0  0
  186.6740  177.7840  141.1630 C   0  0  0  0  0  3  0  0  0  0  0  0
  1 15  1  0  0  0  0
  2 12  1  0  0  0  0
  3 21  1  0  0  0  0
  4 14  1  0  0  0  0
  4 13  1  0  0  0  0
  6  2  2  0  0  0  0
  7  9  1  6  0  0  0
  8 10  1  0  0  0  0
 11 14  1  6  0  0  0
 11  7  1  0  0  0  0
 11 16  1  0  0  0  0
 12 23  1  6  0  0  0
 12  1  1  0  0  0  0
 13  5  1  1  0  0  0
 13  7  1  0  0  0  0
 15 20  1  0  0  0  0
 16  2  1  6  0  0  0
 16  3  1  0  0  0  0
 17  8  2  0  0  0  0
 18 14  2  0  0  0  0
 18  6  1  0  0  0  0
 19 10  2  0  0  0  0
 20 19  1  0  0  0  0
 21 17  1  0  0  0  0
 21 20  2  0  0  0  0
 22 25  1  0  0  0  0
 23 24  1  0  0  0  0
 25 24  2  0  0  0  0
 26 27  1  0  0  0  0
 26 22  2  0  0  0  0
 27 23  2  0  0  0  0
M  END
>  <MODEL>
6

>  <REMARK>
 VINA RESULT:      -7.4      2.316      4.987
  Name = 
  1 active torsions:
  status: ('A' for Active; 'I' for Inactive)
    1  A    between atoms: C_9  and  C_15
                            x       y       z     vdW  Elec       q    Type
                         _______ _______ _______ _____ _____    ______ ____

>  <TORSDO>
F 1

$$$$
=
 OpenBabel11052418213D

 27 31  0  0  1  0  0  0  0  0999 V2000
  187.5120  177.2620  143.0240 C   0  0  0  0  0  2  0  0  0  0  0  0
  189.1740  176.4590  144.6810 C   0  0  0  0  0  0  0  0  0  0  0  0
  189.2530  174.6410  143.0610 N   0  0  0  0  0  2  0  0  0  0  0  0
  193.1790  175.9660  145.3840 O   0  0  0  0  0  0  0  0  0  0  0  0
  194.6380  175.6930  143.4940 C   0  0  0  0  0  1  0  0  0  0  0  0
  189.7320  177.0640  145.6970 N   0  0  0  0  0  0  0  0  0  0  0  0
  192.3790  174.6210  143.6140 C   0  0  1  0  0  3  0  0  0  0  0  0
  189.2810  173.8790  139.4300 C   0  0  0  0  0  3  0  0  0  0  0  0
  192.3740  173.1220  143.3900 C   0  0  0  0  0  1  0  0  0  0  0  0
  188.1850  174.6100  138.9720 C   0  0  0  0  0  3  0  0  0  0  0  0
  191.1920  175.0240  144.4840 C   0  0  1  0  0  3  0  0  0  0  0  0
  187.7070  176.6210  144.3870 C   0  0  1  0  0  3  0  0  0  0  0  0
  193.6300  175.0320  144.4140 C   0  0  2  0  0  3  0  0  0  0  0  0
  191.8070  176.0280  145.3690 C   0  0  0  0  0  0  0  0  0  0  0  0
  186.9980  176.2920  142.0670 N   0  0  0  0  0  2  0  0  0  0  0  0
  190.0410  175.6710  143.7170 C   0  0  2  0  0  3  0  0  0  0  0  0
  189.6380  173.9280  140.7780 C   0  0  0  0  0  3  0  0  0  0  0  0
  191.1120  176.9460  145.9650 N   0  0  0  0  0  0  0  0  0  0  0  0
  187.4520  175.3970  139.8620 C   0  0  0  0  0  3  0  0  0  0  0  0
  187.8130  175.4790  141.2120 C   0  0  0  0  0  0  0  0  0  0  0  0
  188.9180  174.7250  141.6770 C   0  0  0  0  0  0  0  0  0  0  0  0
  185.4560  178.7080  147.4050 C   0  0  0  0  0  3  0  0  0  0  0  0
  186.9360  177.3400  145.4570 C   0  0  0  0  0  0  0  0  0  0  0  0
  186.3720  178.5880  145.1660 C   0  0  0  0  0  3  0  0  0  0  0  0
  185.6350  179.2710  146.1390 C   0  0  0  0  0  3  0  0  0  0  0  0
  186.0110  177.4590  147.7000 C   0  0  0  0  0  3  0  0  0  0  0  0
  186.7490  176.7750  146.7290 C   0  0  0  0  0  3  0  0  0  0  0  0
  1 12  1  0  0  0  0
  2  6  2  0  0  0  0
  6 18  1  0  0  0  0
  7  9  1  1  0  0  0
  7 13  1  0  0  0  0
  7 11  1  0  0  0  0
  8 17  1  0  0  0  0
 10  8  2  0  0  0  0
 10 19  1  0  0  0  0
 11 14  1  1  0  0  0
 12  2  1  0  0  0  0
 12 23  1  1  0  0  0
 13  5  1  6  0  0  0
 13  4  1  0  0  0  0
 14  4  1  0  0  0  0
 14 18  2  0  0  0  0
 15  1  1  0  0  0  0
 16  3  1  1  0  0  0
 16 11  1  0  0  0  0
 16  2  1  0  0  0  0
 17 21  2  0  0  0  0
 19 20  2  0  0  0  0
 20 21  1  0  0  0  0
 20 15  1  0  0  0  0
 21  3  1  0  0  0  0
 22 26  1  0  0  0  0
 23 27  1  0  0  0  0
 24 23  2  0  0  0  0
 24 25  1  0  0  0  0
 25 22  2  0  0  0  0
 27 26  2  0  0  0  0
M  END
>  <MODEL>
7

>  <REMARK>
 VINA RESULT:      -7.4      1.215      1.318
  Name = 
  1 active torsions:
  status: ('A' for Active; 'I' for Inactive)
    1  A    between atoms: C_9  and  C_15
                            x       y       z     vdW  Elec       q    Type
                         _______ _______ _______ _____ _____    ______ ____

>  <TORSDO>
F 1

$$$$
=
 OpenBabel11052418213D

 27 31  0  0  1  0  0  0  0  0999 V2000
  189.2150  175.1750  143.0730 C   0  0  0  0  0  2  0  0  0  0  0  0
  188.8360  176.6260  145.0500 C   0  0  0  0  0  0  0  0  0  0  0  0
  187.8510  178.0030  143.2970 N   0  0  0  0  0  2  0  0  0  0  0  0
  185.9930  177.9800  147.6690 O   0  0  0  0  0  0  0  0  0  0  0  0
  183.7100  178.0650  146.9230 C   0  0  0  0  0  1  0  0  0  0  0  0
  188.9660  176.3830  146.3280 N   0  0  0  0  0  0  0  0  0  0  0  0
  185.6310  178.7120  145.4530 C   0  0  1  0  0  3  0  0  0  0  0  0
  185.7260  177.8950  140.2590 C   0  0  0  0  0  3  0  0  0  0  0  0
  185.5230  180.0920  144.8360 C   0  0  0  0  0  1  0  0  0  0  0  0
  186.3430  176.8930  139.5090 C   0  0  0  0  0  3  0  0  0  0  0  0
  187.0970  178.3150  145.5920 C   0  0  1  0  0  3  0  0  0  0  0  0
  189.8570  176.1390  144.0560 C   0  0  1  0  0  3  0  0  0  0  0  0
  185.0730  178.7280  146.8890 C   0  0  2  0  0  3  0  0  0  0  0  0
  187.1000  177.6700  146.9170 C   0  0  0  0  0  0  0  0  0  0  0  0
  189.0870  175.7890  141.7590 N   0  0  0  0  0  2  0  0  0  0  0  0
  187.5790  177.3110  144.5470 C   0  0  2  0  0  3  0  0  0  0  0  0
  186.2190  178.2250  141.5210 C   0  0  0  0  0  3  0  0  0  0  0  0
  188.0010  176.8060  147.2660 N   0  0  0  0  0  0  0  0  0  0  0  0
  187.4470  176.2150  140.0280 C   0  0  0  0  0  3  0  0  0  0  0  0
  187.9380  176.5140  141.3050 C   0  0  0  0  0  0  0  0  0  0  0  0
  187.3180  177.5410  142.0580 C   0  0  0  0  0  0  0  0  0  0  0  0
  193.4090  174.4300  145.7840 C   0  0  0  0  0  3  0  0  0  0  0  0
  191.0980  175.5610  144.6750 C   0  0  0  0  0  0  0  0  0  0  0  0
  191.2500  174.1700  144.7180 C   0  0  0  0  0  3  0  0  0  0  0  0
  192.4030  173.6060  145.2730 C   0  0  0  0  0  3  0  0  0  0  0  0
  193.2660  175.8190  145.7380 C   0  0  0  0  0  3  0  0  0  0  0  0
  192.1140  176.3860  145.1840 C   0  0  0  0  0  3  0  0  0  0  0  0
  1 12  1  0  0  0  0
  2  6  2  0  0  0  0
  6 18  1  0  0  0  0
  7  9  1  1  0  0  0
  7 11  1  0  0  0  0
  7 13  1  0  0  0  0
  8 17  1  0  0  0  0
 10 19  1  0  0  0  0
 10  8  2  0  0  0  0
 11 14  1  1  0  0  0
 12 23  1  1  0  0  0
 12  2  1  0  0  0  0
 13  5  1  6  0  0  0
 13  4  1  0  0  0  0
 14 18  2  0  0  0  0
 14  4  1  0  0  0  0
 15  1  1  0  0  0  0
 16  3  1  6  0  0  0
 16  2  1  0  0  0  0
 16 11  1  0  0  0  0
 17 21  2  0  0  0  0
 19 20  2  0  0  0  0
 20 15  1  0  0  0  0
 20 21  1  0  0  0  0
 21  3  1  0  0  0  0
 23 24  2  0  0  0  0
 23 27  1  0  0  0  0
 24 25  1  0  0  0  0
 25 22  2  0  0  0  0
 26 22  1  0  0  0  0
 27 26  2  0  0  0  0
M  END
>  <MODEL>
8

>  <REMARK>
 VINA RESULT:      -7.3      2.060      6.053
  Name = 
  1 active torsions:
  status: ('A' for Active; 'I' for Inactive)
    1  A    between atoms: C_9  and  C_15
                            x       y       z     vdW  Elec       q    Type
                         _______ _______ _______ _____ _____    ______ ____

>  <TORSDO>
F 1

$$$$
=
 OpenBabel11052418213D

 27 31  0  0  1  0  0  0  0  0999 V2000
  191.2730  174.0500  143.3720 C   0  0  0  0  0  2  0  0  0  0  0  0
  190.5680  175.8780  144.8950 C   0  0  0  0  0  0  0  0  0  0  0  0
  189.4270  176.5440  142.8480 N   0  0  0  0  0  2  0  0  0  0  0  0
  187.4300  177.3380  147.0850 O   0  0  0  0  0  0  0  0  0  0  0  0
  185.1990  176.8120  146.3630 C   0  0  0  0  0  1  0  0  0  0  0  0
  190.6880  176.0070  146.1910 N   0  0  0  0  0  0  0  0  0  0  0  0
  187.0330  177.3840  144.7570 C   0  0  1  0  0  3  0  0  0  0  0  0
  187.4750  175.2600  139.9660 C   0  0  0  0  0  3  0  0  0  0  0  0
  186.7080  178.5100  143.7960 C   0  0  0  0  0  1  0  0  0  0  0  0
  188.2870  174.2240  139.5050 C   0  0  0  0  0  3  0  0  0  0  0  0
  188.5390  177.3080  144.9840 C   0  0  1  0  0  3  0  0  0  0  0  0
  191.6970  175.3390  144.0580 C   0  0  1  0  0  3  0  0  0  0  0  0
  186.4240  177.6770  146.1410 C   0  0  2  0  0  3  0  0  0  0  0  0
  188.6030  177.0460  146.4320 C   0  0  0  0  0  0  0  0  0  0  0  0
  191.0920  174.2630  141.9430 N   0  0  0  0  0  2  0  0  0  0  0  0
  189.2310  176.1680  144.2390 C   0  0  2  0  0  3  0  0  0  0  0  0
  187.8520  175.9940  141.0920 C   0  0  0  0  0  3  0  0  0  0  0  0
  189.6270  176.4810  146.9900 N   0  0  0  0  0  0  0  0  0  0  0  0
  189.4720  173.9170  140.1750 C   0  0  0  0  0  3  0  0  0  0  0  0
  189.8520  174.6240  141.3230 C   0  0  0  0  0  0  0  0  0  0  0  0
  189.0320  175.6850  141.7810 C   0  0  0  0  0  0  0  0  0  0  0  0
  195.4280  174.8160  146.1400 C   0  0  0  0  0  3  0  0  0  0  0  0
  192.9940  175.1760  144.7970 C   0  0  0  0  0  0  0  0  0  0  0  0
  193.4650  173.8860  145.0690 C   0  0  0  0  0  3  0  0  0  0  0  0
  194.6780  173.7070  145.7410 C   0  0  0  0  0  3  0  0  0  0  0  0
  194.9670  176.1070  145.8650 C   0  0  0  0  0  3  0  0  0  0  0  0
  193.7540  176.2890  145.1940 C   0  0  0  0  0  3  0  0  0  0  0  0
  1 12  1  0  0  0  0
  2  6  2  0  0  0  0
  6 18  1  0  0  0  0
  7  9  1  6  0  0  0
  7 11  1  0  0  0  0
  7 13  1  0  0  0  0
  8 17  1  0  0  0  0
 10  8  2  0  0  0  0
 10 19  1  0  0  0  0
 11 14  1  1  0  0  0
 12 23  1  1  0  0  0
 12  2  1  0  0  0  0
 13  5  1  1  0  0  0
 13  4  1  0  0  0  0
 14 18  2  0  0  0  0
 14  4  1  0  0  0  0
 15  1  1  0  0  0  0
 16  3  1  6  0  0  0
 16  2  1  0  0  0  0
 16 11  1  0  0  0  0
 17 21  2  0  0  0  0
 19 20  2  0  0  0  0
 20 21  1  0  0  0  0
 20 15  1  0  0  0  0
 21  3  1  0  0  0  0
 23 24  2  0  0  0  0
 23 27  1  0  0  0  0
 24 25  1  0  0  0  0
 25 22  2  0  0  0  0
 26 22  1  0  0  0  0
 27 26  2  0  0  0  0
M  END
>  <MODEL>
9

>  <REMARK>
 VINA RESULT:      -7.1      1.657      5.917
  Name = 
  1 active torsions:
  status: ('A' for Active; 'I' for Inactive)
    1  A    between atoms: C_9  and  C_15
                            x       y       z     vdW  Elec       q    Type
                         _______ _______ _______ _____ _____    ______ ____

>  <TORSDO>
F 1

$$$$
