=
 OpenBabel11052419063D

 32 38  0  0  1  0  0  0  0  0999 V2000
  193.1830  174.2570  143.4160 C   0  0  1  0  0  3  0  0  0  0  0  0
  189.4890  176.8830  142.8020 C   0  0  0  0  0  3  0  0  0  0  0  0
  192.2070  173.6520  144.4590 C   0  0  1  0  0  3  0  0  0  0  0  0
  194.6080  175.3750  145.1520 C   0  0  2  0  0  3  0  0  0  0  0  0
  188.6820  175.3180  145.9990 C   0  0  0  0  0  2  0  0  0  0  0  0
  192.3850  174.1770  145.9220 C   0  0  1  0  0  3  0  0  0  0  0  0
  190.2750  177.2930  146.4300 C   0  0  0  0  0  2  0  0  0  0  0  0
  191.3200  176.3410  145.8290 C   0  0  2  0  0  0  0  0  0  0  0  0
  193.4630  175.2630  146.1570 C   0  0  2  0  0  3  0  0  0  0  0  0
  188.2750  175.1560  141.6460 C   0  0  0  0  0  3  0  0  0  0  0  0
  190.0720  174.5380  143.1960 C   0  0  0  0  0  0  0  0  0  0  0  0
  192.7340  176.6170  146.2940 C   0  0  0  0  0  2  0  0  0  0  0  0
  194.5880  174.3560  144.0200 C   0  0  2  0  0  3  0  0  0  0  0  0
  188.4830  176.5070  141.9110 C   0  0  0  0  0  0  0  0  0  0  0  0
  189.0460  174.1920  142.2930 C   0  0  0  0  0  3  0  0  0  0  0  0
  190.2690  175.9280  143.4620 C   0  0  0  0  0  0  0  0  0  0  0  0
  191.3810  176.4800  144.2930 C   0  0  0  0  0  2  0  0  0  0  0  0
  189.7920  173.1550  145.2180 C   0  0  0  0  0  2  0  0  0  0  0  0
  195.8230  175.3100  145.8350 O   0  0  0  0  0  1  0  0  0  0  0  0
  190.7130  173.3970  144.0090 C   0  0  2  0  0  0  0  0  0  0  0  0
  191.1620  174.9340  146.3670 C   0  0  1  0  0  3  0  0  0  0  0  0
  195.6120  174.7990  142.9820 C   0  0  0  0  0  1  0  0  0  0  0  0
  188.9450  176.5990  146.8050 C   0  0  0  0  0  2  0  0  0  0  0  0
  189.7910  174.2840  146.2380 C   0  0  1  0  0  3  0  0  0  0  0  0
  187.2520  178.5300  142.1060 O   0  0  0  0  0  0  0  0  0  0  0  0
  186.2910  177.5870  141.7070 C   0  0  0  0  0  2  0  0  0  0  0  0
  187.6810  177.5460  141.1940 C   0  0  2  0  0  3  0  0  0  0  0  0
  193.2220  173.3020  141.8560 S   0  0  0  0  0  0  0  0  0  0  0  0
  192.8000  174.7640  140.8680 C   0  0  0  0  0  1  0  0  0  0  0  0
  190.6550  171.8080  143.0650 S   0  0  0  0  0  0  0  0  0  0  0  0
  191.8430  170.8940  144.1010 C   0  0  0  0  0  2  0  0  0  0  0  0
  192.5320  169.8380  143.2650 C   0  0  0  0  0  1  0  0  0  0  0  0
  1 28  1  6  0  0  0
  1 13  1  0  0  0  0
  1  3  1  0  0  0  0
  2 16  1  0  0  0  0
  3  6  1  0  0  0  0
  4 19  1  0  0  0  0
  4  9  1  0  0  0  0
  5 24  1  0  0  0  0
  5 23  1  0  0  0  0
  6  9  1  0  0  0  0
  6 21  1  0  0  0  0
  7 23  1  0  0  0  0
  8 12  1  0  0  0  0
  8 21  1  0  0  0  0
  8  7  1  0  0  0  0
  9 12  1  0  0  0  0
 10 14  1  0  0  0  0
 10 15  2  0  0  0  0
 11 16  2  0  0  0  0
 11 20  1  0  0  0  0
 13  4  1  0  0  0  0
 14  2  2  0  0  0  0
 15 11  1  0  0  0  0
 16 17  1  0  0  0  0
 17  8  1  0  0  0  0
 18 24  1  0  0  0  0
 20  3  1  0  0  0  0
 20 18  1  0  0  0  0
 22 13  1  0  0  0  0
 24 21  1  0  0  0  0
 26 25  1  0  0  0  0
 27 26  1  0  0  0  0
 27 14  1  0  0  0  0
 27 25  1  0  0  0  0
 29 28  1  0  0  0  0
 30 20  1  0  0  0  0
 30 31  1  0  0  0  0
 32 31  1  0  0  0  0
M  END
>  <MODEL>
1

>  <REMARK>
 VINA RESULT:      -6.9      0.000      0.000
  Name = 
  4 active torsions:
  status: ('A' for Active; 'I' for Inactive)
    1  A    between atoms: S_1  and  C_4
    2  A    between atoms: S_1  and  C_27
    3  A    between atoms: C_2  and  S_14
    4  A    between atoms: C_19  and  C_26
                            x       y       z     vdW  Elec       q    Type
                         _______ _______ _______ _____ _____    ______ ____

>  <TORSDO>
F 4

$$$$
=
 OpenBabel11052419063D

 32 38  0  0  1  0  0  0  0  0999 V2000
  189.6550  176.6050  143.3240 C   0  0  1  0  0  3  0  0  0  0  0  0
  193.5810  174.2710  143.0790 C   0  0  0  0  0  3  0  0  0  0  0  0
  189.2820  175.3080  144.0870 C   0  0  1  0  0  3  0  0  0  0  0  0
  188.3060  176.0010  141.2970 C   0  0  2  0  0  3  0  0  0  0  0  0
  191.2820  171.6240  144.0930 C   0  0  0  0  0  2  0  0  0  0  0  0
  188.5390  174.2240  143.2360 C   0  0  1  0  0  3  0  0  0  0  0  0
  191.0780  171.9600  141.5500 C   0  0  0  0  0  2  0  0  0  0  0  0
  190.3410  173.2410  141.9640 C   0  0  2  0  0  0  0  0  0  0  0  0
  188.3080  174.5380  141.7370 C   0  0  2  0  0  3  0  0  0  0  0  0
  194.1350  174.6790  145.3860 C   0  0  0  0  0  3  0  0  0  0  0  0
  191.7890  174.7550  144.6760 C   0  0  0  0  0  0  0  0  0  0  0  0
  189.3520  173.7360  140.9300 C   0  0  0  0  0  2  0  0  0  0  0  0
  188.4960  177.0210  142.4120 C   0  0  2  0  0  3  0  0  0  0  0  0
  194.5390  174.3730  144.0890 C   0  0  0  0  0  0  0  0  0  0  0  0
  192.7810  174.8480  145.6730 C   0  0  0  0  0  3  0  0  0  0  0  0
  192.2190  174.4350  143.3510 C   0  0  0  0  0  0  0  0  0  0  0  0
  191.3250  174.4140  142.1540 C   0  0  0  0  0  2  0  0  0  0  0  0
  189.9970  173.2950  145.5330 C   0  0  0  0  0  2  0  0  0  0  0  0
  187.1250  176.2660  140.6000 O   0  0  0  0  0  1  0  0  0  0  0  0
  190.3200  174.7470  145.1390 C   0  0  2  0  0  0  0  0  0  0  0  0
  189.3810  172.9820  143.1070 C   0  0  1  0  0  3  0  0  0  0  0  0
  188.7550  178.3750  141.7600 C   0  0  0  0  0  1  0  0  0  0  0  0
  191.2840  170.9580  142.7090 C   0  0  0  0  0  2  0  0  0  0  0  0
  189.9440  172.3260  144.3610 C   0  0  1  0  0  3  0  0  0  0  0  0
  196.7660  174.8020  144.7950 O   0  0  0  0  0  0  0  0  0  0  0  0
  196.6370  175.5500  143.6130 C   0  0  0  0  0  2  0  0  0  0  0  0
  195.9930  174.2240  143.7700 C   0  0  2  0  0  3  0  0  0  0  0  0
  190.1090  177.9750  144.4490 S   0  0  0  0  0  0  0  0  0  0  0  0
  191.7380  178.1670  143.6750 C   0  0  0  0  0  1  0  0  0  0  0  0
  190.1240  175.7020  146.7100 S   0  0  0  0  0  0  0  0  0  0  0  0
  188.3400  175.4040  146.9280 C   0  0  0  0  0  2  0  0  0  0  0  0
  187.6030  176.7250  146.9160 C   0  0  0  0  0  1  0  0  0  0  0  0
  1  3  1  0  0  0  0
  1 28  1  1  0  0  0
  2 16  2  0  0  0  0
  2 14  1  0  0  0  0
  3 20  1  0  0  0  0
  4  9  1  0  0  0  0
  4 13  1  0  0  0  0
  5 24  1  0  0  0  0
  6  3  1  0  0  0  0
  7  8  1  0  0  0  0
  7 23  1  0  0  0  0
  8 17  1  0  0  0  0
  8 21  1  0  0  0  0
  9  6  1  0  0  0  0
 10 15  1  0  0  0  0
 11 20  1  0  0  0  0
 11 15  2  0  0  0  0
 12  9  1  0  0  0  0
 12  8  1  0  0  0  0
 13  1  1  0  0  0  0
 14 10  2  0  0  0  0
 16 11  1  0  0  0  0
 17 16  1  0  0  0  0
 19  4  1  0  0  0  0
 20 18  1  0  0  0  0
 20 30  1  0  0  0  0
 21  6  1  0  0  0  0
 21 24  1  0  0  0  0
 22 13  1  0  0  0  0
 23  5  1  0  0  0  0
 24 18  1  0  0  0  0
 26 27  1  0  0  0  0
 26 25  1  0  0  0  0
 27 14  1  0  0  0  0
 27 25  1  0  0  0  0
 29 28  1  0  0  0  0
 30 31  1  0  0  0  0
 32 31  1  0  0  0  0
M  END
>  <MODEL>
2

>  <REMARK>
 VINA RESULT:      -6.7      2.013      6.347
  Name = 
  4 active torsions:
  status: ('A' for Active; 'I' for Inactive)
    1  A    between atoms: S_1  and  C_4
    2  A    between atoms: S_1  and  C_27
    3  A    between atoms: C_2  and  S_14
    4  A    between atoms: C_19  and  C_26
                            x       y       z     vdW  Elec       q    Type
                         _______ _______ _______ _____ _____    ______ ____

>  <TORSDO>
F 4

$$$$
=
 OpenBabel11052419063D

 32 38  0  0  1  0  0  0  0  0999 V2000
  189.9960  176.3820  143.3410 C   0  0  1  0  0  3  0  0  0  0  0  0
  194.5050  175.8610  142.7750 C   0  0  0  0  0  3  0  0  0  0  0  0
  190.2310  175.0180  144.0400 C   0  0  1  0  0  3  0  0  0  0  0  0
  188.8750  175.3550  141.3450 C   0  0  2  0  0  3  0  0  0  0  0  0
  193.5470  172.4720  143.7300 C   0  0  0  0  0  2  0  0  0  0  0  0
  189.9360  173.7580  143.1600 C   0  0  1  0  0  3  0  0  0  0  0  0
  193.0560  172.7890  141.2250 C   0  0  0  0  0  2  0  0  0  0  0  0
  191.8920  173.6420  141.7500 C   0  0  2  0  0  0  0  0  0  0  0  0
  189.4990  174.0060  141.6950 C   0  0  2  0  0  3  0  0  0  0  0  0
  194.9980  176.3740  145.0740 C   0  0  0  0  0  3  0  0  0  0  0  0
  192.7810  175.5140  144.4790 C   0  0  0  0  0  0  0  0  0  0  0  0
  190.7210  173.7290  140.7940 C   0  0  0  0  0  2  0  0  0  0  0  0
  188.7090  176.3220  142.5100 C   0  0  2  0  0  3  0  0  0  0  0  0
  195.4050  176.3070  143.7440 C   0  0  0  0  0  0  0  0  0  0  0  0
  193.7150  175.9660  145.4330 C   0  0  0  0  0  3  0  0  0  0  0  0
  193.2140  175.4460  143.1190 C   0  0  0  0  0  0  0  0  0  0  0  0
  192.3280  175.1060  141.9650 C   0  0  0  0  0  2  0  0  0  0  0  0
  191.7940  173.4190  145.3270 C   0  0  0  0  0  2  0  0  0  0  0  0
  187.6450  175.1410  140.7210 O   0  0  0  0  0  1  0  0  0  0  0  0
  191.4750  174.8900  145.0070 C   0  0  2  0  0  0  0  0  0  0  0  0
  191.1980  172.9720  142.9170 C   0  0  1  0  0  3  0  0  0  0  0  0
  188.3540  177.6870  141.9310 C   0  0  0  0  0  1  0  0  0  0  0  0
  193.7260  171.9150  142.3100 C   0  0  0  0  0  2  0  0  0  0  0  0
  192.0610  172.5570  144.1010 C   0  0  1  0  0  3  0  0  0  0  0  0
  197.0700  176.3260  142.0500 O   0  0  0  0  0  0  0  0  0  0  0  0
  197.6730  175.6270  143.1090 C   0  0  0  0  0  2  0  0  0  0  0  0
  196.7690  176.7760  143.3500 C   0  0  2  0  0  3  0  0  0  0  0  0
  189.9300  177.7750  144.5260 S   0  0  0  0  0  0  0  0  0  0  0  0
  191.3060  178.6290  143.7080 C   0  0  0  0  0  1  0  0  0  0  0  0
  191.0150  175.6240  146.6410 S   0  0  0  0  0  0  0  0  0  0  0  0
  189.4970  174.6500  146.9000 C   0  0  0  0  0  2  0  0  0  0  0  0
  188.3180  175.5850  147.0500 C   0  0  0  0  0  1  0  0  0  0  0  0
  1  3  1  0  0  0  0
  1 28  1  1  0  0  0
  2 16  2  0  0  0  0
  2 14  1  0  0  0  0
  3 20  1  0  0  0  0
  4  9  1  0  0  0  0
  4 13  1  0  0  0  0
  5 24  1  0  0  0  0
  6  3  1  0  0  0  0
  7  8  1  0  0  0  0
  7 23  1  0  0  0  0
  8 17  1  0  0  0  0
  8 21  1  0  0  0  0
  9  6  1  0  0  0  0
 10 15  1  0  0  0  0
 11 20  1  0  0  0  0
 11 15  2  0  0  0  0
 12  9  1  0  0  0  0
 12  8  1  0  0  0  0
 13  1  1  0  0  0  0
 14 10  2  0  0  0  0
 16 11  1  0  0  0  0
 17 16  1  0  0  0  0
 19  4  1  0  0  0  0
 20 18  1  0  0  0  0
 20 30  1  0  0  0  0
 21  6  1  0  0  0  0
 21 24  1  0  0  0  0
 22 13  1  0  0  0  0
 23  5  1  0  0  0  0
 24 18  1  0  0  0  0
 25 26  1  0  0  0  0
 25 27  1  0  0  0  0
 26 27  1  0  0  0  0
 27 14  1  0  0  0  0
 29 28  1  0  0  0  0
 30 31  1  0  0  0  0
 31 32  1  0  0  0  0
M  END
>  <MODEL>
3

>  <REMARK>
 VINA RESULT:      -6.4      2.231      6.326
  Name = 
  4 active torsions:
  status: ('A' for Active; 'I' for Inactive)
    1  A    between atoms: S_1  and  C_4
    2  A    between atoms: S_1  and  C_27
    3  A    between atoms: C_2  and  S_14
    4  A    between atoms: C_19  and  C_26
                            x       y       z     vdW  Elec       q    Type
                         _______ _______ _______ _____ _____    ______ ____

>  <TORSDO>
F 4

$$$$
=
 OpenBabel11052419063D

 32 38  0  0  1  0  0  0  0  0999 V2000
  190.6900  174.4300  142.2950 C   0  0  1  0  0  3  0  0  0  0  0  0
  193.4680  172.5240  145.3890 C   0  0  0  0  0  3  0  0  0  0  0  0
  191.8260  175.4820  142.3670 C   0  0  1  0  0  3  0  0  0  0  0  0
  189.0570  175.8620  143.5490 C   0  0  2  0  0  3  0  0  0  0  0  0
  194.7770  175.9310  145.3120 C   0  0  0  0  0  2  0  0  0  0  0  0
  191.5490  176.7000  143.3100 C   0  0  1  0  0  3  0  0  0  0  0  0
  192.7020  175.8810  146.8330 C   0  0  0  0  0  2  0  0  0  0  0  0
  191.9540  175.7640  145.4980 C   0  0  2  0  0  0  0  0  0  0  0  0
  190.2140  176.6960  144.0950 C   0  0  2  0  0  3  0  0  0  0  0  0
  195.0890  171.8610  143.7370 C   0  0  0  0  0  3  0  0  0  0  0  0
  193.5850  173.7400  143.2660 C   0  0  0  0  0  0  0  0  0  0  0  0
  190.5330  176.2850  145.5490 C   0  0  0  0  0  2  0  0  0  0  0  0
  189.3320  175.1380  142.2380 C   0  0  2  0  0  3  0  0  0  0  0  0
  194.5140  171.6880  144.9940 C   0  0  0  0  0  0  0  0  0  0  0  0
  194.6410  172.8810  142.8990 C   0  0  0  0  0  3  0  0  0  0  0  0
  193.0100  173.5540  144.5610 C   0  0  0  0  0  0  0  0  0  0  0  0
  191.8120  174.2890  145.0670 C   0  0  0  0  0  2  0  0  0  0  0  0
  194.3040  176.0530  142.8060 C   0  0  0  0  0  2  0  0  0  0  0  0
  187.9290  176.6760  143.4200 O   0  0  0  0  0  1  0  0  0  0  0  0
  193.3180  174.9580  142.3620 C   0  0  2  0  0  0  0  0  0  0  0  0
  192.5190  176.7130  144.4620 C   0  0  1  0  0  3  0  0  0  0  0  0
  188.1950  174.1490  142.0090 C   0  0  0  0  0  1  0  0  0  0  0  0
  194.1840  176.2940  146.6810 C   0  0  0  0  0  2  0  0  0  0  0  0
  194.0140  176.6350  144.1820 C   0  0  1  0  0  3  0  0  0  0  0  0
  195.6870  169.6270  145.1260 O   0  0  0  0  0  0  0  0  0  0  0  0
  194.3660  169.2860  145.4620 C   0  0  0  0  0  2  0  0  0  0  0  0
  194.9680  170.5740  145.8820 C   0  0  2  0  0  3  0  0  0  0  0  0
  190.8790  173.2900  140.8760 S   0  0  0  0  0  0  0  0  0  0  0  0
  190.8940  171.8330  141.9570 C   0  0  0  0  0  1  0  0  0  0  0  0
  193.7960  174.5920  140.6140 S   0  0  0  0  0  0  0  0  0  0  0  0
  195.1650  175.7900  140.5060 C   0  0  0  0  0  2  0  0  0  0  0  0
  196.3480  175.1420  139.8200 C   0  0  0  0  0  1  0  0  0  0  0  0
  1 28  1  6  0  0  0
  1  3  1  0  0  0  0
  3  6  1  0  0  0  0
  4  9  1  0  0  0  0
  5 23  1  0  0  0  0
  6  9  1  0  0  0  0
  6 21  1  0  0  0  0
  8 12  1  0  0  0  0
  8  7  1  0  0  0  0
  9 12  1  0  0  0  0
 10 14  2  0  0  0  0
 11 16  1  0  0  0  0
 13  1  1  0  0  0  0
 13  4  1  0  0  0  0
 14  2  1  0  0  0  0
 14 27  1  0  0  0  0
 15 11  2  0  0  0  0
 15 10  1  0  0  0  0
 16 17  1  0  0  0  0
 16  2  2  0  0  0  0
 17  8  1  0  0  0  0
 18 24  1  0  0  0  0
 19  4  1  0  0  0  0
 20  3  1  0  0  0  0
 20 18  1  0  0  0  0
 20 11  1  0  0  0  0
 21  8  1  0  0  0  0
 22 13  1  0  0  0  0
 23  7  1  0  0  0  0
 24 21  1  0  0  0  0
 24  5  1  0  0  0  0
 25 26  1  0  0  0  0
 25 27  1  0  0  0  0
 26 27  1  0  0  0  0
 28 29  1  0  0  0  0
 30 20  1  0  0  0  0
 31 30  1  0  0  0  0
 32 31  1  0  0  0  0
M  END
>  <MODEL>
4

>  <REMARK>
 VINA RESULT:      -6.3      2.104      6.165
  Name = 
  4 active torsions:
  status: ('A' for Active; 'I' for Inactive)
    1  A    between atoms: S_1  and  C_4
    2  A    between atoms: S_1  and  C_27
    3  A    between atoms: C_2  and  S_14
    4  A    between atoms: C_19  and  C_26
                            x       y       z     vdW  Elec       q    Type
                         _______ _______ _______ _____ _____    ______ ____

>  <TORSDO>
F 4

$$$$
=
 OpenBabel11052419063D

 32 38  0  0  1  0  0  0  0  0999 V2000
  192.6680  173.8010  141.5070 C   0  0  1  0  0  3  0  0  0  0  0  0
  190.7650  176.6200  144.5660 C   0  0  0  0  0  3  0  0  0  0  0  0
  193.3350  173.3150  142.8190 C   0  0  1  0  0  3  0  0  0  0  0  0
  194.7510  174.9180  140.6650 C   0  0  2  0  0  3  0  0  0  0  0  0
  193.5440  175.2790  146.5170 C   0  0  0  0  0  2  0  0  0  0  0  0
  194.7570  173.9040  143.1030 C   0  0  1  0  0  3  0  0  0  0  0  0
  194.4320  177.1690  145.0140 C   0  0  0  0  0  2  0  0  0  0  0  0
  194.2470  176.1240  143.9050 C   0  0  2  0  0  0  0  0  0  0  0  0
  195.3120  174.9320  142.0860 C   0  0  2  0  0  3  0  0  0  0  0  0
  189.3160  174.9140  145.4510 C   0  0  0  0  0  3  0  0  0  0  0  0
  191.3990  174.2660  144.3310 C   0  0  0  0  0  0  0  0  0  0  0  0
  195.1550  176.3340  142.7120 C   0  0  0  0  0  2  0  0  0  0  0  0
  193.7090  173.8440  140.3820 C   0  0  2  0  0  3  0  0  0  0  0  0
  189.5980  176.2610  145.2410 C   0  0  0  0  0  0  0  0  0  0  0  0
  190.2130  173.9380  145.0180 C   0  0  0  0  0  3  0  0  0  0  0  0
  191.6770  175.6530  144.1280 C   0  0  0  0  0  0  0  0  0  0  0  0
  192.8200  176.1770  143.3210 C   0  0  0  0  0  2  0  0  0  0  0  0
  193.2460  173.0120  145.3800 C   0  0  0  0  0  2  0  0  0  0  0  0
  195.8070  174.8120  139.7580 O   0  0  0  0  0  1  0  0  0  0  0  0
  192.4140  173.1320  144.0910 C   0  0  2  0  0  0  0  0  0  0  0  0
  194.7400  174.7600  144.3430 C   0  0  1  0  0  3  0  0  0  0  0  0
  193.0660  174.1660  139.0380 C   0  0  0  0  0  1  0  0  0  0  0  0
  194.3540  176.5820  146.4420 C   0  0  0  0  0  2  0  0  0  0  0  0
  194.1730  174.1920  145.6360 C   0  0  1  0  0  3  0  0  0  0  0  0
  187.3230  176.7650  145.7070 O   0  0  0  0  0  0  0  0  0  0  0  0
  187.6310  177.5810  144.6050 C   0  0  0  0  0  2  0  0  0  0  0  0
  188.6220  177.3090  145.6730 C   0  0  2  0  0  3  0  0  0  0  0  0
  191.2400  172.7650  141.0200 S   0  0  0  0  0  0  0  0  0  0  0  0
  190.0930  174.1650  141.1390 C   0  0  0  0  0  1  0  0  0  0  0  0
  191.5510  171.5020  143.9510 S   0  0  0  0  0  0  0  0  0  0  0  0
  193.0290  170.5020  143.5840 C   0  0  0  0  0  2  0  0  0  0  0  0
  193.0710  169.3060  144.5110 C   0  0  0  0  0  1  0  0  0  0  0  0
  1 28  1  6  0  0  0
  1  3  1  0  0  0  0
  2 14  1  0  0  0  0
  3  6  1  0  0  0  0
  3 20  1  0  0  0  0
  4  9  1  0  0  0  0
  6 21  1  0  0  0  0
  7 23  1  0  0  0  0
  8 21  1  0  0  0  0
  8  7  1  0  0  0  0
  9 12  1  0  0  0  0
  9  6  1  0  0  0  0
 11 15  2  0  0  0  0
 12  8  1  0  0  0  0
 13  4  1  0  0  0  0
 13  1  1  0  0  0  0
 14 10  2  0  0  0  0
 14 27  1  0  0  0  0
 15 10  1  0  0  0  0
 16 11  1  0  0  0  0
 16  2  2  0  0  0  0
 17  8  1  0  0  0  0
 17 16  1  0  0  0  0
 18 24  1  0  0  0  0
 19  4  1  0  0  0  0
 20 11  1  0  0  0  0
 20 18  1  0  0  0  0
 21 24  1  0  0  0  0
 22 13  1  0  0  0  0
 23  5  1  0  0  0  0
 24  5  1  0  0  0  0
 26 27  1  0  0  0  0
 26 25  1  0  0  0  0
 27 25  1  0  0  0  0
 28 29  1  0  0  0  0
 30 20  1  0  0  0  0
 31 30  1  0  0  0  0
 31 32  1  0  0  0  0
M  END
>  <MODEL>
5

>  <REMARK>
 VINA RESULT:      -6.3      2.057      3.568
  Name = 
  4 active torsions:
  status: ('A' for Active; 'I' for Inactive)
    1  A    between atoms: S_1  and  C_4
    2  A    between atoms: S_1  and  C_27
    3  A    between atoms: C_2  and  S_14
    4  A    between atoms: C_19  and  C_26
                            x       y       z     vdW  Elec       q    Type
                         _______ _______ _______ _____ _____    ______ ____

>  <TORSDO>
F 4

$$$$
=
 OpenBabel11052419063D

 32 38  0  0  1  0  0  0  0  0999 V2000
  190.0480  174.1630  144.3540 C   0  0  1  0  0  3  0  0  0  0  0  0
  186.4570  176.7870  145.4240 C   0  0  0  0  0  3  0  0  0  0  0  0
  190.4000  175.4750  143.6060 C   0  0  1  0  0  3  0  0  0  0  0  0
  189.4610  172.9260  142.2520 C   0  0  2  0  0  3  0  0  0  0  0  0
  187.8790  178.6860  142.6510 C   0  0  0  0  0  2  0  0  0  0  0  0
  190.0170  175.5020  142.0890 C   0  0  1  0  0  3  0  0  0  0  0  0
  186.4590  176.7670  141.6900 C   0  0  0  0  0  2  0  0  0  0  0  0
  187.6380  175.9040  142.1640 C   0  0  2  0  0  0  0  0  0  0  0  0
  189.2920  174.2570  141.5210 C   0  0  2  0  0  3  0  0  0  0  0  0
  187.7130  178.1190  146.9860 C   0  0  0  0  0  3  0  0  0  0  0  0
  188.8880  176.9520  145.1770 C   0  0  0  0  0  0  0  0  0  0  0  0
  187.7950  174.6120  141.3910 C   0  0  0  0  0  2  0  0  0  0  0  0
  190.3780  172.9580  143.4670 C   0  0  2  0  0  3  0  0  0  0  0  0
  186.4900  177.6260  146.5380 C   0  0  0  0  0  0  0  0  0  0  0  0
  188.8860  177.8000  146.3040 C   0  0  0  0  0  3  0  0  0  0  0  0
  187.6240  176.4590  144.7270 C   0  0  0  0  0  0  0  0  0  0  0  0
  187.4490  175.4600  143.6290 C   0  0  0  0  0  2  0  0  0  0  0  0
  190.2280  178.0430  143.4180 C   0  0  0  0  0  2  0  0  0  0  0  0
  189.9000  171.9600  141.3440 O   0  0  0  0  0  1  0  0  0  0  0  0
  190.2000  176.8400  144.3780 C   0  0  2  0  0  0  0  0  0  0  0  0
  188.9660  176.5490  141.8250 C   0  0  1  0  0  3  0  0  0  0  0  0
  190.1950  171.6440  144.2190 C   0  0  0  0  0  1  0  0  0  0  0  0
  186.7650  178.2830  141.6740 C   0  0  0  0  0  2  0  0  0  0  0  0
  189.1950  177.9760  142.3030 C   0  0  1  0  0  3  0  0  0  0  0  0
  184.1180  177.4980  146.5500 O   0  0  0  0  0  0  0  0  0  0  0  0
  184.3820  178.8770  146.5210 C   0  0  0  0  0  2  0  0  0  0  0  0
  185.2340  177.9390  147.2880 C   0  0  2  0  0  3  0  0  0  0  0  0
  190.8990  174.0250  145.9680 S   0  0  0  0  0  0  0  0  0  0  0  0
  189.3400  174.1720  146.8830 C   0  0  0  0  0  1  0  0  0  0  0  0
  191.6610  177.1010  145.4820 S   0  0  0  0  0  0  0  0  0  0  0  0
  192.9420  176.7200  144.2430 C   0  0  0  0  0  2  0  0  0  0  0  0
  194.1540  176.1360  144.9360 C   0  0  0  0  0  1  0  0  0  0  0  0
  1 28  1  1  0  0  0
  2 14  1  0  0  0  0
  3  1  1  0  0  0  0
  3 20  1  0  0  0  0
  4 13  1  0  0  0  0
  6  3  1  0  0  0  0
  7  8  1  0  0  0  0
  8 17  1  0  0  0  0
  9  6  1  0  0  0  0
  9  4  1  0  0  0  0
 11 15  2  0  0  0  0
 12  9  1  0  0  0  0
 12  8  1  0  0  0  0
 13 22  1  0  0  0  0
 13  1  1  0  0  0  0
 14 10  2  0  0  0  0
 14 27  1  0  0  0  0
 15 10  1  0  0  0  0
 16 11  1  0  0  0  0
 16  2  2  0  0  0  0
 17 16  1  0  0  0  0
 18 20  1  0  0  0  0
 19  4  1  0  0  0  0
 20 11  1  0  0  0  0
 20 30  1  0  0  0  0
 21  6  1  0  0  0  0
 21  8  1  0  0  0  0
 21 24  1  0  0  0  0
 23  7  1  0  0  0  0
 23  5  1  0  0  0  0
 24  5  1  0  0  0  0
 24 18  1  0  0  0  0
 25 27  1  0  0  0  0
 26 25  1  0  0  0  0
 26 27  1  0  0  0  0
 28 29  1  0  0  0  0
 31 32  1  0  0  0  0
 31 30  1  0  0  0  0
M  END
>  <MODEL>
6

>  <REMARK>
 VINA RESULT:      -6.3      2.648      5.462
  Name = 
  4 active torsions:
  status: ('A' for Active; 'I' for Inactive)
    1  A    between atoms: S_1  and  C_4
    2  A    between atoms: S_1  and  C_27
    3  A    between atoms: C_2  and  S_14
    4  A    between atoms: C_19  and  C_26
                            x       y       z     vdW  Elec       q    Type
                         _______ _______ _______ _____ _____    ______ ____

>  <TORSDO>
F 4

$$$$
=
 OpenBabel11052419063D

 32 38  0  0  1  0  0  0  0  0999 V2000
  195.0760  174.4500  144.2890 C   0  0  1  0  0  3  0  0  0  0  0  0
  190.7090  175.6320  144.9610 C   0  0  0  0  0  3  0  0  0  0  0  0
  194.4500  174.0780  142.9200 C   0  0  1  0  0  3  0  0  0  0  0  0
  195.3170  172.0620  145.0160 C   0  0  2  0  0  3  0  0  0  0  0  0
  190.4000  173.5790  141.9590 C   0  0  0  0  0  2  0  0  0  0  0  0
  194.0570  172.5720  142.7530 C   0  0  1  0  0  3  0  0  0  0  0  0
  190.5150  172.0270  144.0090 C   0  0  0  0  0  2  0  0  0  0  0  0
  191.9960  172.4340  144.0020 C   0  0  2  0  0  0  0  0  0  0  0  0
  194.2840  171.6430  143.9720 C   0  0  2  0  0  3  0  0  0  0  0  0
  190.8830  177.6070  143.5960 C   0  0  0  0  0  3  0  0  0  0  0  0
  192.4310  175.7420  143.2230 C   0  0  0  0  0  0  0  0  0  0  0  0
  192.9110  171.4090  144.6380 C   0  0  0  0  0  2  0  0  0  0  0  0
  196.0600  173.3580  144.7220 C   0  0  2  0  0  3  0  0  0  0  0  0
  190.2510  176.9060  144.6190 C   0  0  0  0  0  0  0  0  0  0  0  0
  191.9420  177.0250  142.9010 C   0  0  0  0  0  3  0  0  0  0  0  0
  191.7680  175.0330  144.2710 C   0  0  0  0  0  0  0  0  0  0  0  0
  192.2220  173.7200  144.8230 C   0  0  0  0  0  2  0  0  0  0  0  0
  192.6420  174.4690  141.1210 C   0  0  0  0  0  2  0  0  0  0  0  0
  196.2270  171.0180  145.2010 O   0  0  0  0  0  1  0  0  0  0  0  0
  193.4540  175.1130  142.2590 C   0  0  2  0  0  0  0  0  0  0  0  0
  192.5660  172.4260  142.5990 C   0  0  1  0  0  3  0  0  0  0  0  0
  196.8160  173.7550  145.9840 C   0  0  0  0  0  1  0  0  0  0  0  0
  189.7620  172.4010  142.7110 C   0  0  0  0  0  2  0  0  0  0  0  0
  191.8390  173.2460  141.5430 C   0  0  1  0  0  3  0  0  0  0  0  0
  188.1340  176.5870  145.6500 O   0  0  0  0  0  0  0  0  0  0  0  0
  187.8730  177.5020  144.6170 C   0  0  0  0  0  2  0  0  0  0  0  0
  189.1370  177.5410  145.3890 C   0  0  2  0  0  3  0  0  0  0  0  0
  195.9010  176.0830  144.2610 S   0  0  0  0  0  0  0  0  0  0  0  0
  194.8080  176.7360  145.5530 C   0  0  0  0  0  1  0  0  0  0  0  0
  194.4550  176.4230  141.4210 S   0  0  0  0  0  0  0  0  0  0  0  0
  195.4500  175.3080  140.3800 C   0  0  0  0  0  2  0  0  0  0  0  0
  196.9140  175.6660  140.5140 C   0  0  0  0  0  1  0  0  0  0  0  0
  1 28  1  6  0  0  0
  1 13  1  0  0  0  0
  3  1  1  0  0  0  0
  4 19  1  0  0  0  0
  5 23  1  0  0  0  0
  6  3  1  0  0  0  0
  6  9  1  0  0  0  0
  8  7  1  0  0  0  0
  8 12  1  0  0  0  0
  8 17  1  0  0  0  0
  9 12  1  0  0  0  0
  9  4  1  0  0  0  0
 10 14  2  0  0  0  0
 11 16  1  0  0  0  0
 13  4  1  0  0  0  0
 13 22  1  0  0  0  0
 14  2  1  0  0  0  0
 14 27  1  0  0  0  0
 15 11  2  0  0  0  0
 15 10  1  0  0  0  0
 16 17  1  0  0  0  0
 16  2  2  0  0  0  0
 18 24  1  0  0  0  0
 18 20  1  0  0  0  0
 20  3  1  0  0  0  0
 20 11  1  0  0  0  0
 21  6  1  0  0  0  0
 21  8  1  0  0  0  0
 23  7  1  0  0  0  0
 24  5  1  0  0  0  0
 24 21  1  0  0  0  0
 26 27  1  0  0  0  0
 26 25  1  0  0  0  0
 27 25  1  0  0  0  0
 28 29  1  0  0  0  0
 30 20  1  0  0  0  0
 31 32  1  0  0  0  0
 31 30  1  0  0  0  0
M  END
>  <MODEL>
7

>  <REMARK>
 VINA RESULT:      -6.1      2.397      4.460
  Name = 
  4 active torsions:
  status: ('A' for Active; 'I' for Inactive)
    1  A    between atoms: S_1  and  C_4
    2  A    between atoms: S_1  and  C_27
    3  A    between atoms: C_2  and  S_14
    4  A    between atoms: C_19  and  C_26
                            x       y       z     vdW  Elec       q    Type
                         _______ _______ _______ _____ _____    ______ ____

>  <TORSDO>
F 4

$$$$
=
 OpenBabel11052419063D

 32 38  0  0  1  0  0  0  0  0999 V2000
  194.0240  175.2730  142.1210 C   0  0  1  0  0  3  0  0  0  0  0  0
  190.1940  177.0890  143.8410 C   0  0  0  0  0  3  0  0  0  0  0  0
  193.6680  174.2390  143.2200 C   0  0  1  0  0  3  0  0  0  0  0  0
  195.9460  176.2360  143.4140 C   0  0  2  0  0  3  0  0  0  0  0  0
  191.0280  174.6730  146.4470 C   0  0  0  0  0  2  0  0  0  0  0  0
  194.4150  174.4280  144.5820 C   0  0  1  0  0  3  0  0  0  0  0  0
  192.4440  176.7910  146.8060 C   0  0  0  0  0  2  0  0  0  0  0  0
  193.2080  176.2630  145.5840 C   0  0  2  0  0  0  0  0  0  0  0  0
  195.3740  175.6390  144.6990 C   0  0  2  0  0  3  0  0  0  0  0  0
  188.7740  175.4600  142.7800 C   0  0  0  0  0  3  0  0  0  0  0  0
  191.1200  174.9050  143.2320 C   0  0  0  0  0  0  0  0  0  0  0  0
  194.6480  176.7270  145.5200 C   0  0  0  0  0  2  0  0  0  0  0  0
  195.5340  175.5350  142.1260 C   0  0  2  0  0  3  0  0  0  0  0  0
  188.9420  176.7220  143.3460 C   0  0  0  0  0  0  0  0  0  0  0  0
  189.8420  174.5650  142.7430 C   0  0  0  0  0  3  0  0  0  0  0  0
  191.2740  176.2010  143.8140 C   0  0  0  0  0  0  0  0  0  0  0  0
  192.5770  176.7720  144.2710 C   0  0  0  0  0  2  0  0  0  0  0  0
  191.8910  173.0560  144.6690 C   0  0  0  0  0  2  0  0  0  0  0  0
  197.3380  176.2810  143.5120 O   0  0  0  0  0  1  0  0  0  0  0  0
  192.1610  173.7750  143.3360 C   0  0  2  0  0  0  0  0  0  0  0  0
  193.4420  174.7700  145.6790 C   0  0  1  0  0  3  0  0  0  0  0  0
  195.9510  176.4260  140.9620 C   0  0  0  0  0  1  0  0  0  0  0  0
  191.4880  175.7520  147.4380 C   0  0  0  0  0  2  0  0  0  0  0  0
  192.2250  173.8830  145.9030 C   0  0  1  0  0  3  0  0  0  0  0  0
  186.7920  177.2560  142.4880 O   0  0  0  0  0  0  0  0  0  0  0  0
  187.6120  178.2940  142.0150 C   0  0  0  0  0  2  0  0  0  0  0  0
  187.8080  177.6970  143.3570 C   0  0  2  0  0  3  0  0  0  0  0  0
  193.4700  174.7480  140.4580 S   0  0  0  0  0  0  0  0  0  0  0  0
  194.7240  173.4410  140.3750 C   0  0  0  0  0  1  0  0  0  0  0  0
  191.8540  172.4820  142.0490 S   0  0  0  0  0  0  0  0  0  0  0  0
  192.3470  171.0470  143.0580 C   0  0  0  0  0  2  0  0  0  0  0  0
  193.6870  170.5330  142.5800 C   0  0  0  0  0  1  0  0  0  0  0  0
  1 28  1  6  0  0  0
  1 13  1  0  0  0  0
  1  3  1  0  0  0  0
  3 20  1  0  0  0  0
  3  6  1  0  0  0  0
  4 19  1  0  0  0  0
  4  9  1  0  0  0  0
  5 23  1  0  0  0  0
  6  9  1  0  0  0  0
  6 21  1  0  0  0  0
  7 23  1  0  0  0  0
  8 21  1  0  0  0  0
  8  7  1  0  0  0  0
  9 12  1  0  0  0  0
 10 14  1  0  0  0  0
 11 20  1  0  0  0  0
 11 16  2  0  0  0  0
 12  8  1  0  0  0  0
 13  4  1  0  0  0  0
 14 27  1  0  0  0  0
 14  2  2  0  0  0  0
 15 10  2  0  0  0  0
 15 11  1  0  0  0  0
 16  2  1  0  0  0  0
 16 17  1  0  0  0  0
 17  8  1  0  0  0  0
 18 24  1  0  0  0  0
 20 18  1  0  0  0  0
 21 24  1  0  0  0  0
 22 13  1  0  0  0  0
 24  5  1  0  0  0  0
 25 27  1  0  0  0  0
 26 25  1  0  0  0  0
 26 27  1  0  0  0  0
 29 28  1  0  0  0  0
 30 31  1  0  0  0  0
 30 20  1  0  0  0  0
 32 31  1  0  0  0  0
M  END
>  <MODEL>
8

>  <REMARK>
 VINA RESULT:      -6.0      1.442      2.001
  Name = 
  4 active torsions:
  status: ('A' for Active; 'I' for Inactive)
    1  A    between atoms: S_1  and  C_4
    2  A    between atoms: S_1  and  C_27
    3  A    between atoms: C_2  and  S_14
    4  A    between atoms: C_19  and  C_26
                            x       y       z     vdW  Elec       q    Type
                         _______ _______ _______ _____ _____    ______ ____

>  <TORSDO>
F 4

$$$$
=
 OpenBabel11052419063D

 32 38  0  0  1  0  0  0  0  0999 V2000
  190.8270  174.5530  144.4380 C   0  0  1  0  0  3  0  0  0  0  0  0
  194.0920  171.4670  145.2980 C   0  0  0  0  0  3  0  0  0  0  0  0
  191.9730  175.0670  143.5300 C   0  0  1  0  0  3  0  0  0  0  0  0
  191.0970  176.4030  146.1110 C   0  0  2  0  0  3  0  0  0  0  0  0
  196.0460  174.0850  143.6700 C   0  0  0  0  0  2  0  0  0  0  0  0
  192.8440  176.2160  144.1400 C   0  0  1  0  0  3  0  0  0  0  0  0
  195.7080  174.7260  146.1380 C   0  0  0  0  0  2  0  0  0  0  0  0
  194.2750  175.0210  145.6740 C   0  0  2  0  0  0  0  0  0  0  0  0
  192.5040  176.6700  145.5810 C   0  0  2  0  0  3  0  0  0  0  0  0
  193.8040  170.3600  143.1800 C   0  0  0  0  0  3  0  0  0  0  0  0
  193.1410  172.7090  143.4140 C   0  0  0  0  0  0  0  0  0  0  0  0
  193.5600  176.0500  146.5230 C   0  0  0  0  0  2  0  0  0  0  0  0
  190.1420  175.7380  145.1280 C   0  0  2  0  0  3  0  0  0  0  0  0
  194.2240  170.3240  144.5080 C   0  0  0  0  0  0  0  0  0  0  0  0
  193.2900  171.5380  142.6420 C   0  0  0  0  0  3  0  0  0  0  0  0
  193.5810  172.6580  144.7720 C   0  0  0  0  0  0  0  0  0  0  0  0
  193.3910  173.7600  145.7640 C   0  0  0  0  0  2  0  0  0  0  0  0
  194.0800  174.5860  142.1200 C   0  0  0  0  0  2  0  0  0  0  0  0
  190.5490  177.6000  146.5760 O   0  0  0  0  0  1  0  0  0  0  0  0
  192.7650  174.0040  142.6690 C   0  0  2  0  0  0  0  0  0  0  0  0
  194.2620  175.7540  144.3480 C   0  0  1  0  0  3  0  0  0  0  0  0
  188.9100  175.2940  145.9090 C   0  0  0  0  0  1  0  0  0  0  0  0
  196.7120  174.5380  144.9770 C   0  0  0  0  0  2  0  0  0  0  0  0
  195.0210  175.1200  143.1900 C   0  0  1  0  0  3  0  0  0  0  0  0
  195.4320  169.3300  146.2950 O   0  0  0  0  0  0  0  0  0  0  0  0
  196.2250  169.0690  145.1650 C   0  0  0  0  0  2  0  0  0  0  0  0
  194.7440  169.0520  145.0980 C   0  0  2  0  0  3  0  0  0  0  0  0
  189.6020  173.5490  143.5210 S   0  0  0  0  0  0  0  0  0  0  0  0
  189.8160  172.1370  144.6390 C   0  0  0  0  0  1  0  0  0  0  0  0
  191.7680  173.6230  141.1590 S   0  0  0  0  0  0  0  0  0  0  0  0
  193.0100  174.1550  139.9360 C   0  0  0  0  0  2  0  0  0  0  0  0
  193.1450  173.0980  138.8620 C   0  0  0  0  0  1  0  0  0  0  0  0
  1 28  1  6  0  0  0
  1 13  1  0  0  0  0
  3  6  1  0  0  0  0
  3  1  1  0  0  0  0
  4 19  1  0  0  0  0
  5 23  1  0  0  0  0
  6 21  1  0  0  0  0
  6  9  1  0  0  0  0
  8 17  1  0  0  0  0
  8  7  1  0  0  0  0
  8 12  1  0  0  0  0
  9  4  1  0  0  0  0
  9 12  1  0  0  0  0
 10 14  1  0  0  0  0
 11 16  2  0  0  0  0
 13 22  1  0  0  0  0
 13  4  1  0  0  0  0
 14 27  1  0  0  0  0
 14  2  2  0  0  0  0
 15 10  2  0  0  0  0
 15 11  1  0  0  0  0
 16  2  1  0  0  0  0
 16 17  1  0  0  0  0
 18 20  1  0  0  0  0
 18 24  1  0  0  0  0
 20 11  1  0  0  0  0
 20  3  1  0  0  0  0
 21  8  1  0  0  0  0
 23  7  1  0  0  0  0
 24  5  1  0  0  0  0
 24 21  1  0  0  0  0
 26 25  1  0  0  0  0
 27 26  1  0  0  0  0
 27 25  1  0  0  0  0
 28 29  1  0  0  0  0
 30 20  1  0  0  0  0
 31 30  1  0  0  0  0
 32 31  1  0  0  0  0
M  END
>  <MODEL>
9

>  <REMARK>
 VINA RESULT:      -6.0      2.532      6.322
  Name = 
  4 active torsions:
  status: ('A' for Active; 'I' for Inactive)
    1  A    between atoms: S_1  and  C_4
    2  A    between atoms: S_1  and  C_27
    3  A    between atoms: C_2  and  S_14
    4  A    between atoms: C_19  and  C_26
                            x       y       z     vdW  Elec       q    Type
                         _______ _______ _______ _____ _____    ______ ____

>  <TORSDO>
F 4

$$$$
