=
 OpenBabel11052421263D

 32 38  0  0  1  0  0  0  0  0999 V2000
  186.8870  176.4290  138.8240 O   0  0  0  0  0  0  0  0  0  0  0  0
  187.8950  176.5240  143.3770 C   0  0  0  0  0  0  0  0  0  0  0  0
  184.5320  178.8660  146.0900 C   0  0  0  0  0  3  0  0  0  0  0  0
  185.1940  178.5260  147.2060 C   0  0  0  0  0  3  0  0  0  0  0  0
  189.9080  175.5970  144.7800 C   0  0  2  0  0  3  0  0  0  0  0  0
  191.1500  176.2670  144.1280 C   0  0  2  0  0  3  0  0  0  0  0  0
  187.3880  176.0370  140.9920 C   0  0  1  0  0  3  0  0  0  0  0  0
  185.7950  177.4000  142.1870 C   0  0  0  0  0  2  0  0  0  0  0  0
  191.1560  175.9560  147.0940 C   0  0  2  0  0  3  0  0  0  0  0  0
  186.0420  177.2210  139.6410 C   0  0  0  0  0  2  0  0  0  0  0  0
  184.6660  178.0450  144.8320 C   0  0  0  0  0  2  0  0  0  0  0  0
  186.6100  177.1550  143.4490 C   0  0  0  0  0  0  0  0  0  0  0  0
  186.0490  177.4540  144.7120 C   0  0  0  0  0  0  0  0  0  0  0  0
  188.0010  176.5160  145.7860 C   0  0  0  0  0  0  0  0  0  0  0  0
  192.4000  176.0980  146.2450 C   0  0  0  0  0  2  0  0  0  0  0  0
  186.7030  177.3330  140.9730 C   0  0  2  0  0  3  0  0  0  0  0  0
  192.0620  177.0070  145.0900 C   0  0  0  0  0  2  0  0  0  0  0  0
  187.8550  175.8810  139.6330 N   0  0  0  0  0  0  0  0  0  0  0  0
  186.0920  177.3170  147.2330 C   0  0  0  0  0  2  0  0  0  0  0  0
  186.7430  177.1090  145.8930 C   0  0  0  0  0  0  0  0  0  0  0  0
  188.7430  175.9810  146.8630 N   0  0  0  0  0  2  0  0  0  0  0  0
  188.4870  176.1030  142.0420 C   0  0  0  0  0  2  0  0  0  0  0  0
  190.8330  177.1000  143.0740 F   0  0  0  0  0  0  0  0  0  0  0  0
  191.4600  175.0990  148.3060 C   0  0  0  0  0  1  0  0  0  0  0  0
  188.5990  176.3010  144.5720 C   0  0  0  0  0  0  0  0  0  0  0  0
  189.9600  175.3740  146.3310 C   0  0  1  0  0  3  0  0  0  0  0  0
  187.8870  174.4530  139.3500 C   0  0  0  0  0  2  0  0  0  0  0  0
  189.3030  173.9150  139.5010 C   0  0  0  0  0  2  0  0  0  0  0  0
  189.3200  172.6020  140.2710 C   0  0  0  0  0  2  0  0  0  0  0  0
  189.8860  172.8110  141.6640 C   0  0  0  0  0  3  0  0  0  0  0  0
  189.9610  171.4730  142.3720 C   0  0  0  0  0  2  0  0  0  0  0  0
  188.8320  172.4320  142.6840 C   0  0  0  0  0  2  0  0  0  0  0  0
  1 18  1  0  0  0  0
  1 10  1  0  0  0  0
  2 12  2  0  0  0  0
  2 25  1  0  0  0  0
  3  4  2  0  0  0  0
  4 19  1  0  0  0  0
  5 25  1  1  0  0  0
  5 26  1  0  0  0  0
  6 23  1  6  0  0  0
  6  5  1  0  0  0  0
  6 17  1  0  0  0  0
  7 22  1  1  0  0  0
  8 12  1  0  0  0  0
  9 24  1  1  0  0  0
 11  3  1  0  0  0  0
 12 13  1  0  0  0  0
 13 11  1  0  0  0  0
 13 20  2  0  0  0  0
 14 20  1  0  0  0  0
 14 21  1  0  0  0  0
 15  9  1  0  0  0  0
 16 10  1  6  0  0  0
 16  7  1  0  0  0  0
 16  8  1  0  0  0  0
 17 15  1  0  0  0  0
 18  7  1  0  0  0  0
 20 19  1  0  0  0  0
 22  2  1  0  0  0  0
 25 14  2  0  0  0  0
 26 21  1  1  0  0  0
 26  9  1  0  0  0  0
 27 28  1  0  0  0  0
 27 18  1  0  0  0  0
 28 29  1  0  0  0  0
 29 30  1  0  0  0  0
 30 31  1  0  0  0  0
 30 32  1  0  0  0  0
 31 32  1  0  0  0  0
M  END
>  <MODEL>
1

>  <REMARK>
 VINA RESULT:      -7.9      0.000      0.000
  Name = 
  4 active torsions:
  status: ('A' for Active; 'I' for Inactive)
    1  A    between atoms: C_1  and  C_10
    2  A    between atoms: C_10  and  C_19
    3  A    between atoms: C_19  and  C_24
    4  A    between atoms: N_23  and  C_24
                            x       y       z     vdW  Elec       q    Type
                         _______ _______ _______ _____ _____    ______ ____

>  <TORSDO>
F 4

$$$$
=
 OpenBabel11052421263D

 32 38  0  0  1  0  0  0  0  0999 V2000
  192.2670  176.8200  148.0790 O   0  0  0  0  0  0  0  0  0  0  0  0
  189.5710  175.9180  144.3810 C   0  0  0  0  0  0  0  0  0  0  0  0
  185.1550  178.0650  144.5910 C   0  0  0  0  0  3  0  0  0  0  0  0
  184.8760  177.6140  143.3590 C   0  0  0  0  0  3  0  0  0  0  0  0
  189.9300  174.4770  142.2180 C   0  0  2  0  0  3  0  0  0  0  0  0
  190.2590  173.0610  142.7700 C   0  0  2  0  0  3  0  0  0  0  0  0
  191.2960  176.5500  146.0560 C   0  0  1  0  0  3  0  0  0  0  0  0
  189.0840  177.4620  146.3730 C   0  0  0  0  0  2  0  0  0  0  0  0
  188.5660  173.2200  140.3200 C   0  0  2  0  0  3  0  0  0  0  0  0
  190.9270  177.2780  148.1470 C   0  0  0  0  0  2  0  0  0  0  0  0
  186.5830  178.2630  145.0370 C   0  0  0  0  0  2  0  0  0  0  0  0
  188.6910  176.8350  145.0440 C   0  0  0  0  0  0  0  0  0  0  0  0
  187.4960  177.2400  144.4060 C   0  0  0  0  0  0  0  0  0  0  0  0
  188.0560  175.8550  142.5060 C   0  0  0  0  0  0  0  0  0  0  0  0
  189.3940  172.0170  140.7140 C   0  0  0  0  0  2  0  0  0  0  0  0
  190.1910  176.6460  147.0150 C   0  0  2  0  0  3  0  0  0  0  0  0
  189.3980  171.9400  142.2200 C   0  0  0  0  0  2  0  0  0  0  0  0
  192.4240  176.1710  146.8770 N   0  0  0  0  0  0  0  0  0  0  0  0
  185.9790  177.2880  142.3880 C   0  0  0  0  0  2  0  0  0  0  0  0
  187.1880  176.7630  143.1130 C   0  0  0  0  0  0  0  0  0  0  0  0
  187.9620  175.4090  141.1680 N   0  0  0  0  0  2  0  0  0  0  0  0
  190.9070  175.5340  144.9930 C   0  0  0  0  0  2  0  0  0  0  0  0
  190.2580  172.9980  144.1490 F   0  0  0  0  0  0  0  0  0  0  0  0
  188.4780  173.3080  138.8100 C   0  0  0  0  0  1  0  0  0  0  0  0
  189.1720  175.3820  143.1450 C   0  0  0  0  0  0  0  0  0  0  0  0
  189.1020  174.5410  140.8880 C   0  0  1  0  0  3  0  0  0  0  0  0
  193.6170  176.7220  146.2490 C   0  0  0  0  0  2  0  0  0  0  0  0
  194.6970  175.6540  146.1380 C   0  0  0  0  0  2  0  0  0  0  0  0
  194.6980  175.0070  144.7600 C   0  0  0  0  0  2  0  0  0  0  0  0
  194.7810  173.4970  144.8830 C   0  0  0  0  0  3  0  0  0  0  0  0
  193.7960  172.8680  143.9180 C   0  0  0  0  0  2  0  0  0  0  0  0
  193.4530  172.9720  145.3880 C   0  0  0  0  0  2  0  0  0  0  0  0
  1 10  1  0  0  0  0
  2 22  1  0  0  0  0
  2 12  1  0  0  0  0
  3 11  1  0  0  0  0
  4  3  2  0  0  0  0
  5  6  1  0  0  0  0
  5 25  1  1  0  0  0
  6 23  1  1  0  0  0
  7 22  1  6  0  0  0
  7 18  1  0  0  0  0
  7 16  1  0  0  0  0
  9 24  1  6  0  0  0
  9 15  1  0  0  0  0
  9 26  1  0  0  0  0
 12  8  1  0  0  0  0
 13 11  1  0  0  0  0
 13 12  2  0  0  0  0
 14 20  2  0  0  0  0
 14 25  1  0  0  0  0
 15 17  1  0  0  0  0
 16  8  1  6  0  0  0
 16 10  1  0  0  0  0
 17  6  1  0  0  0  0
 18  1  1  0  0  0  0
 19 20  1  0  0  0  0
 19  4  1  0  0  0  0
 20 13  1  0  0  0  0
 21 14  1  0  0  0  0
 25  2  2  0  0  0  0
 26 21  1  1  0  0  0
 26  5  1  0  0  0  0
 27 18  1  0  0  0  0
 28 27  1  0  0  0  0
 29 30  1  0  0  0  0
 29 28  1  0  0  0  0
 30 32  1  0  0  0  0
 31 30  1  0  0  0  0
 31 32  1  0  0  0  0
M  END
>  <MODEL>
2

>  <REMARK>
 VINA RESULT:      -7.8      2.728      6.027
  Name = 
  4 active torsions:
  status: ('A' for Active; 'I' for Inactive)
    1  A    between atoms: C_1  and  C_10
    2  A    between atoms: C_10  and  C_19
    3  A    between atoms: C_19  and  C_24
    4  A    between atoms: N_23  and  C_24
                            x       y       z     vdW  Elec       q    Type
                         _______ _______ _______ _____ _____    ______ ____

>  <TORSDO>
F 4

$$$$
=
 OpenBabel11052421263D

 32 38  0  0  1  0  0  0  0  0999 V2000
  192.4410  175.8570  147.5690 O   0  0  0  0  0  0  0  0  0  0  0  0
  188.9430  176.8700  144.6540 C   0  0  0  0  0  0  0  0  0  0  0  0
  184.8660  178.4070  146.9260 C   0  0  0  0  0  3  0  0  0  0  0  0
  184.2910  178.6420  145.7380 C   0  0  0  0  0  3  0  0  0  0  0  0
  188.7080  176.7650  142.0430 C   0  0  2  0  0  3  0  0  0  0  0  0
  189.0330  175.2830  141.7040 C   0  0  2  0  0  3  0  0  0  0  0  0
  191.0360  176.6240  145.9740 C   0  0  1  0  0  3  0  0  0  0  0  0
  189.0270  177.1460  147.2050 C   0  0  0  0  0  2  0  0  0  0  0  0
  186.8680  176.6060  140.1370 C   0  0  2  0  0  3  0  0  0  0  0  0
  191.1890  176.1550  148.1640 C   0  0  0  0  0  2  0  0  0  0  0  0
  186.3670  178.4090  147.0730 C   0  0  0  0  0  2  0  0  0  0  0  0
  188.3050  177.2750  145.8710 C   0  0  0  0  0  0  0  0  0  0  0  0
  187.0370  177.8980  145.8210 C   0  0  0  0  0  0  0  0  0  0  0  0
  187.0580  177.7150  143.4110 C   0  0  0  0  0  0  0  0  0  0  0  0
  187.6610  175.4090  139.6620 C   0  0  0  0  0  2  0  0  0  0  0  0
  190.1760  176.1640  147.0690 C   0  0  2  0  0  3  0  0  0  0  0  0
  187.9860  174.5680  140.8710 C   0  0  0  0  0  2  0  0  0  0  0  0
  192.2800  175.9260  146.2050 N   0  0  0  0  0  0  0  0  0  0  0  0
  185.1270  178.9120  144.5150 C   0  0  0  0  0  2  0  0  0  0  0  0
  186.4180  178.1410  144.5740 C   0  0  0  0  0  0  0  0  0  0  0  0
  186.6410  178.0180  142.0950 N   0  0  0  0  0  2  0  0  0  0  0  0
  190.3450  176.2840  144.6620 C   0  0  0  0  0  2  0  0  0  0  0  0
  189.3260  174.5190  142.8150 F   0  0  0  0  0  0  0  0  0  0  0  0
  186.4620  177.4540  138.9490 C   0  0  0  0  0  1  0  0  0  0  0  0
  188.2440  177.0290  143.4450 C   0  0  0  0  0  0  0  0  0  0  0  0
  187.6190  177.4680  141.1600 C   0  0  1  0  0  3  0  0  0  0  0  0
  193.3500  176.7730  145.6940 C   0  0  0  0  0  2  0  0  0  0  0  0
  194.7070  176.1720  146.0320 C   0  0  0  0  0  2  0  0  0  0  0  0
  194.8920  174.8130  145.3730 C   0  0  0  0  0  2  0  0  0  0  0  0
  196.3670  174.5250  145.1550 C   0  0  0  0  0  3  0  0  0  0  0  0
  196.5410  173.0510  144.8470 C   0  0  0  0  0  2  0  0  0  0  0  0
  196.8460  173.5750  146.2330 C   0  0  0  0  0  2  0  0  0  0  0  0
  1 10  1  0  0  0  0
  2 22  1  0  0  0  0
  2 12  1  0  0  0  0
  3 11  1  0  0  0  0
  4  3  2  0  0  0  0
  5 25  1  1  0  0  0
  6  5  1  0  0  0  0
  6 23  1  1  0  0  0
  7 22  1  6  0  0  0
  7 18  1  0  0  0  0
  7 16  1  0  0  0  0
  9 24  1  6  0  0  0
  9 26  1  0  0  0  0
 12  8  1  0  0  0  0
 13 12  2  0  0  0  0
 13 11  1  0  0  0  0
 14 25  1  0  0  0  0
 14 20  2  0  0  0  0
 15  9  1  0  0  0  0
 15 17  1  0  0  0  0
 16  8  1  1  0  0  0
 16 10  1  0  0  0  0
 17  6  1  0  0  0  0
 18  1  1  0  0  0  0
 19 20  1  0  0  0  0
 19  4  1  0  0  0  0
 20 13  1  0  0  0  0
 21 14  1  0  0  0  0
 25  2  2  0  0  0  0
 26  5  1  0  0  0  0
 26 21  1  1  0  0  0
 27 28  1  0  0  0  0
 27 18  1  0  0  0  0
 29 28  1  0  0  0  0
 30 29  1  0  0  0  0
 30 32  1  0  0  0  0
 31 30  1  0  0  0  0
 31 32  1  0  0  0  0
M  END
>  <MODEL>
3

>  <REMARK>
 VINA RESULT:      -7.7      2.814      6.244
  Name = 
  4 active torsions:
  status: ('A' for Active; 'I' for Inactive)
    1  A    between atoms: C_1  and  C_10
    2  A    between atoms: C_10  and  C_19
    3  A    between atoms: C_19  and  C_24
    4  A    between atoms: N_23  and  C_24
                            x       y       z     vdW  Elec       q    Type
                         _______ _______ _______ _____ _____    ______ ____

>  <TORSDO>
F 4

$$$$
=
 OpenBabel11052421263D

 32 38  0  0  1  0  0  0  0  0999 V2000
  186.4200  177.0180  138.9280 O   0  0  0  0  0  0  0  0  0  0  0  0
  187.6900  176.8980  143.4150 C   0  0  0  0  0  0  0  0  0  0  0  0
  184.4600  179.0400  146.4360 C   0  0  0  0  0  3  0  0  0  0  0  0
  185.1900  178.6550  147.4920 C   0  0  0  0  0  3  0  0  0  0  0  0
  189.7950  175.9340  144.6490 C   0  0  2  0  0  3  0  0  0  0  0  0
  190.9880  176.6580  143.9630 C   0  0  2  0  0  3  0  0  0  0  0  0
  187.0520  176.5240  141.0410 C   0  0  1  0  0  3  0  0  0  0  0  0
  185.5130  177.7970  142.3950 C   0  0  0  0  0  2  0  0  0  0  0  0
  191.1710  176.1960  146.9030 C   0  0  2  0  0  3  0  0  0  0  0  0
  185.6130  177.7530  139.8330 C   0  0  0  0  0  2  0  0  0  0  0  0
  184.5310  178.2870  145.1310 C   0  0  0  0  0  2  0  0  0  0  0  0
  186.4030  177.5020  143.5940 C   0  0  0  0  0  0  0  0  0  0  0  0
  185.9130  177.7260  144.9010 C   0  0  0  0  0  0  0  0  0  0  0  0
  187.9370  176.7680  145.8100 C   0  0  0  0  0  0  0  0  0  0  0  0
  192.3610  176.4020  145.9920 C   0  0  0  0  0  2  0  0  0  0  0  0
  186.3490  177.8080  141.1290 C   0  0  2  0  0  3  0  0  0  0  0  0
  191.9430  177.3630  144.9070 C   0  0  0  0  0  2  0  0  0  0  0  0
  187.4410  176.4460  139.6510 N   0  0  0  0  0  0  0  0  0  0  0  0
  186.1050  177.4620  147.4050 C   0  0  0  0  0  2  0  0  0  0  0  0
  186.6790  177.3330  146.0200 C   0  0  0  0  0  0  0  0  0  0  0  0
  188.7490  176.1920  146.8130 N   0  0  0  0  0  2  0  0  0  0  0  0
  188.2090  176.5550  142.0280 C   0  0  0  0  0  2  0  0  0  0  0  0
  190.5970  177.5380  142.9730 F   0  0  0  0  0  0  0  0  0  0  0  0
  191.5570  175.2840  148.0490 C   0  0  0  0  0  1  0  0  0  0  0  0
  188.4670  176.6250  144.5540 C   0  0  0  0  0  0  0  0  0  0  0  0
  189.9400  175.6330  146.1810 C   0  0  1  0  0  3  0  0  0  0  0  0
  187.4760  175.0350  139.2930 C   0  0  0  0  0  2  0  0  0  0  0  0
  187.7570  174.8740  137.8050 C   0  0  0  0  0  2  0  0  0  0  0  0
  188.7660  173.7630  137.5480 C   0  0  0  0  0  2  0  0  0  0  0  0
  189.5530  173.4580  138.8090 C   0  0  0  0  0  3  0  0  0  0  0  0
  190.9180  172.9230  138.4210 C   0  0  0  0  0  2  0  0  0  0  0  0
  189.8300  171.9700  138.8680 C   0  0  0  0  0  2  0  0  0  0  0  0
  1 18  1  0  0  0  0
  1 10  1  0  0  0  0
  2 12  2  0  0  0  0
  2 25  1  0  0  0  0
  3  4  2  0  0  0  0
  5 25  1  1  0  0  0
  5 26  1  0  0  0  0
  6 23  1  6  0  0  0
  6  5  1  0  0  0  0
  6 17  1  0  0  0  0
  7 16  1  0  0  0  0
  7 22  1  1  0  0  0
  8 12  1  0  0  0  0
  9 24  1  1  0  0  0
 11  3  1  0  0  0  0
 12 13  1  0  0  0  0
 13 11  1  0  0  0  0
 13 20  2  0  0  0  0
 14 20  1  0  0  0  0
 14 21  1  0  0  0  0
 15  9  1  0  0  0  0
 16 10  1  6  0  0  0
 16  8  1  0  0  0  0
 17 15  1  0  0  0  0
 18  7  1  0  0  0  0
 19  4  1  0  0  0  0
 20 19  1  0  0  0  0
 22  2  1  0  0  0  0
 25 14  2  0  0  0  0
 26 21  1  1  0  0  0
 26  9  1  0  0  0  0
 27 18  1  0  0  0  0
 28 27  1  0  0  0  0
 29 28  1  0  0  0  0
 29 30  1  0  0  0  0
 30 32  1  0  0  0  0
 31 30  1  0  0  0  0
 31 32  1  0  0  0  0
M  END
>  <MODEL>
4

>  <REMARK>
 VINA RESULT:      -7.4      1.200      1.416
  Name = 
  4 active torsions:
  status: ('A' for Active; 'I' for Inactive)
    1  A    between atoms: C_1  and  C_10
    2  A    between atoms: C_10  and  C_19
    3  A    between atoms: C_19  and  C_24
    4  A    between atoms: N_23  and  C_24
                            x       y       z     vdW  Elec       q    Type
                         _______ _______ _______ _____ _____    ______ ____

>  <TORSDO>
F 4

$$$$
=
 OpenBabel11052421263D

 32 38  0  0  1  0  0  0  0  0999 V2000
  187.7170  178.3710  147.6340 O   0  0  0  0  0  0  0  0  0  0  0  0
  190.1030  175.2260  145.1490 C   0  0  0  0  0  0  0  0  0  0  0  0
  194.9200  175.1920  146.1190 C   0  0  0  0  0  3  0  0  0  0  0  0
  195.0790  174.1390  145.3030 C   0  0  0  0  0  3  0  0  0  0  0  0
  189.3930  173.4840  143.3200 C   0  0  2  0  0  3  0  0  0  0  0  0
  188.7110  174.3550  142.2280 C   0  0  2  0  0  3  0  0  0  0  0  0
  188.5930  176.5580  146.6070 C   0  0  1  0  0  3  0  0  0  0  0  0
  190.9630  176.7870  146.9970 C   0  0  0  0  0  2  0  0  0  0  0  0
  190.3950  172.0720  141.3090 C   0  0  2  0  0  3  0  0  0  0  0  0
  189.1300  178.4140  147.7490 C   0  0  0  0  0  2  0  0  0  0  0  0
  193.5900  175.4700  146.7720 C   0  0  0  0  0  2  0  0  0  0  0  0
  191.1870  175.6930  145.9620 C   0  0  0  0  0  0  0  0  0  0  0  0
  192.4470  175.0590  145.8770 C   0  0  0  0  0  0  0  0  0  0  0  0
  191.5570  173.5420  144.2200 C   0  0  0  0  0  0  0  0  0  0  0  0
  189.2860  172.7000  140.4960 C   0  0  0  0  0  2  0  0  0  0  0  0
  189.6820  177.5370  146.6780 C   0  0  2  0  0  3  0  0  0  0  0  0
  189.2570  174.1720  140.8240 C   0  0  0  0  0  2  0  0  0  0  0  0
  187.4030  177.3670  146.7480 N   0  0  0  0  0  0  0  0  0  0  0  0
  193.9310  173.2080  145.0130 C   0  0  0  0  0  2  0  0  0  0  0  0
  192.6260  173.9560  145.0130 C   0  0  0  0  0  0  0  0  0  0  0  0
  191.5370  172.3720  143.4260 N   0  0  0  0  0  2  0  0  0  0  0  0
  188.7110  175.8200  145.2810 C   0  0  0  0  0  2  0  0  0  0  0  0
  188.6910  175.7010  142.5340 F   0  0  0  0  0  0  0  0  0  0  0  0
  190.5070  170.6000  140.9690 C   0  0  0  0  0  1  0  0  0  0  0  0
  190.3550  174.2000  144.2220 C   0  0  0  0  0  0  0  0  0  0  0  0
  190.2140  172.2440  142.8230 C   0  0  1  0  0  3  0  0  0  0  0  0
  186.3920  176.5370  147.3890 C   0  0  0  0  0  2  0  0  0  0  0  0
  185.0360  176.7530  146.7330 C   0  0  0  0  0  2  0  0  0  0  0  0
  185.1820  177.3370  145.3350 C   0  0  0  0  0  2  0  0  0  0  0  0
  184.4840  178.6820  145.2450 C   0  0  0  0  0  3  0  0  0  0  0  0
  184.2720  179.0330  143.7860 C   0  0  0  0  0  2  0  0  0  0  0  0
  185.4060  179.6690  144.5600 C   0  0  0  0  0  2  0  0  0  0  0  0
  1 10  1  0  0  0  0
  2 22  1  0  0  0  0
  2 12  1  0  0  0  0
  3 11  1  0  0  0  0
  4  3  2  0  0  0  0
  5 25  1  6  0  0  0
  6 23  1  1  0  0  0
  6  5  1  0  0  0  0
  7 22  1  6  0  0  0
  7 16  1  0  0  0  0
  7 18  1  0  0  0  0
  9 24  1  1  0  0  0
  9 26  1  0  0  0  0
 12  8  1  0  0  0  0
 13 12  2  0  0  0  0
 13 11  1  0  0  0  0
 14 25  1  0  0  0  0
 14 20  2  0  0  0  0
 15 17  1  0  0  0  0
 15  9  1  0  0  0  0
 16  8  1  1  0  0  0
 16 10  1  0  0  0  0
 17  6  1  0  0  0  0
 18 27  1  0  0  0  0
 18  1  1  0  0  0  0
 19 20  1  0  0  0  0
 19  4  1  0  0  0  0
 20 13  1  0  0  0  0
 21 14  1  0  0  0  0
 25  2  2  0  0  0  0
 26  5  1  0  0  0  0
 26 21  1  1  0  0  0
 28 27  1  0  0  0  0
 29 28  1  0  0  0  0
 30 29  1  0  0  0  0
 31 32  1  0  0  0  0
 31 30  1  0  0  0  0
 32 30  1  0  0  0  0
M  END
>  <MODEL>
5

>  <REMARK>
 VINA RESULT:      -7.3      2.689      7.227
  Name = 
  4 active torsions:
  status: ('A' for Active; 'I' for Inactive)
    1  A    between atoms: C_1  and  C_10
    2  A    between atoms: C_10  and  C_19
    3  A    between atoms: C_19  and  C_24
    4  A    between atoms: N_23  and  C_24
                            x       y       z     vdW  Elec       q    Type
                         _______ _______ _______ _____ _____    ______ ____

>  <TORSDO>
F 4

$$$$
=
 OpenBabel11052421263D

 32 38  0  0  1  0  0  0  0  0999 V2000
  187.4270  177.8940  142.0480 O   0  0  0  0  0  0  0  0  0  0  0  0
  190.6170  174.7350  143.3120 C   0  0  0  0  0  0  0  0  0  0  0  0
  194.6080  176.6940  145.4060 C   0  0  0  0  0  3  0  0  0  0  0  0
  195.0860  175.4640  145.6480 C   0  0  0  0  0  3  0  0  0  0  0  0
  190.7190  172.1210  143.1100 C   0  0  2  0  0  3  0  0  0  0  0  0
  190.5490  171.8620  141.5870 C   0  0  2  0  0  3  0  0  0  0  0  0
  188.6430  176.1870  142.8930 C   0  0  1  0  0  3  0  0  0  0  0  0
  190.6430  177.2730  143.6960 C   0  0  0  0  0  2  0  0  0  0  0  0
  192.4570  170.1160  143.0710 C   0  0  2  0  0  3  0  0  0  0  0  0
  188.6670  178.4000  142.5140 C   0  0  0  0  0  2  0  0  0  0  0  0
  193.1270  176.9300  145.2450 C   0  0  0  0  0  2  0  0  0  0  0  0
  191.2710  175.8940  143.8430 C   0  0  0  0  0  0  0  0  0  0  0  0
  192.4540  175.7420  144.6030 C   0  0  0  0  0  0  0  0  0  0  0  0
  192.3210  173.3470  144.3040 C   0  0  0  0  0  0  0  0  0  0  0  0
  191.7830  169.7380  141.7710 C   0  0  0  0  0  2  0  0  0  0  0  0
  189.6090  177.2470  142.5850 C   0  0  2  0  0  3  0  0  0  0  0  0
  191.6250  170.9980  140.9560 C   0  0  0  0  0  2  0  0  0  0  0  0
  187.5030  176.5210  142.0700 N   0  0  0  0  0  0  0  0  0  0  0  0
  194.1580  174.2840  145.7630 C   0  0  0  0  0  2  0  0  0  0  0  0
  192.9700  174.4520  144.8550 C   0  0  0  0  0  0  0  0  0  0  0  0
  192.6270  171.9970  144.5900 N   0  0  0  0  0  2  0  0  0  0  0  0
  189.2950  174.8510  142.5720 C   0  0  0  0  0  2  0  0  0  0  0  0
  190.4080  173.0200  140.8480 F   0  0  0  0  0  0  0  0  0  0  0  0
  192.6960  168.8720  143.9030 C   0  0  0  0  0  1  0  0  0  0  0  0
  191.2260  173.4810  143.4920 C   0  0  0  0  0  0  0  0  0  0  0  0
  191.6700  171.1460  143.8890 C   0  0  1  0  0  3  0  0  0  0  0  0
  186.3160  176.0420  142.7660 C   0  0  0  0  0  2  0  0  0  0  0  0
  185.7120  177.1550  143.6110 C   0  0  0  0  0  2  0  0  0  0  0  0
  185.7560  176.8130  145.0940 C   0  0  0  0  0  2  0  0  0  0  0  0
  186.9390  177.4910  145.7600 C   0  0  0  0  0  3  0  0  0  0  0  0
  187.7480  176.4510  146.5080 C   0  0  0  0  0  2  0  0  0  0  0  0
  186.8000  177.3580  147.2620 C   0  0  0  0  0  2  0  0  0  0  0  0
  1 18  1  0  0  0  0
  1 10  1  0  0  0  0
  2 25  2  0  0  0  0
  2 12  1  0  0  0  0
  3  4  2  0  0  0  0
  4 19  1  0  0  0  0
  5 25  1  6  0  0  0
  5 26  1  0  0  0  0
  6 23  1  6  0  0  0
  6  5  1  0  0  0  0
  7 22  1  6  0  0  0
  8 12  1  0  0  0  0
  9 26  1  0  0  0  0
  9 24  1  1  0  0  0
 11  3  1  0  0  0  0
 12 13  2  0  0  0  0
 13 20  1  0  0  0  0
 13 11  1  0  0  0  0
 14 21  1  0  0  0  0
 14 20  2  0  0  0  0
 15  9  1  0  0  0  0
 16 10  1  1  0  0  0
 16  7  1  0  0  0  0
 16  8  1  0  0  0  0
 17  6  1  0  0  0  0
 17 15  1  0  0  0  0
 18 27  1  0  0  0  0
 18  7  1  0  0  0  0
 20 19  1  0  0  0  0
 22  2  1  0  0  0  0
 25 14  1  0  0  0  0
 26 21  1  6  0  0  0
 27 28  1  0  0  0  0
 28 29  1  0  0  0  0
 29 30  1  0  0  0  0
 30 31  1  0  0  0  0
 30 32  1  0  0  0  0
 31 32  1  0  0  0  0
M  END
>  <MODEL>
6

>  <REMARK>
 VINA RESULT:      -7.0      2.416      6.186
  Name = 
  4 active torsions:
  status: ('A' for Active; 'I' for Inactive)
    1  A    between atoms: C_1  and  C_10
    2  A    between atoms: C_10  and  C_19
    3  A    between atoms: C_19  and  C_24
    4  A    between atoms: N_23  and  C_24
                            x       y       z     vdW  Elec       q    Type
                         _______ _______ _______ _____ _____    ______ ____

>  <TORSDO>
F 4

$$$$
=
 OpenBabel11052421263D

 32 38  0  0  1  0  0  0  0  0999 V2000
  189.4600  172.0550  140.1190 O   0  0  0  0  0  0  0  0  0  0  0  0
  189.3920  175.0270  143.7130 C   0  0  0  0  0  0  0  0  0  0  0  0
  185.7360  178.3040  143.4910 C   0  0  0  0  0  3  0  0  0  0  0  0
  186.0860  178.7780  144.6960 C   0  0  0  0  0  3  0  0  0  0  0  0
  190.9270  175.3160  145.8210 C   0  0  2  0  0  3  0  0  0  0  0  0
  192.3450  175.5220  145.2180 C   0  0  2  0  0  3  0  0  0  0  0  0
  189.4060  173.1310  142.1060 C   0  0  1  0  0  3  0  0  0  0  0  0
  187.7190  174.8250  141.7760 C   0  0  0  0  0  2  0  0  0  0  0  0
  191.6350  177.1210  147.6330 C   0  0  2  0  0  3  0  0  0  0  0  0
  188.5300  173.1220  140.0390 C   0  0  0  0  0  2  0  0  0  0  0  0
  186.0770  176.8910  143.0870 C   0  0  0  0  0  2  0  0  0  0  0  0
  188.1920  175.4750  143.0680 C   0  0  0  0  0  0  0  0  0  0  0  0
  187.3860  176.4530  143.6950 C   0  0  0  0  0  0  0  0  0  0  0  0
  188.9370  176.5240  145.5480 C   0  0  0  0  0  0  0  0  0  0  0  0
  193.0480  176.7910  147.2080 C   0  0  0  0  0  2  0  0  0  0  0  0
  188.8730  174.0830  141.1260 C   0  0  2  0  0  3  0  0  0  0  0  0
  193.0760  176.7600  145.7010 C   0  0  0  0  0  2  0  0  0  0  0  0
  190.1570  172.1980  141.2960 N   0  0  0  0  0  0  0  0  0  0  0  0
  186.8320  177.9140  145.6780 C   0  0  0  0  0  2  0  0  0  0  0  0
  187.7520  176.9650  144.9590 C   0  0  0  0  0  0  0  0  0  0  0  0
  189.3550  176.8280  146.8630 N   0  0  0  0  0  2  0  0  0  0  0  0
  190.2330  173.9110  143.1160 C   0  0  0  0  0  2  0  0  0  0  0  0
  192.3620  175.4950  143.8380 F   0  0  0  0  0  0  0  0  0  0  0  0
  191.5660  177.2260  149.1430 C   0  0  0  0  0  1  0  0  0  0  0  0
  189.7760  175.6450  144.9160 C   0  0  0  0  0  0  0  0  0  0  0  0
  190.5960  176.1090  147.1330 C   0  0  1  0  0  3  0  0  0  0  0  0
  190.1150  170.9090  141.9730 C   0  0  0  0  0  2  0  0  0  0  0  0
  191.4550  170.1990  141.8420 C   0  0  0  0  0  2  0  0  0  0  0  0
  192.5740  170.9980  142.4950 C   0  0  0  0  0  2  0  0  0  0  0  0
  192.5170  170.8560  144.0050 C   0  0  0  0  0  3  0  0  0  0  0  0
  193.1370  172.0840  144.6400 C   0  0  0  0  0  2  0  0  0  0  0  0
  193.9300  170.7990  144.5460 C   0  0  0  0  0  2  0  0  0  0  0  0
  1 18  1  0  0  0  0
  2 25  1  0  0  0  0
  3  4  2  0  0  0  0
  4 19  1  0  0  0  0
  5 25  1  6  0  0  0
  5 26  1  0  0  0  0
  6 23  1  6  0  0  0
  6 17  1  0  0  0  0
  6  5  1  0  0  0  0
  7 22  1  1  0  0  0
  8 12  1  0  0  0  0
  9 24  1  1  0  0  0
 10  1  1  0  0  0  0
 11  3  1  0  0  0  0
 11 13  1  0  0  0  0
 12 13  1  0  0  0  0
 12  2  2  0  0  0  0
 13 20  2  0  0  0  0
 14 21  1  0  0  0  0
 15  9  1  0  0  0  0
 16 10  1  6  0  0  0
 16  8  1  0  0  0  0
 16  7  1  0  0  0  0
 17 15  1  0  0  0  0
 18 27  1  0  0  0  0
 18  7  1  0  0  0  0
 20 14  1  0  0  0  0
 20 19  1  0  0  0  0
 22  2  1  0  0  0  0
 25 14  2  0  0  0  0
 26 21  1  6  0  0  0
 26  9  1  0  0  0  0
 28 27  1  0  0  0  0
 28 29  1  0  0  0  0
 29 30  1  0  0  0  0
 30 32  1  0  0  0  0
 30 31  1  0  0  0  0
 32 31  1  0  0  0  0
M  END
>  <MODEL>
7

>  <REMARK>
 VINA RESULT:      -7.0      2.142      3.158
  Name = 
  4 active torsions:
  status: ('A' for Active; 'I' for Inactive)
    1  A    between atoms: C_1  and  C_10
    2  A    between atoms: C_10  and  C_19
    3  A    between atoms: C_19  and  C_24
    4  A    between atoms: N_23  and  C_24
                            x       y       z     vdW  Elec       q    Type
                         _______ _______ _______ _____ _____    ______ ____

>  <TORSDO>
F 4

$$$$
=
 OpenBabel11052421263D

 32 38  0  0  1  0  0  0  0  0999 V2000
  187.0660  176.8850  141.5010 O   0  0  0  0  0  0  0  0  0  0  0  0
  190.6390  176.2830  144.4370 C   0  0  0  0  0  0  0  0  0  0  0  0
  190.0720  178.6010  148.7330 C   0  0  0  0  0  3  0  0  0  0  0  0
  191.2100  178.0510  149.1820 C   0  0  0  0  0  3  0  0  0  0  0  0
  192.9030  174.9710  144.2490 C   0  0  2  0  0  3  0  0  0  0  0  0
  193.5790  175.5830  142.9900 C   0  0  2  0  0  3  0  0  0  0  0  0
  188.7120  176.1650  142.8710 C   0  0  1  0  0  3  0  0  0  0  0  0
  188.4300  177.5250  144.8440 C   0  0  0  0  0  2  0  0  0  0  0  0
  195.3420  174.8920  145.2940 C   0  0  2  0  0  3  0  0  0  0  0  0
  187.0390  177.6510  142.6940 C   0  0  0  0  0  2  0  0  0  0  0  0
  189.2730  177.9400  147.6380 C   0  0  0  0  0  2  0  0  0  0  0  0
  189.7910  177.0330  145.3160 C   0  0  0  0  0  0  0  0  0  0  0  0
  190.1750  177.2250  146.6630 C   0  0  0  0  0  0  0  0  0  0  0  0
  192.1890  175.9520  146.2550 C   0  0  0  0  0  0  0  0  0  0  0  0
  195.8110  175.0080  143.8610 C   0  0  0  0  0  2  0  0  0  0  0  0
  188.3820  177.5190  143.3270 C   0  0  2  0  0  3  0  0  0  0  0  0
  194.9940  176.0900  143.2000 C   0  0  0  0  0  2  0  0  0  0  0  0
  188.2190  176.1370  141.5120 N   0  0  0  0  0  0  0  0  0  0  0  0
  191.7240  176.7600  148.6020 C   0  0  0  0  0  2  0  0  0  0  0  0
  191.3760  176.6570  147.1420 C   0  0  0  0  0  0  0  0  0  0  0  0
  193.3340  175.2060  146.6160 N   0  0  0  0  0  2  0  0  0  0  0  0
  190.2150  175.9760  143.0110 C   0  0  0  0  0  2  0  0  0  0  0  0
  192.8270  176.5740  142.3920 F   0  0  0  0  0  0  0  0  0  0  0  0
  196.1750  173.8580  146.0230 C   0  0  0  0  0  1  0  0  0  0  0  0
  191.8780  175.8320  144.9260 C   0  0  0  0  0  0  0  0  0  0  0  0
  193.8530  174.5450  145.4230 C   0  0  1  0  0  3  0  0  0  0  0  0
  187.8370  174.7620  141.2220 C   0  0  0  0  0  2  0  0  0  0  0  0
  188.7980  174.1470  140.2130 C   0  0  0  0  0  2  0  0  0  0  0  0
  189.8200  173.2490  140.8960 C   0  0  0  0  0  2  0  0  0  0  0  0
  189.1330  172.3000  141.8600 C   0  0  0  0  0  3  0  0  0  0  0  0
  189.8000  172.4060  143.2170 C   0  0  0  0  0  2  0  0  0  0  0  0
  190.1250  171.2450  142.3030 C   0  0  0  0  0  2  0  0  0  0  0  0
  1 18  1  0  0  0  0
  1 10  1  0  0  0  0
  2 25  2  0  0  0  0
  2 12  1  0  0  0  0
  3  4  2  0  0  0  0
  5 25  1  1  0  0  0
  5 26  1  0  0  0  0
  6 23  1  1  0  0  0
  6 17  1  0  0  0  0
  6  5  1  0  0  0  0
  7 22  1  6  0  0  0
  7 16  1  0  0  0  0
  8 12  1  0  0  0  0
  9 26  1  0  0  0  0
  9 24  1  6  0  0  0
 11  3  1  0  0  0  0
 12 13  2  0  0  0  0
 13 20  1  0  0  0  0
 13 11  1  0  0  0  0
 14 21  1  0  0  0  0
 14 20  2  0  0  0  0
 15  9  1  0  0  0  0
 16 10  1  1  0  0  0
 16  8  1  0  0  0  0
 17 15  1  0  0  0  0
 18  7  1  0  0  0  0
 19  4  1  0  0  0  0
 20 19  1  0  0  0  0
 22  2  1  0  0  0  0
 25 14  1  0  0  0  0
 26 21  1  1  0  0  0
 27 18  1  0  0  0  0
 28 29  1  0  0  0  0
 28 27  1  0  0  0  0
 29 30  1  0  0  0  0
 30 32  1  0  0  0  0
 30 31  1  0  0  0  0
 32 31  1  0  0  0  0
M  END
>  <MODEL>
8

>  <REMARK>
 VINA RESULT:      -6.9      2.281      3.725
  Name = 
  4 active torsions:
  status: ('A' for Active; 'I' for Inactive)
    1  A    between atoms: C_1  and  C_10
    2  A    between atoms: C_10  and  C_19
    3  A    between atoms: C_19  and  C_24
    4  A    between atoms: N_23  and  C_24
                            x       y       z     vdW  Elec       q    Type
                         _______ _______ _______ _____ _____    ______ ____

>  <TORSDO>
F 4

$$$$
=
 OpenBabel11052421263D

 32 38  0  0  1  0  0  0  0  0999 V2000
  196.5450  175.4290  143.3760 O   0  0  0  0  0  0  0  0  0  0  0  0
  192.0310  174.9630  142.2960 C   0  0  0  0  0  0  0  0  0  0  0  0
  191.2010  171.8250  138.6070 C   0  0  0  0  0  3  0  0  0  0  0  0
  189.8790  171.9710  138.7770 C   0  0  0  0  0  3  0  0  0  0  0  0
  189.8460  176.0570  143.2500 C   0  0  2  0  0  3  0  0  0  0  0  0
  190.0940  177.5820  143.0820 C   0  0  2  0  0  3  0  0  0  0  0  0
  194.3130  175.0910  143.2760 C   0  0  1  0  0  3  0  0  0  0  0  0
  194.0460  173.7100  141.3150 C   0  0  0  0  0  2  0  0  0  0  0  0
  187.3310  176.5780  142.5790 C   0  0  2  0  0  3  0  0  0  0  0  0
  196.2480  174.6610  142.2210 C   0  0  0  0  0  2  0  0  0  0  0  0
  192.1600  172.0790  139.7430 C   0  0  0  0  0  2  0  0  0  0  0  0
  192.5500  173.9790  141.3920 C   0  0  0  0  0  0  0  0  0  0  0  0
  191.6560  173.1780  140.6450 C   0  0  0  0  0  0  0  0  0  0  0  0
  189.7920  174.3140  141.6820 C   0  0  0  0  0  0  0  0  0  0  0  0
  187.6700  178.0020  142.9590 C   0  0  0  0  0  2  0  0  0  0  0  0
  194.8060  174.8810  141.9110 C   0  0  2  0  0  3  0  0  0  0  0  0
  189.0040  178.3340  142.3410 C   0  0  0  0  0  2  0  0  0  0  0  0
  195.3540  175.8820  143.8930 N   0  0  0  0  0  0  0  0  0  0  0  0
  189.3150  172.3980  140.1070 C   0  0  0  0  0  2  0  0  0  0  0  0
  190.2620  173.3320  140.8110 C   0  0  0  0  0  0  0  0  0  0  0  0
  188.4420  174.4850  142.0640 N   0  0  0  0  0  2  0  0  0  0  0  0
  192.9580  175.7770  143.1840 C   0  0  0  0  0  2  0  0  0  0  0  0
  191.3160  177.8780  142.5120 F   0  0  0  0  0  0  0  0  0  0  0  0
  185.9660  176.2140  143.1260 C   0  0  0  0  0  1  0  0  0  0  0  0
  190.6410  175.1600  142.3470 C   0  0  0  0  0  0  0  0  0  0  0  0
  188.3720  175.5560  143.0540 C   0  0  1  0  0  3  0  0  0  0  0  0
  195.3570  175.5560  145.3120 C   0  0  0  0  0  2  0  0  0  0  0  0
  194.4440  176.5070  146.0750 C   0  0  0  0  0  2  0  0  0  0  0  0
  193.3850  175.7480  146.8620 C   0  0  0  0  0  2  0  0  0  0  0  0
  192.0100  176.3380  146.6080 C   0  0  0  0  0  3  0  0  0  0  0  0
  191.1690  176.1880  147.8610 C   0  0  0  0  0  2  0  0  0  0  0  0
  190.9770  175.2340  146.7020 C   0  0  0  0  0  2  0  0  0  0  0  0
  1 18  1  0  0  0  0
  2 25  1  0  0  0  0
  2 22  1  0  0  0  0
  3  4  2  0  0  0  0
  3 11  1  0  0  0  0
  4 19  1  0  0  0  0
  5 25  1  6  0  0  0
  6 23  1  6  0  0  0
  6  5  1  0  0  0  0
  7 22  1  6  0  0  0
  7 18  1  0  0  0  0
  8 12  1  0  0  0  0
  9 15  1  0  0  0  0
  9 26  1  0  0  0  0
  9 24  1  1  0  0  0
 10  1  1  0  0  0  0
 11 13  1  0  0  0  0
 12  2  2  0  0  0  0
 13 20  2  0  0  0  0
 13 12  1  0  0  0  0
 14 21  1  0  0  0  0
 14 25  2  0  0  0  0
 16  8  1  1  0  0  0
 16 10  1  0  0  0  0
 16  7  1  0  0  0  0
 17 15  1  0  0  0  0
 17  6  1  0  0  0  0
 18 27  1  0  0  0  0
 19 20  1  0  0  0  0
 20 14  1  0  0  0  0
 26 21  1  6  0  0  0
 26  5  1  0  0  0  0
 27 28  1  0  0  0  0
 28 29  1  0  0  0  0
 30 32  1  0  0  0  0
 30 29  1  0  0  0  0
 30 31  1  0  0  0  0
 32 31  1  0  0  0  0
M  END
>  <MODEL>
9

>  <REMARK>
 VINA RESULT:      -6.6      3.275      7.518
  Name = 
  4 active torsions:
  status: ('A' for Active; 'I' for Inactive)
    1  A    between atoms: C_1  and  C_10
    2  A    between atoms: C_10  and  C_19
    3  A    between atoms: C_19  and  C_24
    4  A    between atoms: N_23  and  C_24
                            x       y       z     vdW  Elec       q    Type
                         _______ _______ _______ _____ _____    ______ ____

>  <TORSDO>
F 4

$$$$
