=
 OpenBabel11052421343D

 32 36  0  0  1  0  0  0  0  0999 V2000
  184.2080  178.8850  145.5330 C   0  0  0  0  0  2  0  0  0  0  0  0
  188.5380  176.1340  145.1890 C   0  0  0  0  0  0  0  0  0  0  0  0
  188.4010  173.0920  141.6310 N   0  0  0  0  0  2  0  0  0  0  0  0
  189.7360  173.4040  141.1340 C   0  0  0  0  0  2  0  0  0  0  0  0
  186.6370  177.4150  145.9830 C   0  0  0  0  0  0  0  0  0  0  0  0
  186.7090  176.6370  143.6860 C   0  0  0  0  0  3  0  0  0  0  0  0
  184.6800  177.9350  144.4280 C   0  0  2  0  0  3  0  0  0  0  0  0
  187.7310  174.3230  142.0660 C   0  0  0  0  0  2  0  0  0  0  0  0
  187.9420  176.0160  143.9250 C   0  0  0  0  0  0  0  0  0  0  0  0
  188.6620  175.3040  142.8110 C   0  0  1  0  0  3  0  0  0  0  0  0
  190.4720  174.8710  144.5530 C   0  0  0  0  0  0  0  0  0  0  0  0
  184.4830  178.2880  146.9040 C   0  0  0  0  0  2  0  0  0  0  0  0
  186.0540  177.3570  144.6950 C   0  0  0  0  0  0  0  0  0  0  0  0
  185.9890  178.1720  147.1040 C   0  0  0  0  0  2  0  0  0  0  0  0
  190.6250  173.7770  142.3140 C   0  0  0  0  0  2  0  0  0  0  0  0
  189.9060  174.6440  143.2500 N   0  0  0  0  0  0  0  0  0  0  0  0
  187.8840  176.8270  146.2100 C   0  0  0  0  0  3  0  0  0  0  0  0
  189.8210  175.5590  145.4430 N   0  0  0  0  0  0  0  0  0  0  0  0
  184.6340  178.6610  143.0900 C   0  0  0  0  0  2  0  0  0  0  0  0
  183.4150  178.2560  140.9230 C   0  0  0  0  0  0  0  0  0  0  0  0
  183.4450  178.2710  142.3490 N   0  0  0  0  0  2  0  0  0  0  0  0
  184.4330  178.5830  140.2570 O   0  0  0  0  0  0  0  0  0  0  0  0
  182.2250  177.8670  140.2480 N   0  0  0  0  0  1  0  0  0  0  0  0
  191.7250  174.3290  144.8630 O   0  0  0  0  0  0  0  0  0  0  0  0
  193.9260  174.4370  143.8420 C   0  0  2  0  0  3  0  0  0  0  0  0
  194.9760  173.5900  144.5640 C   0  0  0  0  0  2  0  0  0  0  0  0
  193.4800  175.2500  146.2430 C   0  0  1  0  0  3  0  0  0  0  0  0
  194.9740  175.5490  146.2250 C   0  0  0  0  0  2  0  0  0  0  0  0
  195.7700  174.3950  145.6020 C   0  0  0  0  0  2  0  0  0  0  0  0
  194.5490  175.4230  143.0750 O   0  0  0  0  0  1  0  0  0  0  0  0
  192.7450  176.3690  146.9520 C   0  0  0  0  0  1  0  0  0  0  0  0
  192.9280  175.0870  144.8190 C   0  0  2  0  0  3  0  0  0  0  0  0
  1 12  1  0  0  0  0
  2 18  1  0  0  0  0
  2 17  1  0  0  0  0
  3  8  1  0  0  0  0
  4  3  1  0  0  0  0
  4 15  1  0  0  0  0
  5 17  2  0  0  0  0
  5 14  1  0  0  0  0
  6  9  1  0  0  0  0
  6 13  2  0  0  0  0
  7 19  1  6  0  0  0
  7 13  1  0  0  0  0
  7  1  1  0  0  0  0
  9  2  2  0  0  0  0
 10  8  1  1  0  0  0
 10 16  1  0  0  0  0
 10  9  1  0  0  0  0
 11 24  1  0  0  0  0
 11 18  2  0  0  0  0
 12 14  1  0  0  0  0
 13  5  1  0  0  0  0
 15 16  1  0  0  0  0
 16 11  1  0  0  0  0
 20 21  1  0  0  0  0
 21 19  1  0  0  0  0
 22 20  2  0  0  0  0
 23 20  1  0  0  0  0
 25 30  1  1  0  0  0
 25 26  1  0  0  0  0
 25 32  1  0  0  0  0
 26 29  1  0  0  0  0
 27 31  1  6  0  0  0
 28 27  1  0  0  0  0
 29 28  1  0  0  0  0
 32 24  1  1  0  0  0
 32 27  1  0  0  0  0
M  END
>  <MODEL>
1

>  <REMARK>
 VINA RESULT:      -9.2      0.000      0.000
  Name = 
  4 active torsions:
  status: ('A' for Active; 'I' for Inactive)
    1  A    between atoms: N_10  and  C_24
    2  A    between atoms: C_12  and  C_24
    3  A    between atoms: C_16  and  O_27
    4  A    between atoms: O_27  and  C_32
                            x       y       z     vdW  Elec       q    Type
                         _______ _______ _______ _____ _____    ______ ____

>  <TORSDO>
F 4

$$$$
=
 OpenBabel11052421343D

 32 36  0  0  1  0  0  0  0  0999 V2000
  184.4660  178.8930  145.9210 C   0  0  0  0  0  2  0  0  0  0  0  0
  188.5910  175.8460  145.5540 C   0  0  0  0  0  0  0  0  0  0  0  0
  188.6580  173.4690  141.5190 N   0  0  0  0  0  2  0  0  0  0  0  0
  190.0620  173.7340  141.2290 C   0  0  0  0  0  2  0  0  0  0  0  0
  186.7080  177.1480  146.3570 C   0  0  0  0  0  0  0  0  0  0  0  0
  186.9970  176.7620  143.9790 C   0  0  0  0  0  3  0  0  0  0  0  0
  184.9950  178.1010  144.7210 C   0  0  2  0  0  3  0  0  0  0  0  0
  188.0330  174.6670  142.0920 C   0  0  0  0  0  2  0  0  0  0  0  0
  188.1440  175.9980  144.2340 C   0  0  0  0  0  0  0  0  0  0  0  0
  188.9380  175.4180  143.0930 C   0  0  1  0  0  3  0  0  0  0  0  0
  190.4890  174.5330  144.9120 C   0  0  0  0  0  0  0  0  0  0  0  0
  184.5290  178.0520  147.1850 C   0  0  0  0  0  2  0  0  0  0  0  0
  186.2810  177.3610  145.0250 C   0  0  0  0  0  0  0  0  0  0  0  0
  185.9870  177.7640  147.5200 C   0  0  0  0  0  2  0  0  0  0  0  0
  190.8280  173.8200  142.5430 C   0  0  0  0  0  2  0  0  0  0  0  0
  190.0680  174.5800  143.5370 N   0  0  0  0  0  0  0  0  0  0  0  0
  187.8710  176.4170  146.6060 C   0  0  0  0  0  3  0  0  0  0  0  0
  189.7880  175.1200  145.8360 N   0  0  0  0  0  0  0  0  0  0  0  0
  185.1640  179.0420  143.5350 C   0  0  0  0  0  2  0  0  0  0  0  0
  184.6470  178.3210  141.1770 C   0  0  0  0  0  0  0  0  0  0  0  0
  184.2190  178.6980  142.4850 N   0  0  0  0  0  2  0  0  0  0  0  0
  185.8740  178.2740  140.8940 O   0  0  0  0  0  0  0  0  0  0  0  0
  183.6810  177.9950  140.1860 N   0  0  0  0  0  1  0  0  0  0  0  0
  191.6520  173.8320  145.2520 O   0  0  0  0  0  0  0  0  0  0  0  0
  192.6550  175.9960  145.7100 C   0  0  2  0  0  3  0  0  0  0  0  0
  193.3930  176.5920  144.5100 C   0  0  0  0  0  2  0  0  0  0  0  0
  194.0570  173.9350  145.0690 C   0  0  1  0  0  3  0  0  0  0  0  0
  195.2190  174.9150  145.1850 C   0  0  0  0  0  2  0  0  0  0  0  0
  194.8920  176.2550  144.5130 C   0  0  0  0  0  2  0  0  0  0  0  0
  193.1130  176.5790  146.8930 O   0  0  0  0  0  1  0  0  0  0  0  0
  194.4590  172.5980  145.6580 C   0  0  0  0  0  1  0  0  0  0  0  0
  192.8080  174.4650  145.7870 C   0  0  2  0  0  3  0  0  0  0  0  0
  1 12  1  0  0  0  0
  2 18  1  0  0  0  0
  2 17  1  0  0  0  0
  3  8  1  0  0  0  0
  4  3  1  0  0  0  0
  4 15  1  0  0  0  0
  5 17  2  0  0  0  0
  5 14  1  0  0  0  0
  6  9  1  0  0  0  0
  6 13  2  0  0  0  0
  7 19  1  6  0  0  0
  7 13  1  0  0  0  0
  7  1  1  0  0  0  0
  9  2  2  0  0  0  0
 10  8  1  6  0  0  0
 10 16  1  0  0  0  0
 10  9  1  0  0  0  0
 11 24  1  0  0  0  0
 11 18  2  0  0  0  0
 12 14  1  0  0  0  0
 13  5  1  0  0  0  0
 15 16  1  0  0  0  0
 16 11  1  0  0  0  0
 20 21  1  0  0  0  0
 21 19  1  0  0  0  0
 22 20  2  0  0  0  0
 23 20  1  0  0  0  0
 25 32  1  0  0  0  0
 25 30  1  1  0  0  0
 26 29  1  0  0  0  0
 26 25  1  0  0  0  0
 27 28  1  0  0  0  0
 27 31  1  1  0  0  0
 27 32  1  0  0  0  0
 29 28  1  0  0  0  0
 32 24  1  6  0  0  0
M  END
>  <MODEL>
2

>  <REMARK>
 VINA RESULT:      -8.9      1.078      1.576
  Name = 
  4 active torsions:
  status: ('A' for Active; 'I' for Inactive)
    1  A    between atoms: N_10  and  C_24
    2  A    between atoms: C_12  and  C_24
    3  A    between atoms: C_16  and  O_27
    4  A    between atoms: O_27  and  C_32
                            x       y       z     vdW  Elec       q    Type
                         _______ _______ _______ _____ _____    ______ ____

>  <TORSDO>
F 4

$$$$
=
 OpenBabel11052421343D

 32 36  0  0  1  0  0  0  0  0999 V2000
  185.5000  178.2050  145.8670 C   0  0  0  0  0  2  0  0  0  0  0  0
  189.5450  175.1530  144.9920 C   0  0  0  0  0  0  0  0  0  0  0  0
  189.4690  173.3430  140.6730 N   0  0  0  0  0  2  0  0  0  0  0  0
  190.8720  173.6160  140.3860 C   0  0  0  0  0  2  0  0  0  0  0  0
  187.7100  176.3720  146.0090 C   0  0  0  0  0  0  0  0  0  0  0  0
  187.9380  176.3050  143.5940 C   0  0  0  0  0  3  0  0  0  0  0  0
  185.9840  177.5720  144.5590 C   0  0  2  0  0  3  0  0  0  0  0  0
  188.8840  174.4640  141.4170 C   0  0  0  0  0  2  0  0  0  0  0  0
  189.0720  175.4910  143.7150 C   0  0  0  0  0  0  0  0  0  0  0  0
  189.8270  175.0550  142.4880 C   0  0  1  0  0  3  0  0  0  0  0  0
  191.3970  173.9010  144.1310 C   0  0  0  0  0  0  0  0  0  0  0  0
  185.5710  177.1990  147.0050 C   0  0  0  0  0  2  0  0  0  0  0  0
  187.2590  176.7710  144.7290 C   0  0  0  0  0  0  0  0  0  0  0  0
  187.0290  176.8390  147.2610 C   0  0  0  0  0  2  0  0  0  0  0  0
  191.6680  173.5080  141.6810 C   0  0  0  0  0  2  0  0  0  0  0  0
  190.9470  174.1420  142.7860 N   0  0  0  0  0  0  0  0  0  0  0  0
  188.8610  175.5910  146.1280 C   0  0  0  0  0  3  0  0  0  0  0  0
  190.7300  174.3720  145.1430 N   0  0  0  0  0  0  0  0  0  0  0  0
  186.1490  178.6610  143.5070 C   0  0  0  0  0  2  0  0  0  0  0  0
  185.1820  178.2760  141.2130 C   0  0  0  0  0  0  0  0  0  0  0  0
  185.0260  178.6390  142.5840 N   0  0  0  0  0  2  0  0  0  0  0  0
  186.3130  177.9590  140.7590 O   0  0  0  0  0  0  0  0  0  0  0  0
  184.0500  178.2720  140.3520 N   0  0  0  0  0  1  0  0  0  0  0  0
  192.5500  173.1370  144.3450 O   0  0  0  0  0  0  0  0  0  0  0  0
  193.8740  174.9950  145.1800 C   0  0  2  0  0  3  0  0  0  0  0  0
  195.1440  175.2530  144.3670 C   0  0  0  0  0  2  0  0  0  0  0  0
  194.7730  172.5840  145.1110 C   0  0  1  0  0  3  0  0  0  0  0  0
  196.0310  173.2300  145.6790 C   0  0  0  0  0  2  0  0  0  0  0  0
  196.3710  174.5350  144.9480 C   0  0  0  0  0  2  0  0  0  0  0  0
  193.9980  175.5520  146.4540 O   0  0  0  0  0  1  0  0  0  0  0  0
  194.5300  171.2550  145.7960 C   0  0  0  0  0  1  0  0  0  0  0  0
  193.5490  173.4940  145.2940 C   0  0  2  0  0  3  0  0  0  0  0  0
  1 12  1  0  0  0  0
  2 18  1  0  0  0  0
  2 17  1  0  0  0  0
  3  8  1  0  0  0  0
  4  3  1  0  0  0  0
  4 15  1  0  0  0  0
  5 17  2  0  0  0  0
  5 14  1  0  0  0  0
  6  9  1  0  0  0  0
  6 13  2  0  0  0  0
  7 19  1  6  0  0  0
  7 13  1  0  0  0  0
  7  1  1  0  0  0  0
  9  2  2  0  0  0  0
 10  8  1  6  0  0  0
 10 16  1  0  0  0  0
 10  9  1  0  0  0  0
 11 24  1  0  0  0  0
 11 18  2  0  0  0  0
 12 14  1  0  0  0  0
 13  5  1  0  0  0  0
 15 16  1  0  0  0  0
 16 11  1  0  0  0  0
 20 21  1  0  0  0  0
 21 19  1  0  0  0  0
 22 20  2  0  0  0  0
 23 20  1  0  0  0  0
 25 32  1  0  0  0  0
 25 30  1  1  0  0  0
 26 29  1  0  0  0  0
 26 25  1  0  0  0  0
 27 32  1  0  0  0  0
 27 28  1  0  0  0  0
 27 31  1  1  0  0  0
 29 28  1  0  0  0  0
 32 24  1  6  0  0  0
M  END
>  <MODEL>
3

>  <REMARK>
 VINA RESULT:      -8.4      1.486      1.956
  Name = 
  4 active torsions:
  status: ('A' for Active; 'I' for Inactive)
    1  A    between atoms: N_10  and  C_24
    2  A    between atoms: C_12  and  C_24
    3  A    between atoms: C_16  and  O_27
    4  A    between atoms: O_27  and  C_32
                            x       y       z     vdW  Elec       q    Type
                         _______ _______ _______ _____ _____    ______ ____

>  <TORSDO>
F 4

$$$$
=
 OpenBabel11052421343D

 32 36  0  0  1  0  0  0  0  0999 V2000
  185.7380  178.2010  145.9360 C   0  0  0  0  0  2  0  0  0  0  0  0
  190.3760  176.0090  146.2840 C   0  0  0  0  0  0  0  0  0  0  0  0
  190.5270  171.8730  144.0910 N   0  0  0  0  0  2  0  0  0  0  0  0
  191.7940  172.1240  143.4150 C   0  0  0  0  0  2  0  0  0  0  0  0
  188.3500  177.2760  146.7010 C   0  0  0  0  0  0  0  0  0  0  0  0
  188.4520  175.7180  144.8450 C   0  0  0  0  0  3  0  0  0  0  0  0
  186.2950  176.9670  145.2180 C   0  0  2  0  0  3  0  0  0  0  0  0
  189.7150  173.0960  144.1000 C   0  0  0  0  0  2  0  0  0  0  0  0
  189.7620  175.3690  145.1980 C   0  0  0  0  0  0  0  0  0  0  0  0
  190.5340  174.3790  144.3660 C   0  0  1  0  0  3  0  0  0  0  0  0
  192.4380  174.8210  146.0020 C   0  0  0  0  0  0  0  0  0  0  0  0
  186.1300  178.1850  147.4050 C   0  0  0  0  0  2  0  0  0  0  0  0
  187.7410  176.6830  145.5710 C   0  0  0  0  0  0  0  0  0  0  0  0
  187.6430  178.3170  147.5190 C   0  0  0  0  0  2  0  0  0  0  0  0
  192.6620  173.0020  144.3070 C   0  0  0  0  0  2  0  0  0  0  0  0
  191.8660  174.0680  144.9180 N   0  0  0  0  0  0  0  0  0  0  0  0
  189.6690  176.9540  147.0300 C   0  0  0  0  0  3  0  0  0  0  0  0
  191.7300  175.7130  146.6300 N   0  0  0  0  0  0  0  0  0  0  0  0
  186.1140  177.1390  143.7160 C   0  0  0  0  0  2  0  0  0  0  0  0
  184.3550  178.0400  142.1540 C   0  0  0  0  0  0  0  0  0  0  0  0
  184.7360  177.4910  143.4140 N   0  0  0  0  0  2  0  0  0  0  0  0
  185.2150  178.2370  141.2550 O   0  0  0  0  0  0  0  0  0  0  0  0
  182.9920  178.3680  141.9110 N   0  0  0  0  0  1  0  0  0  0  0  0
  193.7590  174.5720  146.3920 O   0  0  0  0  0  0  0  0  0  0  0  0
  194.3560  176.5210  145.0720 C   0  0  2  0  0  3  0  0  0  0  0  0
  194.4660  176.2320  143.5730 C   0  0  0  0  0  2  0  0  0  0  0  0
  195.8540  174.4330  145.2010 C   0  0  1  0  0  3  0  0  0  0  0  0
  196.7340  175.2280  144.2430 C   0  0  0  0  0  2  0  0  0  0  0  0
  195.9020  175.8980  143.1420 C   0  0  0  0  0  2  0  0  0  0  0  0
  195.0650  177.6810  145.3910 O   0  0  0  0  0  1  0  0  0  0  0  0
  196.7240  173.7110  146.2100 C   0  0  0  0  0  1  0  0  0  0  0  0
  194.8600  175.3460  145.9310 C   0  0  2  0  0  3  0  0  0  0  0  0
  1 12  1  0  0  0  0
  2 18  1  0  0  0  0
  2 17  1  0  0  0  0
  3  8  1  0  0  0  0
  4  3  1  0  0  0  0
  4 15  1  0  0  0  0
  5 17  2  0  0  0  0
  5 14  1  0  0  0  0
  6  9  1  0  0  0  0
  6 13  2  0  0  0  0
  7 19  1  6  0  0  0
  7 13  1  0  0  0  0
  7  1  1  0  0  0  0
  9  2  2  0  0  0  0
 10  8  1  1  0  0  0
 10 16  1  0  0  0  0
 10  9  1  0  0  0  0
 11 24  1  0  0  0  0
 11 18  2  0  0  0  0
 12 14  1  0  0  0  0
 13  5  1  0  0  0  0
 15 16  1  0  0  0  0
 16 11  1  0  0  0  0
 20 21  1  0  0  0  0
 21 19  1  0  0  0  0
 22 20  2  0  0  0  0
 23 20  1  0  0  0  0
 25 30  1  6  0  0  0
 25 32  1  0  0  0  0
 26 25  1  0  0  0  0
 27 32  1  0  0  0  0
 27 31  1  1  0  0  0
 28 27  1  0  0  0  0
 29 26  1  0  0  0  0
 29 28  1  0  0  0  0
 32 24  1  6  0  0  0
M  END
>  <MODEL>
4

>  <REMARK>
 VINA RESULT:      -8.0      1.798      2.530
  Name = 
  4 active torsions:
  status: ('A' for Active; 'I' for Inactive)
    1  A    between atoms: N_10  and  C_24
    2  A    between atoms: C_12  and  C_24
    3  A    between atoms: C_16  and  O_27
    4  A    between atoms: O_27  and  C_32
                            x       y       z     vdW  Elec       q    Type
                         _______ _______ _______ _____ _____    ______ ____

>  <TORSDO>
F 4

$$$$
=
 OpenBabel11052421343D

 32 36  0  0  1  0  0  0  0  0999 V2000
  193.6640  172.3680  140.9490 C   0  0  0  0  0  2  0  0  0  0  0  0
  190.4050  175.5120  143.3850 C   0  0  0  0  0  0  0  0  0  0  0  0
  191.0940  175.4980  148.0180 N   0  0  0  0  0  2  0  0  0  0  0  0
  191.0410  176.9470  148.1670 C   0  0  0  0  0  2  0  0  0  0  0  0
  191.4410  173.9620  141.8320 C   0  0  0  0  0  0  0  0  0  0  0  0
  192.5160  174.4690  143.9470 C   0  0  0  0  0  3  0  0  0  0  0  0
  193.6520  172.8250  142.4110 C   0  0  2  0  0  3  0  0  0  0  0  0
  191.8140  175.1490  146.7870 C   0  0  0  0  0  2  0  0  0  0  0  0
  191.4550  175.3150  144.2940 C   0  0  0  0  0  0  0  0  0  0  0  0
  191.4830  176.0730  145.5940 C   0  0  1  0  0  3  0  0  0  0  0  0
  189.2590  177.0490  144.8210 C   0  0  0  0  0  0  0  0  0  0  0  0
  192.2580  172.0180  140.4880 C   0  0  0  0  0  2  0  0  0  0  0  0
  192.5360  173.8030  142.7130 C   0  0  0  0  0  0  0  0  0  0  0  0
  191.4030  173.2790  140.4960 C   0  0  0  0  0  2  0  0  0  0  0  0
  190.0740  177.5130  147.1350 C   0  0  0  0  0  2  0  0  0  0  0  0
  190.2580  176.8560  145.8390 N   0  0  0  0  0  0  0  0  0  0  0  0
  190.4010  174.8330  142.1640 C   0  0  0  0  0  3  0  0  0  0  0  0
  189.3390  176.4110  143.6910 N   0  0  0  0  0  0  0  0  0  0  0  0
  195.0130  173.4110  142.7620 C   0  0  0  0  0  2  0  0  0  0  0  0
  195.6880  175.7860  142.2590 C   0  0  0  0  0  0  0  0  0  0  0  0
  195.3610  174.4670  141.8250 N   0  0  0  0  0  2  0  0  0  0  0  0
  195.6850  176.0750  143.4860 O   0  0  0  0  0  0  0  0  0  0  0  0
  196.0200  176.7820  141.3000 N   0  0  0  0  0  1  0  0  0  0  0  0
  188.1870  177.9150  145.0630 O   0  0  0  0  0  0  0  0  0  0  0  0
  186.1530  178.1430  143.7560 C   0  0  2  0  0  3  0  0  0  0  0  0
  185.3240  179.3750  144.1260 C   0  0  0  0  0  2  0  0  0  0  0  0
  186.1200  177.8210  146.3090 C   0  0  1  0  0  3  0  0  0  0  0  0
  184.6110  177.9200  146.1200 C   0  0  0  0  0  2  0  0  0  0  0  0
  184.2390  179.0630  145.1670 C   0  0  0  0  0  2  0  0  0  0  0  0
  185.3500  177.2010  143.1100 O   0  0  0  0  0  1  0  0  0  0  0  0
  186.4360  176.7460  147.3290 C   0  0  0  0  0  1  0  0  0  0  0  0
  186.8270  177.5030  144.9840 C   0  0  2  0  0  3  0  0  0  0  0  0
  1  7  1  0  0  0  0
  2 18  1  0  0  0  0
  2  9  1  0  0  0  0
  3  4  1  0  0  0  0
  5 17  1  0  0  0  0
  5 13  2  0  0  0  0
  6  9  2  0  0  0  0
  7 13  1  0  0  0  0
  7 19  1  6  0  0  0
  8  3  1  0  0  0  0
  9 10  1  0  0  0  0
 10 16  1  0  0  0  0
 10  8  1  1  0  0  0
 11 24  1  0  0  0  0
 11 16  1  0  0  0  0
 12 14  1  0  0  0  0
 12  1  1  0  0  0  0
 13  6  1  0  0  0  0
 14  5  1  0  0  0  0
 15  4  1  0  0  0  0
 16 15  1  0  0  0  0
 17  2  2  0  0  0  0
 18 11  2  0  0  0  0
 20 22  2  0  0  0  0
 21 20  1  0  0  0  0
 21 19  1  0  0  0  0
 23 20  1  0  0  0  0
 25 30  1  1  0  0  0
 25 26  1  0  0  0  0
 25 32  1  0  0  0  0
 26 29  1  0  0  0  0
 27 31  1  1  0  0  0
 28 27  1  0  0  0  0
 29 28  1  0  0  0  0
 32 24  1  1  0  0  0
 32 27  1  0  0  0  0
M  END
>  <MODEL>
5

>  <REMARK>
 VINA RESULT:      -7.9      2.744      8.738
  Name = 
  4 active torsions:
  status: ('A' for Active; 'I' for Inactive)
    1  A    between atoms: N_10  and  C_24
    2  A    between atoms: C_12  and  C_24
    3  A    between atoms: C_16  and  O_27
    4  A    between atoms: O_27  and  C_32
                            x       y       z     vdW  Elec       q    Type
                         _______ _______ _______ _____ _____    ______ ____

>  <TORSDO>
F 4

$$$$
=
 OpenBabel11052421343D

 32 36  0  0  1  0  0  0  0  0999 V2000
  193.6530  172.4900  140.9480 C   0  0  0  0  0  2  0  0  0  0  0  0
  190.3780  175.5560  143.4590 C   0  0  0  0  0  0  0  0  0  0  0  0
  191.1590  175.5440  148.0760 N   0  0  0  0  0  2  0  0  0  0  0  0
  191.0790  176.9910  148.2320 C   0  0  0  0  0  2  0  0  0  0  0  0
  191.4150  174.0340  141.8800 C   0  0  0  0  0  0  0  0  0  0  0  0
  192.5210  174.5570  143.9750 C   0  0  0  0  0  3  0  0  0  0  0  0
  193.6610  172.9420  142.4110 C   0  0  2  0  0  3  0  0  0  0  0  0
  191.8620  175.2140  146.8310 C   0  0  0  0  0  2  0  0  0  0  0  0
  191.4490  175.3790  144.3460 C   0  0  0  0  0  0  0  0  0  0  0  0
  191.4870  176.1340  145.6480 C   0  0  1  0  0  3  0  0  0  0  0  0
  189.2280  177.0650  144.9220 C   0  0  0  0  0  0  0  0  0  0  0  0
  192.2460  172.1110  140.5140 C   0  0  0  0  0  2  0  0  0  0  0  0
  192.5300  173.8960  142.7390 C   0  0  0  0  0  0  0  0  0  0  0  0
  191.3650  173.3540  140.5440 C   0  0  0  0  0  2  0  0  0  0  0  0
  190.0790  177.5390  147.2210 C   0  0  0  0  0  2  0  0  0  0  0  0
  190.2500  176.8910  145.9200 N   0  0  0  0  0  0  0  0  0  0  0  0
  190.3630  174.8810  142.2360 C   0  0  0  0  0  3  0  0  0  0  0  0
  189.2990  176.4320  143.7890 N   0  0  0  0  0  0  0  0  0  0  0  0
  195.0160  173.5570  142.7370 C   0  0  0  0  0  2  0  0  0  0  0  0
  196.1300  173.5110  144.9960 C   0  0  0  0  0  0  0  0  0  0  0  0
  195.6390  172.8390  143.8380 N   0  0  0  0  0  2  0  0  0  0  0  0
  196.0340  174.7630  145.1000 O   0  0  0  0  0  0  0  0  0  0  0  0
  196.7320  172.7610  146.0440 N   0  0  0  0  0  1  0  0  0  0  0  0
  188.1420  177.9070  145.1890 O   0  0  0  0  0  0  0  0  0  0  0  0
  186.1670  178.0900  143.7870 C   0  0  2  0  0  3  0  0  0  0  0  0
  185.3200  179.3280  144.0860 C   0  0  0  0  0  2  0  0  0  0  0  0
  186.0220  177.8380  146.3440 C   0  0  1  0  0  3  0  0  0  0  0  0
  184.5230  177.9260  146.0860 C   0  0  0  0  0  2  0  0  0  0  0  0
  184.1900  179.0410  145.0860 C   0  0  0  0  0  2  0  0  0  0  0  0
  185.3970  177.1270  143.1330 O   0  0  0  0  0  1  0  0  0  0  0  0
  186.2950  176.7930  147.4070 C   0  0  0  0  0  1  0  0  0  0  0  0
  186.7880  177.4870  145.0610 C   0  0  2  0  0  3  0  0  0  0  0  0
  1  7  1  0  0  0  0
  2 18  1  0  0  0  0
  2  9  1  0  0  0  0
  3  4  1  0  0  0  0
  5 17  1  0  0  0  0
  5 13  2  0  0  0  0
  6  9  2  0  0  0  0
  7 19  1  6  0  0  0
  7 13  1  0  0  0  0
  8  3  1  0  0  0  0
  9 10  1  0  0  0  0
 10 16  1  0  0  0  0
 10  8  1  1  0  0  0
 11 24  1  0  0  0  0
 11 16  1  0  0  0  0
 12 14  1  0  0  0  0
 12  1  1  0  0  0  0
 13  6  1  0  0  0  0
 14  5  1  0  0  0  0
 15  4  1  0  0  0  0
 16 15  1  0  0  0  0
 17  2  2  0  0  0  0
 18 11  2  0  0  0  0
 19 21  1  0  0  0  0
 20 22  2  0  0  0  0
 20 23  1  0  0  0  0
 21 20  1  0  0  0  0
 25 30  1  1  0  0  0
 25 26  1  0  0  0  0
 25 32  1  0  0  0  0
 26 29  1  0  0  0  0
 27 31  1  1  0  0  0
 28 27  1  0  0  0  0
 29 28  1  0  0  0  0
 32 24  1  1  0  0  0
 32 27  1  0  0  0  0
M  END
>  <MODEL>
6

>  <REMARK>
 VINA RESULT:      -7.8      2.681      9.040
  Name = 
  4 active torsions:
  status: ('A' for Active; 'I' for Inactive)
    1  A    between atoms: N_10  and  C_24
    2  A    between atoms: C_12  and  C_24
    3  A    between atoms: C_16  and  O_27
    4  A    between atoms: O_27  and  C_32
                            x       y       z     vdW  Elec       q    Type
                         _______ _______ _______ _____ _____    ______ ____

>  <TORSDO>
F 4

$$$$
=
 OpenBabel11052421343D

 32 36  0  0  1  0  0  0  0  0999 V2000
  190.9440  171.4980  138.4170 C   0  0  0  0  0  2  0  0  0  0  0  0
  189.2320  175.0260  141.7420 C   0  0  0  0  0  0  0  0  0  0  0  0
  191.7340  175.0600  145.7010 N   0  0  0  0  0  2  0  0  0  0  0  0
  191.8700  176.5100  145.7630 C   0  0  0  0  0  2  0  0  0  0  0  0
  189.4140  173.3380  140.0100 C   0  0  0  0  0  0  0  0  0  0  0  0
  191.2920  173.7840  141.4790 C   0  0  0  0  0  3  0  0  0  0  0  0
  191.5640  171.9910  139.7280 C   0  0  2  0  0  3  0  0  0  0  0  0
  191.8610  174.6060  144.3110 C   0  0  0  0  0  2  0  0  0  0  0  0
  190.5390  174.7440  142.1660 C   0  0  0  0  0  0  0  0  0  0  0  0
  191.1560  175.5290  143.2930 C   0  0  1  0  0  3  0  0  0  0  0  0
  188.9010  176.7120  143.4120 C   0  0  0  0  0  0  0  0  0  0  0  0
  189.4470  171.2850  138.5830 C   0  0  0  0  0  2  0  0  0  0  0  0
  190.7540  173.0880  140.3870 C   0  0  0  0  0  0  0  0  0  0  0  0
  188.7800  172.6280  138.8500 C   0  0  0  0  0  2  0  0  0  0  0  0
  190.6200  177.1470  145.1700 C   0  0  0  0  0  2  0  0  0  0  0  0
  190.2060  176.4420  143.9560 N   0  0  0  0  0  0  0  0  0  0  0  0
  188.6760  174.3210  140.6730 C   0  0  0  0  0  3  0  0  0  0  0  0
  188.4620  176.0400  142.3890 N   0  0  0  0  0  0  0  0  0  0  0  0
  192.9960  172.4410  139.4660 C   0  0  0  0  0  2  0  0  0  0  0  0
  193.5240  174.6620  138.4020 C   0  0  0  0  0  0  0  0  0  0  0  0
  193.0390  173.3240  138.3110 N   0  0  0  0  0  2  0  0  0  0  0  0
  193.9350  175.1220  139.5010 O   0  0  0  0  0  0  0  0  0  0  0  0
  193.5440  175.4850  137.2420 N   0  0  0  0  0  1  0  0  0  0  0  0
  188.0970  177.6910  144.0070 O   0  0  0  0  0  0  0  0  0  0  0  0
  185.8250  178.3330  143.4360 C   0  0  2  0  0  3  0  0  0  0  0  0
  185.3580  179.6120  144.1340 C   0  0  0  0  0  2  0  0  0  0  0  0
  186.5230  177.7260  145.8380 C   0  0  1  0  0  3  0  0  0  0  0  0
  185.0650  178.0430  146.1480 C   0  0  0  0  0  2  0  0  0  0  0  0
  184.6080  179.3270  145.4440 C   0  0  0  0  0  2  0  0  0  0  0  0
  184.7230  177.5840  143.0180 O   0  0  0  0  0  1  0  0  0  0  0  0
  186.9580  176.5090  146.6280 C   0  0  0  0  0  1  0  0  0  0  0  0
  186.7300  177.4730  144.3380 C   0  0  2  0  0  3  0  0  0  0  0  0
  1 12  1  0  0  0  0
  1  7  1  0  0  0  0
  2  9  1  0  0  0  0
  2 18  1  0  0  0  0
  3  4  1  0  0  0  0
  5 13  2  0  0  0  0
  5 17  1  0  0  0  0
  6  9  2  0  0  0  0
  7 19  1  6  0  0  0
  7 13  1  0  0  0  0
  8  3  1  0  0  0  0
  9 10  1  0  0  0  0
 10 16  1  0  0  0  0
 10  8  1  1  0  0  0
 11 16  1  0  0  0  0
 11 24  1  0  0  0  0
 12 14  1  0  0  0  0
 13  6  1  0  0  0  0
 14  5  1  0  0  0  0
 15  4  1  0  0  0  0
 16 15  1  0  0  0  0
 17  2  2  0  0  0  0
 18 11  2  0  0  0  0
 20 22  2  0  0  0  0
 21 20  1  0  0  0  0
 21 19  1  0  0  0  0
 23 20  1  0  0  0  0
 25 30  1  1  0  0  0
 25 26  1  0  0  0  0
 25 32  1  0  0  0  0
 26 29  1  0  0  0  0
 27 28  1  0  0  0  0
 27 31  1  1  0  0  0
 29 28  1  0  0  0  0
 32 24  1  6  0  0  0
 32 27  1  0  0  0  0
M  END
>  <MODEL>
7

>  <REMARK>
 VINA RESULT:      -7.5      2.776      8.296
  Name = 
  4 active torsions:
  status: ('A' for Active; 'I' for Inactive)
    1  A    between atoms: N_10  and  C_24
    2  A    between atoms: C_12  and  C_24
    3  A    between atoms: C_16  and  O_27
    4  A    between atoms: O_27  and  C_32
                            x       y       z     vdW  Elec       q    Type
                         _______ _______ _______ _____ _____    ______ ____

>  <TORSDO>
F 4

$$$$
=
 OpenBabel11052421343D

 32 36  0  0  1  0  0  0  0  0999 V2000
  185.7950  178.0300  145.6100 C   0  0  0  0  0  2  0  0  0  0  0  0
  190.2040  175.7730  144.2300 C   0  0  0  0  0  0  0  0  0  0  0  0
  189.5490  172.5410  140.9030 N   0  0  0  0  0  2  0  0  0  0  0  0
  190.6660  172.9750  140.0720 C   0  0  0  0  0  2  0  0  0  0  0  0
  188.4220  176.8720  145.4550 C   0  0  0  0  0  0  0  0  0  0  0  0
  188.0060  175.9800  143.2370 C   0  0  0  0  0  3  0  0  0  0  0  0
  186.0860  177.0790  144.4450 C   0  0  2  0  0  3  0  0  0  0  0  0
  188.8630  173.7100  141.4660 C   0  0  0  0  0  2  0  0  0  0  0  0
  189.3270  175.5180  143.1660 C   0  0  0  0  0  0  0  0  0  0  0  0
  189.8240  174.8310  141.9220 C   0  0  1  0  0  3  0  0  0  0  0  0
  192.0550  174.7040  143.1480 C   0  0  0  0  0  0  0  0  0  0  0  0
  186.4790  177.5440  146.8780 C   0  0  0  0  0  2  0  0  0  0  0  0
  187.5440  176.6760  144.3630 C   0  0  0  0  0  0  0  0  0  0  0  0
  187.9890  177.6110  146.6870 C   0  0  0  0  0  2  0  0  0  0  0  0
  191.7710  173.5110  140.9730 C   0  0  0  0  0  2  0  0  0  0  0  0
  191.2100  174.3410  142.0410 N   0  0  0  0  0  0  0  0  0  0  0  0
  189.7480  176.4420  145.3670 C   0  0  0  0  0  3  0  0  0  0  0  0
  191.5700  175.3620  144.1590 N   0  0  0  0  0  0  0  0  0  0  0  0
  185.6140  177.7190  143.1460 C   0  0  0  0  0  2  0  0  0  0  0  0
  183.4390  178.3070  142.0190 C   0  0  0  0  0  0  0  0  0  0  0  0
  184.1710  177.9030  143.1750 N   0  0  0  0  0  2  0  0  0  0  0  0
  184.0300  178.5170  140.9270 O   0  0  0  0  0  0  0  0  0  0  0  0
  182.0280  178.4740  142.1010 N   0  0  0  0  0  1  0  0  0  0  0  0
  193.4020  174.3250  143.1380 O   0  0  0  0  0  0  0  0  0  0  0  0
  195.0860  174.6660  141.4210 C   0  0  2  0  0  3  0  0  0  0  0  0
  196.3880  173.9070  141.6840 C   0  0  0  0  0  2  0  0  0  0  0  0
  195.4500  175.3780  143.8670 C   0  0  1  0  0  3  0  0  0  0  0  0
  196.8130  175.8190  143.3460 C   0  0  0  0  0  2  0  0  0  0  0  0
  197.4290  174.7610  142.4230 C   0  0  0  0  0  2  0  0  0  0  0  0
  195.3170  175.7240  140.5400 O   0  0  0  0  0  1  0  0  0  0  0  0
  194.9230  176.4060  144.8480 C   0  0  0  0  0  1  0  0  0  0  0  0
  194.4480  175.1950  142.7190 C   0  0  2  0  0  3  0  0  0  0  0  0
  1 12  1  0  0  0  0
  2 17  1  0  0  0  0
  3  8  1  0  0  0  0
  4  3  1  0  0  0  0
  4 15  1  0  0  0  0
  5 14  1  0  0  0  0
  6 13  2  0  0  0  0
  7 19  1  6  0  0  0
  7  1  1  0  0  0  0
  9  6  1  0  0  0  0
  9  2  2  0  0  0  0
 10  8  1  1  0  0  0
 10 16  1  0  0  0  0
 10  9  1  0  0  0  0
 11 18  2  0  0  0  0
 13  7  1  0  0  0  0
 13  5  1  0  0  0  0
 14 12  1  0  0  0  0
 15 16  1  0  0  0  0
 16 11  1  0  0  0  0
 17  5  2  0  0  0  0
 18  2  1  0  0  0  0
 19 21  1  0  0  0  0
 20 23  1  0  0  0  0
 20 21  1  0  0  0  0
 22 20  2  0  0  0  0
 24 11  1  0  0  0  0
 25 30  1  6  0  0  0
 25 26  1  0  0  0  0
 25 32  1  0  0  0  0
 26 29  1  0  0  0  0
 27 31  1  1  0  0  0
 28 27  1  0  0  0  0
 29 28  1  0  0  0  0
 32 24  1  1  0  0  0
 32 27  1  0  0  0  0
M  END
>  <MODEL>
8

>  <REMARK>
 VINA RESULT:      -7.2      1.694      2.156
  Name = 
  4 active torsions:
  status: ('A' for Active; 'I' for Inactive)
    1  A    between atoms: N_10  and  C_24
    2  A    between atoms: C_12  and  C_24
    3  A    between atoms: C_16  and  O_27
    4  A    between atoms: O_27  and  C_32
                            x       y       z     vdW  Elec       q    Type
                         _______ _______ _______ _____ _____    ______ ____

>  <TORSDO>
F 4

$$$$
=
 OpenBabel11052421343D

 32 36  0  0  1  0  0  0  0  0999 V2000
  185.1790  177.9000  141.6780 C   0  0  0  0  0  2  0  0  0  0  0  0
  189.5280  175.6580  143.2570 C   0  0  0  0  0  0  0  0  0  0  0  0
  190.8670  177.2080  147.4690 N   0  0  0  0  0  2  0  0  0  0  0  0
  191.1590  175.8870  148.0130 C   0  0  0  0  0  2  0  0  0  0  0  0
  187.7470  176.6340  141.9300 C   0  0  0  0  0  0  0  0  0  0  0  0
  187.7400  176.8740  144.3440 C   0  0  0  0  0  3  0  0  0  0  0  0
  185.8640  177.9480  143.0460 C   0  0  2  0  0  3  0  0  0  0  0  0
  189.6570  177.1490  146.6400 C   0  0  0  0  0  2  0  0  0  0  0  0
  188.9460  176.1660  144.4270 C   0  0  0  0  0  0  0  0  0  0  0  0
  189.5650  175.8770  145.7690 C   0  0  1  0  0  3  0  0  0  0  0  0
  191.3570  174.6520  144.4330 C   0  0  0  0  0  0  0  0  0  0  0  0
  186.2020  178.0470  140.5630 C   0  0  0  0  0  2  0  0  0  0  0  0
  187.1180  177.0990  143.1080 C   0  0  0  0  0  0  0  0  0  0  0  0
  187.1310  176.8400  140.5770 C   0  0  0  0  0  2  0  0  0  0  0  0
  191.6620  174.9920  146.8870 C   0  0  0  0  0  2  0  0  0  0  0  0
  190.8670  175.1910  145.6740 N   0  0  0  0  0  0  0  0  0  0  0  0
  188.9310  175.8970  142.0170 C   0  0  0  0  0  3  0  0  0  0  0  0
  190.7270  174.8850  143.3200 N   0  0  0  0  0  0  0  0  0  0  0  0
  184.8650  177.5410  144.1210 C   0  0  0  0  0  2  0  0  0  0  0  0
  185.1150  178.0240  146.5810 C   0  0  0  0  0  0  0  0  0  0  0  0
  184.9260  178.4690  145.2390 N   0  0  0  0  0  2  0  0  0  0  0  0
  185.2380  176.7970  146.8380 O   0  0  0  0  0  0  0  0  0  0  0  0
  185.1660  178.9740  147.6380 N   0  0  0  0  0  1  0  0  0  0  0  0
  192.5310  173.8900  144.4290 O   0  0  0  0  0  0  0  0  0  0  0  0
  193.9450  173.5930  142.4770 C   0  0  2  0  0  3  0  0  0  0  0  0
  194.9260  172.4260  142.6050 C   0  0  0  0  0  2  0  0  0  0  0  0
  194.9020  174.1600  144.7970 C   0  0  1  0  0  3  0  0  0  0  0  0
  196.2370  174.0840  144.0650 C   0  0  0  0  0  2  0  0  0  0  0  0
  196.2980  172.8660  143.1350 C   0  0  0  0  0  2  0  0  0  0  0  0
  194.3920  174.4910  141.5050 O   0  0  0  0  0  1  0  0  0  0  0  0
  194.9220  175.3190  145.7730 C   0  0  0  0  0  1  0  0  0  0  0  0
  193.7360  174.3290  143.8130 C   0  0  2  0  0  3  0  0  0  0  0  0
  1  7  1  0  0  0  0
  2 18  1  0  0  0  0
  2  9  1  0  0  0  0
  3  4  1  0  0  0  0
  5 17  1  0  0  0  0
  5 13  2  0  0  0  0
  6  9  2  0  0  0  0
  7 13  1  0  0  0  0
  7 19  1  1  0  0  0
  8  3  1  0  0  0  0
  9 10  1  0  0  0  0
 10  8  1  6  0  0  0
 11 16  1  0  0  0  0
 12 14  1  0  0  0  0
 12  1  1  0  0  0  0
 13  6  1  0  0  0  0
 14  5  1  0  0  0  0
 15  4  1  0  0  0  0
 16 10  1  0  0  0  0
 16 15  1  0  0  0  0
 17  2  2  0  0  0  0
 18 11  2  0  0  0  0
 19 21  1  0  0  0  0
 20 22  2  0  0  0  0
 20 23  1  0  0  0  0
 21 20  1  0  0  0  0
 24 11  1  0  0  0  0
 25 30  1  6  0  0  0
 25 26  1  0  0  0  0
 25 32  1  0  0  0  0
 26 29  1  0  0  0  0
 27 31  1  1  0  0  0
 28 27  1  0  0  0  0
 29 28  1  0  0  0  0
 32 24  1  1  0  0  0
 32 27  1  0  0  0  0
M  END
>  <MODEL>
9

>  <REMARK>
 VINA RESULT:      -7.2      2.247      4.162
  Name = 
  4 active torsions:
  status: ('A' for Active; 'I' for Inactive)
    1  A    between atoms: N_10  and  C_24
    2  A    between atoms: C_12  and  C_24
    3  A    between atoms: C_16  and  O_27
    4  A    between atoms: O_27  and  C_32
                            x       y       z     vdW  Elec       q    Type
                         _______ _______ _______ _____ _____    ______ ____

>  <TORSDO>
F 4

$$$$
