=
 OpenBabel11052418333D

 27 31  0  0  1  0  0  0  0  0999 V2000
  190.7190  176.5090  143.3620 N   0  0  0  0  0  0  0  0  0  0  0  0
  189.6050  176.9670  145.4670 N   0  0  0  0  0  0  0  0  0  0  0  0
  187.1010  175.5560  143.0150 C   0  0  0  0  0  2  0  0  0  0  0  0
  189.3650  177.5700  146.7090 N   0  0  0  0  0  2  0  0  0  0  0  0
  188.5520  174.6770  141.1230 C   0  0  0  0  0  0  0  0  0  0  0  0
  190.8280  177.1700  144.6770 C   0  0  1  0  0  3  0  0  0  0  0  0
  187.3330  176.7250  145.8650 C   0  0  1  0  0  3  0  0  0  0  0  0
  189.6220  175.9910  142.8880 C   0  0  0  0  0  0  0  0  0  0  0  0
  188.4160  176.5120  144.8990 C   0  0  0  0  0  0  0  0  0  0  0  0
  187.3760  174.4060  142.0420 C   0  0  0  0  0  2  0  0  0  0  0  0
  188.0170  177.2700  147.0510 N   0  0  0  0  0  2  0  0  0  0  0  0
  189.6090  175.3770  141.5540 C   0  0  0  0  0  3  0  0  0  0  0  0
  188.3730  176.0070  143.6700 C   0  0  0  0  0  0  0  0  0  0  0  0
  186.6360  178.6540  144.3790 C   0  0  0  0  0  3  0  0  0  0  0  0
  184.3980  179.4850  144.4600 N   0  0  0  0  0  0  0  0  0  0  0  0
  184.0650  178.5740  145.4130 C   0  0  0  0  0  3  0  0  0  0  0  0
  185.0190  177.6680  145.8810 C   0  0  0  0  0  3  0  0  0  0  0  0
  186.3140  177.7050  145.3600 C   0  0  0  0  0  0  0  0  0  0  0  0
  185.6530  179.5430  143.9380 C   0  0  0  0  0  3  0  0  0  0  0  0
  194.4290  175.5200  146.3950 C   0  0  0  0  0  2  0  0  0  0  0  0
  192.0630  176.6530  145.4260 C   0  0  0  0  0  3  0  0  0  0  0  0
  193.3600  177.0700  144.7080 C   0  0  0  0  0  2  0  0  0  0  0  0
  194.5600  176.1660  145.0200 C   0  0  0  0  0  2  0  0  0  0  0  0
  193.1770  174.6360  146.4770 C   0  0  0  0  0  2  0  0  0  0  0  0
  192.0210  175.1310  145.5970 C   0  0  0  0  0  2  0  0  0  0  0  0
  188.2170  172.8090  139.5480 C   0  0  0  0  0  1  0  0  0  0  0  0
  188.5870  174.1500  139.8310 O   0  0  0  0  0  0  0  0  0  0  0  0
  1  6  1  0  0  0  0
  2  4  1  0  0  0  0
  3 13  1  0  0  0  0
  4 11  1  0  0  0  0
  5 12  2  0  0  0  0
  5 10  1  0  0  0  0
  6 21  1  1  0  0  0
  6  2  1  0  0  0  0
  7 18  1  6  0  0  0
  7 11  1  0  0  0  0
  8  1  2  0  0  0  0
  8 13  1  0  0  0  0
  9  2  1  0  0  0  0
  9  7  1  0  0  0  0
 10  3  1  0  0  0  0
 12  8  1  0  0  0  0
 13  9  2  0  0  0  0
 14 18  1  0  0  0  0
 15 16  2  0  0  0  0
 16 17  1  0  0  0  0
 18 17  2  0  0  0  0
 19 14  2  0  0  0  0
 19 15  1  0  0  0  0
 20 24  1  0  0  0  0
 21 25  1  0  0  0  0
 22 23  1  0  0  0  0
 22 21  1  0  0  0  0
 23 20  1  0  0  0  0
 25 24  1  0  0  0  0
 26 27  1  0  0  0  0
 27  5  1  0  0  0  0
M  END
>  <MODEL>
1

>  <REMARK>
 VINA RESULT:      -7.5      0.000      0.000
  Name = 
  3 active torsions:
  status: ('A' for Active; 'I' for Inactive)
    1  A    between atoms: C_9  and  C_15
    2  A    between atoms: C_13  and  O_22
    3  A    between atoms: C_14  and  C_17
                            x       y       z     vdW  Elec       q    Type
                         _______ _______ _______ _____ _____    ______ ____

>  <TORSDO>
F 3

$$$$
=
 OpenBabel11052418333D

 27 31  0  0  1  0  0  0  0  0999 V2000
  188.8380  177.7950  145.4100 N   0  0  0  0  0  0  0  0  0  0  0  0
  188.3160  176.0120  143.8500 N   0  0  0  0  0  0  0  0  0  0  0  0
  191.1360  174.9050  146.1070 C   0  0  0  0  0  2  0  0  0  0  0  0
  187.8460  175.4030  142.6790 N   0  0  0  0  0  2  0  0  0  0  0  0
  191.1500  176.6600  147.9450 C   0  0  0  0  0  0  0  0  0  0  0  0
  188.1070  177.4290  144.1800 C   0  0  1  0  0  3  0  0  0  0  0  0
  189.4670  174.0070  143.6680 C   0  0  1  0  0  3  0  0  0  0  0  0
  189.7050  177.0260  146.0060 C   0  0  0  0  0  0  0  0  0  0  0  0
  189.3280  175.2500  144.4330 C   0  0  0  0  0  0  0  0  0  0  0  0
  191.2180  175.1820  147.6120 C   0  0  0  0  0  2  0  0  0  0  0  0
  188.4050  174.0940  142.6510 N   0  0  0  0  0  2  0  0  0  0  0  0
  190.4010  177.4920  147.2130 C   0  0  0  0  0  3  0  0  0  0  0  0
  190.0100  175.6800  145.4900 C   0  0  0  0  0  0  0  0  0  0  0  0
  191.3100  174.9350  142.2010 C   0  0  0  0  0  3  0  0  0  0  0  0
  193.2930  173.6600  141.8110 N   0  0  0  0  0  0  0  0  0  0  0  0
  192.8260  172.6450  142.5860 C   0  0  0  0  0  3  0  0  0  0  0  0
  191.5740  172.7480  143.1970 C   0  0  0  0  0  3  0  0  0  0  0  0
  190.8100  173.9020  143.0050 C   0  0  0  0  0  0  0  0  0  0  0  0
  192.5670  174.7920  141.6080 C   0  0  0  0  0  3  0  0  0  0  0  0
  184.0350  178.7230  144.7990 C   0  0  0  0  0  2  0  0  0  0  0  0
  186.6150  177.7470  144.3400 C   0  0  0  0  0  3  0  0  0  0  0  0
  186.2520  179.0650  143.6330 C   0  0  0  0  0  2  0  0  0  0  0  0
  184.9920  179.7420  144.1910 C   0  0  0  0  0  2  0  0  0  0  0  0
  184.6900  177.9760  145.9690 C   0  0  0  0  0  2  0  0  0  0  0  0
  186.2080  177.8100  145.8150 C   0  0  0  0  0  2  0  0  0  0  0  0
  191.3160  178.2750  149.8030 C   0  0  0  0  0  1  0  0  0  0  0  0
  191.8150  177.1720  149.0600 O   0  0  0  0  0  0  0  0  0  0  0  0
  1  8  2  0  0  0  0
  2  6  1  0  0  0  0
  2  9  1  0  0  0  0
  3 10  1  0  0  0  0
  4  2  1  0  0  0  0
  5 27  1  0  0  0  0
  6 21  1  1  0  0  0
  6  1  1  0  0  0  0
  7 18  1  6  0  0  0
  7  9  1  0  0  0  0
  8 12  1  0  0  0  0
  9 13  2  0  0  0  0
 10  5  1  0  0  0  0
 11  4  1  0  0  0  0
 11  7  1  0  0  0  0
 12  5  2  0  0  0  0
 13  8  1  0  0  0  0
 13  3  1  0  0  0  0
 14 18  1  0  0  0  0
 15 16  2  0  0  0  0
 16 17  1  0  0  0  0
 18 17  2  0  0  0  0
 19 15  1  0  0  0  0
 19 14  2  0  0  0  0
 20 24  1  0  0  0  0
 21 25  1  0  0  0  0
 22 23  1  0  0  0  0
 22 21  1  0  0  0  0
 23 20  1  0  0  0  0
 25 24  1  0  0  0  0
 27 26  1  0  0  0  0
M  END
>  <MODEL>
2

>  <REMARK>
 VINA RESULT:      -7.4      3.075      7.294
  Name = 
  3 active torsions:
  status: ('A' for Active; 'I' for Inactive)
    1  A    between atoms: C_9  and  C_15
    2  A    between atoms: C_13  and  O_22
    3  A    between atoms: C_14  and  C_17
                            x       y       z     vdW  Elec       q    Type
                         _______ _______ _______ _____ _____    ______ ____

>  <TORSDO>
F 3

$$$$
=
 OpenBabel11052418333D

 27 31  0  0  1  0  0  0  0  0999 V2000
  188.7940  174.3110  142.9120 N   0  0  0  0  0  0  0  0  0  0  0  0
  187.9620  175.9860  141.3660 N   0  0  0  0  0  0  0  0  0  0  0  0
  188.4430  177.5600  144.7670 C   0  0  0  0  0  2  0  0  0  0  0  0
  187.3030  176.5120  140.2480 N   0  0  0  0  0  2  0  0  0  0  0  0
  189.7840  175.8190  146.0430 C   0  0  0  0  0  0  0  0  0  0  0  0
  188.2000  174.5510  141.5820 C   0  0  1  0  0  3  0  0  0  0  0  0
  187.4030  178.1670  141.9230 C   0  0  1  0  0  3  0  0  0  0  0  0
  188.9050  175.2170  143.8410 C   0  0  0  0  0  0  0  0  0  0  0  0
  187.9840  176.9120  142.4090 C   0  0  0  0  0  0  0  0  0  0  0  0
  189.6260  177.2880  145.7020 C   0  0  0  0  0  2  0  0  0  0  0  0
  187.1170  177.8990  140.5020 N   0  0  0  0  0  2  0  0  0  0  0  0
  189.4880  174.8720  145.1450 C   0  0  0  0  0  3  0  0  0  0  0  0
  188.4530  176.6010  143.6140 C   0  0  0  0  0  0  0  0  0  0  0  0
  186.1360  179.4070  143.7310 C   0  0  0  0  0  3  0  0  0  0  0  0
  183.7730  179.1350  143.9440 N   0  0  0  0  0  0  0  0  0  0  0  0
  183.7500  178.2680  142.8970 C   0  0  0  0  0  3  0  0  0  0  0  0
  184.9330  177.9430  142.2300 C   0  0  0  0  0  3  0  0  0  0  0  0
  186.1360  178.5180  142.6470 C   0  0  0  0  0  0  0  0  0  0  0  0
  184.9310  179.7060  144.3710 C   0  0  0  0  0  3  0  0  0  0  0  0
  190.6400  172.5040  138.6670 C   0  0  0  0  0  2  0  0  0  0  0  0
  189.1040  173.9700  140.4880 C   0  0  0  0  0  3  0  0  0  0  0  0
  188.3440  172.9410  139.6310 C   0  0  0  0  0  2  0  0  0  0  0  0
  189.2540  171.9240  138.9280 C   0  0  0  0  0  2  0  0  0  0  0  0
  191.3370  172.8890  139.9780 C   0  0  0  0  0  2  0  0  0  0  0  0
  190.3650  173.3330  141.0800 C   0  0  0  0  0  2  0  0  0  0  0  0
  191.2030  176.2330  148.0190 C   0  0  0  0  0  1  0  0  0  0  0  0
  190.3020  175.4230  147.2780 O   0  0  0  0  0  0  0  0  0  0  0  0
  1  8  2  0  0  0  0
  2  6  1  0  0  0  0
  2  9  1  0  0  0  0
  3 10  1  0  0  0  0
  4 11  1  0  0  0  0
  4  2  1  0  0  0  0
  5 27  1  0  0  0  0
  6 21  1  6  0  0  0
  6  1  1  0  0  0  0
  7  9  1  0  0  0  0
  7 18  1  1  0  0  0
  8 12  1  0  0  0  0
  9 13  2  0  0  0  0
 10  5  1  0  0  0  0
 11  7  1  0  0  0  0
 12  5  2  0  0  0  0
 13  8  1  0  0  0  0
 13  3  1  0  0  0  0
 14 19  1  0  0  0  0
 15 19  2  0  0  0  0
 16 15  1  0  0  0  0
 17 18  1  0  0  0  0
 17 16  2  0  0  0  0
 18 14  2  0  0  0  0
 20 23  1  0  0  0  0
 20 24  1  0  0  0  0
 21 25  1  0  0  0  0
 22 21  1  0  0  0  0
 23 22  1  0  0  0  0
 24 25  1  0  0  0  0
 27 26  1  0  0  0  0
M  END
>  <MODEL>
3

>  <REMARK>
 VINA RESULT:      -7.3      2.964      5.372
  Name = 
  3 active torsions:
  status: ('A' for Active; 'I' for Inactive)
    1  A    between atoms: C_9  and  C_15
    2  A    between atoms: C_13  and  O_22
    3  A    between atoms: C_14  and  C_17
                            x       y       z     vdW  Elec       q    Type
                         _______ _______ _______ _____ _____    ______ ____

>  <TORSDO>
F 3

$$$$
=
 OpenBabel11052418333D

 27 31  0  0  1  0  0  0  0  0999 V2000
  189.3870  176.9880  144.2420 N   0  0  0  0  0  0  0  0  0  0  0  0
  188.3330  175.1310  143.0920 N   0  0  0  0  0  0  0  0  0  0  0  0
  191.7040  174.0340  144.3970 C   0  0  0  0  0  2  0  0  0  0  0  0
  187.4880  174.4660  142.1930 N   0  0  0  0  0  2  0  0  0  0  0  0
  192.3690  175.9110  145.9760 C   0  0  0  0  0  0  0  0  0  0  0  0
  188.2840  176.5770  143.3510 C   0  0  1  0  0  3  0  0  0  0  0  0
  189.3030  173.0580  142.7170 C   0  0  1  0  0  3  0  0  0  0  0  0
  190.3790  176.2170  144.5860 C   0  0  0  0  0  0  0  0  0  0  0  0
  189.4580  174.3580  143.3770 C   0  0  0  0  0  0  0  0  0  0  0  0
  192.2820  174.4110  145.7640 C   0  0  0  0  0  2  0  0  0  0  0  0
  187.9690  173.1310  142.0950 N   0  0  0  0  0  2  0  0  0  0  0  0
  191.4450  176.7290  145.4590 C   0  0  0  0  0  3  0  0  0  0  0  0
  190.4610  174.8240  144.1160 C   0  0  0  0  0  0  0  0  0  0  0  0
  190.5820  173.7740  140.6520 C   0  0  0  0  0  3  0  0  0  0  0  0
  192.2970  172.3740  139.7550 N   0  0  0  0  0  0  0  0  0  0  0  0
  192.0880  171.4470  140.7290 C   0  0  0  0  0  3  0  0  0  0  0  0
  191.1090  171.6600  141.7010 C   0  0  0  0  0  3  0  0  0  0  0  0
  190.3510  172.8330  141.6650 C   0  0  0  0  0  0  0  0  0  0  0  0
  191.5710  173.5220  139.6980 C   0  0  0  0  0  3  0  0  0  0  0  0
  184.7150  178.0520  145.2820 C   0  0  0  0  0  2  0  0  0  0  0  0
  186.9360  176.9850  143.9590 C   0  0  0  0  0  3  0  0  0  0  0  0
  186.6400  178.4730  143.6990 C   0  0  0  0  0  2  0  0  0  0  0  0
  185.6630  179.0970  144.7040 C   0  0  0  0  0  2  0  0  0  0  0  0
  185.4860  176.9600  146.0350 C   0  0  0  0  0  2  0  0  0  0  0  0
  186.8850  176.6930  145.4620 C   0  0  0  0  0  2  0  0  0  0  0  0
  194.5010  177.1300  146.2120 C   0  0  0  0  0  1  0  0  0  0  0  0
  193.3770  176.4640  146.7680 O   0  0  0  0  0  0  0  0  0  0  0  0
  1  8  2  0  0  0  0
  2  6  1  0  0  0  0
  2  9  1  0  0  0  0
  3 10  1  0  0  0  0
  4  2  1  0  0  0  0
  5 27  1  0  0  0  0
  6 21  1  1  0  0  0
  6  1  1  0  0  0  0
  7 18  1  6  0  0  0
  7  9  1  0  0  0  0
  8 12  1  0  0  0  0
  9 13  2  0  0  0  0
 10  5  1  0  0  0  0
 11  4  1  0  0  0  0
 11  7  1  0  0  0  0
 12  5  2  0  0  0  0
 13  3  1  0  0  0  0
 13  8  1  0  0  0  0
 14 18  1  0  0  0  0
 15 16  2  0  0  0  0
 16 17  1  0  0  0  0
 18 17  2  0  0  0  0
 19 15  1  0  0  0  0
 19 14  2  0  0  0  0
 20 24  1  0  0  0  0
 21 25  1  0  0  0  0
 22 21  1  0  0  0  0
 22 23  1  0  0  0  0
 23 20  1  0  0  0  0
 25 24  1  0  0  0  0
 26 27  1  0  0  0  0
M  END
>  <MODEL>
4

>  <REMARK>
 VINA RESULT:      -7.1      2.956      7.107
  Name = 
  3 active torsions:
  status: ('A' for Active; 'I' for Inactive)
    1  A    between atoms: C_9  and  C_15
    2  A    between atoms: C_13  and  O_22
    3  A    between atoms: C_14  and  C_17
                            x       y       z     vdW  Elec       q    Type
                         _______ _______ _______ _____ _____    ______ ____

>  <TORSDO>
F 3

$$$$
=
 OpenBabel11052418333D

 27 31  0  0  1  0  0  0  0  0999 V2000
  190.4560  177.4670  143.6110 N   0  0  0  0  0  0  0  0  0  0  0  0
  189.8280  176.5020  145.7470 N   0  0  0  0  0  0  0  0  0  0  0  0
  186.7480  176.8650  143.5900 C   0  0  0  0  0  2  0  0  0  0  0  0
  189.9050  176.2020  147.1130 N   0  0  0  0  0  2  0  0  0  0  0  0
  187.6920  177.3740  141.2860 C   0  0  0  0  0  0  0  0  0  0  0  0
  190.8950  177.1740  144.9900 C   0  0  1  0  0  3  0  0  0  0  0  0
  187.6610  176.0230  146.4180 C   0  0  1  0  0  3  0  0  0  0  0  0
  189.2330  177.3330  143.1850 C   0  0  0  0  0  0  0  0  0  0  0  0
  188.5050  176.4740  145.3070 C   0  0  0  0  0  0  0  0  0  0  0  0
  186.6870  176.5700  142.0880 C   0  0  0  0  0  2  0  0  0  0  0  0
  188.6200  175.7290  147.4970 N   0  0  0  0  0  2  0  0  0  0  0  0
  188.8910  177.6770  141.7990 C   0  0  0  0  0  3  0  0  0  0  0  0
  188.1670  176.8380  144.0740 C   0  0  0  0  0  0  0  0  0  0  0  0
  187.1200  178.1920  147.6070 C   0  0  0  0  0  3  0  0  0  0  0  0
  184.8800  179.0190  147.6400 N   0  0  0  0  0  0  0  0  0  0  0  0
  184.4460  177.9520  146.9160 C   0  0  0  0  0  3  0  0  0  0  0  0
  185.3480  176.9650  146.5120 C   0  0  0  0  0  3  0  0  0  0  0  0
  186.6960  177.0850  146.8580 C   0  0  0  0  0  0  0  0  0  0  0  0
  186.1860  179.1580  147.9900 C   0  0  0  0  0  3  0  0  0  0  0  0
  194.3100  174.5460  145.2610 C   0  0  0  0  0  2  0  0  0  0  0  0
  192.1740  176.3280  144.9680 C   0  0  0  0  0  3  0  0  0  0  0  0
  191.8480  174.8370  144.7670 C   0  0  0  0  0  2  0  0  0  0  0  0
  192.9350  173.8870  145.2870 C   0  0  0  0  0  2  0  0  0  0  0  0
  194.3460  175.7920  146.1560 C   0  0  0  0  0  2  0  0  0  0  0  0
  192.9970  176.5180  146.2470 C   0  0  0  0  0  2  0  0  0  0  0  0
  186.3670  177.1760  139.2140 C   0  0  0  0  0  1  0  0  0  0  0  0
  187.4150  177.7600  139.9730 O   0  0  0  0  0  0  0  0  0  0  0  0
  1  6  1  0  0  0  0
  2  4  1  0  0  0  0
  3 13  1  0  0  0  0
  4 11  1  0  0  0  0
  5 12  2  0  0  0  0
  5 10  1  0  0  0  0
  6 21  1  6  0  0  0
  6  2  1  0  0  0  0
  7 18  1  1  0  0  0
  7 11  1  0  0  0  0
  8  1  2  0  0  0  0
  8 13  1  0  0  0  0
  9  2  1  0  0  0  0
  9  7  1  0  0  0  0
 10  3  1  0  0  0  0
 12  8  1  0  0  0  0
 13  9  2  0  0  0  0
 14 19  1  0  0  0  0
 15 19  2  0  0  0  0
 16 15  1  0  0  0  0
 17 18  1  0  0  0  0
 17 16  2  0  0  0  0
 18 14  2  0  0  0  0
 20 23  1  0  0  0  0
 20 24  1  0  0  0  0
 21 25  1  0  0  0  0
 22 21  1  0  0  0  0
 22 23  1  0  0  0  0
 24 25  1  0  0  0  0
 26 27  1  0  0  0  0
 27  5  1  0  0  0  0
M  END
>  <MODEL>
5

>  <REMARK>
 VINA RESULT:      -7.1      1.973      2.259
  Name = 
  3 active torsions:
  status: ('A' for Active; 'I' for Inactive)
    1  A    between atoms: C_9  and  C_15
    2  A    between atoms: C_13  and  O_22
    3  A    between atoms: C_14  and  C_17
                            x       y       z     vdW  Elec       q    Type
                         _______ _______ _______ _____ _____    ______ ____

>  <TORSDO>
F 3

$$$$
=
 OpenBabel11052418333D

 27 31  0  0  1  0  0  0  0  0999 V2000
  189.7360  174.4350  143.2430 N   0  0  0  0  0  0  0  0  0  0  0  0
  188.0210  175.8840  142.3240 N   0  0  0  0  0  0  0  0  0  0  0  0
  189.5180  177.5130  145.3860 C   0  0  0  0  0  2  0  0  0  0  0  0
  186.8700  176.2520  141.6160 N   0  0  0  0  0  2  0  0  0  0  0  0
  191.5890  176.1150  145.8510 C   0  0  0  0  0  0  0  0  0  0  0  0
  188.6140  174.5390  142.2880 C   0  0  1  0  0  3  0  0  0  0  0  0
  187.3060  177.8800  143.2620 C   0  0  1  0  0  3  0  0  0  0  0  0
  190.0290  175.3380  144.1340 C   0  0  0  0  0  0  0  0  0  0  0  0
  188.2780  176.7870  143.3550 C   0  0  0  0  0  0  0  0  0  0  0  0
  191.0090  177.5120  145.7430 C   0  0  0  0  0  2  0  0  0  0  0  0
  186.5250  177.5610  142.0540 N   0  0  0  0  0  2  0  0  0  0  0  0
  191.1520  175.1290  145.0580 C   0  0  0  0  0  3  0  0  0  0  0  0
  189.2520  176.5860  144.2380 C   0  0  0  0  0  0  0  0  0  0  0  0
  186.0170  176.7680  145.1370 C   0  0  0  0  0  3  0  0  0  0  0  0
  184.7440  178.0870  146.6690 N   0  0  0  0  0  0  0  0  0  0  0  0
  185.1060  179.2300  146.0270 C   0  0  0  0  0  3  0  0  0  0  0  0
  185.9420  179.1730  144.9100 C   0  0  0  0  0  3  0  0  0  0  0  0
  186.4040  177.9330  144.4610 C   0  0  0  0  0  0  0  0  0  0  0  0
  185.1790  176.8680  146.2500 C   0  0  0  0  0  3  0  0  0  0  0  0
  189.9710  173.0990  138.4510 C   0  0  0  0  0  2  0  0  0  0  0  0
  189.0900  174.1810  140.8750 C   0  0  0  0  0  3  0  0  0  0  0  0
  188.1910  173.1000  140.2460 C   0  0  0  0  0  2  0  0  0  0  0  0
  188.8770  172.2890  139.1380 C   0  0  0  0  0  2  0  0  0  0  0  0
  191.0680  173.5060  139.4440 C   0  0  0  0  0  2  0  0  0  0  0  0
  190.5500  173.7170  140.8730 C   0  0  0  0  0  2  0  0  0  0  0  0
  193.9580  176.3100  146.5130 C   0  0  0  0  0  1  0  0  0  0  0  0
  192.6360  175.8420  146.7330 O   0  0  0  0  0  0  0  0  0  0  0  0
  1  8  2  0  0  0  0
  2  9  1  0  0  0  0
  3 10  1  0  0  0  0
  4 11  1  0  0  0  0
  4  2  1  0  0  0  0
  5 27  1  0  0  0  0
  6 21  1  6  0  0  0
  6  2  1  0  0  0  0
  6  1  1  0  0  0  0
  7  9  1  0  0  0  0
  7 18  1  1  0  0  0
  8 13  1  0  0  0  0
  8 12  1  0  0  0  0
  9 13  2  0  0  0  0
 10  5  1  0  0  0  0
 11  7  1  0  0  0  0
 12  5  2  0  0  0  0
 13  3  1  0  0  0  0
 14 19  1  0  0  0  0
 16 15  1  0  0  0  0
 17 16  2  0  0  0  0
 18 17  1  0  0  0  0
 18 14  2  0  0  0  0
 19 15  2  0  0  0  0
 20 23  1  0  0  0  0
 20 24  1  0  0  0  0
 22 21  1  0  0  0  0
 23 22  1  0  0  0  0
 24 25  1  0  0  0  0
 25 21  1  0  0  0  0
 26 27  1  0  0  0  0
M  END
>  <MODEL>
6

>  <REMARK>
 VINA RESULT:      -7.1      2.420      5.285
  Name = 
  3 active torsions:
  status: ('A' for Active; 'I' for Inactive)
    1  A    between atoms: C_9  and  C_15
    2  A    between atoms: C_13  and  O_22
    3  A    between atoms: C_14  and  C_17
                            x       y       z     vdW  Elec       q    Type
                         _______ _______ _______ _____ _____    ______ ____

>  <TORSDO>
F 3

$$$$
=
 OpenBabel11052418333D

 27 31  0  0  1  0  0  0  0  0999 V2000
  191.5010  175.4320  142.4110 N   0  0  0  0  0  0  0  0  0  0  0  0
  190.2880  176.5890  144.1640 N   0  0  0  0  0  0  0  0  0  0  0  0
  187.9110  174.3320  142.2850 C   0  0  0  0  0  2  0  0  0  0  0  0
  189.9850  177.5900  145.0960 N   0  0  0  0  0  2  0  0  0  0  0  0
  189.4550  172.8690  140.8950 C   0  0  0  0  0  0  0  0  0  0  0  0
  191.5440  176.5240  143.4040 C   0  0  1  0  0  3  0  0  0  0  0  0
  188.0020  176.4500  144.5310 C   0  0  1  0  0  3  0  0  0  0  0  0
  190.4310  174.7530  142.1110 C   0  0  0  0  0  0  0  0  0  0  0  0
  189.1290  175.9310  143.7510 C   0  0  0  0  0  0  0  0  0  0  0  0
  188.2400  172.9160  141.8020 C   0  0  0  0  0  2  0  0  0  0  0  0
  188.6250  177.4010  145.4690 N   0  0  0  0  0  2  0  0  0  0  0  0
  190.4850  173.7010  141.0870 C   0  0  0  0  0  3  0  0  0  0  0  0
  189.1480  175.0180  142.7840 C   0  0  0  0  0  0  0  0  0  0  0  0
  185.6210  176.9900  143.8590 C   0  0  0  0  0  3  0  0  0  0  0  0
  185.1940  178.4930  142.0520 N   0  0  0  0  0  0  0  0  0  0  0  0
  186.5270  178.6710  141.8480 C   0  0  0  0  0  3  0  0  0  0  0  0
  187.4540  178.0050  142.6530 C   0  0  0  0  0  3  0  0  0  0  0  0
  186.9990  177.1590  143.6670 C   0  0  0  0  0  0  0  0  0  0  0  0
  184.7260  177.6740  143.0320 C   0  0  0  0  0  3  0  0  0  0  0  0
  195.0020  175.6100  145.8230 C   0  0  0  0  0  2  0  0  0  0  0  0
  192.7470  176.3410  144.3380 C   0  0  0  0  0  3  0  0  0  0  0  0
  194.0360  176.0820  143.5350 C   0  0  0  0  0  2  0  0  0  0  0  0
  195.1230  175.3430  144.3270 C   0  0  0  0  0  2  0  0  0  0  0  0
  193.6510  175.1240  146.3670 C   0  0  0  0  0  2  0  0  0  0  0  0
  192.5140  175.2040  145.3390 C   0  0  0  0  0  2  0  0  0  0  0  0
  190.6470  171.0120  139.7900 C   0  0  0  0  0  1  0  0  0  0  0  0
  189.5540  171.9140  139.8820 O   0  0  0  0  0  0  0  0  0  0  0  0
  1  6  1  0  0  0  0
  2  4  1  0  0  0  0
  3 13  1  0  0  0  0
  4 11  1  0  0  0  0
  5 12  2  0  0  0  0
  5 10  1  0  0  0  0
  6  2  1  0  0  0  0
  6 21  1  1  0  0  0
  7 18  1  6  0  0  0
  7 11  1  0  0  0  0
  8  1  2  0  0  0  0
  8 13  1  0  0  0  0
  9  2  1  0  0  0  0
  9  7  1  0  0  0  0
 10  3  1  0  0  0  0
 12  8  1  0  0  0  0
 13  9  2  0  0  0  0
 15 19  1  0  0  0  0
 16 15  2  0  0  0  0
 16 17  1  0  0  0  0
 17 18  2  0  0  0  0
 18 14  1  0  0  0  0
 19 14  2  0  0  0  0
 20 24  1  0  0  0  0
 21 25  1  0  0  0  0
 22 23  1  0  0  0  0
 22 21  1  0  0  0  0
 23 20  1  0  0  0  0
 25 24  1  0  0  0  0
 26 27  1  0  0  0  0
 27  5  1  0  0  0  0
M  END
>  <MODEL>
7

>  <REMARK>
 VINA RESULT:      -7.1      1.634      2.062
  Name = 
  3 active torsions:
  status: ('A' for Active; 'I' for Inactive)
    1  A    between atoms: C_9  and  C_15
    2  A    between atoms: C_13  and  O_22
    3  A    between atoms: C_14  and  C_17
                            x       y       z     vdW  Elec       q    Type
                         _______ _______ _______ _____ _____    ______ ____

>  <TORSDO>
F 3

$$$$
=
 OpenBabel11052418333D

 27 31  0  0  1  0  0  0  0  0999 V2000
  187.8420  175.5190  143.1160 N   0  0  0  0  0  0  0  0  0  0  0  0
  189.6110  177.0030  143.8580 N   0  0  0  0  0  0  0  0  0  0  0  0
  191.0710  174.3700  141.5760 C   0  0  0  0  0  2  0  0  0  0  0  0
  190.2860  177.9160  144.6790 N   0  0  0  0  0  2  0  0  0  0  0  0
  189.0230  173.2910  140.5270 C   0  0  0  0  0  0  0  0  0  0  0  0
  188.2150  176.5890  144.0620 C   0  0  1  0  0  3  0  0  0  0  0  0
  191.8650  176.7550  143.3710 C   0  0  1  0  0  3  0  0  0  0  0  0
  188.6850  174.8910  142.3460 C   0  0  0  0  0  0  0  0  0  0  0  0
  190.5140  176.2450  143.1140 C   0  0  0  0  0  0  0  0  0  0  0  0
  190.4110  173.8550  140.2920 C   0  0  0  0  0  2  0  0  0  0  0  0
  191.6460  177.9070  144.2630 N   0  0  0  0  0  2  0  0  0  0  0  0
  188.2170  173.8200  141.4560 C   0  0  0  0  0  3  0  0  0  0  0  0
  190.1180  175.2330  142.3470 C   0  0  0  0  0  0  0  0  0  0  0  0
  192.2810  175.0210  145.1680 C   0  0  0  0  0  3  0  0  0  0  0  0
  194.3660  173.8580  145.2570 N   0  0  0  0  0  0  0  0  0  0  0  0
  194.8240  174.5400  144.1730 C   0  0  0  0  0  3  0  0  0  0  0  0
  194.0140  175.4920  143.5500 C   0  0  0  0  0  3  0  0  0  0  0  0
  192.7310  175.7340  144.0490 C   0  0  0  0  0  0  0  0  0  0  0  0
  193.1230  174.0770  145.7630 C   0  0  0  0  0  3  0  0  0  0  0  0
  185.2220  179.6960  143.8970 C   0  0  0  0  0  2  0  0  0  0  0  0
  187.2580  177.7790  143.9170 C   0  0  0  0  0  3  0  0  0  0  0  0
  186.7700  178.2660  145.2940 C   0  0  0  0  0  2  0  0  0  0  0  0
  185.4340  179.0200  145.2480 C   0  0  0  0  0  2  0  0  0  0  0  0
  185.1870  178.6650  142.7610 C   0  0  0  0  0  2  0  0  0  0  0  0
  186.0610  177.4320  143.0270 C   0  0  0  0  0  2  0  0  0  0  0  0
  189.3000  171.6500  138.7050 C   0  0  0  0  0  1  0  0  0  0  0  0
  188.5310  172.2510  139.7360 O   0  0  0  0  0  0  0  0  0  0  0  0
  1  6  1  0  0  0  0
  2  6  1  0  0  0  0
  2  4  1  0  0  0  0
  3 13  1  0  0  0  0
  5 12  2  0  0  0  0
  6 21  1  6  0  0  0
  7 18  1  1  0  0  0
  7 11  1  0  0  0  0
  8 13  1  0  0  0  0
  8  1  2  0  0  0  0
  9  7  1  0  0  0  0
  9  2  1  0  0  0  0
 10  5  1  0  0  0  0
 10  3  1  0  0  0  0
 11  4  1  0  0  0  0
 12  8  1  0  0  0  0
 13  9  2  0  0  0  0
 14 19  1  0  0  0  0
 15 19  2  0  0  0  0
 16 15  1  0  0  0  0
 17 18  1  0  0  0  0
 17 16  2  0  0  0  0
 18 14  2  0  0  0  0
 20 23  1  0  0  0  0
 21 22  1  0  0  0  0
 23 22  1  0  0  0  0
 24 25  1  0  0  0  0
 24 20  1  0  0  0  0
 25 21  1  0  0  0  0
 26 27  1  0  0  0  0
 27  5  1  0  0  0  0
M  END
>  <MODEL>
8

>  <REMARK>
 VINA RESULT:      -7.0      1.821      6.338
  Name = 
  3 active torsions:
  status: ('A' for Active; 'I' for Inactive)
    1  A    between atoms: C_9  and  C_15
    2  A    between atoms: C_13  and  O_22
    3  A    between atoms: C_14  and  C_17
                            x       y       z     vdW  Elec       q    Type
                         _______ _______ _______ _____ _____    ______ ____

>  <TORSDO>
F 3

$$$$
=
 OpenBabel11052418333D

 27 31  0  0  1  0  0  0  0  0999 V2000
  193.1920  174.3440  143.2970 N   0  0  0  0  0  0  0  0  0  0  0  0
  192.7720  175.2710  145.4990 N   0  0  0  0  0  0  0  0  0  0  0  0
  189.7520  173.2940  144.3840 C   0  0  0  0  0  2  0  0  0  0  0  0
  192.8880  176.1460  146.5870 N   0  0  0  0  0  2  0  0  0  0  0  0
  190.5960  172.0120  142.3580 C   0  0  0  0  0  0  0  0  0  0  0  0
  193.6560  175.2970  144.3250 C   0  0  1  0  0  3  0  0  0  0  0  0
  190.7770  175.1020  146.6680 C   0  0  1  0  0  3  0  0  0  0  0  0
  192.0520  173.7170  143.3380 C   0  0  0  0  0  0  0  0  0  0  0  0
  191.5090  174.6810  145.4700 C   0  0  0  0  0  0  0  0  0  0  0  0
  189.8030  171.9500  143.6490 C   0  0  0  0  0  2  0  0  0  0  0  0
  191.7520  175.9190  147.4120 N   0  0  0  0  0  2  0  0  0  0  0  0
  191.6680  172.8060  142.2510 C   0  0  0  0  0  3  0  0  0  0  0  0
  191.1210  173.9010  144.4650 C   0  0  0  0  0  0  0  0  0  0  0  0
  188.3360  175.7090  146.9620 C   0  0  0  0  0  3  0  0  0  0  0  0
  187.3710  177.4710  145.6690 N   0  0  0  0  0  0  0  0  0  0  0  0
  188.5560  177.6960  145.0400 C   0  0  0  0  0  3  0  0  0  0  0  0
  189.6760  176.9250  145.3590 C   0  0  0  0  0  3  0  0  0  0  0  0
  189.5670  175.9240  146.3280 C   0  0  0  0  0  0  0  0  0  0  0  0
  187.2390  176.5020  146.6150 C   0  0  0  0  0  3  0  0  0  0  0  0
  197.7200  174.0790  145.1290 C   0  0  0  0  0  2  0  0  0  0  0  0
  195.1060  174.9860  144.7170 C   0  0  0  0  0  3  0  0  0  0  0  0
  196.0210  174.9640  143.4790 C   0  0  0  0  0  2  0  0  0  0  0  0
  197.2980  174.1330  143.6650 C   0  0  0  0  0  2  0  0  0  0  0  0
  196.6360  173.4230  145.9950 C   0  0  0  0  0  2  0  0  0  0  0  0
  195.2120  173.6570  145.4720 C   0  0  0  0  0  2  0  0  0  0  0  0
  190.1990  171.6870  139.9450 C   0  0  0  0  0  1  0  0  0  0  0  0
  190.2640  171.1960  141.2750 O   0  0  0  0  0  0  0  0  0  0  0  0
  1  8  2  0  0  0  0
  1  6  1  0  0  0  0
  2  4  1  0  0  0  0
  3 13  1  0  0  0  0
  4 11  1  0  0  0  0
  5 10  1  0  0  0  0
  6 21  1  1  0  0  0
  6  2  1  0  0  0  0
  7 18  1  6  0  0  0
  7 11  1  0  0  0  0
  8 13  1  0  0  0  0
  9  2  1  0  0  0  0
  9  7  1  0  0  0  0
 10  3  1  0  0  0  0
 12  5  2  0  0  0  0
 12  8  1  0  0  0  0
 13  9  2  0  0  0  0
 15 19  2  0  0  0  0
 16 17  2  0  0  0  0
 16 15  1  0  0  0  0
 17 18  1  0  0  0  0
 18 14  2  0  0  0  0
 19 14  1  0  0  0  0
 20 24  1  0  0  0  0
 21 25  1  0  0  0  0
 22 23  1  0  0  0  0
 22 21  1  0  0  0  0
 23 20  1  0  0  0  0
 25 24  1  0  0  0  0
 26 27  1  0  0  0  0
 27  5  1  0  0  0  0
M  END
>  <MODEL>
9

>  <REMARK>
 VINA RESULT:      -6.7      2.646      3.747
  Name = 
  3 active torsions:
  status: ('A' for Active; 'I' for Inactive)
    1  A    between atoms: C_9  and  C_15
    2  A    between atoms: C_13  and  O_22
    3  A    between atoms: C_14  and  C_17
                            x       y       z     vdW  Elec       q    Type
                         _______ _______ _______ _____ _____    ______ ____

>  <TORSDO>
F 3

$$$$
