=
 OpenBabel11052417303D

 25 29  0  0  1  0  0  0  0  0999 V2000
  186.4440  177.7900  143.9880 C   0  0  0  0  0  0  0  0  0  0  0  0
  185.7000  177.8440  142.8080 C   0  0  0  0  0  0  0  0  0  0  0  0
  188.4610  177.2870  142.7750 C   0  0  0  0  0  3  0  0  0  0  0  0
  186.1150  177.9650  145.3150 C   0  0  0  0  0  0  0  0  0  0  0  0
  186.2090  178.1720  148.0750 C   0  0  0  0  0  3  0  0  0  0  0  0
  187.7410  177.3370  141.6140 N   0  0  0  0  0  0  0  0  0  0  0  0
  187.2980  177.7840  146.0010 C   0  0  0  0  0  0  0  0  0  0  0  0
  187.3840  177.8710  147.2920 N   0  0  0  0  0  0  0  0  0  0  0  0
  185.6680  177.6500  140.3560 N   0  0  0  0  0  0  0  0  0  0  0  0
  186.3310  177.4120  139.0850 C   0  0  0  0  0  1  0  0  0  0  0  0
  184.3870  178.1060  142.7970 C   0  0  0  0  0  3  0  0  0  0  0  0
  185.0100  178.3640  147.4910 C   0  0  0  0  0  3  0  0  0  0  0  0
  187.7940  177.5190  143.9730 C   0  0  0  0  0  0  0  0  0  0  0  0
  188.2990  177.5170  145.1880 O   0  0  0  0  0  0  0  0  0  0  0  0
  184.2620  177.9330  140.3680 C   0  0  0  0  0  3  0  0  0  0  0  0
  184.8160  178.2810  145.9900 C   0  0  0  0  0  3  0  0  0  0  0  0
  183.6270  178.1540  141.5240 C   0  0  0  0  0  0  0  0  0  0  0  0
  186.3940  177.6060  141.5980 C   0  0  1  0  0  3  0  0  0  0  0  0
  182.1880  178.4400  141.5010 C   0  0  0  0  0  3  0  0  0  0  0  0
  181.4230  178.1520  140.4520 C   0  0  0  0  0  3  0  0  0  0  0  0
  179.9630  178.4600  140.4600 C   0  0  2  0  0  3  0  0  0  0  0  0
  179.7760  179.7850  140.0670 O   0  0  0  0  0  1  0  0  0  0  0  0
  179.3830  178.2580  141.8520 C   0  0  0  0  0  3  0  0  0  0  0  0
  178.2980  177.2000  141.8000 C   0  0  0  0  0  2  0  0  0  0  0  0
  177.9220  178.6640  141.8560 C   0  0  0  0  0  2  0  0  0  0  0  0
  1  4  1  0  0  0  0
  2  1  1  0  0  0  0
  3 13  1  0  0  0  0
  4 16  2  0  0  0  0
  4  7  1  0  0  0  0
  6  3  2  0  0  0  0
  7  8  2  0  0  0  0
  8  5  1  0  0  0  0
  9 15  1  0  0  0  0
  9 18  1  0  0  0  0
 10  9  1  0  0  0  0
 11  2  2  0  0  0  0
 12  5  2  0  0  0  0
 13  1  2  0  0  0  0
 13 14  1  0  0  0  0
 14  7  1  0  0  0  0
 15 17  2  0  0  0  0
 16 12  1  0  0  0  0
 17 11  1  0  0  0  0
 18  6  1  1  0  0  0
 18  2  1  0  0  0  0
 19 17  1  0  0  0  0
 20 21  1  0  0  0  0
 20 19  2  0  0  0  0
 21 22  1  1  0  0  0
 21 23  1  0  0  0  0
 23 25  1  0  0  0  0
 24 23  1  0  0  0  0
 24 25  1  0  0  0  0
M  END
>  <MODEL>
1

>  <REMARK>
 VINA RESULT:      -7.9      0.000      0.000
  Name = 
  3 active torsions:
  status: ('A' for Active; 'I' for Inactive)
    1  A    between atoms: C_2  and  C_21
    2  A    between atoms: C_6  and  C_23
    3  A    between atoms: C_15  and  C_21
                            x       y       z     vdW  Elec       q    Type
                         _______ _______ _______ _____ _____    ______ ____

>  <TORSDO>
F 3

$$$$
=
 OpenBabel11052417303D

 25 29  0  0  1  0  0  0  0  0999 V2000
  185.8930  178.0090  143.5250 C   0  0  0  0  0  0  0  0  0  0  0  0
  186.6910  177.8690  144.6610 C   0  0  0  0  0  0  0  0  0  0  0  0
  184.0520  178.8380  144.8370 C   0  0  0  0  0  3  0  0  0  0  0  0
  186.1100  177.7610  142.1870 C   0  0  0  0  0  0  0  0  0  0  0  0
  185.8180  177.5150  139.4440 C   0  0  0  0  0  3  0  0  0  0  0  0
  184.8260  178.7030  145.9550 N   0  0  0  0  0  0  0  0  0  0  0  0
  184.9290  178.1050  141.5650 C   0  0  0  0  0  0  0  0  0  0  0  0
  184.7510  178.0040  140.2850 N   0  0  0  0  0  0  0  0  0  0  0  0
  186.9010  178.1050  147.1010 N   0  0  0  0  0  0  0  0  0  0  0  0
  186.3600  178.4650  148.4000 C   0  0  0  0  0  1  0  0  0  0  0  0
  187.9490  177.4100  144.6050 C   0  0  0  0  0  3  0  0  0  0  0  0
  187.0080  177.1540  139.9640 C   0  0  0  0  0  3  0  0  0  0  0  0
  184.6030  178.4830  143.6100 C   0  0  0  0  0  0  0  0  0  0  0  0
  184.0300  178.5370  142.4260 O   0  0  0  0  0  0  0  0  0  0  0  0
  188.2460  177.6120  147.0170 C   0  0  0  0  0  3  0  0  0  0  0  0
  187.3040  177.2380  141.4480 C   0  0  0  0  0  2  0  0  0  0  0  0
  188.7680  177.2730  145.8330 C   0  0  0  0  0  0  0  0  0  0  0  0
  186.1160  178.2330  145.9020 C   0  0  0  0  0  0  0  0  0  0  0  0
  190.1470  176.7720  145.7830 C   0  0  0  0  0  3  0  0  0  0  0  0
  191.0080  177.1550  144.8460 C   0  0  0  0  0  3  0  0  0  0  0  0
  192.4020  176.6230  144.8210 C   0  0  2  0  0  3  0  0  0  0  0  0
  192.4630  175.5500  143.9330 O   0  0  0  0  0  1  0  0  0  0  0  0
  192.8190  176.1560  146.2080 C   0  0  0  0  0  3  0  0  0  0  0  0
  194.1250  176.8210  146.5940 C   0  0  0  0  0  2  0  0  0  0  0  0
  194.1220  175.3880  146.1130 C   0  0  0  0  0  2  0  0  0  0  0  0
  1 13  1  0  0  0  0
  1  2  1  0  0  0  0
  2 18  1  0  0  0  0
  3  6  1  0  0  0  0
  4  1  2  0  0  0  0
  5 12  2  0  0  0  0
  5  8  1  0  0  0  0
  7  4  1  0  0  0  0
  7 14  1  0  0  0  0
  8  7  2  0  0  0  0
  9 10  1  0  0  0  0
 11  2  2  0  0  0  0
 11 17  1  0  0  0  0
 12 16  1  0  0  0  0
 13  3  2  0  0  0  0
 14 13  1  0  0  0  0
 15  9  1  0  0  0  0
 16  4  1  0  0  0  0
 17 15  2  0  0  0  0
 18  6  2  0  0  0  0
 18  9  1  0  0  0  0
 19 17  1  0  0  0  0
 20 19  2  0  0  0  0
 21 22  1  6  0  0  0
 21 20  1  0  0  0  0
 21 23  1  0  0  0  0
 23 24  1  0  0  0  0
 25 23  1  0  0  0  0
 25 24  1  0  0  0  0
M  END
>  <MODEL>
2

>  <REMARK>
 VINA RESULT:      -7.7      3.135      8.872
  Name = 
  3 active torsions:
  status: ('A' for Active; 'I' for Inactive)
    1  A    between atoms: C_2  and  C_21
    2  A    between atoms: C_6  and  C_23
    3  A    between atoms: C_15  and  C_21
                            x       y       z     vdW  Elec       q    Type
                         _______ _______ _______ _____ _____    ______ ____

>  <TORSDO>
F 3

$$$$
=
 OpenBabel11052417303D

 25 29  0  0  1  0  0  0  0  0999 V2000
  185.6460  177.5870  143.6420 C   0  0  0  0  0  0  0  0  0  0  0  0
  186.5170  176.9500  142.7570 C   0  0  0  0  0  0  0  0  0  0  0  0
  184.3340  178.4680  141.8260 C   0  0  0  0  0  3  0  0  0  0  0  0
  185.5900  177.6580  145.0170 C   0  0  0  0  0  0  0  0  0  0  0  0
  184.8590  178.2380  147.6240 C   0  0  0  0  0  3  0  0  0  0  0  0
  185.1820  177.8480  140.9520 N   0  0  0  0  0  0  0  0  0  0  0  0
  184.4890  178.4430  145.2880 C   0  0  0  0  0  0  0  0  0  0  0  0
  184.1130  178.7380  146.4940 N   0  0  0  0  0  0  0  0  0  0  0  0
  187.1260  176.4640  140.4240 N   0  0  0  0  0  0  0  0  0  0  0  0
  186.9030  176.5880  138.9930 C   0  0  0  0  0  1  0  0  0  0  0  0
  187.5620  176.2230  143.1730 C   0  0  0  0  0  3  0  0  0  0  0  0
  185.9490  177.4650  147.4570 C   0  0  0  0  0  3  0  0  0  0  0  0
  184.5780  178.3290  143.1890 C   0  0  0  0  0  0  0  0  0  0  0  0
  183.8880  178.8400  144.1860 O   0  0  0  0  0  0  0  0  0  0  0  0
  188.2390  175.6900  140.8920 C   0  0  0  0  0  3  0  0  0  0  0  0
  186.4610  177.0700  146.0850 C   0  0  0  0  0  3  0  0  0  0  0  0
  188.4680  175.5610  142.2040 C   0  0  0  0  0  0  0  0  0  0  0  0
  186.2540  177.1020  141.3740 C   0  0  1  0  0  3  0  0  0  0  0  0
  189.6160  174.7620  142.6490 C   0  0  0  0  0  3  0  0  0  0  0  0
  190.0090  174.7300  143.9190 C   0  0  0  0  0  3  0  0  0  0  0  0
  191.1820  173.9100  144.3380 C   0  0  2  0  0  3  0  0  0  0  0  0
  190.7390  172.6420  144.7160 O   0  0  0  0  0  1  0  0  0  0  0  0
  191.9000  174.5650  145.5080 C   0  0  0  0  0  3  0  0  0  0  0  0
  193.1980  175.1830  145.0250 C   0  0  0  0  0  2  0  0  0  0  0  0
  193.2190  173.8580  145.7530 C   0  0  0  0  0  2  0  0  0  0  0  0
  1  4  1  0  0  0  0
  2 11  2  0  0  0  0
  2  1  1  0  0  0  0
  3 13  1  0  0  0  0
  4  7  1  0  0  0  0
  4 16  2  0  0  0  0
  6  3  2  0  0  0  0
  7  8  2  0  0  0  0
  8  5  1  0  0  0  0
  9 15  1  0  0  0  0
  9 18  1  0  0  0  0
 10  9  1  0  0  0  0
 12  5  2  0  0  0  0
 13  1  2  0  0  0  0
 13 14  1  0  0  0  0
 14  7  1  0  0  0  0
 15 17  2  0  0  0  0
 16 12  1  0  0  0  0
 17 19  1  0  0  0  0
 17 11  1  0  0  0  0
 18  6  1  6  0  0  0
 18  2  1  0  0  0  0
 19 20  2  0  0  0  0
 20 21  1  0  0  0  0
 21 22  1  1  0  0  0
 21 23  1  0  0  0  0
 23 25  1  0  0  0  0
 24 23  1  0  0  0  0
 24 25  1  0  0  0  0
M  END
>  <MODEL>
3

>  <REMARK>
 VINA RESULT:      -7.0      3.019      7.420
  Name = 
  3 active torsions:
  status: ('A' for Active; 'I' for Inactive)
    1  A    between atoms: C_2  and  C_21
    2  A    between atoms: C_6  and  C_23
    3  A    between atoms: C_15  and  C_21
                            x       y       z     vdW  Elec       q    Type
                         _______ _______ _______ _____ _____    ______ ____

>  <TORSDO>
F 3

$$$$
=
 OpenBabel11052417303D

 25 29  0  0  1  0  0  0  0  0999 V2000
  187.4970  177.5280  144.2200 C   0  0  0  0  0  0  0  0  0  0  0  0
  188.8210  177.2850  144.5900 C   0  0  0  0  0  0  0  0  0  0  0  0
  186.7830  177.5350  146.5190 C   0  0  0  0  0  3  0  0  0  0  0  0
  186.8780  177.6950  143.0000 C   0  0  0  0  0  0  0  0  0  0  0  0
  185.0100  178.1140  140.9990 C   0  0  0  0  0  3  0  0  0  0  0  0
  188.0760  177.2960  146.8910 N   0  0  0  0  0  0  0  0  0  0  0  0
  185.5490  177.9060  143.3020 C   0  0  0  0  0  0  0  0  0  0  0  0
  184.6440  178.1050  142.3950 N   0  0  0  0  0  0  0  0  0  0  0  0
  190.4410  176.9170  146.4040 N   0  0  0  0  0  0  0  0  0  0  0  0
  190.7750  176.7890  147.8120 C   0  0  0  0  0  1  0  0  0  0  0  0
  189.8070  177.1610  143.6930 C   0  0  0  0  0  3  0  0  0  0  0  0
  186.2840  177.9160  140.6100 C   0  0  0  0  0  3  0  0  0  0  0  0
  186.5000  177.6510  145.1620 C   0  0  0  0  0  0  0  0  0  0  0  0
  185.3320  177.8780  144.6010 O   0  0  0  0  0  0  0  0  0  0  0  0
  191.4820  176.7890  145.4250 C   0  0  0  0  0  3  0  0  0  0  0  0
  187.4070  177.6750  141.5990 C   0  0  0  0  0  2  0  0  0  0  0  0
  191.2030  176.9010  144.1220 C   0  0  0  0  0  0  0  0  0  0  0  0
  189.0910  177.1690  145.9750 C   0  0  0  0  0  0  0  0  0  0  0  0
  192.2920  176.7640  143.1480 C   0  0  0  0  0  3  0  0  0  0  0  0
  193.4390  176.1620  143.4440 C   0  0  0  0  0  3  0  0  0  0  0  0
  194.5270  176.0420  142.4300 C   0  0  2  0  0  3  0  0  0  0  0  0
  194.1650  175.0820  141.4860 O   0  0  0  0  0  1  0  0  0  0  0  0
  195.8320  175.6310  143.0950 C   0  0  0  0  0  3  0  0  0  0  0  0
  196.8090  176.7900  143.0520 C   0  0  0  0  0  2  0  0  0  0  0  0
  196.9500  175.6490  142.0700 C   0  0  0  0  0  2  0  0  0  0  0  0
  1  2  1  0  0  0  0
  1 13  1  0  0  0  0
  2 18  1  0  0  0  0
  3  6  1  0  0  0  0
  4  7  1  0  0  0  0
  4  1  2  0  0  0  0
  5  8  1  0  0  0  0
  7 14  1  0  0  0  0
  8  7  2  0  0  0  0
  9 10  1  0  0  0  0
 11 17  1  0  0  0  0
 11  2  2  0  0  0  0
 12  5  2  0  0  0  0
 12 16  1  0  0  0  0
 13  3  2  0  0  0  0
 14 13  1  0  0  0  0
 15  9  1  0  0  0  0
 16  4  1  0  0  0  0
 17 15  2  0  0  0  0
 18  9  1  0  0  0  0
 18  6  2  0  0  0  0
 19 20  2  0  0  0  0
 19 17  1  0  0  0  0
 21 22  1  6  0  0  0
 21 23  1  0  0  0  0
 21 20  1  0  0  0  0
 24 23  1  0  0  0  0
 25 24  1  0  0  0  0
 25 23  1  0  0  0  0
M  END
>  <MODEL>
4

>  <REMARK>
 VINA RESULT:      -6.9      4.092      9.629
  Name = 
  3 active torsions:
  status: ('A' for Active; 'I' for Inactive)
    1  A    between atoms: C_2  and  C_21
    2  A    between atoms: C_6  and  C_23
    3  A    between atoms: C_15  and  C_21
                            x       y       z     vdW  Elec       q    Type
                         _______ _______ _______ _____ _____    ______ ____

>  <TORSDO>
F 3

$$$$
=
 OpenBabel11052417303D

 25 29  0  0  1  0  0  0  0  0999 V2000
  191.9210  175.1010  143.4880 C   0  0  0  0  0  0  0  0  0  0  0  0
  190.5930  175.2150  143.0750 C   0  0  0  0  0  0  0  0  0  0  0  0
  192.5100  173.8960  141.4890 C   0  0  0  0  0  3  0  0  0  0  0  0
  192.5960  175.5270  144.6110 C   0  0  0  0  0  0  0  0  0  0  0  0
  194.5460  176.0420  146.5090 C   0  0  0  0  0  3  0  0  0  0  0  0
  191.2120  174.0030  141.0770 N   0  0  0  0  0  0  0  0  0  0  0  0
  193.8950  175.1040  144.4270 C   0  0  0  0  0  0  0  0  0  0  0  0
  194.8370  175.3240  145.2910 N   0  0  0  0  0  0  0  0  0  0  0  0
  188.8960  174.7320  141.3610 N   0  0  0  0  0  0  0  0  0  0  0  0
  188.4940  174.1580  140.0870 C   0  0  0  0  0  1  0  0  0  0  0  0
  189.6620  175.8370  143.8110 C   0  0  0  0  0  3  0  0  0  0  0  0
  193.3050  176.4930  146.7750 C   0  0  0  0  0  3  0  0  0  0  0  0
  192.8590  174.4560  142.7130 C   0  0  0  0  0  0  0  0  0  0  0  0
  194.0440  174.4630  143.2860 O   0  0  0  0  0  0  0  0  0  0  0  0
  187.9160  175.4030  142.1650 C   0  0  0  0  0  3  0  0  0  0  0  0
  192.1430  176.2810  145.8240 C   0  0  0  0  0  3  0  0  0  0  0  0
  188.2580  175.9390  143.3410 C   0  0  0  0  0  0  0  0  0  0  0  0
  190.2540  174.6390  141.8270 C   0  0  2  0  0  3  0  0  0  0  0  0
  187.2310  176.6170  144.1390 C   0  0  0  0  0  3  0  0  0  0  0  0
  187.4330  176.9730  145.4040 C   0  0  0  0  0  3  0  0  0  0  0  0
  186.3650  177.6580  146.1880 C   0  0  2  0  0  3  0  0  0  0  0  0
  186.0020  176.8500  147.2650 O   0  0  0  0  0  1  0  0  0  0  0  0
  185.1450  177.9170  145.3160 C   0  0  0  0  0  3  0  0  0  0  0  0
  184.9620  179.4110  145.1310 C   0  0  0  0  0  2  0  0  0  0  0  0
  184.0970  178.6610  146.1200 C   0  0  0  0  0  2  0  0  0  0  0  0
  1  4  1  0  0  0  0
  2  1  1  0  0  0  0
  2 11  2  0  0  0  0
  3 13  1  0  0  0  0
  4 16  2  0  0  0  0
  5 12  2  0  0  0  0
  6  3  2  0  0  0  0
  7  4  1  0  0  0  0
  7  8  2  0  0  0  0
  8  5  1  0  0  0  0
  9 18  1  0  0  0  0
  9 15  1  0  0  0  0
 10  9  1  0  0  0  0
 13 14  1  0  0  0  0
 13  1  2  0  0  0  0
 14  7  1  0  0  0  0
 15 17  2  0  0  0  0
 16 12  1  0  0  0  0
 17 11  1  0  0  0  0
 17 19  1  0  0  0  0
 18  6  1  6  0  0  0
 18  2  1  0  0  0  0
 19 20  2  0  0  0  0
 20 21  1  0  0  0  0
 21 22  1  1  0  0  0
 23 25  1  0  0  0  0
 23 21  1  0  0  0  0
 24 23  1  0  0  0  0
 24 25  1  0  0  0  0
M  END
>  <MODEL>
5

>  <REMARK>
 VINA RESULT:      -6.8      4.611      6.808
  Name = 
  3 active torsions:
  status: ('A' for Active; 'I' for Inactive)
    1  A    between atoms: C_2  and  C_21
    2  A    between atoms: C_6  and  C_23
    3  A    between atoms: C_15  and  C_21
                            x       y       z     vdW  Elec       q    Type
                         _______ _______ _______ _____ _____    ______ ____

>  <TORSDO>
F 3

$$$$
=
 OpenBabel11052417303D

 25 29  0  0  1  0  0  0  0  0999 V2000
  186.8480  177.0420  144.2710 C   0  0  0  0  0  0  0  0  0  0  0  0
  187.8230  176.1760  143.7750 C   0  0  0  0  0  0  0  0  0  0  0  0
  185.7730  177.1700  142.1200 C   0  0  0  0  0  3  0  0  0  0  0  0
  186.6200  177.5890  145.5150 C   0  0  0  0  0  0  0  0  0  0  0  0
  185.5660  179.0110  147.6440 C   0  0  0  0  0  3  0  0  0  0  0  0
  186.7240  176.3230  141.6270 N   0  0  0  0  0  0  0  0  0  0  0  0
  185.4920  178.3670  145.3610 C   0  0  0  0  0  0  0  0  0  0  0  0
  184.9680  179.0480  146.3310 N   0  0  0  0  0  0  0  0  0  0  0  0
  188.7210  174.9310  141.8530 N   0  0  0  0  0  0  0  0  0  0  0  0
  188.6790  174.5350  140.4550 C   0  0  0  0  0  1  0  0  0  0  0  0
  188.8090  175.6890  144.5410 C   0  0  0  0  0  3  0  0  0  0  0  0
  186.6700  178.2790  147.8890 C   0  0  0  0  0  3  0  0  0  0  0  0
  185.8440  177.5290  143.4620 C   0  0  0  0  0  0  0  0  0  0  0  0
  185.0340  178.3250  144.1260 O   0  0  0  0  0  0  0  0  0  0  0  0
  189.7670  174.4220  142.6920 C   0  0  0  0  0  3  0  0  0  0  0  0
  187.3500  177.4520  146.8160 C   0  0  0  0  0  3  0  0  0  0  0  0
  189.8300  174.7710  143.9810 C   0  0  0  0  0  0  0  0  0  0  0  0
  187.7360  175.8220  142.4080 C   0  0  2  0  0  3  0  0  0  0  0  0
  190.9140  174.2320  144.8110 C   0  0  0  0  0  3  0  0  0  0  0  0
  192.1500  174.7210  144.7700 C   0  0  0  0  0  3  0  0  0  0  0  0
  193.2290  174.1470  145.6250 C   0  0  2  0  0  3  0  0  0  0  0  0
  194.0080  175.1870  146.1320 O   0  0  0  0  0  1  0  0  0  0  0  0
  194.1080  173.2060  144.8150 C   0  0  0  0  0  3  0  0  0  0  0  0
  194.3360  171.9270  145.5970 C   0  0  0  0  0  2  0  0  0  0  0  0
  195.4180  172.9820  145.5450 C   0  0  0  0  0  2  0  0  0  0  0  0
  1  4  1  0  0  0  0
  2  1  1  0  0  0  0
  2 11  2  0  0  0  0
  3 13  1  0  0  0  0
  4 16  2  0  0  0  0
  5 12  2  0  0  0  0
  6  3  2  0  0  0  0
  7  4  1  0  0  0  0
  7  8  2  0  0  0  0
  8  5  1  0  0  0  0
  9 18  1  0  0  0  0
  9 15  1  0  0  0  0
 10  9  1  0  0  0  0
 13 14  1  0  0  0  0
 13  1  2  0  0  0  0
 14  7  1  0  0  0  0
 15 17  2  0  0  0  0
 16 12  1  0  0  0  0
 17 11  1  0  0  0  0
 17 19  1  0  0  0  0
 18  6  1  1  0  0  0
 18  2  1  0  0  0  0
 20 19  2  0  0  0  0
 20 21  1  0  0  0  0
 21 22  1  6  0  0  0
 23 25  1  0  0  0  0
 23 24  1  0  0  0  0
 23 21  1  0  0  0  0
 25 24  1  0  0  0  0
M  END
>  <MODEL>
6

>  <REMARK>
 VINA RESULT:      -6.7      3.991      8.642
  Name = 
  3 active torsions:
  status: ('A' for Active; 'I' for Inactive)
    1  A    between atoms: C_2  and  C_21
    2  A    between atoms: C_6  and  C_23
    3  A    between atoms: C_15  and  C_21
                            x       y       z     vdW  Elec       q    Type
                         _______ _______ _______ _____ _____    ______ ____

>  <TORSDO>
F 3

$$$$
=
 OpenBabel11052417303D

 25 29  0  0  1  0  0  0  0  0999 V2000
  187.1300  177.0310  144.7850 C   0  0  0  0  0  0  0  0  0  0  0  0
  188.1510  176.2070  144.3090 C   0  0  0  0  0  0  0  0  0  0  0  0
  188.1660  177.1760  146.9530 C   0  0  0  0  0  3  0  0  0  0  0  0
  185.9880  177.5430  144.2080 C   0  0  0  0  0  0  0  0  0  0  0  0
  183.6090  178.8840  143.7500 C   0  0  0  0  0  3  0  0  0  0  0  0
  189.1700  176.3690  146.4950 N   0  0  0  0  0  0  0  0  0  0  0  0
  185.3910  178.2890  145.2010 C   0  0  0  0  0  0  0  0  0  0  0  0
  184.2780  178.9310  145.0280 N   0  0  0  0  0  0  0  0  0  0  0  0
  190.2640  175.0340  144.7650 N   0  0  0  0  0  0  0  0  0  0  0  0
  191.3560  174.6670  145.6520 C   0  0  0  0  0  1  0  0  0  0  0  0
  188.1670  175.7330  143.0560 C   0  0  0  0  0  3  0  0  0  0  0  0
  184.1180  178.1790  142.7200 C   0  0  0  0  0  3  0  0  0  0  0  0
  187.1370  177.5050  146.0780 C   0  0  0  0  0  0  0  0  0  0  0  0
  186.0870  178.2620  146.3190 O   0  0  0  0  0  0  0  0  0  0  0  0
  190.2600  174.5370  143.4190 C   0  0  0  0  0  3  0  0  0  0  0  0
  185.4130  177.3980  142.8320 C   0  0  0  0  0  2  0  0  0  0  0  0
  189.2670  174.8580  142.5830 C   0  0  0  0  0  0  0  0  0  0  0  0
  189.1900  175.8810  145.2120 C   0  0  0  0  0  0  0  0  0  0  0  0
  189.2940  174.3330  141.2130 C   0  0  0  0  0  3  0  0  0  0  0  0
  188.6590  173.2180  140.8670 C   0  0  0  0  0  3  0  0  0  0  0  0
  188.7100  172.7090  139.4660 C   0  0  2  0  0  3  0  0  0  0  0  0
  189.5210  171.5750  139.4220 O   0  0  0  0  0  1  0  0  0  0  0  0
  189.2750  173.7710  138.5340 C   0  0  0  0  0  3  0  0  0  0  0  0
  188.1700  174.2990  137.6390 C   0  0  0  0  0  2  0  0  0  0  0  0
  189.1640  173.2960  137.0980 C   0  0  0  0  0  2  0  0  0  0  0  0
  1 13  1  0  0  0  0
  2  1  1  0  0  0  0
  2 18  1  0  0  0  0
  4  1  2  0  0  0  0
  4  7  1  0  0  0  0
  5  8  1  0  0  0  0
  6  3  1  0  0  0  0
  7 14  1  0  0  0  0
  8  7  2  0  0  0  0
  9 18  1  0  0  0  0
  9 10  1  0  0  0  0
 11  2  2  0  0  0  0
 12 16  1  0  0  0  0
 12  5  2  0  0  0  0
 13 14  1  0  0  0  0
 13  3  2  0  0  0  0
 15  9  1  0  0  0  0
 16  4  1  0  0  0  0
 17 11  1  0  0  0  0
 17 15  2  0  0  0  0
 18  6  2  0  0  0  0
 19 17  1  0  0  0  0
 20 19  2  0  0  0  0
 21 22  1  1  0  0  0
 21 20  1  0  0  0  0
 23 21  1  0  0  0  0
 24 23  1  0  0  0  0
 25 24  1  0  0  0  0
 25 23  1  0  0  0  0
M  END
>  <MODEL>
7

>  <REMARK>
 VINA RESULT:      -6.7      3.553      7.118
  Name = 
  3 active torsions:
  status: ('A' for Active; 'I' for Inactive)
    1  A    between atoms: C_2  and  C_21
    2  A    between atoms: C_6  and  C_23
    3  A    between atoms: C_15  and  C_21
                            x       y       z     vdW  Elec       q    Type
                         _______ _______ _______ _____ _____    ______ ____

>  <TORSDO>
F 3

$$$$
=
 OpenBabel11052417303D

 25 29  0  0  1  0  0  0  0  0999 V2000
  186.8240  177.2390  144.8040 C   0  0  0  0  0  0  0  0  0  0  0  0
  187.9410  176.4210  144.6250 C   0  0  0  0  0  0  0  0  0  0  0  0
  187.4340  177.6880  147.0890 C   0  0  0  0  0  3  0  0  0  0  0  0
  185.7960  177.6210  143.9710 C   0  0  0  0  0  0  0  0  0  0  0  0
  183.5040  178.7730  142.9270 C   0  0  0  0  0  3  0  0  0  0  0  0
  188.5290  176.8880  146.9240 N   0  0  0  0  0  0  0  0  0  0  0  0
  185.0010  178.4450  144.7400 C   0  0  0  0  0  0  0  0  0  0  0  0
  183.9210  179.0030  144.2900 N   0  0  0  0  0  0  0  0  0  0  0  0
  189.9660  175.4200  145.5980 N   0  0  0  0  0  0  0  0  0  0  0  0
  190.8850  175.2170  146.7060 C   0  0  0  0  0  1  0  0  0  0  0  0
  188.2040  175.8060  143.4650 C   0  0  0  0  0  3  0  0  0  0  0  0
  184.2160  177.9820  142.1020 C   0  0  0  0  0  3  0  0  0  0  0  0
  186.5760  177.8600  146.0080 C   0  0  0  0  0  0  0  0  0  0  0  0
  185.4770  178.5830  145.9600 O   0  0  0  0  0  0  0  0  0  0  0  0
  190.2280  174.7720  144.3460 C   0  0  0  0  0  3  0  0  0  0  0  0
  185.4910  177.2880  142.5420 C   0  0  0  0  0  2  0  0  0  0  0  0
  189.3990  174.9420  143.3110 C   0  0  0  0  0  0  0  0  0  0  0  0
  188.8030  176.2560  145.7360 C   0  0  0  0  0  0  0  0  0  0  0  0
  189.6970  174.2640  142.0430 C   0  0  0  0  0  3  0  0  0  0  0  0
  188.7460  173.9250  141.1790 C   0  0  0  0  0  3  0  0  0  0  0  0
  189.0830  173.2340  139.9000 C   0  0  2  0  0  3  0  0  0  0  0  0
  187.9190  172.6870  139.3590 O   0  0  0  0  0  1  0  0  0  0  0  0
  190.0960  172.1260  140.1440 C   0  0  0  0  0  3  0  0  0  0  0  0
  191.2860  172.3170  139.2240 C   0  0  0  0  0  2  0  0  0  0  0  0
  190.2350  171.2810  138.8930 C   0  0  0  0  0  2  0  0  0  0  0  0
  1 13  1  0  0  0  0
  2  1  1  0  0  0  0
  2 18  1  0  0  0  0
  4  7  1  0  0  0  0
  4  1  2  0  0  0  0
  5  8  1  0  0  0  0
  6  3  1  0  0  0  0
  7 14  1  0  0  0  0
  8  7  2  0  0  0  0
  9 18  1  0  0  0  0
  9 10  1  0  0  0  0
 11  2  2  0  0  0  0
 12 16  1  0  0  0  0
 12  5  2  0  0  0  0
 13  3  2  0  0  0  0
 14 13  1  0  0  0  0
 15  9  1  0  0  0  0
 16  4  1  0  0  0  0
 17 11  1  0  0  0  0
 17 15  2  0  0  0  0
 18  6  2  0  0  0  0
 19 17  1  0  0  0  0
 20 19  2  0  0  0  0
 21 22  1  1  0  0  0
 21 23  1  0  0  0  0
 21 20  1  0  0  0  0
 24 23  1  0  0  0  0
 25 24  1  0  0  0  0
 25 23  1  0  0  0  0
M  END
>  <MODEL>
8

>  <REMARK>
 VINA RESULT:      -6.7      3.714      7.526
  Name = 
  3 active torsions:
  status: ('A' for Active; 'I' for Inactive)
    1  A    between atoms: C_2  and  C_21
    2  A    between atoms: C_6  and  C_23
    3  A    between atoms: C_15  and  C_21
                            x       y       z     vdW  Elec       q    Type
                         _______ _______ _______ _____ _____    ______ ____

>  <TORSDO>
F 3

$$$$
=
 OpenBabel11052417303D

 25 29  0  0  1  0  0  0  0  0999 V2000
  185.7510  177.5660  143.7900 C   0  0  0  0  0  0  0  0  0  0  0  0
  186.5230  176.9260  142.8190 C   0  0  0  0  0  0  0  0  0  0  0  0
  184.4250  178.6660  142.1080 C   0  0  0  0  0  3  0  0  0  0  0  0
  185.7690  177.5480  145.1670 C   0  0  0  0  0  0  0  0  0  0  0  0
  185.2170  178.0030  147.8420 C   0  0  0  0  0  3  0  0  0  0  0  0
  185.1760  178.0440  141.1510 N   0  0  0  0  0  0  0  0  0  0  0  0
  184.7490  178.3930  145.5480 C   0  0  0  0  0  0  0  0  0  0  0  0
  184.4590  178.6330  146.7880 N   0  0  0  0  0  0  0  0  0  0  0  0
  186.9750  176.5540  140.4290 N   0  0  0  0  0  0  0  0  0  0  0  0
  186.6910  176.7920  139.0240 C   0  0  0  0  0  1  0  0  0  0  0  0
  187.5260  176.0940  143.1300 C   0  0  0  0  0  3  0  0  0  0  0  0
  186.2320  177.1620  147.5660 C   0  0  0  0  0  3  0  0  0  0  0  0
  184.7250  178.4160  143.4430 C   0  0  0  0  0  0  0  0  0  0  0  0
  184.1280  178.9090  144.5070 O   0  0  0  0  0  0  0  0  0  0  0  0
  188.0440  175.6680  140.7860 C   0  0  0  0  0  3  0  0  0  0  0  0
  186.6430  176.8230  146.1460 C   0  0  0  0  0  3  0  0  0  0  0  0
  188.3270  175.4320  142.0710 C   0  0  0  0  0  0  0  0  0  0  0  0
  186.2050  177.1910  141.4650 C   0  0  2  0  0  3  0  0  0  0  0  0
  189.4280  174.5200  142.4020 C   0  0  0  0  0  3  0  0  0  0  0  0
  189.3910  173.2250  142.1040 C   0  0  0  0  0  3  0  0  0  0  0  0
  190.5260  172.3240  142.4570 C   0  0  2  0  0  3  0  0  0  0  0  0
  190.1700  171.0070  142.1650 O   0  0  0  0  0  1  0  0  0  0  0  0
  190.8600  172.4410  143.9370 C   0  0  0  0  0  3  0  0  0  0  0  0
  192.2470  173.0330  144.0970 C   0  0  0  0  0  2  0  0  0  0  0  0
  192.0380  171.5440  144.2630 C   0  0  0  0  0  2  0  0  0  0  0  0
  1  4  1  0  0  0  0
  2 11  2  0  0  0  0
  2  1  1  0  0  0  0
  3 13  1  0  0  0  0
  4  7  1  0  0  0  0
  4 16  2  0  0  0  0
  6  3  2  0  0  0  0
  7  8  2  0  0  0  0
  8  5  1  0  0  0  0
  9 15  1  0  0  0  0
  9 18  1  0  0  0  0
 10  9  1  0  0  0  0
 12  5  2  0  0  0  0
 13  1  2  0  0  0  0
 13 14  1  0  0  0  0
 14  7  1  0  0  0  0
 15 17  2  0  0  0  0
 16 12  1  0  0  0  0
 17 19  1  0  0  0  0
 17 11  1  0  0  0  0
 18  6  1  6  0  0  0
 18  2  1  0  0  0  0
 20 19  2  0  0  0  0
 20 21  1  0  0  0  0
 21 22  1  1  0  0  0
 21 23  1  0  0  0  0
 23 24  1  0  0  0  0
 23 25  1  0  0  0  0
 24 25  1  0  0  0  0
M  END
>  <MODEL>
9

>  <REMARK>
 VINA RESULT:      -6.7      3.329      7.201
  Name = 
  3 active torsions:
  status: ('A' for Active; 'I' for Inactive)
    1  A    between atoms: C_2  and  C_21
    2  A    between atoms: C_6  and  C_23
    3  A    between atoms: C_15  and  C_21
                            x       y       z     vdW  Elec       q    Type
                         _______ _______ _______ _____ _____    ______ ____

>  <TORSDO>
F 3

$$$$
