=
 OpenBabel11052421423D

 32 37  0  0  1  0  0  0  0  0999 V2000
  186.2170  176.8700  145.7510 C   0  0  0  0  0  0  0  0  0  0  0  0
  191.0170  175.0520  144.8440 C   0  0  1  0  0  3  0  0  0  0  0  0
  188.9720  171.8960  143.7830 C   0  0  0  0  0  1  0  0  0  0  0  0
  193.4660  174.9030  145.6670 C   0  0  0  0  0  0  0  0  0  0  0  0
  194.6880  174.0610  145.6210 C   0  0  0  0  0  0  0  0  0  0  0  0
  188.8840  175.9570  145.8110 C   0  0  0  0  0  0  0  0  0  0  0  0
  188.9130  176.0630  143.2360 C   0  0  0  0  0  2  0  0  0  0  0  0
  196.9770  172.4870  145.5540 C   0  0  0  0  0  3  0  0  0  0  0  0
  186.9110  176.6530  144.5600 C   0  0  0  0  0  3  0  0  0  0  0  0
  189.2840  174.6180  142.8970 C   0  0  2  0  0  3  0  0  0  0  0  0
  190.2520  174.0580  143.9550 C   0  0  2  0  0  0  0  0  0  0  0  0
  192.4160  173.3210  144.1550 C   0  0  2  0  0  3  0  0  0  0  0  0
  197.0200  173.7520  146.0520 N   0  0  0  0  0  0  0  0  0  0  0  0
  186.8620  176.6410  146.9730 C   0  0  0  0  0  3  0  0  0  0  0  0
  188.2340  176.2000  144.5680 C   0  0  0  0  0  0  0  0  0  0  0  0
  195.9130  174.5410  146.0960 C   0  0  0  0  0  3  0  0  0  0  0  0
  188.1820  176.1890  146.9980 C   0  0  0  0  0  3  0  0  0  0  0  0
  190.0750  172.6820  144.4760 C   0  0  2  0  0  3  0  0  0  0  0  0
  191.1510  172.9760  143.4990 N   0  0  1  0  0  0  0  0  0  0  0  0
  193.3310  172.1680  144.5440 C   0  0  0  0  0  2  0  0  0  0  0  0
  190.1950  175.4620  145.9320 O   0  0  0  0  0  0  0  0  0  0  0  0
  193.5020  176.1040  146.0510 O   0  0  0  0  0  0  0  0  0  0  0  0
  195.7800  171.9630  145.0610 C   0  0  0  0  0  3  0  0  0  0  0  0
  192.1750  174.2300  145.3340 C   0  0  2  0  0  3  0  0  0  0  0  0
  194.6270  172.7470  145.0820 C   0  0  0  0  0  0  0  0  0  0  0  0
  188.8940  174.4930  140.5410 O   0  0  0  0  0  1  0  0  0  0  0  0
  189.8990  174.5820  141.5040 C   0  0  0  0  0  2  0  0  0  0  0  0
  184.8950  177.3180  145.6930 O   0  0  0  0  0  0  0  0  0  0  0  0
  184.5430  178.6910  145.8060 C   0  0  0  0  0  2  0  0  0  0  0  0
  184.5080  179.3100  144.4550 C   0  0  0  0  0  0  0  0  0  0  0  0
  185.4870  180.2210  144.0840 O   0  0  0  0  0  1  0  0  0  0  0  0
  183.5710  179.0370  143.6610 O   0  0  0  0  0  0  0  0  0  0  0  0
  1 14  1  0  0  0  0
  2 24  1  0  0  0  0
  2 21  1  1  0  0  0
  3 18  1  0  0  0  0
  4 22  2  0  0  0  0
  5  4  1  0  0  0  0
  5 16  1  0  0  0  0
  6 21  1  0  0  0  0
  6 17  1  0  0  0  0
  7 15  1  0  0  0  0
  8 13  1  0  0  0  0
  9 15  1  0  0  0  0
  9  1  2  0  0  0  0
 10 27  1  6  0  0  0
 10  7  1  0  0  0  0
 10 11  1  0  0  0  0
 11 18  1  0  0  0  0
 11  2  1  0  0  0  0
 12 20  1  0  0  0  0
 12 24  1  0  0  0  0
 13 16  2  0  0  0  0
 14 17  2  0  0  0  0
 15  6  2  0  0  0  0
 19 11  1  0  0  0  0
 19 12  1  0  0  0  0
 19 18  1  0  0  0  0
 20 25  1  0  0  0  0
 23 25  1  0  0  0  0
 23  8  2  0  0  0  0
 24  4  1  0  0  0  0
 25  5  2  0  0  0  0
 26 27  1  0  0  0  0
 28  1  1  0  0  0  0
 28 29  1  0  0  0  0
 30 29  1  0  0  0  0
 31 30  1  0  0  0  0
 32 30  2  0  0  0  0
M  END
>  <MODEL>
1

>  <REMARK>
 VINA RESULT:      -8.1      0.000      0.000
  Name = 
  4 active torsions:
  status: ('A' for Active; 'I' for Inactive)
    1  A    between atoms: C_1  and  C_10
    2  A    between atoms: C_2  and  O_24
    3  A    between atoms: C_10  and  O_24
    4  A    between atoms: C_13  and  C_14
                            x       y       z     vdW  Elec       q    Type
                         _______ _______ _______ _____ _____    ______ ____

>  <TORSDO>
F 4

$$$$
=
 OpenBabel11052421423D

 32 37  0  0  1  0  0  0  0  0999 V2000
  194.8060  174.9670  145.9230 C   0  0  0  0  0  0  0  0  0  0  0  0
  189.7690  175.7290  144.8150 C   0  0  1  0  0  3  0  0  0  0  0  0
  190.9600  174.4300  141.3270 C   0  0  0  0  0  1  0  0  0  0  0  0
  187.7000  177.2580  145.0910 C   0  0  0  0  0  0  0  0  0  0  0  0
  186.4280  177.6660  144.4460 C   0  0  0  0  0  0  0  0  0  0  0  0
  192.1960  175.9150  145.4350 C   0  0  0  0  0  0  0  0  0  0  0  0
  191.3810  173.4710  145.3970 C   0  0  0  0  0  2  0  0  0  0  0  0
  184.0480  178.4480  143.2410 C   0  0  0  0  0  3  0  0  0  0  0  0
  193.7540  174.0670  145.7470 C   0  0  0  0  0  3  0  0  0  0  0  0
  190.7400  173.4060  144.0090 C   0  0  2  0  0  3  0  0  0  0  0  0
  190.0860  174.7570  143.6660 C   0  0  2  0  0  0  0  0  0  0  0  0
  188.0160  175.6700  143.2830 C   0  0  2  0  0  3  0  0  0  0  0  0
  184.3260  178.8050  144.5230 N   0  0  0  0  0  0  0  0  0  0  0  0
  194.5490  176.3430  145.8660 C   0  0  0  0  0  3  0  0  0  0  0  0
  192.4520  174.5170  145.5040 C   0  0  0  0  0  0  0  0  0  0  0  0
  185.4830  178.4350  145.1340 C   0  0  0  0  0  3  0  0  0  0  0  0
  193.2560  176.8080  145.6240 C   0  0  0  0  0  3  0  0  0  0  0  0
  190.2380  175.3380  142.3110 C   0  0  2  0  0  3  0  0  0  0  0  0
  188.9580  174.7040  142.7100 N   0  0  1  0  0  0  0  0  0  0  0  0
  187.1260  176.4300  142.3090 C   0  0  0  0  0  2  0  0  0  0  0  0
  190.9350  176.4730  145.1560 O   0  0  0  0  0  0  0  0  0  0  0  0
  187.9410  177.5110  146.3030 O   0  0  0  0  0  0  0  0  0  0  0  0
  184.9550  177.6750  142.5120 C   0  0  0  0  0  3  0  0  0  0  0  0
  188.7260  176.6240  144.2100 C   0  0  2  0  0  3  0  0  0  0  0  0
  186.1490  177.2700  143.1090 C   0  0  0  0  0  0  0  0  0  0  0  0
  189.3950  171.9030  145.2920 O   0  0  0  0  0  1  0  0  0  0  0  0
  189.7240  172.2730  143.9880 C   0  0  0  0  0  2  0  0  0  0  0  0
  196.0910  174.4700  146.1590 O   0  0  0  0  0  0  0  0  0  0  0  0
  196.9740  174.0950  145.1100 C   0  0  0  0  0  2  0  0  0  0  0  0
  197.2640  172.6400  145.1990 C   0  0  0  0  0  0  0  0  0  0  0  0
  197.9410  172.0040  144.1680 O   0  0  0  0  0  0  0  0  0  0  0  0
  196.8610  171.9770  146.1890 O   0  0  0  0  0  1  0  0  0  0  0  0
  1 28  1  0  0  0  0
  2 21  1  6  0  0  0
  3 18  1  0  0  0  0
  4 22  2  0  0  0  0
  5  4  1  0  0  0  0
  5 16  1  0  0  0  0
  6 15  2  0  0  0  0
  6 17  1  0  0  0  0
  7 15  1  0  0  0  0
  8 13  1  0  0  0  0
  9  1  2  0  0  0  0
 10 27  1  1  0  0  0
 10  7  1  0  0  0  0
 11 10  1  0  0  0  0
 11  2  1  0  0  0  0
 12 24  1  0  0  0  0
 13 16  2  0  0  0  0
 14  1  1  0  0  0  0
 15  9  1  0  0  0  0
 17 14  2  0  0  0  0
 18 19  1  0  0  0  0
 18 11  1  0  0  0  0
 19 12  1  0  0  0  0
 19 11  1  0  0  0  0
 20 25  1  0  0  0  0
 20 12  1  0  0  0  0
 21  6  1  0  0  0  0
 23 25  1  0  0  0  0
 23  8  2  0  0  0  0
 24  2  1  0  0  0  0
 24  4  1  0  0  0  0
 25  5  2  0  0  0  0
 27 26  1  0  0  0  0
 29 30  1  0  0  0  0
 29 28  1  0  0  0  0
 30 32  1  0  0  0  0
 31 30  2  0  0  0  0
M  END
>  <MODEL>
2

>  <REMARK>
 VINA RESULT:      -7.8      2.716      8.600
  Name = 
  4 active torsions:
  status: ('A' for Active; 'I' for Inactive)
    1  A    between atoms: C_1  and  C_10
    2  A    between atoms: C_2  and  O_24
    3  A    between atoms: C_10  and  O_24
    4  A    between atoms: C_13  and  C_14
                            x       y       z     vdW  Elec       q    Type
                         _______ _______ _______ _____ _____    ______ ____

>  <TORSDO>
F 4

$$$$
=
 OpenBabel11052421423D

 32 37  0  0  1  0  0  0  0  0999 V2000
  193.7560  171.0220  144.5890 C   0  0  0  0  0  0  0  0  0  0  0  0
  190.7040  175.2240  144.1440 C   0  0  1  0  0  3  0  0  0  0  0  0
  191.1830  175.2410  148.0220 C   0  0  0  0  0  1  0  0  0  0  0  0
  188.6430  176.2900  142.9980 C   0  0  0  0  0  0  0  0  0  0  0  0
  187.5700  177.2990  143.1790 C   0  0  0  0  0  0  0  0  0  0  0  0
  191.7280  172.9310  144.1520 C   0  0  0  0  0  0  0  0  0  0  0  0
  193.4780  174.7850  144.5300 C   0  0  0  0  0  2  0  0  0  0  0  0
  185.5490  179.1780  143.5120 C   0  0  0  0  0  3  0  0  0  0  0  0
  194.0430  172.3840  144.6840 C   0  0  0  0  0  3  0  0  0  0  0  0
  192.8290  175.5580  145.6790 C   0  0  2  0  0  3  0  0  0  0  0  0
  191.2970  175.5490  145.5240 C   0  0  2  0  0  0  0  0  0  0  0  0
  189.5510  176.9880  145.1370 C   0  0  2  0  0  3  0  0  0  0  0  0
  185.7670  178.6010  142.3000 N   0  0  0  0  0  0  0  0  0  0  0  0
  192.4560  170.6150  144.2630 C   0  0  0  0  0  3  0  0  0  0  0  0
  193.0520  173.3470  144.4710 C   0  0  0  0  0  0  0  0  0  0  0  0
  186.7490  177.6790  142.1130 C   0  0  0  0  0  3  0  0  0  0  0  0
  191.4550  171.5630  144.0480 C   0  0  0  0  0  3  0  0  0  0  0  0
  190.4280  175.3230  146.7040 C   0  0  2  0  0  3  0  0  0  0  0  0
  190.5790  176.6860  146.1400 N   0  0  1  0  0  0  0  0  0  0  0  0
  188.2290  177.5410  145.6470 C   0  0  0  0  0  2  0  0  0  0  0  0
  190.6490  173.8130  143.9580 O   0  0  0  0  0  0  0  0  0  0  0  0
  188.9120  175.8030  141.8660 O   0  0  0  0  0  0  0  0  0  0  0  0
  186.3460  178.8380  144.6080 C   0  0  0  0  0  3  0  0  0  0  0  0
  189.3210  175.8010  144.2360 C   0  0  2  0  0  3  0  0  0  0  0  0
  187.3680  177.9030  144.4510 C   0  0  0  0  0  0  0  0  0  0  0  0
  194.1910  177.1650  146.8100 O   0  0  0  0  0  1  0  0  0  0  0  0
  193.3790  176.9780  145.6920 C   0  0  0  0  0  2  0  0  0  0  0  0
  194.7790  170.0970  144.8150 O   0  0  0  0  0  0  0  0  0  0  0  0
  194.5770  168.8880  145.5350 C   0  0  0  0  0  2  0  0  0  0  0  0
  195.1730  169.0090  146.8910 C   0  0  0  0  0  0  0  0  0  0  0  0
  196.4190  169.5990  147.0510 O   0  0  0  0  0  0  0  0  0  0  0  0
  194.5670  168.5430  147.8900 O   0  0  0  0  0  1  0  0  0  0  0  0
  1  9  1  0  0  0  0
  1 28  1  0  0  0  0
  2 21  1  1  0  0  0
  2 24  1  0  0  0  0
  2 11  1  0  0  0  0
  4  5  1  0  0  0  0
  4 24  1  0  0  0  0
  5 25  1  0  0  0  0
  6 15  1  0  0  0  0
  7 10  1  0  0  0  0
  8 23  1  0  0  0  0
 10 27  1  6  0  0  0
 11 10  1  0  0  0  0
 11 19  1  0  0  0  0
 11 18  1  0  0  0  0
 12 20  1  0  0  0  0
 12 19  1  0  0  0  0
 13  8  2  0  0  0  0
 14  1  2  0  0  0  0
 15  7  1  0  0  0  0
 15  9  2  0  0  0  0
 16 13  1  0  0  0  0
 16  5  2  0  0  0  0
 17  6  2  0  0  0  0
 17 14  1  0  0  0  0
 18  3  1  0  0  0  0
 19 18  1  0  0  0  0
 21  6  1  0  0  0  0
 22  4  2  0  0  0  0
 24 12  1  0  0  0  0
 25 23  2  0  0  0  0
 25 20  1  0  0  0  0
 27 26  1  0  0  0  0
 28 29  1  0  0  0  0
 29 30  1  0  0  0  0
 30 31  2  0  0  0  0
 30 32  1  0  0  0  0
M  END
>  <MODEL>
3

>  <REMARK>
 VINA RESULT:      -7.7      3.192      8.884
  Name = 
  4 active torsions:
  status: ('A' for Active; 'I' for Inactive)
    1  A    between atoms: C_1  and  C_10
    2  A    between atoms: C_2  and  O_24
    3  A    between atoms: C_10  and  O_24
    4  A    between atoms: C_13  and  C_14
                            x       y       z     vdW  Elec       q    Type
                         _______ _______ _______ _____ _____    ______ ____

>  <TORSDO>
F 4

$$$$
=
 OpenBabel11052421423D

 32 37  0  0  1  0  0  0  0  0999 V2000
  195.5730  175.4130  144.4970 C   0  0  0  0  0  0  0  0  0  0  0  0
  190.4690  175.9050  145.4350 C   0  0  1  0  0  3  0  0  0  0  0  0
  190.2900  174.8910  141.6660 C   0  0  0  0  0  1  0  0  0  0  0  0
  188.6050  177.2780  146.5910 C   0  0  0  0  0  0  0  0  0  0  0  0
  187.1670  177.6380  146.5080 C   0  0  0  0  0  0  0  0  0  0  0  0
  192.9400  176.2150  145.1060 C   0  0  0  0  0  0  0  0  0  0  0  0
  192.2680  173.7280  145.1880 C   0  0  0  0  0  2  0  0  0  0  0  0
  184.4800  178.3300  146.3550 C   0  0  0  0  0  3  0  0  0  0  0  0
  194.5700  174.4570  144.6620 C   0  0  0  0  0  3  0  0  0  0  0  0
  191.1490  173.7020  144.1440 C   0  0  2  0  0  3  0  0  0  0  0  0
  190.3620  175.0240  144.1800 C   0  0  2  0  0  0  0  0  0  0  0  0
  188.2680  175.8210  144.6790 C   0  0  2  0  0  3  0  0  0  0  0  0
  185.2120  178.6300  147.4610 N   0  0  0  0  0  0  0  0  0  0  0  0
  195.2610  176.7700  144.6490 C   0  0  0  0  0  3  0  0  0  0  0  0
  193.2570  174.8340  144.9640 C   0  0  0  0  0  0  0  0  0  0  0  0
  186.5270  178.3020  147.5590 C   0  0  0  0  0  3  0  0  0  0  0  0
  193.9570  177.1620  144.9500 C   0  0  0  0  0  3  0  0  0  0  0  0
  189.9630  175.6910  142.9180 C   0  0  2  0  0  3  0  0  0  0  0  0
  188.9580  174.9520  143.7200 N   0  0  1  0  0  0  0  0  0  0  0  0
  187.0460  176.5750  144.1750 C   0  0  0  0  0  2  0  0  0  0  0  0
  191.6470  176.7040  145.3680 O   0  0  0  0  0  0  0  0  0  0  0  0
  189.2790  177.4760  147.6380 O   0  0  0  0  0  0  0  0  0  0  0  0
  185.0690  177.6620  145.2790 C   0  0  0  0  0  3  0  0  0  0  0  0
  189.2410  176.7640  145.3410 C   0  0  2  0  0  3  0  0  0  0  0  0
  186.4150  177.3020  145.3480 C   0  0  0  0  0  0  0  0  0  0  0  0
  190.1120  171.7340  143.2670 O   0  0  0  0  0  1  0  0  0  0  0  0
  190.2460  172.5070  144.4200 C   0  0  0  0  0  2  0  0  0  0  0  0
  196.8690  174.9880  144.1910 O   0  0  0  0  0  0  0  0  0  0  0  0
  197.6720  175.6190  143.2020 C   0  0  0  0  0  2  0  0  0  0  0  0
  197.0430  175.4480  141.8660 C   0  0  0  0  0  0  0  0  0  0  0  0
  196.4420  176.5300  141.2380 O   0  0  0  0  0  0  0  0  0  0  0  0
  197.0200  174.3140  141.3210 O   0  0  0  0  0  1  0  0  0  0  0  0
  1 14  2  0  0  0  0
  1  9  1  0  0  0  0
  2 21  1  6  0  0  0
  3 18  1  0  0  0  0
  4 22  2  0  0  0  0
  5  4  1  0  0  0  0
  5 16  1  0  0  0  0
  6 21  1  0  0  0  0
  8 13  1  0  0  0  0
  9 15  2  0  0  0  0
 10 11  1  0  0  0  0
 10 27  1  1  0  0  0
 10  7  1  0  0  0  0
 11  2  1  0  0  0  0
 12 24  1  0  0  0  0
 13 16  2  0  0  0  0
 14 17  1  0  0  0  0
 15  6  1  0  0  0  0
 15  7  1  0  0  0  0
 17  6  2  0  0  0  0
 18 19  1  0  0  0  0
 18 11  1  0  0  0  0
 19 11  1  0  0  0  0
 19 12  1  0  0  0  0
 20 12  1  0  0  0  0
 20 25  1  0  0  0  0
 23 25  1  0  0  0  0
 23  8  2  0  0  0  0
 24  2  1  0  0  0  0
 24  4  1  0  0  0  0
 25  5  2  0  0  0  0
 26 27  1  0  0  0  0
 28  1  1  0  0  0  0
 29 28  1  0  0  0  0
 30 29  1  0  0  0  0
 31 30  2  0  0  0  0
 32 30  1  0  0  0  0
M  END
>  <MODEL>
4

>  <REMARK>
 VINA RESULT:      -7.6      2.928      8.285
  Name = 
  4 active torsions:
  status: ('A' for Active; 'I' for Inactive)
    1  A    between atoms: C_1  and  C_10
    2  A    between atoms: C_2  and  O_24
    3  A    between atoms: C_10  and  O_24
    4  A    between atoms: C_13  and  C_14
                            x       y       z     vdW  Elec       q    Type
                         _______ _______ _______ _____ _____    ______ ____

>  <TORSDO>
F 4

$$$$
=
 OpenBabel11052421423D

 32 37  0  0  1  0  0  0  0  0999 V2000
  186.8890  177.2870  141.7810 C   0  0  0  0  0  0  0  0  0  0  0  0
  191.4350  175.1120  143.1140 C   0  0  1  0  0  3  0  0  0  0  0  0
  189.4380  174.3790  146.3910 C   0  0  0  0  0  1  0  0  0  0  0  0
  194.0160  175.2980  143.0760 C   0  0  0  0  0  0  0  0  0  0  0  0
  195.2480  174.8980  143.8010 C   0  0  0  0  0  0  0  0  0  0  0  0
  189.5480  176.6310  142.4510 C   0  0  0  0  0  0  0  0  0  0  0  0
  188.9240  174.1400  142.2270 C   0  0  0  0  0  2  0  0  0  0  0  0
  197.5620  174.1670  145.1560 C   0  0  0  0  0  3  0  0  0  0  0  0
  187.2780  175.9510  141.8810 C   0  0  0  0  0  3  0  0  0  0  0  0
  189.3080  173.6250  143.6150 C   0  0  2  0  0  3  0  0  0  0  0  0
  190.5500  174.3740  144.1320 C   0  0  2  0  0  0  0  0  0  0  0  0
  192.7460  173.9890  144.6780 C   0  0  2  0  0  3  0  0  0  0  0  0
  197.6300  174.7230  143.9170 N   0  0  0  0  0  0  0  0  0  0  0  0
  187.8350  178.2960  142.0050 C   0  0  0  0  0  3  0  0  0  0  0  0
  188.5910  175.6030  142.2110 C   0  0  0  0  0  0  0  0  0  0  0  0
  196.5130  175.0880  143.2340 C   0  0  0  0  0  3  0  0  0  0  0  0
  189.1490  177.9670  142.3370 C   0  0  0  0  0  3  0  0  0  0  0  0
  190.6150  174.8310  145.5400 C   0  0  2  0  0  3  0  0  0  0  0  0
  191.3870  173.6410  145.1070 N   0  0  1  0  0  0  0  0  0  0  0  0
  193.8150  174.0640  145.7590 C   0  0  0  0  0  2  0  0  0  0  0  0
  190.8820  176.3940  142.8290 O   0  0  0  0  0  0  0  0  0  0  0  0
  194.0540  175.7390  141.8960 O   0  0  0  0  0  0  0  0  0  0  0  0
  196.3230  173.9500  145.7640 C   0  0  0  0  0  3  0  0  0  0  0  0
  192.7380  175.2480  143.8480 C   0  0  2  0  0  3  0  0  0  0  0  0
  195.1550  174.3050  145.0900 C   0  0  0  0  0  0  0  0  0  0  0  0
  189.7160  171.7400  142.2020 O   0  0  0  0  0  1  0  0  0  0  0  0
  189.5560  172.1250  143.5330 C   0  0  0  0  0  2  0  0  0  0  0  0
  185.5640  177.5850  141.4530 O   0  0  0  0  0  0  0  0  0  0  0  0
  184.5990  177.9710  142.4220 C   0  0  0  0  0  2  0  0  0  0  0  0
  183.3130  178.2860  141.7480 C   0  0  0  0  0  0  0  0  0  0  0  0
  183.2160  178.2050  140.3660 O   0  0  0  0  0  0  0  0  0  0  0  0
  182.3230  178.6650  142.4260 O   0  0  0  0  0  1  0  0  0  0  0  0
  1  9  2  0  0  0  0
  1 14  1  0  0  0  0
  2 21  1  1  0  0  0
  2 24  1  0  0  0  0
  2 11  1  0  0  0  0
  4  5  1  0  0  0  0
  4 24  1  0  0  0  0
  5 25  1  0  0  0  0
  6 21  1  0  0  0  0
  7 10  1  0  0  0  0
  8 23  1  0  0  0  0
  9 15  1  0  0  0  0
 10 27  1  6  0  0  0
 10 11  1  0  0  0  0
 11 19  1  0  0  0  0
 11 18  1  0  0  0  0
 12 19  1  0  0  0  0
 12 20  1  0  0  0  0
 13  8  2  0  0  0  0
 14 17  2  0  0  0  0
 15  7  1  0  0  0  0
 15  6  2  0  0  0  0
 16  5  2  0  0  0  0
 16 13  1  0  0  0  0
 17  6  1  0  0  0  0
 18  3  1  0  0  0  0
 19 18  1  0  0  0  0
 22  4  2  0  0  0  0
 24 12  1  0  0  0  0
 25 20  1  0  0  0  0
 25 23  2  0  0  0  0
 26 27  1  0  0  0  0
 28  1  1  0  0  0  0
 28 29  1  0  0  0  0
 30 29  1  0  0  0  0
 30 32  1  0  0  0  0
 31 30  2  0  0  0  0
M  END
>  <MODEL>
5

>  <REMARK>
 VINA RESULT:      -7.5      2.339      3.019
  Name = 
  4 active torsions:
  status: ('A' for Active; 'I' for Inactive)
    1  A    between atoms: C_1  and  C_10
    2  A    between atoms: C_2  and  O_24
    3  A    between atoms: C_10  and  O_24
    4  A    between atoms: C_13  and  C_14
                            x       y       z     vdW  Elec       q    Type
                         _______ _______ _______ _____ _____    ______ ____

>  <TORSDO>
F 4

$$$$
=
 OpenBabel11052421423D

 32 37  0  0  1  0  0  0  0  0999 V2000
  187.6820  176.1600  142.5820 C   0  0  0  0  0  0  0  0  0  0  0  0
  191.6540  173.5550  144.7270 C   0  0  1  0  0  3  0  0  0  0  0  0
  193.0860  177.1780  145.0220 C   0  0  0  0  0  1  0  0  0  0  0  0
  193.1790  171.4660  144.6240 C   0  0  0  0  0  0  0  0  0  0  0  0
  194.5300  170.9610  144.9750 C   0  0  0  0  0  0  0  0  0  0  0  0
  189.8740  174.5130  143.2370 C   0  0  0  0  0  0  0  0  0  0  0  0
  189.4970  175.1040  145.7170 C   0  0  0  0  0  2  0  0  0  0  0  0
  197.0610  170.0070  145.6160 C   0  0  0  0  0  3  0  0  0  0  0  0
  188.0930  176.0350  143.9090 C   0  0  0  0  0  3  0  0  0  0  0  0
  190.8660  175.6810  146.0830 C   0  0  2  0  0  3  0  0  0  0  0  0
  191.9750  174.9370  145.3170 C   0  0  2  0  0  0  0  0  0  0  0  0
  193.7690  173.5580  145.7040 C   0  0  2  0  0  3  0  0  0  0  0  0
  196.0820  169.1560  145.2070 N   0  0  0  0  0  0  0  0  0  0  0  0
  188.3600  175.4510  141.5830 C   0  0  0  0  0  3  0  0  0  0  0  0
  189.1770  175.2240  144.2560 C   0  0  0  0  0  0  0  0  0  0  0  0
  194.8360  169.5990  144.8880 C   0  0  0  0  0  3  0  0  0  0  0  0
  189.4450  174.6370  141.9110 C   0  0  0  0  0  3  0  0  0  0  0  0
  193.0950  175.6900  144.7060 C   0  0  2  0  0  3  0  0  0  0  0  0
  193.3080  174.9270  145.9600 N   0  0  1  0  0  0  0  0  0  0  0  0
  195.2680  173.3530  145.5390 C   0  0  0  0  0  2  0  0  0  0  0  0
  191.0010  173.7030  143.4700 O   0  0  0  0  0  0  0  0  0  0  0  0
  192.2370  170.6860  144.3200 O   0  0  0  0  0  0  0  0  0  0  0  0
  196.8050  171.3760  145.7260 C   0  0  0  0  0  3  0  0  0  0  0  0
  193.0170  172.9490  144.5470 C   0  0  2  0  0  3  0  0  0  0  0  0
  195.5360  171.8650  145.4150 C   0  0  0  0  0  0  0  0  0  0  0  0
  191.2780  176.8400  148.1330 O   0  0  0  0  0  1  0  0  0  0  0  0
  191.0600  175.5740  147.5890 C   0  0  0  0  0  2  0  0  0  0  0  0
  186.5950  176.9870  142.2840 O   0  0  0  0  0  0  0  0  0  0  0  0
  186.6340  178.3980  142.4490 C   0  0  0  0  0  2  0  0  0  0  0  0
  185.5370  178.8250  143.3560 C   0  0  0  0  0  0  0  0  0  0  0  0
  184.4570  177.9830  143.5810 O   0  0  0  0  0  0  0  0  0  0  0  0
  185.5670  179.9640  143.8880 O   0  0  0  0  0  1  0  0  0  0  0  0
  1  9  1  0  0  0  0
  2 21  1  6  0  0  0
  2 11  1  0  0  0  0
  4  5  1  0  0  0  0
  5 25  1  0  0  0  0
  6 21  1  0  0  0  0
  6 15  1  0  0  0  0
  7 10  1  0  0  0  0
  8 23  1  0  0  0  0
  9 15  2  0  0  0  0
 10 27  1  1  0  0  0
 11 19  1  0  0  0  0
 11 10  1  0  0  0  0
 12 19  1  0  0  0  0
 13  8  2  0  0  0  0
 14 17  1  0  0  0  0
 14  1  2  0  0  0  0
 15  7  1  0  0  0  0
 16  5  2  0  0  0  0
 16 13  1  0  0  0  0
 17  6  2  0  0  0  0
 18  3  1  0  0  0  0
 18 11  1  0  0  0  0
 18 19  1  0  0  0  0
 20 12  1  0  0  0  0
 22  4  2  0  0  0  0
 24  4  1  0  0  0  0
 24  2  1  0  0  0  0
 24 12  1  0  0  0  0
 25 20  1  0  0  0  0
 25 23  2  0  0  0  0
 27 26  1  0  0  0  0
 28 29  1  0  0  0  0
 28  1  1  0  0  0  0
 29 30  1  0  0  0  0
 30 31  2  0  0  0  0
 30 32  1  0  0  0  0
M  END
>  <MODEL>
6

>  <REMARK>
 VINA RESULT:      -7.4      2.227      3.912
  Name = 
  4 active torsions:
  status: ('A' for Active; 'I' for Inactive)
    1  A    between atoms: C_1  and  C_10
    2  A    between atoms: C_2  and  O_24
    3  A    between atoms: C_10  and  O_24
    4  A    between atoms: C_13  and  C_14
                            x       y       z     vdW  Elec       q    Type
                         _______ _______ _______ _____ _____    ______ ____

>  <TORSDO>
F 4

$$$$
=
 OpenBabel11052421423D

 32 37  0  0  1  0  0  0  0  0999 V2000
  186.0290  177.6330  141.1840 C   0  0  0  0  0  0  0  0  0  0  0  0
  189.6990  175.0290  143.8150 C   0  0  1  0  0  3  0  0  0  0  0  0
  191.1800  178.6310  144.1300 C   0  0  0  0  0  1  0  0  0  0  0  0
  191.1760  172.9080  143.9420 C   0  0  0  0  0  0  0  0  0  0  0  0
  192.4710  172.3890  144.4480 C   0  0  0  0  0  0  0  0  0  0  0  0
  188.1030  175.9680  142.1180 C   0  0  0  0  0  0  0  0  0  0  0  0
  187.4900  176.6580  144.5240 C   0  0  0  0  0  2  0  0  0  0  0  0
  194.8990  171.4080  145.3790 C   0  0  0  0  0  3  0  0  0  0  0  0
  186.3000  177.5500  142.5500 C   0  0  0  0  0  3  0  0  0  0  0  0
  188.8270  177.2210  145.0080 C   0  0  2  0  0  3  0  0  0  0  0  0
  189.9910  176.4260  144.3870 C   0  0  2  0  0  0  0  0  0  0  0  0
  191.7020  175.0260  145.0030 C   0  0  2  0  0  3  0  0  0  0  0  0
  193.9470  170.5630  144.9010 N   0  0  0  0  0  0  0  0  0  0  0  0
  186.7890  176.8740  140.2850 C   0  0  0  0  0  3  0  0  0  0  0  0
  187.3240  176.7300  143.0340 C   0  0  0  0  0  0  0  0  0  0  0  0
  192.7520  171.0180  144.4410 C   0  0  0  0  0  3  0  0  0  0  0  0
  187.8150  176.0510  140.7520 C   0  0  0  0  0  3  0  0  0  0  0  0
  191.1850  177.1330  143.8680 C   0  0  2  0  0  3  0  0  0  0  0  0
  191.2500  176.4130  145.1630 N   0  0  1  0  0  0  0  0  0  0  0  0
  193.2050  174.7850  145.0010 C   0  0  0  0  0  2  0  0  0  0  0  0
  189.1800  175.1440  142.4930 O   0  0  0  0  0  0  0  0  0  0  0  0
  190.2500  172.1360  143.5710 O   0  0  0  0  0  0  0  0  0  0  0  0
  194.6660  172.7850  145.4140 C   0  0  0  0  0  3  0  0  0  0  0  0
  191.0580  174.3900  143.7980 C   0  0  2  0  0  3  0  0  0  0  0  0
  193.4480  173.2880  144.9570 C   0  0  0  0  0  0  0  0  0  0  0  0
  187.6920  177.7100  147.0550 O   0  0  0  0  0  1  0  0  0  0  0  0
  188.8640  177.1660  146.5290 C   0  0  0  0  0  2  0  0  0  0  0  0
  184.9990  178.4710  140.7470 O   0  0  0  0  0  0  0  0  0  0  0  0
  183.7990  177.9750  140.1680 C   0  0  0  0  0  2  0  0  0  0  0  0
  182.6490  178.2910  141.0560 C   0  0  0  0  0  0  0  0  0  0  0  0
  181.3870  178.4860  140.5130 O   0  0  0  0  0  0  0  0  0  0  0  0
  182.8270  178.4200  142.2940 O   0  0  0  0  0  1  0  0  0  0  0  0
  1  9  1  0  0  0  0
  2 21  1  6  0  0  0
  2 11  1  0  0  0  0
  4  5  1  0  0  0  0
  5 25  1  0  0  0  0
  6 21  1  0  0  0  0
  6 15  1  0  0  0  0
  7 10  1  0  0  0  0
  8 23  1  0  0  0  0
  9 15  2  0  0  0  0
 10 27  1  1  0  0  0
 11 10  1  0  0  0  0
 11 19  1  0  0  0  0
 12 19  1  0  0  0  0
 13  8  2  0  0  0  0
 14 17  1  0  0  0  0
 14  1  2  0  0  0  0
 15  7  1  0  0  0  0
 16  5  2  0  0  0  0
 16 13  1  0  0  0  0
 17  6  2  0  0  0  0
 18  3  1  0  0  0  0
 18 11  1  0  0  0  0
 18 19  1  0  0  0  0
 20 12  1  0  0  0  0
 22  4  2  0  0  0  0
 24  2  1  0  0  0  0
 24  4  1  0  0  0  0
 24 12  1  0  0  0  0
 25 20  1  0  0  0  0
 25 23  2  0  0  0  0
 27 26  1  0  0  0  0
 28  1  1  0  0  0  0
 29 28  1  0  0  0  0
 29 30  1  0  0  0  0
 30 32  1  0  0  0  0
 31 30  2  0  0  0  0
M  END
>  <MODEL>
7

>  <REMARK>
 VINA RESULT:      -7.3      2.523      4.232
  Name = 
  4 active torsions:
  status: ('A' for Active; 'I' for Inactive)
    1  A    between atoms: C_1  and  C_10
    2  A    between atoms: C_2  and  O_24
    3  A    between atoms: C_10  and  O_24
    4  A    between atoms: C_13  and  C_14
                            x       y       z     vdW  Elec       q    Type
                         _______ _______ _______ _____ _____    ______ ____

>  <TORSDO>
F 4

$$$$
=
 OpenBabel11052421423D

 32 37  0  0  1  0  0  0  0  0999 V2000
  192.1730  171.5060  142.6280 C   0  0  0  0  0  0  0  0  0  0  0  0
  188.9990  175.5210  143.6170 C   0  0  1  0  0  3  0  0  0  0  0  0
  190.3490  174.9190  147.2350 C   0  0  0  0  0  1  0  0  0  0  0  0
  186.7060  176.6300  143.1610 C   0  0  0  0  0  0  0  0  0  0  0  0
  185.6790  177.5250  143.7500 C   0  0  0  0  0  0  0  0  0  0  0  0
  190.0530  173.3290  142.9930 C   0  0  0  0  0  0  0  0  0  0  0  0
  191.7980  175.2010  143.2990 C   0  0  0  0  0  2  0  0  0  0  0  0
  183.7430  179.1890  144.8480 C   0  0  0  0  0  3  0  0  0  0  0  0
  192.4410  172.8480  142.8970 C   0  0  0  0  0  3  0  0  0  0  0  0
  191.4090  175.7270  144.6820 C   0  0  2  0  0  3  0  0  0  0  0  0
  189.8830  175.6470  144.8690 C   0  0  2  0  0  0  0  0  0  0  0  0
  188.0620  177.0170  145.1370 C   0  0  2  0  0  3  0  0  0  0  0  0
  183.6920  178.8380  143.5350 N   0  0  0  0  0  0  0  0  0  0  0  0
  190.8430  171.0780  142.5290 C   0  0  0  0  0  3  0  0  0  0  0  0
  191.4050  173.7690  143.0810 C   0  0  0  0  0  0  0  0  0  0  0  0
  184.6270  178.0250  142.9760 C   0  0  0  0  0  3  0  0  0  0  0  0
  189.7970  171.9830  142.7110 C   0  0  0  0  0  3  0  0  0  0  0  0
  189.3120  175.1720  146.1510 C   0  0  2  0  0  3  0  0  0  0  0  0
  189.2970  176.6180  145.8190 N   0  0  1  0  0  0  0  0  0  0  0  0
  186.8770  177.3920  146.0160 C   0  0  0  0  0  2  0  0  0  0  0  0
  188.9380  174.1600  143.2010 O   0  0  0  0  0  0  0  0  0  0  0  0
  186.7220  176.3580  141.9300 O   0  0  0  0  0  0  0  0  0  0  0  0
  184.7760  178.7220  145.6630 C   0  0  0  0  0  3  0  0  0  0  0  0
  187.6600  175.9860  144.1130 C   0  0  2  0  0  3  0  0  0  0  0  0
  185.7580  177.8930  145.1210 C   0  0  0  0  0  0  0  0  0  0  0  0
  193.2990  177.1610  144.9860 O   0  0  0  0  0  1  0  0  0  0  0  0
  191.9140  177.1570  144.8240 C   0  0  0  0  0  2  0  0  0  0  0  0
  193.2420  170.6220  142.4550 O   0  0  0  0  0  0  0  0  0  0  0  0
  194.3920  170.6350  143.2900 C   0  0  0  0  0  2  0  0  0  0  0  0
  194.0330  170.1330  144.6420 C   0  0  0  0  0  0  0  0  0  0  0  0
  194.2830  170.9150  145.7620 O   0  0  0  0  0  1  0  0  0  0  0  0
  193.5370  168.9850  144.7760 O   0  0  0  0  0  0  0  0  0  0  0  0
  1  9  1  0  0  0  0
  2 21  1  1  0  0  0
  2 24  1  0  0  0  0
  2 11  1  0  0  0  0
  4  5  1  0  0  0  0
  4 24  1  0  0  0  0
  5 25  1  0  0  0  0
  6 15  1  0  0  0  0
  6 21  1  0  0  0  0
  7 10  1  0  0  0  0
  8 23  1  0  0  0  0
  9 15  2  0  0  0  0
 10 27  1  6  0  0  0
 10 11  1  0  0  0  0
 11 19  1  0  0  0  0
 11 18  1  0  0  0  0
 12 19  1  0  0  0  0
 12 20  1  0  0  0  0
 13  8  2  0  0  0  0
 14  1  2  0  0  0  0
 14 17  1  0  0  0  0
 15  7  1  0  0  0  0
 16 13  1  0  0  0  0
 16  5  2  0  0  0  0
 17  6  2  0  0  0  0
 18  3  1  0  0  0  0
 19 18  1  0  0  0  0
 22  4  2  0  0  0  0
 24 12  1  0  0  0  0
 25 23  2  0  0  0  0
 25 20  1  0  0  0  0
 27 26  1  0  0  0  0
 28  1  1  0  0  0  0
 28 29  1  0  0  0  0
 29 30  1  0  0  0  0
 30 32  2  0  0  0  0
 30 31  1  0  0  0  0
M  END
>  <MODEL>
8

>  <REMARK>
 VINA RESULT:      -7.2      3.103      8.759
  Name = 
  4 active torsions:
  status: ('A' for Active; 'I' for Inactive)
    1  A    between atoms: C_1  and  C_10
    2  A    between atoms: C_2  and  O_24
    3  A    between atoms: C_10  and  O_24
    4  A    between atoms: C_13  and  C_14
                            x       y       z     vdW  Elec       q    Type
                         _______ _______ _______ _____ _____    ______ ____

>  <TORSDO>
F 4

$$$$
=
 OpenBabel11052421423D

 32 37  0  0  1  0  0  0  0  0999 V2000
  187.4940  177.8260  144.4360 C   0  0  0  0  0  0  0  0  0  0  0  0
  191.6960  174.7510  144.1920 C   0  0  1  0  0  3  0  0  0  0  0  0
  188.9340  172.0270  143.7260 C   0  0  0  0  0  1  0  0  0  0  0  0
  194.0340  174.2020  145.1570 C   0  0  0  0  0  0  0  0  0  0  0  0
  195.0100  173.1020  145.3570 C   0  0  0  0  0  0  0  0  0  0  0  0
  189.8530  176.3340  144.8300 C   0  0  0  0  0  0  0  0  0  0  0  0
  189.9030  175.8600  142.2970 C   0  0  0  0  0  2  0  0  0  0  0  0
  196.8410  171.0470  145.7480 C   0  0  0  0  0  3  0  0  0  0  0  0
  188.1110  177.1920  143.3570 C   0  0  0  0  0  3  0  0  0  0  0  0
  189.9060  174.3300  142.2950 C   0  0  2  0  0  3  0  0  0  0  0  0
  190.7080  173.8010  143.4980 C   0  0  2  0  0  0  0  0  0  0  0  0
  192.6240  172.6270  143.9650 C   0  0  2  0  0  3  0  0  0  0  0  0
  197.1940  172.3430  145.9660 N   0  0  0  0  0  0  0  0  0  0  0  0
  188.0650  177.7240  145.7100 C   0  0  0  0  0  3  0  0  0  0  0  0
  189.2820  176.4460  143.5310 C   0  0  0  0  0  0  0  0  0  0  0  0
  196.3170  173.3640  145.7820 C   0  0  0  0  0  3  0  0  0  0  0  0
  189.2320  176.9840  145.9020 C   0  0  0  0  0  3  0  0  0  0  0  0
  190.1970  172.6580  144.2910 C   0  0  2  0  0  3  0  0  0  0  0  0
  191.3110  172.4600  143.3320 N   0  0  1  0  0  0  0  0  0  0  0  0
  193.2270  171.4020  144.6390 C   0  0  0  0  0  2  0  0  0  0  0  0
  191.0030  175.5770  145.1230 O   0  0  0  0  0  0  0  0  0  0  0  0
  194.3650  175.4130  145.2760 O   0  0  0  0  0  0  0  0  0  0  0  0
  195.5500  170.7320  145.3170 C   0  0  0  0  0  3  0  0  0  0  0  0
  192.6170  173.8040  144.9080 C   0  0  2  0  0  3  0  0  0  0  0  0
  194.6260  171.7560  145.1090 C   0  0  0  0  0  0  0  0  0  0  0  0
  189.5900  172.9840  140.3440 O   0  0  0  0  0  1  0  0  0  0  0  0
  190.4900  173.8410  140.9770 C   0  0  0  0  0  2  0  0  0  0  0  0
  186.3230  178.5560  144.2130 O   0  0  0  0  0  0  0  0  0  0  0  0
  185.0290  177.9730  144.2850 C   0  0  0  0  0  2  0  0  0  0  0  0
  184.5530  177.9850  145.6930 C   0  0  0  0  0  0  0  0  0  0  0  0
  184.7730  176.8840  146.5090 O   0  0  0  0  0  1  0  0  0  0  0  0
  183.9180  178.9770  146.1350 O   0  0  0  0  0  0  0  0  0  0  0  0
  1 14  1  0  0  0  0
  2 24  1  0  0  0  0
  2 21  1  1  0  0  0
  3 18  1  0  0  0  0
  4 22  2  0  0  0  0
  4  5  1  0  0  0  0
  5 16  1  0  0  0  0
  6 21  1  0  0  0  0
  6 17  1  0  0  0  0
  7 15  1  0  0  0  0
  8 13  1  0  0  0  0
  9 15  1  0  0  0  0
  9  1  2  0  0  0  0
 10 27  1  6  0  0  0
 10  7  1  0  0  0  0
 10 11  1  0  0  0  0
 11  2  1  0  0  0  0
 11 18  1  0  0  0  0
 12 20  1  0  0  0  0
 12 24  1  0  0  0  0
 14 17  2  0  0  0  0
 15  6  2  0  0  0  0
 16 13  2  0  0  0  0
 19 11  1  0  0  0  0
 19 12  1  0  0  0  0
 19 18  1  0  0  0  0
 20 25  1  0  0  0  0
 23  8  2  0  0  0  0
 24  4  1  0  0  0  0
 25 23  1  0  0  0  0
 25  5  2  0  0  0  0
 26 27  1  0  0  0  0
 28 29  1  0  0  0  0
 28  1  1  0  0  0  0
 29 30  1  0  0  0  0
 30 32  2  0  0  0  0
 30 31  1  0  0  0  0
M  END
>  <MODEL>
9

>  <REMARK>
 VINA RESULT:      -7.2      1.241      1.569
  Name = 
  4 active torsions:
  status: ('A' for Active; 'I' for Inactive)
    1  A    between atoms: C_1  and  C_10
    2  A    between atoms: C_2  and  O_24
    3  A    between atoms: C_10  and  O_24
    4  A    between atoms: C_13  and  C_14
                            x       y       z     vdW  Elec       q    Type
                         _______ _______ _______ _____ _____    ______ ____

>  <TORSDO>
F 4

$$$$
