=
 OpenBabel11052417243D

 30 32  0  0  1  0  0  0  0  0999 V2000
  190.9980  177.4450  145.3180 C   0  0  0  0  0  2  0  0  0  0  0  0
  191.2110  176.0050  144.8690 C   0  0  1  0  0  3  0  0  0  0  0  0
  189.7530  177.7930  142.0760 O   0  0  0  0  0  0  0  0  0  0  0  0
  191.1160  172.5920  141.7670 C   0  0  0  0  0  3  0  0  0  0  0  0
  193.1000  174.2970  144.5460 C   0  0  1  0  0  3  0  0  0  0  0  0
  190.4160  173.6550  145.2530 N   0  0  0  0  0  2  0  0  0  0  0  0
  188.6450  175.2260  143.0500 O   0  0  0  0  0  1  0  0  0  0  0  0
  192.6940  175.2960  142.2020 C   0  0  0  0  0  1  0  0  0  0  0  0
  192.6690  175.6390  145.1450 C   0  0  0  0  0  2  0  0  0  0  0  0
  190.3720  173.0920  143.9370 C   0  0  0  0  0  0  0  0  0  0  0  0
  189.6770  171.7600  141.9980 S   0  0  0  0  0  0  0  0  0  0  0  0
  190.7610  178.3580  144.1200 C   0  0  0  0  0  2  0  0  0  0  0  0
  188.3230  177.4670  143.9500 C   0  0  2  0  0  3  0  0  0  0  0  0
  189.6160  177.8750  143.2870 C   0  0  0  0  0  0  0  0  0  0  0  0
  188.7260  175.4610  145.4850 C   0  0  0  0  0  2  0  0  0  0  0  0
  188.1660  175.9540  144.1400 C   0  0  2  0  0  3  0  0  0  0  0  0
  190.2160  175.0690  145.5680 C   0  0  2  0  0  3  0  0  0  0  0  0
  189.3440  172.2330  143.5730 C   0  0  0  0  0  3  0  0  0  0  0  0
  192.6470  174.0630  143.0950 C   0  0  2  0  0  3  0  0  0  0  0  0
  191.3670  173.2830  142.9460 C   0  0  0  0  0  0  0  0  0  0  0  0
  194.6060  174.1560  144.6620 C   0  0  0  0  0  2  0  0  0  0  0  0
  195.2070  175.4150  144.6050 O   0  0  0  0  0  0  0  0  0  0  0  0
  196.7440  175.1370  143.8920 S   0  0  0  0  0  0  0  0  0  0  0  0
  196.8310  176.8250  143.2280 C   0  0  0  0  0  1  0  0  0  0  0  0
  187.0540  178.1410  143.3960 C   0  0  1  0  0  3  0  0  0  0  0  0
  186.2480  177.1970  142.4980 C   0  0  2  0  0  3  0  0  0  0  0  0
  186.4180  177.5700  141.0360 C   0  0  0  0  0  1  0  0  0  0  0  0
  184.8920  177.2670  142.8200 O   0  0  0  0  0  1  0  0  0  0  0  0
  185.5600  180.1760  144.1320 O   0  0  0  0  0  0  0  0  0  0  0  0
  186.0110  178.8400  144.7070 S   0  0  0  0  0  3  0  0  0  0  0  0
  2  9  1  1  0  0  0
  2  1  1  0  0  0  0
  2 17  1  0  0  0  0
  3 14  2  0  0  0  0
  4 11  1  0  0  0  0
  4 20  2  0  0  0  0
  5 21  1  6  0  0  0
  5  9  1  0  0  0  0
  6 17  1  0  0  0  0
 10  6  1  0  0  0  0
 11 18  1  0  0  0  0
 12  1  1  0  0  0  0
 13 25  1  6  0  0  0
 13 16  1  0  0  0  0
 14 13  1  0  0  0  0
 14 12  1  0  0  0  0
 16  7  1  6  0  0  0
 16 15  1  0  0  0  0
 17 15  1  6  0  0  0
 18 10  2  0  0  0  0
 19  8  1  1  0  0  0
 19  5  1  0  0  0  0
 20 19  1  0  0  0  0
 20 10  1  0  0  0  0
 22 21  1  0  0  0  0
 23 22  1  0  0  0  0
 24 23  1  0  0  0  0
 25 30  1  1  0  0  0
 26 27  1  6  0  0  0
 26 28  1  0  0  0  0
 26 25  1  0  0  0  0
 29 30  2  0  0  0  0
M  END
>  <MODEL>
1

>  <REMARK>
 VINA RESULT:      -6.2      0.000      0.000
  Name = 
  6 active torsions:
  status: ('A' for Active; 'I' for Inactive)
    1  A    between atoms: C_2  and  C_28
    2  A    between atoms: C_6  and  C_8
    3  A    between atoms: C_6  and  O_21
    4  A    between atoms: S_9  and  O_21
    5  A    between atoms: C_19  and  C_28
    6  A    between atoms: C_28  and  S_29
                            x       y       z     vdW  Elec       q    Type
                         _______ _______ _______ _____ _____    ______ ____

>  <TORSDO>
F 6

$$$$
=
 OpenBabel11052417243D

 30 32  0  0  1  0  0  0  0  0999 V2000
  193.0390  176.7030  145.6500 C   0  0  0  0  0  2  0  0  0  0  0  0
  191.8550  176.2360  144.8140 C   0  0  1  0  0  3  0  0  0  0  0  0
  193.6050  173.2710  145.9410 O   0  0  0  0  0  0  0  0  0  0  0  0
  189.1270  173.0090  142.9610 C   0  0  0  0  0  3  0  0  0  0  0  0
  189.2920  176.3630  144.7760 C   0  0  1  0  0  3  0  0  0  0  0  0
  190.9560  176.2010  142.4700 N   0  0  0  0  0  2  0  0  0  0  0  0
  192.8960  173.6910  143.0980 O   0  0  0  0  0  1  0  0  0  0  0  0
  189.8320  174.0800  145.8510 C   0  0  0  0  0  1  0  0  0  0  0  0
  190.5970  176.9020  145.3690 C   0  0  0  0  0  2  0  0  0  0  0  0
  190.3850  174.8940  142.3450 C   0  0  0  0  0  0  0  0  0  0  0  0
  189.6710  172.7480  141.3960 S   0  0  0  0  0  0  0  0  0  0  0  0
  193.6020  175.5560  146.4820 C   0  0  0  0  0  2  0  0  0  0  0  0
  194.7670  174.6130  144.3560 C   0  0  2  0  0  3  0  0  0  0  0  0
  193.9730  174.3910  145.6210 C   0  0  0  0  0  0  0  0  0  0  0  0
  193.4230  176.0530  142.7250 C   0  0  0  0  0  2  0  0  0  0  0  0
  193.9180  174.6410  143.0800 C   0  0  2  0  0  3  0  0  0  0  0  0
  192.0890  176.5430  143.3280 C   0  0  2  0  0  3  0  0  0  0  0  0
  190.5050  174.1830  141.1580 C   0  0  0  0  0  3  0  0  0  0  0  0
  189.2110  174.8310  144.6790 C   0  0  2  0  0  3  0  0  0  0  0  0
  189.6070  174.2570  143.3430 C   0  0  0  0  0  0  0  0  0  0  0  0
  188.1180  176.9070  145.5690 C   0  0  0  0  0  2  0  0  0  0  0  0
  186.9230  176.6340  144.9000 O   0  0  0  0  0  0  0  0  0  0  0  0
  185.6940  176.9120  146.0650 S   0  0  0  0  0  0  0  0  0  0  0  0
  186.8450  177.7400  147.2000 C   0  0  0  0  0  1  0  0  0  0  0  0
  196.0410  173.7590  144.2160 C   0  0  1  0  0  3  0  0  0  0  0  0
  196.8750  174.1670  142.9980 C   0  0  2  0  0  3  0  0  0  0  0  0
  197.9380  173.1240  142.7000 C   0  0  0  0  0  1  0  0  0  0  0  0
  197.5050  175.3900  143.2330 O   0  0  0  0  0  1  0  0  0  0  0  0
  196.9730  172.3240  146.2140 O   0  0  0  0  0  0  0  0  0  0  0  0
  197.0490  173.7640  145.7270 S   0  0  0  0  0  3  0  0  0  0  0  0
  1 12  1  0  0  0  0
  2  9  1  1  0  0  0
  2  1  1  0  0  0  0
  4 20  2  0  0  0  0
  5  9  1  0  0  0  0
  5 21  1  1  0  0  0
  6 17  1  0  0  0  0
 10  6  1  0  0  0  0
 10 20  1  0  0  0  0
 11  4  1  0  0  0  0
 13 25  1  6  0  0  0
 13 14  1  0  0  0  0
 14  3  2  0  0  0  0
 14 12  1  0  0  0  0
 15 16  1  0  0  0  0
 16  7  1  1  0  0  0
 16 13  1  0  0  0  0
 17 15  1  6  0  0  0
 17  2  1  0  0  0  0
 18 11  1  0  0  0  0
 18 10  2  0  0  0  0
 19  5  1  0  0  0  0
 19  8  1  1  0  0  0
 20 19  1  0  0  0  0
 22 21  1  0  0  0  0
 22 23  1  0  0  0  0
 23 24  1  0  0  0  0
 25 30  1  1  0  0  0
 26 27  1  1  0  0  0
 26 28  1  0  0  0  0
 26 25  1  0  0  0  0
 30 29  2  0  0  0  0
M  END
>  <MODEL>
2

>  <REMARK>
 VINA RESULT:      -6.2      2.369      7.345
  Name = 
  6 active torsions:
  status: ('A' for Active; 'I' for Inactive)
    1  A    between atoms: C_2  and  C_28
    2  A    between atoms: C_6  and  C_8
    3  A    between atoms: C_6  and  O_21
    4  A    between atoms: S_9  and  O_21
    5  A    between atoms: C_19  and  C_28
    6  A    between atoms: C_28  and  S_29
                            x       y       z     vdW  Elec       q    Type
                         _______ _______ _______ _____ _____    ______ ____

>  <TORSDO>
F 6

$$$$
=
 OpenBabel11052417243D

 30 32  0  0  1  0  0  0  0  0999 V2000
  192.6980  177.2030  144.7310 C   0  0  0  0  0  2  0  0  0  0  0  0
  191.6470  176.2580  144.1600 C   0  0  1  0  0  3  0  0  0  0  0  0
  193.7370  174.3150  146.3920 O   0  0  0  0  0  0  0  0  0  0  0  0
  189.5380  172.1730  143.7880 C   0  0  0  0  0  3  0  0  0  0  0  0
  189.1000  175.9530  144.0800 C   0  0  1  0  0  3  0  0  0  0  0  0
  190.9100  175.1420  142.0360 N   0  0  0  0  0  2  0  0  0  0  0  0
  193.1520  173.4380  143.6250 O   0  0  0  0  0  1  0  0  0  0  0  0
  189.8990  174.4120  145.9900 C   0  0  0  0  0  1  0  0  0  0  0  0
  190.2740  176.8840  144.3990 C   0  0  0  0  0  2  0  0  0  0  0  0
  190.5440  173.8230  142.4550 C   0  0  0  0  0  0  0  0  0  0  0  0
  190.2110  171.3930  142.4630 S   0  0  0  0  0  0  0  0  0  0  0  0
  193.3680  176.5930  145.9560 C   0  0  0  0  0  2  0  0  0  0  0  0
  194.7880  175.0710  144.3950 C   0  0  2  0  0  3  0  0  0  0  0  0
  193.9580  175.2540  145.6430 C   0  0  0  0  0  0  0  0  0  0  0  0
  193.3520  175.5010  142.3230 C   0  0  0  0  0  2  0  0  0  0  0  0
  194.0250  174.4490  143.2200 C   0  0  2  0  0  3  0  0  0  0  0  0
  191.9270  175.9750  142.6780 C   0  0  2  0  0  3  0  0  0  0  0  0
  190.8400  172.7240  141.6600 C   0  0  0  0  0  3  0  0  0  0  0  0
  189.2500  174.5200  144.6160 C   0  0  2  0  0  3  0  0  0  0  0  0
  189.8070  173.5270  143.6280 C   0  0  0  0  0  0  0  0  0  0  0  0
  187.8140  176.5770  144.5870 C   0  0  0  0  0  2  0  0  0  0  0  0
  188.0940  177.4760  145.6190 O   0  0  0  0  0  0  0  0  0  0  0  0
  187.0170  177.0420  146.8830 S   0  0  0  0  0  0  0  0  0  0  0  0
  185.6340  176.8020  145.7310 C   0  0  0  0  0  1  0  0  0  0  0  0
  196.1780  174.4460  144.6110 C   0  0  1  0  0  3  0  0  0  0  0  0
  196.1440  172.9180  144.5060 C   0  0  2  0  0  3  0  0  0  0  0  0
  196.6200  172.2790  145.7980 C   0  0  0  0  0  1  0  0  0  0  0  0
  196.9700  172.4890  143.4660 O   0  0  0  0  0  1  0  0  0  0  0  0
  196.9310  176.5600  143.2380 O   0  0  0  0  0  0  0  0  0  0  0  0
  197.4340  175.1470  143.5030 S   0  0  0  0  0  3  0  0  0  0  0  0
  1 12  1  0  0  0  0
  2  9  1  6  0  0  0
  2  1  1  0  0  0  0
  5  9  1  0  0  0  0
  5 21  1  1  0  0  0
  5 19  1  0  0  0  0
  6 10  1  0  0  0  0
  6 17  1  0  0  0  0
 10 20  1  0  0  0  0
 11  4  1  0  0  0  0
 13 25  1  1  0  0  0
 13 14  1  0  0  0  0
 14 12  1  0  0  0  0
 14  3  2  0  0  0  0
 15 16  1  0  0  0  0
 16  7  1  1  0  0  0
 16 13  1  0  0  0  0
 17 15  1  1  0  0  0
 17  2  1  0  0  0  0
 18 10  2  0  0  0  0
 18 11  1  0  0  0  0
 19  8  1  1  0  0  0
 20  4  2  0  0  0  0
 20 19  1  0  0  0  0
 21 22  1  0  0  0  0
 22 23  1  0  0  0  0
 24 23  1  0  0  0  0
 25 30  1  6  0  0  0
 26 25  1  0  0  0  0
 26 27  1  1  0  0  0
 28 26  1  0  0  0  0
 29 30  2  0  0  0  0
M  END
>  <MODEL>
3

>  <REMARK>
 VINA RESULT:      -6.0      2.224      7.122
  Name = 
  6 active torsions:
  status: ('A' for Active; 'I' for Inactive)
    1  A    between atoms: C_2  and  C_28
    2  A    between atoms: C_6  and  C_8
    3  A    between atoms: C_6  and  O_21
    4  A    between atoms: S_9  and  O_21
    5  A    between atoms: C_19  and  C_28
    6  A    between atoms: C_28  and  S_29
                            x       y       z     vdW  Elec       q    Type
                         _______ _______ _______ _____ _____    ______ ____

>  <TORSDO>
F 6

$$$$
=
 OpenBabel11052417243D

 30 32  0  0  1  0  0  0  0  0999 V2000
  190.7400  175.6460  146.9740 C   0  0  0  0  0  2  0  0  0  0  0  0
  191.6530  175.0880  145.8900 C   0  0  1  0  0  3  0  0  0  0  0  0
  190.0580  178.0440  144.5320 O   0  0  0  0  0  0  0  0  0  0  0  0
  193.6430  175.1640  141.7290 C   0  0  0  0  0  3  0  0  0  0  0  0
  194.1310  174.5710  145.4680 C   0  0  1  0  0  3  0  0  0  0  0  0
  191.9450  173.1400  144.3340 N   0  0  0  0  0  2  0  0  0  0  0  0
  190.0710  175.4610  143.0860 O   0  0  0  0  0  1  0  0  0  0  0  0
  193.7350  176.8790  144.3830 C   0  0  0  0  0  1  0  0  0  0  0  0
  193.0460  174.9150  146.4930 C   0  0  0  0  0  2  0  0  0  0  0  0
  192.3880  173.7430  143.1140 C   0  0  0  0  0  0  0  0  0  0  0  0
  192.7160  174.1900  140.7250 S   0  0  0  0  0  0  0  0  0  0  0  0
  190.3310  177.0800  146.6550 C   0  0  0  0  0  2  0  0  0  0  0  0
  188.6250  176.1820  144.9090 C   0  0  2  0  0  3  0  0  0  0  0  0
  189.6900  177.1750  145.3070 C   0  0  0  0  0  0  0  0  0  0  0  0
  189.6110  173.8230  144.8470 C   0  0  0  0  0  2  0  0  0  0  0  0
  189.1350  175.0350  144.0290 C   0  0  2  0  0  3  0  0  0  0  0  0
  191.0790  173.7820  145.3220 C   0  0  2  0  0  3  0  0  0  0  0  0
  191.9370  173.2680  141.8890 C   0  0  0  0  0  3  0  0  0  0  0  0
  194.0930  175.4110  144.1810 C   0  0  2  0  0  3  0  0  0  0  0  0
  193.3470  174.7820  143.0320 C   0  0  0  0  0  0  0  0  0  0  0  0
  195.4930  174.6710  146.1270 C   0  0  0  0  0  2  0  0  0  0  0  0
  196.4970  174.6080  145.1580 O   0  0  0  0  0  0  0  0  0  0  0  0
  196.9750  172.9590  145.1280 S   0  0  0  0  0  0  0  0  0  0  0  0
  196.7060  172.8320  143.3360 C   0  0  0  0  0  1  0  0  0  0  0  0
  187.3070  176.7950  144.4000 C   0  0  1  0  0  3  0  0  0  0  0  0
  186.6900  177.7570  145.4200 C   0  0  2  0  0  3  0  0  0  0  0  0
  185.4970  177.1170  146.1090 C   0  0  0  0  0  1  0  0  0  0  0  0
  186.2640  178.9240  144.7850 O   0  0  0  0  0  1  0  0  0  0  0  0
  186.6980  176.6980  141.8430 O   0  0  0  0  0  0  0  0  0  0  0  0
  187.4940  177.5950  142.7810 S   0  0  0  0  0  3  0  0  0  0  0  0
  2  9  1  1  0  0  0
  2  1  1  0  0  0  0
  3 14  2  0  0  0  0
  4 20  2  0  0  0  0
  5 21  1  1  0  0  0
  5  9  1  0  0  0  0
  6 17  1  0  0  0  0
 10  6  1  0  0  0  0
 11  4  1  0  0  0  0
 11 18  1  0  0  0  0
 12  1  1  0  0  0  0
 13 25  1  6  0  0  0
 13 14  1  0  0  0  0
 14 12  1  0  0  0  0
 16  7  1  1  0  0  0
 16 15  1  0  0  0  0
 16 13  1  0  0  0  0
 17 15  1  6  0  0  0
 17  2  1  0  0  0  0
 18 10  2  0  0  0  0
 19  8  1  1  0  0  0
 19  5  1  0  0  0  0
 20 10  1  0  0  0  0
 20 19  1  0  0  0  0
 22 21  1  0  0  0  0
 23 22  1  0  0  0  0
 24 23  1  0  0  0  0
 25 30  1  6  0  0  0
 25 26  1  0  0  0  0
 26 27  1  6  0  0  0
 28 26  1  0  0  0  0
 29 30  2  0  0  0  0
M  END
>  <MODEL>
4

>  <REMARK>
 VINA RESULT:      -6.0      1.963      2.674
  Name = 
  6 active torsions:
  status: ('A' for Active; 'I' for Inactive)
    1  A    between atoms: C_2  and  C_28
    2  A    between atoms: C_6  and  C_8
    3  A    between atoms: C_6  and  O_21
    4  A    between atoms: S_9  and  O_21
    5  A    between atoms: C_19  and  C_28
    6  A    between atoms: C_28  and  S_29
                            x       y       z     vdW  Elec       q    Type
                         _______ _______ _______ _____ _____    ______ ____

>  <TORSDO>
F 6

$$$$
=
 OpenBabel11052417243D

 30 32  0  0  1  0  0  0  0  0999 V2000
  190.8990  175.5980  147.0270 C   0  0  0  0  0  2  0  0  0  0  0  0
  191.7640  175.0380  145.9050 C   0  0  1  0  0  3  0  0  0  0  0  0
  190.3450  178.1510  144.7110 O   0  0  0  0  0  0  0  0  0  0  0  0
  193.7140  175.1930  141.7270 C   0  0  0  0  0  3  0  0  0  0  0  0
  194.2000  174.3880  145.4260 C   0  0  1  0  0  3  0  0  0  0  0  0
  191.9170  173.1540  144.2530 N   0  0  0  0  0  2  0  0  0  0  0  0
  190.1820  175.6450  143.1430 O   0  0  0  0  0  1  0  0  0  0  0  0
  193.9400  176.7670  144.4590 C   0  0  0  0  0  1  0  0  0  0  0  0
  193.1490  174.7490  146.4800 C   0  0  0  0  0  2  0  0  0  0  0  0
  192.3860  173.7870  143.0580 C   0  0  0  0  0  0  0  0  0  0  0  0
  192.7180  174.3300  140.6890 S   0  0  0  0  0  0  0  0  0  0  0  0
  190.5780  177.0690  146.7820 C   0  0  0  0  0  2  0  0  0  0  0  0
  188.8010  176.3660  145.0170 C   0  0  2  0  0  3  0  0  0  0  0  0
  189.9310  177.2690  145.4490 C   0  0  0  0  0  0  0  0  0  0  0  0
  189.6370  173.9560  144.8280 C   0  0  0  0  0  2  0  0  0  0  0  0
  189.2290  175.2340  144.0760 C   0  0  2  0  0  3  0  0  0  0  0  0
  191.1040  173.8000  145.2820 C   0  0  2  0  0  3  0  0  0  0  0  0
  191.8940  173.4020  141.8180 C   0  0  0  0  0  3  0  0  0  0  0  0
  194.2020  175.2920  144.1820 C   0  0  2  0  0  3  0  0  0  0  0  0
  193.4080  174.7670  143.0140 C   0  0  0  0  0  0  0  0  0  0  0  0
  195.5730  174.3710  146.0720 C   0  0  0  0  0  2  0  0  0  0  0  0
  196.4180  173.5080  145.3720 O   0  0  0  0  0  0  0  0  0  0  0  0
  195.6560  171.9720  145.4700 S   0  0  0  0  0  0  0  0  0  0  0  0
  197.2340  171.0890  145.2980 C   0  0  0  0  0  1  0  0  0  0  0  0
  187.5200  177.0830  144.5550 C   0  0  1  0  0  3  0  0  0  0  0  0
  187.1150  176.6790  143.1340 C   0  0  2  0  0  3  0  0  0  0  0  0
  187.4150  177.7970  142.1510 C   0  0  0  0  0  1  0  0  0  0  0  0
  185.7490  176.3970  143.0840 O   0  0  0  0  0  1  0  0  0  0  0  0
  186.8300  176.5170  147.0290 O   0  0  0  0  0  0  0  0  0  0  0  0
  186.1410  176.8550  145.7140 S   0  0  0  0  0  3  0  0  0  0  0  0
  2  9  1  1  0  0  0
  2  1  1  0  0  0  0
  3 14  2  0  0  0  0
  4 20  2  0  0  0  0
  5 21  1  1  0  0  0
  5  9  1  0  0  0  0
  6 17  1  0  0  0  0
 10  6  1  0  0  0  0
 11  4  1  0  0  0  0
 11 18  1  0  0  0  0
 12  1  1  0  0  0  0
 13 25  1  6  0  0  0
 13 14  1  0  0  0  0
 14 12  1  0  0  0  0
 16  7  1  1  0  0  0
 16 15  1  0  0  0  0
 16 13  1  0  0  0  0
 17 15  1  6  0  0  0
 17  2  1  0  0  0  0
 18 10  2  0  0  0  0
 19  8  1  1  0  0  0
 19  5  1  0  0  0  0
 20 10  1  0  0  0  0
 20 19  1  0  0  0  0
 22 23  1  0  0  0  0
 22 21  1  0  0  0  0
 24 23  1  0  0  0  0
 25 30  1  1  0  0  0
 26 27  1  6  0  0  0
 26 25  1  0  0  0  0
 28 26  1  0  0  0  0
 30 29  2  0  0  0  0
M  END
>  <MODEL>
5

>  <REMARK>
 VINA RESULT:      -6.0      2.080      2.676
  Name = 
  6 active torsions:
  status: ('A' for Active; 'I' for Inactive)
    1  A    between atoms: C_2  and  C_28
    2  A    between atoms: C_6  and  C_8
    3  A    between atoms: C_6  and  O_21
    4  A    between atoms: S_9  and  O_21
    5  A    between atoms: C_19  and  C_28
    6  A    between atoms: C_28  and  S_29
                            x       y       z     vdW  Elec       q    Type
                         _______ _______ _______ _____ _____    ______ ____

>  <TORSDO>
F 6

$$$$
=
 OpenBabel11052417243D

 30 32  0  0  1  0  0  0  0  0999 V2000
  191.9800  173.8990  141.7030 C   0  0  0  0  0  2  0  0  0  0  0  0
  190.9360  174.4680  142.6550 C   0  0  1  0  0  3  0  0  0  0  0  0
  193.9560  176.4250  143.0810 O   0  0  0  0  0  0  0  0  0  0  0  0
  189.4330  177.4840  145.8050 C   0  0  0  0  0  3  0  0  0  0  0  0
  188.6120  175.5560  142.6160 C   0  0  1  0  0  3  0  0  0  0  0  0
  189.6250  173.9380  144.7290 N   0  0  0  0  0  2  0  0  0  0  0  0
  192.5110  175.2420  145.3790 O   0  0  0  0  0  1  0  0  0  0  0  0
  190.2710  177.5280  142.7580 C   0  0  0  0  0  1  0  0  0  0  0  0
  189.6770  174.7720  141.8440 C   0  0  0  0  0  2  0  0  0  0  0  0
  189.6290  175.1700  145.4580 C   0  0  0  0  0  0  0  0  0  0  0  0
  189.6660  176.7780  147.3100 S   0  0  0  0  0  0  0  0  0  0  0  0
  193.1370  174.8750  141.5190 C   0  0  0  0  0  2  0  0  0  0  0  0
  194.0710  174.1730  143.8430 C   0  0  2  0  0  3  0  0  0  0  0  0
  193.7480  175.2470  142.8320 C   0  0  0  0  0  0  0  0  0  0  0  0
  191.9230  173.0020  144.5870 C   0  0  0  0  0  2  0  0  0  0  0  0
  193.0210  174.0170  144.9480 C   0  0  2  0  0  3  0  0  0  0  0  0
  190.6800  173.4990  143.8170 C   0  0  2  0  0  3  0  0  0  0  0  0
  189.7590  175.1710  146.8410 C   0  0  0  0  0  3  0  0  0  0  0  0
  189.1480  176.7450  143.4290 C   0  0  2  0  0  3  0  0  0  0  0  0
  189.4310  176.4480  144.8790 C   0  0  0  0  0  0  0  0  0  0  0  0
  187.5320  176.0150  141.6530 C   0  0  0  0  0  2  0  0  0  0  0  0
  186.3970  176.4100  142.3650 O   0  0  0  0  0  0  0  0  0  0  0  0
  185.9440  177.9130  141.6690 S   0  0  0  0  0  0  0  0  0  0  0  0
  186.6380  177.4650  140.0520 C   0  0  0  0  0  1  0  0  0  0  0  0
  195.5150  174.1820  144.3780 C   0  0  1  0  0  3  0  0  0  0  0  0
  195.7430  173.0950  145.4330 C   0  0  2  0  0  3  0  0  0  0  0  0
  197.0070  173.3720  146.2270 C   0  0  0  0  0  1  0  0  0  0  0  0
  195.8660  171.8470  144.8210 O   0  0  0  0  0  1  0  0  0  0  0  0
  197.4570  175.4140  143.1020 O   0  0  0  0  0  0  0  0  0  0  0  0
  196.7470  174.0680  143.0500 S   0  0  0  0  0  3  0  0  0  0  0  0
  2  1  1  6  0  0  0
  2 17  1  0  0  0  0
  4 11  1  0  0  0  0
  5 21  1  6  0  0  0
  5 19  1  0  0  0  0
  6 10  1  0  0  0  0
  9  5  1  0  0  0  0
  9  2  1  0  0  0  0
 10 18  2  0  0  0  0
 12  1  1  0  0  0  0
 12 14  1  0  0  0  0
 13 25  1  1  0  0  0
 13 16  1  0  0  0  0
 14  3  2  0  0  0  0
 14 13  1  0  0  0  0
 15 16  1  0  0  0  0
 16  7  1  6  0  0  0
 17 15  1  1  0  0  0
 17  6  1  0  0  0  0
 18 11  1  0  0  0  0
 19  8  1  6  0  0  0
 19 20  1  0  0  0  0
 20 10  1  0  0  0  0
 20  4  2  0  0  0  0
 21 22  1  0  0  0  0
 23 22  1  0  0  0  0
 24 23  1  0  0  0  0
 25 30  1  6  0  0  0
 25 26  1  0  0  0  0
 26 27  1  6  0  0  0
 28 26  1  0  0  0  0
 30 29  2  0  0  0  0
M  END
>  <MODEL>
6

>  <REMARK>
 VINA RESULT:      -5.9      2.320      7.409
  Name = 
  6 active torsions:
  status: ('A' for Active; 'I' for Inactive)
    1  A    between atoms: C_2  and  C_28
    2  A    between atoms: C_6  and  C_8
    3  A    between atoms: C_6  and  O_21
    4  A    between atoms: S_9  and  O_21
    5  A    between atoms: C_19  and  C_28
    6  A    between atoms: C_28  and  S_29
                            x       y       z     vdW  Elec       q    Type
                         _______ _______ _______ _____ _____    ______ ____

>  <TORSDO>
F 6

$$$$
=
 OpenBabel11052417243D

 30 32  0  0  1  0  0  0  0  0999 V2000
  191.3360  173.3990  145.2370 C   0  0  0  0  0  2  0  0  0  0  0  0
  192.6810  173.6610  144.5730 C   0  0  1  0  0  3  0  0  0  0  0  0
  191.3840  176.8630  145.6650 O   0  0  0  0  0  0  0  0  0  0  0  0
  196.1700  176.3720  143.2450 C   0  0  0  0  0  3  0  0  0  0  0  0
  195.1610  173.0470  144.8240 C   0  0  1  0  0  3  0  0  0  0  0  0
  193.8570  173.6100  142.3550 N   0  0  0  0  0  2  0  0  0  0  0  0
  192.3530  176.4190  142.9030 O   0  0  0  0  0  1  0  0  0  0  0  0
  194.9230  175.3500  145.9640 C   0  0  0  0  0  1  0  0  0  0  0  0
  193.7140  172.7460  145.2290 C   0  0  0  0  0  2  0  0  0  0  0  0
  194.6720  174.7870  142.3750 C   0  0  0  0  0  0  0  0  0  0  0  0
  195.8840  176.7910  141.6460 S   0  0  0  0  0  0  0  0  0  0  0  0
  190.8950  174.6010  146.0650 C   0  0  0  0  0  2  0  0  0  0  0  0
  190.2010  175.8270  143.8790 C   0  0  2  0  0  3  0  0  0  0  0  0
  190.8570  175.8470  145.2380 C   0  0  0  0  0  0  0  0  0  0  0  0
  191.4480  174.2180  142.3310 C   0  0  0  0  0  2  0  0  0  0  0  0
  191.1820  175.6840  142.7100 C   0  0  2  0  0  3  0  0  0  0  0  0
  192.5820  173.4600  143.0540 C   0  0  2  0  0  3  0  0  0  0  0  0
  194.8340  175.5510  141.2270 C   0  0  0  0  0  3  0  0  0  0  0  0
  195.5350  174.5380  144.8290 C   0  0  2  0  0  3  0  0  0  0  0  0
  195.4230  175.2270  143.4940 C   0  0  0  0  0  0  0  0  0  0  0  0
  196.1040  172.2600  145.7140 C   0  0  0  0  0  2  0  0  0  0  0  0
  197.4250  172.4720  145.3140 O   0  0  0  0  0  0  0  0  0  0  0  0
  197.9250  170.9760  144.6370 S   0  0  0  0  0  0  0  0  0  0  0  0
  197.1110  170.0190  145.9480 C   0  0  0  0  0  1  0  0  0  0  0  0
  189.1350  176.9130  143.6440 C   0  0  1  0  0  3  0  0  0  0  0  0
  188.5930  176.8860  142.2110 C   0  0  2  0  0  3  0  0  0  0  0  0
  188.5180  178.2900  141.6380 C   0  0  0  0  0  1  0  0  0  0  0  0
  187.3150  176.3280  142.1900 O   0  0  0  0  0  1  0  0  0  0  0  0
  187.2910  178.2700  144.9380 O   0  0  0  0  0  0  0  0  0  0  0  0
  187.7830  176.8320  144.8520 S   0  0  0  0  0  3  0  0  0  0  0  0
  1 12  1  0  0  0  0
  2  9  1  1  0  0  0
  2  1  1  0  0  0  0
  4 20  2  0  0  0  0
  5 19  1  0  0  0  0
  5  9  1  0  0  0  0
  5 21  1  1  0  0  0
  6 10  1  0  0  0  0
  6 17  1  0  0  0  0
 10 20  1  0  0  0  0
 11  4  1  0  0  0  0
 13 25  1  6  0  0  0
 13 14  1  0  0  0  0
 14  3  2  0  0  0  0
 14 12  1  0  0  0  0
 15 16  1  0  0  0  0
 16  7  1  1  0  0  0
 16 13  1  0  0  0  0
 17 15  1  6  0  0  0
 17  2  1  0  0  0  0
 18 11  1  0  0  0  0
 18 10  2  0  0  0  0
 19  8  1  1  0  0  0
 20 19  1  0  0  0  0
 22 21  1  0  0  0  0
 23 22  1  0  0  0  0
 23 24  1  0  0  0  0
 25 30  1  1  0  0  0
 26 27  1  1  0  0  0
 26 25  1  0  0  0  0
 28 26  1  0  0  0  0
 30 29  2  0  0  0  0
M  END
>  <MODEL>
7

>  <REMARK>
 VINA RESULT:      -5.7      2.448      4.203
  Name = 
  6 active torsions:
  status: ('A' for Active; 'I' for Inactive)
    1  A    between atoms: C_2  and  C_28
    2  A    between atoms: C_6  and  C_8
    3  A    between atoms: C_6  and  O_21
    4  A    between atoms: S_9  and  O_21
    5  A    between atoms: C_19  and  C_28
    6  A    between atoms: C_28  and  S_29
                            x       y       z     vdW  Elec       q    Type
                         _______ _______ _______ _____ _____    ______ ____

>  <TORSDO>
F 6

$$$$
=
 OpenBabel11052417243D

 30 32  0  0  1  0  0  0  0  0999 V2000
  192.3370  176.9200  146.2090 C   0  0  0  0  0  2  0  0  0  0  0  0
  190.9980  176.7890  145.4940 C   0  0  1  0  0  3  0  0  0  0  0  0
  193.0280  173.9600  144.4940 O   0  0  0  0  0  0  0  0  0  0  0  0
  187.9780  174.6360  142.7500 C   0  0  0  0  0  3  0  0  0  0  0  0
  188.4970  176.5440  146.0150 C   0  0  1  0  0  3  0  0  0  0  0  0
  189.5700  177.8450  143.7200 N   0  0  0  0  0  2  0  0  0  0  0  0
  191.6560  175.6870  142.5180 O   0  0  0  0  0  1  0  0  0  0  0  0
  189.3250  174.1410  145.5670 C   0  0  0  0  0  1  0  0  0  0  0  0
  189.8930  176.8800  146.5460 C   0  0  0  0  0  2  0  0  0  0  0  0
  189.0130  176.7270  143.0210 C   0  0  0  0  0  0  0  0  0  0  0  0
  188.1410  175.3080  141.2210 S   0  0  0  0  0  0  0  0  0  0  0  0
  193.1050  175.6040  146.1690 C   0  0  0  0  0  2  0  0  0  0  0  0
  193.7530  176.0820  143.6950 C   0  0  2  0  0  3  0  0  0  0  0  0
  193.2860  175.1230  144.7640 C   0  0  0  0  0  0  0  0  0  0  0  0
  192.0300  177.9460  143.3840 C   0  0  0  0  0  2  0  0  0  0  0  0
  192.6250  176.6440  142.8230 C   0  0  2  0  0  3  0  0  0  0  0  0
  190.8670  177.8530  144.3950 C   0  0  2  0  0  3  0  0  0  0  0  0
  188.8650  176.7610  141.6410 C   0  0  0  0  0  3  0  0  0  0  0  0
  188.4280  175.2920  145.1250 C   0  0  2  0  0  3  0  0  0  0  0  0
  188.5080  175.5590  143.6450 C   0  0  0  0  0  0  0  0  0  0  0  0
  187.5330  176.4200  147.1810 C   0  0  0  0  0  2  0  0  0  0  0  0
  186.9560  177.6620  147.4550 O   0  0  0  0  0  0  0  0  0  0  0  0
  186.1150  178.0830  146.0180 S   0  0  0  0  0  0  0  0  0  0  0  0
  184.5430  178.2900  146.9040 C   0  0  0  0  0  1  0  0  0  0  0  0
  194.9750  175.6200  142.8800 C   0  0  1  0  0  3  0  0  0  0  0  0
  194.9820  176.2150  141.4690 C   0  0  2  0  0  3  0  0  0  0  0  0
  194.9280  175.1160  140.4220 C   0  0  0  0  0  1  0  0  0  0  0  0
  196.1420  176.9650  141.2680 O   0  0  0  0  0  1  0  0  0  0  0  0
  197.2090  174.5830  143.8040 O   0  0  0  0  0  0  0  0  0  0  0  0
  196.5430  175.9510  143.7340 S   0  0  0  0  0  3  0  0  0  0  0  0
  2  1  1  1  0  0  0
  2  9  1  0  0  0  0
  3 14  2  0  0  0  0
  4 20  2  0  0  0  0
  5  9  1  0  0  0  0
  5 21  1  1  0  0  0
  6 17  1  0  0  0  0
 10 20  1  0  0  0  0
 10  6  1  0  0  0  0
 11 18  1  0  0  0  0
 11  4  1  0  0  0  0
 12  1  1  0  0  0  0
 13 25  1  6  0  0  0
 13 14  1  0  0  0  0
 14 12  1  0  0  0  0
 16  7  1  1  0  0  0
 16 15  1  0  0  0  0
 16 13  1  0  0  0  0
 17 15  1  6  0  0  0
 17  2  1  0  0  0  0
 18 10  2  0  0  0  0
 19  8  1  1  0  0  0
 19  5  1  0  0  0  0
 20 19  1  0  0  0  0
 21 22  1  0  0  0  0
 23 24  1  0  0  0  0
 23 22  1  0  0  0  0
 25 30  1  1  0  0  0
 26 27  1  6  0  0  0
 26 25  1  0  0  0  0
 28 26  1  0  0  0  0
 30 29  2  0  0  0  0
M  END
>  <MODEL>
8

>  <REMARK>
 VINA RESULT:      -5.7      2.516      6.930
  Name = 
  6 active torsions:
  status: ('A' for Active; 'I' for Inactive)
    1  A    between atoms: C_2  and  C_28
    2  A    between atoms: C_6  and  C_8
    3  A    between atoms: C_6  and  O_21
    4  A    between atoms: S_9  and  O_21
    5  A    between atoms: C_19  and  C_28
    6  A    between atoms: C_28  and  S_29
                            x       y       z     vdW  Elec       q    Type
                         _______ _______ _______ _____ _____    ______ ____

>  <TORSDO>
F 6

$$$$
=
 OpenBabel11052417243D

 30 32  0  0  1  0  0  0  0  0999 V2000
  190.1220  174.1570  142.3580 C   0  0  0  0  0  2  0  0  0  0  0  0
  189.7740  174.7820  143.7030 C   0  0  1  0  0  3  0  0  0  0  0  0
  192.8840  176.2760  142.5990 O   0  0  0  0  0  0  0  0  0  0  0  0
  190.4790  177.7070  147.2010 C   0  0  0  0  0  3  0  0  0  0  0  0
  187.9250  176.1700  144.8170 C   0  0  1  0  0  3  0  0  0  0  0  0
  189.5690  174.2650  146.1510 N   0  0  0  0  0  2  0  0  0  0  0  0
  192.5720  175.1150  145.3050 O   0  0  0  0  0  1  0  0  0  0  0  0
  189.7290  177.8850  144.1350 C   0  0  0  0  0  1  0  0  0  0  0  0
  188.3450  175.3160  143.6180 C   0  0  0  0  0  2  0  0  0  0  0  0
  190.1180  175.4230  146.7900 C   0  0  0  0  0  0  0  0  0  0  0  0
  191.2990  176.8560  148.3930 S   0  0  0  0  0  0  0  0  0  0  0  0
  191.1800  174.9810  141.6340 C   0  0  0  0  0  2  0  0  0  0  0  0
  193.0020  173.9750  143.1950 C   0  0  2  0  0  3  0  0  0  0  0  0
  192.4010  175.1610  142.4790 C   0  0  0  0  0  0  0  0  0  0  0  0
  191.3310  173.0460  144.8930 C   0  0  0  0  0  2  0  0  0  0  0  0
  192.6090  173.8710  144.6730 C   0  0  2  0  0  3  0  0  0  0  0  0
  189.9660  173.7640  144.8360 C   0  0  2  0  0  3  0  0  0  0  0  0
  190.9000  175.2940  147.9300 C   0  0  0  0  0  3  0  0  0  0  0  0
  188.9670  177.2070  145.2680 C   0  0  2  0  0  3  0  0  0  0  0  0
  189.8670  176.7590  146.3900 C   0  0  0  0  0  0  0  0  0  0  0  0
  186.6010  176.8460  144.5120 C   0  0  0  0  0  2  0  0  0  0  0  0
  186.2550  177.7070  145.5560 O   0  0  0  0  0  0  0  0  0  0  0  0
  184.7500  178.3860  145.0840 S   0  0  0  0  0  0  0  0  0  0  0  0
  185.5520  179.7760  144.2340 C   0  0  0  0  0  1  0  0  0  0  0  0
  194.5040  173.7470  142.9510 C   0  0  1  0  0  3  0  0  0  0  0  0
  195.0770  172.6610  143.8670 C   0  0  2  0  0  3  0  0  0  0  0  0
  196.5800  172.8170  144.0130 C   0  0  0  0  0  1  0  0  0  0  0  0
  194.8100  171.3960  143.3400 O   0  0  0  0  0  1  0  0  0  0  0  0
  195.5290  174.6780  140.7150 O   0  0  0  0  0  0  0  0  0  0  0  0
  194.8790  173.3940  141.2100 S   0  0  0  0  0  3  0  0  0  0  0  0
  2  1  1  6  0  0  0
  2 17  1  0  0  0  0
  4 11  1  0  0  0  0
  5 21  1  6  0  0  0
  5 19  1  0  0  0  0
  6 10  1  0  0  0  0
  9  2  1  0  0  0  0
  9  5  1  0  0  0  0
 10 18  2  0  0  0  0
 12  1  1  0  0  0  0
 12 14  1  0  0  0  0
 13 25  1  1  0  0  0
 13 16  1  0  0  0  0
 14  3  2  0  0  0  0
 14 13  1  0  0  0  0
 16 15  1  0  0  0  0
 16  7  1  6  0  0  0
 17 15  1  1  0  0  0
 17  6  1  0  0  0  0
 18 11  1  0  0  0  0
 19  8  1  6  0  0  0
 19 20  1  0  0  0  0
 20 10  1  0  0  0  0
 20  4  2  0  0  0  0
 21 22  1  0  0  0  0
 23 22  1  0  0  0  0
 24 23  1  0  0  0  0
 25 30  1  6  0  0  0
 25 26  1  0  0  0  0
 26 27  1  6  0  0  0
 28 26  1  0  0  0  0
 29 30  2  0  0  0  0
M  END
>  <MODEL>
9

>  <REMARK>
 VINA RESULT:      -5.4      2.419      7.345
  Name = 
  6 active torsions:
  status: ('A' for Active; 'I' for Inactive)
    1  A    between atoms: C_2  and  C_28
    2  A    between atoms: C_6  and  C_8
    3  A    between atoms: C_6  and  O_21
    4  A    between atoms: S_9  and  O_21
    5  A    between atoms: C_19  and  C_28
    6  A    between atoms: C_28  and  S_29
                            x       y       z     vdW  Elec       q    Type
                         _______ _______ _______ _____ _____    ______ ____

>  <TORSDO>
F 6

$$$$
