=
 OpenBabel11052421063D

 43 47  0  0  1  0  0  0  0  0999 V2000
  196.4530  175.2590  142.8410 C   0  0  1  0  0  3  0  0  0  0  0  0
  192.0020  176.4550  145.2080 C   0  0  0  0  0  0  0  0  0  0  0  0
  190.2510  177.4530  143.2540 C   0  0  0  0  0  0  0  0  0  0  0  0
  194.6890  175.6900  144.5480 C   0  0  1  0  0  3  0  0  0  0  0  0
  195.6860  176.1110  141.8300 C   0  0  0  0  0  2  0  0  0  0  0  0
  197.9370  175.3390  142.5510 C   0  0  0  0  0  1  0  0  0  0  0  0
  193.9460  176.5970  143.5610 C   0  0  1  0  0  3  0  0  0  0  0  0
  196.1860  175.7400  144.2670 C   0  0  0  0  0  2  0  0  0  0  0  0
  194.1890  176.0910  142.1360 C   0  0  0  0  0  2  0  0  0  0  0  0
  191.5950  177.2520  142.9450 C   0  0  0  0  0  3  0  0  0  0  0  0
  192.4750  176.7200  143.8970 C   0  0  0  0  0  0  0  0  0  0  0  0
  192.9180  175.8780  146.2620 C   0  0  0  0  0  2  0  0  0  0  0  0
  190.6430  176.6580  145.5140 C   0  0  0  0  0  0  0  0  0  0  0  0
  189.7790  177.1580  144.5320 C   0  0  0  0  0  3  0  0  0  0  0  0
  194.3910  176.1360  145.9670 C   0  0  0  0  0  2  0  0  0  0  0  0
  189.3380  178.0520  142.2440 C   0  0  0  0  0  2  0  0  0  0  0  0
  187.9640  177.9390  142.7080 N   0  0  0  0  0  2  0  0  0  0  0  0
  187.2280  177.1240  141.7520 C   0  0  1  0  0  3  0  0  0  0  0  0
  187.5010  177.5420  140.4480 O   0  0  0  0  0  1  0  0  0  0  0  0
  187.5860  175.6460  141.9180 C   0  0  0  0  0  2  0  0  0  0  0  0
  188.2140  175.0370  140.6670 C   0  0  0  0  0  2  0  0  0  0  0  0
  188.3390  173.5940  140.8010 N   0  0  0  0  0  0  0  0  0  0  0  0
  190.2270  172.5380  141.8380 C   0  0  2  0  0  3  0  0  0  0  0  0
  188.0000  173.2830  142.1320 N   0  0  0  0  0  2  0  0  0  0  0  0
  189.7540  173.2770  140.6170 C   0  0  1  0  0  3  0  0  0  0  0  0
  189.9280  172.3960  139.3950 C   0  0  0  0  0  1  0  0  0  0  0  0
  188.9560  172.2930  142.5970 C   0  0  0  0  0  2  0  0  0  0  0  0
  191.0830  173.3900  142.5870 O   0  0  0  0  0  0  0  0  0  0  0  0
  192.2470  172.9310  143.2080 C   0  0  0  0  0  0  0  0  0  0  0  0
  194.4390  172.1310  143.5000 C   0  0  0  0  0  0  0  0  0  0  0  0
  193.8300  172.1360  145.1780 S   0  0  0  0  0  0  0  0  0  0  0  0
  195.5380  171.6860  143.2140 O   0  0  0  0  0  0  0  0  0  0  0  0
  192.2680  172.6990  144.5130 C   0  0  0  0  0  3  0  0  0  0  0  0
  193.5160  172.6700  142.4690 C   0  0  0  0  0  2  0  0  0  0  0  0
  190.1590  176.3690  146.8360 N   0  0  0  0  0  2  0  0  0  0  0  0
  189.5060  175.1280  147.2500 C   0  0  2  0  0  3  0  0  0  0  0  0
  189.6260  174.1650  146.2480 O   0  0  0  0  0  1  0  0  0  0  0  0
  188.0370  175.3570  147.5770 C   0  0  0  0  0  2  0  0  0  0  0  0
  187.5240  176.4870  146.8230 N   0  0  0  0  0  2  0  0  0  0  0  0
  186.3230  176.9380  147.5130 C   0  0  0  0  0  2  0  0  0  0  0  0
  184.4160  178.3720  146.7300 C   0  0  0  0  0  1  0  0  0  0  0  0
  185.1380  177.0500  146.5560 C   0  0  0  0  0  3  0  0  0  0  0  0
  185.5700  176.8760  145.1110 C   0  0  0  0  0  1  0  0  0  0  0  0
  1  6  1  6  0  0  0
  1  8  1  0  0  0  0
  2 13  1  0  0  0  0
  2 12  1  0  0  0  0
  3 14  1  0  0  0  0
  4  8  1  6  0  0  0
  4 15  1  0  0  0  0
  5  9  1  0  0  0  0
  5  1  1  0  0  0  0
  7  9  1  6  0  0  0
  7 11  1  0  0  0  0
  7  4  1  0  0  0  0
 10  3  2  0  0  0  0
 10 11  1  0  0  0  0
 11  2  2  0  0  0  0
 13 35  1  0  0  0  0
 14 13  2  0  0  0  0
 15 12  1  0  0  0  0
 16 17  1  0  0  0  0
 16  3  1  0  0  0  0
 18 19  1  6  0  0  0
 18 20  1  0  0  0  0
 18 17  1  0  0  0  0
 21 22  1  0  0  0  0
 21 20  1  0  0  0  0
 22 24  1  0  0  0  0
 23 28  1  1  0  0  0
 23 27  1  0  0  0  0
 24 27  1  0  0  0  0
 25 26  1  6  0  0  0
 25 22  1  0  0  0  0
 25 23  1  0  0  0  0
 28 29  1  0  0  0  0
 29 33  2  0  0  0  0
 30 31  1  0  0  0  0
 32 30  2  0  0  0  0
 33 31  1  0  0  0  0
 34 29  1  0  0  0  0
 34 30  1  0  0  0  0
 35 36  1  0  0  0  0
 36 37  1  6  0  0  0
 36 38  1  0  0  0  0
 39 40  1  0  0  0  0
 39 38  1  0  0  0  0
 42 41  1  0  0  0  0
 42 40  1  0  0  0  0
 43 42  1  0  0  0  0
M  END
>  <MODEL>
1

>  <REMARK>
 VINA RESULT:      -6.7      0.000      0.000
  Name = 
  14 active torsions:
  status: ('A' for Active; 'I' for Inactive)
    1  A    between atoms: C_1  and  C_9
    2  A    between atoms: C_1  and  N_35
    3  A    between atoms: C_2  and  N_6
    4  A    between atoms: C_2  and  C_13
    5  A    between atoms: C_3  and  N_4
    6  A    between atoms: C_3  and  C_7
    7  A    between atoms: N_6  and  C_12
    8  A    between atoms: C_7  and  C_12
    9  A    between atoms: C_9  and  N_32
   10  A    between atoms: C_10  and  O_14
   11  A    between atoms: C_11  and  O_14
   12  A    between atoms: C_25  and  N_32
   13  A    between atoms: C_25  and  C_37
   14  A    between atoms: C_34  and  N_35
                            x       y       z     vdW  Elec       q    Type
                         _______ _______ _______ _____ _____    ______ ____

>  <TORSDO>
F 14

$$$$
=
 OpenBabel11052421063D

 43 47  0  0  1  0  0  0  0  0999 V2000
  193.1740  175.8640  145.9270 C   0  0  1  0  0  3  0  0  0  0  0  0
  189.4170  176.6460  142.4460 C   0  0  0  0  0  0  0  0  0  0  0  0
  188.6490  174.1340  141.4560 C   0  0  0  0  0  0  0  0  0  0  0  0
  191.5390  176.9070  144.3620 C   0  0  1  0  0  3  0  0  0  0  0  0
  193.0500  174.5380  145.1760 C   0  0  0  0  0  2  0  0  0  0  0  0
  194.5610  175.9820  146.5230 C   0  0  0  0  0  1  0  0  0  0  0  0
  191.4570  175.6000  143.5650 C   0  0  1  0  0  3  0  0  0  0  0  0
  192.9210  177.0430  144.9870 C   0  0  0  0  0  2  0  0  0  0  0  0
  191.6780  174.4200  144.5160 C   0  0  0  0  0  2  0  0  0  0  0  0
  189.7900  174.2500  142.2490 C   0  0  0  0  0  3  0  0  0  0  0  0
  190.1670  175.4900  142.7820 C   0  0  0  0  0  0  0  0  0  0  0  0
  189.7870  178.0010  143.0030 C   0  0  0  0  0  2  0  0  0  0  0  0
  188.2640  176.5240  141.6470 C   0  0  0  0  0  0  0  0  0  0  0  0
  187.8920  175.2650  141.1560 C   0  0  0  0  0  3  0  0  0  0  0  0
  191.2450  178.0780  143.4430 C   0  0  0  0  0  2  0  0  0  0  0  0
  188.2840  172.8170  140.8680 C   0  0  0  0  0  2  0  0  0  0  0  0
  189.4700  172.1980  140.2980 N   0  0  0  0  0  2  0  0  0  0  0  0
  189.2390  172.0000  138.8740 C   0  0  1  0  0  3  0  0  0  0  0  0
  188.2060  172.8300  138.4320 O   0  0  0  0  0  1  0  0  0  0  0  0
  190.5160  172.2760  138.0790 C   0  0  0  0  0  2  0  0  0  0  0  0
  191.3300  173.4400  138.6400 C   0  0  0  0  0  2  0  0  0  0  0  0
  192.7320  173.3140  138.2720 N   0  0  0  0  0  0  0  0  0  0  0  0
  194.5250  174.0320  139.6940 C   0  0  2  0  0  3  0  0  0  0  0  0
  193.2300  172.1920  138.9620 N   0  0  0  0  0  2  0  0  0  0  0  0
  193.4110  174.4970  138.7970 C   0  0  1  0  0  3  0  0  0  0  0  0
  193.9900  175.3080  137.6540 C   0  0  0  0  0  1  0  0  0  0  0  0
  194.5440  172.5490  139.4680 C   0  0  0  0  0  2  0  0  0  0  0  0
  194.1750  174.3130  141.0430 O   0  0  0  0  0  0  0  0  0  0  0  0
  195.0910  174.8180  141.9690 C   0  0  0  0  0  0  0  0  0  0  0  0
  196.6550  174.9020  143.7230 C   0  0  0  0  0  0  0  0  0  0  0  0
  196.5090  176.6270  143.2860 S   0  0  0  0  0  0  0  0  0  0  0  0
  197.3220  174.5330  144.6740 O   0  0  0  0  0  0  0  0  0  0  0  0
  195.2900  176.1240  142.0770 C   0  0  0  0  0  3  0  0  0  0  0  0
  195.8910  173.9490  142.8800 C   0  0  0  0  0  2  0  0  0  0  0  0
  187.4920  177.6920  141.3240 N   0  0  0  0  0  2  0  0  0  0  0  0
  186.0580  177.8540  141.5590 C   0  0  2  0  0  3  0  0  0  0  0  0
  185.4750  178.5500  140.5000 O   0  0  0  0  0  1  0  0  0  0  0  0
  185.7890  178.5790  142.8690 C   0  0  0  0  0  2  0  0  0  0  0  0
  185.5750  177.6210  143.9390 N   0  0  0  0  0  2  0  0  0  0  0  0
  186.5580  177.9190  144.9700 C   0  0  0  0  0  2  0  0  0  0  0  0
  188.1700  176.2510  145.9330 C   0  0  0  0  0  1  0  0  0  0  0  0
  186.7360  176.7450  145.9300 C   0  0  0  0  0  3  0  0  0  0  0  0
  186.3040  177.1060  147.3400 C   0  0  0  0  0  1  0  0  0  0  0  0
  1  6  1  6  0  0  0
  2 11  1  0  0  0  0
  2 12  1  0  0  0  0
  3 10  1  0  0  0  0
  4 15  1  6  0  0  0
  4  8  1  0  0  0  0
  5  1  1  0  0  0  0
  7  4  1  0  0  0  0
  7  9  1  1  0  0  0
  8  1  1  0  0  0  0
  9  5  1  0  0  0  0
 10 11  2  0  0  0  0
 11  7  1  0  0  0  0
 12 15  1  0  0  0  0
 13  2  2  0  0  0  0
 14  3  2  0  0  0  0
 14 13  1  0  0  0  0
 16  3  1  0  0  0  0
 17 16  1  0  0  0  0
 18 19  1  6  0  0  0
 18 17  1  0  0  0  0
 20 21  1  0  0  0  0
 20 18  1  0  0  0  0
 22 21  1  0  0  0  0
 22 25  1  0  0  0  0
 22 24  1  0  0  0  0
 23 28  1  1  0  0  0
 24 27  1  0  0  0  0
 25 26  1  6  0  0  0
 25 23  1  0  0  0  0
 27 23  1  0  0  0  0
 28 29  1  0  0  0  0
 29 33  2  0  0  0  0
 29 34  1  0  0  0  0
 30 32  2  0  0  0  0
 31 30  1  0  0  0  0
 33 31  1  0  0  0  0
 34 30  1  0  0  0  0
 35 36  1  0  0  0  0
 35 13  1  0  0  0  0
 36 37  1  6  0  0  0
 36 38  1  0  0  0  0
 38 39  1  0  0  0  0
 39 40  1  0  0  0  0
 40 42  1  0  0  0  0
 42 41  1  0  0  0  0
 42 43  1  0  0  0  0
M  END
>  <MODEL>
2

>  <REMARK>
 VINA RESULT:      -6.7      2.491      4.774
  Name = 
  14 active torsions:
  status: ('A' for Active; 'I' for Inactive)
    1  A    between atoms: C_1  and  C_9
    2  A    between atoms: C_1  and  N_35
    3  A    between atoms: C_2  and  N_6
    4  A    between atoms: C_2  and  C_13
    5  A    between atoms: C_3  and  N_4
    6  A    between atoms: C_3  and  C_7
    7  A    between atoms: N_6  and  C_12
    8  A    between atoms: C_7  and  C_12
    9  A    between atoms: C_9  and  N_32
   10  A    between atoms: C_10  and  O_14
   11  A    between atoms: C_11  and  O_14
   12  A    between atoms: C_25  and  N_32
   13  A    between atoms: C_25  and  C_37
   14  A    between atoms: C_34  and  N_35
                            x       y       z     vdW  Elec       q    Type
                         _______ _______ _______ _____ _____    ______ ____

>  <TORSDO>
F 14

$$$$
=
 OpenBabel11052421063D

 43 47  0  0  1  0  0  0  0  0999 V2000
  195.4750  173.8010  145.8130 C   0  0  1  0  0  3  0  0  0  0  0  0
  191.3110  175.7520  143.4250 C   0  0  0  0  0  0  0  0  0  0  0  0
  190.2100  173.7080  141.8460 C   0  0  0  0  0  0  0  0  0  0  0  0
  193.7100  175.3320  144.9450 C   0  0  1  0  0  3  0  0  0  0  0  0
  195.1370  172.7880  144.7190 C   0  0  0  0  0  2  0  0  0  0  0  0
  196.9400  173.6860  146.1760 C   0  0  0  0  0  1  0  0  0  0  0  0
  193.4080  174.3500  143.8070 C   0  0  1  0  0  3  0  0  0  0  0  0
  195.1770  175.2240  145.3410 C   0  0  0  0  0  2  0  0  0  0  0  0
  193.6760  172.9230  144.2930 C   0  0  0  0  0  2  0  0  0  0  0  0
  191.4620  173.5350  142.4340 C   0  0  0  0  0  3  0  0  0  0  0  0
  192.0100  174.5300  143.2560 C   0  0  0  0  0  0  0  0  0  0  0  0
  191.8640  176.8480  144.3060 C   0  0  0  0  0  2  0  0  0  0  0  0
  190.0450  175.9220  142.8310 C   0  0  0  0  0  0  0  0  0  0  0  0
  189.5070  174.8960  142.0430 C   0  0  0  0  0  3  0  0  0  0  0  0
  193.3740  176.7420  144.4980 C   0  0  0  0  0  2  0  0  0  0  0  0
  189.6590  172.6580  140.9480 C   0  0  0  0  0  2  0  0  0  0  0  0
  188.3710  173.0940  140.4300 N   0  0  0  0  0  2  0  0  0  0  0  0
  188.4380  173.0750  138.9750 C   0  0  1  0  0  3  0  0  0  0  0  0
  187.9630  174.2800  138.4530 O   0  0  0  0  0  1  0  0  0  0  0  0
  189.8730  172.8260  138.5070 C   0  0  0  0  0  2  0  0  0  0  0  0
  190.3730  173.8800  137.5230 C   0  0  0  0  0  2  0  0  0  0  0  0
  191.6970  173.5390  137.0270 N   0  0  0  0  0  0  0  0  0  0  0  0
  193.7080  174.0000  138.2500 C   0  0  2  0  0  3  0  0  0  0  0  0
  192.0880  172.3660  137.7010 N   0  0  0  0  0  2  0  0  0  0  0  0
  192.5930  174.6140  137.4490 C   0  0  1  0  0  3  0  0  0  0  0  0
  193.1710  175.3090  136.2320 C   0  0  0  0  0  1  0  0  0  0  0  0
  193.4830  172.5280  138.0680 C   0  0  0  0  0  2  0  0  0  0  0  0
  193.5380  174.3520  139.6170 O   0  0  0  0  0  0  0  0  0  0  0  0
  194.5960  174.7890  140.4180 C   0  0  0  0  0  0  0  0  0  0  0  0
  196.4870  174.7430  141.8160 C   0  0  0  0  0  0  0  0  0  0  0  0
  196.1430  176.4930  141.7310 S   0  0  0  0  0  0  0  0  0  0  0  0
  197.3620  174.2930  142.5350 O   0  0  0  0  0  0  0  0  0  0  0  0
  194.7300  176.0730  140.7170 C   0  0  0  0  0  3  0  0  0  0  0  0
  195.6240  173.8680  140.9840 C   0  0  0  0  0  2  0  0  0  0  0  0
  189.3270  177.1520  143.0210 N   0  0  0  0  0  2  0  0  0  0  0  0
  187.9540  177.2670  143.5090 C   0  0  2  0  0  3  0  0  0  0  0  0
  187.2730  178.2560  142.7980 O   0  0  0  0  0  1  0  0  0  0  0  0
  187.9180  177.5790  144.9980 C   0  0  0  0  0  2  0  0  0  0  0  0
  188.0240  176.3550  145.7710 N   0  0  0  0  0  2  0  0  0  0  0  0
  189.1190  176.5480  146.7110 C   0  0  0  0  0  2  0  0  0  0  0  0
  189.5830  174.1560  146.0990 C   0  0  0  0  0  1  0  0  0  0  0  0
  189.6940  175.2130  147.1810 C   0  0  0  0  0  3  0  0  0  0  0  0
  191.1370  175.3540  147.6290 C   0  0  0  0  0  1  0  0  0  0  0  0
  1  6  1  6  0  0  0
  2 12  1  0  0  0  0
  3 14  2  0  0  0  0
  3 10  1  0  0  0  0
  4 15  1  6  0  0  0
  4  8  1  0  0  0  0
  5  1  1  0  0  0  0
  7  9  1  1  0  0  0
  7  4  1  0  0  0  0
  8  1  1  0  0  0  0
  9  5  1  0  0  0  0
 10 11  2  0  0  0  0
 11  2  1  0  0  0  0
 11  7  1  0  0  0  0
 12 15  1  0  0  0  0
 13 35  1  0  0  0  0
 13  2  2  0  0  0  0
 14 13  1  0  0  0  0
 16  3  1  0  0  0  0
 17 16  1  0  0  0  0
 18 19  1  6  0  0  0
 18 17  1  0  0  0  0
 20 18  1  0  0  0  0
 21 20  1  0  0  0  0
 22 25  1  0  0  0  0
 22 21  1  0  0  0  0
 22 24  1  0  0  0  0
 23 28  1  1  0  0  0
 24 27  1  0  0  0  0
 25 26  1  6  0  0  0
 25 23  1  0  0  0  0
 27 23  1  0  0  0  0
 28 29  1  0  0  0  0
 29 33  2  0  0  0  0
 29 34  1  0  0  0  0
 30 32  2  0  0  0  0
 31 30  1  0  0  0  0
 33 31  1  0  0  0  0
 34 30  1  0  0  0  0
 35 36  1  0  0  0  0
 36 37  1  6  0  0  0
 36 38  1  0  0  0  0
 38 39  1  0  0  0  0
 39 40  1  0  0  0  0
 40 42  1  0  0  0  0
 41 42  1  0  0  0  0
 42 43  1  0  0  0  0
M  END
>  <MODEL>
3

>  <REMARK>
 VINA RESULT:      -6.4      2.623      4.304
  Name = 
  14 active torsions:
  status: ('A' for Active; 'I' for Inactive)
    1  A    between atoms: C_1  and  C_9
    2  A    between atoms: C_1  and  N_35
    3  A    between atoms: C_2  and  N_6
    4  A    between atoms: C_2  and  C_13
    5  A    between atoms: C_3  and  N_4
    6  A    between atoms: C_3  and  C_7
    7  A    between atoms: N_6  and  C_12
    8  A    between atoms: C_7  and  C_12
    9  A    between atoms: C_9  and  N_32
   10  A    between atoms: C_10  and  O_14
   11  A    between atoms: C_11  and  O_14
   12  A    between atoms: C_25  and  N_32
   13  A    between atoms: C_25  and  C_37
   14  A    between atoms: C_34  and  N_35
                            x       y       z     vdW  Elec       q    Type
                         _______ _______ _______ _____ _____    ______ ____

>  <TORSDO>
F 14

$$$$
=
 OpenBabel11052421063D

 43 47  0  0  1  0  0  0  0  0999 V2000
  193.0920  175.5560  145.9870 C   0  0  1  0  0  3  0  0  0  0  0  0
  188.6220  175.9920  143.4040 C   0  0  0  0  0  0  0  0  0  0  0  0
  188.6310  174.0550  141.3710 C   0  0  0  0  0  0  0  0  0  0  0  0
  190.8760  176.3300  145.1490 C   0  0  1  0  0  3  0  0  0  0  0  0
  193.2980  174.7510  144.7040 C   0  0  0  0  0  2  0  0  0  0  0  0
  194.4340  176.0050  146.5250 C   0  0  0  0  0  1  0  0  0  0  0  0
  191.1020  175.5760  143.8340 C   0  0  1  0  0  3  0  0  0  0  0  0
  192.2140  176.7790  145.7210 C   0  0  0  0  0  2  0  0  0  0  0  0
  191.9540  174.3340  144.1090 C   0  0  0  0  0  2  0  0  0  0  0  0
  189.7970  174.3150  142.0900 C   0  0  0  0  0  3  0  0  0  0  0  0
  189.8000  175.2520  143.1320 C   0  0  0  0  0  0  0  0  0  0  0  0
  188.5820  177.0080  144.5220 C   0  0  0  0  0  2  0  0  0  0  0  0
  187.4450  175.7250  142.6780 C   0  0  0  0  0  0  0  0  0  0  0  0
  187.4620  174.7580  141.6640 C   0  0  0  0  0  3  0  0  0  0  0  0
  189.9680  177.5200  144.9000 C   0  0  0  0  0  2  0  0  0  0  0  0
  188.6520  173.0850  140.2440 C   0  0  0  0  0  2  0  0  0  0  0  0
  189.4050  173.6510  139.1350 N   0  0  0  0  0  2  0  0  0  0  0  0
  190.5620  172.8000  138.8920 C   0  0  1  0  0  3  0  0  0  0  0  0
  190.3580  172.0190  137.7530 O   0  0  0  0  0  1  0  0  0  0  0  0
  191.8260  173.6460  138.7320 C   0  0  0  0  0  2  0  0  0  0  0  0
  192.7040  173.6540  139.9810 C   0  0  0  0  0  2  0  0  0  0  0  0
  193.8360  174.5520  139.8130 N   0  0  0  0  0  0  0  0  0  0  0  0
  195.9150  174.2650  140.9730 C   0  0  2  0  0  3  0  0  0  0  0  0
  194.7410  173.9020  138.9520 N   0  0  0  0  0  2  0  0  0  0  0  0
  194.4750  174.6710  141.1220 C   0  0  1  0  0  3  0  0  0  0  0  0
  194.4040  176.1080  141.6000 C   0  0  0  0  0  1  0  0  0  0  0  0
  196.0720  174.1170  139.4880 C   0  0  0  0  0  2  0  0  0  0  0  0
  196.1050  173.0070  141.6090 O   0  0  0  0  0  0  0  0  0  0  0  0
  196.1110  172.8600  142.9980 C   0  0  0  0  0  0  0  0  0  0  0  0
  196.6230  173.2170  145.2650 C   0  0  0  0  0  0  0  0  0  0  0  0
  195.5420  171.7990  145.3580 S   0  0  0  0  0  0  0  0  0  0  0  0
  197.1860  173.6640  146.2500 O   0  0  0  0  0  0  0  0  0  0  0  0
  195.4700  171.8510  143.5710 C   0  0  0  0  0  3  0  0  0  0  0  0
  196.8210  173.7980  143.9140 C   0  0  0  0  0  2  0  0  0  0  0  0
  186.2450  176.4590  142.9680 N   0  0  0  0  0  2  0  0  0  0  0  0
  185.6420  177.4750  142.1070 C   0  0  2  0  0  3  0  0  0  0  0  0
  186.6330  178.1580  141.4030 O   0  0  0  0  0  1  0  0  0  0  0  0
  184.8050  178.4590  142.9120 C   0  0  0  0  0  2  0  0  0  0  0  0
  185.6520  179.2190  143.8150 N   0  0  0  0  0  2  0  0  0  0  0  0
  184.9580  179.2720  145.0930 C   0  0  0  0  0  2  0  0  0  0  0  0
  185.7560  179.2160  147.4740 C   0  0  0  0  0  1  0  0  0  0  0  0
  185.6900  178.4610  146.1610 C   0  0  0  0  0  3  0  0  0  0  0  0
  185.0440  177.1030  146.3700 C   0  0  0  0  0  1  0  0  0  0  0  0
  1  6  1  6  0  0  0
  2 12  1  0  0  0  0
  3 14  2  0  0  0  0
  3 10  1  0  0  0  0
  4 15  1  6  0  0  0
  4  8  1  0  0  0  0
  5  1  1  0  0  0  0
  7  9  1  1  0  0  0
  7  4  1  0  0  0  0
  8  1  1  0  0  0  0
  9  5  1  0  0  0  0
 10 11  2  0  0  0  0
 11  2  1  0  0  0  0
 11  7  1  0  0  0  0
 12 15  1  0  0  0  0
 13 35  1  0  0  0  0
 13  2  2  0  0  0  0
 14 13  1  0  0  0  0
 16  3  1  0  0  0  0
 17 16  1  0  0  0  0
 18 19  1  6  0  0  0
 18 17  1  0  0  0  0
 20 18  1  0  0  0  0
 20 21  1  0  0  0  0
 22 21  1  0  0  0  0
 22 25  1  0  0  0  0
 23 25  1  0  0  0  0
 23 28  1  1  0  0  0
 24 27  1  0  0  0  0
 24 22  1  0  0  0  0
 25 26  1  6  0  0  0
 27 23  1  0  0  0  0
 28 29  1  0  0  0  0
 29 33  2  0  0  0  0
 29 34  1  0  0  0  0
 30 31  1  0  0  0  0
 30 32  2  0  0  0  0
 33 31  1  0  0  0  0
 34 30  1  0  0  0  0
 36 37  1  1  0  0  0
 36 38  1  0  0  0  0
 36 35  1  0  0  0  0
 38 39  1  0  0  0  0
 39 40  1  0  0  0  0
 40 42  1  0  0  0  0
 42 43  1  0  0  0  0
 42 41  1  0  0  0  0
M  END
>  <MODEL>
4

>  <REMARK>
 VINA RESULT:      -6.4      2.390      4.860
  Name = 
  14 active torsions:
  status: ('A' for Active; 'I' for Inactive)
    1  A    between atoms: C_1  and  C_9
    2  A    between atoms: C_1  and  N_35
    3  A    between atoms: C_2  and  N_6
    4  A    between atoms: C_2  and  C_13
    5  A    between atoms: C_3  and  N_4
    6  A    between atoms: C_3  and  C_7
    7  A    between atoms: N_6  and  C_12
    8  A    between atoms: C_7  and  C_12
    9  A    between atoms: C_9  and  N_32
   10  A    between atoms: C_10  and  O_14
   11  A    between atoms: C_11  and  O_14
   12  A    between atoms: C_25  and  N_32
   13  A    between atoms: C_25  and  C_37
   14  A    between atoms: C_34  and  N_35
                            x       y       z     vdW  Elec       q    Type
                         _______ _______ _______ _____ _____    ______ ____

>  <TORSDO>
F 14

$$$$
=
 OpenBabel11052421063D

 43 47  0  0  1  0  0  0  0  0999 V2000
  185.4380  177.5010  146.6400 C   0  0  1  0  0  3  0  0  0  0  0  0
  188.7580  176.0510  142.9360 C   0  0  0  0  0  0  0  0  0  0  0  0
  191.3540  176.4560  143.9250 C   0  0  0  0  0  0  0  0  0  0  0  0
  186.4460  176.7510  144.4880 C   0  0  1  0  0  3  0  0  0  0  0  0
  186.7890  178.0660  147.0780 C   0  0  0  0  0  2  0  0  0  0  0  0
  184.3220  178.3110  147.2650 C   0  0  0  0  0  1  0  0  0  0  0  0
  187.7880  177.3700  144.8930 C   0  0  1  0  0  3  0  0  0  0  0  0
  185.3050  177.5380  145.1180 C   0  0  0  0  0  2  0  0  0  0  0  0
  187.9330  177.3010  146.4150 C   0  0  0  0  0  2  0  0  0  0  0  0
  190.2570  176.9600  144.6230 C   0  0  0  0  0  3  0  0  0  0  0  0
  188.9520  176.7350  144.1620 C   0  0  0  0  0  0  0  0  0  0  0  0
  187.3670  175.7850  142.4070 C   0  0  0  0  0  2  0  0  0  0  0  0
  189.8680  175.5410  142.2350 C   0  0  0  0  0  0  0  0  0  0  0  0
  191.1590  175.7520  142.7370 C   0  0  0  0  0  3  0  0  0  0  0  0
  186.3280  176.7450  142.9760 C   0  0  0  0  0  2  0  0  0  0  0  0
  192.7330  176.7340  144.4070 C   0  0  0  0  0  2  0  0  0  0  0  0
  192.7000  176.9960  145.8370 N   0  0  0  0  0  2  0  0  0  0  0  0
  193.4460  175.9410  146.5090 C   0  0  1  0  0  3  0  0  0  0  0  0
  192.5890  174.9030  146.8810 O   0  0  0  0  0  1  0  0  0  0  0  0
  194.5570  175.4100  145.6020 C   0  0  0  0  0  2  0  0  0  0  0  0
  194.7910  173.9090  145.7590 C   0  0  0  0  0  2  0  0  0  0  0  0
  196.1990  173.5840  145.5890 N   0  0  0  0  0  0  0  0  0  0  0  0
  197.0630  172.5080  143.6270 C   0  0  2  0  0  3  0  0  0  0  0  0
  196.7400  174.5700  144.7410 N   0  0  0  0  0  2  0  0  0  0  0  0
  196.2520  172.3080  144.8780 C   0  0  1  0  0  3  0  0  0  0  0  0
  196.9190  171.2620  145.7490 C   0  0  0  0  0  1  0  0  0  0  0  0
  197.6130  173.8930  143.8000 C   0  0  0  0  0  2  0  0  0  0  0  0
  196.1920  172.4680  142.5040 O   0  0  0  0  0  0  0  0  0  0  0  0
  196.5040  173.0790  141.2880 C   0  0  0  0  0  0  0  0  0  0  0  0
  196.3600  174.4920  139.4130 C   0  0  0  0  0  0  0  0  0  0  0  0
  197.8250  173.5410  139.0380 S   0  0  0  0  0  0  0  0  0  0  0  0
  195.8900  175.2910  138.6210 O   0  0  0  0  0  0  0  0  0  0  0  0
  197.5260  172.6510  140.5610 C   0  0  0  0  0  3  0  0  0  0  0  0
  195.7310  174.2270  140.7310 C   0  0  0  0  0  2  0  0  0  0  0  0
  189.6690  174.8290  141.0030 N   0  0  0  0  0  2  0  0  0  0  0  0
  189.8990  173.4000  140.8020 C   0  0  2  0  0  3  0  0  0  0  0  0
  190.1320  173.1370  139.4510 O   0  0  0  0  0  1  0  0  0  0  0  0
  188.7220  172.5730  141.2970 C   0  0  0  0  0  2  0  0  0  0  0  0
  188.7600  172.4590  142.7440 N   0  0  0  0  0  2  0  0  0  0  0  0
  189.8270  171.5190  143.0600 C   0  0  0  0  0  2  0  0  0  0  0  0
  192.0140  172.5810  143.6890 C   0  0  0  0  0  1  0  0  0  0  0  0
  190.6990  172.0290  144.2050 C   0  0  0  0  0  3  0  0  0  0  0  0
  189.9790  173.0800  145.0300 C   0  0  0  0  0  1  0  0  0  0  0  0
  1  5  1  0  0  0  0
  1  6  1  1  0  0  0
  2 11  1  0  0  0  0
  3 16  1  0  0  0  0
  3 10  1  0  0  0  0
  4 15  1  6  0  0  0
  4  7  1  0  0  0  0
  4  8  1  0  0  0  0
  7  9  1  1  0  0  0
  8  1  1  0  0  0  0
  9  5  1  0  0  0  0
 11 10  2  0  0  0  0
 11  7  1  0  0  0  0
 12  2  1  0  0  0  0
 12 15  1  0  0  0  0
 13 14  1  0  0  0  0
 13  2  2  0  0  0  0
 14  3  2  0  0  0  0
 16 17  1  0  0  0  0
 17 18  1  0  0  0  0
 18 19  1  6  0  0  0
 20 21  1  0  0  0  0
 20 18  1  0  0  0  0
 22 21  1  0  0  0  0
 23 28  1  6  0  0  0
 23 27  1  0  0  0  0
 23 25  1  0  0  0  0
 24 22  1  0  0  0  0
 25 22  1  0  0  0  0
 25 26  1  1  0  0  0
 27 24  1  0  0  0  0
 29 28  1  0  0  0  0
 30 34  1  0  0  0  0
 31 30  1  0  0  0  0
 31 33  1  0  0  0  0
 32 30  2  0  0  0  0
 33 29  2  0  0  0  0
 34 29  1  0  0  0  0
 35 13  1  0  0  0  0
 36 37  1  6  0  0  0
 36 35  1  0  0  0  0
 36 38  1  0  0  0  0
 38 39  1  0  0  0  0
 39 40  1  0  0  0  0
 40 42  1  0  0  0  0
 41 42  1  0  0  0  0
 42 43  1  0  0  0  0
M  END
>  <MODEL>
5

>  <REMARK>
 VINA RESULT:      -6.2      2.760      7.457
  Name = 
  14 active torsions:
  status: ('A' for Active; 'I' for Inactive)
    1  A    between atoms: C_1  and  C_9
    2  A    between atoms: C_1  and  N_35
    3  A    between atoms: C_2  and  N_6
    4  A    between atoms: C_2  and  C_13
    5  A    between atoms: C_3  and  N_4
    6  A    between atoms: C_3  and  C_7
    7  A    between atoms: N_6  and  C_12
    8  A    between atoms: C_7  and  C_12
    9  A    between atoms: C_9  and  N_32
   10  A    between atoms: C_10  and  O_14
   11  A    between atoms: C_11  and  O_14
   12  A    between atoms: C_25  and  N_32
   13  A    between atoms: C_25  and  C_37
   14  A    between atoms: C_34  and  N_35
                            x       y       z     vdW  Elec       q    Type
                         _______ _______ _______ _____ _____    ______ ____

>  <TORSDO>
F 14

$$$$
=
 OpenBabel11052421063D

 43 47  0  0  1  0  0  0  0  0999 V2000
  186.2360  178.9490  144.2940 C   0  0  1  0  0  3  0  0  0  0  0  0
  189.3740  174.8270  144.2110 C   0  0  0  0  0  0  0  0  0  0  0  0
  189.5480  173.9540  141.5480 C   0  0  0  0  0  0  0  0  0  0  0  0
  187.7020  177.0420  144.9460 C   0  0  1  0  0  3  0  0  0  0  0  0
  186.0130  178.3110  142.9230 C   0  0  0  0  0  2  0  0  0  0  0  0
  185.0160  179.7580  144.6820 C   0  0  0  0  0  1  0  0  0  0  0  0
  187.4330  176.3650  143.5970 C   0  0  1  0  0  3  0  0  0  0  0  0
  186.4940  177.8760  145.3530 C   0  0  0  0  0  2  0  0  0  0  0  0
  187.2080  177.4430  142.5330 C   0  0  0  0  0  2  0  0  0  0  0  0
  188.6030  174.9150  141.9050 C   0  0  0  0  0  3  0  0  0  0  0  0
  188.5270  175.3890  143.2220 C   0  0  0  0  0  0  0  0  0  0  0  0
  189.3270  175.3130  145.6410 C   0  0  0  0  0  2  0  0  0  0  0  0
  190.3290  173.8590  143.8460 C   0  0  0  0  0  0  0  0  0  0  0  0
  190.4050  173.4300  142.5150 C   0  0  0  0  0  3  0  0  0  0  0  0
  188.0030  175.9840  145.9910 C   0  0  0  0  0  2  0  0  0  0  0  0
  189.5920  173.4360  140.1550 C   0  0  0  0  0  2  0  0  0  0  0  0
  188.2480  173.4390  139.5980 N   0  0  0  0  0  2  0  0  0  0  0  0
  188.3540  173.6460  138.1600 C   0  0  1  0  0  3  0  0  0  0  0  0
  187.7660  174.8600  137.8000 O   0  0  0  0  0  1  0  0  0  0  0  0
  189.8190  173.6180  137.7210 C   0  0  0  0  0  2  0  0  0  0  0  0
  190.0130  173.0430  136.3200 C   0  0  0  0  0  2  0  0  0  0  0  0
  191.3000  173.4420  135.7710 N   0  0  0  0  0  0  0  0  0  0  0  0
  193.2120  173.9180  137.1370 C   0  0  2  0  0  3  0  0  0  0  0  0
  192.1220  172.2990  135.8010 N   0  0  0  0  0  2  0  0  0  0  0  0
  191.8660  174.4210  136.6960 C   0  0  1  0  0  3  0  0  0  0  0  0
  192.0320  175.7550  135.9940 C   0  0  0  0  0  1  0  0  0  0  0  0
  193.4330  172.7260  136.2530 C   0  0  0  0  0  2  0  0  0  0  0  0
  193.1250  173.5060  138.4950 O   0  0  0  0  0  0  0  0  0  0  0  0
  193.9720  174.0030  139.4880 C   0  0  0  0  0  0  0  0  0  0  0  0
  195.0640  174.2440  141.5570 C   0  0  0  0  0  0  0  0  0  0  0  0
  195.7310  175.6200  140.6340 S   0  0  0  0  0  0  0  0  0  0  0  0
  195.3240  174.0740  142.7360 O   0  0  0  0  0  0  0  0  0  0  0  0
  194.6690  175.1120  139.2870 C   0  0  0  0  0  3  0  0  0  0  0  0
  194.1510  173.3410  140.8130 C   0  0  0  0  0  2  0  0  0  0  0  0
  191.2020  173.3060  144.8440 N   0  0  0  0  0  2  0  0  0  0  0  0
  192.6530  173.4810  144.8960 C   0  0  2  0  0  3  0  0  0  0  0  0
  193.2680  172.2860  145.2690 O   0  0  0  0  0  1  0  0  0  0  0  0
  193.0440  174.5910  145.8620 C   0  0  0  0  0  2  0  0  0  0  0  0
  193.5000  175.7590  145.1290 N   0  0  0  0  0  2  0  0  0  0  0  0
  192.4240  176.7370  145.1910 C   0  0  0  0  0  2  0  0  0  0  0  0
  192.4210  176.5130  142.6890 C   0  0  0  0  0  1  0  0  0  0  0  0
  192.2520  177.4640  143.8590 C   0  0  0  0  0  3  0  0  0  0  0  0
  190.9080  178.1640  143.7740 C   0  0  0  0  0  1  0  0  0  0  0  0
  1  6  1  1  0  0  0
  1  8  1  0  0  0  0
  2 12  1  0  0  0  0
  3 10  2  0  0  0  0
  3 14  1  0  0  0  0
  4  8  1  1  0  0  0
  4 15  1  0  0  0  0
  5  1  1  0  0  0  0
  7  9  1  6  0  0  0
  7  4  1  0  0  0  0
  9  5  1  0  0  0  0
 10 11  1  0  0  0  0
 11  7  1  0  0  0  0
 11  2  2  0  0  0  0
 12 15  1  0  0  0  0
 13  2  1  0  0  0  0
 13 35  1  0  0  0  0
 14 13  2  0  0  0  0
 16  3  1  0  0  0  0
 17 16  1  0  0  0  0
 18 19  1  1  0  0  0
 18 17  1  0  0  0  0
 20 18  1  0  0  0  0
 21 20  1  0  0  0  0
 22 24  1  0  0  0  0
 22 21  1  0  0  0  0
 22 25  1  0  0  0  0
 23 28  1  1  0  0  0
 24 27  1  0  0  0  0
 25 26  1  6  0  0  0
 25 23  1  0  0  0  0
 27 23  1  0  0  0  0
 28 29  1  0  0  0  0
 29 34  1  0  0  0  0
 30 32  2  0  0  0  0
 31 30  1  0  0  0  0
 33 29  2  0  0  0  0
 33 31  1  0  0  0  0
 34 30  1  0  0  0  0
 35 36  1  0  0  0  0
 36 37  1  1  0  0  0
 36 38  1  0  0  0  0
 39 40  1  0  0  0  0
 39 38  1  0  0  0  0
 41 42  1  0  0  0  0
 42 40  1  0  0  0  0
 43 42  1  0  0  0  0
M  END
>  <MODEL>
6

>  <REMARK>
 VINA RESULT:      -6.2      2.966      6.190
  Name = 
  14 active torsions:
  status: ('A' for Active; 'I' for Inactive)
    1  A    between atoms: C_1  and  C_9
    2  A    between atoms: C_1  and  N_35
    3  A    between atoms: C_2  and  N_6
    4  A    between atoms: C_2  and  C_13
    5  A    between atoms: C_3  and  N_4
    6  A    between atoms: C_3  and  C_7
    7  A    between atoms: N_6  and  C_12
    8  A    between atoms: C_7  and  C_12
    9  A    between atoms: C_9  and  N_32
   10  A    between atoms: C_10  and  O_14
   11  A    between atoms: C_11  and  O_14
   12  A    between atoms: C_25  and  N_32
   13  A    between atoms: C_25  and  C_37
   14  A    between atoms: C_34  and  N_35
                            x       y       z     vdW  Elec       q    Type
                         _______ _______ _______ _____ _____    ______ ____

>  <TORSDO>
F 14

$$$$
=
 OpenBabel11052421063D

 43 47  0  0  1  0  0  0  0  0999 V2000
  186.1460  178.7210  145.6250 C   0  0  1  0  0  3  0  0  0  0  0  0
  189.4200  174.8140  144.6950 C   0  0  0  0  0  0  0  0  0  0  0  0
  189.3750  174.3160  141.9320 C   0  0  0  0  0  0  0  0  0  0  0  0
  187.7400  176.8210  145.8740 C   0  0  1  0  0  3  0  0  0  0  0  0
  185.8200  178.2630  144.2030 C   0  0  0  0  0  2  0  0  0  0  0  0
  184.9390  179.4070  146.2270 C   0  0  0  0  0  1  0  0  0  0  0  0
  187.3720  176.3190  144.4740 C   0  0  1  0  0  3  0  0  0  0  0  0
  186.5450  177.5310  146.4970 C   0  0  0  0  0  2  0  0  0  0  0  0
  187.0050  177.5170  143.5930 C   0  0  0  0  0  2  0  0  0  0  0  0
  188.4320  175.1710  142.5000 C   0  0  0  0  0  3  0  0  0  0  0  0
  188.4620  175.4590  143.8720 C   0  0  0  0  0  0  0  0  0  0  0  0
  189.4900  175.1010  146.1770 C   0  0  0  0  0  2  0  0  0  0  0  0
  190.3730  173.9540  144.1170 C   0  0  0  0  0  0  0  0  0  0  0  0
  190.3390  173.7110  142.7370 C   0  0  0  0  0  3  0  0  0  0  0  0
  188.1790  175.6500  146.7320 C   0  0  0  0  0  2  0  0  0  0  0  0
  189.3070  173.9920  140.4830 C   0  0  0  0  0  2  0  0  0  0  0  0
  189.3730  172.5490  140.3080 N   0  0  0  0  0  2  0  0  0  0  0  0
  188.6540  172.2070  139.0890 C   0  0  1  0  0  3  0  0  0  0  0  0
  188.3470  173.3620  138.3670 O   0  0  0  0  0  1  0  0  0  0  0  0
  189.4800  171.2500  138.2280 C   0  0  0  0  0  2  0  0  0  0  0  0
  190.9120  171.7300  138.0060 C   0  0  0  0  0  2  0  0  0  0  0  0
  191.8590  170.6440  138.2050 N   0  0  0  0  0  0  0  0  0  0  0  0
  193.3690  170.5520  140.0670 C   0  0  2  0  0  3  0  0  0  0  0  0
  191.3040  169.8020  139.1890 N   0  0  0  0  0  2  0  0  0  0  0  0
  193.0710  171.2400  138.7630 C   0  0  1  0  0  3  0  0  0  0  0  0
  194.2310  171.0360  137.8090 C   0  0  0  0  0  1  0  0  0  0  0  0
  192.3810  169.4230  140.0850 C   0  0  0  0  0  2  0  0  0  0  0  0
  193.0970  171.4530  141.1330 O   0  0  0  0  0  0  0  0  0  0  0  0
  194.0020  172.4380  141.5350 C   0  0  0  0  0  0  0  0  0  0  0  0
  195.0100  174.5440  141.8150 C   0  0  0  0  0  0  0  0  0  0  0  0
  196.1810  173.4720  142.6310 S   0  0  0  0  0  0  0  0  0  0  0  0
  195.2230  175.7350  141.6640 O   0  0  0  0  0  0  0  0  0  0  0  0
  195.1270  172.1080  142.1530 C   0  0  0  0  0  3  0  0  0  0  0  0
  193.7780  173.8940  141.3020 C   0  0  0  0  0  2  0  0  0  0  0  0
  191.3580  173.3180  144.9480 N   0  0  0  0  0  2  0  0  0  0  0  0
  192.8030  173.5110  144.8520 C   0  0  2  0  0  3  0  0  0  0  0  0
  193.4700  172.3530  145.2510 O   0  0  0  0  0  1  0  0  0  0  0  0
  193.2620  174.6920  145.6970 C   0  0  0  0  0  2  0  0  0  0  0  0
  193.4830  175.8560  144.8560 N   0  0  0  0  0  2  0  0  0  0  0  0
  192.4700  176.8340  145.2230 C   0  0  0  0  0  2  0  0  0  0  0  0
  192.0260  176.8220  142.7510 C   0  0  0  0  0  1  0  0  0  0  0  0
  192.0260  177.6580  144.0160 C   0  0  0  0  0  3  0  0  0  0  0  0
  190.6570  178.2750  144.2350 C   0  0  0  0  0  1  0  0  0  0  0  0
  1  6  1  1  0  0  0
  1  8  1  0  0  0  0
  2 12  1  0  0  0  0
  3 10  2  0  0  0  0
  3 14  1  0  0  0  0
  4  8  1  1  0  0  0
  4 15  1  0  0  0  0
  5  1  1  0  0  0  0
  7  9  1  6  0  0  0
  7  4  1  0  0  0  0
  9  5  1  0  0  0  0
 10 11  1  0  0  0  0
 11  7  1  0  0  0  0
 11  2  2  0  0  0  0
 12 15  1  0  0  0  0
 13  2  1  0  0  0  0
 13 35  1  0  0  0  0
 14 13  2  0  0  0  0
 16  3  1  0  0  0  0
 17 16  1  0  0  0  0
 18 19  1  6  0  0  0
 18 17  1  0  0  0  0
 20 18  1  0  0  0  0
 21 22  1  0  0  0  0
 21 20  1  0  0  0  0
 22 25  1  0  0  0  0
 22 24  1  0  0  0  0
 23 27  1  0  0  0  0
 23 28  1  1  0  0  0
 24 27  1  0  0  0  0
 25 26  1  6  0  0  0
 25 23  1  0  0  0  0
 28 29  1  0  0  0  0
 29 33  2  0  0  0  0
 30 31  1  0  0  0  0
 32 30  2  0  0  0  0
 33 31  1  0  0  0  0
 34 29  1  0  0  0  0
 34 30  1  0  0  0  0
 36 35  1  0  0  0  0
 36 37  1  1  0  0  0
 36 38  1  0  0  0  0
 39 40  1  0  0  0  0
 39 38  1  0  0  0  0
 41 42  1  0  0  0  0
 42 43  1  0  0  0  0
 42 40  1  0  0  0  0
M  END
>  <MODEL>
7

>  <REMARK>
 VINA RESULT:      -6.1      2.598      5.973
  Name = 
  14 active torsions:
  status: ('A' for Active; 'I' for Inactive)
    1  A    between atoms: C_1  and  C_9
    2  A    between atoms: C_1  and  N_35
    3  A    between atoms: C_2  and  N_6
    4  A    between atoms: C_2  and  C_13
    5  A    between atoms: C_3  and  N_4
    6  A    between atoms: C_3  and  C_7
    7  A    between atoms: N_6  and  C_12
    8  A    between atoms: C_7  and  C_12
    9  A    between atoms: C_9  and  N_32
   10  A    between atoms: C_10  and  O_14
   11  A    between atoms: C_11  and  O_14
   12  A    between atoms: C_25  and  N_32
   13  A    between atoms: C_25  and  C_37
   14  A    between atoms: C_34  and  N_35
                            x       y       z     vdW  Elec       q    Type
                         _______ _______ _______ _____ _____    ______ ____

>  <TORSDO>
F 14

$$$$
=
 OpenBabel11052421063D

 43 47  0  0  1  0  0  0  0  0999 V2000
  185.9560  177.8680  146.3600 C   0  0  1  0  0  3  0  0  0  0  0  0
  188.7430  175.5060  142.6860 C   0  0  0  0  0  0  0  0  0  0  0  0
  190.4670  173.6980  143.9680 C   0  0  0  0  0  0  0  0  0  0  0  0
  186.9820  177.2040  144.1880 C   0  0  1  0  0  3  0  0  0  0  0  0
  187.0970  177.1820  147.1110 C   0  0  0  0  0  2  0  0  0  0  0  0
  185.4390  179.0330  147.1770 C   0  0  0  0  0  1  0  0  0  0  0  0
  188.1620  176.5690  144.9320 C   0  0  1  0  0  3  0  0  0  0  0  0
  186.4310  178.3710  144.9980 C   0  0  0  0  0  2  0  0  0  0  0  0
  187.6750  176.0360  146.2820 C   0  0  0  0  0  2  0  0  0  0  0  0
  189.7500  174.6280  144.7200 C   0  0  0  0  0  3  0  0  0  0  0  0
  188.8580  175.5130  144.1000 C   0  0  0  0  0  0  0  0  0  0  0  0
  187.7890  176.4410  141.9790 C   0  0  0  0  0  2  0  0  0  0  0  0
  189.4670  174.5640  141.9310 C   0  0  0  0  0  0  0  0  0  0  0  0
  190.3260  173.6680  142.5810 C   0  0  0  0  0  3  0  0  0  0  0  0
  187.4380  177.6660  142.8170 C   0  0  0  0  0  2  0  0  0  0  0  0
  191.4370  172.7910  144.6360 C   0  0  0  0  0  2  0  0  0  0  0  0
  191.6800  171.6350  143.7870 N   0  0  0  0  0  2  0  0  0  0  0  0
  192.8690  170.9530  144.2800 C   0  0  1  0  0  3  0  0  0  0  0  0
  193.5500  170.3440  143.2240 O   0  0  0  0  0  1  0  0  0  0  0  0
  193.7890  171.9350  145.0060 C   0  0  0  0  0  2  0  0  0  0  0  0
  195.2240  171.4290  145.1320 C   0  0  0  0  0  2  0  0  0  0  0  0
  196.1360  172.2630  144.3640 N   0  0  0  0  0  0  0  0  0  0  0  0
  196.2130  174.6510  144.5730 C   0  0  2  0  0  3  0  0  0  0  0  0
  197.1960  172.6010  145.2270 N   0  0  0  0  0  2  0  0  0  0  0  0
  195.4130  173.4920  144.0460 C   0  0  1  0  0  3  0  0  0  0  0  0
  195.2640  173.6260  142.5420 C   0  0  0  0  0  1  0  0  0  0  0  0
  197.4950  174.0050  145.0090 C   0  0  0  0  0  2  0  0  0  0  0  0
  195.5380  175.1990  145.6980 O   0  0  0  0  0  0  0  0  0  0  0  0
  194.2660  175.7690  145.6090 C   0  0  0  0  0  0  0  0  0  0  0  0
  192.4130  176.9370  144.7530 C   0  0  0  0  0  0  0  0  0  0  0  0
  191.8410  176.5000  146.3870 S   0  0  0  0  0  0  0  0  0  0  0  0
  191.7560  177.6440  144.0080 O   0  0  0  0  0  0  0  0  0  0  0  0
  193.4470  175.7570  146.6510 C   0  0  0  0  0  3  0  0  0  0  0  0
  193.7480  176.4160  144.3680 C   0  0  0  0  0  2  0  0  0  0  0  0
  189.3340  174.5420  140.5000 N   0  0  0  0  0  2  0  0  0  0  0  0
  188.4540  173.6540  139.7420 C   0  0  2  0  0  3  0  0  0  0  0  0
  187.8700  172.7160  140.5930 O   0  0  0  0  0  1  0  0  0  0  0  0
  189.2100  172.9450  138.6270 C   0  0  0  0  0  2  0  0  0  0  0  0
  189.0570  171.5060  138.7530 N   0  0  0  0  0  2  0  0  0  0  0  0
  190.4000  170.9430  138.7620 C   0  0  0  0  0  2  0  0  0  0  0  0
  191.1760  169.5560  140.7080 C   0  0  0  0  0  1  0  0  0  0  0  0
  191.0030  170.9620  140.1650 C   0  0  0  0  0  3  0  0  0  0  0  0
  192.3300  171.6990  140.1910 C   0  0  0  0  0  1  0  0  0  0  0  0
  1  5  1  0  0  0  0
  1  6  1  1  0  0  0
  2 11  1  0  0  0  0
  3 16  1  0  0  0  0
  3 10  1  0  0  0  0
  4 15  1  6  0  0  0
  4  7  1  0  0  0  0
  4  8  1  0  0  0  0
  7  9  1  1  0  0  0
  8  1  1  0  0  0  0
  9  5  1  0  0  0  0
 11 10  2  0  0  0  0
 11  7  1  0  0  0  0
 12  2  1  0  0  0  0
 12 15  1  0  0  0  0
 13 14  1  0  0  0  0
 13  2  2  0  0  0  0
 14  3  2  0  0  0  0
 17 18  1  0  0  0  0
 17 16  1  0  0  0  0
 18 19  1  6  0  0  0
 18 20  1  0  0  0  0
 20 21  1  0  0  0  0
 22 21  1  0  0  0  0
 22 24  1  0  0  0  0
 23 27  1  0  0  0  0
 23 28  1  1  0  0  0
 25 26  1  6  0  0  0
 25 22  1  0  0  0  0
 25 23  1  0  0  0  0
 27 24  1  0  0  0  0
 29 28  1  0  0  0  0
 29 33  2  0  0  0  0
 30 31  1  0  0  0  0
 31 33  1  0  0  0  0
 32 30  2  0  0  0  0
 34 30  1  0  0  0  0
 34 29  1  0  0  0  0
 35 13  1  0  0  0  0
 36 35  1  0  0  0  0
 36 37  1  1  0  0  0
 38 39  1  0  0  0  0
 38 36  1  0  0  0  0
 39 40  1  0  0  0  0
 40 42  1  0  0  0  0
 42 43  1  0  0  0  0
 42 41  1  0  0  0  0
M  END
>  <MODEL>
8

>  <REMARK>
 VINA RESULT:      -6.0      2.779      7.897
  Name = 
  14 active torsions:
  status: ('A' for Active; 'I' for Inactive)
    1  A    between atoms: C_1  and  C_9
    2  A    between atoms: C_1  and  N_35
    3  A    between atoms: C_2  and  N_6
    4  A    between atoms: C_2  and  C_13
    5  A    between atoms: C_3  and  N_4
    6  A    between atoms: C_3  and  C_7
    7  A    between atoms: N_6  and  C_12
    8  A    between atoms: C_7  and  C_12
    9  A    between atoms: C_9  and  N_32
   10  A    between atoms: C_10  and  O_14
   11  A    between atoms: C_11  and  O_14
   12  A    between atoms: C_25  and  N_32
   13  A    between atoms: C_25  and  C_37
   14  A    between atoms: C_34  and  N_35
                            x       y       z     vdW  Elec       q    Type
                         _______ _______ _______ _____ _____    ______ ____

>  <TORSDO>
F 14

$$$$
=
 OpenBabel11052421063D

 43 47  0  0  1  0  0  0  0  0999 V2000
  190.7430  172.4370  136.5180 C   0  0  1  0  0  3  0  0  0  0  0  0
  188.5690  174.5260  140.7320 C   0  0  0  0  0  0  0  0  0  0  0  0
  189.8900  173.4710  142.9730 C   0  0  0  0  0  0  0  0  0  0  0  0
  189.2510  173.6910  138.0710 C   0  0  1  0  0  3  0  0  0  0  0  0
  191.2390  171.5800  137.6830 C   0  0  0  0  0  2  0  0  0  0  0  0
  190.7960  171.6310  135.2370 C   0  0  0  0  0  1  0  0  0  0  0  0
  189.6950  172.7960  139.2320 C   0  0  1  0  0  3  0  0  0  0  0  0
  189.3100  172.9080  136.7650 C   0  0  0  0  0  2  0  0  0  0  0  0
  191.1420  172.3520  138.9980 C   0  0  0  0  0  2  0  0  0  0  0  0
  190.1190  172.9270  141.7100 C   0  0  0  0  0  3  0  0  0  0  0  0
  189.4960  173.4650  140.5760 C   0  0  0  0  0  0  0  0  0  0  0  0
  187.8790  175.1370  139.5340 C   0  0  0  0  0  2  0  0  0  0  0  0
  188.3430  175.0750  142.0080 C   0  0  0  0  0  0  0  0  0  0  0  0
  189.0060  174.5390  143.1200 C   0  0  0  0  0  3  0  0  0  0  0  0
  187.8450  174.1980  138.3320 C   0  0  0  0  0  2  0  0  0  0  0  0
  190.5310  172.8660  144.1710 C   0  0  0  0  0  2  0  0  0  0  0  0
  191.2460  171.6610  143.7780 N   0  0  0  0  0  2  0  0  0  0  0  0
  192.6070  171.7560  144.2860 C   0  0  1  0  0  3  0  0  0  0  0  0
  193.5240  171.6360  143.2400 O   0  0  0  0  0  1  0  0  0  0  0  0
  192.8150  173.0810  145.0210 C   0  0  0  0  0  2  0  0  0  0  0  0
  194.2840  173.4780  145.1350 C   0  0  0  0  0  2  0  0  0  0  0  0
  194.5360  174.7330  144.4440 N   0  0  0  0  0  0  0  0  0  0  0  0
  193.4830  176.7980  145.0590 C   0  0  2  0  0  3  0  0  0  0  0  0
  195.4280  175.4660  145.2510 N   0  0  0  0  0  2  0  0  0  0  0  0
  193.2670  175.4580  144.4130 C   0  0  1  0  0  3  0  0  0  0  0  0
  192.8230  175.6560  142.9770 C   0  0  0  0  0  1  0  0  0  0  0  0
  194.9690  176.8430  145.2550 C   0  0  0  0  0  2  0  0  0  0  0  0
  192.8260  176.8100  146.3200 O   0  0  0  0  0  0  0  0  0  0  0  0
  191.4940  176.4180  146.4780 C   0  0  0  0  0  0  0  0  0  0  0  0
  189.6100  175.1800  147.1470 C   0  0  0  0  0  0  0  0  0  0  0  0
  188.8640  176.4700  146.1630 S   0  0  0  0  0  0  0  0  0  0  0  0
  188.9540  174.2620  147.6090 O   0  0  0  0  0  0  0  0  0  0  0  0
  190.5220  177.0640  145.8500 C   0  0  0  0  0  3  0  0  0  0  0  0
  191.0790  175.2750  147.3410 C   0  0  0  0  0  2  0  0  0  0  0  0
  187.4200  176.1650  142.1630 N   0  0  0  0  0  2  0  0  0  0  0  0
  187.7330  177.5790  141.9630 C   0  0  2  0  0  3  0  0  0  0  0  0
  188.9050  177.9120  142.6430 O   0  0  0  0  0  1  0  0  0  0  0  0
  186.5910  178.4720  142.4280 C   0  0  0  0  0  2  0  0  0  0  0  0
  185.8770  177.8440  143.5260 N   0  0  0  0  0  2  0  0  0  0  0  0
  186.3360  178.4920  144.7470 C   0  0  0  0  0  2  0  0  0  0  0  0
  185.8710  178.8960  147.1820 C   0  0  0  0  0  1  0  0  0  0  0  0
  185.3880  178.2200  145.9130 C   0  0  0  0  0  3  0  0  0  0  0  0
  183.9700  178.6590  145.5930 C   0  0  0  0  0  1  0  0  0  0  0  0
  1  6  1  6  0  0  0
  1  8  1  0  0  0  0
  1  5  1  0  0  0  0
  2 13  1  0  0  0  0
  3 14  1  0  0  0  0
  3 16  1  0  0  0  0
  4  8  1  6  0  0  0
  4 15  1  0  0  0  0
  4  7  1  0  0  0  0
  5  9  1  0  0  0  0
  7  9  1  6  0  0  0
  7 11  1  0  0  0  0
 10  3  2  0  0  0  0
 11  2  2  0  0  0  0
 11 10  1  0  0  0  0
 12  2  1  0  0  0  0
 13 35  1  0  0  0  0
 13 14  2  0  0  0  0
 15 12  1  0  0  0  0
 17 16  1  0  0  0  0
 17 18  1  0  0  0  0
 18 19  1  6  0  0  0
 18 20  1  0  0  0  0
 20 21  1  0  0  0  0
 22 21  1  0  0  0  0
 22 24  1  0  0  0  0
 23 27  1  0  0  0  0
 23 28  1  1  0  0  0
 24 27  1  0  0  0  0
 25 26  1  6  0  0  0
 25 22  1  0  0  0  0
 25 23  1  0  0  0  0
 28 29  1  0  0  0  0
 29 34  1  0  0  0  0
 30 34  1  0  0  0  0
 30 32  2  0  0  0  0
 31 30  1  0  0  0  0
 33 31  1  0  0  0  0
 33 29  2  0  0  0  0
 36 35  1  0  0  0  0
 36 38  1  0  0  0  0
 36 37  1  1  0  0  0
 38 39  1  0  0  0  0
 39 40  1  0  0  0  0
 40 42  1  0  0  0  0
 42 41  1  0  0  0  0
 43 42  1  0  0  0  0
M  END
>  <MODEL>
9

>  <REMARK>
 VINA RESULT:      -6.0      2.433      6.641
  Name = 
  14 active torsions:
  status: ('A' for Active; 'I' for Inactive)
    1  A    between atoms: C_1  and  C_9
    2  A    between atoms: C_1  and  N_35
    3  A    between atoms: C_2  and  N_6
    4  A    between atoms: C_2  and  C_13
    5  A    between atoms: C_3  and  N_4
    6  A    between atoms: C_3  and  C_7
    7  A    between atoms: N_6  and  C_12
    8  A    between atoms: C_7  and  C_12
    9  A    between atoms: C_9  and  N_32
   10  A    between atoms: C_10  and  O_14
   11  A    between atoms: C_11  and  O_14
   12  A    between atoms: C_25  and  N_32
   13  A    between atoms: C_25  and  C_37
   14  A    between atoms: C_34  and  N_35
                            x       y       z     vdW  Elec       q    Type
                         _______ _______ _______ _____ _____    ______ ____

>  <TORSDO>
F 14

$$$$
