=
 OpenBabel11052418493D

 34 38  0  0  1  0  0  0  0  0999 V2000
  190.9210  171.6550  140.9690 C   0  0  0  0  0  0  0  0  0  0  0  0
  189.2980  172.1060  139.1930 C   0  0  0  0  0  0  0  0  0  0  0  0
  189.8390  173.8870  141.0380 C   0  0  2  0  0  3  0  0  0  0  0  0
  188.4810  175.7860  141.4090 C   0  0  1  0  0  3  0  0  0  0  0  0
  190.4680  169.9790  139.1190 C   0  0  0  0  0  3  0  0  0  0  0  0
  189.6150  170.8280  138.5510 C   0  0  0  0  0  3  0  0  0  0  0  0
  189.9970  172.4960  140.4430 C   0  0  0  0  0  0  0  0  0  0  0  0
  191.1060  170.2470  140.4540 C   0  0  0  0  0  2  0  0  0  0  0  0
  190.1850  173.8970  142.5280 C   0  0  2  0  0  3  0  0  0  0  0  0
  191.6820  172.0420  142.1240 N   0  0  0  0  0  2  0  0  0  0  0  0
  188.4610  172.8710  138.6450 O   0  0  0  0  0  0  0  0  0  0  0  0
  188.6640  175.7450  142.8070 O   0  0  0  0  0  0  0  0  0  0  0  0
  189.9900  175.3270  143.0460 C   0  0  1  0  0  3  0  0  0  0  0  0
  188.4950  174.4290  140.8540 N   0  0  0  0  0  2  0  0  0  0  0  0
  191.6100  173.3890  142.6820 C   0  0  0  0  0  2  0  0  0  0  0  0
  189.7080  174.9030  146.8060 C   0  0  0  0  0  0  0  0  0  0  0  0
  190.8420  175.6280  147.2880 N   0  0  0  0  0  0  0  0  0  0  0  0
  190.2840  175.4250  144.5100 C   0  0  0  0  0  0  0  0  0  0  0  0
  191.6710  176.2180  146.4810 C   0  0  0  0  0  3  0  0  0  0  0  0
  189.4540  174.8270  145.3670 C   0  0  0  0  0  3  0  0  0  0  0  0
  191.5070  176.1800  144.9810 C   0  0  0  0  0  2  0  0  0  0  0  0
  188.9310  174.3360  147.6160 O   0  0  0  0  0  0  0  0  0  0  0  0
  187.1650  176.4840  141.0720 C   0  0  0  0  0  2  0  0  0  0  0  0
  187.8360  178.6460  141.8270 O   0  0  0  0  0  0  0  0  0  0  0  0
  185.8320  177.8480  142.7250 N   0  0  0  0  0  2  0  0  0  0  0  0
  186.9720  177.7300  141.8740 C   0  0  0  0  0  0  0  0  0  0  0  0
  185.6380  178.9730  143.6220 C   0  0  0  0  0  2  0  0  0  0  0  0
  183.5100  179.0480  145.5650 O   0  0  0  0  0  1  0  0  0  0  0  0
  185.8190  178.5180  145.0300 C   0  0  0  0  0  0  0  0  0  0  0  0
  184.7520  178.5530  145.9440 C   0  0  0  0  0  0  0  0  0  0  0  0
  186.1770  177.5740  147.6420 C   0  0  0  0  0  3  0  0  0  0  0  0
  187.2370  177.5300  146.7320 C   0  0  0  0  0  3  0  0  0  0  0  0
  187.0570  177.9990  145.4280 C   0  0  0  0  0  3  0  0  0  0  0  0
  184.9370  178.0830  147.2480 C   0  0  0  0  0  3  0  0  0  0  0  0
  1 10  1  0  0  0  0
  2  7  1  0  0  0  0
  3  7  1  1  0  0  0
  3  9  1  0  0  0  0
  4 23  1  1  0  0  0
  4 12  1  0  0  0  0
  5  8  1  0  0  0  0
  6  5  2  0  0  0  0
  6  2  1  0  0  0  0
  7  1  2  0  0  0  0
  8  1  1  0  0  0  0
  9 15  1  6  0  0  0
  9 13  1  0  0  0  0
 10 15  1  0  0  0  0
 11  2  2  0  0  0  0
 12 13  1  0  0  0  0
 13 18  1  1  0  0  0
 14  3  1  0  0  0  0
 14  4  1  0  0  0  0
 16 17  1  0  0  0  0
 16 22  2  0  0  0  0
 18 21  1  0  0  0  0
 18 20  2  0  0  0  0
 19 17  2  0  0  0  0
 20 16  1  0  0  0  0
 21 19  1  0  0  0  0
 23 26  1  0  0  0  0
 24 26  2  0  0  0  0
 25 27  1  0  0  0  0
 26 25  1  0  0  0  0
 27 29  1  0  0  0  0
 28 30  1  0  0  0  0
 29 33  2  0  0  0  0
 29 30  1  0  0  0  0
 30 34  2  0  0  0  0
 32 31  2  0  0  0  0
 33 32  1  0  0  0  0
 34 31  1  0  0  0  0
M  END
>  <MODEL>
1

>  <REMARK>
 VINA RESULT:      -8.1      0.000      0.000
  Name = 
  5 active torsions:
  status: ('A' for Active; 'I' for Inactive)
    1  A    between atoms: C_3  and  C_13
    2  A    between atoms: C_3  and  N_17
    3  A    between atoms: C_5  and  C_18
    4  A    between atoms: C_12  and  C_28
    5  A    between atoms: C_18  and  C_29
                            x       y       z     vdW  Elec       q    Type
                         _______ _______ _______ _____ _____    ______ ____

>  <TORSDO>
F 5

$$$$
=
 OpenBabel11052418493D

 34 38  0  0  1  0  0  0  0  0999 V2000
  185.8490  177.6290  142.8170 C   0  0  0  0  0  0  0  0  0  0  0  0
  185.6660  178.7380  144.9920 C   0  0  0  0  0  0  0  0  0  0  0  0
  187.8980  177.5990  144.2190 C   0  0  2  0  0  3  0  0  0  0  0  0
  189.6690  177.1310  145.7120 C   0  0  1  0  0  3  0  0  0  0  0  0
  183.7280  178.8240  143.5310 C   0  0  0  0  0  3  0  0  0  0  0  0
  184.3110  179.1920  144.6690 C   0  0  0  0  0  3  0  0  0  0  0  0
  186.4280  177.9310  144.0060 C   0  0  0  0  0  0  0  0  0  0  0  0
  184.3870  177.8930  142.5500 C   0  0  0  0  0  2  0  0  0  0  0  0
  188.3140  176.3720  143.4070 C   0  0  2  0  0  3  0  0  0  0  0  0
  186.5920  176.9310  141.8050 N   0  0  0  0  0  2  0  0  0  0  0  0
  186.1750  179.0780  146.0920 O   0  0  0  0  0  0  0  0  0  0  0  0
  189.9960  175.9180  145.0710 O   0  0  0  0  0  0  0  0  0  0  0  0
  189.7980  176.1050  143.6880 C   0  0  1  0  0  3  0  0  0  0  0  0
  188.2270  177.3800  145.6250 N   0  0  0  0  0  2  0  0  0  0  0  0
  188.0180  176.6560  141.9430 C   0  0  0  0  0  2  0  0  0  0  0  0
  190.1580  172.5210  142.4930 C   0  0  0  0  0  0  0  0  0  0  0  0
  191.2320  172.6120  141.5540 N   0  0  0  0  0  0  0  0  0  0  0  0
  190.2860  174.8990  142.9500 C   0  0  0  0  0  0  0  0  0  0  0  0
  191.8170  173.7410  141.2890 C   0  0  0  0  0  3  0  0  0  0  0  0
  189.7050  173.7240  143.1950 C   0  0  0  0  0  3  0  0  0  0  0  0
  191.4090  175.0380  141.9440 C   0  0  0  0  0  2  0  0  0  0  0  0
  189.6080  171.4130  142.7190 O   0  0  0  0  0  0  0  0  0  0  0  0
  190.1130  177.0910  147.1730 C   0  0  0  0  0  2  0  0  0  0  0  0
  191.4160  175.4120  148.2600 O   0  0  0  0  0  0  0  0  0  0  0  0
  192.4940  176.5540  146.5290 N   0  0  0  0  0  2  0  0  0  0  0  0
  191.3600  176.2870  147.3550 C   0  0  0  0  0  0  0  0  0  0  0  0
  193.7750  175.8980  146.7250 C   0  0  0  0  0  2  0  0  0  0  0  0
  195.5280  176.4520  144.5050 O   0  0  0  0  0  1  0  0  0  0  0  0
  194.0050  174.9240  145.6200 C   0  0  0  0  0  0  0  0  0  0  0  0
  194.8810  175.2240  144.5640 C   0  0  0  0  0  0  0  0  0  0  0  0
  194.4730  173.0340  143.6090 C   0  0  0  0  0  3  0  0  0  0  0  0
  193.6080  172.7320  144.6630 C   0  0  0  0  0  3  0  0  0  0  0  0
  193.3760  173.6750  145.6680 C   0  0  0  0  0  3  0  0  0  0  0  0
  195.1100  174.2770  143.5600 C   0  0  0  0  0  3  0  0  0  0  0  0
  1  7  2  0  0  0  0
  2 11  2  0  0  0  0
  3  7  1  1  0  0  0
  3 14  1  0  0  0  0
  4 23  1  1  0  0  0
  5  6  2  0  0  0  0
  6  2  1  0  0  0  0
  7  2  1  0  0  0  0
  8  1  1  0  0  0  0
  8  5  1  0  0  0  0
  9 15  1  6  0  0  0
  9 13  1  0  0  0  0
  9  3  1  0  0  0  0
 10 15  1  0  0  0  0
 10  1  1  0  0  0  0
 12  4  1  0  0  0  0
 13 18  1  6  0  0  0
 13 12  1  0  0  0  0
 14  4  1  0  0  0  0
 16 22  2  0  0  0  0
 16 20  1  0  0  0  0
 17 16  1  0  0  0  0
 18 20  2  0  0  0  0
 19 17  2  0  0  0  0
 19 21  1  0  0  0  0
 21 18  1  0  0  0  0
 23 26  1  0  0  0  0
 25 27  1  0  0  0  0
 25 26  1  0  0  0  0
 26 24  2  0  0  0  0
 28 30  1  0  0  0  0
 29 33  1  0  0  0  0
 29 27  1  0  0  0  0
 30 29  2  0  0  0  0
 31 32  1  0  0  0  0
 32 33  2  0  0  0  0
 34 31  2  0  0  0  0
 34 30  1  0  0  0  0
M  END
>  <MODEL>
2

>  <REMARK>
 VINA RESULT:      -8.0      2.534      7.750
  Name = 
  5 active torsions:
  status: ('A' for Active; 'I' for Inactive)
    1  A    between atoms: C_3  and  C_13
    2  A    between atoms: C_3  and  N_17
    3  A    between atoms: C_5  and  C_18
    4  A    between atoms: C_12  and  C_28
    5  A    between atoms: C_18  and  C_29
                            x       y       z     vdW  Elec       q    Type
                         _______ _______ _______ _____ _____    ______ ____

>  <TORSDO>
F 5

$$$$
=
 OpenBabel11052418493D

 34 38  0  0  1  0  0  0  0  0999 V2000
  185.8970  177.8980  141.2250 C   0  0  0  0  0  0  0  0  0  0  0  0
  184.4830  178.0240  143.2190 C   0  0  0  0  0  0  0  0  0  0  0  0
  187.0810  177.7260  143.4000 C   0  0  2  0  0  3  0  0  0  0  0  0
  188.1480  177.0690  145.4040 C   0  0  1  0  0  3  0  0  0  0  0  0
  183.3960  178.2910  141.0630 C   0  0  0  0  0  3  0  0  0  0  0  0
  183.3050  178.2970  142.3910 C   0  0  0  0  0  3  0  0  0  0  0  0
  185.8060  177.8250  142.5760 C   0  0  0  0  0  0  0  0  0  0  0  0
  184.6730  177.9580  140.3420 C   0  0  0  0  0  2  0  0  0  0  0  0
  188.1900  177.0130  142.6250 C   0  0  2  0  0  3  0  0  0  0  0  0
  187.1760  177.8030  140.5780 N   0  0  0  0  0  2  0  0  0  0  0  0
  184.3540  178.0050  144.4710 O   0  0  0  0  0  0  0  0  0  0  0  0
  189.1080  176.2850  144.7310 O   0  0  0  0  0  0  0  0  0  0  0  0
  189.4280  176.9500  143.5280 C   0  0  1  0  0  3  0  0  0  0  0  0
  186.8750  177.0500  144.6780 N   0  0  0  0  0  2  0  0  0  0  0  0
  188.4250  177.7770  141.3320 C   0  0  0  0  0  2  0  0  0  0  0  0
  191.4250  174.3040  141.6830 C   0  0  0  0  0  0  0  0  0  0  0  0
  192.7230  174.8970  141.5960 N   0  0  0  0  0  0  0  0  0  0  0  0
  190.5610  176.2410  142.8570 C   0  0  0  0  0  0  0  0  0  0  0  0
  192.9710  176.0770  142.0790 C   0  0  0  0  0  3  0  0  0  0  0  0
  190.3400  175.0290  142.3460 C   0  0  0  0  0  3  0  0  0  0  0  0
  191.9140  176.9110  142.7610 C   0  0  0  0  0  2  0  0  0  0  0  0
  191.2180  173.1630  141.1970 O   0  0  0  0  0  0  0  0  0  0  0  0
  187.9550  176.5550  146.8290 C   0  0  0  0  0  2  0  0  0  0  0  0
  188.9430  174.5340  147.6240 O   0  0  0  0  0  0  0  0  0  0  0  0
  190.4060  176.3410  147.3900 N   0  0  0  0  0  2  0  0  0  0  0  0
  189.1170  175.7360  147.2890 C   0  0  0  0  0  0  0  0  0  0  0  0
  191.5560  175.6450  147.9400 C   0  0  0  0  0  2  0  0  0  0  0  0
  193.8300  177.2800  147.2630 O   0  0  0  0  0  1  0  0  0  0  0  0
  192.4960  175.2970  146.8370 C   0  0  0  0  0  0  0  0  0  0  0  0
  193.6050  176.1100  146.5480 C   0  0  0  0  0  0  0  0  0  0  0  0
  194.2850  174.5620  144.8120 C   0  0  0  0  0  3  0  0  0  0  0  0
  193.1880  173.7480  145.1030 C   0  0  0  0  0  3  0  0  0  0  0  0
  192.2970  174.1130  146.1160 C   0  0  0  0  0  3  0  0  0  0  0  0
  194.4940  175.7400  145.5340 C   0  0  0  0  0  3  0  0  0  0  0  0
  1  7  2  0  0  0  0
  2 11  2  0  0  0  0
  3  7  1  6  0  0  0
  3 14  1  0  0  0  0
  4 23  1  1  0  0  0
  5  6  2  0  0  0  0
  6  2  1  0  0  0  0
  7  2  1  0  0  0  0
  8  5  1  0  0  0  0
  8  1  1  0  0  0  0
  9 15  1  6  0  0  0
  9  3  1  0  0  0  0
  9 13  1  0  0  0  0
 10  1  1  0  0  0  0
 10 15  1  0  0  0  0
 12  4  1  0  0  0  0
 13 18  1  6  0  0  0
 13 12  1  0  0  0  0
 14  4  1  0  0  0  0
 16 20  1  0  0  0  0
 17 16  1  0  0  0  0
 17 19  2  0  0  0  0
 19 21  1  0  0  0  0
 20 18  2  0  0  0  0
 21 18  1  0  0  0  0
 22 16  2  0  0  0  0
 23 26  1  0  0  0  0
 25 27  1  0  0  0  0
 26 25  1  0  0  0  0
 26 24  2  0  0  0  0
 29 27  1  0  0  0  0
 30 29  1  0  0  0  0
 30 28  1  0  0  0  0
 31 32  2  0  0  0  0
 31 34  1  0  0  0  0
 32 33  1  0  0  0  0
 33 29  2  0  0  0  0
 34 30  2  0  0  0  0
M  END
>  <MODEL>
3

>  <REMARK>
 VINA RESULT:      -8.0      2.612      7.069
  Name = 
  5 active torsions:
  status: ('A' for Active; 'I' for Inactive)
    1  A    between atoms: C_3  and  C_13
    2  A    between atoms: C_3  and  N_17
    3  A    between atoms: C_5  and  C_18
    4  A    between atoms: C_12  and  C_28
    5  A    between atoms: C_18  and  C_29
                            x       y       z     vdW  Elec       q    Type
                         _______ _______ _______ _____ _____    ______ ____

>  <TORSDO>
F 5

$$$$
=
 OpenBabel11052418493D

 34 38  0  0  1  0  0  0  0  0999 V2000
  185.7960  177.6510  142.7860 C   0  0  0  0  0  0  0  0  0  0  0  0
  185.6240  178.7530  144.9660 C   0  0  0  0  0  0  0  0  0  0  0  0
  187.8510  177.6170  144.1770 C   0  0  2  0  0  3  0  0  0  0  0  0
  189.6300  177.1430  145.6590 C   0  0  1  0  0  3  0  0  0  0  0  0
  183.6780  178.8440  143.5150 C   0  0  0  0  0  3  0  0  0  0  0  0
  184.2680  179.2080  144.6510 C   0  0  0  0  0  3  0  0  0  0  0  0
  186.3810  177.9500  143.9720 C   0  0  0  0  0  0  0  0  0  0  0  0
  184.3310  177.9170  142.5270 C   0  0  0  0  0  2  0  0  0  0  0  0
  188.2640  176.3920  143.3580 C   0  0  2  0  0  3  0  0  0  0  0  0
  186.5330  176.9570  141.7670 N   0  0  0  0  0  2  0  0  0  0  0  0
  186.1390  179.0890  146.0640 O   0  0  0  0  0  0  0  0  0  0  0  0
  189.9540  175.9320  145.0120 O   0  0  0  0  0  0  0  0  0  0  0  0
  189.7490  176.1240  143.6300 C   0  0  1  0  0  3  0  0  0  0  0  0
  188.1880  177.3930  145.5800 N   0  0  0  0  0  2  0  0  0  0  0  0
  187.9600  176.6820  141.8970 C   0  0  0  0  0  2  0  0  0  0  0  0
  191.7800  173.9010  141.3220 C   0  0  0  0  0  0  0  0  0  0  0  0
  191.1360  172.6330  141.4640 N   0  0  0  0  0  0  0  0  0  0  0  0
  190.2330  174.9200  142.8850 C   0  0  0  0  0  0  0  0  0  0  0  0
  190.1180  172.4650  142.2530 C   0  0  0  0  0  3  0  0  0  0  0  0
  191.2790  175.0560  142.0690 C   0  0  0  0  0  3  0  0  0  0  0  0
  189.5420  173.5890  143.0810 C   0  0  0  0  0  2  0  0  0  0  0  0
  192.7690  174.0250  140.5550 O   0  0  0  0  0  0  0  0  0  0  0  0
  190.0830  177.0980  147.1170 C   0  0  0  0  0  2  0  0  0  0  0  0
  191.3600  175.3700  148.1550 O   0  0  0  0  0  0  0  0  0  0  0  0
  192.4780  176.5910  146.5060 N   0  0  0  0  0  2  0  0  0  0  0  0
  191.3260  176.2860  147.2910 C   0  0  0  0  0  0  0  0  0  0  0  0
  193.7550  175.9270  146.7020 C   0  0  0  0  0  2  0  0  0  0  0  0
  195.4040  176.5200  144.4140 O   0  0  0  0  0  1  0  0  0  0  0  0
  193.9780  174.9510  145.5970 C   0  0  0  0  0  0  0  0  0  0  0  0
  194.8030  175.2710  144.5060 C   0  0  0  0  0  0  0  0  0  0  0  0
  194.4370  173.0590  143.5840 C   0  0  0  0  0  3  0  0  0  0  0  0
  193.6230  172.7370  144.6730 C   0  0  0  0  0  3  0  0  0  0  0  0
  193.3960  173.6810  145.6790 C   0  0  0  0  0  3  0  0  0  0  0  0
  195.0270  174.3240  143.5020 C   0  0  0  0  0  3  0  0  0  0  0  0
  1  7  2  0  0  0  0
  2 11  2  0  0  0  0
  3  7  1  1  0  0  0
  3 14  1  0  0  0  0
  4 23  1  1  0  0  0
  5  6  2  0  0  0  0
  6  2  1  0  0  0  0
  7  2  1  0  0  0  0
  8  1  1  0  0  0  0
  8  5  1  0  0  0  0
  9 15  1  6  0  0  0
  9 13  1  0  0  0  0
  9  3  1  0  0  0  0
 10 15  1  0  0  0  0
 10  1  1  0  0  0  0
 12  4  1  0  0  0  0
 13 18  1  6  0  0  0
 13 12  1  0  0  0  0
 14  4  1  0  0  0  0
 16 17  1  0  0  0  0
 16 20  1  0  0  0  0
 17 19  2  0  0  0  0
 18 21  1  0  0  0  0
 19 21  1  0  0  0  0
 20 18  2  0  0  0  0
 22 16  2  0  0  0  0
 23 26  1  0  0  0  0
 25 27  1  0  0  0  0
 25 26  1  0  0  0  0
 26 24  2  0  0  0  0
 28 30  1  0  0  0  0
 29 33  1  0  0  0  0
 29 27  1  0  0  0  0
 30 29  2  0  0  0  0
 31 32  1  0  0  0  0
 32 33  2  0  0  0  0
 34 31  2  0  0  0  0
 34 30  1  0  0  0  0
M  END
>  <MODEL>
4

>  <REMARK>
 VINA RESULT:      -7.9      2.537      7.842
  Name = 
  5 active torsions:
  status: ('A' for Active; 'I' for Inactive)
    1  A    between atoms: C_3  and  C_13
    2  A    between atoms: C_3  and  N_17
    3  A    between atoms: C_5  and  C_18
    4  A    between atoms: C_12  and  C_28
    5  A    between atoms: C_18  and  C_29
                            x       y       z     vdW  Elec       q    Type
                         _______ _______ _______ _____ _____    ______ ____

>  <TORSDO>
F 5

$$$$
=
 OpenBabel11052418493D

 34 38  0  0  1  0  0  0  0  0999 V2000
  191.1120  174.7590  145.7660 C   0  0  0  0  0  0  0  0  0  0  0  0
  189.8610  176.8460  146.0370 C   0  0  0  0  0  0  0  0  0  0  0  0
  189.5200  175.3070  143.9420 C   0  0  2  0  0  3  0  0  0  0  0  0
  188.4040  176.0420  141.9930 C   0  0  1  0  0  3  0  0  0  0  0  0
  191.3580  176.2020  147.8380 C   0  0  0  0  0  3  0  0  0  0  0  0
  190.4410  177.0440  147.3680 C   0  0  0  0  0  3  0  0  0  0  0  0
  190.2350  175.6490  145.2410 C   0  0  0  0  0  0  0  0  0  0  0  0
  191.8870  175.0490  147.0300 C   0  0  0  0  0  2  0  0  0  0  0  0
  190.3780  174.4010  143.0570 C   0  0  2  0  0  3  0  0  0  0  0  0
  191.4240  173.5460  145.0630 N   0  0  0  0  0  2  0  0  0  0  0  0
  189.0210  177.6790  145.6090 O   0  0  0  0  0  0  0  0  0  0  0  0
  189.2640  175.3280  141.1330 O   0  0  0  0  0  0  0  0  0  0  0  0
  189.5900  174.1150  141.7740 C   0  0  1  0  0  3  0  0  0  0  0  0
  189.1320  176.4930  143.1830 N   0  0  0  0  0  2  0  0  0  0  0  0
  190.7110  173.1480  143.8530 C   0  0  0  0  0  2  0  0  0  0  0  0
  190.5390  171.2560  139.4670 C   0  0  0  0  0  0  0  0  0  0  0  0
  191.8630  171.6110  139.0590 N   0  0  0  0  0  0  0  0  0  0  0  0
  190.3690  173.2510  140.8330 C   0  0  0  0  0  0  0  0  0  0  0  0
  192.4380  172.7000  139.4720 C   0  0  0  0  0  3  0  0  0  0  0  0
  189.8070  172.1270  140.3870 C   0  0  0  0  0  3  0  0  0  0  0  0
  191.7580  173.6720  140.4040 C   0  0  0  0  0  2  0  0  0  0  0  0
  190.0090  170.1980  139.0410 O   0  0  0  0  0  0  0  0  0  0  0  0
  187.7970  177.2360  141.2580 C   0  0  0  0  0  2  0  0  0  0  0  0
  186.3050  179.0090  141.8280 O   0  0  0  0  0  0  0  0  0  0  0  0
  185.8920  176.9690  142.8920 N   0  0  0  0  0  2  0  0  0  0  0  0
  186.6200  177.7990  141.9860 C   0  0  0  0  0  0  0  0  0  0  0  0
  184.8130  177.4760  143.7220 C   0  0  0  0  0  2  0  0  0  0  0  0
  185.2430  180.1660  144.6640 O   0  0  0  0  0  1  0  0  0  0  0  0
  185.3390  177.7760  145.0840 C   0  0  0  0  0  0  0  0  0  0  0  0
  185.5180  179.1010  145.5140 C   0  0  0  0  0  0  0  0  0  0  0  0
  186.2490  178.2970  147.6810 C   0  0  0  0  0  3  0  0  0  0  0  0
  186.0640  176.9790  147.2570 C   0  0  0  0  0  3  0  0  0  0  0  0
  185.6070  176.7190  145.9620 C   0  0  0  0  0  3  0  0  0  0  0  0
  185.9760  179.3570  146.8110 C   0  0  0  0  0  3  0  0  0  0  0  0
  1  8  1  0  0  0  0
  2  6  1  0  0  0  0
  3 14  1  6  0  0  0
  3  7  1  0  0  0  0
  4 23  1  6  0  0  0
  4 14  1  0  0  0  0
  6  5  2  0  0  0  0
  7  1  2  0  0  0  0
  7  2  1  0  0  0  0
  8  5  1  0  0  0  0
  9 15  1  1  0  0  0
  9  3  1  0  0  0  0
 10  1  1  0  0  0  0
 11  2  2  0  0  0  0
 12 13  1  0  0  0  0
 12  4  1  0  0  0  0
 13 18  1  6  0  0  0
 13  9  1  0  0  0  0
 15 10  1  0  0  0  0
 16 20  1  0  0  0  0
 17 16  1  0  0  0  0
 17 19  2  0  0  0  0
 19 21  1  0  0  0  0
 20 18  2  0  0  0  0
 21 18  1  0  0  0  0
 22 16  2  0  0  0  0
 23 26  1  0  0  0  0
 24 26  2  0  0  0  0
 25 27  1  0  0  0  0
 26 25  1  0  0  0  0
 27 29  1  0  0  0  0
 28 30  1  0  0  0  0
 29 30  2  0  0  0  0
 29 33  1  0  0  0  0
 30 34  1  0  0  0  0
 32 31  1  0  0  0  0
 33 32  2  0  0  0  0
 34 31  2  0  0  0  0
M  END
>  <MODEL>
5

>  <REMARK>
 VINA RESULT:      -7.8      1.772      5.303
  Name = 
  5 active torsions:
  status: ('A' for Active; 'I' for Inactive)
    1  A    between atoms: C_3  and  C_13
    2  A    between atoms: C_3  and  N_17
    3  A    between atoms: C_5  and  C_18
    4  A    between atoms: C_12  and  C_28
    5  A    between atoms: C_18  and  C_29
                            x       y       z     vdW  Elec       q    Type
                         _______ _______ _______ _____ _____    ______ ____

>  <TORSDO>
F 5

$$$$
=
 OpenBabel11052418493D

 34 38  0  0  1  0  0  0  0  0999 V2000
  185.7390  177.7310  144.1520 C   0  0  0  0  0  0  0  0  0  0  0  0
  186.3200  178.0500  146.5090 C   0  0  0  0  0  0  0  0  0  0  0  0
  187.9740  176.8960  144.8350 C   0  0  2  0  0  3  0  0  0  0  0  0
  189.8600  175.6670  145.5570 C   0  0  1  0  0  3  0  0  0  0  0  0
  184.1890  178.9390  145.7560 C   0  0  0  0  0  3  0  0  0  0  0  0
  185.0810  178.8000  146.7330 C   0  0  0  0  0  3  0  0  0  0  0  0
  186.6220  177.5140  145.1580 C   0  0  0  0  0  0  0  0  0  0  0  0
  184.3640  178.3040  144.4040 C   0  0  0  0  0  2  0  0  0  0  0  0
  187.8860  175.9660  143.6240 C   0  0  2  0  0  3  0  0  0  0  0  0
  186.0440  177.3070  142.8140 N   0  0  0  0  0  2  0  0  0  0  0  0
  187.1260  177.9090  147.4650 O   0  0  0  0  0  0  0  0  0  0  0  0
  189.7290  174.7080  144.5310 O   0  0  0  0  0  0  0  0  0  0  0  0
  189.2830  175.3830  143.3770 C   0  0  1  0  0  3  0  0  0  0  0  0
  188.5410  176.1620  145.9640 N   0  0  0  0  0  2  0  0  0  0  0  0
  187.3540  176.7750  142.4510 C   0  0  0  0  0  2  0  0  0  0  0  0
  190.4150  173.4490  140.3150 C   0  0  0  0  0  0  0  0  0  0  0  0
  189.2710  172.6480  140.0110 N   0  0  0  0  0  0  0  0  0  0  0  0
  189.2840  174.4370  142.2180 C   0  0  0  0  0  0  0  0  0  0  0  0
  188.1910  172.6940  140.7310 C   0  0  0  0  0  3  0  0  0  0  0  0
  190.3780  174.3620  141.4590 C   0  0  0  0  0  3  0  0  0  0  0  0
  188.0630  173.5870  141.9420 C   0  0  0  0  0  2  0  0  0  0  0  0
  191.4470  173.3730  139.6010 O   0  0  0  0  0  0  0  0  0  0  0  0
  190.5930  175.0620  146.7530 C   0  0  0  0  0  2  0  0  0  0  0  0
  191.9480  176.7870  147.6920 O   0  0  0  0  0  0  0  0  0  0  0  0
  193.0900  175.1990  146.4140 N   0  0  0  0  0  2  0  0  0  0  0  0
  191.9040  175.7340  147.0020 C   0  0  0  0  0  0  0  0  0  0  0  0
  194.3790  175.8620  146.5120 C   0  0  0  0  0  2  0  0  0  0  0  0
  194.7410  176.4220  143.7080 O   0  0  0  0  0  1  0  0  0  0  0  0
  195.3710  175.1360  145.6690 C   0  0  0  0  0  0  0  0  0  0  0  0
  195.5310  175.4500  144.3090 C   0  0  0  0  0  0  0  0  0  0  0  0
  197.3060  173.8080  144.1420 C   0  0  0  0  0  3  0  0  0  0  0  0
  197.1540  173.5000  145.4960 C   0  0  0  0  0  3  0  0  0  0  0  0
  196.1900  174.1650  146.2590 C   0  0  0  0  0  3  0  0  0  0  0  0
  196.4970  174.7820  143.5500 C   0  0  0  0  0  3  0  0  0  0  0  0
  1  8  1  0  0  0  0
  1  7  2  0  0  0  0
  2  6  1  0  0  0  0
  2 11  2  0  0  0  0
  3  7  1  1  0  0  0
  3 14  1  0  0  0  0
  4 14  1  0  0  0  0
  4 23  1  1  0  0  0
  5  6  2  0  0  0  0
  7  2  1  0  0  0  0
  8  5  1  0  0  0  0
  9 15  1  6  0  0  0
  9  3  1  0  0  0  0
 10  1  1  0  0  0  0
 12  4  1  0  0  0  0
 13 18  1  6  0  0  0
 13  9  1  0  0  0  0
 13 12  1  0  0  0  0
 15 10  1  0  0  0  0
 16 20  1  0  0  0  0
 17 16  1  0  0  0  0
 17 19  2  0  0  0  0
 19 21  1  0  0  0  0
 20 18  2  0  0  0  0
 21 18  1  0  0  0  0
 22 16  2  0  0  0  0
 23 26  1  0  0  0  0
 25 27  1  0  0  0  0
 25 26  1  0  0  0  0
 26 24  2  0  0  0  0
 28 30  1  0  0  0  0
 29 33  1  0  0  0  0
 29 27  1  0  0  0  0
 30 29  2  0  0  0  0
 31 32  1  0  0  0  0
 32 33  2  0  0  0  0
 34 31  2  0  0  0  0
 34 30  1  0  0  0  0
M  END
>  <MODEL>
6

>  <REMARK>
 VINA RESULT:      -7.8      2.953      8.509
  Name = 
  5 active torsions:
  status: ('A' for Active; 'I' for Inactive)
    1  A    between atoms: C_3  and  C_13
    2  A    between atoms: C_3  and  N_17
    3  A    between atoms: C_5  and  C_18
    4  A    between atoms: C_12  and  C_28
    5  A    between atoms: C_18  and  C_29
                            x       y       z     vdW  Elec       q    Type
                         _______ _______ _______ _____ _____    ______ ____

>  <TORSDO>
F 5

$$$$
=
 OpenBabel11052418493D

 34 38  0  0  1  0  0  0  0  0999 V2000
  186.4380  177.1360  145.1700 C   0  0  0  0  0  0  0  0  0  0  0  0
  187.3770  178.0220  147.2510 C   0  0  0  0  0  0  0  0  0  0  0  0
  188.8830  176.8250  145.4700 C   0  0  2  0  0  3  0  0  0  0  0  0
  191.0760  176.0870  145.9500 C   0  0  1  0  0  3  0  0  0  0  0  0
  185.0090  178.3870  146.8520 C   0  0  0  0  0  3  0  0  0  0  0  0
  186.0780  178.5960  147.6150 C   0  0  0  0  0  3  0  0  0  0  0  0
  187.5200  177.2740  145.9760 C   0  0  0  0  0  0  0  0  0  0  0  0
  185.0500  177.5220  145.6210 C   0  0  0  0  0  2  0  0  0  0  0  0
  188.7550  175.6640  144.4820 C   0  0  2  0  0  3  0  0  0  0  0  0
  186.5650  176.4990  143.8890 N   0  0  0  0  0  2  0  0  0  0  0  0
  188.3600  178.2110  148.0130 O   0  0  0  0  0  0  0  0  0  0  0  0
  190.9480  174.9290  145.1560 O   0  0  0  0  0  0  0  0  0  0  0  0
  190.1670  175.2720  144.0330 C   0  0  1  0  0  3  0  0  0  0  0  0
  189.7860  176.4390  146.5510 N   0  0  0  0  0  2  0  0  0  0  0  0
  187.8620  176.1180  143.3390 C   0  0  0  0  0  2  0  0  0  0  0  0
  190.5030  173.2240  140.8560 C   0  0  0  0  0  0  0  0  0  0  0  0
  190.0660  171.9280  141.2730 N   0  0  0  0  0  0  0  0  0  0  0  0
  190.1380  174.1190  143.0790 C   0  0  0  0  0  0  0  0  0  0  0  0
  189.6910  171.6910  142.4930 C   0  0  0  0  0  3  0  0  0  0  0  0
  190.5200  174.3270  141.8180 C   0  0  0  0  0  3  0  0  0  0  0  0
  189.6930  172.7560  143.5630 C   0  0  0  0  0  2  0  0  0  0  0  0
  190.8670  173.4170  139.6680 O   0  0  0  0  0  0  0  0  0  0  0  0
  192.1260  175.8660  147.0380 C   0  0  0  0  0  2  0  0  0  0  0  0
  194.1140  177.1670  146.8240 O   0  0  0  0  0  0  0  0  0  0  0  0
  194.1210  175.1300  145.6800 N   0  0  0  0  0  2  0  0  0  0  0  0
  193.5120  176.1000  146.5320 C   0  0  0  0  0  0  0  0  0  0  0  0
  195.4150  175.3410  145.0540 C   0  0  0  0  0  2  0  0  0  0  0  0
  197.0750  177.1230  143.5130 O   0  0  0  0  0  1  0  0  0  0  0  0
  195.2250  175.5520  143.5900 C   0  0  0  0  0  0  0  0  0  0  0  0
  196.0670  176.4160  142.8690 C   0  0  0  0  0  0  0  0  0  0  0  0
  194.8890  175.8550  140.8270 C   0  0  0  0  0  3  0  0  0  0  0  0
  194.0570  174.9890  141.5410 C   0  0  0  0  0  3  0  0  0  0  0  0
  194.2270  174.8360  142.9200 C   0  0  0  0  0  3  0  0  0  0  0  0
  195.8930  176.5660  141.4900 C   0  0  0  0  0  3  0  0  0  0  0  0
  1  8  1  0  0  0  0
  1  7  2  0  0  0  0
  2  6  1  0  0  0  0
  2 11  2  0  0  0  0
  3  7  1  1  0  0  0
  3 14  1  0  0  0  0
  4 14  1  0  0  0  0
  4 23  1  1  0  0  0
  5  6  2  0  0  0  0
  7  2  1  0  0  0  0
  8  5  1  0  0  0  0
  9 15  1  6  0  0  0
  9  3  1  0  0  0  0
 10  1  1  0  0  0  0
 12  4  1  0  0  0  0
 13 18  1  6  0  0  0
 13  9  1  0  0  0  0
 13 12  1  0  0  0  0
 15 10  1  0  0  0  0
 16 17  1  0  0  0  0
 16 20  1  0  0  0  0
 17 19  2  0  0  0  0
 18 21  1  0  0  0  0
 19 21  1  0  0  0  0
 20 18  2  0  0  0  0
 22 16  2  0  0  0  0
 25 26  1  0  0  0  0
 26 24  2  0  0  0  0
 26 23  1  0  0  0  0
 27 25  1  0  0  0  0
 29 27  1  0  0  0  0
 30 28  1  0  0  0  0
 30 29  2  0  0  0  0
 31 34  2  0  0  0  0
 31 32  1  0  0  0  0
 32 33  2  0  0  0  0
 33 29  1  0  0  0  0
 34 30  1  0  0  0  0
M  END
>  <MODEL>
7

>  <REMARK>
 VINA RESULT:      -7.7      3.068      8.489
  Name = 
  5 active torsions:
  status: ('A' for Active; 'I' for Inactive)
    1  A    between atoms: C_3  and  C_13
    2  A    between atoms: C_3  and  N_17
    3  A    between atoms: C_5  and  C_18
    4  A    between atoms: C_12  and  C_28
    5  A    between atoms: C_18  and  C_29
                            x       y       z     vdW  Elec       q    Type
                         _______ _______ _______ _____ _____    ______ ____

>  <TORSDO>
F 5

$$$$
=
 OpenBabel11052418493D

 34 38  0  0  1  0  0  0  0  0999 V2000
  191.3930  173.8860  140.8710 C   0  0  0  0  0  0  0  0  0  0  0  0
  189.0930  174.3920  141.5410 C   0  0  0  0  0  0  0  0  0  0  0  0
  191.0990  174.6840  143.2030 C   0  0  2  0  0  3  0  0  0  0  0  0
  190.7920  174.9540  145.5310 C   0  0  1  0  0  3  0  0  0  0  0  0
  189.4580  173.7060  139.2400 C   0  0  0  0  0  3  0  0  0  0  0  0
  188.6190  174.1370  140.1780 C   0  0  0  0  0  3  0  0  0  0  0  0
  190.5370  174.2510  141.8570 C   0  0  0  0  0  0  0  0  0  0  0  0
  190.9040  173.4070  139.5240 C   0  0  0  0  0  2  0  0  0  0  0  0
  192.4250  173.9830  143.5030 C   0  0  2  0  0  3  0  0  0  0  0  0
  192.8060  173.8300  141.1210 N   0  0  0  0  0  2  0  0  0  0  0  0
  188.2660  174.7660  142.4130 O   0  0  0  0  0  0  0  0  0  0  0  0
  191.9350  174.1940  145.8530 O   0  0  0  0  0  0  0  0  0  0  0  0
  192.9130  174.4680  144.8740 C   0  0  1  0  0  3  0  0  0  0  0  0
  190.1700  174.4460  144.3050 N   0  0  0  0  0  2  0  0  0  0  0  0
  193.3900  174.3020  142.3720 C   0  0  0  0  0  2  0  0  0  0  0  0
  195.4830  171.8010  145.6970 C   0  0  0  0  0  0  0  0  0  0  0  0
  196.6440  172.5730  146.0130 N   0  0  0  0  0  0  0  0  0  0  0  0
  194.2000  173.8100  145.2620 C   0  0  0  0  0  0  0  0  0  0  0  0
  196.6380  173.8710  145.9630 C   0  0  0  0  0  3  0  0  0  0  0  0
  194.2420  172.4790  145.3200 C   0  0  0  0  0  3  0  0  0  0  0  0
  195.4140  174.6600  145.5650 C   0  0  0  0  0  2  0  0  0  0  0  0
  195.5260  170.5450  145.7480 O   0  0  0  0  0  0  0  0  0  0  0  0
  189.7930  174.9180  146.6870 C   0  0  0  0  0  2  0  0  0  0  0  0
  189.8270  177.2440  147.2180 O   0  0  0  0  0  0  0  0  0  0  0  0
  187.7150  176.3480  146.7730 N   0  0  0  0  0  2  0  0  0  0  0  0
  189.1340  176.2430  146.8960 C   0  0  0  0  0  0  0  0  0  0  0  0
  186.9930  177.5710  147.0770 C   0  0  0  0  0  2  0  0  0  0  0  0
  184.2330  178.4010  147.1150 O   0  0  0  0  0  1  0  0  0  0  0  0
  186.2770  178.0370  145.8560 C   0  0  0  0  0  0  0  0  0  0  0  0
  184.9360  178.4510  145.9180 C   0  0  0  0  0  0  0  0  0  0  0  0
  184.9940  178.9850  143.5540 C   0  0  0  0  0  3  0  0  0  0  0  0
  186.3300  178.5820  143.4930 C   0  0  0  0  0  3  0  0  0  0  0  0
  186.9710  178.1110  144.6420 C   0  0  0  0  0  3  0  0  0  0  0  0
  184.2980  178.9210  144.7650 C   0  0  0  0  0  3  0  0  0  0  0  0
  1 10  1  0  0  0  0
  1  7  2  0  0  0  0
  2  7  1  0  0  0  0
  2 11  2  0  0  0  0
  3  7  1  6  0  0  0
  3  9  1  0  0  0  0
  3 14  1  0  0  0  0
  4 12  1  0  0  0  0
  4 23  1  1  0  0  0
  5  8  1  0  0  0  0
  5  6  2  0  0  0  0
  6  2  1  0  0  0  0
  8  1  1  0  0  0  0
  9 15  1  6  0  0  0
  9 13  1  0  0  0  0
 10 15  1  0  0  0  0
 13 18  1  1  0  0  0
 13 12  1  0  0  0  0
 14  4  1  0  0  0  0
 16 22  2  0  0  0  0
 16 17  1  0  0  0  0
 18 20  2  0  0  0  0
 18 21  1  0  0  0  0
 19 17  2  0  0  0  0
 20 16  1  0  0  0  0
 21 19  1  0  0  0  0
 23 26  1  0  0  0  0
 25 26  1  0  0  0  0
 25 27  1  0  0  0  0
 26 24  2  0  0  0  0
 29 30  1  0  0  0  0
 29 27  1  0  0  0  0
 30 28  1  0  0  0  0
 31 34  1  0  0  0  0
 32 31  2  0  0  0  0
 32 33  1  0  0  0  0
 33 29  2  0  0  0  0
 34 30  2  0  0  0  0
M  END
>  <MODEL>
8

>  <REMARK>
 VINA RESULT:      -7.7      2.913      4.240
  Name = 
  5 active torsions:
  status: ('A' for Active; 'I' for Inactive)
    1  A    between atoms: C_3  and  C_13
    2  A    between atoms: C_3  and  N_17
    3  A    between atoms: C_5  and  C_18
    4  A    between atoms: C_12  and  C_28
    5  A    between atoms: C_18  and  C_29
                            x       y       z     vdW  Elec       q    Type
                         _______ _______ _______ _____ _____    ______ ____

>  <TORSDO>
F 5

$$$$
=
 OpenBabel11052418493D

 34 38  0  0  1  0  0  0  0  0999 V2000
  194.9130  175.2650  141.8550 C   0  0  0  0  0  0  0  0  0  0  0  0
  195.7350  176.4140  143.8540 C   0  0  0  0  0  0  0  0  0  0  0  0
  193.4320  175.1630  143.8440 C   0  0  2  0  0  3  0  0  0  0  0  0
  191.8100  175.4730  145.5350 C   0  0  1  0  0  3  0  0  0  0  0  0
  197.1870  176.3890  141.9060 C   0  0  0  0  0  3  0  0  0  0  0  0
  197.0020  176.7170  143.1830 C   0  0  0  0  0  3  0  0  0  0  0  0
  194.6810  175.6600  143.1310 C   0  0  0  0  0  0  0  0  0  0  0  0
  196.1110  175.7500  141.0720 C   0  0  0  0  0  2  0  0  0  0  0  0
  192.2920  174.9080  142.8570 C   0  0  2  0  0  3  0  0  0  0  0  0
  193.9520  174.4540  141.1590 N   0  0  0  0  0  2  0  0  0  0  0  0
  195.5820  176.7680  145.0520 O   0  0  0  0  0  0  0  0  0  0  0  0
  190.7320  175.3820  144.6310 O   0  0  0  0  0  0  0  0  0  0  0  0
  191.0780  174.4220  143.6570 C   0  0  1  0  0  3  0  0  0  0  0  0
  192.9730  176.0820  144.8820 N   0  0  0  0  0  2  0  0  0  0  0  0
  192.7790  173.9010  141.8270 C   0  0  0  0  0  2  0  0  0  0  0  0
  188.2320  174.9910  141.2130 C   0  0  0  0  0  0  0  0  0  0  0  0
  187.6560  173.6880  141.0960 N   0  0  0  0  0  0  0  0  0  0  0  0
  189.9000  174.1710  142.7690 C   0  0  0  0  0  0  0  0  0  0  0  0
  188.1350  172.6660  141.7390 C   0  0  0  0  0  3  0  0  0  0  0  0
  189.3850  175.1970  142.0910 C   0  0  0  0  0  3  0  0  0  0  0  0
  189.3340  172.7730  142.6510 C   0  0  0  0  0  2  0  0  0  0  0  0
  187.7470  175.9560  140.5690 O   0  0  0  0  0  0  0  0  0  0  0  0
  191.4020  176.2880  146.7610 C   0  0  0  0  0  2  0  0  0  0  0  0
  189.4600  175.1010  147.4790 O   0  0  0  0  0  0  0  0  0  0  0  0
  189.0870  177.2920  146.7570 N   0  0  0  0  0  2  0  0  0  0  0  0
  189.9370  176.1810  147.0390 C   0  0  0  0  0  0  0  0  0  0  0  0
  187.6420  177.2240  146.8890 C   0  0  0  0  0  2  0  0  0  0  0  0
  185.4160  179.0460  147.0670 O   0  0  0  0  0  1  0  0  0  0  0  0
  187.0080  177.8390  145.6870 C   0  0  0  0  0  0  0  0  0  0  0  0
  185.9360  178.7370  145.8160 C   0  0  0  0  0  0  0  0  0  0  0  0
  185.9020  179.0360  143.4110 C   0  0  0  0  0  3  0  0  0  0  0  0
  186.9740  178.1500  143.2820 C   0  0  0  0  0  3  0  0  0  0  0  0
  187.5280  177.5540  144.4190 C   0  0  0  0  0  3  0  0  0  0  0  0
  185.3850  179.3300  144.6760 C   0  0  0  0  0  3  0  0  0  0  0  0
  1  7  2  0  0  0  0
  2 11  2  0  0  0  0
  3  7  1  6  0  0  0
  3 14  1  0  0  0  0
  4 23  1  1  0  0  0
  5  6  2  0  0  0  0
  6  2  1  0  0  0  0
  7  2  1  0  0  0  0
  8  1  1  0  0  0  0
  8  5  1  0  0  0  0
  9 15  1  6  0  0  0
  9 13  1  0  0  0  0
  9  3  1  0  0  0  0
 10 15  1  0  0  0  0
 10  1  1  0  0  0  0
 12  4  1  0  0  0  0
 13 18  1  6  0  0  0
 13 12  1  0  0  0  0
 14  4  1  0  0  0  0
 16 20  1  0  0  0  0
 17 16  1  0  0  0  0
 17 19  2  0  0  0  0
 19 21  1  0  0  0  0
 20 18  2  0  0  0  0
 21 18  1  0  0  0  0
 22 16  2  0  0  0  0
 23 26  1  0  0  0  0
 25 27  1  0  0  0  0
 25 26  1  0  0  0  0
 26 24  2  0  0  0  0
 29 30  1  0  0  0  0
 29 27  1  0  0  0  0
 30 28  1  0  0  0  0
 31 34  1  0  0  0  0
 32 31  2  0  0  0  0
 32 33  1  0  0  0  0
 33 29  2  0  0  0  0
 34 30  2  0  0  0  0
M  END
>  <MODEL>
9

>  <REMARK>
 VINA RESULT:      -7.6      2.902      5.673
  Name = 
  5 active torsions:
  status: ('A' for Active; 'I' for Inactive)
    1  A    between atoms: C_3  and  C_13
    2  A    between atoms: C_3  and  N_17
    3  A    between atoms: C_5  and  C_18
    4  A    between atoms: C_12  and  C_28
    5  A    between atoms: C_18  and  C_29
                            x       y       z     vdW  Elec       q    Type
                         _______ _______ _______ _____ _____    ______ ____

>  <TORSDO>
F 5

$$$$
