=
 OpenBabel11052418263D

 27 29  0  0  1  0  0  0  0  0999 V2000
  187.8250  177.0770  145.0940 C   0  0  2  0  0  3  0  0  0  0  0  0
  183.8620  178.8500  145.3750 C   0  0  0  0  0  2  0  0  0  0  0  0
  186.5400  177.8410  145.2920 C   0  0  0  0  0  0  0  0  0  0  0  0
  186.1000  178.8750  144.2740 C   0  0  0  0  0  2  0  0  0  0  0  0
  184.9320  179.7350  144.7560 C   0  0  0  0  0  2  0  0  0  0  0  0
  184.4400  178.1780  146.6140 C   0  0  0  0  0  2  0  0  0  0  0  0
  185.7390  177.4790  146.3090 C   0  0  0  0  0  3  0  0  0  0  0  0
  188.1880  176.9280  143.6110 C   0  0  0  0  0  2  0  0  0  0  0  0
  191.6140  175.7460  142.4380 C   0  0  0  0  0  3  0  0  0  0  0  0
  192.4310  176.7720  142.9180 C   0  0  0  0  0  3  0  0  0  0  0  0
  189.6670  176.8550  143.3720 C   0  0  0  0  0  0  0  0  0  0  0  0
  189.4380  174.7480  142.1840 O   0  0  0  0  0  1  0  0  0  0  0  0
  191.8710  177.8390  143.6260 C   0  0  0  0  0  3  0  0  0  0  0  0
  190.4930  177.8790  143.8530 C   0  0  0  0  0  3  0  0  0  0  0  0
  190.2340  175.7820  142.6630 C   0  0  0  0  0  0  0  0  0  0  0  0
  187.7940  175.7780  145.7530 N   0  0  0  0  0  2  0  0  0  0  0  0
  188.6740  175.8660  146.9060 C   0  0  0  0  0  2  0  0  0  0  0  0
  191.3700  173.6700  145.4510 C   0  0  0  0  0  3  0  0  0  0  0  0
  193.8380  173.8110  145.3260 C   0  0  0  0  0  1  0  0  0  0  0  0
  192.4540  175.5850  146.4870 C   0  0  0  0  0  0  0  0  0  0  0  0
  193.9390  176.5040  146.7570 Cl  0  0  0  0  0  0  0  0  0  0  0  0
  191.1860  176.0750  146.8960 C   0  0  0  0  0  0  0  0  0  0  0  0
  192.5310  174.3710  145.7730 C   0  0  0  0  0  0  0  0  0  0  0  0
  190.0270  175.3580  146.5420 C   0  0  0  0  0  0  0  0  0  0  0  0
  190.1240  174.1640  145.8270 C   0  0  0  0  0  3  0  0  0  0  0  0
  191.4510  177.4390  148.9700 C   0  0  0  0  0  1  0  0  0  0  0  0
  191.0180  177.2600  147.6290 O   0  0  0  0  0  0  0  0  0  0  0  0
  1  8  1  6  0  0  0
  1  3  1  0  0  0  0
  1 16  1  0  0  0  0
  2  6  1  0  0  0  0
  3  7  2  0  0  0  0
  4  5  1  0  0  0  0
  4  3  1  0  0  0  0
  5  2  1  0  0  0  0
  7  6  1  0  0  0  0
  9 15  2  0  0  0  0
  9 10  1  0  0  0  0
 10 13  2  0  0  0  0
 11  8  1  0  0  0  0
 11 14  2  0  0  0  0
 12 15  1  0  0  0  0
 13 14  1  0  0  0  0
 15 11  1  0  0  0  0
 16 17  1  0  0  0  0
 18 23  2  0  0  0  0
 18 25  1  0  0  0  0
 19 23  1  0  0  0  0
 20 21  1  0  0  0  0
 20 22  2  0  0  0  0
 22 27  1  0  0  0  0
 23 20  1  0  0  0  0
 24 22  1  0  0  0  0
 24 17  1  0  0  0  0
 25 24  2  0  0  0  0
 27 26  1  0  0  0  0
M  END
>  <MODEL>
1

>  <REMARK>
 VINA RESULT:      -6.6      0.000      0.000
  Name = 
  7 active torsions:
  status: ('A' for Active; 'I' for Inactive)
    1  A    between atoms: C_1  and  C_15
    2  A    between atoms: C_1  and  C_18
    3  A    between atoms: N_2  and  C_6
    4  A    between atoms: N_2  and  C_15
    5  A    between atoms: C_6  and  C_17
    6  A    between atoms: C_9  and  C_15
    7  A    between atoms: C_14  and  O_19
                            x       y       z     vdW  Elec       q    Type
                         _______ _______ _______ _____ _____    ______ ____

>  <TORSDO>
F 7

$$$$
=
 OpenBabel11052418263D

 27 29  0  0  1  0  0  0  0  0999 V2000
  187.9080  176.1070  143.4510 C   0  0  2  0  0  3  0  0  0  0  0  0
  189.2560  172.1300  142.3140 C   0  0  0  0  0  2  0  0  0  0  0  0
  188.5330  174.8210  142.9730 C   0  0  0  0  0  0  0  0  0  0  0  0
  189.5220  174.0780  143.8490 C   0  0  0  0  0  2  0  0  0  0  0  0
  190.2520  172.9540  143.1150 C   0  0  0  0  0  2  0  0  0  0  0  0
  188.6400  173.0170  141.2390 C   0  0  0  0  0  2  0  0  0  0  0  0
  188.0830  174.2880  141.8230 C   0  0  0  0  0  3  0  0  0  0  0  0
  186.4460  176.2410  143.0090 C   0  0  0  0  0  2  0  0  0  0  0  0
  184.1360  179.0000  144.2580 C   0  0  0  0  0  3  0  0  0  0  0  0
  184.1080  178.7270  145.6280 C   0  0  0  0  0  3  0  0  0  0  0  0
  185.6360  177.1230  143.9120 C   0  0  0  0  0  0  0  0  0  0  0  0
  184.9190  178.4950  142.0380 O   0  0  0  0  0  1  0  0  0  0  0  0
  184.8430  177.6550  146.1420 C   0  0  0  0  0  3  0  0  0  0  0  0
  185.6050  176.8570  145.2860 C   0  0  0  0  0  3  0  0  0  0  0  0
  184.8980  178.2030  143.3980 C   0  0  0  0  0  0  0  0  0  0  0  0
  188.6810  177.2730  143.0470 N   0  0  0  0  0  2  0  0  0  0  0  0
  189.0500  177.9800  144.2620 C   0  0  0  0  0  2  0  0  0  0  0  0
  192.6550  176.9290  144.5850 C   0  0  0  0  0  3  0  0  0  0  0  0
  193.9840  175.8210  146.3560 C   0  0  0  0  0  1  0  0  0  0  0  0
  191.5080  176.2770  146.6280 C   0  0  0  0  0  0  0  0  0  0  0  0
  191.6190  175.6480  148.2760 Cl  0  0  0  0  0  0  0  0  0  0  0  0
  190.2920  176.7850  146.1010 C   0  0  0  0  0  0  0  0  0  0  0  0
  192.6830  176.3450  145.8510 C   0  0  0  0  0  0  0  0  0  0  0  0
  190.2940  177.3860  144.8280 C   0  0  0  0  0  0  0  0  0  0  0  0
  191.4690  177.4530  144.0790 C   0  0  0  0  0  3  0  0  0  0  0  0
  188.3590  175.5420  147.0750 C   0  0  0  0  0  1  0  0  0  0  0  0
  189.0720  176.7370  146.7940 O   0  0  0  0  0  0  0  0  0  0  0  0
  1  8  1  6  0  0  0
  2  5  1  0  0  0  0
  3  1  1  0  0  0  0
  3  4  1  0  0  0  0
  5  4  1  0  0  0  0
  6  7  1  0  0  0  0
  6  2  1  0  0  0  0
  7  3  2  0  0  0  0
  8 11  1  0  0  0  0
  9 10  1  0  0  0  0
 10 13  2  0  0  0  0
 11 14  2  0  0  0  0
 12 15  1  0  0  0  0
 14 13  1  0  0  0  0
 15 11  1  0  0  0  0
 15  9  2  0  0  0  0
 16  1  1  0  0  0  0
 16 17  1  0  0  0  0
 17 24  1  0  0  0  0
 18 23  1  0  0  0  0
 20 21  1  0  0  0  0
 22 20  1  0  0  0  0
 22 27  1  0  0  0  0
 23 19  1  0  0  0  0
 23 20  2  0  0  0  0
 24 22  2  0  0  0  0
 25 18  2  0  0  0  0
 25 24  1  0  0  0  0
 27 26  1  0  0  0  0
M  END
>  <MODEL>
2

>  <REMARK>
 VINA RESULT:      -6.6      2.228      5.269
  Name = 
  7 active torsions:
  status: ('A' for Active; 'I' for Inactive)
    1  A    between atoms: C_1  and  C_15
    2  A    between atoms: C_1  and  C_18
    3  A    between atoms: N_2  and  C_6
    4  A    between atoms: N_2  and  C_15
    5  A    between atoms: C_6  and  C_17
    6  A    between atoms: C_9  and  C_15
    7  A    between atoms: C_14  and  O_19
                            x       y       z     vdW  Elec       q    Type
                         _______ _______ _______ _____ _____    ______ ____

>  <TORSDO>
F 7

$$$$
=
 OpenBabel11052418263D

 27 29  0  0  1  0  0  0  0  0999 V2000
  188.0620  176.6970  145.4690 C   0  0  2  0  0  3  0  0  0  0  0  0
  184.1660  178.2060  146.6820 C   0  0  0  0  0  2  0  0  0  0  0  0
  186.7670  177.3930  145.8020 C   0  0  0  0  0  0  0  0  0  0  0  0
  185.6020  177.3470  144.8310 C   0  0  0  0  0  2  0  0  0  0  0  0
  184.4760  178.3130  145.1970 C   0  0  0  0  0  2  0  0  0  0  0  0
  185.3900  178.6540  147.4710 C   0  0  0  0  0  2  0  0  0  0  0  0
  186.6300  177.9240  147.0300 C   0  0  0  0  0  3  0  0  0  0  0  0
  188.5910  175.8640  146.6430 C   0  0  0  0  0  2  0  0  0  0  0  0
  192.3620  175.3490  146.7940 C   0  0  0  0  0  3  0  0  0  0  0  0
  192.5150  174.2410  145.9560 C   0  0  0  0  0  3  0  0  0  0  0  0
  189.9660  175.3160  146.4040 C   0  0  0  0  0  0  0  0  0  0  0  0
  190.9610  176.9960  147.8500 O   0  0  0  0  0  1  0  0  0  0  0  0
  191.3980  173.6710  145.3400 C   0  0  0  0  0  3  0  0  0  0  0  0
  190.1280  174.2070  145.5630 C   0  0  0  0  0  3  0  0  0  0  0  0
  191.0920  175.8890  147.0190 C   0  0  0  0  0  0  0  0  0  0  0  0
  189.0760  177.6290  144.9960 N   0  0  0  0  0  2  0  0  0  0  0  0
  189.0650  177.5690  143.5450 C   0  0  0  0  0  2  0  0  0  0  0  0
  192.6350  176.5130  142.9570 C   0  0  0  0  0  3  0  0  0  0  0  0
  193.7090  174.5690  141.8630 C   0  0  0  0  0  1  0  0  0  0  0  0
  191.1920  174.8320  141.9550 C   0  0  0  0  0  0  0  0  0  0  0  0
  191.0430  173.2490  141.1830 Cl  0  0  0  0  0  0  0  0  0  0  0  0
  190.0530  175.5840  142.3470 C   0  0  0  0  0  0  0  0  0  0  0  0
  192.4810  175.3170  142.2570 C   0  0  0  0  0  0  0  0  0  0  0  0
  190.2360  176.7790  143.0680 C   0  0  0  0  0  0  0  0  0  0  0  0
  191.5190  177.2360  143.3670 C   0  0  0  0  0  3  0  0  0  0  0  0
  188.1180  175.3100  140.7930 C   0  0  0  0  0  1  0  0  0  0  0  0
  188.7360  175.1880  142.0660 O   0  0  0  0  0  0  0  0  0  0  0  0
  1  3  1  0  0  0  0
  1  8  1  1  0  0  0
  2  6  1  0  0  0  0
  3  7  2  0  0  0  0
  4  5  1  0  0  0  0
  4  3  1  0  0  0  0
  5  2  1  0  0  0  0
  7  6  1  0  0  0  0
  9 15  1  0  0  0  0
 10  9  2  0  0  0  0
 11  8  1  0  0  0  0
 11 15  2  0  0  0  0
 13 14  2  0  0  0  0
 13 10  1  0  0  0  0
 14 11  1  0  0  0  0
 15 12  1  0  0  0  0
 16  1  1  0  0  0  0
 17 16  1  0  0  0  0
 18 25  1  0  0  0  0
 19 23  1  0  0  0  0
 20 23  1  0  0  0  0
 20 22  2  0  0  0  0
 21 20  1  0  0  0  0
 22 24  1  0  0  0  0
 23 18  2  0  0  0  0
 24 25  2  0  0  0  0
 24 17  1  0  0  0  0
 26 27  1  0  0  0  0
 27 22  1  0  0  0  0
M  END
>  <MODEL>
3

>  <REMARK>
 VINA RESULT:      -6.5      1.743      4.202
  Name = 
  7 active torsions:
  status: ('A' for Active; 'I' for Inactive)
    1  A    between atoms: C_1  and  C_15
    2  A    between atoms: C_1  and  C_18
    3  A    between atoms: N_2  and  C_6
    4  A    between atoms: N_2  and  C_15
    5  A    between atoms: C_6  and  C_17
    6  A    between atoms: C_9  and  C_15
    7  A    between atoms: C_14  and  O_19
                            x       y       z     vdW  Elec       q    Type
                         _______ _______ _______ _____ _____    ______ ____

>  <TORSDO>
F 7

$$$$
=
 OpenBabel11052418263D

 27 29  0  0  1  0  0  0  0  0999 V2000
  187.8810  177.0920  144.4220 C   0  0  2  0  0  3  0  0  0  0  0  0
  183.9130  178.6660  143.5840 C   0  0  0  0  0  2  0  0  0  0  0  0
  186.5930  177.7380  143.9800 C   0  0  0  0  0  0  0  0  0  0  0  0
  185.7140  177.0620  142.9450 C   0  0  0  0  0  2  0  0  0  0  0  0
  184.5980  177.9650  142.4210 C   0  0  0  0  0  2  0  0  0  0  0  0
  184.9220  179.5820  144.2660 C   0  0  0  0  0  2  0  0  0  0  0  0
  186.1830  178.8430  144.6280 C   0  0  0  0  0  3  0  0  0  0  0  0
  187.8500  176.6880  145.9010 C   0  0  0  0  0  2  0  0  0  0  0  0
  191.1830  176.5570  147.7400 C   0  0  0  0  0  3  0  0  0  0  0  0
  191.6430  175.2900  147.3700 C   0  0  0  0  0  3  0  0  0  0  0  0
  189.1790  176.2180  146.4120 C   0  0  0  0  0  0  0  0  0  0  0  0
  189.5160  178.2900  147.6360 O   0  0  0  0  0  1  0  0  0  0  0  0
  190.8770  174.4880  146.5210 C   0  0  0  0  0  3  0  0  0  0  0  0
  189.6490  174.9510  146.0430 C   0  0  0  0  0  3  0  0  0  0  0  0
  189.9540  177.0250  147.2630 C   0  0  0  0  0  0  0  0  0  0  0  0
  189.0370  177.9310  144.1380 N   0  0  0  0  0  2  0  0  0  0  0  0
  189.6090  177.4570  142.8890 C   0  0  0  0  0  2  0  0  0  0  0  0
  193.0300  176.6000  144.2200 C   0  0  0  0  0  3  0  0  0  0  0  0
  194.4570  174.5780  144.1550 C   0  0  0  0  0  1  0  0  0  0  0  0
  192.1870  174.6510  143.0350 C   0  0  0  0  0  0  0  0  0  0  0  0
  192.3860  172.9440  142.6210 Cl  0  0  0  0  0  0  0  0  0  0  0  0
  191.0080  175.3690  142.7040 C   0  0  0  0  0  0  0  0  0  0  0  0
  193.1980  175.2860  143.7860 C   0  0  0  0  0  0  0  0  0  0  0  0
  190.8550  176.6890  143.1690 C   0  0  0  0  0  0  0  0  0  0  0  0
  191.8630  177.2960  143.9190 C   0  0  0  0  0  3  0  0  0  0  0  0
  188.9620  173.9590  142.4600 C   0  0  0  0  0  1  0  0  0  0  0  0
  189.9620  174.8230  141.9420 O   0  0  0  0  0  0  0  0  0  0  0  0
  1  8  1  1  0  0  0
  2  6  1  0  0  0  0
  3  1  1  0  0  0  0
  3  7  2  0  0  0  0
  4  3  1  0  0  0  0
  5  4  1  0  0  0  0
  5  2  1  0  0  0  0
  6  7  1  0  0  0  0
  8 11  1  0  0  0  0
 10  9  1  0  0  0  0
 11 15  1  0  0  0  0
 13 10  2  0  0  0  0
 14 11  2  0  0  0  0
 14 13  1  0  0  0  0
 15 12  1  0  0  0  0
 15  9  2  0  0  0  0
 16  1  1  0  0  0  0
 17 24  1  0  0  0  0
 17 16  1  0  0  0  0
 20 23  1  0  0  0  0
 21 20  1  0  0  0  0
 22 20  2  0  0  0  0
 22 24  1  0  0  0  0
 23 19  1  0  0  0  0
 23 18  2  0  0  0  0
 24 25  2  0  0  0  0
 25 18  1  0  0  0  0
 27 26  1  0  0  0  0
 27 22  1  0  0  0  0
M  END
>  <MODEL>
4

>  <REMARK>
 VINA RESULT:      -6.4      1.802      4.041
  Name = 
  7 active torsions:
  status: ('A' for Active; 'I' for Inactive)
    1  A    between atoms: C_1  and  C_15
    2  A    between atoms: C_1  and  C_18
    3  A    between atoms: N_2  and  C_6
    4  A    between atoms: N_2  and  C_15
    5  A    between atoms: C_6  and  C_17
    6  A    between atoms: C_9  and  C_15
    7  A    between atoms: C_14  and  O_19
                            x       y       z     vdW  Elec       q    Type
                         _______ _______ _______ _____ _____    ______ ____

>  <TORSDO>
F 7

$$$$
=
 OpenBabel11052418263D

 27 29  0  0  1  0  0  0  0  0999 V2000
  188.7530  177.5580  144.7900 C   0  0  2  0  0  3  0  0  0  0  0  0
  190.9970  175.2200  147.6940 C   0  0  0  0  0  2  0  0  0  0  0  0
  189.3990  176.8160  145.9330 C   0  0  0  0  0  0  0  0  0  0  0  0
  188.9460  175.4120  146.2870 C   0  0  0  0  0  2  0  0  0  0  0  0
  189.5090  174.9160  147.6180 C   0  0  0  0  0  2  0  0  0  0  0  0
  191.1880  176.7320  147.6840 C   0  0  0  0  0  2  0  0  0  0  0  0
  190.4700  177.3730  146.5250 C   0  0  0  0  0  3  0  0  0  0  0  0
  187.4740  176.8690  144.3000 C   0  0  0  0  0  2  0  0  0  0  0  0
  184.4220  179.1270  144.6080 C   0  0  0  0  0  3  0  0  0  0  0  0
  183.8670  178.6660  145.8050 C   0  0  0  0  0  3  0  0  0  0  0  0
  186.2230  177.5120  144.8180 C   0  0  0  0  0  0  0  0  0  0  0  0
  186.1390  179.0320  142.9240 O   0  0  0  0  0  1  0  0  0  0  0  0
  184.4870  177.6310  146.5110 C   0  0  0  0  0  3  0  0  0  0  0  0
  185.6620  177.0570  146.0180 C   0  0  0  0  0  3  0  0  0  0  0  0
  185.5980  178.5550  144.1130 C   0  0  0  0  0  0  0  0  0  0  0  0
  189.6800  177.7770  143.6890 N   0  0  0  0  0  2  0  0  0  0  0  0
  189.6580  176.5760  142.8710 C   0  0  0  0  0  2  0  0  0  0  0  0
  193.1460  175.4810  143.7880 C   0  0  0  0  0  3  0  0  0  0  0  0
  194.1720  173.3190  144.4200 C   0  0  0  0  0  1  0  0  0  0  0  0
  191.7150  173.5150  143.8410 C   0  0  0  0  0  0  0  0  0  0  0  0
  191.5280  171.8060  144.2500 Cl  0  0  0  0  0  0  0  0  0  0  0  0
  190.6130  174.3130  143.4350 C   0  0  0  0  0  0  0  0  0  0  0  0
  192.9820  174.1130  144.0020 C   0  0  0  0  0  0  0  0  0  0  0  0
  190.8010  175.6950  143.2430 C   0  0  0  0  0  0  0  0  0  0  0  0
  192.0600  176.2690  143.4180 C   0  0  0  0  0  3  0  0  0  0  0  0
  188.9370  173.0460  142.0870 C   0  0  0  0  0  1  0  0  0  0  0  0
  189.3240  173.7980  143.2280 O   0  0  0  0  0  0  0  0  0  0  0  0
  1  8  1  6  0  0  0
  1  3  1  0  0  0  0
  3  4  1  0  0  0  0
  3  7  2  0  0  0  0
  4  5  1  0  0  0  0
  5  2  1  0  0  0  0
  6  2  1  0  0  0  0
  7  6  1  0  0  0  0
  8 11  1  0  0  0  0
  9 10  1  0  0  0  0
 10 13  2  0  0  0  0
 11 14  2  0  0  0  0
 12 15  1  0  0  0  0
 14 13  1  0  0  0  0
 15  9  2  0  0  0  0
 15 11  1  0  0  0  0
 16  1  1  0  0  0  0
 17 24  1  0  0  0  0
 17 16  1  0  0  0  0
 18 23  1  0  0  0  0
 20 23  2  0  0  0  0
 20 21  1  0  0  0  0
 22 20  1  0  0  0  0
 23 19  1  0  0  0  0
 24 25  1  0  0  0  0
 24 22  2  0  0  0  0
 25 18  2  0  0  0  0
 26 27  1  0  0  0  0
 27 22  1  0  0  0  0
M  END
>  <MODEL>
5

>  <REMARK>
 VINA RESULT:      -6.3      2.063      5.398
  Name = 
  7 active torsions:
  status: ('A' for Active; 'I' for Inactive)
    1  A    between atoms: C_1  and  C_15
    2  A    between atoms: C_1  and  C_18
    3  A    between atoms: N_2  and  C_6
    4  A    between atoms: N_2  and  C_15
    5  A    between atoms: C_6  and  C_17
    6  A    between atoms: C_9  and  C_15
    7  A    between atoms: C_14  and  O_19
                            x       y       z     vdW  Elec       q    Type
                         _______ _______ _______ _____ _____    ______ ____

>  <TORSDO>
F 7

$$$$
=
 OpenBabel11052418263D

 27 29  0  0  1  0  0  0  0  0999 V2000
  188.3070  176.8890  144.4040 C   0  0  2  0  0  3  0  0  0  0  0  0
  184.8400  178.7380  146.2700 C   0  0  0  0  0  2  0  0  0  0  0  0
  186.9960  177.3980  144.9450 C   0  0  0  0  0  0  0  0  0  0  0  0
  186.3970  176.7910  146.2000 C   0  0  0  0  0  2  0  0  0  0  0  0
  184.9570  177.2330  146.4550 C   0  0  0  0  0  2  0  0  0  0  0  0
  185.1420  179.0780  144.8160 C   0  0  0  0  0  2  0  0  0  0  0  0
  186.4540  178.4880  144.3720 C   0  0  0  0  0  3  0  0  0  0  0  0
  189.4680  177.8470  144.7000 C   0  0  0  0  0  2  0  0  0  0  0  0
  192.9080  176.2800  145.1640 C   0  0  0  0  0  3  0  0  0  0  0  0
  192.8570  175.9160  146.5120 C   0  0  0  0  0  3  0  0  0  0  0  0
  190.6530  177.1640  145.3160 C   0  0  0  0  0  0  0  0  0  0  0  0
  191.8770  177.2510  143.2180 O   0  0  0  0  0  1  0  0  0  0  0  0
  191.7070  176.1720  147.2630 C   0  0  0  0  0  3  0  0  0  0  0  0
  190.6080  176.7940  146.6650 C   0  0  0  0  0  3  0  0  0  0  0  0
  191.8100  176.9030  144.5620 C   0  0  0  0  0  0  0  0  0  0  0  0
  188.2310  176.5900  142.9810 N   0  0  0  0  0  2  0  0  0  0  0  0
  188.0240  175.1580  142.8580 C   0  0  0  0  0  2  0  0  0  0  0  0
  190.5010  173.3340  145.0370 C   0  0  0  0  0  3  0  0  0  0  0  0
  192.6940  172.2560  144.6380 C   0  0  0  0  0  1  0  0  0  0  0  0
  191.4160  173.4160  142.7850 C   0  0  0  0  0  0  0  0  0  0  0  0
  192.6650  172.8870  141.6520 Cl  0  0  0  0  0  0  0  0  0  0  0  0
  190.2790  174.1510  142.3560 C   0  0  0  0  0  0  0  0  0  0  0  0
  191.5190  173.0240  144.1350 C   0  0  0  0  0  0  0  0  0  0  0  0
  189.2580  174.4360  143.2810 C   0  0  0  0  0  0  0  0  0  0  0  0
  189.3740  174.0300  144.6110 C   0  0  0  0  0  3  0  0  0  0  0  0
  189.6340  173.7910  139.9710 C   0  0  0  0  0  1  0  0  0  0  0  0
  190.1060  174.6010  141.0370 O   0  0  0  0  0  0  0  0  0  0  0  0
  1  8  1  6  0  0  0
  1  3  1  0  0  0  0
  2  5  1  0  0  0  0
  3  4  1  0  0  0  0
  4  5  1  0  0  0  0
  6  2  1  0  0  0  0
  7  6  1  0  0  0  0
  7  3  2  0  0  0  0
  8 11  1  0  0  0  0
  9 10  1  0  0  0  0
 10 13  2  0  0  0  0
 11 14  2  0  0  0  0
 12 15  1  0  0  0  0
 14 13  1  0  0  0  0
 15  9  2  0  0  0  0
 15 11  1  0  0  0  0
 16  1  1  0  0  0  0
 17 16  1  0  0  0  0
 17 24  1  0  0  0  0
 20 23  1  0  0  0  0
 21 20  1  0  0  0  0
 22 20  2  0  0  0  0
 22 24  1  0  0  0  0
 23 19  1  0  0  0  0
 23 18  2  0  0  0  0
 24 25  2  0  0  0  0
 25 18  1  0  0  0  0
 26 27  1  0  0  0  0
 27 22  1  0  0  0  0
M  END
>  <MODEL>
6

>  <REMARK>
 VINA RESULT:      -6.2      2.069      3.814
  Name = 
  7 active torsions:
  status: ('A' for Active; 'I' for Inactive)
    1  A    between atoms: C_1  and  C_15
    2  A    between atoms: C_1  and  C_18
    3  A    between atoms: N_2  and  C_6
    4  A    between atoms: N_2  and  C_15
    5  A    between atoms: C_6  and  C_17
    6  A    between atoms: C_9  and  C_15
    7  A    between atoms: C_14  and  O_19
                            x       y       z     vdW  Elec       q    Type
                         _______ _______ _______ _____ _____    ______ ____

>  <TORSDO>
F 7

$$$$
=
 OpenBabel11052418263D

 27 29  0  0  1  0  0  0  0  0999 V2000
  188.1330  176.1010  144.8890 C   0  0  2  0  0  3  0  0  0  0  0  0
  188.8550  173.9090  141.2020 C   0  0  0  0  0  2  0  0  0  0  0  0
  188.5430  175.4620  143.5870 C   0  0  0  0  0  0  0  0  0  0  0  0
  189.5090  174.2930  143.5780 C   0  0  0  0  0  2  0  0  0  0  0  0
  190.0190  173.9440  142.1810 C   0  0  0  0  0  2  0  0  0  0  0  0
  188.2570  175.3070  141.1040 C   0  0  0  0  0  2  0  0  0  0  0  0
  187.9220  175.8620  142.4630 C   0  0  0  0  0  3  0  0  0  0  0  0
  187.9770  177.6220  144.7660 C   0  0  0  0  0  2  0  0  0  0  0  0
  184.5280  179.1970  144.3980 C   0  0  0  0  0  3  0  0  0  0  0  0
  183.9820  178.9430  145.6580 C   0  0  0  0  0  3  0  0  0  0  0  0
  186.5870  178.0980  145.0670 C   0  0  0  0  0  0  0  0  0  0  0  0
  186.3580  179.0460  142.8410 O   0  0  0  0  0  1  0  0  0  0  0  0
  184.7340  178.2700  146.6250 C   0  0  0  0  0  3  0  0  0  0  0  0
  186.0340  177.8490  146.3290 C   0  0  0  0  0  3  0  0  0  0  0  0
  185.8290  178.7780  144.0980 C   0  0  0  0  0  0  0  0  0  0  0  0
  189.0420  175.7600  145.9750 N   0  0  0  0  0  2  0  0  0  0  0  0
  190.0100  176.8390  146.0730 C   0  0  0  0  0  2  0  0  0  0  0  0
  193.0560  174.7360  146.7830 C   0  0  0  0  0  3  0  0  0  0  0  0
  195.2870  174.5100  145.7350 C   0  0  0  0  0  1  0  0  0  0  0  0
  193.5620  176.1500  144.8700 C   0  0  0  0  0  0  0  0  0  0  0  0
  194.6710  176.5550  143.5550 Cl  0  0  0  0  0  0  0  0  0  0  0  0
  192.2740  176.7390  144.9720 C   0  0  0  0  0  0  0  0  0  0  0  0
  193.9450  175.1550  145.7940 C   0  0  0  0  0  0  0  0  0  0  0  0
  191.3890  176.2850  145.9680 C   0  0  0  0  0  0  0  0  0  0  0  0
  191.7830  175.2930  146.8660 C   0  0  0  0  0  3  0  0  0  0  0  0
  191.3310  177.5230  142.7970 C   0  0  0  0  0  1  0  0  0  0  0  0
  191.8200  177.7510  144.1110 O   0  0  0  0  0  0  0  0  0  0  0  0
  1  8  1  6  0  0  0
  1 16  1  0  0  0  0
  2  5  1  0  0  0  0
  3  1  1  0  0  0  0
  4  3  1  0  0  0  0
  5  4  1  0  0  0  0
  6  2  1  0  0  0  0
  6  7  1  0  0  0  0
  7  3  2  0  0  0  0
  8 11  1  0  0  0  0
  9 10  1  0  0  0  0
 10 13  2  0  0  0  0
 11 14  2  0  0  0  0
 12 15  1  0  0  0  0
 14 13  1  0  0  0  0
 15  9  2  0  0  0  0
 15 11  1  0  0  0  0
 16 17  1  0  0  0  0
 18 25  1  0  0  0  0
 19 23  1  0  0  0  0
 20 22  2  0  0  0  0
 20 23  1  0  0  0  0
 21 20  1  0  0  0  0
 22 24  1  0  0  0  0
 23 18  2  0  0  0  0
 24 17  1  0  0  0  0
 24 25  2  0  0  0  0
 26 27  1  0  0  0  0
 27 22  1  0  0  0  0
M  END
>  <MODEL>
7

>  <REMARK>
 VINA RESULT:      -6.2      1.938      4.948
  Name = 
  7 active torsions:
  status: ('A' for Active; 'I' for Inactive)
    1  A    between atoms: C_1  and  C_15
    2  A    between atoms: C_1  and  C_18
    3  A    between atoms: N_2  and  C_6
    4  A    between atoms: N_2  and  C_15
    5  A    between atoms: C_6  and  C_17
    6  A    between atoms: C_9  and  C_15
    7  A    between atoms: C_14  and  O_19
                            x       y       z     vdW  Elec       q    Type
                         _______ _______ _______ _____ _____    ______ ____

>  <TORSDO>
F 7

$$$$
=
 OpenBabel11052418263D

 27 29  0  0  1  0  0  0  0  0999 V2000
  188.6190  176.6740  144.6790 C   0  0  2  0  0  3  0  0  0  0  0  0
  184.8880  178.6010  145.8160 C   0  0  0  0  0  2  0  0  0  0  0  0
  187.2340  177.1900  144.9770 C   0  0  0  0  0  0  0  0  0  0  0  0
  186.5060  176.7480  146.2320 C   0  0  0  0  0  2  0  0  0  0  0  0
  185.0310  177.1490  146.2450 C   0  0  0  0  0  2  0  0  0  0  0  0
  185.3570  178.7340  144.3730 C   0  0  0  0  0  2  0  0  0  0  0  0
  186.7330  178.1520  144.1820 C   0  0  0  0  0  3  0  0  0  0  0  0
  189.7130  177.6180  145.1940 C   0  0  0  0  0  2  0  0  0  0  0  0
  193.3250  176.4210  145.0260 C   0  0  0  0  0  3  0  0  0  0  0  0
  193.3890  175.6020  146.1560 C   0  0  0  0  0  3  0  0  0  0  0  0
  190.9980  176.9120  145.5110 C   0  0  0  0  0  0  0  0  0  0  0  0
  192.0870  177.8800  143.5660 O   0  0  0  0  0  1  0  0  0  0  0  0
  192.2610  175.4350  146.9640 C   0  0  0  0  0  3  0  0  0  0  0  0
  191.0690  176.0880  146.6410 C   0  0  0  0  0  3  0  0  0  0  0  0
  192.1340  177.0750  144.6990 C   0  0  0  0  0  0  0  0  0  0  0  0
  188.8030  176.3900  143.2630 N   0  0  0  0  0  2  0  0  0  0  0  0
  188.8270  174.9450  143.1190 C   0  0  0  0  0  2  0  0  0  0  0  0
  192.2820  174.5620  141.6620 C   0  0  0  0  0  3  0  0  0  0  0  0
  194.3240  173.3400  142.3440 C   0  0  0  0  0  1  0  0  0  0  0  0
  192.1850  173.2310  143.6950 C   0  0  0  0  0  0  0  0  0  0  0  0
  193.0450  172.2600  144.8960 Cl  0  0  0  0  0  0  0  0  0  0  0  0
  190.8270  173.6070  143.8690 C   0  0  0  0  0  0  0  0  0  0  0  0
  192.8990  173.7090  142.5760 C   0  0  0  0  0  0  0  0  0  0  0  0
  190.2340  174.4840  142.9420 C   0  0  0  0  0  0  0  0  0  0  0  0
  190.9600  174.9530  141.8470 C   0  0  0  0  0  3  0  0  0  0  0  0
  189.4650  171.8620  145.0250 C   0  0  0  0  0  1  0  0  0  0  0  0
  190.0360  173.1600  144.9390 O   0  0  0  0  0  0  0  0  0  0  0  0
  1  3  1  0  0  0  0
  1  8  1  6  0  0  0
  2  5  1  0  0  0  0
  3  4  1  0  0  0  0
  4  5  1  0  0  0  0
  6  2  1  0  0  0  0
  7  6  1  0  0  0  0
  7  3  2  0  0  0  0
  8 11  1  0  0  0  0
  9 10  1  0  0  0  0
 10 13  2  0  0  0  0
 11 14  2  0  0  0  0
 12 15  1  0  0  0  0
 14 13  1  0  0  0  0
 15  9  2  0  0  0  0
 15 11  1  0  0  0  0
 16  1  1  0  0  0  0
 17 16  1  0  0  0  0
 18 25  2  0  0  0  0
 18 23  1  0  0  0  0
 19 23  1  0  0  0  0
 20 22  1  0  0  0  0
 20 21  1  0  0  0  0
 22 27  1  0  0  0  0
 23 20  2  0  0  0  0
 24 17  1  0  0  0  0
 24 22  2  0  0  0  0
 25 24  1  0  0  0  0
 27 26  1  0  0  0  0
M  END
>  <MODEL>
8

>  <REMARK>
 VINA RESULT:      -6.1      2.043      3.551
  Name = 
  7 active torsions:
  status: ('A' for Active; 'I' for Inactive)
    1  A    between atoms: C_1  and  C_15
    2  A    between atoms: C_1  and  C_18
    3  A    between atoms: N_2  and  C_6
    4  A    between atoms: N_2  and  C_15
    5  A    between atoms: C_6  and  C_17
    6  A    between atoms: C_9  and  C_15
    7  A    between atoms: C_14  and  O_19
                            x       y       z     vdW  Elec       q    Type
                         _______ _______ _______ _____ _____    ______ ____

>  <TORSDO>
F 7

$$$$
=
 OpenBabel11052418263D

 27 29  0  0  1  0  0  0  0  0999 V2000
  188.0600  177.0510  144.2850 C   0  0  2  0  0  3  0  0  0  0  0  0
  184.3240  179.0410  145.2880 C   0  0  0  0  0  2  0  0  0  0  0  0
  186.8790  177.9010  144.6780 C   0  0  0  0  0  0  0  0  0  0  0  0
  186.1840  178.7700  143.6480 C   0  0  0  0  0  2  0  0  0  0  0  0
  185.1910  179.7550  144.2630 C   0  0  0  0  0  2  0  0  0  0  0  0
  185.2120  178.5590  146.4280 C   0  0  0  0  0  2  0  0  0  0  0  0
  186.3780  177.7550  145.9180 C   0  0  0  0  0  3  0  0  0  0  0  0
  187.6360  175.6650  143.7820 C   0  0  0  0  0  2  0  0  0  0  0  0
  190.0810  174.1930  141.2600 C   0  0  0  0  0  3  0  0  0  0  0  0
  190.9100  173.4420  142.0970 C   0  0  0  0  0  3  0  0  0  0  0  0
  188.7670  174.8860  143.1800 C   0  0  0  0  0  0  0  0  0  0  0  0
  188.1910  175.6510  140.9460 O   0  0  0  0  0  1  0  0  0  0  0  0
  190.6700  173.4090  143.4730 C   0  0  0  0  0  3  0  0  0  0  0  0
  189.6010  174.1290  144.0120 C   0  0  0  0  0  3  0  0  0  0  0  0
  189.0100  174.9150  141.7960 C   0  0  0  0  0  0  0  0  0  0  0  0
  189.0330  176.9360  145.3630 N   0  0  0  0  0  2  0  0  0  0  0  0
  190.0810  177.9060  145.0940 C   0  0  0  0  0  2  0  0  0  0  0  0
  192.7240  176.5510  142.7740 C   0  0  0  0  0  3  0  0  0  0  0  0
  194.8390  175.3050  143.0970 C   0  0  0  0  0  1  0  0  0  0  0  0
  193.3620  175.9620  145.0460 C   0  0  0  0  0  0  0  0  0  0  0  0
  194.5830  175.2990  146.1380 Cl  0  0  0  0  0  0  0  0  0  0  0  0
  192.1790  176.5800  145.5320 C   0  0  0  0  0  0  0  0  0  0  0  0
  193.6160  175.9450  143.6590 C   0  0  0  0  0  0  0  0  0  0  0  0
  191.3050  177.2000  144.6190 C   0  0  0  0  0  0  0  0  0  0  0  0
  191.5790  177.1810  143.2510 C   0  0  0  0  0  3  0  0  0  0  0  0
  191.3750  175.5040  147.6360 C   0  0  0  0  0  1  0  0  0  0  0  0
  191.8360  176.6230  146.8920 O   0  0  0  0  0  0  0  0  0  0  0  0
  1  8  1  1  0  0  0
  1  3  1  0  0  0  0
  1 16  1  0  0  0  0
  2  6  1  0  0  0  0
  3  7  2  0  0  0  0
  4  5  1  0  0  0  0
  4  3  1  0  0  0  0
  5  2  1  0  0  0  0
  7  6  1  0  0  0  0
  9 15  2  0  0  0  0
  9 10  1  0  0  0  0
 10 13  2  0  0  0  0
 11  8  1  0  0  0  0
 11 14  2  0  0  0  0
 12 15  1  0  0  0  0
 13 14  1  0  0  0  0
 15 11  1  0  0  0  0
 17 16  1  0  0  0  0
 18 25  2  0  0  0  0
 18 23  1  0  0  0  0
 19 23  1  0  0  0  0
 20 22  1  0  0  0  0
 20 21  1  0  0  0  0
 22 27  1  0  0  0  0
 23 20  2  0  0  0  0
 24 17  1  0  0  0  0
 24 22  2  0  0  0  0
 25 24  1  0  0  0  0
 27 26  1  0  0  0  0
M  END
>  <MODEL>
9

>  <REMARK>
 VINA RESULT:      -6.0      1.514      2.446
  Name = 
  7 active torsions:
  status: ('A' for Active; 'I' for Inactive)
    1  A    between atoms: C_1  and  C_15
    2  A    between atoms: C_1  and  C_18
    3  A    between atoms: N_2  and  C_6
    4  A    between atoms: N_2  and  C_15
    5  A    between atoms: C_6  and  C_17
    6  A    between atoms: C_9  and  C_15
    7  A    between atoms: C_14  and  O_19
                            x       y       z     vdW  Elec       q    Type
                         _______ _______ _______ _____ _____    ______ ____

>  <TORSDO>
F 7

$$$$
