=
 OpenBabel11052417093D

 30 32  0  0  1  0  0  0  0  0999 V2000
  190.3330  175.4920  143.6510 C   0  0  2  0  0  3  0  0  0  0  0  0
  189.5520  174.1840  143.9520 C   0  0  1  0  0  3  0  0  0  0  0  0
  191.4600  172.5270  143.5940 C   0  0  1  0  0  3  0  0  0  0  0  0
  191.2710  176.0230  144.7830 C   0  0  1  0  0  0  0  0  0  0  0  0
  190.5390  176.2220  145.9550 O   0  0  0  0  0  1  0  0  0  0  0  0
  189.4150  176.5810  143.0400 C   0  0  2  0  0  3  0  0  0  0  0  0
  192.8930  173.0180  143.8760 C   0  0  2  0  0  3  0  0  0  0  0  0
  190.1680  177.8630  142.7000 C   0  0  0  0  0  2  0  0  0  0  0  0
  189.5030  172.4880  141.9890 C   0  0  0  0  0  2  0  0  0  0  0  0
  188.8270  173.6810  142.6850 C   0  0  0  0  0  2  0  0  0  0  0  0
  191.5660  171.2430  141.4670 C   0  0  0  0  0  1  0  0  0  0  0  0
  191.5700  173.6950  141.3080 C   0  0  0  0  0  1  0  0  0  0  0  0
  190.4120  173.0800  144.5790 C   0  0  2  0  0  3  0  0  0  0  0  0
  192.4140  175.0540  145.0970 C   0  0  0  0  0  2  0  0  0  0  0  0
  193.4600  172.3550  145.1330 C   0  0  0  0  0  1  0  0  0  0  0  0
  193.0000  174.4910  143.8780 N   0  0  0  0  0  0  0  0  0  0  0  0
  191.9300  177.3460  144.3730 C   0  0  0  0  0  2  0  0  0  0  0  0
  191.0300  172.5110  142.1020 C   0  0  0  0  0  0  0  0  0  0  0  0
  189.6050  172.0440  145.0510 O   0  0  0  0  0  1  0  0  0  0  0  0
  190.9190  178.3860  143.9160 C   0  0  0  0  0  2  0  0  0  0  0  0
  187.3870  177.8560  143.5390 N   0  0  0  0  0  0  0  0  0  0  0  0
  188.1480  176.8440  143.8070 C   0  0  0  0  0  3  0  0  0  0  0  0
  185.5800  177.2030  144.9340 N   0  0  0  0  0  2  0  0  0  0  0  0
  185.6080  179.5000  144.2260 C   0  0  0  0  0  1  0  0  0  0  0  0
  186.1790  178.1290  144.2560 C   0  0  0  0  0  0  0  0  0  0  0  0
  194.4110  174.8720  143.8540 C   0  0  0  0  0  2  0  0  0  0  0  0
  194.9170  175.0670  142.4250 C   0  0  1  0  0  3  0  0  0  0  0  0
  194.1720  176.1920  141.7320 C   0  0  0  0  0  1  0  0  0  0  0  0
  196.3470  175.3320  142.4090 N   0  0  0  0  0  2  0  0  0  0  0  0
  196.5630  176.5680  143.1400 C   0  0  0  0  0  1  0  0  0  0  0  0
  1  2  1  0  0  0  0
  1  4  1  0  0  0  0
  2 13  1  0  0  0  0
  3  7  1  0  0  0  0
  3 13  1  0  0  0  0
  4 14  1  0  0  0  0
  4  5  1  0  0  0  0
  6  1  1  0  0  0  0
  6 22  1  0  0  0  0
  7 16  1  0  0  0  0
  7 15  1  0  0  0  0
  8  6  1  0  0  0  0
  8 20  1  0  0  0  0
  9 18  1  0  0  0  0
  9 10  1  0  0  0  0
 10  2  1  0  0  0  0
 11 18  1  0  0  0  0
 12 18  1  0  0  0  0
 13 19  1  0  0  0  0
 16 14  1  0  0  0  0
 17  4  1  0  0  0  0
 18  3  1  0  0  0  0
 20 17  1  0  0  0  0
 21 22  2  0  0  0  0
 21 25  1  0  0  0  0
 24 25  1  0  0  0  0
 25 23  2  0  0  0  0
 26 16  1  0  0  0  0
 27 26  1  0  0  0  0
 28 27  1  0  0  0  0
 29 27  1  0  0  0  0
 29 30  1  0  0  0  0
M  END
>  <MODEL>
1

>  <REMARK>
 VINA RESULT:      -6.4      0.000      0.000
  Name = 
  5 active torsions:
  status: ('A' for Active; 'I' for Inactive)
    1  A    between atoms: C_7  and  C_10
    2  A    between atoms: C_7  and  N_15
    3  A    between atoms: C_8  and  C_12
    4  A    between atoms: N_9  and  C_21
    5  A    between atoms: C_10  and  N_25
                            x       y       z     vdW  Elec       q    Type
                         _______ _______ _______ _____ _____    ______ ____

>  <TORSDO>
F 5

$$$$
=
 OpenBabel11052417093D

 30 32  0  0  1  0  0  0  0  0999 V2000
  189.9660  175.4270  144.4160 C   0  0  2  0  0  3  0  0  0  0  0  0
  189.3100  174.2830  143.5970 C   0  0  1  0  0  3  0  0  0  0  0  0
  191.4360  173.0310  142.9460 C   0  0  1  0  0  3  0  0  0  0  0  0
  190.4360  175.0710  145.8630 C   0  0  1  0  0  0  0  0  0  0  0  0
  189.3630  174.5760  146.6060 O   0  0  0  0  0  1  0  0  0  0  0  0
  189.1420  176.7370  144.3330 C   0  0  2  0  0  3  0  0  0  0  0  0
  192.6380  173.1200  143.9070 C   0  0  2  0  0  3  0  0  0  0  0  0
  189.7880  177.8880  145.0990 C   0  0  0  0  0  2  0  0  0  0  0  0
  190.0840  174.1520  141.1240 C   0  0  0  0  0  2  0  0  0  0  0  0
  189.0770  174.7240  142.1360 C   0  0  0  0  0  2  0  0  0  0  0  0
  192.3520  173.3110  140.6520 C   0  0  0  0  0  1  0  0  0  0  0  0
  192.0820  175.3370  142.0160 C   0  0  0  0  0  1  0  0  0  0  0  0
  190.0750  172.9560  143.6650 C   0  0  2  0  0  3  0  0  0  0  0  0
  191.5470  174.0170  145.8740 C   0  0  0  0  0  2  0  0  0  0  0  0
  192.8770  171.7800  144.6070 C   0  0  0  0  0  1  0  0  0  0  0  0
  192.5450  174.2680  144.8320 N   0  0  0  0  0  0  0  0  0  0  0  0
  191.0090  176.3050  146.5730 C   0  0  0  0  0  2  0  0  0  0  0  0
  191.4860  173.9670  141.7090 C   0  0  0  0  0  0  0  0  0  0  0  0
  189.3060  171.9230  143.1270 O   0  0  0  0  0  1  0  0  0  0  0  0
  190.0570  177.4910  146.5420 C   0  0  0  0  0  2  0  0  0  0  0  0
  186.9090  177.6130  144.8200 N   0  0  0  0  0  0  0  0  0  0  0  0
  187.6790  176.5870  144.6460 C   0  0  0  0  0  3  0  0  0  0  0  0
  184.6150  177.9620  144.3190 N   0  0  0  0  0  2  0  0  0  0  0  0
  185.0980  176.8180  146.3770 C   0  0  0  0  0  1  0  0  0  0  0  0
  185.5160  177.4950  145.1220 C   0  0  0  0  0  0  0  0  0  0  0  0
  193.8330  174.4590  145.4940 C   0  0  0  0  0  2  0  0  0  0  0  0
  194.5610  175.6930  144.9650 C   0  0  1  0  0  3  0  0  0  0  0  0
  194.5570  176.8100  145.9920 C   0  0  0  0  0  1  0  0  0  0  0  0
  195.9280  175.3720  144.5850 N   0  0  0  0  0  2  0  0  0  0  0  0
  196.3530  176.3760  143.6240 C   0  0  0  0  0  1  0  0  0  0  0  0
  1  4  1  0  0  0  0
  2 13  1  0  0  0  0
  2  1  1  0  0  0  0
  3 13  1  0  0  0  0
  3  7  1  0  0  0  0
  4 14  1  0  0  0  0
  4 17  1  0  0  0  0
  4  5  1  0  0  0  0
  6  1  1  0  0  0  0
  6 22  1  0  0  0  0
  6  8  1  0  0  0  0
  7 15  1  0  0  0  0
  7 16  1  0  0  0  0
  8 20  1  0  0  0  0
  9 18  1  0  0  0  0
  9 10  1  0  0  0  0
 10  2  1  0  0  0  0
 11 18  1  0  0  0  0
 16 26  1  0  0  0  0
 16 14  1  0  0  0  0
 18 12  1  0  0  0  0
 18  3  1  0  0  0  0
 19 13  1  0  0  0  0
 20 17  1  0  0  0  0
 21 25  1  0  0  0  0
 22 21  2  0  0  0  0
 23 25  2  0  0  0  0
 25 24  1  0  0  0  0
 27 26  1  0  0  0  0
 27 28  1  0  0  0  0
 29 27  1  0  0  0  0
 30 29  1  0  0  0  0
M  END
>  <MODEL>
2

>  <REMARK>
 VINA RESULT:      -6.3      1.561      1.919
  Name = 
  5 active torsions:
  status: ('A' for Active; 'I' for Inactive)
    1  A    between atoms: C_7  and  C_10
    2  A    between atoms: C_7  and  N_15
    3  A    between atoms: C_8  and  C_12
    4  A    between atoms: N_9  and  C_21
    5  A    between atoms: C_10  and  N_25
                            x       y       z     vdW  Elec       q    Type
                         _______ _______ _______ _____ _____    ______ ____

>  <TORSDO>
F 5

$$$$
=
 OpenBabel11052417093D

 30 32  0  0  1  0  0  0  0  0999 V2000
  190.2890  175.4460  143.6440 C   0  0  2  0  0  3  0  0  0  0  0  0
  189.4890  174.1530  143.9590 C   0  0  1  0  0  3  0  0  0  0  0  0
  191.3400  172.4570  143.5060 C   0  0  1  0  0  3  0  0  0  0  0  0
  191.2820  175.9400  144.7450 C   0  0  1  0  0  0  0  0  0  0  0  0
  190.6010  176.1400  145.9480 O   0  0  0  0  0  1  0  0  0  0  0  0
  189.3740  176.5640  143.0840 C   0  0  2  0  0  3  0  0  0  0  0  0
  192.7940  172.9090  143.7380 C   0  0  2  0  0  3  0  0  0  0  0  0
  190.1440  177.8330  142.7310 C   0  0  0  0  0  2  0  0  0  0  0  0
  189.3220  172.4850  141.9790 C   0  0  0  0  0  2  0  0  0  0  0  0
  188.7030  173.6840  142.7160 C   0  0  0  0  0  2  0  0  0  0  0  0
  191.3320  171.1990  141.3620 C   0  0  0  0  0  1  0  0  0  0  0  0
  191.3900  173.6520  141.2330 C   0  0  0  0  0  1  0  0  0  0  0  0
  190.3450  173.0210  144.5380 C   0  0  2  0  0  3  0  0  0  0  0  0
  192.4130  174.9390  145.0030 C   0  0  0  0  0  2  0  0  0  0  0  0
  193.3930  172.2170  144.9640 C   0  0  0  0  0  1  0  0  0  0  0  0
  192.9380  174.3790  143.7550 N   0  0  0  0  0  0  0  0  0  0  0  0
  191.9570  177.2520  144.3270 C   0  0  0  0  0  2  0  0  0  0  0  0
  190.8520  172.4700  142.0330 C   0  0  0  0  0  0  0  0  0  0  0  0
  189.5320  171.9980  145.0290 O   0  0  0  0  0  1  0  0  0  0  0  0
  190.9540  178.3220  143.9230 C   0  0  0  0  0  2  0  0  0  0  0  0
  187.5010  177.9660  143.8020 N   0  0  0  0  0  0  0  0  0  0  0  0
  188.1450  176.8470  143.9020 C   0  0  0  0  0  3  0  0  0  0  0  0
  185.7680  179.4220  144.5170 N   0  0  0  0  0  2  0  0  0  0  0  0
  185.7520  177.2060  145.4450 C   0  0  0  0  0  1  0  0  0  0  0  0
  186.3310  178.2590  144.5720 C   0  0  0  0  0  0  0  0  0  0  0  0
  194.3550  174.7260  143.6800 C   0  0  0  0  0  2  0  0  0  0  0  0
  194.8270  175.4440  144.9440 C   0  0  1  0  0  3  0  0  0  0  0  0
  195.8450  174.6090  145.6980 C   0  0  0  0  0  1  0  0  0  0  0  0
  195.3890  176.7480  144.6270 N   0  0  0  0  0  2  0  0  0  0  0  0
  196.3080  176.5600  143.5170 C   0  0  0  0  0  1  0  0  0  0  0  0
  1  2  1  0  0  0  0
  1  4  1  0  0  0  0
  2 13  1  0  0  0  0
  3  7  1  0  0  0  0
  3 13  1  0  0  0  0
  4 14  1  0  0  0  0
  4  5  1  0  0  0  0
  6  1  1  0  0  0  0
  6 22  1  0  0  0  0
  7 16  1  0  0  0  0
  7 15  1  0  0  0  0
  8  6  1  0  0  0  0
  8 20  1  0  0  0  0
  9 18  1  0  0  0  0
  9 10  1  0  0  0  0
 10  2  1  0  0  0  0
 11 18  1  0  0  0  0
 12 18  1  0  0  0  0
 13 19  1  0  0  0  0
 16 14  1  0  0  0  0
 17  4  1  0  0  0  0
 18  3  1  0  0  0  0
 20 17  1  0  0  0  0
 21 22  2  0  0  0  0
 21 25  1  0  0  0  0
 23 25  2  0  0  0  0
 25 24  1  0  0  0  0
 26 16  1  0  0  0  0
 26 27  1  0  0  0  0
 27 28  1  0  0  0  0
 29 27  1  0  0  0  0
 30 29  1  0  0  0  0
M  END
>  <MODEL>
3

>  <REMARK>
 VINA RESULT:      -6.3      0.896      1.268
  Name = 
  5 active torsions:
  status: ('A' for Active; 'I' for Inactive)
    1  A    between atoms: C_7  and  C_10
    2  A    between atoms: C_7  and  N_15
    3  A    between atoms: C_8  and  C_12
    4  A    between atoms: N_9  and  C_21
    5  A    between atoms: C_10  and  N_25
                            x       y       z     vdW  Elec       q    Type
                         _______ _______ _______ _____ _____    ______ ____

>  <TORSDO>
F 5

$$$$
=
 OpenBabel11052417093D

 30 32  0  0  1  0  0  0  0  0999 V2000
  189.3790  175.7020  144.7960 C   0  0  2  0  0  3  0  0  0  0  0  0
  190.2160  176.2830  143.6250 C   0  0  1  0  0  3  0  0  0  0  0  0
  188.2920  176.8570  142.0490 C   0  0  1  0  0  3  0  0  0  0  0  0
  188.6640  176.7350  145.7260 C   0  0  1  0  0  0  0  0  0  0  0  0
  189.6000  177.6190  146.2660 O   0  0  0  0  0  1  0  0  0  0  0  0
  190.1560  174.6040  145.5660 C   0  0  2  0  0  3  0  0  0  0  0  0
  186.9320  177.2080  142.6820 C   0  0  2  0  0  3  0  0  0  0  0  0
  189.3390  173.9910  146.7000 C   0  0  0  0  0  2  0  0  0  0  0  0
  189.9140  175.0370  141.3690 C   0  0  0  0  0  2  0  0  0  0  0  0
  190.6970  175.1550  142.6880 C   0  0  0  0  0  2  0  0  0  0  0  0
  187.8030  175.3480  140.1350 C   0  0  0  0  0  1  0  0  0  0  0  0
  187.7450  174.3700  142.3880 C   0  0  0  0  0  1  0  0  0  0  0  0
  189.4990  177.3910  142.8430 C   0  0  2  0  0  3  0  0  0  0  0  0
  187.6100  177.5590  144.9810 C   0  0  0  0  0  2  0  0  0  0  0  0
  186.6170  178.6960  142.5110 C   0  0  0  0  0  1  0  0  0  0  0  0
  186.8120  176.7300  144.0750 N   0  0  0  0  0  0  0  0  0  0  0  0
  187.9260  176.0270  146.8680 C   0  0  0  0  0  2  0  0  0  0  0  0
  188.4360  175.4080  141.5110 C   0  0  0  0  0  0  0  0  0  0  0  0
  190.3910  178.0340  141.9830 O   0  0  0  0  0  1  0  0  0  0  0  0
  188.8230  175.0710  147.6390 C   0  0  0  0  0  2  0  0  0  0  0  0
  192.5960  174.4220  145.5170 N   0  0  0  0  0  0  0  0  0  0  0  0
  191.5410  174.9960  146.0020 C   0  0  0  0  0  3  0  0  0  0  0  0
  194.9090  173.9510  145.7670 N   0  0  0  0  0  2  0  0  0  0  0  0
  194.1720  176.1130  146.5150 C   0  0  0  0  0  1  0  0  0  0  0  0
  193.9230  174.7750  145.9190 C   0  0  0  0  0  0  0  0  0  0  0  0
  185.4180  176.8310  144.5010 C   0  0  0  0  0  2  0  0  0  0  0  0
  185.1840  178.0620  145.3760 C   0  0  1  0  0  3  0  0  0  0  0  0
  184.1720  178.9980  144.7420 C   0  0  0  0  0  1  0  0  0  0  0  0
  184.7420  177.6800  146.7080 N   0  0  0  0  0  2  0  0  0  0  0  0
  185.3200  178.6320  147.6410 C   0  0  0  0  0  1  0  0  0  0  0  0
  1  6  1  0  0  0  0
  1  4  1  0  0  0  0
  2  1  1  0  0  0  0
  3  7  1  0  0  0  0
  3 13  1  0  0  0  0
  4  5  1  0  0  0  0
  4 17  1  0  0  0  0
  6 22  1  0  0  0  0
  6  8  1  0  0  0  0
  7 16  1  0  0  0  0
  8 20  1  0  0  0  0
  9 18  1  0  0  0  0
  9 10  1  0  0  0  0
 10  2  1  0  0  0  0
 11 18  1  0  0  0  0
 13  2  1  0  0  0  0
 14  4  1  0  0  0  0
 15  7  1  0  0  0  0
 16 26  1  0  0  0  0
 16 14  1  0  0  0  0
 17 20  1  0  0  0  0
 18  3  1  0  0  0  0
 18 12  1  0  0  0  0
 19 13  1  0  0  0  0
 21 25  1  0  0  0  0
 21 22  2  0  0  0  0
 23 25  2  0  0  0  0
 25 24  1  0  0  0  0
 26 27  1  0  0  0  0
 27 29  1  0  0  0  0
 28 27  1  0  0  0  0
 29 30  1  0  0  0  0
M  END
>  <MODEL>
4

>  <REMARK>
 VINA RESULT:      -6.0      2.559      6.978
  Name = 
  5 active torsions:
  status: ('A' for Active; 'I' for Inactive)
    1  A    between atoms: C_7  and  C_10
    2  A    between atoms: C_7  and  N_15
    3  A    between atoms: C_8  and  C_12
    4  A    between atoms: N_9  and  C_21
    5  A    between atoms: C_10  and  N_25
                            x       y       z     vdW  Elec       q    Type
                         _______ _______ _______ _____ _____    ______ ____

>  <TORSDO>
F 5

$$$$
=
 OpenBabel11052417093D

 30 32  0  0  1  0  0  0  0  0999 V2000
  187.0950  177.6340  144.7700 C   0  0  2  0  0  3  0  0  0  0  0  0
  187.2590  176.9310  143.3960 C   0  0  1  0  0  3  0  0  0  0  0  0
  189.5660  175.9110  143.7790 C   0  0  1  0  0  3  0  0  0  0  0  0
  186.7090  176.7240  145.9810 C   0  0  1  0  0  0  0  0  0  0  0  0
  185.5230  176.0410  145.7060 O   0  0  0  0  0  1  0  0  0  0  0  0
  186.2350  178.9190  144.6580 C   0  0  2  0  0  3  0  0  0  0  0  0
  189.9580  175.5570  145.2270 C   0  0  2  0  0  3  0  0  0  0  0  0
  186.0900  179.6490  145.9900 C   0  0  0  0  0  2  0  0  0  0  0  0
  189.3160  177.7190  142.0260 C   0  0  0  0  0  2  0  0  0  0  0  0
  187.8250  177.9120  142.3470 C   0  0  0  0  0  2  0  0  0  0  0  0
  191.5560  177.0010  142.7630 C   0  0  0  0  0  1  0  0  0  0  0  0
  190.1730  178.3580  144.2730 C   0  0  0  0  0  1  0  0  0  0  0  0
  188.0850  175.6400  143.4570 C   0  0  2  0  0  3  0  0  0  0  0  0
  187.7900  175.6870  146.2990 C   0  0  0  0  0  2  0  0  0  0  0  0
  190.0040  174.0400  145.4250 C   0  0  0  0  0  1  0  0  0  0  0  0
  189.1350  176.2640  146.2290 N   0  0  0  0  0  0  0  0  0  0  0  0
  186.5240  177.5560  147.2560 C   0  0  0  0  0  2  0  0  0  0  0  0
  190.1360  177.2470  143.2300 C   0  0  0  0  0  0  0  0  0  0  0  0
  187.9770  174.9380  142.2550 O   0  0  0  0  0  1  0  0  0  0  0  0
  185.5550  178.7130  147.0630 C   0  0  0  0  0  2  0  0  0  0  0  0
  184.8290  178.7350  142.6630 N   0  0  0  0  0  0  0  0  0  0  0  0
  184.9170  178.7400  143.9550 C   0  0  0  0  0  3  0  0  0  0  0  0
  182.4570  178.6660  142.5950 N   0  0  0  0  0  2  0  0  0  0  0  0
  183.5970  178.2910  140.5130 C   0  0  0  0  0  1  0  0  0  0  0  0
  183.5870  178.5700  141.9720 C   0  0  0  0  0  0  0  0  0  0  0  0
  189.7460  176.1140  147.5470 C   0  0  0  0  0  2  0  0  0  0  0  0
  191.0970  176.8240  147.6260 C   0  0  1  0  0  3  0  0  0  0  0  0
  191.1950  177.6730  148.8800 C   0  0  0  0  0  1  0  0  0  0  0  0
  192.1930  175.8690  147.5850 N   0  0  0  0  0  2  0  0  0  0  0  0
  193.2050  176.4140  146.6960 C   0  0  0  0  0  1  0  0  0  0  0  0
  1  4  1  0  0  0  0
  2 13  1  0  0  0  0
  2  1  1  0  0  0  0
  3  7  1  0  0  0  0
  4 14  1  0  0  0  0
  4 17  1  0  0  0  0
  5  4  1  0  0  0  0
  6  1  1  0  0  0  0
  6  8  1  0  0  0  0
  7 15  1  0  0  0  0
  7 16  1  0  0  0  0
  8 20  1  0  0  0  0
  9 10  1  0  0  0  0
  9 18  1  0  0  0  0
 10  2  1  0  0  0  0
 11 18  1  0  0  0  0
 13  3  1  0  0  0  0
 16 14  1  0  0  0  0
 16 26  1  0  0  0  0
 18  3  1  0  0  0  0
 18 12  1  0  0  0  0
 19 13  1  0  0  0  0
 20 17  1  0  0  0  0
 21 22  2  0  0  0  0
 22  6  1  0  0  0  0
 24 25  1  0  0  0  0
 25 23  2  0  0  0  0
 25 21  1  0  0  0  0
 26 27  1  0  0  0  0
 27 28  1  0  0  0  0
 29 27  1  0  0  0  0
 30 29  1  0  0  0  0
M  END
>  <MODEL>
5

>  <REMARK>
 VINA RESULT:      -6.0      3.183      4.999
  Name = 
  5 active torsions:
  status: ('A' for Active; 'I' for Inactive)
    1  A    between atoms: C_7  and  C_10
    2  A    between atoms: C_7  and  N_15
    3  A    between atoms: C_8  and  C_12
    4  A    between atoms: N_9  and  C_21
    5  A    between atoms: C_10  and  N_25
                            x       y       z     vdW  Elec       q    Type
                         _______ _______ _______ _____ _____    ______ ____

>  <TORSDO>
F 5

$$$$
=
 OpenBabel11052417093D

 30 32  0  0  1  0  0  0  0  0999 V2000
  192.3870  174.6570  144.2360 C   0  0  2  0  0  3  0  0  0  0  0  0
  192.3780  173.9450  142.8560 C   0  0  1  0  0  3  0  0  0  0  0  0
  189.8610  173.9930  142.4370 C   0  0  1  0  0  3  0  0  0  0  0  0
  192.2180  176.2110  144.2230 C   0  0  1  0  0  0  0  0  0  0  0  0
  193.2140  176.7920  143.4350 O   0  0  0  0  0  1  0  0  0  0  0  0
  193.5550  174.1640  145.1280 C   0  0  2  0  0  3  0  0  0  0  0  0
  189.0560  175.1480  143.0600 C   0  0  2  0  0  3  0  0  0  0  0  0
  193.5630  174.8220  146.5040 C   0  0  0  0  0  2  0  0  0  0  0  0
  190.9890  171.7550  142.7890 C   0  0  0  0  0  2  0  0  0  0  0  0
  192.3570  172.4120  143.0360 C   0  0  0  0  0  2  0  0  0  0  0  0
  188.5300  171.9270  142.8180 C   0  0  0  0  0  1  0  0  0  0  0  0
  189.8190  172.8080  144.7150 C   0  0  0  0  0  1  0  0  0  0  0  0
  191.2520  174.4140  141.9260 C   0  0  2  0  0  3  0  0  0  0  0  0
  190.8590  176.6460  143.6680 C   0  0  0  0  0  2  0  0  0  0  0  0
  188.5670  176.1180  141.9820 C   0  0  0  0  0  1  0  0  0  0  0  0
  189.7710  175.8060  144.1730 N   0  0  0  0  0  0  0  0  0  0  0  0
  192.3050  176.7840  145.6430 C   0  0  0  0  0  2  0  0  0  0  0  0
  189.8110  172.6420  143.2000 C   0  0  0  0  0  0  0  0  0  0  0  0
  191.4560  173.9280  140.6340 O   0  0  0  0  0  1  0  0  0  0  0  0
  193.5600  176.3380  146.3770 C   0  0  0  0  0  2  0  0  0  0  0  0
  195.9380  173.6200  145.0100 N   0  0  0  0  0  0  0  0  0  0  0  0
  194.9080  174.1890  144.4710 C   0  0  0  0  0  3  0  0  0  0  0  0
  197.9360  172.5510  144.3010 N   0  0  0  0  0  2  0  0  0  0  0  0
  197.7820  174.9130  143.8840 C   0  0  0  0  0  1  0  0  0  0  0  0
  197.2350  173.6340  144.4060 C   0  0  0  0  0  0  0  0  0  0  0  0
  188.8450  176.6750  144.8950 C   0  0  0  0  0  2  0  0  0  0  0  0
  188.1680  175.9400  146.0510 C   0  0  1  0  0  3  0  0  0  0  0  0
  189.1870  175.4760  147.0740 C   0  0  0  0  0  1  0  0  0  0  0  0
  187.1670  176.7800  146.6910 N   0  0  0  0  0  2  0  0  0  0  0  0
  186.8770  177.8720  145.7780 C   0  0  0  0  0  1  0  0  0  0  0  0
  1  6  1  0  0  0  0
  2 10  1  0  0  0  0
  2  1  1  0  0  0  0
  3  7  1  0  0  0  0
  3 18  1  0  0  0  0
  4  1  1  0  0  0  0
  4 17  1  0  0  0  0
  5  4  1  0  0  0  0
  6  8  1  0  0  0  0
  7 16  1  0  0  0  0
  9 10  1  0  0  0  0
  9 18  1  0  0  0  0
 11 18  1  0  0  0  0
 13  3  1  0  0  0  0
 13  2  1  0  0  0  0
 14 16  1  0  0  0  0
 14  4  1  0  0  0  0
 15  7  1  0  0  0  0
 16 26  1  0  0  0  0
 17 20  1  0  0  0  0
 18 12  1  0  0  0  0
 19 13  1  0  0  0  0
 20  8  1  0  0  0  0
 22 21  2  0  0  0  0
 22  6  1  0  0  0  0
 23 25  2  0  0  0  0
 24 25  1  0  0  0  0
 25 21  1  0  0  0  0
 26 27  1  0  0  0  0
 27 29  1  0  0  0  0
 27 28  1  0  0  0  0
 30 29  1  0  0  0  0
M  END
>  <MODEL>
6

>  <REMARK>
 VINA RESULT:      -5.8      2.210      6.524
  Name = 
  5 active torsions:
  status: ('A' for Active; 'I' for Inactive)
    1  A    between atoms: C_7  and  C_10
    2  A    between atoms: C_7  and  N_15
    3  A    between atoms: C_8  and  C_12
    4  A    between atoms: N_9  and  C_21
    5  A    between atoms: C_10  and  N_25
                            x       y       z     vdW  Elec       q    Type
                         _______ _______ _______ _____ _____    ______ ____

>  <TORSDO>
F 5

$$$$
=
 OpenBabel11052417093D

 30 32  0  0  1  0  0  0  0  0999 V2000
  189.9280  176.0040  144.0920 C   0  0  2  0  0  3  0  0  0  0  0  0
  190.1080  175.3330  145.4800 C   0  0  1  0  0  3  0  0  0  0  0  0
  192.4380  174.3570  145.1140 C   0  0  1  0  0  3  0  0  0  0  0  0
  190.6760  177.3580  143.8660 C   0  0  1  0  0  0  0  0  0  0  0  0
  190.2950  178.2820  144.8410 O   0  0  0  0  0  1  0  0  0  0  0  0
  188.4400  176.0350  143.6590 C   0  0  2  0  0  3  0  0  0  0  0  0
  193.3770  175.0970  144.1430 C   0  0  2  0  0  3  0  0  0  0  0  0
  188.2410  176.6560  142.2800 C   0  0  0  0  0  2  0  0  0  0  0  0
  190.4870  172.7680  145.3900 C   0  0  0  0  0  2  0  0  0  0  0  0
  189.4780  173.9240  145.4890 C   0  0  0  0  0  2  0  0  0  0  0  0
  192.6690  171.9350  144.6030 C   0  0  0  0  0  1  0  0  0  0  0  0
  191.2800  173.2820  143.0890 C   0  0  0  0  0  1  0  0  0  0  0  0
  191.5630  175.2970  145.9650 C   0  0  2  0  0  3  0  0  0  0  0  0
  192.1980  177.2020  143.9300 C   0  0  0  0  0  2  0  0  0  0  0  0
  194.5220  175.7740  144.8990 C   0  0  0  0  0  1  0  0  0  0  0  0
  192.6510  176.0000  143.2260 N   0  0  0  0  0  0  0  0  0  0  0  0
  190.3620  177.9340  142.4800 C   0  0  0  0  0  2  0  0  0  0  0  0
  191.7140  173.1100  144.5400 C   0  0  0  0  0  0  0  0  0  0  0  0
  191.6180  174.9190  147.3070 O   0  0  0  0  0  1  0  0  0  0  0  0
  188.8670  178.0410  142.2160 C   0  0  0  0  0  2  0  0  0  0  0  0
  186.2470  176.8190  144.4120 N   0  0  0  0  0  0  0  0  0  0  0  0
  187.4930  176.5950  144.6840 C   0  0  0  0  0  3  0  0  0  0  0  0
  185.1850  176.8110  146.5350 N   0  0  0  0  0  2  0  0  0  0  0  0
  184.5330  178.5600  145.0200 C   0  0  0  0  0  1  0  0  0  0  0  0
  185.3290  177.3550  145.3690 C   0  0  0  0  0  0  0  0  0  0  0  0
  193.5530  176.4300  142.1600 C   0  0  0  0  0  2  0  0  0  0  0  0
  194.2240  175.2400  141.4750 C   0  0  1  0  0  3  0  0  0  0  0  0
  193.2870  174.5860  140.4760 C   0  0  0  0  0  1  0  0  0  0  0  0
  195.4550  175.6430  140.8130 N   0  0  0  0  0  2  0  0  0  0  0  0
  195.9910  176.7710  141.5550 C   0  0  0  0  0  1  0  0  0  0  0  0
  1  2  1  0  0  0  0
  2 10  1  0  0  0  0
  2 13  1  0  0  0  0
  3 13  1  0  0  0  0
  4 14  1  0  0  0  0
  4  1  1  0  0  0  0
  4  5  1  0  0  0  0
  6  1  1  0  0  0  0
  6 22  1  0  0  0  0
  7 15  1  0  0  0  0
  7  3  1  0  0  0  0
  8  6  1  0  0  0  0
  9 10  1  0  0  0  0
 12 18  1  0  0  0  0
 13 19  1  0  0  0  0
 16 14  1  0  0  0  0
 16  7  1  0  0  0  0
 17  4  1  0  0  0  0
 18 11  1  0  0  0  0
 18  3  1  0  0  0  0
 18  9  1  0  0  0  0
 20  8  1  0  0  0  0
 20 17  1  0  0  0  0
 21 22  2  0  0  0  0
 21 25  1  0  0  0  0
 24 25  1  0  0  0  0
 25 23  2  0  0  0  0
 26 16  1  0  0  0  0
 27 26  1  0  0  0  0
 28 27  1  0  0  0  0
 29 27  1  0  0  0  0
 29 30  1  0  0  0  0
M  END
>  <MODEL>
7

>  <REMARK>
 VINA RESULT:      -5.8      1.642      2.353
  Name = 
  5 active torsions:
  status: ('A' for Active; 'I' for Inactive)
    1  A    between atoms: C_7  and  C_10
    2  A    between atoms: C_7  and  N_15
    3  A    between atoms: C_8  and  C_12
    4  A    between atoms: N_9  and  C_21
    5  A    between atoms: C_10  and  N_25
                            x       y       z     vdW  Elec       q    Type
                         _______ _______ _______ _____ _____    ______ ____

>  <TORSDO>
F 5

$$$$
=
 OpenBabel11052417093D

 30 32  0  0  1  0  0  0  0  0999 V2000
  190.6920  174.9330  144.5720 C   0  0  2  0  0  3  0  0  0  0  0  0
  190.4070  174.5440  146.0480 C   0  0  1  0  0  3  0  0  0  0  0  0
  188.8450  176.4730  146.6400 C   0  0  1  0  0  3  0  0  0  0  0  0
  189.5710  174.6050  143.5340 C   0  0  1  0  0  0  0  0  0  0  0  0
  189.2730  173.2410  143.5670 O   0  0  0  0  0  1  0  0  0  0  0  0
  192.1060  174.4860  144.1230 C   0  0  2  0  0  3  0  0  0  0  0  0
  188.0030  177.0840  145.5040 C   0  0  2  0  0  3  0  0  0  0  0  0
  192.4240  174.8910  142.6870 C   0  0  0  0  0  2  0  0  0  0  0  0
  191.0990  176.3440  147.7840 C   0  0  0  0  0  2  0  0  0  0  0  0
  191.5070  175.1000  146.9780 C   0  0  0  0  0  2  0  0  0  0  0  0
  189.7280  178.3850  147.9620 C   0  0  0  0  0  1  0  0  0  0  0  0
  190.8440  177.8700  145.8350 C   0  0  0  0  0  1  0  0  0  0  0  0
  189.0100  174.9450  146.5350 C   0  0  2  0  0  3  0  0  0  0  0  0
  188.2770  175.3790  143.8060 C   0  0  0  0  0  2  0  0  0  0  0  0
  186.5240  176.7310  145.6690 C   0  0  0  0  0  1  0  0  0  0  0  0
  188.5440  176.7740  144.1650 N   0  0  0  0  0  0  0  0  0  0  0  0
  190.0080  174.9880  142.1140 C   0  0  0  0  0  2  0  0  0  0  0  0
  190.1270  177.2570  147.0320 C   0  0  0  0  0  0  0  0  0  0  0  0
  188.7340  174.3470  147.7660 O   0  0  0  0  0  1  0  0  0  0  0  0
  191.3510  174.3840  141.7340 C   0  0  0  0  0  2  0  0  0  0  0  0
  193.6550  172.6280  144.4910 N   0  0  0  0  0  0  0  0  0  0  0  0
  192.4330  173.0450  144.4000 C   0  0  0  0  0  3  0  0  0  0  0  0
  194.5650  170.9110  145.8550 N   0  0  0  0  0  2  0  0  0  0  0  0
  193.6670  170.2270  143.7340 C   0  0  0  0  0  1  0  0  0  0  0  0
  193.9910  171.2620  144.7500 C   0  0  0  0  0  0  0  0  0  0  0  0
  187.8820  177.6160  143.1710 C   0  0  0  0  0  2  0  0  0  0  0  0
  186.9490  176.8040  142.2750 C   0  0  1  0  0  3  0  0  0  0  0  0
  185.5100  177.2570  142.4330 C   0  0  0  0  0  1  0  0  0  0  0  0
  187.3500  176.8970  140.8800 N   0  0  0  0  0  2  0  0  0  0  0  0
  186.2930  177.6020  140.1760 C   0  0  0  0  0  1  0  0  0  0  0  0
  1  2  1  0  0  0  0
  2 13  1  0  0  0  0
  2 10  1  0  0  0  0
  3 18  1  0  0  0  0
  4  5  1  0  0  0  0
  4 14  1  0  0  0  0
  4  1  1  0  0  0  0
  6 22  1  0  0  0  0
  6  1  1  0  0  0  0
  7 15  1  0  0  0  0
  7  3  1  0  0  0  0
  8  6  1  0  0  0  0
 10  9  1  0  0  0  0
 12 18  1  0  0  0  0
 13  3  1  0  0  0  0
 13 19  1  0  0  0  0
 14 16  1  0  0  0  0
 16  7  1  0  0  0  0
 17  4  1  0  0  0  0
 18  9  1  0  0  0  0
 18 11  1  0  0  0  0
 20 17  1  0  0  0  0
 20  8  1  0  0  0  0
 21 25  1  0  0  0  0
 22 21  2  0  0  0  0
 24 25  1  0  0  0  0
 25 23  2  0  0  0  0
 26 16  1  0  0  0  0
 27 28  1  0  0  0  0
 27 26  1  0  0  0  0
 29 27  1  0  0  0  0
 30 29  1  0  0  0  0
M  END
>  <MODEL>
8

>  <REMARK>
 VINA RESULT:      -5.7      2.353      6.923
  Name = 
  5 active torsions:
  status: ('A' for Active; 'I' for Inactive)
    1  A    between atoms: C_7  and  C_10
    2  A    between atoms: C_7  and  N_15
    3  A    between atoms: C_8  and  C_12
    4  A    between atoms: N_9  and  C_21
    5  A    between atoms: C_10  and  N_25
                            x       y       z     vdW  Elec       q    Type
                         _______ _______ _______ _____ _____    ______ ____

>  <TORSDO>
F 5

$$$$
=
 OpenBabel11052417093D

 30 32  0  0  1  0  0  0  0  0999 V2000
  189.3120  174.6490  142.7840 C   0  0  2  0  0  3  0  0  0  0  0  0
  188.5240  175.7950  142.0950 C   0  0  1  0  0  3  0  0  0  0  0  0
  188.9250  177.6150  143.8380 C   0  0  1  0  0  3  0  0  0  0  0  0
  190.8690  174.6980  142.6630 C   0  0  1  0  0  0  0  0  0  0  0  0
  191.2430  174.7250  141.3180 O   0  0  0  0  0  1  0  0  0  0  0  0
  188.7060  173.2600  142.4590 C   0  0  2  0  0  3  0  0  0  0  0  0
  190.2260  177.5420  144.6590 C   0  0  2  0  0  3  0  0  0  0  0  0
  189.4400  172.1190  143.1570 C   0  0  0  0  0  2  0  0  0  0  0  0
  186.5690  176.7530  143.5050 C   0  0  0  0  0  2  0  0  0  0  0  0
  187.0260  175.7220  142.4600 C   0  0  0  0  0  2  0  0  0  0  0  0
  187.1120  178.1720  145.4450 C   0  0  0  0  0  1  0  0  0  0  0  0
  187.9060  175.8480  145.3980 C   0  0  0  0  0  1  0  0  0  0  0  0
  189.0980  177.1910  142.3670 C   0  0  2  0  0  3  0  0  0  0  0  0
  191.4690  175.9310  143.3470 C   0  0  0  0  0  2  0  0  0  0  0  0
  191.1880  178.6630  144.2600 C   0  0  0  0  0  1  0  0  0  0  0  0
  190.8360  176.1970  144.6400 N   0  0  0  0  0  0  0  0  0  0  0  0
  191.5120  173.4800  143.3380 C   0  0  0  0  0  2  0  0  0  0  0  0
  187.6480  177.0810  144.5400 C   0  0  0  0  0  0  0  0  0  0  0  0
  188.5060  178.1320  141.5230 O   0  0  0  0  0  1  0  0  0  0  0  0
  190.9280  172.1640  142.8440 C   0  0  0  0  0  2  0  0  0  0  0  0
  189.3230  172.2960  140.2960 N   0  0  0  0  0  0  0  0  0  0  0  0
  188.4850  172.9920  140.9960 C   0  0  0  0  0  3  0  0  0  0  0  0
  188.4990  172.8630  138.1430 N   0  0  0  0  0  2  0  0  0  0  0  0
  189.6880  170.7820  138.3190 C   0  0  0  0  0  1  0  0  0  0  0  0
  189.1350  172.0310  138.9030 C   0  0  0  0  0  0  0  0  0  0  0  0
  191.8790  176.1270  145.6610 C   0  0  0  0  0  2  0  0  0  0  0  0
  193.2690  175.9910  145.0400 C   0  0  1  0  0  3  0  0  0  0  0  0
  194.1600  177.1520  145.4380 C   0  0  0  0  0  1  0  0  0  0  0  0
  193.8910  174.7320  145.4190 N   0  0  0  0  0  2  0  0  0  0  0  0
  195.1080  175.0570  146.1430 C   0  0  0  0  0  1  0  0  0  0  0  0
  2 13  1  0  0  0  0
  2 10  1  0  0  0  0
  2  1  1  0  0  0  0
  3 18  1  0  0  0  0
  3  7  1  0  0  0  0
  4  1  1  0  0  0  0
  4 17  1  0  0  0  0
  4 14  1  0  0  0  0
  5  4  1  0  0  0  0
  6  1  1  0  0  0  0
  6  8  1  0  0  0  0
  9 18  1  0  0  0  0
 10  9  1  0  0  0  0
 13  3  1  0  0  0  0
 14 16  1  0  0  0  0
 15  7  1  0  0  0  0
 16  7  1  0  0  0  0
 16 26  1  0  0  0  0
 18 12  1  0  0  0  0
 18 11  1  0  0  0  0
 19 13  1  0  0  0  0
 20  8  1  0  0  0  0
 20 17  1  0  0  0  0
 21 22  2  0  0  0  0
 22  6  1  0  0  0  0
 23 25  2  0  0  0  0
 24 25  1  0  0  0  0
 25 21  1  0  0  0  0
 27 29  1  0  0  0  0
 27 28  1  0  0  0  0
 27 26  1  0  0  0  0
 29 30  1  0  0  0  0
M  END
>  <MODEL>
9

>  <REMARK>
 VINA RESULT:      -5.7      2.694      5.590
  Name = 
  5 active torsions:
  status: ('A' for Active; 'I' for Inactive)
    1  A    between atoms: C_7  and  C_10
    2  A    between atoms: C_7  and  N_15
    3  A    between atoms: C_8  and  C_12
    4  A    between atoms: N_9  and  C_21
    5  A    between atoms: C_10  and  N_25
                            x       y       z     vdW  Elec       q    Type
                         _______ _______ _______ _____ _____    ______ ____

>  <TORSDO>
F 5

$$$$
