=
 OpenBabel11052418263D

 27 31  0  0  1  0  0  0  0  0999 V2000
  188.7590  176.8630  145.8960 N   0  0  0  0  0  2  0  0  0  0  0  0
  188.2690  176.2720  143.6040 C   0  0  0  0  0  0  0  0  0  0  0  0
  190.7150  176.4610  143.6430 O   0  0  0  0  0  0  0  0  0  0  0  0
  188.5640  173.4030  140.5420 C   0  0  0  0  0  3  0  0  0  0  0  0
  189.9100  172.1010  139.0230 O   0  0  0  0  0  1  0  0  0  0  0  0
  187.1180  175.6640  143.0750 C   0  0  0  0  0  3  0  0  0  0  0  0
  190.8860  174.5780  141.5770 C   0  0  0  0  0  3  0  0  0  0  0  0
  192.9110  176.4600  146.5970 C   0  0  0  0  0  0  0  0  0  0  0  0
  190.9760  173.6290  140.5550 C   0  0  0  0  0  3  0  0  0  0  0  0
  194.2720  176.3900  146.8530 O   0  0  0  0  0  1  0  0  0  0  0  0
  189.6360  174.9510  142.0910 C   0  0  0  0  0  0  0  0  0  0  0  0
  188.1790  177.3380  144.6540 C   0  0  1  0  0  3  0  0  0  0  0  0
  189.8160  173.0430  140.0380 C   0  0  0  0  0  0  0  0  0  0  0  0
  188.4670  174.3530  141.5640 C   0  0  0  0  0  0  0  0  0  0  0  0
  190.1590  176.6360  146.0770 C   0  0  0  0  0  0  0  0  0  0  0  0
  189.5380  175.8950  143.1290 C   0  0  0  0  0  0  0  0  0  0  0  0
  192.4480  176.4770  145.2810 C   0  0  0  0  0  3  0  0  0  0  0  0
  187.2170  174.7080  142.0640 C   0  0  0  0  0  3  0  0  0  0  0  0
  192.0030  176.5050  147.6530 C   0  0  0  0  0  3  0  0  0  0  0  0
  190.6360  176.5980  147.3920 C   0  0  0  0  0  3  0  0  0  0  0  0
  191.0770  176.5390  144.9980 C   0  0  0  0  0  0  0  0  0  0  0  0
  184.2370  178.9080  145.3760 C   0  0  0  0  0  3  0  0  0  0  0  0
  186.7990  177.8860  144.8820 C   0  0  0  0  0  0  0  0  0  0  0  0
  186.0300  177.3790  145.9370 C   0  0  0  0  0  3  0  0  0  0  0  0
  184.7520  177.8880  146.1820 C   0  0  0  0  0  3  0  0  0  0  0  0
  185.0030  179.4210  144.3250 C   0  0  0  0  0  3  0  0  0  0  0  0
  186.2810  178.9140  144.0780 C   0  0  0  0  0  3  0  0  0  0  0  0
  1 15  1  0  0  0  0
  2 12  1  0  0  0  0
  3 21  1  0  0  0  0
  4 14  1  0  0  0  0
  5 13  1  0  0  0  0
  6  2  2  0  0  0  0
  7 11  1  0  0  0  0
  8 10  1  0  0  0  0
  8 19  1  0  0  0  0
  9  7  2  0  0  0  0
 11 16  2  0  0  0  0
 12 23  1  1  0  0  0
 12  1  1  0  0  0  0
 13  4  2  0  0  0  0
 13  9  1  0  0  0  0
 14 18  2  0  0  0  0
 14 11  1  0  0  0  0
 15 20  1  0  0  0  0
 16  2  1  0  0  0  0
 16  3  1  0  0  0  0
 17  8  2  0  0  0  0
 18  6  1  0  0  0  0
 20 19  2  0  0  0  0
 21 17  1  0  0  0  0
 21 15  2  0  0  0  0
 22 25  1  0  0  0  0
 23 24  1  0  0  0  0
 24 25  2  0  0  0  0
 26 22  2  0  0  0  0
 27 26  1  0  0  0  0
 27 23  2  0  0  0  0
M  END
>  <MODEL>
1

>  <REMARK>
 VINA RESULT:      -8.5      0.000      0.000
  Name = 
  1 active torsions:
  status: ('A' for Active; 'I' for Inactive)
    1  A    between atoms: C_9  and  C_15
                            x       y       z     vdW  Elec       q    Type
                         _______ _______ _______ _____ _____    ______ ____

>  <TORSDO>
F 1

$$$$
=
 OpenBabel11052418263D

 27 31  0  0  1  0  0  0  0  0999 V2000
  190.6570  174.5000  143.3810 N   0  0  0  0  0  2  0  0  0  0  0  0
  189.5630  176.3900  144.4190 C   0  0  0  0  0  0  0  0  0  0  0  0
  188.5390  176.2780  142.1920 O   0  0  0  0  0  0  0  0  0  0  0  0
  186.0020  178.0220  145.9490 C   0  0  0  0  0  3  0  0  0  0  0  0
  183.7470  178.8060  145.6060 O   0  0  0  0  0  1  0  0  0  0  0  0
  189.4430  176.7010  145.7840 C   0  0  0  0  0  3  0  0  0  0  0  0
  186.1900  177.4020  143.2240 C   0  0  0  0  0  3  0  0  0  0  0  0
  188.5880  173.4410  139.8480 C   0  0  0  0  0  0  0  0  0  0  0  0
  185.0130  177.9510  143.7390 C   0  0  0  0  0  3  0  0  0  0  0  0
  187.9680  173.0940  138.6560 O   0  0  0  0  0  1  0  0  0  0  0  0
  187.2860  177.1590  144.0650 C   0  0  0  0  0  0  0  0  0  0  0  0
  190.8440  175.8620  143.8450 C   0  0  1  0  0  3  0  0  0  0  0  0
  184.9190  178.2610  145.0990 C   0  0  0  0  0  0  0  0  0  0  0  0
  187.1840  177.4740  145.4410 C   0  0  0  0  0  0  0  0  0  0  0  0
  189.8670  174.1570  142.2410 C   0  0  0  0  0  0  0  0  0  0  0  0
  188.4710  176.5940  143.5580 C   0  0  0  0  0  0  0  0  0  0  0  0
  188.3280  174.6790  140.4350 C   0  0  0  0  0  3  0  0  0  0  0  0
  188.2600  177.2360  146.2920 C   0  0  0  0  0  3  0  0  0  0  0  0
  189.4640  172.5490  140.4640 C   0  0  0  0  0  3  0  0  0  0  0  0
  190.1020  172.9100  141.6510 C   0  0  0  0  0  3  0  0  0  0  0  0
  188.9360  175.0480  141.6420 C   0  0  0  0  0  0  0  0  0  0  0  0
  194.2640  176.0710  146.4510 C   0  0  0  0  0  3  0  0  0  0  0  0
  192.0330  175.9580  144.7600 C   0  0  0  0  0  0  0  0  0  0  0  0
  192.2920  174.9120  145.6530 C   0  0  0  0  0  3  0  0  0  0  0  0
  193.4040  174.9690  146.4980 C   0  0  0  0  0  3  0  0  0  0  0  0
  194.0120  177.1160  145.5560 C   0  0  0  0  0  3  0  0  0  0  0  0
  192.9010  177.0600  144.7110 C   0  0  0  0  0  3  0  0  0  0  0  0
  1 12  1  0  0  0  0
  2  6  1  0  0  0  0
  3 16  1  0  0  0  0
  6 18  2  0  0  0  0
  7  9  2  0  0  0  0
  7 11  1  0  0  0  0
  8 17  2  0  0  0  0
  8 19  1  0  0  0  0
  9 13  1  0  0  0  0
 10  8  1  0  0  0  0
 11 14  2  0  0  0  0
 12  2  1  0  0  0  0
 12 23  1  1  0  0  0
 13  5  1  0  0  0  0
 13  4  2  0  0  0  0
 14  4  1  0  0  0  0
 14 18  1  0  0  0  0
 15  1  1  0  0  0  0
 16 11  1  0  0  0  0
 16  2  2  0  0  0  0
 17 21  1  0  0  0  0
 19 20  2  0  0  0  0
 20 15  1  0  0  0  0
 21  3  1  0  0  0  0
 21 15  2  0  0  0  0
 22 25  1  0  0  0  0
 23 24  1  0  0  0  0
 24 25  2  0  0  0  0
 26 22  2  0  0  0  0
 27 23  2  0  0  0  0
 27 26  1  0  0  0  0
M  END
>  <MODEL>
2

>  <REMARK>
 VINA RESULT:      -8.5      2.108      6.868
  Name = 
  1 active torsions:
  status: ('A' for Active; 'I' for Inactive)
    1  A    between atoms: C_9  and  C_15
                            x       y       z     vdW  Elec       q    Type
                         _______ _______ _______ _____ _____    ______ ____

>  <TORSDO>
F 1

$$$$
=
 OpenBabel11052418263D

 27 31  0  0  1  0  0  0  0  0999 V2000
  187.2860  176.6460  142.6300 N   0  0  0  0  0  2  0  0  0  0  0  0
  188.6150  176.4110  144.6360 C   0  0  0  0  0  0  0  0  0  0  0  0
  189.2470  174.4590  143.2900 O   0  0  0  0  0  0  0  0  0  0  0  0
  192.4470  176.4250  146.3690 C   0  0  0  0  0  3  0  0  0  0  0  0
  194.6430  175.4530  146.5910 O   0  0  0  0  0  1  0  0  0  0  0  0
  188.9750  177.3900  145.5770 C   0  0  0  0  0  3  0  0  0  0  0  0
  191.7790  174.4630  144.4860 C   0  0  0  0  0  3  0  0  0  0  0  0
  188.6880  173.9510  139.6870 C   0  0  0  0  0  0  0  0  0  0  0  0
  193.0480  174.4700  145.0710 C   0  0  0  0  0  3  0  0  0  0  0  0
  189.0850  173.0470  138.7130 O   0  0  0  0  0  1  0  0  0  0  0  0
  190.8310  175.4350  144.8370 C   0  0  0  0  0  0  0  0  0  0  0  0
  187.2360  176.3560  144.0510 C   0  0  1  0  0  3  0  0  0  0  0  0
  193.3810  175.4500  146.0120 C   0  0  0  0  0  0  0  0  0  0  0  0
  191.1750  176.4240  145.7890 C   0  0  0  0  0  0  0  0  0  0  0  0
  187.8590  175.7620  141.6650 C   0  0  0  0  0  0  0  0  0  0  0  0
  189.5560  175.4430  144.2420 C   0  0  0  0  0  0  0  0  0  0  0  0
  189.0930  173.7750  141.0110 C   0  0  0  0  0  3  0  0  0  0  0  0
  190.2480  177.3990  146.1460 C   0  0  0  0  0  3  0  0  0  0  0  0
  187.8920  175.0430  139.3440 C   0  0  0  0  0  3  0  0  0  0  0  0
  187.4770  175.9380  140.3300 C   0  0  0  0  0  3  0  0  0  0  0  0
  188.7120  174.6800  142.0100 C   0  0  0  0  0  0  0  0  0  0  0  0
  184.3060  178.8630  145.9630 C   0  0  0  0  0  3  0  0  0  0  0  0
  186.2220  177.2250  144.7400 C   0  0  0  0  0  0  0  0  0  0  0  0
  185.9440  178.4940  144.2180 C   0  0  0  0  0  3  0  0  0  0  0  0
  184.9900  179.3120  144.8290 C   0  0  0  0  0  3  0  0  0  0  0  0
  184.5750  177.5950  146.4850 C   0  0  0  0  0  3  0  0  0  0  0  0
  185.5290  176.7750  145.8760 C   0  0  0  0  0  3  0  0  0  0  0  0
  1 12  1  0  0  0  0
  2  6  1  0  0  0  0
  3 16  1  0  0  0  0
  6 18  2  0  0  0  0
  7 11  2  0  0  0  0
  7  9  1  0  0  0  0
  8 17  1  0  0  0  0
  9 13  2  0  0  0  0
 10  8  1  0  0  0  0
 11 14  1  0  0  0  0
 12  2  1  0  0  0  0
 12 23  1  1  0  0  0
 13  4  1  0  0  0  0
 13  5  1  0  0  0  0
 14 18  1  0  0  0  0
 14  4  2  0  0  0  0
 15 21  1  0  0  0  0
 15  1  1  0  0  0  0
 16  2  2  0  0  0  0
 16 11  1  0  0  0  0
 17 21  2  0  0  0  0
 19  8  2  0  0  0  0
 19 20  1  0  0  0  0
 20 15  2  0  0  0  0
 21  3  1  0  0  0  0
 22 26  1  0  0  0  0
 23 27  1  0  0  0  0
 24 23  2  0  0  0  0
 24 25  1  0  0  0  0
 25 22  2  0  0  0  0
 27 26  2  0  0  0  0
M  END
>  <MODEL>
3

>  <REMARK>
 VINA RESULT:      -8.4      1.447      5.365
  Name = 
  1 active torsions:
  status: ('A' for Active; 'I' for Inactive)
    1  A    between atoms: C_9  and  C_15
                            x       y       z     vdW  Elec       q    Type
                         _______ _______ _______ _____ _____    ______ ____

>  <TORSDO>
F 1

$$$$
=
 OpenBabel11052418263D

 27 31  0  0  1  0  0  0  0  0999 V2000
  187.6150  176.3140  142.3080 N   0  0  0  0  0  2  0  0  0  0  0  0
  188.8760  176.3050  144.3720 C   0  0  0  0  0  0  0  0  0  0  0  0
  189.4670  174.1670  143.3230 O   0  0  0  0  0  0  0  0  0  0  0  0
  192.6530  176.4150  146.2180 C   0  0  0  0  0  3  0  0  0  0  0  0
  194.8000  175.4040  146.6430 O   0  0  0  0  0  1  0  0  0  0  0  0
  189.2470  177.3890  145.1850 C   0  0  0  0  0  3  0  0  0  0  0  0
  191.9610  174.2420  144.5930 C   0  0  0  0  0  3  0  0  0  0  0  0
  188.9930  173.1970  139.8040 C   0  0  0  0  0  0  0  0  0  0  0  0
  193.2120  174.2830  145.2150 C   0  0  0  0  0  3  0  0  0  0  0  0
  189.3810  172.1550  138.9740 O   0  0  0  0  0  1  0  0  0  0  0  0
  191.0430  175.2860  144.7780 C   0  0  0  0  0  0  0  0  0  0  0  0
  187.5130  176.2210  143.7530 C   0  0  1  0  0  3  0  0  0  0  0  0
  193.5570  175.3680  146.0270 C   0  0  0  0  0  0  0  0  0  0  0  0
  191.3990  176.3810  145.6000 C   0  0  0  0  0  0  0  0  0  0  0  0
  188.1800  175.2870  141.4900 C   0  0  0  0  0  0  0  0  0  0  0  0
  189.7870  175.2590  144.1440 C   0  0  0  0  0  0  0  0  0  0  0  0
  189.3520  173.1870  141.1520 C   0  0  0  0  0  3  0  0  0  0  0  0
  190.5020  177.4280  145.7910 C   0  0  0  0  0  3  0  0  0  0  0  0
  188.2510  174.2590  139.2900 C   0  0  0  0  0  3  0  0  0  0  0  0
  187.8450  175.2940  140.1320 C   0  0  0  0  0  3  0  0  0  0  0  0
  188.9790  174.2320  142.0070 C   0  0  0  0  0  0  0  0  0  0  0  0
  184.6760  179.0430  145.3390 C   0  0  0  0  0  3  0  0  0  0  0  0
  186.5150  177.2110  144.2840 C   0  0  0  0  0  0  0  0  0  0  0  0
  185.7480  176.8720  145.4050 C   0  0  0  0  0  3  0  0  0  0  0  0
  184.8290  177.7850  145.9300 C   0  0  0  0  0  3  0  0  0  0  0  0
  185.4430  179.3880  144.2230 C   0  0  0  0  0  3  0  0  0  0  0  0
  186.3620  178.4770  143.6970 C   0  0  0  0  0  3  0  0  0  0  0  0
  1 12  1  0  0  0  0
  2  6  1  0  0  0  0
  3 16  1  0  0  0  0
  6 18  2  0  0  0  0
  7 11  2  0  0  0  0
  7  9  1  0  0  0  0
  8 17  1  0  0  0  0
  9 13  2  0  0  0  0
 10  8  1  0  0  0  0
 11 14  1  0  0  0  0
 12 23  1  1  0  0  0
 12  2  1  0  0  0  0
 13  4  1  0  0  0  0
 13  5  1  0  0  0  0
 14 18  1  0  0  0  0
 14  4  2  0  0  0  0
 15 21  1  0  0  0  0
 15  1  1  0  0  0  0
 16  2  2  0  0  0  0
 16 11  1  0  0  0  0
 17 21  2  0  0  0  0
 19  8  2  0  0  0  0
 19 20  1  0  0  0  0
 20 15  2  0  0  0  0
 21  3  1  0  0  0  0
 22 25  1  0  0  0  0
 23 24  1  0  0  0  0
 24 25  2  0  0  0  0
 26 22  2  0  0  0  0
 27 26  1  0  0  0  0
 27 23  2  0  0  0  0
M  END
>  <MODEL>
4

>  <REMARK>
 VINA RESULT:      -8.3      1.427      5.323
  Name = 
  1 active torsions:
  status: ('A' for Active; 'I' for Inactive)
    1  A    between atoms: C_9  and  C_15
                            x       y       z     vdW  Elec       q    Type
                         _______ _______ _______ _____ _____    ______ ____

>  <TORSDO>
F 1

$$$$
=
 OpenBabel11052418263D

 27 31  0  0  1  0  0  0  0  0999 V2000
  186.9660  176.9340  142.3290 N   0  0  0  0  0  2  0  0  0  0  0  0
  188.3780  176.5280  144.2500 C   0  0  0  0  0  0  0  0  0  0  0  0
  188.9590  174.7100  142.7090 O   0  0  0  0  0  0  0  0  0  0  0  0
  192.2770  176.4120  145.8200 C   0  0  0  0  0  3  0  0  0  0  0  0
  194.4830  175.4380  145.8640 O   0  0  0  0  0  1  0  0  0  0  0  0
  188.7730  177.4210  145.2610 C   0  0  0  0  0  3  0  0  0  0  0  0
  191.5380  174.6230  143.7960 C   0  0  0  0  0  3  0  0  0  0  0  0
  188.2550  174.5250  139.1010 C   0  0  0  0  0  0  0  0  0  0  0  0
  192.8300  174.5860  144.3280 C   0  0  0  0  0  3  0  0  0  0  0  0
  188.6140  173.7140  138.0340 O   0  0  0  0  0  1  0  0  0  0  0  0
  190.6020  175.5530  144.2720 C   0  0  0  0  0  0  0  0  0  0  0  0
  186.9760  176.5170  143.7190 C   0  0  1  0  0  3  0  0  0  0  0  0
  193.1990  175.4790  145.3390 C   0  0  0  0  0  0  0  0  0  0  0  0
  190.9830  176.4540  145.2950 C   0  0  0  0  0  0  0  0  0  0  0  0
  187.5020  176.1450  141.2660 C   0  0  0  0  0  0  0  0  0  0  0  0
  189.3040  175.6060  143.7330 C   0  0  0  0  0  0  0  0  0  0  0  0
  188.7140  174.2330  140.3850 C   0  0  0  0  0  3  0  0  0  0  0  0
  190.0670  177.3860  145.7760 C   0  0  0  0  0  3  0  0  0  0  0  0
  187.4410  175.6370  138.8900 C   0  0  0  0  0  3  0  0  0  0  0  0
  187.0650  176.4370  139.9690 C   0  0  0  0  0  3  0  0  0  0  0  0
  188.3720  175.0410  141.4770 C   0  0  0  0  0  0  0  0  0  0  0  0
  184.1830  178.7830  146.0840 C   0  0  0  0  0  3  0  0  0  0  0  0
  185.9880  177.3130  144.5250 C   0  0  0  0  0  0  0  0  0  0  0  0
  185.5220  176.7940  145.7390 C   0  0  0  0  0  3  0  0  0  0  0  0
  184.6200  177.5260  146.5160 C   0  0  0  0  0  3  0  0  0  0  0  0
  184.6500  179.3080  144.8760 C   0  0  0  0  0  3  0  0  0  0  0  0
  185.5510  178.5770  144.0980 C   0  0  0  0  0  3  0  0  0  0  0  0
  1 12  1  0  0  0  0
  2  6  1  0  0  0  0
  3 16  1  0  0  0  0
  6 18  2  0  0  0  0
  7 11  2  0  0  0  0
  7  9  1  0  0  0  0
  8 17  1  0  0  0  0
  9 13  2  0  0  0  0
 10  8  1  0  0  0  0
 11 14  1  0  0  0  0
 12  2  1  0  0  0  0
 12 23  1  1  0  0  0
 13  4  1  0  0  0  0
 13  5  1  0  0  0  0
 14 18  1  0  0  0  0
 14  4  2  0  0  0  0
 15 21  1  0  0  0  0
 15  1  1  0  0  0  0
 16  2  2  0  0  0  0
 16 11  1  0  0  0  0
 17 21  2  0  0  0  0
 19  8  2  0  0  0  0
 19 20  1  0  0  0  0
 20 15  2  0  0  0  0
 21  3  1  0  0  0  0
 22 25  1  0  0  0  0
 23 24  1  0  0  0  0
 24 25  2  0  0  0  0
 26 22  2  0  0  0  0
 27 23  2  0  0  0  0
 27 26  1  0  0  0  0
M  END
>  <MODEL>
5

>  <REMARK>
 VINA RESULT:      -8.2      1.665      5.306
  Name = 
  1 active torsions:
  status: ('A' for Active; 'I' for Inactive)
    1  A    between atoms: C_9  and  C_15
                            x       y       z     vdW  Elec       q    Type
                         _______ _______ _______ _____ _____    ______ ____

>  <TORSDO>
F 1

$$$$
=
 OpenBabel11052418263D

 27 31  0  0  1  0  0  0  0  0999 V2000
  189.7090  176.7150  145.4130 N   0  0  0  0  0  2  0  0  0  0  0  0
  188.8170  176.0390  143.2700 C   0  0  0  0  0  0  0  0  0  0  0  0
  191.2420  176.0850  142.8990 O   0  0  0  0  0  0  0  0  0  0  0  0
  188.4570  173.0070  140.3780 C   0  0  0  0  0  3  0  0  0  0  0  0
  189.4650  171.5520  138.7400 O   0  0  0  0  0  1  0  0  0  0  0  0
  187.5650  175.4740  142.9730 C   0  0  0  0  0  3  0  0  0  0  0  0
  190.9740  174.0930  140.9490 C   0  0  0  0  0  3  0  0  0  0  0  0
  193.8940  176.1040  145.4510 C   0  0  0  0  0  0  0  0  0  0  0  0
  190.8450  173.0910  139.9840 C   0  0  0  0  0  3  0  0  0  0  0  0
  195.2740  175.9660  145.4860 O   0  0  0  0  0  1  0  0  0  0  0  0
  189.8460  174.5650  141.6370 C   0  0  0  0  0  0  0  0  0  0  0  0
  188.9560  177.1600  144.2560 C   0  0  1  0  0  3  0  0  0  0  0  0
  189.5880  172.5490  139.6990 C   0  0  0  0  0  0  0  0  0  0  0  0
  188.5770  174.0110  141.3430 C   0  0  0  0  0  0  0  0  0  0  0  0
  191.1060  176.4150  145.3770 C   0  0  0  0  0  0  0  0  0  0  0  0
  189.9690  175.5650  142.6190 C   0  0  0  0  0  0  0  0  0  0  0  0
  193.2210  176.0810  144.2300 C   0  0  0  0  0  3  0  0  0  0  0  0
  187.4470  174.4640  142.0190 C   0  0  0  0  0  3  0  0  0  0  0  0
  193.1780  176.2550  146.6370 C   0  0  0  0  0  3  0  0  0  0  0  0
  191.7930  176.4150  146.5960 C   0  0  0  0  0  3  0  0  0  0  0  0
  191.8280  176.2090  144.1700 C   0  0  0  0  0  0  0  0  0  0  0  0
  185.2210  178.9750  145.3880 C   0  0  0  0  0  3  0  0  0  0  0  0
  187.6620  177.8000  144.6730 C   0  0  0  0  0  0  0  0  0  0  0  0
  186.9720  178.6020  143.7560 C   0  0  0  0  0  3  0  0  0  0  0  0
  185.7550  179.1900  144.1140 C   0  0  0  0  0  3  0  0  0  0  0  0
  185.9030  178.1690  146.3050 C   0  0  0  0  0  3  0  0  0  0  0  0
  187.1200  177.5810  145.9490 C   0  0  0  0  0  3  0  0  0  0  0  0
  2 12  1  0  0  0  0
  3 21  1  0  0  0  0
  4 14  1  0  0  0  0
  5 13  1  0  0  0  0
  6  2  1  0  0  0  0
  7 11  1  0  0  0  0
  8 10  1  0  0  0  0
  8 19  1  0  0  0  0
  9  7  2  0  0  0  0
 11 16  1  0  0  0  0
 12 23  1  1  0  0  0
 12  1  1  0  0  0  0
 13  9  1  0  0  0  0
 13  4  2  0  0  0  0
 14 11  2  0  0  0  0
 14 18  1  0  0  0  0
 15  1  1  0  0  0  0
 15 20  1  0  0  0  0
 16  3  1  0  0  0  0
 16  2  2  0  0  0  0
 17  8  2  0  0  0  0
 18  6  2  0  0  0  0
 20 19  2  0  0  0  0
 21 17  1  0  0  0  0
 21 15  2  0  0  0  0
 22 26  1  0  0  0  0
 23 27  1  0  0  0  0
 24 25  1  0  0  0  0
 24 23  2  0  0  0  0
 25 22  2  0  0  0  0
 27 26  2  0  0  0  0
M  END
>  <MODEL>
6

>  <REMARK>
 VINA RESULT:      -7.9      0.893      1.362
  Name = 
  1 active torsions:
  status: ('A' for Active; 'I' for Inactive)
    1  A    between atoms: C_9  and  C_15
                            x       y       z     vdW  Elec       q    Type
                         _______ _______ _______ _____ _____    ______ ____

>  <TORSDO>
F 1

$$$$
=
 OpenBabel11052418263D

 27 31  0  0  1  0  0  0  0  0999 V2000
  189.2900  174.3460  143.6510 N   0  0  0  0  0  2  0  0  0  0  0  0
  188.0800  176.3650  144.2050 C   0  0  0  0  0  0  0  0  0  0  0  0
  187.9290  176.2510  141.7590 O   0  0  0  0  0  0  0  0  0  0  0  0
  184.3800  178.3610  144.3150 C   0  0  0  0  0  3  0  0  0  0  0  0
  182.4900  179.3230  143.1660 O   0  0  0  0  0  1  0  0  0  0  0  0
  187.5020  176.7410  145.4290 C   0  0  0  0  0  3  0  0  0  0  0  0
  185.4860  177.6160  141.8530 C   0  0  0  0  0  3  0  0  0  0  0  0
  188.5560  173.3270  139.6130 C   0  0  0  0  0  0  0  0  0  0  0  0
  184.2600  178.2860  141.8970 C   0  0  0  0  0  3  0  0  0  0  0  0
  188.3810  172.9870  138.2790 O   0  0  0  0  0  1  0  0  0  0  0  0
  186.1720  177.3140  143.0380 C   0  0  0  0  0  0  0  0  0  0  0  0
  189.4240  175.7050  144.1430 C   0  0  1  0  0  3  0  0  0  0  0  0
  183.7080  178.6580  143.1270 C   0  0  0  0  0  0  0  0  0  0  0  0
  185.6070  177.6930  144.2790 C   0  0  0  0  0  0  0  0  0  0  0  0
  188.9390  174.0270  142.3030 C   0  0  0  0  0  0  0  0  0  0  0  0
  187.4000  176.6280  143.0030 C   0  0  0  0  0  0  0  0  0  0  0  0
  188.2200  174.6060  140.0570 C   0  0  0  0  0  3  0  0  0  0  0  0
  186.2720  177.3970  145.4660 C   0  0  0  0  0  3  0  0  0  0  0  0
  189.0580  172.3880  140.5130 C   0  0  0  0  0  3  0  0  0  0  0  0
  189.2520  172.7410  141.8480 C   0  0  0  0  0  3  0  0  0  0  0  0
  188.3800  174.9700  141.4000 C   0  0  0  0  0  0  0  0  0  0  0  0
  191.6530  175.8610  147.8220 C   0  0  0  0  0  3  0  0  0  0  0  0
  190.2030  175.7350  145.4280 C   0  0  0  0  0  0  0  0  0  0  0  0
  191.2640  176.6390  145.5610 C   0  0  0  0  0  3  0  0  0  0  0  0
  191.9890  176.7000  146.7550 C   0  0  0  0  0  3  0  0  0  0  0  0
  190.5910  174.9610  147.6960 C   0  0  0  0  0  3  0  0  0  0  0  0
  189.8660  174.8980  146.5030 C   0  0  0  0  0  3  0  0  0  0  0  0
  1 12  1  0  0  0  0
  2  6  1  0  0  0  0
  3 16  1  0  0  0  0
  6 18  2  0  0  0  0
  7  9  2  0  0  0  0
  7 11  1  0  0  0  0
  8 17  2  0  0  0  0
  8 19  1  0  0  0  0
  9 13  1  0  0  0  0
 10  8  1  0  0  0  0
 11 14  2  0  0  0  0
 12  2  1  0  0  0  0
 12 23  1  1  0  0  0
 13  5  1  0  0  0  0
 13  4  2  0  0  0  0
 14  4  1  0  0  0  0
 14 18  1  0  0  0  0
 15  1  1  0  0  0  0
 16 11  1  0  0  0  0
 16  2  2  0  0  0  0
 17 21  1  0  0  0  0
 19 20  2  0  0  0  0
 20 15  1  0  0  0  0
 21  3  1  0  0  0  0
 21 15  2  0  0  0  0
 23 24  2  0  0  0  0
 23 27  1  0  0  0  0
 24 25  1  0  0  0  0
 25 22  2  0  0  0  0
 26 22  1  0  0  0  0
 27 26  2  0  0  0  0
M  END
>  <MODEL>
7

>  <REMARK>
 VINA RESULT:      -7.9      2.352      6.534
  Name = 
  1 active torsions:
  status: ('A' for Active; 'I' for Inactive)
    1  A    between atoms: C_9  and  C_15
                            x       y       z     vdW  Elec       q    Type
                         _______ _______ _______ _____ _____    ______ ____

>  <TORSDO>
F 1

$$$$
=
 OpenBabel11052418263D

 27 31  0  0  1  0  0  0  0  0999 V2000
  187.9440  175.5450  141.4250 N   0  0  0  0  0  2  0  0  0  0  0  0
  188.9600  175.9590  143.5790 C   0  0  0  0  0  0  0  0  0  0  0  0
  189.7000  173.6880  143.0170 O   0  0  0  0  0  0  0  0  0  0  0  0
  192.5000  176.5410  145.7750 C   0  0  0  0  0  3  0  0  0  0  0  0
  194.6000  175.7030  146.6140 O   0  0  0  0  0  1  0  0  0  0  0  0
  189.2200  177.1860  144.2130 C   0  0  0  0  0  3  0  0  0  0  0  0
  192.0320  174.0840  144.5170 C   0  0  0  0  0  3  0  0  0  0  0  0
  189.6460  172.0740  139.7100 C   0  0  0  0  0  0  0  0  0  0  0  0
  193.2020  174.2830  145.2540 C   0  0  0  0  0  3  0  0  0  0  0  0
  190.1420  170.9120  139.1360 O   0  0  0  0  0  1  0  0  0  0  0  0
  191.0820  175.1100  144.4030 C   0  0  0  0  0  0  0  0  0  0  0  0
  187.6790  175.7140  142.8420 C   0  0  1  0  0  3  0  0  0  0  0  0
  193.4350  175.5100  145.8830 C   0  0  0  0  0  0  0  0  0  0  0  0
  191.3260  176.3500  145.0410 C   0  0  0  0  0  0  0  0  0  0  0  0
  188.6140  174.4070  140.8790 C   0  0  0  0  0  0  0  0  0  0  0  0
  189.9080  174.9230  143.6510 C   0  0  0  0  0  0  0  0  0  0  0  0
  189.8490  172.3240  141.0670 C   0  0  0  0  0  3  0  0  0  0  0  0
  190.3960  177.3810  144.9350 C   0  0  0  0  0  3  0  0  0  0  0  0
  188.9520  172.9970  138.9290 C   0  0  0  0  0  3  0  0  0  0  0  0
  188.4360  174.1530  139.5150 C   0  0  0  0  0  3  0  0  0  0  0  0
  189.3650  173.4930  141.6670 C   0  0  0  0  0  0  0  0  0  0  0  0
  184.6500  178.6900  143.5500 C   0  0  0  0  0  3  0  0  0  0  0  0
  186.6120  176.7480  143.0670 C   0  0  0  0  0  0  0  0  0  0  0  0
  185.9790  176.8140  144.3140 C   0  0  0  0  0  3  0  0  0  0  0  0
  184.9990  177.7820  144.5550 C   0  0  0  0  0  3  0  0  0  0  0  0
  185.2830  178.6320  142.3050 C   0  0  0  0  0  3  0  0  0  0  0  0
  186.2630  177.6650  142.0630 C   0  0  0  0  0  3  0  0  0  0  0  0
  1 12  1  0  0  0  0
  2 16  2  0  0  0  0
  2  6  1  0  0  0  0
  3 16  1  0  0  0  0
  4 13  1  0  0  0  0
  6 18  2  0  0  0  0
  7  9  1  0  0  0  0
  8 17  1  0  0  0  0
  9 13  2  0  0  0  0
 10  8  1  0  0  0  0
 11  7  2  0  0  0  0
 11 14  1  0  0  0  0
 12 23  1  6  0  0  0
 12  2  1  0  0  0  0
 13  5  1  0  0  0  0
 14  4  2  0  0  0  0
 15  1  1  0  0  0  0
 15 21  1  0  0  0  0
 16 11  1  0  0  0  0
 17 21  2  0  0  0  0
 18 14  1  0  0  0  0
 19 20  1  0  0  0  0
 19  8  2  0  0  0  0
 20 15  2  0  0  0  0
 21  3  1  0  0  0  0
 22 25  1  0  0  0  0
 23 24  1  0  0  0  0
 24 25  2  0  0  0  0
 26 22  2  0  0  0  0
 27 26  1  0  0  0  0
 27 23  2  0  0  0  0
M  END
>  <MODEL>
8

>  <REMARK>
 VINA RESULT:      -7.7      1.723      5.509
  Name = 
  1 active torsions:
  status: ('A' for Active; 'I' for Inactive)
    1  A    between atoms: C_9  and  C_15
                            x       y       z     vdW  Elec       q    Type
                         _______ _______ _______ _____ _____    ______ ____

>  <TORSDO>
F 1

$$$$
=
 OpenBabel11052418263D

 27 31  0  0  1  0  0  0  0  0999 V2000
  191.3220  173.6190  143.0540 N   0  0  0  0  0  2  0  0  0  0  0  0
  190.4300  175.3330  144.5080 C   0  0  0  0  0  0  0  0  0  0  0  0
  189.1040  175.5660  142.4580 O   0  0  0  0  0  0  0  0  0  0  0  0
  187.1570  176.7250  146.7530 C   0  0  0  0  0  3  0  0  0  0  0  0
  184.8970  177.5600  146.8540 O   0  0  0  0  0  1  0  0  0  0  0  0
  190.5080  175.4330  145.9080 C   0  0  0  0  0  3  0  0  0  0  0  0
  186.9500  176.5270  143.9680 C   0  0  0  0  0  3  0  0  0  0  0  0
  188.7560  173.1190  139.7290 C   0  0  0  0  0  0  0  0  0  0  0  0
  185.8700  176.9950  144.7200 C   0  0  0  0  0  3  0  0  0  0  0  0
  187.9690  172.9600  138.5990 O   0  0  0  0  0  1  0  0  0  0  0  0
  188.1460  176.1550  144.5990 C   0  0  0  0  0  0  0  0  0  0  0  0
  191.6050  174.8940  143.6870 C   0  0  1  0  0  3  0  0  0  0  0  0
  185.9730  177.0940  146.1110 C   0  0  0  0  0  0  0  0  0  0  0  0
  188.2430  176.2570  146.0070 C   0  0  0  0  0  0  0  0  0  0  0  0
  190.3730  173.4570  141.9980 C   0  0  0  0  0  0  0  0  0  0  0  0
  189.2340  175.6700  143.8510 C   0  0  0  0  0  0  0  0  0  0  0  0
  188.6120  174.2540  140.5270 C   0  0  0  0  0  3  0  0  0  0  0  0
  189.4210  175.8880  146.6520 C   0  0  0  0  0  3  0  0  0  0  0  0
  189.6870  172.1400  140.0750 C   0  0  0  0  0  3  0  0  0  0  0  0
  190.4920  172.3140  141.2000 C   0  0  0  0  0  3  0  0  0  0  0  0
  189.3900  174.4320  141.6780 C   0  0  0  0  0  0  0  0  0  0  0  0
  195.3290  174.8140  145.8450 C   0  0  0  0  0  3  0  0  0  0  0  0
  192.9110  174.8460  144.4290 C   0  0  0  0  0  0  0  0  0  0  0  0
  193.6330  176.0310  144.6170 C   0  0  0  0  0  3  0  0  0  0  0  0
  194.8390  176.0150  145.3220 C   0  0  0  0  0  3  0  0  0  0  0  0
  194.6090  173.6290  145.6650 C   0  0  0  0  0  3  0  0  0  0  0  0
  193.4030  173.6430  144.9600 C   0  0  0  0  0  3  0  0  0  0  0  0
  1 12  1  0  0  0  0
  2  6  1  0  0  0  0
  3 16  1  0  0  0  0
  6 18  2  0  0  0  0
  7 11  2  0  0  0  0
  7  9  1  0  0  0  0
  8 19  2  0  0  0  0
  8 17  1  0  0  0  0
  9 13  2  0  0  0  0
 10  8  1  0  0  0  0
 11 14  1  0  0  0  0
 12 23  1  1  0  0  0
 12  2  1  0  0  0  0
 13  4  1  0  0  0  0
 13  5  1  0  0  0  0
 14 18  1  0  0  0  0
 14  4  2  0  0  0  0
 15  1  1  0  0  0  0
 16  2  2  0  0  0  0
 16 11  1  0  0  0  0
 17 21  2  0  0  0  0
 19 20  1  0  0  0  0
 20 15  2  0  0  0  0
 21 15  1  0  0  0  0
 21  3  1  0  0  0  0
 23 24  2  0  0  0  0
 23 27  1  0  0  0  0
 24 25  1  0  0  0  0
 25 22  2  0  0  0  0
 26 22  1  0  0  0  0
 27 26  2  0  0  0  0
M  END
>  <MODEL>
9

>  <REMARK>
 VINA RESULT:      -7.7      2.343      7.287
  Name = 
  1 active torsions:
  status: ('A' for Active; 'I' for Inactive)
    1  A    between atoms: C_9  and  C_15
                            x       y       z     vdW  Elec       q    Type
                         _______ _______ _______ _____ _____    ______ ____

>  <TORSDO>
F 1

$$$$
