=
 OpenBabel11052419573D

 37 41  0  0  1  0  0  0  0  0999 V2000
  187.9130  176.3480  144.6150 C   0  0  2  0  0  3  0  0  0  0  0  0
  187.4210  176.2130  147.4160 N   0  0  0  0  0  0  0  0  0  0  0  0
  188.9030  177.0200  143.6690 C   0  0  0  0  0  2  0  0  0  0  0  0
  187.0050  177.3410  145.3100 C   0  0  0  0  0  0  0  0  0  0  0  0
  190.2590  176.3590  143.9270 C   0  0  1  0  0  0  0  0  0  0  0  0
  188.9980  174.5010  147.7640 N   0  0  0  0  0  1  0  0  0  0  0  0
  190.5840  173.9930  144.8750 C   0  0  0  0  0  1  0  0  0  0  0  0
  188.3360  175.4390  146.9220 C   0  0  0  0  0  0  0  0  0  0  0  0
  188.7190  175.5810  145.5520 N   0  0  0  0  0  0  0  0  0  0  0  0
  186.7610  177.2290  146.6390 C   0  0  0  0  0  0  0  0  0  0  0  0
  191.0010  176.6450  145.2430 C   0  0  1  0  0  3  0  0  0  0  0  0
  190.0870  175.4180  145.1060 C   0  0  2  0  0  0  0  0  0  0  0  0
  193.1800  175.9950  146.5110 C   0  0  0  0  0  2  0  0  0  0  0  0
  192.4680  176.3080  145.2100 C   0  0  0  0  0  0  0  0  0  0  0  0
  193.1570  176.5150  144.0820 C   0  0  0  0  0  3  0  0  0  0  0  0
  195.2470  176.4940  142.9740 O   0  0  0  0  0  0  0  0  0  0  0  0
  195.2760  175.6930  145.1980 C   0  0  0  0  0  3  0  0  0  0  0  0
  194.6010  176.2610  144.0270 C   0  0  0  0  0  0  0  0  0  0  0  0
  194.6090  175.5390  146.3420 C   0  0  0  0  0  3  0  0  0  0  0  0
  185.8210  178.1650  147.3590 C   0  0  0  0  0  0  0  0  0  0  0  0
  184.5280  178.0000  146.8940 F   0  0  0  0  0  0  0  0  0  0  0  0
  185.8360  177.9000  148.7170 F   0  0  0  0  0  0  0  0  0  0  0  0
  186.1990  179.4780  147.1430 F   0  0  0  0  0  0  0  0  0  0  0  0
  190.0390  175.5420  141.9340 O   0  0  0  0  0  1  0  0  0  0  0  0
  190.9560  175.7940  142.8480 O   0  0  0  0  0  0  0  0  0  0  0  0
  186.2940  178.3720  144.4730 C   0  0  0  0  0  2  0  0  0  0  0  0
  185.7860  177.5910  142.2660 O   0  0  0  0  0  0  0  0  0  0  0  0
  184.6820  177.6510  141.4000 C   0  0  1  0  0  3  0  0  0  0  0  0
  184.0010  178.5890  143.4800 C   0  0  0  0  0  2  0  0  0  0  0  0
  183.6320  178.5440  142.0270 C   0  0  2  0  0  3  0  0  0  0  0  0
  185.2540  177.7370  143.5580 C   0  0  2  0  0  3  0  0  0  0  0  0
  185.1030  178.1750  140.0330 C   0  0  0  0  0  2  0  0  0  0  0  0
  186.3390  177.6430  139.6590 O   0  0  0  0  0  1  0  0  0  0  0  0
  182.3090  178.0400  141.8230 O   0  0  0  0  0  0  0  0  0  0  0  0
  181.1820  178.8370  141.5900 C   0  0  0  0  0  0  0  0  0  0  0  0
  180.9290  179.2210  140.4190 O   0  0  0  0  0  0  0  0  0  0  0  0
  180.3380  179.2120  142.6290 O   0  0  0  0  0  1  0  0  0  0  0  0
  1  3  1  6  0  0  0
  1  4  1  0  0  0  0
  1  9  1  0  0  0  0
  3  5  1  0  0  0  0
  4 10  2  0  0  0  0
  5 25  1  6  0  0  0
  5 12  1  0  0  0  0
  5 11  1  0  0  0  0
  8  2  2  0  0  0  0
  8  6  1  0  0  0  0
  9  8  1  0  0  0  0
 10 20  1  0  0  0  0
 10  2  1  0  0  0  0
 11 14  1  6  0  0  0
 12  7  1  6  0  0  0
 12 11  1  0  0  0  0
 12  9  1  0  0  0  0
 14 13  1  0  0  0  0
 15 14  2  0  0  0  0
 16 18  2  0  0  0  0
 17 19  2  0  0  0  0
 18 15  1  0  0  0  0
 18 17  1  0  0  0  0
 19 13  1  0  0  0  0
 20 22  1  0  0  0  0
 21 20  1  0  0  0  0
 23 20  1  0  0  0  0
 24 25  1  0  0  0  0
 26  4  1  0  0  0  0
 27 31  1  0  0  0  0
 28 32  1  6  0  0  0
 28 30  1  0  0  0  0
 28 27  1  0  0  0  0
 29 31  1  0  0  0  0
 30 34  1  1  0  0  0
 30 29  1  0  0  0  0
 31 26  1  1  0  0  0
 33 32  1  0  0  0  0
 35 34  1  0  0  0  0
 35 37  1  0  0  0  0
 36 35  2  0  0  0  0
M  END
>  <MODEL>
1

>  <REMARK>
 VINA RESULT:      -8.4      0.000      0.000
  Name = 
  8 active torsions:
  status: ('A' for Active; 'I' for Inactive)
    1  A    between atoms: C_3  and  C_30
    2  A    between atoms: C_5  and  C_12
    3  A    between atoms: C_6  and  C_31
    4  A    between atoms: C_11  and  O_26
    5  A    between atoms: C_13  and  C_20
    6  A    between atoms: C_14  and  O_27
    7  A    between atoms: C_20  and  C_36
    8  A    between atoms: O_26  and  C_33
                            x       y       z     vdW  Elec       q    Type
                         _______ _______ _______ _____ _____    ______ ____

>  <TORSDO>
F 8

$$$$
=
 OpenBabel11052419573D

 37 41  0  0  1  0  0  0  0  0999 V2000
  188.7990  174.7620  142.6910 C   0  0  2  0  0  3  0  0  0  0  0  0
  190.8900  174.9320  144.6150 N   0  0  0  0  0  0  0  0  0  0  0  0
  188.6340  174.9040  141.1820 C   0  0  0  0  0  2  0  0  0  0  0  0
  189.1540  176.0720  143.3650 C   0  0  0  0  0  0  0  0  0  0  0  0
  189.3750  173.7210  140.5560 C   0  0  1  0  0  0  0  0  0  0  0  0
  191.5890  172.7100  144.2770 N   0  0  0  0  0  1  0  0  0  0  0  0
  189.8220  171.4790  141.7300 C   0  0  0  0  0  1  0  0  0  0  0  0
  190.7560  173.8210  143.9610 C   0  0  0  0  0  0  0  0  0  0  0  0
  189.8200  173.7430  142.8830 N   0  0  0  0  0  0  0  0  0  0  0  0
  190.1310  176.1140  144.3040 C   0  0  0  0  0  0  0  0  0  0  0  0
  190.9120  173.6850  140.5940 C   0  0  1  0  0  3  0  0  0  0  0  0
  190.0820  172.9830  141.6790 C   0  0  2  0  0  0  0  0  0  0  0  0
  192.3470  171.5660  140.1180 C   0  0  0  0  0  2  0  0  0  0  0  0
  191.5330  172.7360  139.6040 C   0  0  0  0  0  0  0  0  0  0  0  0
  191.5490  173.0680  138.3080 C   0  0  0  0  0  3  0  0  0  0  0  0
  192.2450  172.5410  136.1100 O   0  0  0  0  0  0  0  0  0  0  0  0
  192.7640  170.9190  137.7490 C   0  0  0  0  0  3  0  0  0  0  0  0
  192.2010  172.2030  137.3200 C   0  0  0  0  0  0  0  0  0  0  0  0
  192.8030  170.6070  139.0450 C   0  0  0  0  0  3  0  0  0  0  0  0
  190.4780  177.3870  145.0360 C   0  0  0  0  0  0  0  0  0  0  0  0
  191.6430  177.2200  145.7640 F   0  0  0  0  0  0  0  0  0  0  0  0
  190.6680  178.4170  144.1320 F   0  0  0  0  0  0  0  0  0  0  0  0
  189.4610  177.7260  145.9100 F   0  0  0  0  0  0  0  0  0  0  0  0
  188.1160  173.6820  138.7940 O   0  0  0  0  0  1  0  0  0  0  0  0
  188.6850  172.8780  139.6700 O   0  0  0  0  0  0  0  0  0  0  0  0
  188.3220  177.2870  143.0530 C   0  0  0  0  0  2  0  0  0  0  0  0
  185.9770  177.0840  142.6010 O   0  0  0  0  0  0  0  0  0  0  0  0
  184.7950  177.6350  143.1210 C   0  0  1  0  0  3  0  0  0  0  0  0
  186.5890  178.3860  144.4950 C   0  0  0  0  0  2  0  0  0  0  0  0
  185.1680  178.7010  144.1300 C   0  0  2  0  0  3  0  0  0  0  0  0
  186.9200  177.1780  143.6390 C   0  0  2  0  0  3  0  0  0  0  0  0
  183.9390  178.2150  142.0020 C   0  0  0  0  0  2  0  0  0  0  0  0
  184.6430  178.2250  140.7960 O   0  0  0  0  0  1  0  0  0  0  0  0
  184.3030  178.6860  145.2690 O   0  0  0  0  0  0  0  0  0  0  0  0
  184.5800  178.0190  146.4680 C   0  0  0  0  0  0  0  0  0  0  0  0
  184.6700  178.6800  147.5360 O   0  0  0  0  0  1  0  0  0  0  0  0
  184.7570  176.6410  146.5020 O   0  0  0  0  0  0  0  0  0  0  0  0
  1  3  1  6  0  0  0
  1  9  1  0  0  0  0
  1  4  1  0  0  0  0
  4 10  2  0  0  0  0
  5 25  1  6  0  0  0
  5 11  1  0  0  0  0
  5  3  1  0  0  0  0
  5 12  1  0  0  0  0
  8  6  1  0  0  0  0
  8  2  2  0  0  0  0
  9  8  1  0  0  0  0
 10  2  1  0  0  0  0
 10 20  1  0  0  0  0
 11 14  1  6  0  0  0
 11 12  1  0  0  0  0
 12  7  1  1  0  0  0
 12  9  1  0  0  0  0
 14 13  1  0  0  0  0
 15 14  2  0  0  0  0
 16 18  2  0  0  0  0
 17 19  2  0  0  0  0
 18 17  1  0  0  0  0
 18 15  1  0  0  0  0
 19 13  1  0  0  0  0
 20 21  1  0  0  0  0
 20 23  1  0  0  0  0
 22 20  1  0  0  0  0
 24 25  1  0  0  0  0
 26  4  1  0  0  0  0
 27 28  1  0  0  0  0
 27 31  1  0  0  0  0
 28 32  1  6  0  0  0
 28 30  1  0  0  0  0
 30 29  1  0  0  0  0
 30 34  1  1  0  0  0
 31 26  1  6  0  0  0
 31 29  1  0  0  0  0
 33 32  1  0  0  0  0
 34 35  1  0  0  0  0
 35 37  2  0  0  0  0
 35 36  1  0  0  0  0
M  END
>  <MODEL>
2

>  <REMARK>
 VINA RESULT:      -7.4      4.162      5.297
  Name = 
  8 active torsions:
  status: ('A' for Active; 'I' for Inactive)
    1  A    between atoms: C_3  and  C_30
    2  A    between atoms: C_5  and  C_12
    3  A    between atoms: C_6  and  C_31
    4  A    between atoms: C_11  and  O_26
    5  A    between atoms: C_13  and  C_20
    6  A    between atoms: C_14  and  O_27
    7  A    between atoms: C_20  and  C_36
    8  A    between atoms: O_26  and  C_33
                            x       y       z     vdW  Elec       q    Type
                         _______ _______ _______ _____ _____    ______ ____

>  <TORSDO>
F 8

$$$$
=
 OpenBabel11052419573D

 37 41  0  0  1  0  0  0  0  0999 V2000
  188.8570  177.1780  144.3980 C   0  0  2  0  0  3  0  0  0  0  0  0
  187.7010  176.5860  146.9320 N   0  0  0  0  0  0  0  0  0  0  0  0
  188.5920  176.8600  142.9300 C   0  0  0  0  0  2  0  0  0  0  0  0
  189.2710  175.9580  145.1940 C   0  0  0  0  0  0  0  0  0  0  0  0
  187.2930  177.5790  142.5630 C   0  0  1  0  0  0  0  0  0  0  0  0
  186.1180  178.3210  146.7860 N   0  0  0  0  0  1  0  0  0  0  0  0
  186.3840  179.6710  143.7470 C   0  0  0  0  0  1  0  0  0  0  0  0
  187.1800  177.5480  146.2360 C   0  0  0  0  0  0  0  0  0  0  0  0
  187.6300  177.7790  144.9000 N   0  0  0  0  0  0  0  0  0  0  0  0
  188.7290  175.7220  146.4150 C   0  0  0  0  0  0  0  0  0  0  0  0
  185.9590  177.0660  143.1300 C   0  0  1  0  0  3  0  0  0  0  0  0
  186.7350  178.1870  143.8370 C   0  0  2  0  0  0  0  0  0  0  0  0
  184.7550  177.5450  140.8710 C   0  0  0  0  0  2  0  0  0  0  0  0
  184.7430  177.5540  142.3860 C   0  0  0  0  0  0  0  0  0  0  0  0
  183.7810  178.1920  143.0620 C   0  0  0  0  0  3  0  0  0  0  0  0
  181.7310  179.3700  143.0050 O   0  0  0  0  0  0  0  0  0  0  0  0
  182.4580  178.5060  140.9270 C   0  0  0  0  0  3  0  0  0  0  0  0
  182.6110  178.7390  142.3660 C   0  0  0  0  0  0  0  0  0  0  0  0
  183.4380  177.9230  140.2370 C   0  0  0  0  0  3  0  0  0  0  0  0
  189.1530  174.5470  147.2620 C   0  0  0  0  0  0  0  0  0  0  0  0
  189.3130  173.4200  146.4740 F   0  0  0  0  0  0  0  0  0  0  0  0
  190.3570  174.8220  147.8850 F   0  0  0  0  0  0  0  0  0  0  0  0
  188.1920  174.2790  148.2190 F   0  0  0  0  0  0  0  0  0  0  0  0
  188.5580  178.6680  141.1830 O   0  0  0  0  0  1  0  0  0  0  0  0
  187.2880  178.4560  141.4670 O   0  0  0  0  0  0  0  0  0  0  0  0
  190.3740  175.0880  144.6520 C   0  0  0  0  0  2  0  0  0  0  0  0
  192.2830  176.2680  143.8120 O   0  0  0  0  0  0  0  0  0  0  0  0
  193.6770  176.1650  143.9490 C   0  0  1  0  0  3  0  0  0  0  0  0
  192.7020  174.5790  145.4340 C   0  0  0  0  0  2  0  0  0  0  0  0
  193.9890  174.9100  144.7360 C   0  0  2  0  0  3  0  0  0  0  0  0
  191.7510  175.6630  144.9630 C   0  0  2  0  0  3  0  0  0  0  0  0
  194.3470  176.1370  142.5820 C   0  0  0  0  0  2  0  0  0  0  0  0
  193.6490  175.3020  141.7060 O   0  0  0  0  0  1  0  0  0  0  0  0
  195.0650  175.1070  145.6560 O   0  0  0  0  0  0  0  0  0  0  0  0
  196.3450  174.5580  145.5120 C   0  0  0  0  0  0  0  0  0  0  0  0
  197.0070  174.8010  144.4690 O   0  0  0  0  0  0  0  0  0  0  0  0
  196.8980  173.7500  146.4980 O   0  0  0  0  0  1  0  0  0  0  0  0
  1  3  1  6  0  0  0
  1  9  1  0  0  0  0
  1  4  1  0  0  0  0
  4 10  2  0  0  0  0
  5 25  1  6  0  0  0
  5  3  1  0  0  0  0
  5 11  1  0  0  0  0
  5 12  1  0  0  0  0
  8  6  1  0  0  0  0
  8  2  2  0  0  0  0
  9  8  1  0  0  0  0
 10  2  1  0  0  0  0
 10 20  1  0  0  0  0
 11 14  1  6  0  0  0
 11 12  1  0  0  0  0
 12  7  1  6  0  0  0
 12  9  1  0  0  0  0
 13 14  1  0  0  0  0
 14 15  2  0  0  0  0
 17 18  1  0  0  0  0
 18 16  2  0  0  0  0
 18 15  1  0  0  0  0
 19 13  1  0  0  0  0
 19 17  2  0  0  0  0
 20 22  1  0  0  0  0
 20 23  1  0  0  0  0
 21 20  1  0  0  0  0
 24 25  1  0  0  0  0
 26  4  1  0  0  0  0
 27 28  1  0  0  0  0
 27 31  1  0  0  0  0
 28 32  1  6  0  0  0
 28 30  1  0  0  0  0
 30 29  1  0  0  0  0
 30 34  1  1  0  0  0
 31 26  1  6  0  0  0
 31 29  1  0  0  0  0
 33 32  1  0  0  0  0
 35 34  1  0  0  0  0
 35 37  1  0  0  0  0
 36 35  2  0  0  0  0
M  END
>  <MODEL>
3

>  <REMARK>
 VINA RESULT:      -7.3      2.299      8.941
  Name = 
  8 active torsions:
  status: ('A' for Active; 'I' for Inactive)
    1  A    between atoms: C_3  and  C_30
    2  A    between atoms: C_5  and  C_12
    3  A    between atoms: C_6  and  C_31
    4  A    between atoms: C_11  and  O_26
    5  A    between atoms: C_13  and  C_20
    6  A    between atoms: C_14  and  O_27
    7  A    between atoms: C_20  and  C_36
    8  A    between atoms: O_26  and  C_33
                            x       y       z     vdW  Elec       q    Type
                         _______ _______ _______ _____ _____    ______ ____

>  <TORSDO>
F 8

$$$$
=
 OpenBabel11052419573D

 37 41  0  0  1  0  0  0  0  0999 V2000
  191.3100  174.7780  143.3430 C   0  0  2  0  0  3  0  0  0  0  0  0
  191.7240  174.0490  140.6220 N   0  0  0  0  0  0  0  0  0  0  0  0
  191.2950  174.0980  144.7080 C   0  0  0  0  0  2  0  0  0  0  0  0
  190.1650  174.3340  142.4570 C   0  0  0  0  0  0  0  0  0  0  0  0
  192.7350  173.6660  144.9900 C   0  0  1  0  0  0  0  0  0  0  0  0
  194.0680  174.1940  140.7810 N   0  0  0  0  0  1  0  0  0  0  0  0
  194.8240  174.7700  143.9780 C   0  0  0  0  0  1  0  0  0  0  0  0
  192.7690  174.2550  141.3610 C   0  0  0  0  0  0  0  0  0  0  0  0
  192.6110  174.4740  142.7650 N   0  0  0  0  0  0  0  0  0  0  0  0
  190.3870  174.0280  141.1550 C   0  0  0  0  0  0  0  0  0  0  0  0
  193.3480  172.5070  144.1870 C   0  0  1  0  0  3  0  0  0  0  0  0
  193.5490  173.9630  143.7420 C   0  0  2  0  0  0  0  0  0  0  0  0
  195.9360  172.2390  144.2590 C   0  0  0  0  0  2  0  0  0  0  0  0
  194.5710  171.8960  144.8190 C   0  0  0  0  0  0  0  0  0  0  0  0
  194.4190  170.8990  145.6970 C   0  0  0  0  0  3  0  0  0  0  0  0
  195.4340  169.2730  147.0830 O   0  0  0  0  0  0  0  0  0  0  0  0
  196.9300  170.7280  145.9720 C   0  0  0  0  0  3  0  0  0  0  0  0
  195.5860  170.2340  146.2870 C   0  0  0  0  0  0  0  0  0  0  0  0
  197.0920  171.6820  145.0540 C   0  0  0  0  0  3  0  0  0  0  0  0
  189.2660  173.6330  140.2260 C   0  0  0  0  0  0  0  0  0  0  0  0
  188.4940  172.6380  140.8000 F   0  0  0  0  0  0  0  0  0  0  0  0
  188.4540  174.7250  139.9710 F   0  0  0  0  0  0  0  0  0  0  0  0
  189.7800  173.1560  139.0340 F   0  0  0  0  0  0  0  0  0  0  0  0
  192.4520  174.8310  146.7940 O   0  0  0  0  0  1  0  0  0  0  0  0
  193.3500  174.0850  146.1800 O   0  0  0  0  0  0  0  0  0  0  0  0
  188.7700  174.3560  143.0230 C   0  0  0  0  0  2  0  0  0  0  0  0
  188.2250  176.1740  144.4860 O   0  0  0  0  0  0  0  0  0  0  0  0
  187.1820  177.1070  144.5950 C   0  0  1  0  0  3  0  0  0  0  0  0
  186.8150  175.8680  142.5950 C   0  0  0  0  0  2  0  0  0  0  0  0
  186.1120  176.7480  143.5860 C   0  0  2  0  0  3  0  0  0  0  0  0
  188.2290  175.7750  143.1380 C   0  0  2  0  0  3  0  0  0  0  0  0
  186.6210  177.1180  146.0110 C   0  0  0  0  0  2  0  0  0  0  0  0
  185.3500  176.5380  146.0430 O   0  0  0  0  0  1  0  0  0  0  0  0
  185.5440  177.9060  142.9700 O   0  0  0  0  0  0  0  0  0  0  0  0
  184.2350  178.3560  143.1760 C   0  0  0  0  0  0  0  0  0  0  0  0
  183.3600  178.1320  142.2990 O   0  0  0  0  0  0  0  0  0  0  0  0
  183.8820  179.0440  144.3300 O   0  0  0  0  0  1  0  0  0  0  0  0
  1  3  1  1  0  0  0
  2 10  1  0  0  0  0
  2  8  2  0  0  0  0
  3  5  1  0  0  0  0
  4 26  1  0  0  0  0
  4  1  1  0  0  0  0
  5 25  1  1  0  0  0
  6  8  1  0  0  0  0
  8  9  1  0  0  0  0
  9  1  1  0  0  0  0
  9 12  1  0  0  0  0
 10  4  2  0  0  0  0
 11 14  1  1  0  0  0
 11  5  1  0  0  0  0
 12  7  1  1  0  0  0
 12 11  1  0  0  0  0
 12  5  1  0  0  0  0
 13 14  1  0  0  0  0
 13 19  1  0  0  0  0
 14 15  2  0  0  0  0
 15 18  1  0  0  0  0
 17 18  1  0  0  0  0
 18 16  2  0  0  0  0
 19 17  2  0  0  0  0
 20 21  1  0  0  0  0
 20 10  1  0  0  0  0
 22 20  1  0  0  0  0
 23 20  1  0  0  0  0
 25 24  1  0  0  0  0
 27 28  1  0  0  0  0
 28 32  1  1  0  0  0
 29 31  1  0  0  0  0
 29 30  1  0  0  0  0
 30 34  1  6  0  0  0
 30 28  1  0  0  0  0
 31 26  1  1  0  0  0
 31 27  1  0  0  0  0
 32 33  1  0  0  0  0
 34 35  1  0  0  0  0
 35 37  1  0  0  0  0
 36 35  2  0  0  0  0
M  END
>  <MODEL>
4

>  <REMARK>
 VINA RESULT:      -7.1      4.511      5.944
  Name = 
  8 active torsions:
  status: ('A' for Active; 'I' for Inactive)
    1  A    between atoms: C_3  and  C_30
    2  A    between atoms: C_5  and  C_12
    3  A    between atoms: C_6  and  C_31
    4  A    between atoms: C_11  and  O_26
    5  A    between atoms: C_13  and  C_20
    6  A    between atoms: C_14  and  O_27
    7  A    between atoms: C_20  and  C_36
    8  A    between atoms: O_26  and  C_33
                            x       y       z     vdW  Elec       q    Type
                         _______ _______ _______ _____ _____    ______ ____

>  <TORSDO>
F 8

$$$$
=
 OpenBabel11052419573D

 37 41  0  0  1  0  0  0  0  0999 V2000
  190.5930  175.1180  143.4080 C   0  0  2  0  0  3  0  0  0  0  0  0
  192.4080  176.9720  144.5790 N   0  0  0  0  0  0  0  0  0  0  0  0
  189.2250  174.5200  143.7200 C   0  0  0  0  0  2  0  0  0  0  0  0
  191.6610  174.6730  144.3850 C   0  0  0  0  0  0  0  0  0  0  0  0
  188.2170  175.6640  143.5950 C   0  0  1  0  0  0  0  0  0  0  0  0
  191.3190  178.8480  143.6650 N   0  0  0  0  0  1  0  0  0  0  0  0
  188.5510  177.7650  142.1530 C   0  0  0  0  0  1  0  0  0  0  0  0
  191.4190  177.4450  143.8860 C   0  0  0  0  0  0  0  0  0  0  0  0
  190.4030  176.5600  143.4090 N   0  0  0  0  0  0  0  0  0  0  0  0
  192.5350  175.5740  144.8980 C   0  0  0  0  0  0  0  0  0  0  0  0
  188.2030  176.7790  144.6540 C   0  0  1  0  0  3  0  0  0  0  0  0
  189.0060  176.9390  143.3540 C   0  0  2  0  0  0  0  0  0  0  0  0
  186.8560  178.8580  143.8550 C   0  0  0  0  0  2  0  0  0  0  0  0
  186.9350  177.5900  144.6800 C   0  0  0  0  0  0  0  0  0  0  0  0
  186.0010  177.3060  145.5960 C   0  0  0  0  0  3  0  0  0  0  0  0
  183.9260  177.8620  146.5850 O   0  0  0  0  0  0  0  0  0  0  0  0
  184.5460  179.1870  144.7270 C   0  0  0  0  0  3  0  0  0  0  0  0
  184.7800  178.1130  145.6970 C   0  0  0  0  0  0  0  0  0  0  0  0
  185.4950  179.5130  143.8500 C   0  0  0  0  0  3  0  0  0  0  0  0
  193.6460  175.1640  145.8330 C   0  0  0  0  0  0  0  0  0  0  0  0
  194.3380  176.2780  146.2760 F   0  0  0  0  0  0  0  0  0  0  0  0
  193.1220  174.5060  146.9320 F   0  0  0  0  0  0  0  0  0  0  0  0
  194.5340  174.3290  145.1790 F   0  0  0  0  0  0  0  0  0  0  0  0
  187.3650  174.4170  142.0430 O   0  0  0  0  0  1  0  0  0  0  0  0
  187.1160  175.5090  142.7380 O   0  0  0  0  0  0  0  0  0  0  0  0
  191.8000  173.2020  144.6760 C   0  0  0  0  0  2  0  0  0  0  0  0
  192.6210  173.3270  142.4280 O   0  0  0  0  0  0  0  0  0  0  0  0
  192.4150  172.6160  141.2350 C   0  0  1  0  0  3  0  0  0  0  0  0
  191.2270  171.4730  142.9520 C   0  0  0  0  0  2  0  0  0  0  0  0
  191.3020  171.6150  141.4600 C   0  0  2  0  0  3  0  0  0  0  0  0
  192.2900  172.4290  143.4570 C   0  0  2  0  0  3  0  0  0  0  0  0
  192.0740  173.5700  140.0970 C   0  0  0  0  0  2  0  0  0  0  0  0
  190.6910  173.7430  139.9960 O   0  0  0  0  0  1  0  0  0  0  0  0
  191.5630  170.3680  140.8130 O   0  0  0  0  0  0  0  0  0  0  0  0
  190.8090  169.8490  139.7530 C   0  0  0  0  0  0  0  0  0  0  0  0
  190.0880  170.6230  139.0710 O   0  0  0  0  0  0  0  0  0  0  0  0
  190.8410  168.4950  139.4410 O   0  0  0  0  0  1  0  0  0  0  0  0
  1  9  1  0  0  0  0
  1  3  1  1  0  0  0
  1  4  1  0  0  0  0
  2 10  1  0  0  0  0
  4 26  1  0  0  0  0
  4 10  2  0  0  0  0
  5 25  1  6  0  0  0
  5  3  1  0  0  0  0
  5 11  1  0  0  0  0
  6  8  1  0  0  0  0
  8  2  2  0  0  0  0
  9  8  1  0  0  0  0
 10 20  1  0  0  0  0
 11 14  1  6  0  0  0
 12  7  1  6  0  0  0
 12  9  1  0  0  0  0
 12  5  1  0  0  0  0
 12 11  1  0  0  0  0
 13 14  1  0  0  0  0
 14 15  2  0  0  0  0
 15 18  1  0  0  0  0
 17 18  1  0  0  0  0
 18 16  2  0  0  0  0
 19 13  1  0  0  0  0
 19 17  2  0  0  0  0
 20 21  1  0  0  0  0
 20 22  1  0  0  0  0
 23 20  1  0  0  0  0
 24 25  1  0  0  0  0
 27 31  1  0  0  0  0
 28 32  1  6  0  0  0
 28 30  1  0  0  0  0
 28 27  1  0  0  0  0
 29 31  1  0  0  0  0
 30 34  1  6  0  0  0
 30 29  1  0  0  0  0
 31 26  1  1  0  0  0
 33 32  1  0  0  0  0
 35 34  1  0  0  0  0
 36 35  2  0  0  0  0
 37 35  1  0  0  0  0
M  END
>  <MODEL>
5

>  <REMARK>
 VINA RESULT:      -7.1      4.080      8.279
  Name = 
  8 active torsions:
  status: ('A' for Active; 'I' for Inactive)
    1  A    between atoms: C_3  and  C_30
    2  A    between atoms: C_5  and  C_12
    3  A    between atoms: C_6  and  C_31
    4  A    between atoms: C_11  and  O_26
    5  A    between atoms: C_13  and  C_20
    6  A    between atoms: C_14  and  O_27
    7  A    between atoms: C_20  and  C_36
    8  A    between atoms: O_26  and  C_33
                            x       y       z     vdW  Elec       q    Type
                         _______ _______ _______ _____ _____    ______ ____

>  <TORSDO>
F 8

$$$$
=
 OpenBabel11052419573D

 37 41  0  0  1  0  0  0  0  0999 V2000
  190.4210  175.0090  143.6840 C   0  0  2  0  0  3  0  0  0  0  0  0
  192.6380  173.9350  145.1120 N   0  0  0  0  0  0  0  0  0  0  0  0
  190.0970  175.4510  142.2610 C   0  0  0  0  0  2  0  0  0  0  0  0
  191.4430  175.9040  144.3550 C   0  0  0  0  0  0  0  0  0  0  0  0
  190.0980  174.1820  141.4060 C   0  0  1  0  0  0  0  0  0  0  0  0
  192.1700  171.7180  144.4730 N   0  0  0  0  0  1  0  0  0  0  0  0
  189.6470  171.8130  142.2930 C   0  0  0  0  0  1  0  0  0  0  0  0
  191.9030  173.1160  144.4260 C   0  0  0  0  0  0  0  0  0  0  0  0
  190.8750  173.6310  143.5770 N   0  0  0  0  0  0  0  0  0  0  0  0
  192.4680  175.3630  145.0590 C   0  0  0  0  0  0  0  0  0  0  0  0
  191.4290  173.4740  141.1060 C   0  0  1  0  0  3  0  0  0  0  0  0
  190.5580  173.0390  142.2930 C   0  0  2  0  0  0  0  0  0  0  0  0
  191.7260  171.0670  140.1600 C   0  0  0  0  0  2  0  0  0  0  0  0
  191.3730  172.5230  139.9390 C   0  0  0  0  0  0  0  0  0  0  0  0
  191.2410  173.0190  138.7030 C   0  0  0  0  0  3  0  0  0  0  0  0
  191.1600  172.6100  136.3750 O   0  0  0  0  0  0  0  0  0  0  0  0
  191.3130  170.6810  137.7340 C   0  0  0  0  0  3  0  0  0  0  0  0
  191.2470  172.1320  137.5350 C   0  0  0  0  0  0  0  0  0  0  0  0
  191.5030  170.1840  138.9560 C   0  0  0  0  0  3  0  0  0  0  0  0
  193.4760  176.2190  145.7850 C   0  0  0  0  0  0  0  0  0  0  0  0
  192.9010  176.7910  146.9070 F   0  0  0  0  0  0  0  0  0  0  0  0
  194.5510  175.4470  146.1880 F   0  0  0  0  0  0  0  0  0  0  0  0
  193.9230  177.2330  144.9580 F   0  0  0  0  0  0  0  0  0  0  0  0
  188.1910  174.9460  140.7200 O   0  0  0  0  0  1  0  0  0  0  0  0
  188.9640  173.8810  140.6360 O   0  0  0  0  0  0  0  0  0  0  0  0
  191.2260  177.3930  144.3190 C   0  0  0  0  0  2  0  0  0  0  0  0
  189.9420  176.9170  146.2850 O   0  0  0  0  0  0  0  0  0  0  0  0
  188.5840  176.9460  146.6390 C   0  0  1  0  0  3  0  0  0  0  0  0
  188.7620  177.8460  144.4420 C   0  0  0  0  0  2  0  0  0  0  0  0
  187.7720  177.2430  145.3950 C   0  0  2  0  0  3  0  0  0  0  0  0
  190.0670  177.8170  145.2140 C   0  0  2  0  0  3  0  0  0  0  0  0
  188.1650  175.6210  147.2630 C   0  0  0  0  0  2  0  0  0  0  0  0
  189.2000  174.6860  147.1770 O   0  0  0  0  0  1  0  0  0  0  0  0
  186.6800  178.1250  145.6660 O   0  0  0  0  0  0  0  0  0  0  0  0
  185.3340  177.7400  145.6850 C   0  0  0  0  0  0  0  0  0  0  0  0
  184.9520  176.8700  146.5110 O   0  0  0  0  0  1  0  0  0  0  0  0
  184.4110  178.3000  144.8100 O   0  0  0  0  0  0  0  0  0  0  0  0
  1  3  1  6  0  0  0
  1  4  1  0  0  0  0
  4 10  2  0  0  0  0
  5 25  1  6  0  0  0
  5  3  1  0  0  0  0
  5 12  1  0  0  0  0
  8  6  1  0  0  0  0
  8  2  2  0  0  0  0
  9  1  1  0  0  0  0
  9  8  1  0  0  0  0
 10  2  1  0  0  0  0
 10 20  1  0  0  0  0
 11 14  1  6  0  0  0
 11  5  1  0  0  0  0
 11 12  1  0  0  0  0
 12  7  1  6  0  0  0
 12  9  1  0  0  0  0
 14 13  1  0  0  0  0
 15 14  2  0  0  0  0
 16 18  2  0  0  0  0
 17 19  2  0  0  0  0
 18 17  1  0  0  0  0
 18 15  1  0  0  0  0
 19 13  1  0  0  0  0
 20 22  1  0  0  0  0
 20 21  1  0  0  0  0
 23 20  1  0  0  0  0
 25 24  1  0  0  0  0
 26  4  1  0  0  0  0
 27 28  1  0  0  0  0
 28 32  1  6  0  0  0
 29 31  1  0  0  0  0
 29 30  1  0  0  0  0
 30 34  1  1  0  0  0
 30 28  1  0  0  0  0
 31 26  1  6  0  0  0
 31 27  1  0  0  0  0
 33 32  1  0  0  0  0
 34 35  1  0  0  0  0
 35 36  1  0  0  0  0
 37 35  2  0  0  0  0
M  END
>  <MODEL>
6

>  <REMARK>
 VINA RESULT:      -7.1      4.456      6.410
  Name = 
  8 active torsions:
  status: ('A' for Active; 'I' for Inactive)
    1  A    between atoms: C_3  and  C_30
    2  A    between atoms: C_5  and  C_12
    3  A    between atoms: C_6  and  C_31
    4  A    between atoms: C_11  and  O_26
    5  A    between atoms: C_13  and  C_20
    6  A    between atoms: C_14  and  O_27
    7  A    between atoms: C_20  and  C_36
    8  A    between atoms: O_26  and  C_33
                            x       y       z     vdW  Elec       q    Type
                         _______ _______ _______ _____ _____    ______ ____

>  <TORSDO>
F 8

$$$$
=
 OpenBabel11052419573D

 37 41  0  0  1  0  0  0  0  0999 V2000
  191.4040  175.1290  143.6130 C   0  0  2  0  0  3  0  0  0  0  0  0
  190.2850  172.5510  144.0640 N   0  0  0  0  0  0  0  0  0  0  0  0
  190.9580  176.4750  143.0500 C   0  0  0  0  0  2  0  0  0  0  0  0
  191.4600  174.0440  142.5580 C   0  0  0  0  0  0  0  0  0  0  0  0
  189.9320  177.0360  144.0360 C   0  0  1  0  0  0  0  0  0  0  0  0
  189.3280  173.1580  146.1270 N   0  0  0  0  0  1  0  0  0  0  0  0
  189.8120  176.4330  146.5320 C   0  0  0  0  0  1  0  0  0  0  0  0
  190.0530  173.4750  144.9420 C   0  0  0  0  0  0  0  0  0  0  0  0
  190.4660  174.8190  144.6820 N   0  0  0  0  0  0  0  0  0  0  0  0
  190.9510  172.8140  142.8160 C   0  0  0  0  0  0  0  0  0  0  0  0
  188.5440  176.3830  144.1370 C   0  0  1  0  0  3  0  0  0  0  0  0
  189.6800  175.9660  145.0840 C   0  0  2  0  0  0  0  0  0  0  0  0
  186.8500  176.7690  146.0760 C   0  0  0  0  0  2  0  0  0  0  0  0
  187.5010  177.2470  144.7940 C   0  0  0  0  0  0  0  0  0  0  0  0
  187.0080  178.2940  144.1220 C   0  0  0  0  0  3  0  0  0  0  0  0
  185.4620  180.0830  144.0450 O   0  0  0  0  0  0  0  0  0  0  0  0
  185.4810  178.8500  146.0630 C   0  0  0  0  0  3  0  0  0  0  0  0
  185.9450  179.1240  144.6990 C   0  0  0  0  0  0  0  0  0  0  0  0
  185.9250  177.7760  146.7150 C   0  0  0  0  0  3  0  0  0  0  0  0
  191.0340  171.6910  141.8120 C   0  0  0  0  0  0  0  0  0  0  0  0
  190.3210  170.5920  142.2590 F   0  0  0  0  0  0  0  0  0  0  0  0
  190.5020  172.0970  140.6010 F   0  0  0  0  0  0  0  0  0  0  0  0
  192.3520  171.3120  141.6300 F   0  0  0  0  0  0  0  0  0  0  0  0
  191.1480  178.8230  143.8960 O   0  0  0  0  0  1  0  0  0  0  0  0
  190.1360  178.3170  144.5720 O   0  0  0  0  0  0  0  0  0  0  0  0
  192.1930  174.3290  141.2740 C   0  0  0  0  0  2  0  0  0  0  0  0
  194.1480  175.3210  140.3070 O   0  0  0  0  0  0  0  0  0  0  0  0
  195.5320  175.2650  140.5390 C   0  0  1  0  0  3  0  0  0  0  0  0
  194.4730  174.0240  142.2740 C   0  0  0  0  0  2  0  0  0  0  0  0
  195.7970  174.2110  141.5920 C   0  0  2  0  0  3  0  0  0  0  0  0
  193.5510  174.9710  141.5300 C   0  0  2  0  0  3  0  0  0  0  0  0
  196.2770  174.9510  139.2480 C   0  0  0  0  0  2  0  0  0  0  0  0
  197.5550  175.5150  139.2660 O   0  0  0  0  0  1  0  0  0  0  0  0
  196.8210  174.6120  142.5060 O   0  0  0  0  0  0  0  0  0  0  0  0
  196.6110  175.4200  143.6300 C   0  0  0  0  0  0  0  0  0  0  0  0
  196.6160  174.8980  144.7760 O   0  0  0  0  0  1  0  0  0  0  0  0
  196.3970  176.7880  143.5050 O   0  0  0  0  0  0  0  0  0  0  0  0
  1  3  1  6  0  0  0
  1  9  1  0  0  0  0
  2  8  2  0  0  0  0
  3  5  1  0  0  0  0
  4 10  2  0  0  0  0
  4  1  1  0  0  0  0
  5 11  1  0  0  0  0
  5 25  1  1  0  0  0
  5 12  1  0  0  0  0
  8  6  1  0  0  0  0
  9  8  1  0  0  0  0
  9 12  1  0  0  0  0
 10  2  1  0  0  0  0
 11 14  1  1  0  0  0
 11 12  1  0  0  0  0
 12  7  1  1  0  0  0
 13 19  1  0  0  0  0
 14 13  1  0  0  0  0
 15 18  1  0  0  0  0
 15 14  2  0  0  0  0
 16 18  2  0  0  0  0
 17 19  2  0  0  0  0
 18 17  1  0  0  0  0
 20 21  1  0  0  0  0
 20 10  1  0  0  0  0
 22 20  1  0  0  0  0
 23 20  1  0  0  0  0
 24 25  1  0  0  0  0
 26  4  1  0  0  0  0
 27 28  1  0  0  0  0
 27 31  1  0  0  0  0
 28 32  1  6  0  0  0
 28 30  1  0  0  0  0
 30 29  1  0  0  0  0
 30 34  1  1  0  0  0
 31 26  1  6  0  0  0
 31 29  1  0  0  0  0
 32 33  1  0  0  0  0
 34 35  1  0  0  0  0
 35 36  1  0  0  0  0
 37 35  2  0  0  0  0
M  END
>  <MODEL>
7

>  <REMARK>
 VINA RESULT:      -7.0      4.192      9.146
  Name = 
  8 active torsions:
  status: ('A' for Active; 'I' for Inactive)
    1  A    between atoms: C_3  and  C_30
    2  A    between atoms: C_5  and  C_12
    3  A    between atoms: C_6  and  C_31
    4  A    between atoms: C_11  and  O_26
    5  A    between atoms: C_13  and  C_20
    6  A    between atoms: C_14  and  O_27
    7  A    between atoms: C_20  and  C_36
    8  A    between atoms: O_26  and  C_33
                            x       y       z     vdW  Elec       q    Type
                         _______ _______ _______ _____ _____    ______ ____

>  <TORSDO>
F 8

$$$$
=
 OpenBabel11052419573D

 37 41  0  0  1  0  0  0  0  0999 V2000
  189.9430  175.2030  142.4030 C   0  0  2  0  0  3  0  0  0  0  0  0
  191.2100  173.5960  144.3820 N   0  0  0  0  0  0  0  0  0  0  0  0
  188.5350  175.6770  142.0600 C   0  0  0  0  0  2  0  0  0  0  0  0
  190.1160  173.7090  142.2210 C   0  0  0  0  0  0  0  0  0  0  0  0
  188.1200  176.6360  143.1770 C   0  0  1  0  0  0  0  0  0  0  0  0
  191.3690  175.3610  145.9310 N   0  0  0  0  0  1  0  0  0  0  0  0
  189.7500  177.9770  144.6430 C   0  0  0  0  0  1  0  0  0  0  0  0
  190.9480  174.8310  144.6790 C   0  0  0  0  0  0  0  0  0  0  0  0
  190.1800  175.6280  143.7740 N   0  0  0  0  0  0  0  0  0  0  0  0
  190.7570  172.9760  143.1650 C   0  0  0  0  0  0  0  0  0  0  0  0
  187.8170  176.0800  144.5780 C   0  0  1  0  0  3  0  0  0  0  0  0
  189.2150  176.6080  144.2280 C   0  0  2  0  0  0  0  0  0  0  0  0
  187.4700  177.2340  146.8850 C   0  0  0  0  0  2  0  0  0  0  0  0
  187.0240  177.0120  145.4550 C   0  0  0  0  0  0  0  0  0  0  0  0
  185.8280  177.4400  145.0340 C   0  0  0  0  0  3  0  0  0  0  0  0
  183.8570  178.6630  145.4960 O   0  0  0  0  0  0  0  0  0  0  0  0
  185.5210  178.7570  147.1740 C   0  0  0  0  0  3  0  0  0  0  0  0
  184.9950  178.2970  145.8850 C   0  0  0  0  0  0  0  0  0  0  0  0
  186.6850  178.2900  147.6250 C   0  0  0  0  0  3  0  0  0  0  0  0
  190.9970  171.4960  142.9980 C   0  0  0  0  0  0  0  0  0  0  0  0
  191.9200  171.2700  141.9910 F   0  0  0  0  0  0  0  0  0  0  0  0
  191.4900  170.9590  144.1740 F   0  0  0  0  0  0  0  0  0  0  0  0
  189.8170  170.8580  142.6610 F   0  0  0  0  0  0  0  0  0  0  0  0
  187.6220  177.9420  141.5220 O   0  0  0  0  0  1  0  0  0  0  0  0
  187.6930  177.9300  142.8390 O   0  0  0  0  0  0  0  0  0  0  0  0
  189.6690  173.0880  140.9250 C   0  0  0  0  0  2  0  0  0  0  0  0
  189.4260  173.8240  138.6580 O   0  0  0  0  0  0  0  0  0  0  0  0
  190.2100  173.7910  137.4930 C   0  0  1  0  0  3  0  0  0  0  0  0
  191.5510  172.9510  139.2720 C   0  0  0  0  0  2  0  0  0  0  0  0
  191.4500  172.9690  137.7750 C   0  0  2  0  0  3  0  0  0  0  0  0
  190.3390  173.7430  139.7230 C   0  0  2  0  0  3  0  0  0  0  0  0
  189.4170  173.2060  136.3320 C   0  0  0  0  0  2  0  0  0  0  0  0
  189.8860  173.7020  135.1130 O   0  0  0  0  0  1  0  0  0  0  0  0
  192.6150  173.5300  137.1640 O   0  0  0  0  0  0  0  0  0  0  0  0
  193.0220  174.8620  137.3020 C   0  0  0  0  0  0  0  0  0  0  0  0
  192.6620  175.7090  136.4440 O   0  0  0  0  0  0  0  0  0  0  0  0
  193.8160  175.2660  138.3690 O   0  0  0  0  0  1  0  0  0  0  0  0
  1  3  1  1  0  0  0
  1  9  1  0  0  0  0
  2  8  2  0  0  0  0
  3  5  1  0  0  0  0
  4  1  1  0  0  0  0
  4 10  2  0  0  0  0
  5 25  1  6  0  0  0
  5 12  1  0  0  0  0
  5 11  1  0  0  0  0
  8  6  1  0  0  0  0
  9 12  1  0  0  0  0
  9  8  1  0  0  0  0
 10  2  1  0  0  0  0
 11 14  1  1  0  0  0
 12 11  1  0  0  0  0
 12  7  1  1  0  0  0
 13 19  1  0  0  0  0
 14 13  1  0  0  0  0
 15 14  2  0  0  0  0
 15 18  1  0  0  0  0
 16 18  2  0  0  0  0
 17 19  2  0  0  0  0
 18 17  1  0  0  0  0
 20 10  1  0  0  0  0
 20 22  1  0  0  0  0
 21 20  1  0  0  0  0
 23 20  1  0  0  0  0
 24 25  1  0  0  0  0
 26  4  1  0  0  0  0
 27 31  1  0  0  0  0
 28 32  1  6  0  0  0
 28 30  1  0  0  0  0
 28 27  1  0  0  0  0
 29 31  1  0  0  0  0
 30 34  1  6  0  0  0
 30 29  1  0  0  0  0
 31 26  1  1  0  0  0
 33 32  1  0  0  0  0
 34 35  1  0  0  0  0
 35 37  1  0  0  0  0
 36 35  2  0  0  0  0
M  END
>  <MODEL>
8

>  <REMARK>
 VINA RESULT:      -7.0      4.787      8.076
  Name = 
  8 active torsions:
  status: ('A' for Active; 'I' for Inactive)
    1  A    between atoms: C_3  and  C_30
    2  A    between atoms: C_5  and  C_12
    3  A    between atoms: C_6  and  C_31
    4  A    between atoms: C_11  and  O_26
    5  A    between atoms: C_13  and  C_20
    6  A    between atoms: C_14  and  O_27
    7  A    between atoms: C_20  and  C_36
    8  A    between atoms: O_26  and  C_33
                            x       y       z     vdW  Elec       q    Type
                         _______ _______ _______ _____ _____    ______ ____

>  <TORSDO>
F 8

$$$$
=
 OpenBabel11052419573D

 37 41  0  0  1  0  0  0  0  0999 V2000
  190.6260  175.2240  143.5620 C   0  0  2  0  0  3  0  0  0  0  0  0
  192.3490  177.1600  144.7400 N   0  0  0  0  0  0  0  0  0  0  0  0
  189.2610  174.6040  143.8400 C   0  0  0  0  0  2  0  0  0  0  0  0
  191.6630  174.8390  144.5970 C   0  0  0  0  0  0  0  0  0  0  0  0
  188.2330  175.7190  143.6340 C   0  0  1  0  0  0  0  0  0  0  0  0
  191.2570  178.9770  143.7170 N   0  0  0  0  0  1  0  0  0  0  0  0
  188.5780  177.7770  142.1330 C   0  0  0  0  0  1  0  0  0  0  0  0
  191.3790  177.5850  143.9910 C   0  0  0  0  0  0  0  0  0  0  0  0
  190.4040  176.6610  143.5050 N   0  0  0  0  0  0  0  0  0  0  0  0
  192.4940  175.7780  145.1130 C   0  0  0  0  0  0  0  0  0  0  0  0
  188.1500  176.8690  144.6510 C   0  0  1  0  0  3  0  0  0  0  0  0
  189.0020  177.0030  143.3800 C   0  0  2  0  0  0  0  0  0  0  0  0
  186.7400  178.7970  143.6160 C   0  0  0  0  0  2  0  0  0  0  0  0
  186.8640  177.6500  144.5970 C   0  0  0  0  0  0  0  0  0  0  0  0
  185.9530  177.4690  145.5610 C   0  0  0  0  0  3  0  0  0  0  0  0
  183.8840  178.1050  146.5120 O   0  0  0  0  0  0  0  0  0  0  0  0
  184.4390  179.1880  144.4850 C   0  0  0  0  0  3  0  0  0  0  0  0
  184.7160  178.2560  145.5820 C   0  0  0  0  0  0  0  0  0  0  0  0
  185.3650  179.4160  143.5530 C   0  0  0  0  0  3  0  0  0  0  0  0
  193.5750  175.4270  146.1060 C   0  0  0  0  0  0  0  0  0  0  0  0
  194.6150  174.7710  145.4720 F   0  0  0  0  0  0  0  0  0  0  0  0
  194.0730  176.5770  146.6910 F   0  0  0  0  0  0  0  0  0  0  0  0
  193.0670  174.5960  147.0870 F   0  0  0  0  0  0  0  0  0  0  0  0
  187.5150  174.4490  142.0330 O   0  0  0  0  0  1  0  0  0  0  0  0
  187.1720  175.5080  142.7390 O   0  0  0  0  0  0  0  0  0  0  0  0
  191.8230  173.3830  144.9450 C   0  0  0  0  0  2  0  0  0  0  0  0
  191.9710  172.0940  142.9300 O   0  0  0  0  0  0  0  0  0  0  0  0
  192.7040  170.9800  142.4930 C   0  0  1  0  0  3  0  0  0  0  0  0
  193.5290  171.5680  144.6480 C   0  0  0  0  0  2  0  0  0  0  0  0
  193.4880  170.4330  143.6680 C   0  0  2  0  0  3  0  0  0  0  0  0
  192.7380  172.6640  143.9600 C   0  0  2  0  0  3  0  0  0  0  0  0
  191.7750  169.9220  141.9130 C   0  0  0  0  0  2  0  0  0  0  0  0
  190.4420  170.3280  142.0130 O   0  0  0  0  0  1  0  0  0  0  0  0
  194.7970  170.0030  143.2860 O   0  0  0  0  0  0  0  0  0  0  0  0
  195.8530  169.7850  144.1790 C   0  0  0  0  0  0  0  0  0  0  0  0
  195.8340  168.7690  144.9220 O   0  0  0  0  0  1  0  0  0  0  0  0
  196.9230  170.6700  144.2600 O   0  0  0  0  0  0  0  0  0  0  0  0
  1  3  1  1  0  0  0
  1  4  1  0  0  0  0
  2 10  1  0  0  0  0
  4 26  1  0  0  0  0
  4 10  2  0  0  0  0
  5 25  1  6  0  0  0
  5  3  1  0  0  0  0
  5 11  1  0  0  0  0
  6  8  1  0  0  0  0
  8  2  2  0  0  0  0
  9  1  1  0  0  0  0
  9  8  1  0  0  0  0
 10 20  1  0  0  0  0
 11 14  1  6  0  0  0
 12  7  1  6  0  0  0
 12  9  1  0  0  0  0
 12  5  1  0  0  0  0
 12 11  1  0  0  0  0
 13 14  1  0  0  0  0
 14 15  2  0  0  0  0
 15 18  1  0  0  0  0
 17 18  1  0  0  0  0
 18 16  2  0  0  0  0
 19 13  1  0  0  0  0
 19 17  2  0  0  0  0
 20 22  1  0  0  0  0
 20 23  1  0  0  0  0
 21 20  1  0  0  0  0
 24 25  1  0  0  0  0
 27 31  1  0  0  0  0
 28 32  1  1  0  0  0
 28 27  1  0  0  0  0
 28 30  1  0  0  0  0
 30 34  1  6  0  0  0
 30 29  1  0  0  0  0
 31 29  1  0  0  0  0
 31 26  1  1  0  0  0
 32 33  1  0  0  0  0
 34 35  1  0  0  0  0
 35 37  2  0  0  0  0
 35 36  1  0  0  0  0
M  END
>  <MODEL>
9

>  <REMARK>
 VINA RESULT:      -7.0      4.208      9.386
  Name = 
  8 active torsions:
  status: ('A' for Active; 'I' for Inactive)
    1  A    between atoms: C_3  and  C_30
    2  A    between atoms: C_5  and  C_12
    3  A    between atoms: C_6  and  C_31
    4  A    between atoms: C_11  and  O_26
    5  A    between atoms: C_13  and  C_20
    6  A    between atoms: C_14  and  O_27
    7  A    between atoms: C_20  and  C_36
    8  A    between atoms: O_26  and  C_33
                            x       y       z     vdW  Elec       q    Type
                         _______ _______ _______ _____ _____    ______ ____

>  <TORSDO>
F 8

$$$$
