=
 OpenBabel11052417143D

 30 33  0  0  1  0  0  0  0  0999 V2000
  187.6960  176.2810  146.0880 C   0  0  0  0  0  2  0  0  0  0  0  0
  185.6460  177.4380  147.1360 C   0  0  2  0  0  3  0  0  0  0  0  0
  187.4110  178.6280  142.5560 N   0  0  0  0  0  0  0  0  0  0  0  0
  188.4470  176.0330  144.7570 C   0  0  1  0  0  3  0  0  0  0  0  0
  188.4900  178.1760  142.0090 C   0  0  0  0  0  0  0  0  0  0  0  0
  184.2590  178.0020  146.7920 C   0  0  0  0  0  2  0  0  0  0  0  0
  186.4240  178.4430  147.9740 C   0  0  0  0  0  1  0  0  0  0  0  0
  187.2550  177.7690  143.7180 C   0  0  1  0  0  3  0  0  0  0  0  0
  184.2060  178.8280  145.5200 C   0  0  0  0  0  3  0  0  0  0  0  0
  186.3880  177.0660  145.8520 C   0  0  1  0  0  3  0  0  0  0  0  0
  188.5890  177.3180  144.0730 N   0  0  2  0  0  0  0  0  0  0  0  0
  188.9710  178.6460  140.8340 F   0  0  0  0  0  0  0  0  0  0  0  0
  189.1810  177.2250  142.8100 N   0  0  0  0  0  2  0  0  0  0  0  0
  185.2330  178.9260  144.6580 C   0  0  0  0  0  3  0  0  0  0  0  0
  186.5690  178.3030  144.9530 C   0  0  2  0  0  3  0  0  0  0  0  0
  191.3540  173.8000  144.5640 O   0  0  0  0  0  0  0  0  0  0  0  0
  190.2690  174.3500  144.2330 C   0  0  0  0  0  0  0  0  0  0  0  0
  189.7540  175.4330  145.0390 N   0  0  0  0  0  0  0  0  0  0  0  0
  188.7210  172.7360  142.9900 C   0  0  0  0  0  3  0  0  0  0  0  0
  189.6830  174.3690  141.8600 O   0  0  0  0  0  0  0  0  0  0  0  0
  189.5690  173.8240  143.0450 C   0  0  0  0  0  0  0  0  0  0  0  0
  188.3330  172.6550  141.6650 C   0  0  0  0  0  3  0  0  0  0  0  0
  188.9640  173.6910  141.0020 C   0  0  0  0  0  3  0  0  0  0  0  0
  190.4380  175.7690  146.2870 C   0  0  0  0  0  2  0  0  0  0  0  0
  191.6420  176.6510  145.9980 C   0  0  0  0  0  2  0  0  0  0  0  0
  192.7680  176.3540  146.9680 C   0  0  0  0  0  2  0  0  0  0  0  0
  193.9360  175.7060  146.2450 C   0  0  0  0  0  2  0  0  0  0  0  0
  194.9370  177.9240  145.7250 O   0  0  0  0  0  1  0  0  0  0  0  0
  194.5170  176.6790  145.2810 C   0  0  0  0  0  0  0  0  0  0  0  0
  194.6340  176.3720  144.0660 O   0  0  0  0  0  0  0  0  0  0  0  0
  2  7  1  6  0  0  0
  4 18  1  1  0  0  0
  4  1  1  0  0  0  0
  5  3  2  0  0  0  0
  5 13  1  0  0  0  0
  6  2  1  0  0  0  0
  8  3  1  6  0  0  0
  8 11  1  0  0  0  0
  8 15  1  0  0  0  0
  9  6  1  0  0  0  0
 10  1  1  1  0  0  0
 10  2  1  0  0  0  0
 11 13  1  6  0  0  0
 11  4  1  0  0  0  0
 12  5  1  0  0  0  0
 14  9  2  0  0  0  0
 15 14  1  6  0  0  0
 15 10  1  0  0  0  0
 17 16  2  0  0  0  0
 17 18  1  0  0  0  0
 18 24  1  0  0  0  0
 19 21  2  0  0  0  0
 20 21  1  0  0  0  0
 21 17  1  0  0  0  0
 22 19  1  0  0  0  0
 23 22  2  0  0  0  0
 23 20  1  0  0  0  0
 25 24  1  0  0  0  0
 25 26  1  0  0  0  0
 27 26  1  0  0  0  0
 29 28  1  0  0  0  0
 29 27  1  0  0  0  0
 30 29  2  0  0  0  0
M  END
>  <MODEL>
1

>  <REMARK>
 VINA RESULT:      -7.5      0.000      0.000
  Name = 
  7 active torsions:
  status: ('A' for Active; 'I' for Inactive)
    1  A    between atoms: C_4  and  N_13
    2  A    between atoms: C_7  and  C_15
    3  A    between atoms: C_7  and  C_16
    4  A    between atoms: C_8  and  C_12
    5  A    between atoms: N_13  and  C_27
    6  A    between atoms: C_16  and  C_30
    7  A    between atoms: C_27  and  C_30
                            x       y       z     vdW  Elec       q    Type
                         _______ _______ _______ _____ _____    ______ ____

>  <TORSDO>
F 7

$$$$
=
 OpenBabel11052417143D

 30 33  0  0  1  0  0  0  0  0999 V2000
  188.0710  177.2120  142.8800 C   0  0  0  0  0  2  0  0  0  0  0  0
  186.1030  178.8490  143.1730 C   0  0  2  0  0  3  0  0  0  0  0  0
  187.8790  176.0090  146.9530 N   0  0  0  0  0  0  0  0  0  0  0  0
  189.1330  176.3850  143.6450 C   0  0  1  0  0  3  0  0  0  0  0  0
  188.7830  175.0910  146.8630 C   0  0  0  0  0  0  0  0  0  0  0  0
  185.4920  179.8540  144.1620 C   0  0  0  0  0  2  0  0  0  0  0  0
  185.0220  177.9170  142.6440 C   0  0  0  0  0  1  0  0  0  0  0  0
  187.9560  176.6650  145.6580 C   0  0  1  0  0  3  0  0  0  0  0  0
  185.4510  179.3820  145.6030 C   0  0  0  0  0  3  0  0  0  0  0  0
  187.2410  178.0830  143.8480 C   0  0  1  0  0  3  0  0  0  0  0  0
  188.4550  175.6690  144.7260 N   0  0  2  0  0  0  0  0  0  0  0  0
  189.1080  174.2760  147.8940 F   0  0  0  0  0  0  0  0  0  0  0  0
  189.3180  174.9420  145.5530 N   0  0  0  0  0  2  0  0  0  0  0  0
  186.0500  178.2570  146.0310 C   0  0  0  0  0  3  0  0  0  0  0  0
  186.7220  177.3120  145.0760 C   0  0  2  0  0  3  0  0  0  0  0  0
  191.7460  174.4650  141.9240 O   0  0  0  0  0  0  0  0  0  0  0  0
  191.2060  175.1990  142.7960 C   0  0  0  0  0  0  0  0  0  0  0  0
  189.7870  175.4550  142.7200 N   0  0  0  0  0  0  0  0  0  0  0  0
  192.6310  175.1350  144.9200 C   0  0  0  0  0  3  0  0  0  0  0  0
  192.4410  177.0410  143.8240 O   0  0  0  0  0  0  0  0  0  0  0  0
  192.0780  175.7830  143.8340 C   0  0  0  0  0  0  0  0  0  0  0  0
  193.3550  176.1090  145.5840 C   0  0  0  0  0  3  0  0  0  0  0  0
  193.2010  177.2780  144.8630 C   0  0  0  0  0  3  0  0  0  0  0  0
  189.0440  174.9650  141.5600 C   0  0  0  0  0  2  0  0  0  0  0  0
  188.1250  173.8270  141.9750 C   0  0  0  0  0  2  0  0  0  0  0  0
  188.8500  172.4980  141.9020 C   0  0  0  0  0  2  0  0  0  0  0  0
  189.1830  171.9960  143.2960 C   0  0  0  0  0  2  0  0  0  0  0  0
  191.3960  171.8850  144.4280 O   0  0  0  0  0  1  0  0  0  0  0  0
  190.6060  171.5620  143.3350 C   0  0  0  0  0  0  0  0  0  0  0  0
  191.0900  170.8990  142.3820 O   0  0  0  0  0  0  0  0  0  0  0  0
  1  4  1  0  0  0  0
  2  7  1  1  0  0  0
  2 10  1  0  0  0  0
  2  6  1  0  0  0  0
  4 18  1  6  0  0  0
  4 11  1  0  0  0  0
  5  3  2  0  0  0  0
  5 12  1  0  0  0  0
  6  9  1  0  0  0  0
  8  3  1  1  0  0  0
  9 14  2  0  0  0  0
 10  1  1  6  0  0  0
 10 15  1  0  0  0  0
 11 13  1  1  0  0  0
 11  8  1  0  0  0  0
 13  5  1  0  0  0  0
 15  8  1  0  0  0  0
 15 14  1  1  0  0  0
 16 17  2  0  0  0  0
 17 21  1  0  0  0  0
 18 17  1  0  0  0  0
 19 22  1  0  0  0  0
 20 21  1  0  0  0  0
 20 23  1  0  0  0  0
 21 19  2  0  0  0  0
 23 22  2  0  0  0  0
 24 25  1  0  0  0  0
 24 18  1  0  0  0  0
 26 25  1  0  0  0  0
 26 27  1  0  0  0  0
 27 29  1  0  0  0  0
 29 28  1  0  0  0  0
 30 29  2  0  0  0  0
M  END
>  <MODEL>
2

>  <REMARK>
 VINA RESULT:      -7.4      2.273      4.857
  Name = 
  7 active torsions:
  status: ('A' for Active; 'I' for Inactive)
    1  A    between atoms: C_4  and  N_13
    2  A    between atoms: C_7  and  C_15
    3  A    between atoms: C_7  and  C_16
    4  A    between atoms: C_8  and  C_12
    5  A    between atoms: N_13  and  C_27
    6  A    between atoms: C_16  and  C_30
    7  A    between atoms: C_27  and  C_30
                            x       y       z     vdW  Elec       q    Type
                         _______ _______ _______ _____ _____    ______ ____

>  <TORSDO>
F 7

$$$$
=
 OpenBabel11052417143D

 30 33  0  0  1  0  0  0  0  0999 V2000
  189.1250  176.7130  142.7870 C   0  0  0  0  0  2  0  0  0  0  0  0
  187.1280  178.3120  142.4860 C   0  0  2  0  0  3  0  0  0  0  0  0
  188.0150  175.8280  146.7940 N   0  0  0  0  0  0  0  0  0  0  0  0
  189.9910  175.9780  143.8390 C   0  0  1  0  0  3  0  0  0  0  0  0
  188.9240  174.9320  146.9880 C   0  0  0  0  0  0  0  0  0  0  0  0
  186.2980  179.3740  143.2240 C   0  0  0  0  0  2  0  0  0  0  0  0
  186.2060  177.3110  141.8040 C   0  0  0  0  0  1  0  0  0  0  0  0
  188.3810  176.3820  145.5010 C   0  0  1  0  0  3  0  0  0  0  0  0
  185.9310  179.0160  144.6520 C   0  0  0  0  0  3  0  0  0  0  0  0
  188.0880  177.6340  143.4640 C   0  0  1  0  0  3  0  0  0  0  0  0
  189.0900  175.3300  144.7930 N   0  0  2  0  0  0  0  0  0  0  0  0
  189.0120  174.2090  148.1300 F   0  0  0  0  0  0  0  0  0  0  0  0
  189.7460  174.6950  145.8520 N   0  0  0  0  0  2  0  0  0  0  0  0
  186.4260  177.9450  145.2970 C   0  0  0  0  0  3  0  0  0  0  0  0
  187.3080  176.9470  144.6010 C   0  0  2  0  0  3  0  0  0  0  0  0
  192.9640  174.0560  142.8670 O   0  0  0  0  0  0  0  0  0  0  0  0
  192.2380  174.8450  143.5310 C   0  0  0  0  0  0  0  0  0  0  0  0
  190.8480  174.9960  143.1680 N   0  0  0  0  0  0  0  0  0  0  0  0
  193.0350  175.1820  145.9390 C   0  0  0  0  0  3  0  0  0  0  0  0
  193.3770  176.7930  144.4700 O   0  0  0  0  0  0  0  0  0  0  0  0
  192.8720  175.5960  144.6320 C   0  0  0  0  0  0  0  0  0  0  0  0
  193.6750  176.2350  146.5680 C   0  0  0  0  0  3  0  0  0  0  0  0
  193.8610  177.2150  145.6110 C   0  0  0  0  0  3  0  0  0  0  0  0
  190.3590  174.3330  141.9600 C   0  0  0  0  0  2  0  0  0  0  0  0
  189.4910  173.1440  142.3360 C   0  0  0  0  0  2  0  0  0  0  0  0
  188.2470  173.0940  141.4720 C   0  0  0  0  0  2  0  0  0  0  0  0
  188.3600  174.0770  140.3200 C   0  0  0  0  0  2  0  0  0  0  0  0
  188.0570  173.9880  137.8520 O   0  0  0  0  0  0  0  0  0  0  0  0
  188.3560  173.3280  139.0340 C   0  0  0  0  0  0  0  0  0  0  0  0
  188.6310  172.1000  139.0180 O   0  0  0  0  0  1  0  0  0  0  0  0
  1  4  1  0  0  0  0
  2  7  1  1  0  0  0
  2  6  1  0  0  0  0
  2 10  1  0  0  0  0
  3  5  2  0  0  0  0
  4 18  1  6  0  0  0
  4 11  1  0  0  0  0
  5 12  1  0  0  0  0
  6  9  1  0  0  0  0
  8  3  1  1  0  0  0
  9 14  2  0  0  0  0
 10  1  1  6  0  0  0
 10 15  1  0  0  0  0
 11  8  1  0  0  0  0
 11 13  1  1  0  0  0
 13  5  1  0  0  0  0
 15 14  1  1  0  0  0
 15  8  1  0  0  0  0
 16 17  2  0  0  0  0
 17 21  1  0  0  0  0
 18 17  1  0  0  0  0
 19 22  1  0  0  0  0
 20 21  1  0  0  0  0
 20 23  1  0  0  0  0
 21 19  2  0  0  0  0
 23 22  2  0  0  0  0
 24 25  1  0  0  0  0
 24 18  1  0  0  0  0
 26 25  1  0  0  0  0
 27 26  1  0  0  0  0
 28 29  2  0  0  0  0
 29 27  1  0  0  0  0
 30 29  1  0  0  0  0
M  END
>  <MODEL>
3

>  <REMARK>
 VINA RESULT:      -7.3      2.406      5.678
  Name = 
  7 active torsions:
  status: ('A' for Active; 'I' for Inactive)
    1  A    between atoms: C_4  and  N_13
    2  A    between atoms: C_7  and  C_15
    3  A    between atoms: C_7  and  C_16
    4  A    between atoms: C_8  and  C_12
    5  A    between atoms: N_13  and  C_27
    6  A    between atoms: C_16  and  C_30
    7  A    between atoms: C_27  and  C_30
                            x       y       z     vdW  Elec       q    Type
                         _______ _______ _______ _____ _____    ______ ____

>  <TORSDO>
F 7

$$$$
=
 OpenBabel11052417143D

 30 33  0  0  1  0  0  0  0  0999 V2000
  188.1110  177.1880  142.8720 C   0  0  0  0  0  2  0  0  0  0  0  0
  186.1450  178.8320  143.1380 C   0  0  2  0  0  3  0  0  0  0  0  0
  187.8830  176.0110  146.9510 N   0  0  0  0  0  0  0  0  0  0  0  0
  189.1640  176.3620  143.6510 C   0  0  1  0  0  3  0  0  0  0  0  0
  188.7850  175.0900  146.8730 C   0  0  0  0  0  0  0  0  0  0  0  0
  185.5290  179.8450  144.1160 C   0  0  0  0  0  2  0  0  0  0  0  0
  185.0660  177.8990  142.6070 C   0  0  0  0  0  1  0  0  0  0  0  0
  187.9720  176.6590  145.6530 C   0  0  1  0  0  3  0  0  0  0  0  0
  185.4750  179.3820  145.5600 C   0  0  0  0  0  3  0  0  0  0  0  0
  187.2760  178.0670  143.8280 C   0  0  1  0  0  3  0  0  0  0  0  0
  188.4760  175.6550  144.7310 N   0  0  2  0  0  0  0  0  0  0  0  0
  189.1000  174.2810  147.9120 F   0  0  0  0  0  0  0  0  0  0  0  0
  189.3300  174.9320  145.5690 N   0  0  0  0  0  2  0  0  0  0  0  0
  186.0680  178.2580  146.0000 C   0  0  0  0  0  3  0  0  0  0  0  0
  186.7450  177.3050  145.0560 C   0  0  2  0  0  3  0  0  0  0  0  0
  191.7830  174.4080  141.9770 O   0  0  0  0  0  0  0  0  0  0  0  0
  191.2370  175.1480  142.8390 C   0  0  0  0  0  0  0  0  0  0  0  0
  189.8230  175.4250  142.7360 N   0  0  0  0  0  0  0  0  0  0  0  0
  192.5400  177.0220  143.9970 C   0  0  0  0  0  3  0  0  0  0  0  0
  192.5440  175.0090  144.9000 O   0  0  0  0  0  0  0  0  0  0  0  0
  192.0970  175.7190  143.8950 C   0  0  0  0  0  0  0  0  0  0  0  0
  193.3090  177.0470  145.1460 C   0  0  0  0  0  3  0  0  0  0  0  0
  193.2830  175.7680  145.6690 C   0  0  0  0  0  3  0  0  0  0  0  0
  189.0950  174.9470  141.5620 C   0  0  0  0  0  2  0  0  0  0  0  0
  188.5250  173.5640  141.8320 C   0  0  0  0  0  2  0  0  0  0  0  0
  188.1380  172.8810  140.5350 C   0  0  0  0  0  2  0  0  0  0  0  0
  189.2540  173.0080  139.5130 C   0  0  0  0  0  2  0  0  0  0  0  0
  189.0110  172.8000  137.0460 O   0  0  0  0  0  0  0  0  0  0  0  0
  188.6840  173.4650  138.2170 C   0  0  0  0  0  0  0  0  0  0  0  0
  187.9020  174.4500  138.1840 O   0  0  0  0  0  1  0  0  0  0  0  0
  1  4  1  0  0  0  0
  2  7  1  1  0  0  0
  2 10  1  0  0  0  0
  2  6  1  0  0  0  0
  4 18  1  6  0  0  0
  4 11  1  0  0  0  0
  5  3  2  0  0  0  0
  5 12  1  0  0  0  0
  6  9  1  0  0  0  0
  8  3  1  1  0  0  0
  9 14  2  0  0  0  0
 10  1  1  6  0  0  0
 10 15  1  0  0  0  0
 11 13  1  1  0  0  0
 11  8  1  0  0  0  0
 13  5  1  0  0  0  0
 15  8  1  0  0  0  0
 15 14  1  1  0  0  0
 16 17  2  0  0  0  0
 17 21  1  0  0  0  0
 18 17  1  0  0  0  0
 19 22  1  0  0  0  0
 20 23  1  0  0  0  0
 21 19  2  0  0  0  0
 21 20  1  0  0  0  0
 22 23  2  0  0  0  0
 24 25  1  0  0  0  0
 24 18  1  0  0  0  0
 26 25  1  0  0  0  0
 27 26  1  0  0  0  0
 28 29  2  0  0  0  0
 29 27  1  0  0  0  0
 30 29  1  0  0  0  0
M  END
>  <MODEL>
4

>  <REMARK>
 VINA RESULT:      -7.2      2.475      5.602
  Name = 
  7 active torsions:
  status: ('A' for Active; 'I' for Inactive)
    1  A    between atoms: C_4  and  N_13
    2  A    between atoms: C_7  and  C_15
    3  A    between atoms: C_7  and  C_16
    4  A    between atoms: C_8  and  C_12
    5  A    between atoms: N_13  and  C_27
    6  A    between atoms: C_16  and  C_30
    7  A    between atoms: C_27  and  C_30
                            x       y       z     vdW  Elec       q    Type
                         _______ _______ _______ _____ _____    ______ ____

>  <TORSDO>
F 7

$$$$
=
 OpenBabel11052417143D

 30 33  0  0  1  0  0  0  0  0999 V2000
  188.2710  177.0450  145.4410 C   0  0  0  0  0  2  0  0  0  0  0  0
  186.6550  177.6320  147.3600 C   0  0  2  0  0  3  0  0  0  0  0  0
  185.4960  178.3480  142.4960 N   0  0  0  0  0  0  0  0  0  0  0  0
  188.3620  176.7900  143.9170 C   0  0  1  0  0  3  0  0  0  0  0  0
  186.2860  178.1840  141.4880 C   0  0  0  0  0  0  0  0  0  0  0  0
  185.1690  177.6050  147.7510 C   0  0  0  0  0  2  0  0  0  0  0  0
  187.2530  178.9950  147.6790 C   0  0  0  0  0  1  0  0  0  0  0  0
  186.2450  177.7550  143.5920 C   0  0  1  0  0  3  0  0  0  0  0  0
  184.2170  178.0730  146.6660 C   0  0  0  0  0  3  0  0  0  0  0  0
  186.8080  177.2700  145.8830 C   0  0  1  0  0  3  0  0  0  0  0  0
  187.6490  177.8700  143.2350 N   0  0  2  0  0  0  0  0  0  0  0  0
  185.9460  178.5280  140.2240 F   0  0  0  0  0  0  0  0  0  0  0  0
  187.5820  177.7170  141.8470 N   0  0  0  0  0  2  0  0  0  0  0  0
  184.6030  178.3290  145.4030 C   0  0  0  0  0  3  0  0  0  0  0  0
  186.0480  178.2740  144.9960 C   0  0  2  0  0  3  0  0  0  0  0  0
  191.5400  175.5680  142.5450 O   0  0  0  0  0  0  0  0  0  0  0  0
  190.3040  175.6110  142.7930 C   0  0  0  0  0  0  0  0  0  0  0  0
  189.7700  176.7440  143.5120 N   0  0  0  0  0  0  0  0  0  0  0  0
  189.2610  173.2870  143.0300 C   0  0  0  0  0  3  0  0  0  0  0  0
  188.8250  174.4670  141.2190 O   0  0  0  0  0  0  0  0  0  0  0  0
  189.4780  174.4700  142.3530 C   0  0  0  0  0  0  0  0  0  0  0  0
  188.4280  172.5530  142.2060 C   0  0  0  0  0  3  0  0  0  0  0  0
  188.1890  173.3310  141.0890 C   0  0  0  0  0  3  0  0  0  0  0  0
  190.6970  177.7400  144.0470 C   0  0  0  0  0  2  0  0  0  0  0  0
  191.9260  177.0520  144.6170 C   0  0  0  0  0  2  0  0  0  0  0  0
  191.6680  176.5820  146.0350 C   0  0  0  0  0  2  0  0  0  0  0  0
  192.7390  175.5980  146.4730 C   0  0  0  0  0  2  0  0  0  0  0  0
  195.0800  175.6980  145.6350 O   0  0  0  0  0  0  0  0  0  0  0  0
  194.0700  176.2580  146.4040 C   0  0  0  0  0  0  0  0  0  0  0  0
  194.2790  177.3260  147.0360 O   0  0  0  0  0  1  0  0  0  0  0  0
  2  7  1  6  0  0  0
  2  6  1  0  0  0  0
  4 18  1  6  0  0  0
  4  1  1  0  0  0  0
  5 13  1  0  0  0  0
  5  3  2  0  0  0  0
  8  3  1  6  0  0  0
  8 15  1  0  0  0  0
  9  6  1  0  0  0  0
 10  1  1  6  0  0  0
 10  2  1  0  0  0  0
 11 13  1  6  0  0  0
 11  8  1  0  0  0  0
 11  4  1  0  0  0  0
 12  5  1  0  0  0  0
 14  9  2  0  0  0  0
 15 14  1  1  0  0  0
 15 10  1  0  0  0  0
 16 17  2  0  0  0  0
 17 18  1  0  0  0  0
 18 24  1  0  0  0  0
 20 21  1  0  0  0  0
 21 17  1  0  0  0  0
 21 19  2  0  0  0  0
 22 19  1  0  0  0  0
 23 20  1  0  0  0  0
 23 22  2  0  0  0  0
 24 25  1  0  0  0  0
 25 26  1  0  0  0  0
 26 27  1  0  0  0  0
 28 29  2  0  0  0  0
 29 27  1  0  0  0  0
 29 30  1  0  0  0  0
M  END
>  <MODEL>
5

>  <REMARK>
 VINA RESULT:      -6.7      1.375      1.687
  Name = 
  7 active torsions:
  status: ('A' for Active; 'I' for Inactive)
    1  A    between atoms: C_4  and  N_13
    2  A    between atoms: C_7  and  C_15
    3  A    between atoms: C_7  and  C_16
    4  A    between atoms: C_8  and  C_12
    5  A    between atoms: N_13  and  C_27
    6  A    between atoms: C_16  and  C_30
    7  A    between atoms: C_27  and  C_30
                            x       y       z     vdW  Elec       q    Type
                         _______ _______ _______ _____ _____    ______ ____

>  <TORSDO>
F 7

$$$$
=
 OpenBabel11052417143D

 30 33  0  0  1  0  0  0  0  0999 V2000
  190.1340  175.7420  143.6260 C   0  0  0  0  0  2  0  0  0  0  0  0
  192.2670  175.6530  145.0680 C   0  0  2  0  0  3  0  0  0  0  0  0
  187.6790  176.4570  147.0210 N   0  0  0  0  0  0  0  0  0  0  0  0
  188.5880  175.6680  143.6730 C   0  0  1  0  0  3  0  0  0  0  0  0
  186.5820  176.6230  146.3590 C   0  0  0  0  0  0  0  0  0  0  0  0
  192.8010  175.1610  146.4230 C   0  0  0  0  0  2  0  0  0  0  0  0
  192.6960  177.0950  144.8320 C   0  0  0  0  0  1  0  0  0  0  0  0
  188.6070  176.0060  145.9980 C   0  0  1  0  0  3  0  0  0  0  0  0
  191.8870  175.4340  147.6030 C   0  0  0  0  0  3  0  0  0  0  0  0
  190.7470  175.4920  145.0200 C   0  0  1  0  0  3  0  0  0  0  0  0
  188.1260  176.5550  144.7420 N   0  0  2  0  0  0  0  0  0  0  0  0
  185.4140  176.9720  146.9480 F   0  0  0  0  0  0  0  0  0  0  0  0
  186.7440  176.5200  144.9500 N   0  0  0  0  0  2  0  0  0  0  0  0
  190.6350  175.9070  147.4760 C   0  0  0  0  0  3  0  0  0  0  0  0
  190.0790  176.3120  146.1400 C   0  0  2  0  0  3  0  0  0  0  0  0
  187.8360  175.6880  140.0800 O   0  0  0  0  0  0  0  0  0  0  0  0
  188.2440  175.2620  141.1950 C   0  0  0  0  0  0  0  0  0  0  0  0
  188.0400  176.0700  142.3750 N   0  0  0  0  0  0  0  0  0  0  0  0
  188.4860  172.7800  141.7650 C   0  0  0  0  0  3  0  0  0  0  0  0
  190.1240  173.7860  140.6840 O   0  0  0  0  0  0  0  0  0  0  0  0
  188.9410  173.9620  141.2170 C   0  0  0  0  0  0  0  0  0  0  0  0
  189.4980  171.8660  141.5320 C   0  0  0  0  0  3  0  0  0  0  0  0
  190.4970  172.5440  140.8590 C   0  0  0  0  0  3  0  0  0  0  0  0
  187.4860  177.4140  142.2210 C   0  0  0  0  0  2  0  0  0  0  0  0
  186.0470  177.3310  141.7380 C   0  0  0  0  0  2  0  0  0  0  0  0
  185.2840  178.5870  142.1110 C   0  0  0  0  0  2  0  0  0  0  0  0
  184.2350  178.2780  143.1650 C   0  0  0  0  0  2  0  0  0  0  0  0
  185.4870  180.0780  144.3410 O   0  0  0  0  0  0  0  0  0  0  0  0
  184.4700  179.1350  144.3580 C   0  0  0  0  0  0  0  0  0  0  0  0
  183.7450  179.0090  145.3780 O   0  0  0  0  0  1  0  0  0  0  0  0
  1  4  1  0  0  0  0
  2  7  1  1  0  0  0
  2  6  1  0  0  0  0
  4 18  1  6  0  0  0
  4 11  1  0  0  0  0
  5 12  1  0  0  0  0
  5  3  2  0  0  0  0
  6  9  1  0  0  0  0
  8 15  1  0  0  0  0
  8  3  1  1  0  0  0
 10  1  1  6  0  0  0
 10  2  1  0  0  0  0
 10 15  1  0  0  0  0
 11 13  1  1  0  0  0
 11  8  1  0  0  0  0
 13  5  1  0  0  0  0
 14  9  2  0  0  0  0
 15 14  1  1  0  0  0
 16 17  2  0  0  0  0
 17 21  1  0  0  0  0
 17 18  1  0  0  0  0
 20 23  1  0  0  0  0
 20 21  1  0  0  0  0
 21 19  2  0  0  0  0
 22 19  1  0  0  0  0
 23 22  2  0  0  0  0
 24 18  1  0  0  0  0
 25 26  1  0  0  0  0
 25 24  1  0  0  0  0
 26 27  1  0  0  0  0
 27 29  1  0  0  0  0
 28 29  2  0  0  0  0
 29 30  1  0  0  0  0
M  END
>  <MODEL>
6

>  <REMARK>
 VINA RESULT:      -6.6      2.893      6.219
  Name = 
  7 active torsions:
  status: ('A' for Active; 'I' for Inactive)
    1  A    between atoms: C_4  and  N_13
    2  A    between atoms: C_7  and  C_15
    3  A    between atoms: C_7  and  C_16
    4  A    between atoms: C_8  and  C_12
    5  A    between atoms: N_13  and  C_27
    6  A    between atoms: C_16  and  C_30
    7  A    between atoms: C_27  and  C_30
                            x       y       z     vdW  Elec       q    Type
                         _______ _______ _______ _____ _____    ______ ____

>  <TORSDO>
F 7

$$$$
=
 OpenBabel11052417143D

 30 33  0  0  1  0  0  0  0  0999 V2000
  189.0820  177.6670  143.3610 C   0  0  0  0  0  2  0  0  0  0  0  0
  186.7000  178.5140  142.8630 C   0  0  2  0  0  3  0  0  0  0  0  0
  187.8010  175.6640  146.8850 N   0  0  0  0  0  0  0  0  0  0  0  0
  189.9930  177.0750  144.4640 C   0  0  1  0  0  3  0  0  0  0  0  0
  188.9400  175.1120  147.1450 C   0  0  0  0  0  0  0  0  0  0  0  0
  185.4340  179.0550  143.5440 C   0  0  0  0  0  2  0  0  0  0  0  0
  186.3310  177.4180  141.8720 C   0  0  0  0  0  1  0  0  0  0  0  0
  188.1210  176.5600  145.7860 C   0  0  1  0  0  3  0  0  0  0  0  0
  185.0200  178.3120  144.8000 C   0  0  0  0  0  3  0  0  0  0  0  0
  187.6870  178.0210  143.9220 C   0  0  1  0  0  3  0  0  0  0  0  0
  189.2680  175.9800  145.1090 N   0  0  2  0  0  0  0  0  0  0  0  0
  189.1200  174.2480  148.1720 F   0  0  0  0  0  0  0  0  0  0  0  0
  189.9500  175.4070  146.1870 N   0  0  0  0  0  2  0  0  0  0  0  0
  185.7770  177.3680  145.3850 C   0  0  0  0  0  3  0  0  0  0  0  0
  187.0610  176.8940  144.7640 C   0  0  2  0  0  3  0  0  0  0  0  0
  192.3740  175.0260  142.5650 O   0  0  0  0  0  0  0  0  0  0  0  0
  191.2660  175.4560  142.9870 C   0  0  0  0  0  0  0  0  0  0  0  0
  191.2440  176.6030  143.8630 N   0  0  0  0  0  0  0  0  0  0  0  0
  189.5720  173.5420  143.0960 C   0  0  0  0  0  3  0  0  0  0  0  0
  189.2520  175.1630  141.6330 O   0  0  0  0  0  0  0  0  0  0  0  0
  190.0490  174.7290  142.5770 C   0  0  0  0  0  0  0  0  0  0  0  0
  188.4180  173.2800  142.3790 C   0  0  0  0  0  3  0  0  0  0  0  0
  188.2650  174.3170  141.4780 C   0  0  0  0  0  3  0  0  0  0  0  0
  192.5130  177.1490  144.3410 C   0  0  0  0  0  2  0  0  0  0  0  0
  192.9550  176.4140  145.5970 C   0  0  0  0  0  2  0  0  0  0  0  0
  194.4030  176.7260  145.9180 C   0  0  0  0  0  2  0  0  0  0  0  0
  195.2720  175.4990  145.7050 C   0  0  0  0  0  2  0  0  0  0  0  0
  196.3750  176.5860  143.7580 O   0  0  0  0  0  1  0  0  0  0  0  0
  195.7470  175.4730  144.2950 C   0  0  0  0  0  0  0  0  0  0  0  0
  195.5870  174.4410  143.5940 O   0  0  0  0  0  0  0  0  0  0  0  0
  1  4  1  0  0  0  0
  2  7  1  6  0  0  0
  2  6  1  0  0  0  0
  2 10  1  0  0  0  0
  3  5  2  0  0  0  0
  4 18  1  6  0  0  0
  4 11  1  0  0  0  0
  5 12  1  0  0  0  0
  6  9  1  0  0  0  0
  8  3  1  1  0  0  0
  9 14  2  0  0  0  0
 10  1  1  6  0  0  0
 10 15  1  0  0  0  0
 11  8  1  0  0  0  0
 11 13  1  1  0  0  0
 13  5  1  0  0  0  0
 15 14  1  1  0  0  0
 15  8  1  0  0  0  0
 16 17  2  0  0  0  0
 17 18  1  0  0  0  0
 18 24  1  0  0  0  0
 20 21  1  0  0  0  0
 21 17  1  0  0  0  0
 21 19  2  0  0  0  0
 22 19  1  0  0  0  0
 23 20  1  0  0  0  0
 23 22  2  0  0  0  0
 24 25  1  0  0  0  0
 25 26  1  0  0  0  0
 27 26  1  0  0  0  0
 28 29  1  0  0  0  0
 29 27  1  0  0  0  0
 30 29  2  0  0  0  0
M  END
>  <MODEL>
7

>  <REMARK>
 VINA RESULT:      -6.5      2.290      3.252
  Name = 
  7 active torsions:
  status: ('A' for Active; 'I' for Inactive)
    1  A    between atoms: C_4  and  N_13
    2  A    between atoms: C_7  and  C_15
    3  A    between atoms: C_7  and  C_16
    4  A    between atoms: C_8  and  C_12
    5  A    between atoms: N_13  and  C_27
    6  A    between atoms: C_16  and  C_30
    7  A    between atoms: C_27  and  C_30
                            x       y       z     vdW  Elec       q    Type
                         _______ _______ _______ _____ _____    ______ ____

>  <TORSDO>
F 7

$$$$
=
 OpenBabel11052417143D

 30 33  0  0  1  0  0  0  0  0999 V2000
  190.3600  174.3010  144.2830 C   0  0  0  0  0  2  0  0  0  0  0  0
  190.4440  172.4010  142.5450 C   0  0  2  0  0  3  0  0  0  0  0  0
  188.2020  176.8350  141.6390 N   0  0  0  0  0  0  0  0  0  0  0  0
  190.1070  175.8170  144.4670 C   0  0  1  0  0  3  0  0  0  0  0  0
  188.0230  177.7910  142.4890 C   0  0  0  0  0  0  0  0  0  0  0  0
  190.6120  172.1340  141.0410 C   0  0  0  0  0  2  0  0  0  0  0  0
  189.2520  171.6220  143.0820 C   0  0  0  0  0  1  0  0  0  0  0  0
  189.1110  175.9450  142.3430 C   0  0  1  0  0  3  0  0  0  0  0  0
  189.8270  173.0670  140.1380 C   0  0  0  0  0  3  0  0  0  0  0  0
  190.3060  173.9030  142.7920 C   0  0  1  0  0  3  0  0  0  0  0  0
  188.8710  176.1570  143.7610 N   0  0  2  0  0  0  0  0  0  0  0  0
  187.2900  178.8950  142.2100 F   0  0  0  0  0  0  0  0  0  0  0  0
  188.5670  177.5220  143.7760 N   0  0  0  0  0  2  0  0  0  0  0  0
  189.1720  174.1530  140.5860 C   0  0  0  0  0  3  0  0  0  0  0  0
  189.0770  174.4640  142.0530 C   0  0  2  0  0  3  0  0  0  0  0  0
  191.0560  176.4820  147.9500 O   0  0  0  0  0  0  0  0  0  0  0  0
  191.1850  176.3100  146.7070 C   0  0  0  0  0  0  0  0  0  0  0  0
  190.0040  176.1260  145.8960 N   0  0  0  0  0  0  0  0  0  0  0  0
  193.5580  175.3810  146.4740 C   0  0  0  0  0  3  0  0  0  0  0  0
  192.9790  177.1340  145.2660 O   0  0  0  0  0  0  0  0  0  0  0  0
  192.5550  176.2760  146.1600 C   0  0  0  0  0  0  0  0  0  0  0  0
  194.6380  175.7730  145.7040 C   0  0  0  0  0  3  0  0  0  0  0  0
  194.2270  176.8710  144.9730 C   0  0  0  0  0  3  0  0  0  0  0  0
  188.7060  176.0110  146.5570 C   0  0  0  0  0  2  0  0  0  0  0  0
  188.1610  177.3940  146.8760 C   0  0  0  0  0  2  0  0  0  0  0  0
  186.6450  177.3840  146.8820 C   0  0  0  0  0  2  0  0  0  0  0  0
  186.1020  178.4840  145.9870 C   0  0  0  0  0  2  0  0  0  0  0  0
  184.1730  178.6040  147.5540 O   0  0  0  0  0  1  0  0  0  0  0  0
  184.6490  178.6610  146.2530 C   0  0  0  0  0  0  0  0  0  0  0  0
  183.8540  178.8690  145.3000 O   0  0  0  0  0  0  0  0  0  0  0  0
  1  4  1  0  0  0  0
  2 10  1  0  0  0  0
  2  7  1  6  0  0  0
  3  5  2  0  0  0  0
  4 18  1  1  0  0  0
  5 13  1  0  0  0  0
  6  2  1  0  0  0  0
  8  3  1  6  0  0  0
  8 11  1  0  0  0  0
  9 14  2  0  0  0  0
  9  6  1  0  0  0  0
 10  1  1  1  0  0  0
 11 13  1  6  0  0  0
 11  4  1  0  0  0  0
 12  5  1  0  0  0  0
 15 14  1  6  0  0  0
 15  8  1  0  0  0  0
 15 10  1  0  0  0  0
 17 16  2  0  0  0  0
 18 24  1  0  0  0  0
 18 17  1  0  0  0  0
 20 21  1  0  0  0  0
 21 19  2  0  0  0  0
 21 17  1  0  0  0  0
 22 19  1  0  0  0  0
 23 20  1  0  0  0  0
 23 22  2  0  0  0  0
 24 25  1  0  0  0  0
 25 26  1  0  0  0  0
 27 29  1  0  0  0  0
 27 26  1  0  0  0  0
 29 28  1  0  0  0  0
 30 29  2  0  0  0  0
M  END
>  <MODEL>
8

>  <REMARK>
 VINA RESULT:      -6.3      2.659      6.390
  Name = 
  7 active torsions:
  status: ('A' for Active; 'I' for Inactive)
    1  A    between atoms: C_4  and  N_13
    2  A    between atoms: C_7  and  C_15
    3  A    between atoms: C_7  and  C_16
    4  A    between atoms: C_8  and  C_12
    5  A    between atoms: N_13  and  C_27
    6  A    between atoms: C_16  and  C_30
    7  A    between atoms: C_27  and  C_30
                            x       y       z     vdW  Elec       q    Type
                         _______ _______ _______ _____ _____    ______ ____

>  <TORSDO>
F 7

$$$$
=
 OpenBabel11052417143D

 30 33  0  0  1  0  0  0  0  0999 V2000
  190.5190  176.9060  143.3280 C   0  0  0  0  0  2  0  0  0  0  0  0
  192.9970  176.3430  142.9000 C   0  0  2  0  0  3  0  0  0  0  0  0
  189.2290  173.2220  141.6440 N   0  0  0  0  0  0  0  0  0  0  0  0
  189.0670  176.5300  142.9430 C   0  0  1  0  0  3  0  0  0  0  0  0
  187.9780  173.3810  141.9220 C   0  0  0  0  0  0  0  0  0  0  0  0
  193.9360  175.6840  141.8780 C   0  0  0  0  0  2  0  0  0  0  0  0
  193.3000  175.8220  144.2980 C   0  0  0  0  0  1  0  0  0  0  0  0
  189.8020  174.5120  141.9930 C   0  0  1  0  0  3  0  0  0  0  0  0
  193.4300  174.3750  141.3010 C   0  0  0  0  0  3  0  0  0  0  0  0
  191.5420  176.0980  142.4990 C   0  0  1  0  0  3  0  0  0  0  0  0
  188.9420  175.0740  143.0200 N   0  0  2  0  0  0  0  0  0  0  0  0
  187.0440  172.4330  141.6730 F   0  0  0  0  0  0  0  0  0  0  0  0
  187.6950  174.5900  142.6150 N   0  0  0  0  0  2  0  0  0  0  0  0
  192.1910  173.9000  141.5180 C   0  0  0  0  0  3  0  0  0  0  0  0
  191.2380  174.5890  142.4540 C   0  0  2  0  0  3  0  0  0  0  0  0
  186.2040  178.4710  144.1740 O   0  0  0  0  0  0  0  0  0  0  0  0
  186.9340  177.8320  143.3680 C   0  0  0  0  0  0  0  0  0  0  0  0
  188.1330  177.1930  143.8580 N   0  0  0  0  0  0  0  0  0  0  0  0
  185.2600  178.0180  141.4410 C   0  0  0  0  0  3  0  0  0  0  0  0
  187.3700  177.5710  140.9770 O   0  0  0  0  0  0  0  0  0  0  0  0
  186.5260  177.8050  141.9500 C   0  0  0  0  0  0  0  0  0  0  0  0
  185.4000  177.8820  140.0720 C   0  0  0  0  0  3  0  0  0  0  0  0
  186.7320  177.5990  139.8350 C   0  0  0  0  0  3  0  0  0  0  0  0
  188.5340  177.4180  145.2450 C   0  0  0  0  0  2  0  0  0  0  0  0
  188.0720  176.2590  146.1140 C   0  0  0  0  0  2  0  0  0  0  0  0
  186.9290  176.6860  147.0140 C   0  0  0  0  0  2  0  0  0  0  0  0
  187.2220  178.0380  147.6400 C   0  0  0  0  0  2  0  0  0  0  0  0
  184.7740  178.2880  147.2690 O   0  0  0  0  0  0  0  0  0  0  0  0
  185.9830  178.8620  147.6300 C   0  0  0  0  0  0  0  0  0  0  0  0
  186.0300  180.0770  147.9560 O   0  0  0  0  0  1  0  0  0  0  0  0
  2  7  1  1  0  0  0
  3  5  2  0  0  0  0
  4 11  1  0  0  0  0
  4  1  1  0  0  0  0
  4 18  1  1  0  0  0
  5 13  1  0  0  0  0
  6  2  1  0  0  0  0
  8  3  1  1  0  0  0
  8 15  1  0  0  0  0
  8 11  1  0  0  0  0
  9 14  2  0  0  0  0
  9  6  1  0  0  0  0
 10  2  1  0  0  0  0
 10  1  1  1  0  0  0
 11 13  1  6  0  0  0
 12  5  1  0  0  0  0
 15 14  1  6  0  0  0
 15 10  1  0  0  0  0
 17 18  1  0  0  0  0
 17 16  2  0  0  0  0
 18 24  1  0  0  0  0
 19 21  2  0  0  0  0
 20 21  1  0  0  0  0
 21 17  1  0  0  0  0
 22 19  1  0  0  0  0
 23 22  2  0  0  0  0
 23 20  1  0  0  0  0
 24 25  1  0  0  0  0
 25 26  1  0  0  0  0
 26 27  1  0  0  0  0
 28 29  2  0  0  0  0
 29 27  1  0  0  0  0
 29 30  1  0  0  0  0
M  END
>  <MODEL>
9

>  <REMARK>
 VINA RESULT:      -6.2      3.600      6.657
  Name = 
  7 active torsions:
  status: ('A' for Active; 'I' for Inactive)
    1  A    between atoms: C_4  and  N_13
    2  A    between atoms: C_7  and  C_15
    3  A    between atoms: C_7  and  C_16
    4  A    between atoms: C_8  and  C_12
    5  A    between atoms: N_13  and  C_27
    6  A    between atoms: C_16  and  C_30
    7  A    between atoms: C_27  and  C_30
                            x       y       z     vdW  Elec       q    Type
                         _______ _______ _______ _____ _____    ______ ____

>  <TORSDO>
F 7

$$$$
