=
 OpenBabel11052418073D

 28 30  0  0  1  0  0  0  0  0999 V2000
  187.8880  176.4930  145.7410 C   0  0  1  0  0  3  0  0  0  0  0  0
  185.3700  178.5070  147.4020 N   0  0  0  0  0  0  0  0  0  0  0  0
  186.6630  177.1450  146.3050 C   0  0  0  0  0  0  0  0  0  0  0  0
  184.4800  177.6090  146.6800 C   0  0  0  0  0  3  0  0  0  0  0  0
  186.6880  178.1500  147.1090 N   0  0  0  0  0  0  0  0  0  0  0  0
  185.3750  176.7530  145.9820 O   0  0  0  0  0  0  0  0  0  0  0  0
  189.8540  177.8430  145.5110 O   0  0  0  0  0  0  0  0  0  0  0  0
  188.3920  177.9390  143.7100 N   0  0  0  0  0  2  0  0  0  0  0  0
  188.7600  177.4690  145.0080 C   0  0  0  0  0  0  0  0  0  0  0  0
  187.1650  177.5270  143.0400 C   0  0  2  0  0  3  0  0  0  0  0  0
  185.8150  177.5280  140.5230 N   0  0  0  0  0  0  0  0  0  0  0  0
  187.5010  176.4880  141.9520 C   0  0  0  0  0  2  0  0  0  0  0  0
  185.6330  179.4300  143.6440 C   0  0  0  0  0  1  0  0  0  0  0  0
  186.3990  178.7580  142.5220 C   0  0  2  0  0  3  0  0  0  0  0  0
  185.4460  178.3670  141.4280 C   0  0  0  0  0  3  0  0  0  0  0  0
  187.1460  176.9620  140.5400 C   0  0  0  0  0  2  0  0  0  0  0  0
  188.6880  175.7480  146.8040 C   0  0  0  0  0  2  0  0  0  0  0  0
  189.2980  174.4710  146.2370 C   0  0  0  0  0  2  0  0  0  0  0  0
  191.4950  175.2920  147.0540 C   0  0  0  0  0  3  0  0  0  0  0  0
  191.4590  174.1350  144.9130 C   0  0  0  0  0  0  0  0  0  0  0  0
  193.5330  175.0590  145.7800 C   0  0  0  0  0  0  0  0  0  0  0  0
  190.7780  174.6130  146.0610 C   0  0  0  0  0  0  0  0  0  0  0  0
  192.8320  174.3730  144.7860 C   0  0  0  0  0  3  0  0  0  0  0  0
  195.2480  175.3510  145.5950 Cl  0  0  0  0  0  0  0  0  0  0  0  0
  192.8670  175.5120  146.9180 C   0  0  0  0  0  3  0  0  0  0  0  0
  190.8330  173.4230  143.8820 O   0  0  0  0  0  0  0  0  0  0  0  0
  189.0900  173.0870  142.6480 C   0  0  0  0  0  1  0  0  0  0  0  0
  190.0910  174.0140  142.9350 O   0  0  0  0  0  0  0  0  0  0  0  0
  1  3  1  0  0  0  0
  1 17  1  1  0  0  0
  3  5  2  0  0  0  0
  4  2  2  0  0  0  0
  5  2  1  0  0  0  0
  6  3  1  0  0  0  0
  6  4  1  0  0  0  0
  8  9  1  0  0  0  0
  9  7  2  0  0  0  0
  9  1  1  0  0  0  0
 10  8  1  6  0  0  0
 11 16  1  0  0  0  0
 11 15  2  0  0  0  0
 12 10  1  0  0  0  0
 14 10  1  0  0  0  0
 14 13  1  1  0  0  0
 15 14  1  0  0  0  0
 16 12  1  0  0  0  0
 18 17  1  0  0  0  0
 20 22  1  0  0  0  0
 21 25  2  0  0  0  0
 22 18  1  0  0  0  0
 22 19  2  0  0  0  0
 23 20  2  0  0  0  0
 23 21  1  0  0  0  0
 24 21  1  0  0  0  0
 25 19  1  0  0  0  0
 26 20  1  0  0  0  0
 27 28  1  0  0  0  0
 28 26  1  0  0  0  0
M  END
>  <MODEL>
1

>  <REMARK>
 VINA RESULT:      -7.0      0.000      0.000
  Name = 
  8 active torsions:
  status: ('A' for Active; 'I' for Inactive)
    1  A    between atoms: N_2  and  C_3
    2  A    between atoms: C_9  and  O_14
    3  A    between atoms: C_10  and  C_13
    4  A    between atoms: C_10  and  C_17
    5  A    between atoms: O_14  and  O_25
    6  A    between atoms: C_16  and  C_27
    7  A    between atoms: C_17  and  C_27
    8  A    between atoms: C_26  and  C_27
                            x       y       z     vdW  Elec       q    Type
                         _______ _______ _______ _____ _____    ______ ____

>  <TORSDO>
F 8

$$$$
=
 OpenBabel11052418073D

 28 30  0  0  1  0  0  0  0  0999 V2000
  191.0480  176.0290  145.0600 C   0  0  1  0  0  3  0  0  0  0  0  0
  194.3860  175.7400  146.4510 N   0  0  0  0  0  0  0  0  0  0  0  0
  192.4730  176.1590  145.5030 C   0  0  0  0  0  0  0  0  0  0  0  0
  194.5790  176.9660  145.6900 C   0  0  0  0  0  3  0  0  0  0  0  0
  193.0660  175.3160  146.2740 N   0  0  0  0  0  0  0  0  0  0  0  0
  193.3080  177.1850  145.0940 O   0  0  0  0  0  0  0  0  0  0  0  0
  189.9420  175.2350  147.0300 O   0  0  0  0  0  0  0  0  0  0  0  0
  189.9470  173.7430  145.2510 N   0  0  0  0  0  2  0  0  0  0  0  0
  190.3050  174.9920  145.8480 C   0  0  0  0  0  0  0  0  0  0  0  0
  190.2930  173.3980  143.8780 C   0  0  2  0  0  3  0  0  0  0  0  0
  189.5290  171.7630  141.6640 N   0  0  0  0  0  0  0  0  0  0  0  0
  189.1390  173.8080  142.9420 C   0  0  0  0  0  2  0  0  0  0  0  0
  192.1070  171.6960  144.2600 C   0  0  0  0  0  1  0  0  0  0  0  0
  190.6840  171.9120  143.7830 C   0  0  2  0  0  3  0  0  0  0  0  0
  190.5480  171.4180  142.3710 C   0  0  0  0  0  3  0  0  0  0  0  0
  188.5020  172.6180  142.2180 C   0  0  0  0  0  2  0  0  0  0  0  0
  190.3090  177.3610  145.0890 C   0  0  0  0  0  2  0  0  0  0  0  0
  189.3180  177.4660  143.9350 C   0  0  0  0  0  2  0  0  0  0  0  0
  187.6620  177.6120  145.7810 C   0  0  0  0  0  3  0  0  0  0  0  0
  186.9450  178.3480  143.5740 C   0  0  0  0  0  0  0  0  0  0  0  0
  185.3910  178.3630  145.4420 C   0  0  0  0  0  0  0  0  0  0  0  0
  187.9530  177.8360  144.4290 C   0  0  0  0  0  0  0  0  0  0  0  0
  185.6710  178.5980  144.0950 C   0  0  0  0  0  3  0  0  0  0  0  0
  183.7880  178.6760  146.0690 Cl  0  0  0  0  0  0  0  0  0  0  0  0
  186.3880  177.8770  146.2870 C   0  0  0  0  0  3  0  0  0  0  0  0
  187.1500  178.6280  142.2170 O   0  0  0  0  0  0  0  0  0  0  0  0
  187.1390  176.9650  140.8360 C   0  0  0  0  0  1  0  0  0  0  0  0
  186.4120  178.0820  141.2400 O   0  0  0  0  0  0  0  0  0  0  0  0
  1 17  1  1  0  0  0
  1  3  1  0  0  0  0
  1  9  1  0  0  0  0
  3  5  2  0  0  0  0
  4  2  2  0  0  0  0
  5  2  1  0  0  0  0
  6  3  1  0  0  0  0
  6  4  1  0  0  0  0
  8  9  1  0  0  0  0
  9  7  2  0  0  0  0
 10  8  1  1  0  0  0
 11 16  1  0  0  0  0
 11 15  2  0  0  0  0
 12 10  1  0  0  0  0
 14 10  1  0  0  0  0
 14 13  1  6  0  0  0
 15 14  1  0  0  0  0
 16 12  1  0  0  0  0
 18 22  1  0  0  0  0
 18 17  1  0  0  0  0
 19 25  1  0  0  0  0
 20 23  2  0  0  0  0
 20 22  1  0  0  0  0
 21 24  1  0  0  0  0
 21 25  2  0  0  0  0
 22 19  2  0  0  0  0
 23 21  1  0  0  0  0
 26 20  1  0  0  0  0
 27 28  1  0  0  0  0
 28 26  1  0  0  0  0
M  END
>  <MODEL>
2

>  <REMARK>
 VINA RESULT:      -6.6      3.788      6.784
  Name = 
  8 active torsions:
  status: ('A' for Active; 'I' for Inactive)
    1  A    between atoms: N_2  and  C_3
    2  A    between atoms: C_9  and  O_14
    3  A    between atoms: C_10  and  C_13
    4  A    between atoms: C_10  and  C_17
    5  A    between atoms: O_14  and  O_25
    6  A    between atoms: C_16  and  C_27
    7  A    between atoms: C_17  and  C_27
    8  A    between atoms: C_26  and  C_27
                            x       y       z     vdW  Elec       q    Type
                         _______ _______ _______ _____ _____    ______ ____

>  <TORSDO>
F 8

$$$$
=
 OpenBabel11052418073D

 28 30  0  0  1  0  0  0  0  0999 V2000
  187.9070  177.6150  142.7920 C   0  0  1  0  0  3  0  0  0  0  0  0
  185.6150  178.1980  140.0410 N   0  0  0  0  0  0  0  0  0  0  0  0
  187.1150  177.6570  141.5210 C   0  0  0  0  0  0  0  0  0  0  0  0
  186.4950  177.2430  139.3840 C   0  0  0  0  0  3  0  0  0  0  0  0
  186.0730  178.3930  141.3460 N   0  0  0  0  0  0  0  0  0  0  0  0
  187.4500  176.9320  140.3890 O   0  0  0  0  0  0  0  0  0  0  0  0
  188.0720  175.2480  143.1190 O   0  0  0  0  0  0  0  0  0  0  0  0
  187.0220  176.3960  144.8420 N   0  0  0  0  0  2  0  0  0  0  0  0
  187.6630  176.3540  143.5660 C   0  0  0  0  0  0  0  0  0  0  0  0
  186.5550  177.6360  145.4490 C   0  0  2  0  0  3  0  0  0  0  0  0
  185.1000  178.6980  147.6660 N   0  0  0  0  0  0  0  0  0  0  0  0
  187.2170  177.8110  146.8300 C   0  0  0  0  0  2  0  0  0  0  0  0
  184.4580  178.0530  144.1220 C   0  0  0  0  0  1  0  0  0  0  0  0
  185.0160  177.6710  145.4780 C   0  0  2  0  0  3  0  0  0  0  0  0
  184.5280  178.6430  146.5140 C   0  0  0  0  0  3  0  0  0  0  0  0
  186.2080  177.8230  147.9820 C   0  0  0  0  0  2  0  0  0  0  0  0
  189.3980  177.8210  142.5520 C   0  0  0  0  0  2  0  0  0  0  0  0
  190.1440  178.0170  143.8660 C   0  0  0  0  0  2  0  0  0  0  0  0
  192.2250  176.8920  143.1080 C   0  0  0  0  0  3  0  0  0  0  0  0
  191.1460  176.0190  145.1080 C   0  0  0  0  0  0  0  0  0  0  0  0
  193.1400  174.9520  144.2180 C   0  0  0  0  0  0  0  0  0  0  0  0
  191.1920  176.9640  144.0530 C   0  0  0  0  0  0  0  0  0  0  0  0
  192.1220  175.0180  145.1710 C   0  0  0  0  0  3  0  0  0  0  0  0
  194.3440  173.6870  144.3140 Cl  0  0  0  0  0  0  0  0  0  0  0  0
  193.1970  175.8940  143.1910 C   0  0  0  0  0  3  0  0  0  0  0  0
  190.1700  176.0280  146.1120 O   0  0  0  0  0  0  0  0  0  0  0  0
  189.0790  174.6630  147.3860 C   0  0  0  0  0  1  0  0  0  0  0  0
  190.2920  175.3370  147.2540 O   0  0  0  0  0  0  0  0  0  0  0  0
  1 17  1  6  0  0  0
  1  9  1  0  0  0  0
  2  5  1  0  0  0  0
  3  1  1  0  0  0  0
  4  2  2  0  0  0  0
  4  6  1  0  0  0  0
  5  3  2  0  0  0  0
  6  3  1  0  0  0  0
  7  9  2  0  0  0  0
  9  8  1  0  0  0  0
 10  8  1  1  0  0  0
 10 14  1  0  0  0  0
 10 12  1  0  0  0  0
 11 16  1  0  0  0  0
 12 16  1  0  0  0  0
 14 13  1  6  0  0  0
 14 15  1  0  0  0  0
 15 11  2  0  0  0  0
 17 18  1  0  0  0  0
 18 22  1  0  0  0  0
 19 25  2  0  0  0  0
 19 22  1  0  0  0  0
 20 23  1  0  0  0  0
 20 26  1  0  0  0  0
 21 24  1  0  0  0  0
 21 23  2  0  0  0  0
 22 20  2  0  0  0  0
 25 21  1  0  0  0  0
 26 28  1  0  0  0  0
 28 27  1  0  0  0  0
M  END
>  <MODEL>
3

>  <REMARK>
 VINA RESULT:      -6.5      1.967      4.545
  Name = 
  8 active torsions:
  status: ('A' for Active; 'I' for Inactive)
    1  A    between atoms: N_2  and  C_3
    2  A    between atoms: C_9  and  O_14
    3  A    between atoms: C_10  and  C_13
    4  A    between atoms: C_10  and  C_17
    5  A    between atoms: O_14  and  O_25
    6  A    between atoms: C_16  and  C_27
    7  A    between atoms: C_17  and  C_27
    8  A    between atoms: C_26  and  C_27
                            x       y       z     vdW  Elec       q    Type
                         _______ _______ _______ _____ _____    ______ ____

>  <TORSDO>
F 8

$$$$
=
 OpenBabel11052418073D

 28 30  0  0  1  0  0  0  0  0999 V2000
  189.8290  176.6530  146.6130 C   0  0  1  0  0  3  0  0  0  0  0  0
  190.3320  175.7880  143.1260 N   0  0  0  0  0  0  0  0  0  0  0  0
  190.1920  176.5350  145.1650 C   0  0  0  0  0  0  0  0  0  0  0  0
  191.0360  177.0620  143.1320 C   0  0  0  0  0  3  0  0  0  0  0  0
  189.8450  175.5480  144.4140 N   0  0  0  0  0  0  0  0  0  0  0  0
  190.9080  177.5010  144.4770 O   0  0  0  0  0  0  0  0  0  0  0  0
  189.0910  174.5600  147.5160 O   0  0  0  0  0  0  0  0  0  0  0  0
  187.3850  175.9990  146.8780 N   0  0  0  0  0  2  0  0  0  0  0  0
  188.7690  175.6690  147.0100 C   0  0  0  0  0  0  0  0  0  0  0  0
  186.9260  177.2730  146.3410 C   0  0  2  0  0  3  0  0  0  0  0  0
  184.6360  178.9610  146.0810 N   0  0  0  0  0  0  0  0  0  0  0  0
  186.4660  178.1800  147.4990 C   0  0  0  0  0  2  0  0  0  0  0  0
  186.4970  176.6500  143.9410 C   0  0  0  0  0  1  0  0  0  0  0  0
  185.8570  177.0430  145.2570 C   0  0  2  0  0  3  0  0  0  0  0  0
  185.0270  178.2790  145.0610 C   0  0  0  0  0  3  0  0  0  0  0  0
  184.9790  178.5430  147.4230 C   0  0  0  0  0  2  0  0  0  0  0  0
  191.0440  176.5340  147.5260 C   0  0  0  0  0  2  0  0  0  0  0  0
  191.8290  175.2600  147.2330 C   0  0  0  0  0  2  0  0  0  0  0  0
  193.6740  176.7660  146.5290 C   0  0  0  0  0  3  0  0  0  0  0  0
  193.4410  174.6520  145.3440 C   0  0  0  0  0  0  0  0  0  0  0  0
  195.1550  176.2480  144.6930 C   0  0  0  0  0  0  0  0  0  0  0  0
  193.0110  175.5440  146.3590 C   0  0  0  0  0  0  0  0  0  0  0  0
  194.5080  175.0240  144.5180 C   0  0  0  0  0  3  0  0  0  0  0  0
  196.4810  176.6930  143.6420 Cl  0  0  0  0  0  0  0  0  0  0  0  0
  194.7440  177.1160  145.7030 C   0  0  0  0  0  3  0  0  0  0  0  0
  192.8580  173.3990  145.1160 O   0  0  0  0  0  0  0  0  0  0  0  0
  191.2050  172.2340  144.3540 C   0  0  0  0  0  1  0  0  0  0  0  0
  192.2440  173.0790  143.9690 O   0  0  0  0  0  0  0  0  0  0  0  0
  1  9  1  0  0  0  0
  1 17  1  1  0  0  0
  2  4  2  0  0  0  0
  2  5  1  0  0  0  0
  3  1  1  0  0  0  0
  4  6  1  0  0  0  0
  5  3  2  0  0  0  0
  6  3  1  0  0  0  0
  8  9  1  0  0  0  0
  9  7  2  0  0  0  0
 10  8  1  1  0  0  0
 10 12  1  0  0  0  0
 11 16  1  0  0  0  0
 14 13  1  6  0  0  0
 14 10  1  0  0  0  0
 15 14  1  0  0  0  0
 15 11  2  0  0  0  0
 16 12  1  0  0  0  0
 18 17  1  0  0  0  0
 20 22  2  0  0  0  0
 21 25  1  0  0  0  0
 22 19  1  0  0  0  0
 22 18  1  0  0  0  0
 23 21  2  0  0  0  0
 23 20  1  0  0  0  0
 24 21  1  0  0  0  0
 25 19  2  0  0  0  0
 26 20  1  0  0  0  0
 28 27  1  0  0  0  0
 28 26  1  0  0  0  0
M  END
>  <MODEL>
4

>  <REMARK>
 VINA RESULT:      -6.5      2.318      4.066
  Name = 
  8 active torsions:
  status: ('A' for Active; 'I' for Inactive)
    1  A    between atoms: N_2  and  C_3
    2  A    between atoms: C_9  and  O_14
    3  A    between atoms: C_10  and  C_13
    4  A    between atoms: C_10  and  C_17
    5  A    between atoms: O_14  and  O_25
    6  A    between atoms: C_16  and  C_27
    7  A    between atoms: C_17  and  C_27
    8  A    between atoms: C_26  and  C_27
                            x       y       z     vdW  Elec       q    Type
                         _______ _______ _______ _____ _____    ______ ____

>  <TORSDO>
F 8

$$$$
=
 OpenBabel11052418073D

 28 30  0  0  1  0  0  0  0  0999 V2000
  190.0170  176.1610  143.6150 C   0  0  1  0  0  3  0  0  0  0  0  0
  189.0140  177.2900  146.9130 N   0  0  0  0  0  0  0  0  0  0  0  0
  189.3750  176.4610  144.9350 C   0  0  0  0  0  0  0  0  0  0  0  0
  187.8390  176.4920  146.5970 C   0  0  0  0  0  3  0  0  0  0  0  0
  189.9000  177.2150  145.8360 N   0  0  0  0  0  0  0  0  0  0  0  0
  188.1270  175.9840  145.3010 O   0  0  0  0  0  0  0  0  0  0  0  0
  189.9000  173.7890  143.2990 O   0  0  0  0  0  0  0  0  0  0  0  0
  192.0160  174.5990  143.8050 N   0  0  0  0  0  2  0  0  0  0  0  0
  190.6170  174.7870  143.5800 C   0  0  0  0  0  0  0  0  0  0  0  0
  192.9230  175.7020  144.0960 C   0  0  2  0  0  3  0  0  0  0  0  0
  195.6830  176.4170  144.2640 N   0  0  0  0  0  0  0  0  0  0  0  0
  193.7390  176.0410  142.8330 C   0  0  0  0  0  2  0  0  0  0  0  0
  192.9960  175.6030  146.6100 C   0  0  0  0  0  1  0  0  0  0  0  0
  193.7810  175.3760  145.3330 C   0  0  2  0  0  3  0  0  0  0  0  0
  195.0240  176.2180  145.3520 C   0  0  0  0  0  3  0  0  0  0  0  0
  195.2450  175.8290  143.0180 C   0  0  0  0  0  2  0  0  0  0  0  0
  189.0590  176.3610  142.4470 C   0  0  0  0  0  2  0  0  0  0  0  0
  188.6370  177.8210  142.3260 C   0  0  0  0  0  2  0  0  0  0  0  0
  186.8370  177.5970  140.6280 C   0  0  0  0  0  3  0  0  0  0  0  0
  186.2020  178.4160  142.8310 C   0  0  0  0  0  0  0  0  0  0  0  0
  184.5480  178.2330  141.0600 C   0  0  0  0  0  0  0  0  0  0  0  0
  187.1950  177.9350  141.9400 C   0  0  0  0  0  0  0  0  0  0  0  0
  184.8890  178.5650  142.3720 C   0  0  0  0  0  3  0  0  0  0  0  0
  182.9000  178.4350  140.5070 Cl  0  0  0  0  0  0  0  0  0  0  0  0
  185.5200  177.7420  140.1900 C   0  0  0  0  0  3  0  0  0  0  0  0
  186.4580  178.7530  144.1660 O   0  0  0  0  0  0  0  0  0  0  0  0
  185.3310  179.0000  145.9940 C   0  0  0  0  0  1  0  0  0  0  0  0
  185.7410  179.6630  144.8390 O   0  0  0  0  0  0  0  0  0  0  0  0
  1 17  1  6  0  0  0
  1  3  1  0  0  0  0
  3  6  1  0  0  0  0
  3  5  2  0  0  0  0
  4  2  2  0  0  0  0
  5  2  1  0  0  0  0
  6  4  1  0  0  0  0
  7  9  2  0  0  0  0
  9  1  1  0  0  0  0
  9  8  1  0  0  0  0
 10  8  1  6  0  0  0
 10 14  1  0  0  0  0
 11 15  2  0  0  0  0
 12 16  1  0  0  0  0
 12 10  1  0  0  0  0
 14 15  1  0  0  0  0
 14 13  1  1  0  0  0
 16 11  1  0  0  0  0
 18 17  1  0  0  0  0
 19 22  1  0  0  0  0
 20 26  1  0  0  0  0
 21 23  2  0  0  0  0
 22 18  1  0  0  0  0
 22 20  2  0  0  0  0
 23 20  1  0  0  0  0
 24 21  1  0  0  0  0
 25 19  2  0  0  0  0
 25 21  1  0  0  0  0
 26 28  1  0  0  0  0
 28 27  1  0  0  0  0
M  END
>  <MODEL>
5

>  <REMARK>
 VINA RESULT:      -6.4      3.569      7.350
  Name = 
  8 active torsions:
  status: ('A' for Active; 'I' for Inactive)
    1  A    between atoms: N_2  and  C_3
    2  A    between atoms: C_9  and  O_14
    3  A    between atoms: C_10  and  C_13
    4  A    between atoms: C_10  and  C_17
    5  A    between atoms: O_14  and  O_25
    6  A    between atoms: C_16  and  C_27
    7  A    between atoms: C_17  and  C_27
    8  A    between atoms: C_26  and  C_27
                            x       y       z     vdW  Elec       q    Type
                         _______ _______ _______ _____ _____    ______ ____

>  <TORSDO>
F 8

$$$$
=
 OpenBabel11052418073D

 28 30  0  0  1  0  0  0  0  0999 V2000
  188.0230  176.3520  145.5060 C   0  0  1  0  0  3  0  0  0  0  0  0
  184.6750  177.6180  146.0930 N   0  0  0  0  0  0  0  0  0  0  0  0
  186.7120  177.0740  145.5570 C   0  0  0  0  0  0  0  0  0  0  0  0
  185.1330  178.6500  145.1750 C   0  0  0  0  0  3  0  0  0  0  0  0
  185.7100  176.6960  146.2710 N   0  0  0  0  0  0  0  0  0  0  0  0
  186.4610  178.2470  144.8660 O   0  0  0  0  0  0  0  0  0  0  0  0
  189.7520  177.9970  145.3110 O   0  0  0  0  0  0  0  0  0  0  0  0
  189.3120  176.8160  143.3620 N   0  0  0  0  0  2  0  0  0  0  0  0
  189.0580  177.1160  144.7370 C   0  0  0  0  0  0  0  0  0  0  0  0
  188.5830  175.7860  142.6330 C   0  0  2  0  0  3  0  0  0  0  0  0
  188.6090  174.2100  140.2510 N   0  0  0  0  0  0  0  0  0  0  0  0
  189.4590  174.5220  142.5200 C   0  0  0  0  0  2  0  0  0  0  0  0
  186.8420  177.1760  141.4620 C   0  0  0  0  0  1  0  0  0  0  0  0
  188.0900  176.3350  141.2820 C   0  0  2  0  0  3  0  0  0  0  0  0
  187.8040  175.2120  140.3260 C   0  0  0  0  0  3  0  0  0  0  0  0
  189.7990  174.1560  141.0720 C   0  0  0  0  0  2  0  0  0  0  0  0
  188.5400  175.9920  146.8940 C   0  0  0  0  0  2  0  0  0  0  0  0
  189.2980  174.6690  146.8730 C   0  0  0  0  0  2  0  0  0  0  0  0
  191.2720  174.2140  145.4350 C   0  0  0  0  0  3  0  0  0  0  0  0
  191.5960  175.6840  147.3480 C   0  0  0  0  0  0  0  0  0  0  0  0
  193.4680  175.0950  145.9150 C   0  0  0  0  0  0  0  0  0  0  0  0
  190.7440  174.8820  146.5480 C   0  0  0  0  0  0  0  0  0  0  0  0
  192.9540  175.7730  147.0210 C   0  0  0  0  0  3  0  0  0  0  0  0
  195.1710  175.2160  145.5310 Cl  0  0  0  0  0  0  0  0  0  0  0  0
  192.6260  174.3220  145.1170 C   0  0  0  0  0  3  0  0  0  0  0  0
  191.1550  176.4090  148.4620 O   0  0  0  0  0  0  0  0  0  0  0  0
  191.5110  178.1060  149.7530 C   0  0  0  0  0  1  0  0  0  0  0  0
  191.0790  177.7470  148.4780 O   0  0  0  0  0  0  0  0  0  0  0  0
  1  3  1  0  0  0  0
  1 17  1  1  0  0  0
  2  5  1  0  0  0  0
  3  5  2  0  0  0  0
  4  2  2  0  0  0  0
  6  4  1  0  0  0  0
  6  3  1  0  0  0  0
  8  9  1  0  0  0  0
  9  7  2  0  0  0  0
  9  1  1  0  0  0  0
 10  8  1  6  0  0  0
 11 15  2  0  0  0  0
 11 16  1  0  0  0  0
 12 10  1  0  0  0  0
 14 13  1  1  0  0  0
 14 10  1  0  0  0  0
 15 14  1  0  0  0  0
 16 12  1  0  0  0  0
 18 17  1  0  0  0  0
 19 22  1  0  0  0  0
 20 26  1  0  0  0  0
 21 23  2  0  0  0  0
 22 18  1  0  0  0  0
 22 20  2  0  0  0  0
 23 20  1  0  0  0  0
 24 21  1  0  0  0  0
 25 19  2  0  0  0  0
 25 21  1  0  0  0  0
 26 28  1  0  0  0  0
 28 27  1  0  0  0  0
M  END
>  <MODEL>
6

>  <REMARK>
 VINA RESULT:      -6.2      1.908      3.196
  Name = 
  8 active torsions:
  status: ('A' for Active; 'I' for Inactive)
    1  A    between atoms: N_2  and  C_3
    2  A    between atoms: C_9  and  O_14
    3  A    between atoms: C_10  and  C_13
    4  A    between atoms: C_10  and  C_17
    5  A    between atoms: O_14  and  O_25
    6  A    between atoms: C_16  and  C_27
    7  A    between atoms: C_17  and  C_27
    8  A    between atoms: C_26  and  C_27
                            x       y       z     vdW  Elec       q    Type
                         _______ _______ _______ _____ _____    ______ ____

>  <TORSDO>
F 8

$$$$
=
 OpenBabel11052418073D

 28 30  0  0  1  0  0  0  0  0999 V2000
  190.1310  175.6000  144.6600 C   0  0  1  0  0  3  0  0  0  0  0  0
  192.8720  176.4500  146.8790 N   0  0  0  0  0  0  0  0  0  0  0  0
  191.4260  175.9140  145.3450 C   0  0  0  0  0  0  0  0  0  0  0  0
  193.6500  176.1620  145.6820 C   0  0  0  0  0  3  0  0  0  0  0  0
  191.5200  176.2680  146.5790 N   0  0  0  0  0  0  0  0  0  0  0  0
  192.6600  175.8150  144.7240 O   0  0  0  0  0  0  0  0  0  0  0  0
  189.6780  173.5650  145.8400 O   0  0  0  0  0  0  0  0  0  0  0  0
  189.5590  173.3950  143.5270 N   0  0  0  0  0  2  0  0  0  0  0  0
  189.8000  174.1390  144.7240 C   0  0  0  0  0  0  0  0  0  0  0  0
  189.6400  173.9890  142.2000 C   0  0  2  0  0  3  0  0  0  0  0  0
  189.3600  173.4240  139.4140 N   0  0  0  0  0  0  0  0  0  0  0  0
  188.2520  173.9360  141.5300 C   0  0  0  0  0  2  0  0  0  0  0  0
  192.1180  173.8690  141.7760 C   0  0  0  0  0  1  0  0  0  0  0  0
  190.7610  173.3210  141.3820 C   0  0  2  0  0  3  0  0  0  0  0  0
  190.5420  173.5340  139.9110 C   0  0  0  0  0  3  0  0  0  0  0  0
  188.2330  173.0860  140.2560 C   0  0  0  0  0  2  0  0  0  0  0  0
  188.9760  176.4390  145.1930 C   0  0  0  0  0  2  0  0  0  0  0  0
  188.9470  177.8140  144.5360 C   0  0  0  0  0  2  0  0  0  0  0  0
  188.0500  177.7300  142.2210 C   0  0  0  0  0  3  0  0  0  0  0  0
  186.4910  178.2880  144.0060 C   0  0  0  0  0  0  0  0  0  0  0  0
  185.7540  178.2570  141.6900 C   0  0  0  0  0  0  0  0  0  0  0  0
  187.7970  177.9330  143.5850 C   0  0  0  0  0  0  0  0  0  0  0  0
  185.4860  178.4530  143.0460 C   0  0  0  0  0  3  0  0  0  0  0  0
  184.4820  178.4760  140.5080 Cl  0  0  0  0  0  0  0  0  0  0  0  0
  187.0330  177.8880  141.2780 C   0  0  0  0  0  3  0  0  0  0  0  0
  186.1370  178.4840  145.3470 O   0  0  0  0  0  0  0  0  0  0  0  0
  184.4470  178.2340  146.6710 C   0  0  0  0  0  1  0  0  0  0  0  0
  185.0000  179.0890  145.7200 O   0  0  0  0  0  0  0  0  0  0  0  0
  1  9  1  0  0  0  0
  1 17  1  1  0  0  0
  1  3  1  0  0  0  0
  3  5  2  0  0  0  0
  4  2  2  0  0  0  0
  5  2  1  0  0  0  0
  6  3  1  0  0  0  0
  6  4  1  0  0  0  0
  8  9  1  0  0  0  0
  9  7  2  0  0  0  0
 10  8  1  1  0  0  0
 11 15  2  0  0  0  0
 11 16  1  0  0  0  0
 12 10  1  0  0  0  0
 14 13  1  1  0  0  0
 14 10  1  0  0  0  0
 15 14  1  0  0  0  0
 16 12  1  0  0  0  0
 18 17  1  0  0  0  0
 19 22  1  0  0  0  0
 20 26  1  0  0  0  0
 21 23  2  0  0  0  0
 22 20  2  0  0  0  0
 22 18  1  0  0  0  0
 23 20  1  0  0  0  0
 24 21  1  0  0  0  0
 25 21  1  0  0  0  0
 25 19  2  0  0  0  0
 26 28  1  0  0  0  0
 28 27  1  0  0  0  0
M  END
>  <MODEL>
7

>  <REMARK>
 VINA RESULT:      -6.1      3.505      6.687
  Name = 
  8 active torsions:
  status: ('A' for Active; 'I' for Inactive)
    1  A    between atoms: N_2  and  C_3
    2  A    between atoms: C_9  and  O_14
    3  A    between atoms: C_10  and  C_13
    4  A    between atoms: C_10  and  C_17
    5  A    between atoms: O_14  and  O_25
    6  A    between atoms: C_16  and  C_27
    7  A    between atoms: C_17  and  C_27
    8  A    between atoms: C_26  and  C_27
                            x       y       z     vdW  Elec       q    Type
                         _______ _______ _______ _____ _____    ______ ____

>  <TORSDO>
F 8

$$$$
=
 OpenBabel11052418073D

 28 30  0  0  1  0  0  0  0  0999 V2000
  189.1930  176.3560  146.1730 C   0  0  1  0  0  3  0  0  0  0  0  0
  190.4700  178.4470  148.8480 N   0  0  0  0  0  0  0  0  0  0  0  0
  189.9510  177.0520  147.2610 C   0  0  0  0  0  0  0  0  0  0  0  0
  191.5760  177.5050  148.7700 C   0  0  0  0  0  3  0  0  0  0  0  0
  189.5190  178.0900  147.8880 N   0  0  0  0  0  0  0  0  0  0  0  0
  191.1820  176.6220  147.7290 O   0  0  0  0  0  0  0  0  0  0  0  0
  188.9780  174.2810  147.3490 O   0  0  0  0  0  0  0  0  0  0  0  0
  189.7020  174.0820  145.1530 N   0  0  0  0  0  2  0  0  0  0  0  0
  189.2980  174.8640  146.2790 C   0  0  0  0  0  0  0  0  0  0  0  0
  190.0510  174.6720  143.8670 C   0  0  2  0  0  3  0  0  0  0  0  0
  190.9790  174.0550  141.2370 N   0  0  0  0  0  0  0  0  0  0  0  0
  189.0900  174.1430  142.7840 C   0  0  0  0  0  2  0  0  0  0  0  0
  192.4110  175.4220  144.3140 C   0  0  0  0  0  1  0  0  0  0  0  0
  191.5410  174.4380  143.5580 C   0  0  2  0  0  3  0  0  0  0  0  0
  191.8020  174.5670  142.0840 C   0  0  0  0  0  3  0  0  0  0  0  0
  189.8030  173.3440  141.6890 C   0  0  0  0  0  2  0  0  0  0  0  0
  187.7340  176.7920  146.1140 C   0  0  0  0  0  2  0  0  0  0  0  0
  187.5800  178.0940  145.3360 C   0  0  0  0  0  2  0  0  0  0  0  0
  188.3540  177.8310  142.9900 C   0  0  0  0  0  3  0  0  0  0  0  0
  185.9650  177.6250  143.4100 C   0  0  0  0  0  0  0  0  0  0  0  0
  186.8370  177.4730  141.1460 C   0  0  0  0  0  0  0  0  0  0  0  0
  187.2830  177.8270  143.8930 C   0  0  0  0  0  0  0  0  0  0  0  0
  185.7610  177.4570  142.0350 C   0  0  0  0  0  3  0  0  0  0  0  0
  186.5550  177.2680  139.4310 Cl  0  0  0  0  0  0  0  0  0  0  0  0
  188.1340  177.6520  141.6230 C   0  0  0  0  0  3  0  0  0  0  0  0
  184.8360  177.5780  144.2370 O   0  0  0  0  0  0  0  0  0  0  0  0
  184.0620  178.6650  145.9370 C   0  0  0  0  0  1  0  0  0  0  0  0
  184.1120  178.6630  144.5450 O   0  0  0  0  0  0  0  0  0  0  0  0
  1 17  1  1  0  0  0
  1  9  1  0  0  0  0
  1  3  1  0  0  0  0
  3  6  1  0  0  0  0
  3  5  2  0  0  0  0
  4  2  2  0  0  0  0
  5  2  1  0  0  0  0
  6  4  1  0  0  0  0
  8  9  1  0  0  0  0
  9  7  2  0  0  0  0
 10  8  1  1  0  0  0
 11 16  1  0  0  0  0
 11 15  2  0  0  0  0
 12 10  1  0  0  0  0
 14 10  1  0  0  0  0
 14 13  1  1  0  0  0
 15 14  1  0  0  0  0
 16 12  1  0  0  0  0
 18 17  1  0  0  0  0
 19 22  1  0  0  0  0
 20 22  2  0  0  0  0
 20 26  1  0  0  0  0
 21 25  1  0  0  0  0
 21 23  2  0  0  0  0
 22 18  1  0  0  0  0
 23 20  1  0  0  0  0
 24 21  1  0  0  0  0
 25 19  2  0  0  0  0
 26 28  1  0  0  0  0
 28 27  1  0  0  0  0
M  END
>  <MODEL>
8

>  <REMARK>
 VINA RESULT:      -6.1      3.220      6.131
  Name = 
  8 active torsions:
  status: ('A' for Active; 'I' for Inactive)
    1  A    between atoms: N_2  and  C_3
    2  A    between atoms: C_9  and  O_14
    3  A    between atoms: C_10  and  C_13
    4  A    between atoms: C_10  and  C_17
    5  A    between atoms: O_14  and  O_25
    6  A    between atoms: C_16  and  C_27
    7  A    between atoms: C_17  and  C_27
    8  A    between atoms: C_26  and  C_27
                            x       y       z     vdW  Elec       q    Type
                         _______ _______ _______ _____ _____    ______ ____

>  <TORSDO>
F 8

$$$$
=
 OpenBabel11052418073D

 28 30  0  0  1  0  0  0  0  0999 V2000
  190.3670  175.1440  143.0670 C   0  0  1  0  0  3  0  0  0  0  0  0
  188.6900  171.9300  142.9220 N   0  0  0  0  0  0  0  0  0  0  0  0
  189.5020  173.9460  142.8200 C   0  0  0  0  0  0  0  0  0  0  0  0
  187.8020  172.6730  142.0390 C   0  0  0  0  0  3  0  0  0  0  0  0
  189.7010  172.7920  143.3550 N   0  0  0  0  0  0  0  0  0  0  0  0
  188.3750  173.9720  142.0150 O   0  0  0  0  0  0  0  0  0  0  0  0
  191.7520  174.7620  141.1510 O   0  0  0  0  0  0  0  0  0  0  0  0
  192.9060  175.2870  143.0960 N   0  0  0  0  0  2  0  0  0  0  0  0
  191.6950  175.0310  142.3810 C   0  0  0  0  0  0  0  0  0  0  0  0
  192.9280  175.6430  144.5090 C   0  0  2  0  0  3  0  0  0  0  0  0
  194.5840  176.7030  146.5810 N   0  0  0  0  0  0  0  0  0  0  0  0
  193.1590  177.1610  144.6500 C   0  0  0  0  0  2  0  0  0  0  0  0
  193.3870  173.4010  145.5560 C   0  0  0  0  0  1  0  0  0  0  0  0
  193.9530  174.7760  145.2630 C   0  0  2  0  0  3  0  0  0  0  0  0
  194.3590  175.4360  146.5500 C   0  0  0  0  0  3  0  0  0  0  0  0
  194.4600  177.5040  145.3820 C   0  0  0  0  0  2  0  0  0  0  0  0
  189.6720  176.4470  142.6880 C   0  0  0  0  0  2  0  0  0  0  0  0
  189.7450  177.4590  143.8260 C   0  0  0  0  0  2  0  0  0  0  0  0
  187.3110  177.9530  143.8570 C   0  0  0  0  0  3  0  0  0  0  0  0
  188.3360  177.2480  145.9490 C   0  0  0  0  0  0  0  0  0  0  0  0
  185.9810  177.8420  145.8690 C   0  0  0  0  0  0  0  0  0  0  0  0
  188.4450  177.5340  144.5650 C   0  0  0  0  0  0  0  0  0  0  0  0
  187.1010  177.4150  146.5840 C   0  0  0  0  0  3  0  0  0  0  0  0
  184.4480  178.0490  146.6880 Cl  0  0  0  0  0  0  0  0  0  0  0  0
  186.0830  178.1040  144.5040 C   0  0  0  0  0  3  0  0  0  0  0  0
  189.4060  176.7980  146.7330 O   0  0  0  0  0  0  0  0  0  0  0  0
  190.8430  175.4670  147.6470 C   0  0  0  0  0  1  0  0  0  0  0  0
  189.9920  175.6070  146.5520 O   0  0  0  0  0  0  0  0  0  0  0  0
  1 17  1  6  0  0  0
  2  5  1  0  0  0  0
  3  1  1  0  0  0  0
  3  5  2  0  0  0  0
  4  2  2  0  0  0  0
  6  4  1  0  0  0  0
  6  3  1  0  0  0  0
  7  9  2  0  0  0  0
  9  1  1  0  0  0  0
  9  8  1  0  0  0  0
 10  8  1  6  0  0  0
 10 12  1  0  0  0  0
 10 14  1  0  0  0  0
 12 16  1  0  0  0  0
 14 13  1  1  0  0  0
 14 15  1  0  0  0  0
 15 11  2  0  0  0  0
 16 11  1  0  0  0  0
 17 18  1  0  0  0  0
 18 22  1  0  0  0  0
 19 25  2  0  0  0  0
 19 22  1  0  0  0  0
 20 23  1  0  0  0  0
 20 26  1  0  0  0  0
 21 23  2  0  0  0  0
 21 24  1  0  0  0  0
 22 20  2  0  0  0  0
 25 21  1  0  0  0  0
 28 26  1  0  0  0  0
 28 27  1  0  0  0  0
M  END
>  <MODEL>
9

>  <REMARK>
 VINA RESULT:      -6.0      3.832      7.013
  Name = 
  8 active torsions:
  status: ('A' for Active; 'I' for Inactive)
    1  A    between atoms: N_2  and  C_3
    2  A    between atoms: C_9  and  O_14
    3  A    between atoms: C_10  and  C_13
    4  A    between atoms: C_10  and  C_17
    5  A    between atoms: O_14  and  O_25
    6  A    between atoms: C_16  and  C_27
    7  A    between atoms: C_17  and  C_27
    8  A    between atoms: C_26  and  C_27
                            x       y       z     vdW  Elec       q    Type
                         _______ _______ _______ _____ _____    ______ ____

>  <TORSDO>
F 8

$$$$
