=
 OpenBabel11052417223D

 30 31  0  0  1  0  0  0  0  0999 V2000
  190.3990  177.4310  144.0270 C   0  0  2  0  0  0  0  0  0  0  0  0
  191.3030  173.8850  144.0990 C   0  0  0  0  0  2  0  0  0  0  0  0
  190.8790  174.5560  142.8360 C   0  0  0  0  0  0  0  0  0  0  0  0
  190.7560  176.5280  145.1170 N   0  0  0  0  0  2  0  0  0  0  0  0
  191.2350  178.6840  143.8510 C   0  0  0  0  0  1  0  0  0  0  0  0
  192.3030  174.6600  144.7540 O   0  0  0  0  0  0  0  0  0  0  0  0
  192.0580  175.9510  145.2240 C   0  0  0  0  0  0  0  0  0  0  0  0
  188.9140  177.6120  143.7240 C   0  0  1  0  0  3  0  0  0  0  0  0
  189.6940  175.3550  142.8240 N   0  0  0  0  0  0  0  0  0  0  0  0
  191.6030  174.4790  141.8110 O   0  0  0  0  0  0  0  0  0  0  0  0
  192.9920  176.6070  145.7500 O   0  0  0  0  0  0  0  0  0  0  0  0
  189.8240  176.8180  142.7470 C   0  0  2  0  0  3  0  0  0  0  0  0
  187.8990  176.8020  144.5110 C   0  0  0  0  0  0  0  0  0  0  0  0
  188.2110  176.1020  145.4630 O   0  0  0  0  0  0  0  0  0  0  0  0
  186.4550  176.9230  144.1160 C   0  0  1  0  0  3  0  0  0  0  0  0
  185.5260  177.0980  145.3190 C   0  0  0  0  0  2  0  0  0  0  0  0
  185.2740  178.5620  145.6390 C   0  0  0  0  0  2  0  0  0  0  0  0
  186.2990  178.0470  147.8250 C   0  0  0  0  0  1  0  0  0  0  0  0
  185.1370  178.7350  147.1390 C   0  0  0  0  0  2  0  0  0  0  0  0
  186.2810  177.9520  143.1850 O   0  0  0  0  0  0  0  0  0  0  0  0
  185.6510  177.3440  142.0970 C   0  0  0  0  0  2  0  0  0  0  0  0
  184.2860  178.6270  140.4530 O   0  0  0  0  0  0  0  0  0  0  0  0
  183.5290  178.3000  142.5960 O   0  0  0  0  0  1  0  0  0  0  0  0
  184.4250  178.1050  141.7350 C   0  0  0  0  0  0  0  0  0  0  0  0
  188.4490  174.7030  142.4190 C   0  0  0  0  0  2  0  0  0  0  0  0
  188.5370  173.9080  140.0930 C   0  0  0  0  0  3  0  0  0  0  0  0
  188.2000  174.8620  140.9530 C   0  0  0  0  0  3  0  0  0  0  0  0
  188.2950  174.0420  138.6530 C   0  0  0  0  0  0  0  0  0  0  0  0
  187.6160  175.0010  138.1940 O   0  0  0  0  0  0  0  0  0  0  0  0
  188.8560  173.0280  137.7220 C   0  0  0  0  0  1  0  0  0  0  0  0
  1  5  1  6  0  0  0
  1  4  1  0  0  0  0
  2  6  1  0  0  0  0
  3  2  1  0  0  0  0
  4  7  1  0  0  0  0
  6  7  1  0  0  0  0
  7 11  2  0  0  0  0
  8  1  1  0  0  0  0
  8 13  1  1  0  0  0
  9  3  1  0  0  0  0
 10  3  2  0  0  0  0
 12  9  1  1  0  0  0
 12  8  1  0  0  0  0
 12  1  1  0  0  0  0
 13 14  2  0  0  0  0
 15 13  1  0  0  0  0
 15 16  1  1  0  0  0
 16 17  1  0  0  0  0
 17 19  1  0  0  0  0
 19 18  1  0  0  0  0
 20 15  1  0  0  0  0
 21 20  1  0  0  0  0
 22 24  2  0  0  0  0
 24 21  1  0  0  0  0
 24 23  1  0  0  0  0
 25  9  1  0  0  0  0
 26 27  2  0  0  0  0
 27 25  1  0  0  0  0
 28 26  1  0  0  0  0
 29 28  2  0  0  0  0
 30 28  1  0  0  0  0
M  END
>  <MODEL>
1

>  <REMARK>
 VINA RESULT:      -6.0      0.000      0.000
  Name = 
  11 active torsions:
  status: ('A' for Active; 'I' for Inactive)
    1  A    between atoms: C_1  and  C_4
    2  A    between atoms: C_1  and  C_22
    3  A    between atoms: C_4  and  C_9
    4  A    between atoms: C_4  and  O_12
    5  A    between atoms: C_7  and  N_23
    6  A    between atoms: C_7  and  C_25
    7  A    between atoms: C_8  and  O_12
    8  A    between atoms: C_8  and  C_30
    9  A    between atoms: C_9  and  C_21
   10  A    between atoms: C_10  and  C_15
   11  A    between atoms: C_17  and  C_21
                            x       y       z     vdW  Elec       q    Type
                         _______ _______ _______ _____ _____    ______ ____

>  <TORSDO>
F 11

$$$$
=
 OpenBabel11052417223D

 30 31  0  0  1  0  0  0  0  0999 V2000
  190.4270  173.8220  144.6400 C   0  0  2  0  0  0  0  0  0  0  0  0
  192.7110  175.9450  146.5570 C   0  0  0  0  0  2  0  0  0  0  0  0
  191.2820  175.7800  146.9530 C   0  0  0  0  0  0  0  0  0  0  0  0
  191.8170  174.2180  144.4270 N   0  0  0  0  0  2  0  0  0  0  0  0
  190.1240  172.3390  144.7150 C   0  0  0  0  0  1  0  0  0  0  0  0
  193.3050  174.6720  146.3230 O   0  0  0  0  0  0  0  0  0  0  0  0
  192.8610  173.8160  145.3140 C   0  0  0  0  0  0  0  0  0  0  0  0
  189.3470  174.6570  143.9560 C   0  0  1  0  0  3  0  0  0  0  0  0
  190.2540  175.9330  145.9720 N   0  0  0  0  0  0  0  0  0  0  0  0
  190.9930  175.4340  148.1270 O   0  0  0  0  0  0  0  0  0  0  0  0
  193.3910  172.6830  145.1850 O   0  0  0  0  0  0  0  0  0  0  0  0
  189.5440  174.7360  145.4960 C   0  0  2  0  0  3  0  0  0  0  0  0
  189.7600  175.8810  143.1580 C   0  0  0  0  0  0  0  0  0  0  0  0
  190.8860  176.3510  143.2090 O   0  0  0  0  0  0  0  0  0  0  0  0
  188.7390  176.4880  142.2390 C   0  0  1  0  0  3  0  0  0  0  0  0
  187.8080  175.4430  141.6190 C   0  0  0  0  0  2  0  0  0  0  0  0
  188.4690  174.6940  140.4750 C   0  0  0  0  0  2  0  0  0  0  0  0
  189.6930  172.5940  140.9050 C   0  0  0  0  0  1  0  0  0  0  0  0
  188.3220  173.2020  140.6940 C   0  0  0  0  0  2  0  0  0  0  0  0
  188.0150  177.4890  142.8940 O   0  0  0  0  0  0  0  0  0  0  0  0
  187.0480  177.8900  141.9710 C   0  0  0  0  0  2  0  0  0  0  0  0
  185.7870  179.5080  143.3850 O   0  0  0  0  0  1  0  0  0  0  0  0
  184.7990  177.5600  142.6790 O   0  0  0  0  0  0  0  0  0  0  0  0
  185.8110  178.3070  142.6850 C   0  0  0  0  0  0  0  0  0  0  0  0
  189.6430  177.2540  145.8390 C   0  0  0  0  0  2  0  0  0  0  0  0
  187.2200  177.5660  146.1230 C   0  0  0  0  0  3  0  0  0  0  0  0
  188.4110  177.3740  146.6780 C   0  0  0  0  0  3  0  0  0  0  0  0
  185.9990  177.6790  146.9270 C   0  0  0  0  0  0  0  0  0  0  0  0
  186.0570  177.8070  148.1800 O   0  0  0  0  0  0  0  0  0  0  0  0
  184.6750  177.6370  146.2540 C   0  0  0  0  0  1  0  0  0  0  0  0
  1  5  1  1  0  0  0
  1 12  1  0  0  0  0
  2  3  1  0  0  0  0
  3 10  2  0  0  0  0
  4  1  1  0  0  0  0
  4  7  1  0  0  0  0
  6  2  1  0  0  0  0
  7  6  1  0  0  0  0
  8 13  1  6  0  0  0
  8  1  1  0  0  0  0
  8 12  1  0  0  0  0
  9  3  1  0  0  0  0
 11  7  2  0  0  0  0
 12  9  1  6  0  0  0
 13 14  2  0  0  0  0
 15 16  1  1  0  0  0
 15 20  1  0  0  0  0
 15 13  1  0  0  0  0
 17 19  1  0  0  0  0
 17 16  1  0  0  0  0
 19 18  1  0  0  0  0
 21 24  1  0  0  0  0
 21 20  1  0  0  0  0
 23 24  2  0  0  0  0
 24 22  1  0  0  0  0
 25  9  1  0  0  0  0
 25 27  1  0  0  0  0
 26 27  2  0  0  0  0
 26 28  1  0  0  0  0
 28 29  2  0  0  0  0
 30 28  1  0  0  0  0
M  END
>  <MODEL>
2

>  <REMARK>
 VINA RESULT:      -5.9      2.071      5.489
  Name = 
  11 active torsions:
  status: ('A' for Active; 'I' for Inactive)
    1  A    between atoms: C_1  and  C_4
    2  A    between atoms: C_1  and  C_22
    3  A    between atoms: C_4  and  C_9
    4  A    between atoms: C_4  and  O_12
    5  A    between atoms: C_7  and  N_23
    6  A    between atoms: C_7  and  C_25
    7  A    between atoms: C_8  and  O_12
    8  A    between atoms: C_8  and  C_30
    9  A    between atoms: C_9  and  C_21
   10  A    between atoms: C_10  and  C_15
   11  A    between atoms: C_17  and  C_21
                            x       y       z     vdW  Elec       q    Type
                         _______ _______ _______ _____ _____    ______ ____

>  <TORSDO>
F 11

$$$$
=
 OpenBabel11052417223D

 30 31  0  0  1  0  0  0  0  0999 V2000
  191.2630  176.1400  144.4730 C   0  0  2  0  0  0  0  0  0  0  0  0
  191.1910  172.4930  144.1730 C   0  0  0  0  0  2  0  0  0  0  0  0
  190.9790  173.3770  142.9900 C   0  0  0  0  0  0  0  0  0  0  0  0
  191.3510  175.0680  145.4610 N   0  0  0  0  0  2  0  0  0  0  0  0
  192.4040  177.1360  144.4150 C   0  0  0  0  0  1  0  0  0  0  0  0
  192.3510  172.9030  144.8900 O   0  0  0  0  0  0  0  0  0  0  0  0
  192.4510  174.1580  145.4920 C   0  0  0  0  0  0  0  0  0  0  0  0
  189.8840  176.7390  144.2080 C   0  0  1  0  0  3  0  0  0  0  0  0
  190.0490  174.4590  143.0730 N   0  0  0  0  0  0  0  0  0  0  0  0
  191.6720  173.2140  141.9540 O   0  0  0  0  0  0  0  0  0  0  0  0
  193.5180  174.4850  146.0710 O   0  0  0  0  0  0  0  0  0  0  0  0
  190.5650  175.8350  143.1440 C   0  0  2  0  0  3  0  0  0  0  0  0
  188.6790  176.1520  144.9220 C   0  0  0  0  0  0  0  0  0  0  0  0
  188.7820  175.3490  145.8360 O   0  0  0  0  0  0  0  0  0  0  0  0
  187.3200  176.6350  144.5020 C   0  0  1  0  0  3  0  0  0  0  0  0
  186.3580  176.7880  145.6830 C   0  0  0  0  0  2  0  0  0  0  0  0
  186.6950  177.9950  146.5430 C   0  0  0  0  0  2  0  0  0  0  0  0
  184.2510  178.2890  146.3670 C   0  0  0  0  0  1  0  0  0  0  0  0
  185.5780  179.0140  146.4450 C   0  0  0  0  0  2  0  0  0  0  0  0
  187.4200  177.8230  143.7710 O   0  0  0  0  0  0  0  0  0  0  0  0
  186.5580  177.6460  142.6870 C   0  0  0  0  0  2  0  0  0  0  0  0
  186.6460  177.6930  140.1970 O   0  0  0  0  0  0  0  0  0  0  0  0
  188.5040  178.2170  141.4410 O   0  0  0  0  0  1  0  0  0  0  0  0
  187.2930  177.8790  141.4150 C   0  0  0  0  0  0  0  0  0  0  0  0
  188.6820  174.2060  142.6210 C   0  0  0  0  0  2  0  0  0  0  0  0
  188.5400  173.5690  140.2490 C   0  0  0  0  0  3  0  0  0  0  0  0
  188.5200  174.5270  141.1690 C   0  0  0  0  0  3  0  0  0  0  0  0
  188.3760  173.8620  138.8210 C   0  0  0  0  0  0  0  0  0  0  0  0
  187.7730  174.9000  138.4360 O   0  0  0  0  0  0  0  0  0  0  0  0
  188.9240  172.9150  137.8150 C   0  0  0  0  0  1  0  0  0  0  0  0
  1  5  1  6  0  0  0
  1  4  1  0  0  0  0
  2  6  1  0  0  0  0
  3  9  1  0  0  0  0
  3  2  1  0  0  0  0
  4  7  1  0  0  0  0
  6  7  1  0  0  0  0
  7 11  2  0  0  0  0
  8  1  1  0  0  0  0
  8 13  1  1  0  0  0
 10  3  2  0  0  0  0
 12  9  1  1  0  0  0
 12  8  1  0  0  0  0
 12  1  1  0  0  0  0
 13 14  2  0  0  0  0
 15 13  1  0  0  0  0
 15 16  1  1  0  0  0
 16 17  1  0  0  0  0
 18 19  1  0  0  0  0
 19 17  1  0  0  0  0
 20 15  1  0  0  0  0
 21 20  1  0  0  0  0
 22 24  2  0  0  0  0
 24 23  1  0  0  0  0
 24 21  1  0  0  0  0
 25  9  1  0  0  0  0
 26 27  2  0  0  0  0
 27 25  1  0  0  0  0
 28 26  1  0  0  0  0
 29 28  2  0  0  0  0
 30 28  1  0  0  0  0
M  END
>  <MODEL>
3

>  <REMARK>
 VINA RESULT:      -5.8      1.467      1.728
  Name = 
  11 active torsions:
  status: ('A' for Active; 'I' for Inactive)
    1  A    between atoms: C_1  and  C_4
    2  A    between atoms: C_1  and  C_22
    3  A    between atoms: C_4  and  C_9
    4  A    between atoms: C_4  and  O_12
    5  A    between atoms: C_7  and  N_23
    6  A    between atoms: C_7  and  C_25
    7  A    between atoms: C_8  and  O_12
    8  A    between atoms: C_8  and  C_30
    9  A    between atoms: C_9  and  C_21
   10  A    between atoms: C_10  and  C_15
   11  A    between atoms: C_17  and  C_21
                            x       y       z     vdW  Elec       q    Type
                         _______ _______ _______ _____ _____    ______ ____

>  <TORSDO>
F 11

$$$$
=
 OpenBabel11052417223D

 30 31  0  0  1  0  0  0  0  0999 V2000
  191.1360  173.9010  144.3250 C   0  0  2  0  0  0  0  0  0  0  0  0
  193.1500  176.7030  145.5470 C   0  0  0  0  0  2  0  0  0  0  0  0
  191.9370  176.2360  146.2800 C   0  0  0  0  0  0  0  0  0  0  0  0
  192.2920  174.6000  143.7690 N   0  0  0  0  0  2  0  0  0  0  0  0
  191.2560  172.4040  144.5340 C   0  0  0  0  0  1  0  0  0  0  0  0
  193.9890  175.5960  145.2340 O   0  0  0  0  0  0  0  0  0  0  0  0
  193.5740  174.5580  144.3980 C   0  0  0  0  0  0  0  0  0  0  0  0
  189.7530  174.3720  143.8840 C   0  0  1  0  0  3  0  0  0  0  0  0
  190.7150  176.0310  145.5670 N   0  0  0  0  0  0  0  0  0  0  0  0
  192.0130  175.9520  147.5030 O   0  0  0  0  0  0  0  0  0  0  0  0
  194.3390  173.5820  144.1950 O   0  0  0  0  0  0  0  0  0  0  0  0
  190.2550  174.6550  145.3260 C   0  0  2  0  0  3  0  0  0  0  0  0
  189.6460  175.5710  142.9580 C   0  0  0  0  0  0  0  0  0  0  0  0
  190.6260  176.1430  142.5050 O   0  0  0  0  0  0  0  0  0  0  0  0
  188.2690  176.0200  142.5580 C   0  0  1  0  0  3  0  0  0  0  0  0
  188.2770  177.3550  141.8120 C   0  0  0  0  0  2  0  0  0  0  0  0
  187.6940  178.4820  142.6490 C   0  0  0  0  0  2  0  0  0  0  0  0
  185.6180  179.4330  143.5840 C   0  0  0  0  0  1  0  0  0  0  0  0
  186.2070  178.2580  142.8320 C   0  0  0  0  0  2  0  0  0  0  0  0
  187.6200  175.0270  141.8170 O   0  0  0  0  0  0  0  0  0  0  0  0
  187.9520  175.3000  140.4890 C   0  0  0  0  0  2  0  0  0  0  0  0
  188.6880  172.9220  140.5970 O   0  0  0  0  0  1  0  0  0  0  0  0
  188.8370  174.1010  138.6330 O   0  0  0  0  0  0  0  0  0  0  0  0
  188.5070  174.0780  139.8460 C   0  0  0  0  0  0  0  0  0  0  0  0
  189.7670  177.1430  145.5260 C   0  0  0  0  0  2  0  0  0  0  0  0
  187.4780  177.6540  146.2700 C   0  0  0  0  0  3  0  0  0  0  0  0
  188.5060  176.8130  146.2600 C   0  0  0  0  0  3  0  0  0  0  0  0
  186.2310  177.3460  146.9780 C   0  0  0  0  0  0  0  0  0  0  0  0
  186.1060  177.5890  148.2080 O   0  0  0  0  0  0  0  0  0  0  0  0
  185.1020  176.7310  146.2320 C   0  0  0  0  0  1  0  0  0  0  0  0
  1  5  1  1  0  0  0
  1 12  1  0  0  0  0
  2  3  1  0  0  0  0
  3 10  2  0  0  0  0
  4  1  1  0  0  0  0
  4  7  1  0  0  0  0
  6  2  1  0  0  0  0
  7  6  1  0  0  0  0
  8 13  1  6  0  0  0
  8  1  1  0  0  0  0
  8 12  1  0  0  0  0
  9  3  1  0  0  0  0
 11  7  2  0  0  0  0
 12  9  1  6  0  0  0
 14 13  2  0  0  0  0
 15 16  1  6  0  0  0
 15 13  1  0  0  0  0
 16 17  1  0  0  0  0
 17 19  1  0  0  0  0
 19 18  1  0  0  0  0
 20 15  1  0  0  0  0
 21 20  1  0  0  0  0
 23 24  2  0  0  0  0
 24 21  1  0  0  0  0
 24 22  1  0  0  0  0
 25  9  1  0  0  0  0
 25 27  1  0  0  0  0
 26 28  1  0  0  0  0
 27 26  2  0  0  0  0
 28 29  2  0  0  0  0
 30 28  1  0  0  0  0
M  END
>  <MODEL>
4

>  <REMARK>
 VINA RESULT:      -5.7      2.255      5.332
  Name = 
  11 active torsions:
  status: ('A' for Active; 'I' for Inactive)
    1  A    between atoms: C_1  and  C_4
    2  A    between atoms: C_1  and  C_22
    3  A    between atoms: C_4  and  C_9
    4  A    between atoms: C_4  and  O_12
    5  A    between atoms: C_7  and  N_23
    6  A    between atoms: C_7  and  C_25
    7  A    between atoms: C_8  and  O_12
    8  A    between atoms: C_8  and  C_30
    9  A    between atoms: C_9  and  C_21
   10  A    between atoms: C_10  and  C_15
   11  A    between atoms: C_17  and  C_21
                            x       y       z     vdW  Elec       q    Type
                         _______ _______ _______ _____ _____    ______ ____

>  <TORSDO>
F 11

$$$$
=
 OpenBabel11052417223D

 30 31  0  0  1  0  0  0  0  0999 V2000
  191.0560  175.6000  143.0430 C   0  0  2  0  0  0  0  0  0  0  0  0
  189.0830  172.8960  141.5610 C   0  0  0  0  0  2  0  0  0  0  0  0
  188.7120  174.3280  141.3680 C   0  0  0  0  0  0  0  0  0  0  0  0
  191.1450  174.1460  143.1450 N   0  0  0  0  0  2  0  0  0  0  0  0
  192.2810  176.3440  142.5490 C   0  0  0  0  0  1  0  0  0  0  0  0
  190.4650  172.7050  141.2790 O   0  0  0  0  0  0  0  0  0  0  0  0
  191.4710  173.3280  142.0210 C   0  0  0  0  0  0  0  0  0  0  0  0
  190.2600  176.3320  144.1210 C   0  0  1  0  0  3  0  0  0  0  0  0
  188.6470  175.2010  142.4980 N   0  0  0  0  0  0  0  0  0  0  0  0
  188.5340  174.7790  140.2080 O   0  0  0  0  0  0  0  0  0  0  0  0
  192.6740  173.1620  141.6960 O   0  0  0  0  0  0  0  0  0  0  0  0
  189.7000  176.2120  142.6760 C   0  0  2  0  0  3  0  0  0  0  0  0
  189.5510  175.5190  145.1900 C   0  0  0  0  0  0  0  0  0  0  0  0
  189.4340  174.3040  145.1240 O   0  0  0  0  0  0  0  0  0  0  0  0
  189.0270  176.2550  146.3900 C   0  0  1  0  0  3  0  0  0  0  0  0
  190.1300  176.9830  147.1630 C   0  0  0  0  0  2  0  0  0  0  0  0
  191.1740  176.0230  147.7080 C   0  0  0  0  0  2  0  0  0  0  0  0
  193.0150  175.0820  146.3580 C   0  0  0  0  0  1  0  0  0  0  0  0
  192.5170  176.3230  147.0710 C   0  0  0  0  0  2  0  0  0  0  0  0
  188.0000  177.1310  146.0250 O   0  0  0  0  0  0  0  0  0  0  0  0
  186.8800  176.6750  146.7220 C   0  0  0  0  0  2  0  0  0  0  0  0
  184.7740  178.0010  146.8490 O   0  0  0  0  0  0  0  0  0  0  0  0
  186.6470  178.6730  147.9950 O   0  0  0  0  0  1  0  0  0  0  0  0
  186.1000  177.8330  147.2360 C   0  0  0  0  0  0  0  0  0  0  0  0
  187.3460  175.3710  143.1410 C   0  0  0  0  0  2  0  0  0  0  0  0
  185.5760  177.0690  143.3270 C   0  0  0  0  0  3  0  0  0  0  0  0
  186.7530  176.7080  142.8300 C   0  0  0  0  0  3  0  0  0  0  0  0
  184.9810  178.3780  143.0390 C   0  0  0  0  0  0  0  0  0  0  0  0
  184.0580  178.4990  142.1880 O   0  0  0  0  0  0  0  0  0  0  0  0
  185.4790  179.5810  143.7570 C   0  0  0  0  0  1  0  0  0  0  0  0
  1  5  1  6  0  0  0
  1  4  1  0  0  0  0
  1  8  1  0  0  0  0
  3  2  1  0  0  0  0
  3  9  1  0  0  0  0
  6  2  1  0  0  0  0
  6  7  1  0  0  0  0
  7  4  1  0  0  0  0
  8 13  1  1  0  0  0
  9 25  1  0  0  0  0
 10  3  2  0  0  0  0
 11  7  2  0  0  0  0
 12  9  1  1  0  0  0
 12  1  1  0  0  0  0
 12  8  1  0  0  0  0
 13 15  1  0  0  0  0
 14 13  2  0  0  0  0
 15 16  1  6  0  0  0
 16 17  1  0  0  0  0
 18 19  1  0  0  0  0
 19 17  1  0  0  0  0
 20 15  1  0  0  0  0
 20 21  1  0  0  0  0
 21 24  1  0  0  0  0
 22 24  2  0  0  0  0
 24 23  1  0  0  0  0
 27 25  1  0  0  0  0
 27 26  2  0  0  0  0
 28 26  1  0  0  0  0
 28 30  1  0  0  0  0
 29 28  2  0  0  0  0
M  END
>  <MODEL>
5

>  <REMARK>
 VINA RESULT:      -5.7      2.019      4.839
  Name = 
  11 active torsions:
  status: ('A' for Active; 'I' for Inactive)
    1  A    between atoms: C_1  and  C_4
    2  A    between atoms: C_1  and  C_22
    3  A    between atoms: C_4  and  C_9
    4  A    between atoms: C_4  and  O_12
    5  A    between atoms: C_7  and  N_23
    6  A    between atoms: C_7  and  C_25
    7  A    between atoms: C_8  and  O_12
    8  A    between atoms: C_8  and  C_30
    9  A    between atoms: C_9  and  C_21
   10  A    between atoms: C_10  and  C_15
   11  A    between atoms: C_17  and  C_21
                            x       y       z     vdW  Elec       q    Type
                         _______ _______ _______ _____ _____    ______ ____

>  <TORSDO>
F 11

$$$$
=
 OpenBabel11052417223D

 30 31  0  0  1  0  0  0  0  0999 V2000
  190.3370  177.4460  144.1280 C   0  0  2  0  0  0  0  0  0  0  0  0
  191.1950  173.9120  144.5420 C   0  0  0  0  0  2  0  0  0  0  0  0
  190.7900  174.4660  143.2170 C   0  0  0  0  0  0  0  0  0  0  0  0
  190.6730  176.6450  145.3020 N   0  0  0  0  0  2  0  0  0  0  0  0
  191.1910  178.6660  143.8440 C   0  0  0  0  0  1  0  0  0  0  0  0
  192.1990  174.7320  145.1300 O   0  0  0  0  0  0  0  0  0  0  0  0
  191.9670  176.0650  145.4750 C   0  0  0  0  0  0  0  0  0  0  0  0
  188.8570  177.6150  143.7940 C   0  0  1  0  0  3  0  0  0  0  0  0
  189.6160  175.2740  143.1180 N   0  0  0  0  0  0  0  0  0  0  0  0
  191.5220  174.2850  142.2110 O   0  0  0  0  0  0  0  0  0  0  0  0
  192.9050  176.7560  145.9460 O   0  0  0  0  0  0  0  0  0  0  0  0
  189.7650  176.7220  142.9050 C   0  0  2  0  0  3  0  0  0  0  0  0
  187.8250  176.8950  144.6440 C   0  0  0  0  0  0  0  0  0  0  0  0
  188.1320  176.0910  145.5120 O   0  0  0  0  0  0  0  0  0  0  0  0
  186.3800  177.2420  144.4260 C   0  0  1  0  0  3  0  0  0  0  0  0
  185.9150  176.9590  142.9960 C   0  0  0  0  0  2  0  0  0  0  0  0
  185.1050  178.1080  142.4190 C   0  0  0  0  0  2  0  0  0  0  0  0
  186.7310  177.5510  140.6480 C   0  0  0  0  0  1  0  0  0  0  0  0
  185.4310  178.2690  140.9490 C   0  0  0  0  0  2  0  0  0  0  0  0
  185.5680  176.5940  145.3620 O   0  0  0  0  0  0  0  0  0  0  0  0
  184.8180  177.6150  145.9480 C   0  0  0  0  0  2  0  0  0  0  0  0
  186.0830  177.3130  148.0730 O   0  0  0  0  0  1  0  0  0  0  0  0
  185.6610  179.4170  147.2560 O   0  0  0  0  0  0  0  0  0  0  0  0
  185.5500  178.1720  147.1180 C   0  0  0  0  0  0  0  0  0  0  0  0
  188.3660  174.6030  142.7640 C   0  0  0  0  0  2  0  0  0  0  0  0
  188.4210  174.4290  140.3110 C   0  0  0  0  0  3  0  0  0  0  0  0
  188.5030  173.8280  141.4920 C   0  0  0  0  0  3  0  0  0  0  0  0
  188.5590  173.6880  139.0530 C   0  0  0  0  0  0  0  0  0  0  0  0
  188.2560  174.2180  137.9500 O   0  0  0  0  0  0  0  0  0  0  0  0
  189.0570  172.2880  139.0820 C   0  0  0  0  0  1  0  0  0  0  0  0
  1  5  1  6  0  0  0
  1  4  1  0  0  0  0
  2  6  1  0  0  0  0
  3  2  1  0  0  0  0
  4  7  1  0  0  0  0
  6  7  1  0  0  0  0
  7 11  2  0  0  0  0
  8  1  1  0  0  0  0
  8 13  1  1  0  0  0
  9  3  1  0  0  0  0
 10  3  2  0  0  0  0
 12  9  1  1  0  0  0
 12  8  1  0  0  0  0
 12  1  1  0  0  0  0
 13 14  2  0  0  0  0
 15 16  1  6  0  0  0
 15 13  1  0  0  0  0
 15 20  1  0  0  0  0
 17 16  1  0  0  0  0
 18 19  1  0  0  0  0
 19 17  1  0  0  0  0
 20 21  1  0  0  0  0
 21 24  1  0  0  0  0
 24 23  2  0  0  0  0
 24 22  1  0  0  0  0
 25  9  1  0  0  0  0
 26 27  2  0  0  0  0
 27 25  1  0  0  0  0
 28 30  1  0  0  0  0
 28 26  1  0  0  0  0
 29 28  2  0  0  0  0
M  END
>  <MODEL>
6

>  <REMARK>
 VINA RESULT:      -5.5      1.457      2.929
  Name = 
  11 active torsions:
  status: ('A' for Active; 'I' for Inactive)
    1  A    between atoms: C_1  and  C_4
    2  A    between atoms: C_1  and  C_22
    3  A    between atoms: C_4  and  C_9
    4  A    between atoms: C_4  and  O_12
    5  A    between atoms: C_7  and  N_23
    6  A    between atoms: C_7  and  C_25
    7  A    between atoms: C_8  and  O_12
    8  A    between atoms: C_8  and  C_30
    9  A    between atoms: C_9  and  C_21
   10  A    between atoms: C_10  and  C_15
   11  A    between atoms: C_17  and  C_21
                            x       y       z     vdW  Elec       q    Type
                         _______ _______ _______ _____ _____    ______ ____

>  <TORSDO>
F 11

$$$$
=
 OpenBabel11052417223D

 30 31  0  0  1  0  0  0  0  0999 V2000
  191.7140  174.4210  142.1930 C   0  0  2  0  0  0  0  0  0  0  0  0
  188.5370  172.6590  141.7420 C   0  0  0  0  0  2  0  0  0  0  0  0
  188.6490  174.1310  141.5280 C   0  0  0  0  0  0  0  0  0  0  0  0
  191.3160  173.0330  142.4160 N   0  0  0  0  0  2  0  0  0  0  0  0
  192.8710  174.6750  141.2470 C   0  0  0  0  0  1  0  0  0  0  0  0
  189.5770  171.9810  141.0440 O   0  0  0  0  0  0  0  0  0  0  0  0
  190.9260  172.1770  141.3420 C   0  0  0  0  0  0  0  0  0  0  0  0
  191.6490  175.3700  143.3870 C   0  0  1  0  0  3  0  0  0  0  0  0
  189.2880  174.9430  142.5160 N   0  0  0  0  0  0  0  0  0  0  0  0
  188.2520  174.6410  140.4490 O   0  0  0  0  0  0  0  0  0  0  0  0
  191.8030  171.5890  140.6600 O   0  0  0  0  0  0  0  0  0  0  0  0
  190.6210  175.4940  142.2280 C   0  0  2  0  0  3  0  0  0  0  0  0
  191.1160  174.8510  144.7110 C   0  0  0  0  0  0  0  0  0  0  0  0
  190.9950  173.6590  144.9490 O   0  0  0  0  0  0  0  0  0  0  0  0
  190.7800  175.8620  145.7690 C   0  0  1  0  0  3  0  0  0  0  0  0
  190.3030  175.2160  147.0720 C   0  0  0  0  0  2  0  0  0  0  0  0
  188.8010  175.3510  147.2610 C   0  0  0  0  0  2  0  0  0  0  0  0
  186.8560  176.7830  146.7540 C   0  0  0  0  0  1  0  0  0  0  0  0
  188.3650  176.7490  146.8720 C   0  0  0  0  0  2  0  0  0  0  0  0
  191.8590  176.7230  145.9930 O   0  0  0  0  0  0  0  0  0  0  0  0
  192.7630  175.9700  146.7440 C   0  0  0  0  0  2  0  0  0  0  0  0
  195.1600  175.3550  146.4450 O   0  0  0  0  0  1  0  0  0  0  0  0
  194.4280  177.4750  145.9480 O   0  0  0  0  0  0  0  0  0  0  0  0
  194.1560  176.3130  146.3460 C   0  0  0  0  0  0  0  0  0  0  0  0
  188.4370  175.5640  143.5280 C   0  0  0  0  0  2  0  0  0  0  0  0
  186.2990  176.6280  142.9390 C   0  0  0  0  0  3  0  0  0  0  0  0
  187.6260  176.6800  142.9510 C   0  0  0  0  0  3  0  0  0  0  0  0
  185.4850  177.7140  142.3830 C   0  0  0  0  0  0  0  0  0  0  0  0
  185.7310  178.1910  141.2420 O   0  0  0  0  0  0  0  0  0  0  0  0
  184.3580  178.2640  143.1810 C   0  0  0  0  0  1  0  0  0  0  0  0
  1  5  1  6  0  0  0
  1 12  1  0  0  0  0
  1  4  1  0  0  0  0
  1  8  1  0  0  0  0
  3  2  1  0  0  0  0
  3  9  1  0  0  0  0
  6  7  1  0  0  0  0
  6  2  1  0  0  0  0
  7  4  1  0  0  0  0
  8 13  1  1  0  0  0
  9 25  1  0  0  0  0
 10  3  2  0  0  0  0
 11  7  2  0  0  0  0
 12  9  1  1  0  0  0
 12  8  1  0  0  0  0
 13 14  2  0  0  0  0
 13 15  1  0  0  0  0
 15 20  1  0  0  0  0
 15 16  1  1  0  0  0
 16 17  1  0  0  0  0
 18 19  1  0  0  0  0
 19 17  1  0  0  0  0
 20 21  1  0  0  0  0
 23 24  2  0  0  0  0
 24 22  1  0  0  0  0
 24 21  1  0  0  0  0
 26 27  2  0  0  0  0
 27 25  1  0  0  0  0
 28 26  1  0  0  0  0
 28 30  1  0  0  0  0
 29 28  2  0  0  0  0
M  END
>  <MODEL>
7

>  <REMARK>
 VINA RESULT:      -5.5      2.172      5.887
  Name = 
  11 active torsions:
  status: ('A' for Active; 'I' for Inactive)
    1  A    between atoms: C_1  and  C_4
    2  A    between atoms: C_1  and  C_22
    3  A    between atoms: C_4  and  C_9
    4  A    between atoms: C_4  and  O_12
    5  A    between atoms: C_7  and  N_23
    6  A    between atoms: C_7  and  C_25
    7  A    between atoms: C_8  and  O_12
    8  A    between atoms: C_8  and  C_30
    9  A    between atoms: C_9  and  C_21
   10  A    between atoms: C_10  and  C_15
   11  A    between atoms: C_17  and  C_21
                            x       y       z     vdW  Elec       q    Type
                         _______ _______ _______ _____ _____    ______ ____

>  <TORSDO>
F 11

$$$$
=
 OpenBabel11052417223D

 30 31  0  0  1  0  0  0  0  0999 V2000
  189.5730  175.3980  146.1770 C   0  0  2  0  0  0  0  0  0  0  0  0
  188.2020  177.6270  143.6170 C   0  0  0  0  0  2  0  0  0  0  0  0
  188.3540  176.1630  143.3760 C   0  0  0  0  0  0  0  0  0  0  0  0
  189.4020  176.8470  146.1220 N   0  0  0  0  0  2  0  0  0  0  0  0
  188.9190  174.6580  147.3270 C   0  0  0  0  0  1  0  0  0  0  0  0
  187.5520  177.8540  144.8640 O   0  0  0  0  0  0  0  0  0  0  0  0
  188.1100  177.4540  146.0800 C   0  0  0  0  0  0  0  0  0  0  0  0
  190.9250  174.8340  145.7450 C   0  0  1  0  0  3  0  0  0  0  0  0
  189.5940  175.5210  143.6780 N   0  0  0  0  0  0  0  0  0  0  0  0
  187.3700  175.4870  142.9810 O   0  0  0  0  0  0  0  0  0  0  0  0
  187.4690  177.6370  147.1450 O   0  0  0  0  0  0  0  0  0  0  0  0
  189.6690  174.6360  144.8510 C   0  0  2  0  0  3  0  0  0  0  0  0
  191.9850  175.7870  145.2210 C   0  0  0  0  0  0  0  0  0  0  0  0
  191.7970  176.9900  145.1200 O   0  0  0  0  0  0  0  0  0  0  0  0
  193.3250  175.2080  144.8680 C   0  0  1  0  0  3  0  0  0  0  0  0
  193.2610  173.7090  144.5680 C   0  0  0  0  0  2  0  0  0  0  0  0
  194.0980  172.8950  145.5410 C   0  0  0  0  0  2  0  0  0  0  0  0
  196.5180  173.2110  145.9080 C   0  0  0  0  0  1  0  0  0  0  0  0
  195.4760  172.6660  144.9530 C   0  0  0  0  0  2  0  0  0  0  0  0
  193.9060  175.9140  143.8090 O   0  0  0  0  0  0  0  0  0  0  0  0
  195.1240  176.3710  144.3140 C   0  0  0  0  0  2  0  0  0  0  0  0
  197.2770  177.0270  143.2440 O   0  0  0  0  0  1  0  0  0  0  0  0
  196.1210  175.1860  142.5050 O   0  0  0  0  0  0  0  0  0  0  0  0
  196.2000  176.1500  143.3100 C   0  0  0  0  0  0  0  0  0  0  0  0
  190.5640  175.3890  142.5930 C   0  0  0  0  0  2  0  0  0  0  0  0
  189.7430  174.0050  140.7330 C   0  0  0  0  0  3  0  0  0  0  0  0
  190.4110  174.0840  141.8780 C   0  0  0  0  0  3  0  0  0  0  0  0
  189.5860  172.7360  140.0140 C   0  0  0  0  0  0  0  0  0  0  0  0
  188.4870  172.4230  139.4810 O   0  0  0  0  0  0  0  0  0  0  0  0
  190.7400  171.8050  139.9180 C   0  0  0  0  0  1  0  0  0  0  0  0
  1  5  1  1  0  0  0
  2  6  1  0  0  0  0
  3  2  1  0  0  0  0
  3  9  1  0  0  0  0
  4  1  1  0  0  0  0
  6  7  1  0  0  0  0
  7  4  1  0  0  0  0
  7 11  2  0  0  0  0
  8 13  1  6  0  0  0
  8  1  1  0  0  0  0
 10  3  2  0  0  0  0
 12  9  1  6  0  0  0
 12  8  1  0  0  0  0
 12  1  1  0  0  0  0
 14 13  2  0  0  0  0
 15 16  1  6  0  0  0
 15 13  1  0  0  0  0
 16 17  1  0  0  0  0
 19 17  1  0  0  0  0
 19 18  1  0  0  0  0
 20 21  1  0  0  0  0
 20 15  1  0  0  0  0
 22 24  1  0  0  0  0
 23 24  2  0  0  0  0
 24 21  1  0  0  0  0
 25  9  1  0  0  0  0
 26 27  2  0  0  0  0
 27 25  1  0  0  0  0
 28 26  1  0  0  0  0
 29 28  2  0  0  0  0
 30 28  1  0  0  0  0
M  END
>  <MODEL>
8

>  <REMARK>
 VINA RESULT:      -5.3      2.746      6.935
  Name = 
  11 active torsions:
  status: ('A' for Active; 'I' for Inactive)
    1  A    between atoms: C_1  and  C_4
    2  A    between atoms: C_1  and  C_22
    3  A    between atoms: C_4  and  C_9
    4  A    between atoms: C_4  and  O_12
    5  A    between atoms: C_7  and  N_23
    6  A    between atoms: C_7  and  C_25
    7  A    between atoms: C_8  and  O_12
    8  A    between atoms: C_8  and  C_30
    9  A    between atoms: C_9  and  C_21
   10  A    between atoms: C_10  and  C_15
   11  A    between atoms: C_17  and  C_21
                            x       y       z     vdW  Elec       q    Type
                         _______ _______ _______ _____ _____    ______ ____

>  <TORSDO>
F 11

$$$$
=
 OpenBabel11052417223D

 30 31  0  0  1  0  0  0  0  0999 V2000
  187.3220  176.9530  145.6160 C   0  0  2  0  0  0  0  0  0  0  0  0
  186.2910  179.0160  142.7740 C   0  0  0  0  0  2  0  0  0  0  0  0
  186.2740  177.5260  142.7030 C   0  0  0  0  0  0  0  0  0  0  0  0
  187.3250  178.3960  145.3940 N   0  0  0  0  0  2  0  0  0  0  0  0
  186.5550  176.4300  146.8150 C   0  0  0  0  0  1  0  0  0  0  0  0
  185.6410  179.4580  143.9610 O   0  0  0  0  0  0  0  0  0  0  0  0
  186.1160  179.1390  145.2350 C   0  0  0  0  0  0  0  0  0  0  0  0
  188.6070  176.1910  145.3030 C   0  0  1  0  0  3  0  0  0  0  0  0
  187.4210  176.7850  143.1220 N   0  0  0  0  0  0  0  0  0  0  0  0
  185.2260  176.9270  142.3480 O   0  0  0  0  0  0  0  0  0  0  0  0
  185.4740  179.5150  146.2480 O   0  0  0  0  0  0  0  0  0  0  0  0
  187.3610  176.0380  144.3880 C   0  0  2  0  0  3  0  0  0  0  0  0
  189.7860  176.9490  144.7170 C   0  0  0  0  0  0  0  0  0  0  0  0
  189.7800  178.1610  144.5660 O   0  0  0  0  0  0  0  0  0  0  0  0
  191.0140  176.1590  144.3670 C   0  0  1  0  0  3  0  0  0  0  0  0
  192.3010  176.8140  144.8720 C   0  0  0  0  0  2  0  0  0  0  0  0
  192.6750  176.3400  146.2670 C   0  0  0  0  0  2  0  0  0  0  0  0
  194.9360  175.3770  146.0340 C   0  0  0  0  0  1  0  0  0  0  0  0
  194.1520  176.5840  146.5050 C   0  0  0  0  0  2  0  0  0  0  0  0
  190.9020  174.8410  144.8200 O   0  0  0  0  0  0  0  0  0  0  0  0
  191.1340  174.0550  143.6900 C   0  0  0  0  0  2  0  0  0  0  0  0
  193.1790  172.9660  142.7730 O   0  0  0  0  0  0  0  0  0  0  0  0
  192.6990  172.8460  145.0150 O   0  0  0  0  0  1  0  0  0  0  0  0
  192.3820  173.2650  143.8730 C   0  0  0  0  0  0  0  0  0  0  0  0
  188.3960  176.4180  142.0970 C   0  0  0  0  0  2  0  0  0  0  0  0
  189.0110  174.4640  140.7350 C   0  0  0  0  0  3  0  0  0  0  0  0
  188.2270  174.9960  141.6660 C   0  0  0  0  0  3  0  0  0  0  0  0
  188.8660  173.0700  140.3030 C   0  0  0  0  0  0  0  0  0  0  0  0
  188.0220  172.7470  139.4240 O   0  0  0  0  0  0  0  0  0  0  0  0
  189.7240  172.0230  140.9170 C   0  0  0  0  0  1  0  0  0  0  0  0
  1  5  1  1  0  0  0
  2  6  1  0  0  0  0
  3  2  1  0  0  0  0
  3  9  1  0  0  0  0
  4  1  1  0  0  0  0
  6  7  1  0  0  0  0
  7  4  1  0  0  0  0
  7 11  2  0  0  0  0
  8 13  1  6  0  0  0
  8  1  1  0  0  0  0
 10  3  2  0  0  0  0
 12  9  1  6  0  0  0
 12  8  1  0  0  0  0
 12  1  1  0  0  0  0
 14 13  2  0  0  0  0
 15 13  1  0  0  0  0
 15 20  1  0  0  0  0
 15 16  1  1  0  0  0
 16 17  1  0  0  0  0
 17 19  1  0  0  0  0
 18 19  1  0  0  0  0
 21 24  1  0  0  0  0
 21 20  1  0  0  0  0
 22 24  2  0  0  0  0
 24 23  1  0  0  0  0
 25  9  1  0  0  0  0
 26 27  2  0  0  0  0
 27 25  1  0  0  0  0
 28 26  1  0  0  0  0
 28 30  1  0  0  0  0
 29 28  2  0  0  0  0
M  END
>  <MODEL>
9

>  <REMARK>
 VINA RESULT:      -5.3      1.961      6.152
  Name = 
  11 active torsions:
  status: ('A' for Active; 'I' for Inactive)
    1  A    between atoms: C_1  and  C_4
    2  A    between atoms: C_1  and  C_22
    3  A    between atoms: C_4  and  C_9
    4  A    between atoms: C_4  and  O_12
    5  A    between atoms: C_7  and  N_23
    6  A    between atoms: C_7  and  C_25
    7  A    between atoms: C_8  and  O_12
    8  A    between atoms: C_8  and  C_30
    9  A    between atoms: C_9  and  C_21
   10  A    between atoms: C_10  and  C_15
   11  A    between atoms: C_17  and  C_21
                            x       y       z     vdW  Elec       q    Type
                         _______ _______ _______ _____ _____    ______ ____

>  <TORSDO>
F 11

$$$$
