=
 OpenBabel11052420223D

 34 38  0  0  1  0  0  0  0  0999 V2000
  193.1680  174.1290  145.2520 C   0  0  2  0  0  3  0  0  0  0  0  0
  190.7380  174.8340  142.3960 C   0  0  0  0  0  3  0  0  0  0  0  0
  192.8990  175.9630  142.9450 C   0  0  0  0  0  2  0  0  0  0  0  0
  195.6560  174.4020  145.0650 C   0  0  0  0  0  3  0  0  0  0  0  0
  196.6610  175.8200  143.3790 C   0  0  0  0  0  3  0  0  0  0  0  0
  196.7940  174.9520  144.4670 C   0  0  0  0  0  3  0  0  0  0  0  0
  194.2510  175.5820  143.4740 C   0  0  0  0  0  0  0  0  0  0  0  0
  194.3830  174.7160  144.5790 C   0  0  0  0  0  0  0  0  0  0  0  0
  195.3920  176.1360  142.8870 C   0  0  0  0  0  3  0  0  0  0  0  0
  189.7280  173.8970  142.6530 C   0  0  0  0  0  0  0  0  0  0  0  0
  189.8500  173.0450  143.7590 C   0  0  0  0  0  3  0  0  0  0  0  0
  191.8630  174.9120  143.2210 C   0  0  0  0  0  0  0  0  0  0  0  0
  190.9670  173.1210  144.5930 C   0  0  0  0  0  3  0  0  0  0  0  0
  191.9780  174.0510  144.3310 C   0  0  0  0  0  0  0  0  0  0  0  0
  188.4640  174.5960  140.5110 C   0  0  0  0  0  1  0  0  0  0  0  0
  187.5910  173.0410  142.0710 O   0  0  0  0  0  0  0  0  0  0  0  0
  188.5480  173.8040  141.7700 C   0  0  0  0  0  0  0  0  0  0  0  0
  192.8460  174.8280  146.5800 C   0  0  0  0  0  2  0  0  0  0  0  0
  192.2380  176.2160  146.4070 C   0  0  0  0  0  2  0  0  0  0  0  0
  187.7190  176.4350  146.8030 C   0  0  0  0  0  2  0  0  0  0  0  0
  190.2330  177.5030  145.7360 C   0  0  0  0  0  2  0  0  0  0  0  0
  186.6060  177.6840  143.2880 C   0  0  2  0  0  0  0  0  0  0  0  0
  186.4170  179.0130  143.6750 O   0  0  0  0  0  1  0  0  0  0  0  0
  186.5940  176.7940  144.5320 C   0  0  0  0  0  2  0  0  0  0  0  0
  187.8310  176.9240  145.3850 C   0  0  0  0  0  0  0  0  0  0  0  0
  190.7490  176.1260  146.1210 C   0  0  2  0  0  3  0  0  0  0  0  0
  189.0970  177.9730  143.4940 C   0  0  0  0  0  2  0  0  0  0  0  0
  189.0030  177.3930  144.8830 C   0  0  0  0  0  0  0  0  0  0  0  0
  187.9540  177.5320  142.5820 C   0  0  0  0  0  2  0  0  0  0  0  0
  190.0210  175.6080  147.3570 C   0  0  0  0  0  2  0  0  0  0  0  0
  188.5880  175.2070  147.0390 C   0  0  0  0  0  2  0  0  0  0  0  0
  185.4600  177.2700  142.3600 C   0  0  0  0  0  3  0  0  0  0  0  0
  185.7310  177.6120  141.0330 O   0  0  0  0  0  1  0  0  0  0  0  0
  184.2590  177.8600  142.7600 O   0  0  0  0  0  1  0  0  0  0  0  0
  1 18  1  1  0  0  0
  2 10  2  0  0  0  0
  2 12  1  0  0  0  0
  3 12  1  0  0  0  0
  3  7  1  0  0  0  0
  5  6  1  0  0  0  0
  6  4  2  0  0  0  0
  7  8  2  0  0  0  0
  8  4  1  0  0  0  0
  8  1  1  0  0  0  0
  9  5  2  0  0  0  0
  9  7  1  0  0  0  0
 10 11  1  0  0  0  0
 11 13  2  0  0  0  0
 12 14  2  0  0  0  0
 14 13  1  0  0  0  0
 14  1  1  0  0  0  0
 15 17  1  0  0  0  0
 17 16  2  0  0  0  0
 17 10  1  0  0  0  0
 19 18  1  0  0  0  0
 20 31  1  0  0  0  0
 21 26  1  0  0  0  0
 22 23  1  1  0  0  0
 22 24  1  0  0  0  0
 24 25  1  0  0  0  0
 25 20  1  0  0  0  0
 26 19  1  1  0  0  0
 26 30  1  0  0  0  0
 27 28  1  0  0  0  0
 28 25  2  0  0  0  0
 28 21  1  0  0  0  0
 29 22  1  0  0  0  0
 29 27  1  0  0  0  0
 31 30  1  0  0  0  0
 32 34  1  0  0  0  0
 32 22  1  0  0  0  0
 33 32  1  0  0  0  0
M  END
>  <MODEL>
1

>  <REMARK>
 VINA RESULT:      -8.6      0.000      0.000
  Name = 
  5 active torsions:
  status: ('A' for Active; 'I' for Inactive)
    1  A    between atoms: C_1  and  C_9
    2  A    between atoms: C_7  and  C_11
    3  A    between atoms: C_8  and  C_9
    4  A    between atoms: C_8  and  C_18
    5  A    between atoms: C_23  and  C_25
                            x       y       z     vdW  Elec       q    Type
                         _______ _______ _______ _____ _____    ______ ____

>  <TORSDO>
F 5

$$$$
=
 OpenBabel11052420223D

 34 38  0  0  1  0  0  0  0  0999 V2000
  191.0380  174.0810  145.3960 C   0  0  2  0  0  3  0  0  0  0  0  0
  190.0520  174.9020  141.8030 C   0  0  0  0  0  3  0  0  0  0  0  0
  191.2240  176.3320  143.4840 C   0  0  0  0  0  2  0  0  0  0  0  0
  193.0970  174.9780  146.5170 C   0  0  0  0  0  3  0  0  0  0  0  0
  194.2050  176.9830  145.7330 C   0  0  0  0  0  3  0  0  0  0  0  0
  194.1230  175.9210  146.6370 C   0  0  0  0  0  3  0  0  0  0  0  0
  192.2400  176.1610  144.5760 C   0  0  0  0  0  0  0  0  0  0  0  0
  192.1490  175.0950  145.4950 C   0  0  0  0  0  0  0  0  0  0  0  0
  193.2630  177.1040  144.7070 C   0  0  0  0  0  3  0  0  0  0  0  0
  189.4130  173.7170  141.4120 C   0  0  0  0  0  0  0  0  0  0  0  0
  189.3090  172.6620  142.3280 C   0  0  0  0  0  3  0  0  0  0  0  0
  190.5940  175.0290  143.0850 C   0  0  0  0  0  0  0  0  0  0  0  0
  189.8410  172.7830  143.6130 C   0  0  0  0  0  3  0  0  0  0  0  0
  190.4850  173.9620  143.9990 C   0  0  0  0  0  0  0  0  0  0  0  0
  188.9400  172.2860  139.3140 C   0  0  0  0  0  1  0  0  0  0  0  0
  188.2940  174.5590  139.4950 O   0  0  0  0  0  0  0  0  0  0  0  0
  188.8560  173.5780  140.0520 C   0  0  0  0  0  0  0  0  0  0  0  0
  189.9460  174.3130  146.4500 C   0  0  0  0  0  2  0  0  0  0  0  0
  189.7160  175.7850  146.7760 C   0  0  0  0  0  2  0  0  0  0  0  0
  185.8460  178.1030  146.2530 C   0  0  0  0  0  2  0  0  0  0  0  0
  188.5330  177.3970  145.3170 C   0  0  0  0  0  2  0  0  0  0  0  0
  185.3470  178.0860  142.3930 C   0  0  2  0  0  0  0  0  0  0  0  0
  185.8170  179.3870  142.1940 O   0  0  0  0  0  1  0  0  0  0  0  0
  184.9550  177.9140  143.8610 C   0  0  0  0  0  2  0  0  0  0  0  0
  186.1330  177.8390  144.8010 C   0  0  0  0  0  0  0  0  0  0  0  0
  188.3520  176.2430  146.2900 C   0  0  2  0  0  3  0  0  0  0  0  0
  187.6870  177.3140  142.9060 C   0  0  0  0  0  2  0  0  0  0  0  0
  187.3720  177.4850  144.3710 C   0  0  0  0  0  0  0  0  0  0  0  0
  186.4440  177.0770  142.0500 C   0  0  0  0  0  2  0  0  0  0  0  0
  187.5030  176.6760  147.4800 C   0  0  0  0  0  2  0  0  0  0  0  0
  186.0410  176.8490  147.0960 C   0  0  0  0  0  2  0  0  0  0  0  0
  184.1140  177.8650  141.5120 C   0  0  0  0  0  3  0  0  0  0  0  0
  184.2320  178.5380  140.2930 O   0  0  0  0  0  1  0  0  0  0  0  0
  182.9530  178.2830  142.1660 O   0  0  0  0  0  1  0  0  0  0  0  0
  1  8  1  0  0  0  0
  1 18  1  1  0  0  0
  2 12  1  0  0  0  0
  3  7  1  0  0  0  0
  4  6  1  0  0  0  0
  5  6  2  0  0  0  0
  7  9  2  0  0  0  0
  7  8  1  0  0  0  0
  8  4  2  0  0  0  0
  9  5  1  0  0  0  0
 10  2  2  0  0  0  0
 10 11  1  0  0  0  0
 11 13  2  0  0  0  0
 12  3  1  0  0  0  0
 12 14  2  0  0  0  0
 13 14  1  0  0  0  0
 14  1  1  0  0  0  0
 15 17  1  0  0  0  0
 16 17  2  0  0  0  0
 17 10  1  0  0  0  0
 18 19  1  0  0  0  0
 20 31  1  0  0  0  0
 21 26  1  0  0  0  0
 22 23  1  6  0  0  0
 22 24  1  0  0  0  0
 24 25  1  0  0  0  0
 25 20  1  0  0  0  0
 26 19  1  1  0  0  0
 26 30  1  0  0  0  0
 27 28  1  0  0  0  0
 28 25  2  0  0  0  0
 28 21  1  0  0  0  0
 29 22  1  0  0  0  0
 29 27  1  0  0  0  0
 31 30  1  0  0  0  0
 32 34  1  0  0  0  0
 32 22  1  0  0  0  0
 33 32  1  0  0  0  0
M  END
>  <MODEL>
2

>  <REMARK>
 VINA RESULT:      -8.4      1.725      2.250
  Name = 
  5 active torsions:
  status: ('A' for Active; 'I' for Inactive)
    1  A    between atoms: C_1  and  C_9
    2  A    between atoms: C_7  and  C_11
    3  A    between atoms: C_8  and  C_9
    4  A    between atoms: C_8  and  C_18
    5  A    between atoms: C_23  and  C_25
                            x       y       z     vdW  Elec       q    Type
                         _______ _______ _______ _____ _____    ______ ____

>  <TORSDO>
F 5

$$$$
=
 OpenBabel11052420223D

 34 38  0  0  1  0  0  0  0  0999 V2000
  189.1510  174.8960  146.0980 C   0  0  2  0  0  3  0  0  0  0  0  0
  186.9340  177.5110  144.4240 C   0  0  0  0  0  3  0  0  0  0  0  0
  188.7200  176.0810  143.4210 C   0  0  0  0  0  2  0  0  0  0  0  0
  189.9680  172.8180  144.9500 C   0  0  0  0  0  3  0  0  0  0  0  0
  190.0730  172.6520  142.5370 C   0  0  0  0  0  3  0  0  0  0  0  0
  190.2760  172.0870  143.7990 C   0  0  0  0  0  3  0  0  0  0  0  0
  189.2410  174.6810  143.5710 C   0  0  0  0  0  0  0  0  0  0  0  0
  189.4560  174.1160  144.8450 C   0  0  0  0  0  0  0  0  0  0  0  0
  189.5590  173.9470  142.4240 C   0  0  0  0  0  3  0  0  0  0  0  0
  186.1750  177.9690  145.5110 C   0  0  0  0  0  0  0  0  0  0  0  0
  186.3970  177.4190  146.7800 C   0  0  0  0  0  3  0  0  0  0  0  0
  187.8910  176.5090  144.5970 C   0  0  0  0  0  0  0  0  0  0  0  0
  187.3570  176.4230  146.9630 C   0  0  0  0  0  3  0  0  0  0  0  0
  188.1080  175.9610  145.8780 C   0  0  0  0  0  0  0  0  0  0  0  0
  185.2670  180.0190  144.2270 C   0  0  0  0  0  1  0  0  0  0  0  0
  184.1540  179.0710  146.0920 O   0  0  0  0  0  0  0  0  0  0  0  0
  185.1510  179.0160  145.3230 C   0  0  0  0  0  0  0  0  0  0  0  0
  190.4220  175.4390  146.7670 C   0  0  0  0  0  2  0  0  0  0  0  0
  190.8730  176.7880  146.2160 C   0  0  0  0  0  2  0  0  0  0  0  0
  195.2550  175.7160  145.6950 C   0  0  0  0  0  2  0  0  0  0  0  0
  192.4570  175.4520  144.8610 C   0  0  0  0  0  2  0  0  0  0  0  0
  195.6160  175.4230  141.8300 C   0  0  2  0  0  0  0  0  0  0  0  0
  195.5680  174.0270  141.7990 O   0  0  0  0  0  1  0  0  0  0  0  0
  195.9770  175.8800  143.2440 C   0  0  0  0  0  2  0  0  0  0  0  0
  194.8600  175.7040  144.2430 C   0  0  0  0  0  0  0  0  0  0  0  0
  192.2980  176.7130  145.6950 C   0  0  2  0  0  3  0  0  0  0  0  0
  193.1680  175.5000  142.4070 C   0  0  0  0  0  2  0  0  0  0  0  0
  193.5610  175.6100  143.8590 C   0  0  0  0  0  0  0  0  0  0  0  0
  194.2510  176.0010  141.4530 C   0  0  0  0  0  2  0  0  0  0  0  0
  193.2720  176.7050  146.8680 C   0  0  0  0  0  2  0  0  0  0  0  0
  194.7040  176.9420  146.4110 C   0  0  0  0  0  2  0  0  0  0  0  0
  196.6940  175.9030  140.8540 C   0  0  0  0  0  3  0  0  0  0  0  0
  196.3780  175.5590  139.5370 O   0  0  0  0  0  1  0  0  0  0  0  0
  197.9410  175.3710  141.1890 O   0  0  0  0  0  1  0  0  0  0  0  0
  1 18  1  6  0  0  0
  2 12  2  0  0  0  0
  2 10  1  0  0  0  0
  3  7  1  0  0  0  0
  3 12  1  0  0  0  0
  5  6  1  0  0  0  0
  6  4  2  0  0  0  0
  7  8  2  0  0  0  0
  8  4  1  0  0  0  0
  8  1  1  0  0  0  0
  9  5  2  0  0  0  0
  9  7  1  0  0  0  0
 10 11  2  0  0  0  0
 11 13  1  0  0  0  0
 12 14  1  0  0  0  0
 14  1  1  0  0  0  0
 14 13  2  0  0  0  0
 15 17  1  0  0  0  0
 17 10  1  0  0  0  0
 17 16  2  0  0  0  0
 19 18  1  0  0  0  0
 20 31  1  0  0  0  0
 21 26  1  0  0  0  0
 22 23  1  6  0  0  0
 22 24  1  0  0  0  0
 24 25  1  0  0  0  0
 25 20  1  0  0  0  0
 26 19  1  1  0  0  0
 26 30  1  0  0  0  0
 27 28  1  0  0  0  0
 28 25  2  0  0  0  0
 28 21  1  0  0  0  0
 29 22  1  0  0  0  0
 29 27  1  0  0  0  0
 31 30  1  0  0  0  0
 32 34  1  0  0  0  0
 32 22  1  0  0  0  0
 33 32  1  0  0  0  0
M  END
>  <MODEL>
3

>  <REMARK>
 VINA RESULT:      -8.2      3.180      6.908
  Name = 
  5 active torsions:
  status: ('A' for Active; 'I' for Inactive)
    1  A    between atoms: C_1  and  C_9
    2  A    between atoms: C_7  and  C_11
    3  A    between atoms: C_8  and  C_9
    4  A    between atoms: C_8  and  C_18
    5  A    between atoms: C_23  and  C_25
                            x       y       z     vdW  Elec       q    Type
                         _______ _______ _______ _____ _____    ______ ____

>  <TORSDO>
F 5

$$$$
=
 OpenBabel11052420223D

 34 38  0  0  1  0  0  0  0  0999 V2000
  190.6480  177.2220  144.0380 C   0  0  2  0  0  3  0  0  0  0  0  0
  187.8430  176.5130  146.5250 C   0  0  0  0  0  3  0  0  0  0  0  0
  190.1450  175.5470  146.4240 C   0  0  0  0  0  2  0  0  0  0  0  0
  193.0850  177.1900  144.6370 C   0  0  0  0  0  3  0  0  0  0  0  0
  193.9050  175.9970  146.5780 C   0  0  0  0  0  3  0  0  0  0  0  0
  194.1470  176.7900  145.4530 C   0  0  0  0  0  3  0  0  0  0  0  0
  191.5320  176.0080  146.0830 C   0  0  0  0  0  0  0  0  0  0  0  0
  191.7760  176.7990  144.9420 C   0  0  0  0  0  0  0  0  0  0  0  0
  192.6000  175.6050  146.8900 C   0  0  0  0  0  3  0  0  0  0  0  0
  186.8190  177.3340  146.0310 C   0  0  0  0  0  0  0  0  0  0  0  0
  187.0550  178.1100  144.8880 C   0  0  0  0  0  3  0  0  0  0  0  0
  189.0900  176.4770  145.8980 C   0  0  0  0  0  0  0  0  0  0  0  0
  188.2970  178.0730  144.2500 C   0  0  0  0  0  3  0  0  0  0  0  0
  189.3200  177.2610  144.7490 C   0  0  0  0  0  0  0  0  0  0  0  0
  185.1500  178.5120  147.6120 C   0  0  0  0  0  1  0  0  0  0  0  0
  184.6620  176.4690  146.5150 O   0  0  0  0  0  0  0  0  0  0  0  0
  185.5070  177.3850  146.7050 C   0  0  0  0  0  0  0  0  0  0  0  0
  190.6040  176.4010  142.7410 C   0  0  0  0  0  2  0  0  0  0  0  0
  189.4890  175.3600  142.7170 C   0  0  0  0  0  2  0  0  0  0  0  0
  190.8190  171.0260  142.4520 C   0  0  0  0  0  2  0  0  0  0  0  0
  191.4700  173.8800  142.6010 C   0  0  0  0  0  2  0  0  0  0  0  0
  194.0400  170.9790  144.6380 C   0  0  2  0  0  0  0  0  0  0  0  0
  194.9300  171.0180  143.5610 O   0  0  0  0  0  1  0  0  0  0  0  0
  192.6730  170.5080  144.1410 C   0  0  0  0  0  2  0  0  0  0  0  0
  191.9360  171.5380  143.3190 C   0  0  0  0  0  0  0  0  0  0  0  0
  190.0250  173.9810  143.0630 C   0  0  2  0  0  3  0  0  0  0  0  0
  193.3980  173.3720  144.2000 C   0  0  0  0  0  2  0  0  0  0  0  0
  192.2190  172.8630  143.4090 C   0  0  0  0  0  0  0  0  0  0  0  0
  193.8940  172.3750  145.2450 C   0  0  0  0  0  2  0  0  0  0  0  0
  189.1710  172.9150  142.3860 C   0  0  0  0  0  2  0  0  0  0  0  0
  189.4650  171.5260  142.9360 C   0  0  0  0  0  2  0  0  0  0  0  0
  194.5670  169.9880  145.6800 C   0  0  0  0  0  3  0  0  0  0  0  0
  195.9380  169.7680  145.5250 O   0  0  0  0  0  1  0  0  0  0  0  0
  193.8850  168.7710  145.5990 O   0  0  0  0  0  1  0  0  0  0  0  0
  1 18  1  6  0  0  0
  1 14  1  0  0  0  0
  1  8  1  0  0  0  0
  4  8  2  0  0  0  0
  4  6  1  0  0  0  0
  5  9  1  0  0  0  0
  6  5  2  0  0  0  0
  7  3  1  0  0  0  0
  7  9  2  0  0  0  0
  8  7  1  0  0  0  0
 10  2  1  0  0  0  0
 10 17  1  0  0  0  0
 11 10  2  0  0  0  0
 12  3  1  0  0  0  0
 12  2  2  0  0  0  0
 13 14  2  0  0  0  0
 13 11  1  0  0  0  0
 14 12  1  0  0  0  0
 16 17  2  0  0  0  0
 17 15  1  0  0  0  0
 19 18  1  0  0  0  0
 20 31  1  0  0  0  0
 20 25  1  0  0  0  0
 21 26  1  0  0  0  0
 21 28  1  0  0  0  0
 22 23  1  6  0  0  0
 22 29  1  0  0  0  0
 22 32  1  0  0  0  0
 24 22  1  0  0  0  0
 25 28  2  0  0  0  0
 25 24  1  0  0  0  0
 26 19  1  6  0  0  0
 27 29  1  0  0  0  0
 28 27  1  0  0  0  0
 30 31  1  0  0  0  0
 30 26  1  0  0  0  0
 33 32  1  0  0  0  0
 34 32  1  0  0  0  0
M  END
>  <MODEL>
4

>  <REMARK>
 VINA RESULT:      -8.0      3.225      7.037
  Name = 
  5 active torsions:
  status: ('A' for Active; 'I' for Inactive)
    1  A    between atoms: C_1  and  C_9
    2  A    between atoms: C_7  and  C_11
    3  A    between atoms: C_8  and  C_9
    4  A    between atoms: C_8  and  C_18
    5  A    between atoms: C_23  and  C_25
                            x       y       z     vdW  Elec       q    Type
                         _______ _______ _______ _____ _____    ______ ____

>  <TORSDO>
F 5

$$$$
=
 OpenBabel11052420223D

 34 38  0  0  1  0  0  0  0  0999 V2000
  189.7090  174.3870  141.6600 C   0  0  2  0  0  3  0  0  0  0  0  0
  191.1530  174.3220  145.1900 C   0  0  0  0  0  3  0  0  0  0  0  0
  190.3830  172.4200  143.7650 C   0  0  0  0  0  2  0  0  0  0  0  0
  190.0790  172.5710  139.9670 C   0  0  0  0  0  3  0  0  0  0  0  0
  190.7120  170.3280  140.6220 C   0  0  0  0  0  3  0  0  0  0  0  0
  190.3970  171.2530  139.6240 C   0  0  0  0  0  3  0  0  0  0  0  0
  190.4050  172.0360  142.3140 C   0  0  0  0  0  0  0  0  0  0  0  0
  190.0750  172.9680  141.3090 C   0  0  0  0  0  0  0  0  0  0  0  0
  190.7130  170.7180  141.9640 C   0  0  0  0  0  3  0  0  0  0  0  0
  191.3550  175.6880  145.4340 C   0  0  0  0  0  0  0  0  0  0  0  0
  191.0150  176.6170  144.4420 C   0  0  0  0  0  3  0  0  0  0  0  0
  190.6330  173.8860  143.9690 C   0  0  0  0  0  0  0  0  0  0  0  0
  190.4870  176.1900  143.2210 C   0  0  0  0  0  3  0  0  0  0  0  0
  190.2940  174.8270  142.9770 C   0  0  0  0  0  0  0  0  0  0  0  0
  191.1910  175.9370  148.0000 C   0  0  0  0  0  1  0  0  0  0  0  0
  193.0420  176.7210  146.7460 O   0  0  0  0  0  0  0  0  0  0  0  0
  191.9210  176.1460  146.7180 C   0  0  0  0  0  0  0  0  0  0  0  0
  188.1960  174.6350  141.5700 C   0  0  0  0  0  2  0  0  0  0  0  0
  187.8350  176.0050  141.0050 C   0  0  0  0  0  2  0  0  0  0  0  0
  184.9190  178.2690  143.6480 C   0  0  0  0  0  2  0  0  0  0  0  0
  186.7720  176.0340  143.2390 C   0  0  0  0  0  2  0  0  0  0  0  0
  186.5100  177.9180  147.1830 C   0  0  2  0  0  0  0  0  0  0  0  0
  185.6580  176.8960  147.6110 O   0  0  0  0  0  1  0  0  0  0  0  0
  185.8720  178.6390  145.9960 C   0  0  0  0  0  2  0  0  0  0  0  0
  185.8820  177.8350  144.7190 C   0  0  0  0  0  0  0  0  0  0  0  0
  187.2430  176.8990  142.0810 C   0  0  2  0  0  3  0  0  0  0  0  0
  187.6580  176.3150  145.6200 C   0  0  0  0  0  2  0  0  0  0  0  0
  186.7590  176.8170  144.5190 C   0  0  0  0  0  0  0  0  0  0  0  0
  187.8520  177.3300  146.7450 C   0  0  0  0  0  2  0  0  0  0  0  0
  186.0800  177.6970  141.5010 C   0  0  0  0  0  2  0  0  0  0  0  0
  185.6500  178.8210  142.4320 C   0  0  0  0  0  2  0  0  0  0  0  0
  186.7050  178.9130  148.3320 C   0  0  0  0  0  3  0  0  0  0  0  0
  186.1790  180.1670  148.0130 O   0  0  0  0  0  1  0  0  0  0  0  0
  188.0580  179.0410  148.6550 O   0  0  0  0  0  1  0  0  0  0  0  0
  1 18  1  1  0  0  0
  1 14  1  0  0  0  0
  2 10  1  0  0  0  0
  3 12  1  0  0  0  0
  4  8  1  0  0  0  0
  5  9  2  0  0  0  0
  6  4  2  0  0  0  0
  6  5  1  0  0  0  0
  7  3  1  0  0  0  0
  8  1  1  0  0  0  0
  8  7  2  0  0  0  0
  9  7  1  0  0  0  0
 10 17  1  0  0  0  0
 11 10  2  0  0  0  0
 12  2  2  0  0  0  0
 13 11  1  0  0  0  0
 14 13  2  0  0  0  0
 14 12  1  0  0  0  0
 17 16  2  0  0  0  0
 17 15  1  0  0  0  0
 19 18  1  0  0  0  0
 20 25  1  0  0  0  0
 21 28  1  0  0  0  0
 22 23  1  1  0  0  0
 22 32  1  0  0  0  0
 24 22  1  0  0  0  0
 25 24  1  0  0  0  0
 26 19  1  6  0  0  0
 26 21  1  0  0  0  0
 27 29  1  0  0  0  0
 28 25  2  0  0  0  0
 28 27  1  0  0  0  0
 29 22  1  0  0  0  0
 30 26  1  0  0  0  0
 30 31  1  0  0  0  0
 31 20  1  0  0  0  0
 32 34  1  0  0  0  0
 33 32  1  0  0  0  0
M  END
>  <MODEL>
5

>  <REMARK>
 VINA RESULT:      -7.9      3.040      5.651
  Name = 
  5 active torsions:
  status: ('A' for Active; 'I' for Inactive)
    1  A    between atoms: C_1  and  C_9
    2  A    between atoms: C_7  and  C_11
    3  A    between atoms: C_8  and  C_9
    4  A    between atoms: C_8  and  C_18
    5  A    between atoms: C_23  and  C_25
                            x       y       z     vdW  Elec       q    Type
                         _______ _______ _______ _____ _____    ______ ____

>  <TORSDO>
F 5

$$$$
=
 OpenBabel11052420223D

 34 38  0  0  1  0  0  0  0  0999 V2000
  189.3550  175.2170  146.1150 C   0  0  2  0  0  3  0  0  0  0  0  0
  186.8040  177.4660  144.3860 C   0  0  0  0  0  3  0  0  0  0  0  0
  188.5180  175.9550  143.3750 C   0  0  0  0  0  2  0  0  0  0  0  0
  190.1230  173.0130  145.1920 C   0  0  0  0  0  3  0  0  0  0  0  0
  189.9220  172.4760  142.8400 C   0  0  0  0  0  3  0  0  0  0  0  0
  190.3170  172.1210  144.1330 C   0  0  0  0  0  3  0  0  0  0  0  0
  189.1260  174.6130  143.6600 C   0  0  0  0  0  0  0  0  0  0  0  0
  189.5350  174.2620  144.9640 C   0  0  0  0  0  0  0  0  0  0  0  0
  189.3310  173.7200  142.6050 C   0  0  0  0  0  3  0  0  0  0  0  0
  186.1700  178.0640  145.4850 C   0  0  0  0  0  0  0  0  0  0  0  0
  186.5840  177.7260  146.7800 C   0  0  0  0  0  3  0  0  0  0  0  0
  187.8270  176.5340  144.5750 C   0  0  0  0  0  0  0  0  0  0  0  0
  187.6110  176.8010  146.9780 C   0  0  0  0  0  3  0  0  0  0  0  0
  188.2370  176.2000  145.8820 C   0  0  0  0  0  0  0  0  0  0  0  0
  185.1850  180.1160  144.2640 C   0  0  0  0  0  1  0  0  0  0  0  0
  184.0260  178.9580  145.9750 O   0  0  0  0  0  0  0  0  0  0  0  0
  185.0760  179.0350  145.2840 C   0  0  0  0  0  0  0  0  0  0  0  0
  190.6710  175.8980  146.5150 C   0  0  0  0  0  2  0  0  0  0  0  0
  191.2650  176.7700  145.4140 C   0  0  0  0  0  2  0  0  0  0  0  0
  194.4830  175.6690  142.4050 C   0  0  0  0  0  2  0  0  0  0  0  0
  193.6960  176.3950  145.1340 C   0  0  0  0  0  2  0  0  0  0  0  0
  196.9460  173.5250  144.5240 C   0  0  2  0  0  0  0  0  0  0  0  0
  197.8790  174.5470  144.7160 O   0  0  0  0  0  1  0  0  0  0  0  0
  196.0580  173.8740  143.3290 C   0  0  0  0  0  2  0  0  0  0  0  0
  195.0740  174.9840  143.6070 C   0  0  0  0  0  0  0  0  0  0  0  0
  192.3160  176.0090  144.6250 C   0  0  2  0  0  3  0  0  0  0  0  0
  195.3460  174.6870  146.0800 C   0  0  0  0  0  2  0  0  0  0  0  0
  194.6880  175.3020  144.8690 C   0  0  0  0  0  0  0  0  0  0  0  0
  196.0690  173.3780  145.7690 C   0  0  0  0  0  2  0  0  0  0  0  0
  192.1820  176.3380  143.1420 C   0  0  0  0  0  2  0  0  0  0  0  0
  192.9930  175.3830  142.2780 C   0  0  0  0  0  2  0  0  0  0  0  0
  197.6930  172.2200  144.2330 C   0  0  0  0  0  3  0  0  0  0  0  0
  197.4380  171.7660  142.9360 O   0  0  0  0  0  1  0  0  0  0  0  0
  197.3430  171.2300  145.1530 O   0  0  0  0  0  1  0  0  0  0  0  0
  1 18  1  6  0  0  0
  2 12  2  0  0  0  0
  2 10  1  0  0  0  0
  3  7  1  0  0  0  0
  3 12  1  0  0  0  0
  5  6  1  0  0  0  0
  6  4  2  0  0  0  0
  7  8  2  0  0  0  0
  8  4  1  0  0  0  0
  8  1  1  0  0  0  0
  9  5  2  0  0  0  0
  9  7  1  0  0  0  0
 10 11  2  0  0  0  0
 11 13  1  0  0  0  0
 12 14  1  0  0  0  0
 14  1  1  0  0  0  0
 14 13  2  0  0  0  0
 15 17  1  0  0  0  0
 17 10  1  0  0  0  0
 17 16  2  0  0  0  0
 19 18  1  0  0  0  0
 20 25  1  0  0  0  0
 22 23  1  1  0  0  0
 22 29  1  0  0  0  0
 24 25  1  0  0  0  0
 24 22  1  0  0  0  0
 25 28  2  0  0  0  0
 26 21  1  0  0  0  0
 26 19  1  1  0  0  0
 28 21  1  0  0  0  0
 28 27  1  0  0  0  0
 29 27  1  0  0  0  0
 30 26  1  0  0  0  0
 31 20  1  0  0  0  0
 31 30  1  0  0  0  0
 32 22  1  0  0  0  0
 32 34  1  0  0  0  0
 33 32  1  0  0  0  0
M  END
>  <MODEL>
6

>  <REMARK>
 VINA RESULT:      -7.9      3.432      7.617
  Name = 
  5 active torsions:
  status: ('A' for Active; 'I' for Inactive)
    1  A    between atoms: C_1  and  C_9
    2  A    between atoms: C_7  and  C_11
    3  A    between atoms: C_8  and  C_9
    4  A    between atoms: C_8  and  C_18
    5  A    between atoms: C_23  and  C_25
                            x       y       z     vdW  Elec       q    Type
                         _______ _______ _______ _____ _____    ______ ____

>  <TORSDO>
F 5

$$$$
=
 OpenBabel11052420223D

 34 38  0  0  1  0  0  0  0  0999 V2000
  192.9160  173.7120  145.1770 C   0  0  2  0  0  3  0  0  0  0  0  0
  191.5760  173.9610  141.6130 C   0  0  0  0  0  3  0  0  0  0  0  0
  193.5870  175.0470  142.6230 C   0  0  0  0  0  2  0  0  0  0  0  0
  195.3560  173.7910  145.7580 C   0  0  0  0  0  3  0  0  0  0  0  0
  196.9920  174.7710  144.2650 C   0  0  0  0  0  3  0  0  0  0  0  0
  196.6800  174.1380  145.4720 C   0  0  0  0  0  3  0  0  0  0  0  0
  194.6570  174.7030  143.6180 C   0  0  0  0  0  0  0  0  0  0  0  0
  194.3400  174.0750  144.8400 C   0  0  0  0  0  0  0  0  0  0  0  0
  195.9810  175.0540  143.3420 C   0  0  0  0  0  3  0  0  0  0  0  0
  190.4290  173.1580  141.6910 C   0  0  0  0  0  0  0  0  0  0  0  0
  190.1040  172.5450  142.9080 C   0  0  0  0  0  3  0  0  0  0  0  0
  192.3970  174.1390  142.7290 C   0  0  0  0  0  0  0  0  0  0  0  0
  190.9140  172.7240  144.0310 C   0  0  0  0  0  3  0  0  0  0  0  0
  192.0630  173.5180  143.9500 C   0  0  0  0  0  0  0  0  0  0  0  0
  188.5680  173.9790  140.0980 C   0  0  0  0  0  1  0  0  0  0  0  0
  189.6850  171.9090  139.8140 O   0  0  0  0  0  0  0  0  0  0  0  0
  189.5720  172.9570  140.5060 C   0  0  0  0  0  0  0  0  0  0  0  0
  192.2920  174.6860  146.1860 C   0  0  0  0  0  2  0  0  0  0  0  0
  192.5850  176.1520  145.8790 C   0  0  0  0  0  2  0  0  0  0  0  0
  189.1320  177.5770  143.2980 C   0  0  0  0  0  2  0  0  0  0  0  0
  190.1530  175.9170  145.4890 C   0  0  0  0  0  2  0  0  0  0  0  0
  186.1680  177.7020  145.8190 C   0  0  2  0  0  0  0  0  0  0  0  0
  185.5970  176.4930  145.4110 O   0  0  0  0  0  1  0  0  0  0  0  0
  187.0990  178.2130  144.7180 C   0  0  0  0  0  2  0  0  0  0  0  0
  188.3810  177.4280  144.5930 C   0  0  0  0  0  0  0  0  0  0  0  0
  191.3380  176.8640  145.3870 C   0  0  2  0  0  3  0  0  0  0  0  0
  188.0750  176.4490  146.8790 C   0  0  0  0  0  2  0  0  0  0  0  0
  188.8680  176.6810  145.6170 C   0  0  0  0  0  0  0  0  0  0  0  0
  186.9790  177.4910  147.0980 C   0  0  0  0  0  2  0  0  0  0  0  0
  191.5400  177.3150  143.9450 C   0  0  0  0  0  2  0  0  0  0  0  0
  190.4600  178.2930  143.5040 C   0  0  0  0  0  2  0  0  0  0  0  0
  185.0500  178.7240  146.0490 C   0  0  0  0  0  3  0  0  0  0  0  0
  184.4260  178.5250  147.2830 O   0  0  0  0  0  1  0  0  0  0  0  0
  184.0990  178.6600  145.0290 O   0  0  0  0  0  1  0  0  0  0  0  0
  1 18  1  1  0  0  0
  2 10  2  0  0  0  0
  2 12  1  0  0  0  0
  3 12  1  0  0  0  0
  3  7  1  0  0  0  0
  5  6  2  0  0  0  0
  6  4  1  0  0  0  0
  7  8  1  0  0  0  0
  8  1  1  0  0  0  0
  8  4  2  0  0  0  0
  9  7  2  0  0  0  0
  9  5  1  0  0  0  0
 10 11  1  0  0  0  0
 11 13  2  0  0  0  0
 12 14  2  0  0  0  0
 14 13  1  0  0  0  0
 14  1  1  0  0  0  0
 15 17  1  0  0  0  0
 16 17  2  0  0  0  0
 17 10  1  0  0  0  0
 19 18  1  0  0  0  0
 20 31  1  0  0  0  0
 20 25  1  0  0  0  0
 21 28  1  0  0  0  0
 22 23  1  6  0  0  0
 22 32  1  0  0  0  0
 22 29  1  0  0  0  0
 24 22  1  0  0  0  0
 25 24  1  0  0  0  0
 25 28  2  0  0  0  0
 26 21  1  0  0  0  0
 26 19  1  6  0  0  0
 27 29  1  0  0  0  0
 28 27  1  0  0  0  0
 30 26  1  0  0  0  0
 31 30  1  0  0  0  0
 32 33  1  0  0  0  0
 34 32  1  0  0  0  0
M  END
>  <MODEL>
7

>  <REMARK>
 VINA RESULT:      -7.8      1.610      2.513
  Name = 
  5 active torsions:
  status: ('A' for Active; 'I' for Inactive)
    1  A    between atoms: C_1  and  C_9
    2  A    between atoms: C_7  and  C_11
    3  A    between atoms: C_8  and  C_9
    4  A    between atoms: C_8  and  C_18
    5  A    between atoms: C_23  and  C_25
                            x       y       z     vdW  Elec       q    Type
                         _______ _______ _______ _____ _____    ______ ____

>  <TORSDO>
F 5

$$$$
=
 OpenBabel11052420223D

 34 38  0  0  1  0  0  0  0  0999 V2000
  191.9860  174.7740  143.2010 C   0  0  2  0  0  3  0  0  0  0  0  0
  193.2550  171.5800  144.8560 C   0  0  0  0  0  3  0  0  0  0  0  0
  190.9060  172.2810  144.3750 C   0  0  0  0  0  2  0  0  0  0  0  0
  189.9370  174.8760  141.7540 C   0  0  0  0  0  3  0  0  0  0  0  0
  188.1970  173.1980  141.8870 C   0  0  0  0  0  3  0  0  0  0  0  0
  188.7040  174.3740  141.3280 C   0  0  0  0  0  3  0  0  0  0  0  0
  190.1610  173.0120  143.2950 C   0  0  0  0  0  0  0  0  0  0  0  0
  190.6680  174.2050  142.7400 C   0  0  0  0  0  0  0  0  0  0  0  0
  188.9240  172.5210  142.8700 C   0  0  0  0  0  3  0  0  0  0  0  0
  194.6400  171.7990  144.8590 C   0  0  0  0  0  0  0  0  0  0  0  0
  195.1450  172.9900  144.3210 C   0  0  0  0  0  3  0  0  0  0  0  0
  192.3850  172.5270  144.3120 C   0  0  0  0  0  0  0  0  0  0  0  0
  194.2820  173.9460  143.7820 C   0  0  0  0  0  3  0  0  0  0  0  0
  192.9020  173.7230  143.7730 C   0  0  0  0  0  0  0  0  0  0  0  0
  196.8160  171.1890  146.1100 C   0  0  0  0  0  1  0  0  0  0  0  0
  195.2860  169.5620  145.3210 O   0  0  0  0  0  0  0  0  0  0  0  0
  195.5590  170.7880  145.4180 C   0  0  0  0  0  0  0  0  0  0  0  0
  191.8020  175.9750  144.1390 C   0  0  0  0  0  2  0  0  0  0  0  0
  191.2170  175.6040  145.4980 C   0  0  0  0  0  2  0  0  0  0  0  0
  187.2620  177.4260  146.7870 C   0  0  0  0  0  2  0  0  0  0  0  0
  189.5480  177.3490  144.9530 C   0  0  0  0  0  2  0  0  0  0  0  0
  185.5690  178.2980  143.3930 C   0  0  2  0  0  0  0  0  0  0  0  0
  185.8810  179.6590  143.4360 O   0  0  0  0  0  1  0  0  0  0  0  0
  185.6700  177.7160  144.8030 C   0  0  0  0  0  2  0  0  0  0  0  0
  187.0880  177.5720  145.3010 C   0  0  0  0  0  0  0  0  0  0  0  0
  189.7460  175.9760  145.5770 C   0  0  2  0  0  3  0  0  0  0  0  0
  187.9880  177.7510  142.9690 C   0  0  0  0  0  2  0  0  0  0  0  0
  188.1440  177.5090  144.4490 C   0  0  0  0  0  0  0  0  0  0  0  0
  186.5530  177.5650  142.4800 C   0  0  0  0  0  2  0  0  0  0  0  0
  189.2960  175.9800  147.0330 C   0  0  0  0  0  2  0  0  0  0  0  0
  187.7800  176.0420  147.1540 C   0  0  0  0  0  2  0  0  0  0  0  0
  184.1330  178.1350  142.8820 C   0  0  0  0  0  3  0  0  0  0  0  0
  184.0630  178.3090  141.4980 O   0  0  0  0  0  1  0  0  0  0  0  0
  183.2760  179.0410  143.5110 O   0  0  0  0  0  1  0  0  0  0  0  0
  1 14  1  0  0  0  0
  1 18  1  1  0  0  0
  2 10  1  0  0  0  0
  4  8  1  0  0  0  0
  5  9  2  0  0  0  0
  6  4  2  0  0  0  0
  6  5  1  0  0  0  0
  7  3  1  0  0  0  0
  8  1  1  0  0  0  0
  8  7  2  0  0  0  0
  9  7  1  0  0  0  0
 10 17  1  0  0  0  0
 11 10  2  0  0  0  0
 12  3  1  0  0  0  0
 12  2  2  0  0  0  0
 13 11  1  0  0  0  0
 14 13  2  0  0  0  0
 14 12  1  0  0  0  0
 16 17  2  0  0  0  0
 17 15  1  0  0  0  0
 18 19  1  0  0  0  0
 20 31  1  0  0  0  0
 21 26  1  0  0  0  0
 22 23  1  1  0  0  0
 22 24  1  0  0  0  0
 24 25  1  0  0  0  0
 25 20  1  0  0  0  0
 26 19  1  1  0  0  0
 26 30  1  0  0  0  0
 27 28  1  0  0  0  0
 28 21  1  0  0  0  0
 28 25  2  0  0  0  0
 29 27  1  0  0  0  0
 29 22  1  0  0  0  0
 30 31  1  0  0  0  0
 32 22  1  0  0  0  0
 32 34  1  0  0  0  0
 33 32  1  0  0  0  0
M  END
>  <MODEL>
8

>  <REMARK>
 VINA RESULT:      -7.8      2.147      4.628
  Name = 
  5 active torsions:
  status: ('A' for Active; 'I' for Inactive)
    1  A    between atoms: C_1  and  C_9
    2  A    between atoms: C_7  and  C_11
    3  A    between atoms: C_8  and  C_9
    4  A    between atoms: C_8  and  C_18
    5  A    between atoms: C_23  and  C_25
                            x       y       z     vdW  Elec       q    Type
                         _______ _______ _______ _____ _____    ______ ____

>  <TORSDO>
F 5

$$$$
=
 OpenBabel11052420223D

 34 38  0  0  1  0  0  0  0  0999 V2000
  192.7900  174.3610  142.5840 C   0  0  2  0  0  3  0  0  0  0  0  0
  193.7980  171.7330  145.1590 C   0  0  0  0  0  3  0  0  0  0  0  0
  191.5460  172.7170  144.7060 C   0  0  0  0  0  2  0  0  0  0  0  0
  190.5600  174.4010  141.4310 C   0  0  0  0  0  3  0  0  0  0  0  0
  188.6230  173.2880  142.3630 C   0  0  0  0  0  3  0  0  0  0  0  0
  189.2060  174.0630  141.3570 C   0  0  0  0  0  3  0  0  0  0  0  0
  190.7500  173.1760  143.5200 C   0  0  0  0  0  0  0  0  0  0  0  0
  191.3370  173.9670  142.5110 C   0  0  0  0  0  0  0  0  0  0  0  0
  189.3930  172.8490  143.4430 C   0  0  0  0  0  3  0  0  0  0  0  0
  195.1780  171.6350  144.9310 C   0  0  0  0  0  0  0  0  0  0  0  0
  195.7650  172.4310  143.9390 C   0  0  0  0  0  3  0  0  0  0  0  0
  193.0110  172.6010  144.3990 C   0  0  0  0  0  0  0  0  0  0  0  0
  194.9880  173.3070  143.1790 C   0  0  0  0  0  3  0  0  0  0  0  0
  193.6100  173.3980  143.4020 C   0  0  0  0  0  0  0  0  0  0  0  0
  195.3940  169.5500  146.4410 C   0  0  0  0  0  1  0  0  0  0  0  0
  197.2520  170.8720  145.7980 O   0  0  0  0  0  0  0  0  0  0  0  0
  196.0050  170.7040  145.7230 C   0  0  0  0  0  0  0  0  0  0  0  0
  192.9740  175.8200  143.0230 C   0  0  0  0  0  2  0  0  0  0  0  0
  193.1820  175.9830  144.5260 C   0  0  0  0  0  2  0  0  0  0  0  0
  189.9190  177.5970  147.2410 C   0  0  0  0  0  2  0  0  0  0  0  0
  191.1130  177.3410  144.5760 C   0  0  0  0  0  2  0  0  0  0  0  0
  186.7540  177.4210  144.9820 C   0  0  2  0  0  0  0  0  0  0  0  0
  186.7520  178.7790  144.6520 O   0  0  0  0  0  1  0  0  0  0  0  0
  187.5930  177.2130  146.2440 C   0  0  0  0  0  2  0  0  0  0  0  0
  189.0780  177.3580  146.0180 C   0  0  0  0  0  0  0  0  0  0  0  0
  191.8570  176.1920  145.2380 C   0  0  2  0  0  3  0  0  0  0  0  0
  188.7900  177.0690  143.5460 C   0  0  0  0  0  2  0  0  0  0  0  0
  189.6340  177.2120  144.7870 C   0  0  0  0  0  0  0  0  0  0  0  0
  187.3640  176.6060  143.8400 C   0  0  0  0  0  2  0  0  0  0  0  0
  192.1090  176.4970  146.7110 C   0  0  0  0  0  2  0  0  0  0  0  0
  190.8300  176.4110  147.5310 C   0  0  0  0  0  2  0  0  0  0  0  0
  185.3140  176.9760  145.2550 C   0  0  0  0  0  3  0  0  0  0  0  0
  184.4290  178.0560  145.2000 O   0  0  0  0  0  1  0  0  0  0  0  0
  185.2130  176.3510  146.5000 O   0  0  0  0  0  1  0  0  0  0  0  0
  1 18  1  1  0  0  0
  1 14  1  0  0  0  0
  4  8  1  0  0  0  0
  5  9  2  0  0  0  0
  6  4  2  0  0  0  0
  6  5  1  0  0  0  0
  7  3  1  0  0  0  0
  8  1  1  0  0  0  0
  8  7  2  0  0  0  0
  9  7  1  0  0  0  0
 10  2  1  0  0  0  0
 10 17  1  0  0  0  0
 11 10  2  0  0  0  0
 12  3  1  0  0  0  0
 12  2  2  0  0  0  0
 13 14  2  0  0  0  0
 13 11  1  0  0  0  0
 14 12  1  0  0  0  0
 17 16  2  0  0  0  0
 17 15  1  0  0  0  0
 18 19  1  0  0  0  0
 20 31  1  0  0  0  0
 21 28  1  0  0  0  0
 21 26  1  0  0  0  0
 22 23  1  6  0  0  0
 22 32  1  0  0  0  0
 22 24  1  0  0  0  0
 25 24  1  0  0  0  0
 25 20  1  0  0  0  0
 26 19  1  6  0  0  0
 26 30  1  0  0  0  0
 27 29  1  0  0  0  0
 27 28  1  0  0  0  0
 28 25  2  0  0  0  0
 29 22  1  0  0  0  0
 30 31  1  0  0  0  0
 32 34  1  0  0  0  0
 33 32  1  0  0  0  0
M  END
>  <MODEL>
9

>  <REMARK>
 VINA RESULT:      -7.6      2.601      4.897
  Name = 
  5 active torsions:
  status: ('A' for Active; 'I' for Inactive)
    1  A    between atoms: C_1  and  C_9
    2  A    between atoms: C_7  and  C_11
    3  A    between atoms: C_8  and  C_9
    4  A    between atoms: C_8  and  C_18
    5  A    between atoms: C_23  and  C_25
                            x       y       z     vdW  Elec       q    Type
                         _______ _______ _______ _____ _____    ______ ____

>  <TORSDO>
F 5

$$$$
