=
 OpenBabel11052420063D

 37 45  0  0  1  0  0  0  0  0999 V2000
  193.3770  175.0640  145.4900 C   0  0  1  0  0  3  0  0  0  0  0  0
  192.7670  172.2900  141.7210 C   0  0  2  0  0  3  0  0  0  0  0  0
  189.4430  174.7940  143.3540 C   0  0  1  0  0  3  0  0  0  0  0  0
  188.7240  175.6950  146.8980 C   0  0  0  0  0  2  0  0  0  0  0  0
  190.3700  172.8880  141.8920 C   0  0  2  0  0  3  0  0  0  0  0  0
  189.6170  175.3150  144.5640 C   0  0  1  0  0  3  0  0  0  0  0  0
  194.9210  173.0420  145.4250 C   0  0  0  0  0  1  0  0  0  0  0  0
  190.6310  173.9630  142.9570 C   0  0  2  0  0  3  0  0  0  0  0  0
  188.5540  175.9110  145.4140 C   0  0  0  0  0  0  0  0  0  0  0  0
  188.9150  172.4430  141.8290 C   0  0  0  0  0  2  0  0  0  0  0  0
  191.1920  173.4840  144.2970 C   0  0  1  0  0  3  0  0  0  0  0  0
  193.3910  173.0320  142.9200 C   0  0  1  0  0  3  0  0  0  0  0  0
  187.4740  175.9340  142.4980 C   0  0  0  0  0  3  0  0  0  0  0  0
  193.4770  173.5280  145.4490 C   0  0  2  0  0  3  0  0  0  0  0  0
  188.0550  173.6780  141.5670 C   0  0  0  0  0  2  0  0  0  0  0  0
  192.6540  172.9750  144.2790 C   0  0  1  0  0  3  0  0  0  0  0  0
  190.1800  175.8400  147.3310 C   0  0  0  0  0  2  0  0  0  0  0  0
  188.0730  174.6030  142.7840 C   0  0  1  0  0  3  0  0  0  0  0  0
  190.8440  174.7080  145.1420 C   0  0  2  0  0  0  0  0  0  0  0  0
  191.3650  171.7380  141.9820 C   0  0  0  0  0  2  0  0  0  0  0  0
  187.4840  176.6040  144.9260 C   0  0  0  0  0  0  0  0  0  0  0  0
  193.8080  171.6090  142.5760 C   0  0  0  0  0  2  0  0  0  0  0  0
  191.1050  174.8350  146.6350 C   0  0  1  0  0  3  0  0  0  0  0  0
  191.9460  175.6370  145.6220 C   0  0  1  0  0  3  0  0  0  0  0  0
  187.2160  176.8090  143.4750 C   0  0  0  0  0  3  0  0  0  0  0  0
  185.1960  176.8030  145.9380 C   0  0  0  0  0  3  0  0  0  0  0  0
  186.5170  177.2620  145.8350 C   0  0  0  0  0  0  0  0  0  0  0  0
  186.9010  178.3960  146.5630 C   0  0  0  0  0  3  0  0  0  0  0  0
  186.3430  180.1210  148.1060 F   0  0  0  0  0  0  0  0  0  0  0  0
  184.7050  178.5550  147.4850 N   0  0  0  0  0  0  0  0  0  0  0  0
  185.9750  179.0300  147.3930 C   0  0  0  0  0  0  0  0  0  0  0  0
  184.2990  177.4650  146.7790 C   0  0  0  0  0  3  0  0  0  0  0  0
  194.3030  175.6880  146.3580 O   0  0  0  0  0  0  0  0  0  0  0  0
  194.9430  176.7310  145.6680 C   0  0  0  0  0  2  0  0  0  0  0  0
  194.9000  176.4760  144.2980 O   0  0  0  0  0  0  0  0  0  0  0  0
  196.2050  176.7020  143.8590 C   0  0  0  0  0  2  0  0  0  0  0  0
  196.9240  175.5090  143.9050 O   0  0  0  0  0  1  0  0  0  0  0  0
  1 24  1  0  0  0  0
  1 33  1  1  0  0  0
  2 20  1  1  0  0  0
  2 22  1  0  0  0  0
  2 12  1  0  0  0  0
  3  6  1  0  0  0  0
  4 17  1  0  0  0  0
  5 20  1  0  0  0  0
  5  8  1  0  0  0  0
  6 19  1  0  0  0  0
  6  9  1  0  0  0  0
  7 14  1  0  0  0  0
  8  3  1  0  0  0  0
  8 11  1  0  0  0  0
  9  4  1  0  0  0  0
 10  5  1  0  0  0  0
 11 19  1  0  0  0  0
 12 16  1  0  0  0  0
 13 18  1  0  0  0  0
 13 25  2  0  0  0  0
 14  1  1  0  0  0  0
 15 10  1  0  0  0  0
 15 18  1  0  0  0  0
 16 11  1  0  0  0  0
 16 14  1  0  0  0  0
 18  3  1  0  0  0  0
 19 24  1  0  0  0  0
 19 23  1  0  0  0  0
 21  9  2  0  0  0  0
 21 27  1  0  0  0  0
 22 12  1  0  0  0  0
 23 17  1  0  0  0  0
 24 23  1  0  0  0  0
 25 21  1  0  0  0  0
 26 32  1  0  0  0  0
 27 26  2  0  0  0  0
 27 28  1  0  0  0  0
 28 31  2  0  0  0  0
 31 30  1  0  0  0  0
 31 29  1  0  0  0  0
 32 30  2  0  0  0  0
 34 33  1  0  0  0  0
 35 34  1  0  0  0  0
 36 37  1  0  0  0  0
 36 35  1  0  0  0  0
M  END
>  <MODEL>
1

>  <REMARK>
 VINA RESULT:      -8.6      0.000      0.000
  Name = 
  5 active torsions:
  status: ('A' for Active; 'I' for Inactive)
    1  A    between atoms: C_1  and  O_5
    2  A    between atoms: O_5  and  C_17
    3  A    between atoms: C_6  and  C_31
    4  A    between atoms: C_11  and  O_26
    5  A    between atoms: C_17  and  O_26
                            x       y       z     vdW  Elec       q    Type
                         _______ _______ _______ _____ _____    ______ ____

>  <TORSDO>
F 5

$$$$
=
 OpenBabel11052420063D

 37 45  0  0  1  0  0  0  0  0999 V2000
  190.4990  173.0580  141.3510 C   0  0  1  0  0  3  0  0  0  0  0  0
  194.1200  172.6510  144.3500 C   0  0  2  0  0  3  0  0  0  0  0  0
  190.4210  174.9160  145.4320 C   0  0  1  0  0  3  0  0  0  0  0  0
  188.2100  176.9620  143.2370 C   0  0  0  0  0  2  0  0  0  0  0  0
  192.8840  174.2510  145.7800 C   0  0  2  0  0  3  0  0  0  0  0  0
  189.5860  175.2170  144.4440 C   0  0  1  0  0  3  0  0  0  0  0  0
  192.7550  172.7360  140.2200 C   0  0  0  0  0  1  0  0  0  0  0  0
  191.6220  174.1800  144.9080 C   0  0  2  0  0  3  0  0  0  0  0  0
  188.4760  176.2030  144.5130 C   0  0  0  0  0  0  0  0  0  0  0  0
  192.9190  175.4720  146.6890 C   0  0  0  0  0  2  0  0  0  0  0  0
  191.7470  174.6850  143.4700 C   0  0  1  0  0  3  0  0  0  0  0  0
  193.2100  172.5240  143.1130 C   0  0  1  0  0  3  0  0  0  0  0  0
  189.1590  175.4260  147.4460 C   0  0  0  0  0  3  0  0  0  0  0  0
  191.9240  173.6050  141.1560 C   0  0  2  0  0  3  0  0  0  0  0  0
  191.6650  175.4470  147.5620 C   0  0  0  0  0  2  0  0  0  0  0  0
  192.6020  173.8150  142.5160 C   0  0  1  0  0  3  0  0  0  0  0  0
  188.3210  176.0640  142.0080 C   0  0  0  0  0  2  0  0  0  0  0  0
  190.4220  175.6970  146.7080 C   0  0  1  0  0  3  0  0  0  0  0  0
  190.2640  174.8790  143.1650 C   0  0  2  0  0  0  0  0  0  0  0  0
  194.1560  174.0510  144.9650 C   0  0  0  0  0  2  0  0  0  0  0  0
  187.7320  176.4370  145.6340 C   0  0  0  0  0  0  0  0  0  0  0  0
  194.7210  172.6300  142.9660 C   0  0  0  0  0  2  0  0  0  0  0  0
  189.7100  175.4330  141.8610 C   0  0  1  0  0  3  0  0  0  0  0  0
  189.5560  173.9390  142.2040 C   0  0  1  0  0  3  0  0  0  0  0  0
  187.9690  175.7720  146.9460 C   0  0  0  0  0  3  0  0  0  0  0  0
  185.3740  177.0300  146.2590 C   0  0  0  0  0  3  0  0  0  0  0  0
  186.5710  177.3570  145.6060 C   0  0  0  0  0  0  0  0  0  0  0  0
  186.6400  178.5480  144.8690 C   0  0  0  0  0  3  0  0  0  0  0  0
  185.5940  180.5510  144.1190 F   0  0  0  0  0  0  0  0  0  0  0  0
  184.3880  179.0590  145.4760 N   0  0  0  0  0  0  0  0  0  0  0  0
  185.5310  179.3950  144.8210 C   0  0  0  0  0  0  0  0  0  0  0  0
  184.2880  177.9030  146.1870 C   0  0  0  0  0  3  0  0  0  0  0  0
  189.8870  172.5810  140.1690 O   0  0  0  0  0  0  0  0  0  0  0  0
  188.4930  172.6910  140.3000 C   0  0  0  0  0  2  0  0  0  0  0  0
  187.8990  172.5750  139.0440 O   0  0  0  0  0  0  0  0  0  0  0  0
  188.4680  173.6030  138.2920 C   0  0  0  0  0  2  0  0  0  0  0  0
  187.8600  174.8120  138.6220 O   0  0  0  0  0  1  0  0  0  0  0  0
  1 33  1  6  0  0  0
  1 24  1  0  0  0  0
  2 22  1  6  0  0  0
  2 20  1  0  0  0  0
  3 18  1  0  0  0  0
  4  9  1  0  0  0  0
  5 10  1  0  0  0  0
  6  9  1  0  0  0  0
  6  3  1  0  0  0  0
  7 14  1  0  0  0  0
  8  3  1  0  0  0  0
  8  5  1  0  0  0  0
  9 21  2  0  0  0  0
 10 15  1  0  0  0  0
 11  8  1  0  0  0  0
 12  2  1  0  0  0  0
 14  1  1  0  0  0  0
 14 16  1  0  0  0  0
 16 12  1  0  0  0  0
 16 11  1  0  0  0  0
 17  4  1  0  0  0  0
 18 13  1  0  0  0  0
 18 15  1  0  0  0  0
 19 11  1  0  0  0  0
 19  6  1  0  0  0  0
 20  5  1  0  0  0  0
 21 25  1  0  0  0  0
 22 12  1  0  0  0  0
 23 17  1  0  0  0  0
 23 24  1  0  0  0  0
 23 19  1  0  0  0  0
 24 19  1  0  0  0  0
 25 13  2  0  0  0  0
 27 21  1  0  0  0  0
 27 26  2  0  0  0  0
 28 27  1  0  0  0  0
 29 31  1  0  0  0  0
 30 32  2  0  0  0  0
 31 28  2  0  0  0  0
 31 30  1  0  0  0  0
 32 26  1  0  0  0  0
 33 34  1  0  0  0  0
 35 34  1  0  0  0  0
 36 37  1  0  0  0  0
 36 35  1  0  0  0  0
M  END
>  <MODEL>
2

>  <REMARK>
 VINA RESULT:      -8.6      2.883      4.950
  Name = 
  5 active torsions:
  status: ('A' for Active; 'I' for Inactive)
    1  A    between atoms: C_1  and  O_5
    2  A    between atoms: O_5  and  C_17
    3  A    between atoms: C_6  and  C_31
    4  A    between atoms: C_11  and  O_26
    5  A    between atoms: C_17  and  O_26
                            x       y       z     vdW  Elec       q    Type
                         _______ _______ _______ _____ _____    ______ ____

>  <TORSDO>
F 5

$$$$
=
 OpenBabel11052420063D

 37 45  0  0  1  0  0  0  0  0999 V2000
  193.6200  175.5830  145.2990 C   0  0  1  0  0  3  0  0  0  0  0  0
  193.3750  171.7060  142.6190 C   0  0  2  0  0  3  0  0  0  0  0  0
  189.8360  174.3700  143.2200 C   0  0  1  0  0  3  0  0  0  0  0  0
  188.8660  176.3170  146.2470 C   0  0  0  0  0  2  0  0  0  0  0  0
  190.9440  172.1620  142.4940 C   0  0  2  0  0  3  0  0  0  0  0  0
  189.9120  175.2640  144.1990 C   0  0  1  0  0  3  0  0  0  0  0  0
  195.2690  173.7590  145.9540 C   0  0  0  0  0  1  0  0  0  0  0  0
  191.0870  173.5390  143.1610 C   0  0  2  0  0  3  0  0  0  0  0  0
  188.7720  176.0290  144.7690 C   0  0  0  0  0  0  0  0  0  0  0  0
  189.5210  171.6230  142.5250 C   0  0  0  0  0  2  0  0  0  0  0  0
  191.5930  173.5580  144.6030 C   0  0  1  0  0  3  0  0  0  0  0  0
  193.8880  172.8360  143.5320 C   0  0  1  0  0  3  0  0  0  0  0  0
  187.8630  175.0360  141.9650 C   0  0  0  0  0  3  0  0  0  0  0  0
  193.8020  174.1270  145.7630 C   0  0  2  0  0  3  0  0  0  0  0  0
  188.6130  172.6460  141.8430 C   0  0  0  0  0  2  0  0  0  0  0  0
  193.0790  173.1710  144.8070 C   0  0  1  0  0  3  0  0  0  0  0  0
  190.2860  176.6920  146.6640 C   0  0  0  0  0  2  0  0  0  0  0  0
  188.5130  173.9130  142.6920 C   0  0  1  0  0  3  0  0  0  0  0  0
  191.1340  174.9620  144.9890 C   0  0  2  0  0  0  0  0  0  0  0  0
  191.9910  171.1740  142.9920 C   0  0  0  0  0  2  0  0  0  0  0  0
  187.6970  176.4530  144.0410 C   0  0  0  0  0  0  0  0  0  0  0  0
  194.3990  171.4110  143.6870 C   0  0  0  0  0  2  0  0  0  0  0  0
  191.3010  175.5820  146.3680 C   0  0  1  0  0  3  0  0  0  0  0  0
  192.1560  176.0700  145.1820 C   0  0  1  0  0  3  0  0  0  0  0  0
  187.5030  176.1590  142.5940 C   0  0  0  0  0  3  0  0  0  0  0  0
  185.7730  176.7870  145.6190 C   0  0  0  0  0  3  0  0  0  0  0  0
  186.6460  177.3020  144.6490 C   0  0  0  0  0  0  0  0  0  0  0  0
  186.4750  178.6230  144.2140 C   0  0  0  0  0  3  0  0  0  0  0  0
  185.2970  180.6870  144.3590 F   0  0  0  0  0  0  0  0  0  0  0  0
  184.6390  178.8860  145.7180 N   0  0  0  0  0  0  0  0  0  0  0  0
  185.4620  179.4070  144.7690 C   0  0  0  0  0  0  0  0  0  0  0  0
  184.7730  177.6030  146.1490 C   0  0  0  0  0  3  0  0  0  0  0  0
  194.4600  176.5160  145.9490 O   0  0  0  0  0  0  0  0  0  0  0  0
  195.1930  177.2240  144.9810 C   0  0  0  0  0  2  0  0  0  0  0  0
  195.3220  176.4420  143.8340 O   0  0  0  0  0  0  0  0  0  0  0  0
  196.5670  176.7910  143.3120 C   0  0  0  0  0  2  0  0  0  0  0  0
  196.4930  176.8300  141.9210 O   0  0  0  0  0  1  0  0  0  0  0  0
  1 14  1  0  0  0  0
  1 33  1  1  0  0  0
  2 20  1  1  0  0  0
  2 12  1  0  0  0  0
  2 22  1  0  0  0  0
  3  6  1  0  0  0  0
  4 17  1  0  0  0  0
  5 10  1  0  0  0  0
  5 20  1  0  0  0  0
  5  8  1  0  0  0  0
  6  9  1  0  0  0  0
  6 19  1  0  0  0  0
  8  3  1  0  0  0  0
  8 11  1  0  0  0  0
  9  4  1  0  0  0  0
 11 16  1  0  0  0  0
 11 19  1  0  0  0  0
 12 22  1  0  0  0  0
 12 16  1  0  0  0  0
 13 25  2  0  0  0  0
 13 18  1  0  0  0  0
 14  7  1  0  0  0  0
 15 10  1  0  0  0  0
 15 18  1  0  0  0  0
 16 14  1  0  0  0  0
 18  3  1  0  0  0  0
 19 24  1  0  0  0  0
 19 23  1  0  0  0  0
 21 27  1  0  0  0  0
 21  9  2  0  0  0  0
 23 17  1  0  0  0  0
 24  1  1  0  0  0  0
 24 23  1  0  0  0  0
 25 21  1  0  0  0  0
 26 32  1  0  0  0  0
 27 26  2  0  0  0  0
 28 27  1  0  0  0  0
 28 31  2  0  0  0  0
 29 31  1  0  0  0  0
 30 32  2  0  0  0  0
 31 30  1  0  0  0  0
 34 33  1  0  0  0  0
 35 34  1  0  0  0  0
 36 35  1  0  0  0  0
 37 36  1  0  0  0  0
M  END
>  <MODEL>
3

>  <REMARK>
 VINA RESULT:      -8.5      1.233      1.312
  Name = 
  5 active torsions:
  status: ('A' for Active; 'I' for Inactive)
    1  A    between atoms: C_1  and  O_5
    2  A    between atoms: O_5  and  C_17
    3  A    between atoms: C_6  and  C_31
    4  A    between atoms: C_11  and  O_26
    5  A    between atoms: C_17  and  O_26
                            x       y       z     vdW  Elec       q    Type
                         _______ _______ _______ _____ _____    ______ ____

>  <TORSDO>
F 5

$$$$
=
 OpenBabel11052420063D

 37 45  0  0  1  0  0  0  0  0999 V2000
  186.2860  178.3690  142.7160 C   0  0  1  0  0  3  0  0  0  0  0  0
  186.2920  178.1960  147.4320 C   0  0  2  0  0  3  0  0  0  0  0  0
  189.2630  175.9090  144.9970 C   0  0  1  0  0  3  0  0  0  0  0  0
  188.8050  174.2950  141.6690 C   0  0  0  0  0  2  0  0  0  0  0  0
  188.0160  176.4350  147.1880 C   0  0  2  0  0  3  0  0  0  0  0  0
  189.0150  175.7900  143.6970 C   0  0  1  0  0  3  0  0  0  0  0  0
  184.0120  178.7890  143.7750 C   0  0  0  0  0  1  0  0  0  0  0  0
  188.1660  176.6790  145.6790 C   0  0  2  0  0  3  0  0  0  0  0  0
  189.6820  174.8400  142.7690 C   0  0  0  0  0  0  0  0  0  0  0  0
  188.5670  175.0890  147.6380 C   0  0  0  0  0  2  0  0  0  0  0  0
  186.9420  176.3970  144.8080 C   0  0  1  0  0  3  0  0  0  0  0  0
  185.9460  178.5410  145.9700 C   0  0  1  0  0  3  0  0  0  0  0  0
  191.5550  175.1360  145.2340 C   0  0  0  0  0  3  0  0  0  0  0  0
  185.1720  177.8130  143.6200 C   0  0  2  0  0  3  0  0  0  0  0  0
  190.0370  175.0190  147.2270 C   0  0  0  0  0  2  0  0  0  0  0  0
  185.7530  177.3760  144.9700 C   0  0  1  0  0  3  0  0  0  0  0  0
  187.8860  175.3680  141.0900 C   0  0  0  0  0  2  0  0  0  0  0  0
  190.1580  174.9420  145.7050 C   0  0  1  0  0  3  0  0  0  0  0  0
  187.6400  176.2980  143.4540 C   0  0  2  0  0  0  0  0  0  0  0  0
  186.6010  176.7180  147.6750 C   0  0  0  0  0  2  0  0  0  0  0  0
  190.9900  174.4600  142.8740 C   0  0  0  0  0  0  0  0  0  0  0  0
  184.8550  178.4110  147.0240 C   0  0  0  0  0  2  0  0  0  0  0  0
  186.9460  175.9690  142.1410 C   0  0  1  0  0  3  0  0  0  0  0  0
  187.4540  177.3970  142.4210 C   0  0  1  0  0  3  0  0  0  0  0  0
  191.9020  174.9080  143.9630 C   0  0  0  0  0  3  0  0  0  0  0  0
  191.5830  172.1950  141.9710 C   0  0  0  0  0  3  0  0  0  0  0  0
  191.6210  173.5920  141.8530 C   0  0  0  0  0  0  0  0  0  0  0  0
  192.3170  174.1660  140.7810 C   0  0  0  0  0  3  0  0  0  0  0  0
  193.6040  173.8890  138.7970 F   0  0  0  0  0  0  0  0  0  0  0  0
  192.8720  171.9890  139.9710 N   0  0  0  0  0  0  0  0  0  0  0  0
  192.9360  173.3410  139.8400 C   0  0  0  0  0  0  0  0  0  0  0  0
  192.2150  171.4050  141.0090 C   0  0  0  0  0  3  0  0  0  0  0  0
  185.8240  179.0410  141.5610 O   0  0  0  0  0  0  0  0  0  0  0  0
  185.1750  178.1170  140.7240 C   0  0  0  0  0  2  0  0  0  0  0  0
  184.0650  178.7230  140.1380 O   0  0  0  0  0  0  0  0  0  0  0  0
  182.9910  177.9120  140.5040 C   0  0  0  0  0  2  0  0  0  0  0  0
  181.8360  178.6860  140.6010 O   0  0  0  0  0  1  0  0  0  0  0  0
  1 33  1  6  0  0  0
  1 14  1  0  0  0  0
  2 22  1  1  0  0  0
  2 20  1  0  0  0  0
  3  8  1  0  0  0  0
  3 18  1  0  0  0  0
  4  9  1  0  0  0  0
  5 10  1  0  0  0  0
  5 20  1  0  0  0  0
  6  3  1  0  0  0  0
  8  5  1  0  0  0  0
  9 21  2  0  0  0  0
  9  6  1  0  0  0  0
 11 16  1  0  0  0  0
 11  8  1  0  0  0  0
 12 22  1  0  0  0  0
 12  2  1  0  0  0  0
 13 18  1  0  0  0  0
 14  7  1  0  0  0  0
 14 16  1  0  0  0  0
 15 10  1  0  0  0  0
 16 12  1  0  0  0  0
 17  4  1  0  0  0  0
 17 23  1  0  0  0  0
 18 15  1  0  0  0  0
 19  6  1  0  0  0  0
 19 11  1  0  0  0  0
 21 25  1  0  0  0  0
 23 24  1  0  0  0  0
 23 19  1  0  0  0  0
 24  1  1  0  0  0  0
 24 19  1  0  0  0  0
 25 13  2  0  0  0  0
 27 26  1  0  0  0  0
 27 21  1  0  0  0  0
 28 27  2  0  0  0  0
 29 31  1  0  0  0  0
 30 32  1  0  0  0  0
 31 30  2  0  0  0  0
 31 28  1  0  0  0  0
 32 26  2  0  0  0  0
 34 33  1  0  0  0  0
 35 36  1  0  0  0  0
 35 34  1  0  0  0  0
 36 37  1  0  0  0  0
M  END
>  <MODEL>
4

>  <REMARK>
 VINA RESULT:      -8.4      4.844      8.820
  Name = 
  5 active torsions:
  status: ('A' for Active; 'I' for Inactive)
    1  A    between atoms: C_1  and  O_5
    2  A    between atoms: O_5  and  C_17
    3  A    between atoms: C_6  and  C_31
    4  A    between atoms: C_11  and  O_26
    5  A    between atoms: C_17  and  O_26
                            x       y       z     vdW  Elec       q    Type
                         _______ _______ _______ _____ _____    ______ ____

>  <TORSDO>
F 5

$$$$
=
 OpenBabel11052420063D

 37 45  0  0  1  0  0  0  0  0999 V2000
  186.2500  178.0320  141.6570 C   0  0  1  0  0  3  0  0  0  0  0  0
  185.6370  179.0210  146.2310 C   0  0  2  0  0  3  0  0  0  0  0  0
  189.2740  176.8750  144.7620 C   0  0  1  0  0  3  0  0  0  0  0  0
  189.5720  174.4390  141.9570 C   0  0  0  0  0  2  0  0  0  0  0  0
  187.6630  177.6500  146.6160 C   0  0  2  0  0  3  0  0  0  0  0  0
  189.2320  176.3940  143.5240 C   0  0  1  0  0  3  0  0  0  0  0  0
  183.8140  178.2180  142.3640 C   0  0  0  0  0  1  0  0  0  0  0  0
  187.9750  177.5440  145.1160 C   0  0  2  0  0  3  0  0  0  0  0  0
  190.1790  175.4050  142.9440 C   0  0  0  0  0  0  0  0  0  0  0  0
  188.3770  176.5990  147.4540 C   0  0  0  0  0  2  0  0  0  0  0  0
  186.9510  176.8110  144.2480 C   0  0  1  0  0  3  0  0  0  0  0  0
  185.4400  178.9190  144.7060 C   0  0  1  0  0  3  0  0  0  0  0  0
  191.6120  176.6750  145.3950 C   0  0  0  0  0  3  0  0  0  0  0  0
  185.1390  177.4960  142.5770 C   0  0  2  0  0  3  0  0  0  0  0  0
  189.8790  176.7370  147.2070 C   0  0  0  0  0  2  0  0  0  0  0  0
  185.5960  177.5320  144.0390 C   0  0  1  0  0  3  0  0  0  0  0  0
  188.5660  175.1230  141.0360 C   0  0  0  0  0  2  0  0  0  0  0  0
  190.2200  176.3180  145.7770 C   0  0  1  0  0  3  0  0  0  0  0  0
  187.8360  176.5310  143.0350 C   0  0  2  0  0  0  0  0  0  0  0  0
  186.1670  177.7450  146.8850 C   0  0  0  0  0  2  0  0  0  0  0  0
  191.5060  175.3420  143.2610 C   0  0  0  0  0  0  0  0  0  0  0  0
  184.2550  178.8280  145.6570 C   0  0  0  0  0  2  0  0  0  0  0  0
  187.3990  175.7550  141.8020 C   0  0  1  0  0  3  0  0  0  0  0  0
  187.6020  177.2810  141.7350 C   0  0  1  0  0  3  0  0  0  0  0  0
  192.1650  176.2210  144.2660 C   0  0  0  0  0  3  0  0  0  0  0  0
  192.6710  173.1250  143.0910 C   0  0  0  0  0  3  0  0  0  0  0  0
  192.4150  174.4010  142.5670 C   0  0  0  0  0  0  0  0  0  0  0  0
  193.0800  174.8020  141.4000 C   0  0  0  0  0  3  0  0  0  0  0  0
  194.5990  174.2990  139.6370 F   0  0  0  0  0  0  0  0  0  0  0  0
  194.1780  172.6850  141.2920 N   0  0  0  0  0  0  0  0  0  0  0  0
  193.9600  173.9210  140.7700 C   0  0  0  0  0  0  0  0  0  0  0  0
  193.5580  172.2730  142.4310 C   0  0  0  0  0  3  0  0  0  0  0  0
  185.8400  178.2910  140.3290 O   0  0  0  0  0  0  0  0  0  0  0  0
  186.6390  177.5410  139.4500 C   0  0  0  0  0  2  0  0  0  0  0  0
  185.8220  176.7670  138.6270 O   0  0  0  0  0  0  0  0  0  0  0  0
  186.6910  176.2320  137.6770 C   0  0  0  0  0  2  0  0  0  0  0  0
  186.0080  176.0410  136.4770 O   0  0  0  0  0  1  0  0  0  0  0  0
  1 33  1  6  0  0  0
  1 24  1  0  0  0  0
  1 14  1  0  0  0  0
  2 22  1  1  0  0  0
  2 20  1  0  0  0  0
  3  8  1  0  0  0  0
  3 18  1  0  0  0  0
  4  9  1  0  0  0  0
  5 20  1  0  0  0  0
  5 10  1  0  0  0  0
  6  3  1  0  0  0  0
  7 14  1  0  0  0  0
  8  5  1  0  0  0  0
  9 21  2  0  0  0  0
  9  6  1  0  0  0  0
 11  8  1  0  0  0  0
 12 22  1  0  0  0  0
 12  2  1  0  0  0  0
 13 18  1  0  0  0  0
 14 16  1  0  0  0  0
 15 10  1  0  0  0  0
 16 11  1  0  0  0  0
 16 12  1  0  0  0  0
 17 23  1  0  0  0  0
 17  4  1  0  0  0  0
 18 15  1  0  0  0  0
 19  6  1  0  0  0  0
 19 11  1  0  0  0  0
 21 25  1  0  0  0  0
 23 19  1  0  0  0  0
 24 23  1  0  0  0  0
 24 19  1  0  0  0  0
 25 13  2  0  0  0  0
 27 26  1  0  0  0  0
 27 21  1  0  0  0  0
 28 27  2  0  0  0  0
 29 31  1  0  0  0  0
 30 32  1  0  0  0  0
 31 30  2  0  0  0  0
 31 28  1  0  0  0  0
 32 26  2  0  0  0  0
 34 33  1  0  0  0  0
 35 34  1  0  0  0  0
 36 35  1  0  0  0  0
 37 36  1  0  0  0  0
M  END
>  <MODEL>
5

>  <REMARK>
 VINA RESULT:      -8.3      4.683      8.659
  Name = 
  5 active torsions:
  status: ('A' for Active; 'I' for Inactive)
    1  A    between atoms: C_1  and  O_5
    2  A    between atoms: O_5  and  C_17
    3  A    between atoms: C_6  and  C_31
    4  A    between atoms: C_11  and  O_26
    5  A    between atoms: C_17  and  O_26
                            x       y       z     vdW  Elec       q    Type
                         _______ _______ _______ _____ _____    ______ ____

>  <TORSDO>
F 5

$$$$
=
 OpenBabel11052420063D

 37 45  0  0  1  0  0  0  0  0999 V2000
  190.9560  172.0400  142.2200 C   0  0  1  0  0  3  0  0  0  0  0  0
  194.0740  172.7390  145.6930 C   0  0  2  0  0  3  0  0  0  0  0  0
  190.3240  175.1540  145.3860 C   0  0  1  0  0  3  0  0  0  0  0  0
  188.5300  176.3000  142.3260 C   0  0  0  0  0  2  0  0  0  0  0  0
  192.6870  174.6980  146.3030 C   0  0  2  0  0  3  0  0  0  0  0  0
  189.6560  175.0890  144.2390 C   0  0  1  0  0  3  0  0  0  0  0  0
  193.3450  171.4090  141.6170 C   0  0  0  0  0  1  0  0  0  0  0  0
  191.5680  174.3110  145.3250 C   0  0  2  0  0  3  0  0  0  0  0  0
  188.5780  176.0170  143.8080 C   0  0  0  0  0  0  0  0  0  0  0  0
  192.6220  176.1530  146.7480 C   0  0  0  0  0  2  0  0  0  0  0  0
  191.9210  174.3090  143.8380 C   0  0  1  0  0  3  0  0  0  0  0  0
  193.3550  172.1860  144.4480 C   0  0  1  0  0  3  0  0  0  0  0  0
  188.7910  176.2810  146.8990 C   0  0  0  0  0  3  0  0  0  0  0  0
  192.4100  172.5220  142.0720 C   0  0  2  0  0  3  0  0  0  0  0  0
  191.2510  176.3940  147.3780 C   0  0  0  0  0  2  0  0  0  0  0  0
  192.8830  173.1890  143.3690 C   0  0  1  0  0  3  0  0  0  0  0  0
  188.7960  175.0450  141.4990 C   0  0  0  0  0  2  0  0  0  0  0  0
  190.1570  176.3170  146.3130 C   0  0  1  0  0  3  0  0  0  0  0  0
  190.5070  174.3580  143.2650 C   0  0  2  0  0  0  0  0  0  0  0  0
  194.0590  174.2640  145.8040 C   0  0  0  0  0  2  0  0  0  0  0  0
  187.6820  176.5970  144.6600 C   0  0  0  0  0  0  0  0  0  0  0  0
  194.8730  172.2690  144.5030 C   0  0  0  0  0  2  0  0  0  0  0  0
  190.1720  174.4320  141.7830 C   0  0  1  0  0  3  0  0  0  0  0  0
  189.9220  173.1350  142.5780 C   0  0  1  0  0  3  0  0  0  0  0  0
  187.7010  176.4130  146.1380 C   0  0  0  0  0  3  0  0  0  0  0  0
  185.5530  176.8700  143.3600 C   0  0  0  0  0  3  0  0  0  0  0  0
  186.5670  177.4290  144.1510 C   0  0  0  0  0  0  0  0  0  0  0  0
  186.5480  178.8060  144.4090 C   0  0  0  0  0  3  0  0  0  0  0  0
  185.4810  180.9190  144.1520 F   0  0  0  0  0  0  0  0  0  0  0  0
  184.5320  179.0190  143.1470 N   0  0  0  0  0  0  0  0  0  0  0  0
  185.5100  179.5890  143.8990 C   0  0  0  0  0  0  0  0  0  0  0  0
  184.5330  177.6870  142.8680 C   0  0  0  0  0  3  0  0  0  0  0  0
  190.5140  171.1820  141.1870 O   0  0  0  0  0  0  0  0  0  0  0  0
  189.7020  171.9120  140.3030 C   0  0  0  0  0  2  0  0  0  0  0  0
  190.3730  172.0860  139.0940 O   0  0  0  0  0  0  0  0  0  0  0  0
  189.5700  172.9700  138.3730 C   0  0  0  0  0  2  0  0  0  0  0  0
  188.2450  172.8350  138.7830 O   0  0  0  0  0  1  0  0  0  0  0  0
  1 33  1  6  0  0  0
  1 24  1  0  0  0  0
  2 22  1  6  0  0  0
  2 20  1  0  0  0  0
  3 18  1  0  0  0  0
  4  9  1  0  0  0  0
  5 10  1  0  0  0  0
  6  3  1  0  0  0  0
  7 14  1  0  0  0  0
  8  3  1  0  0  0  0
  8  5  1  0  0  0  0
  9  6  1  0  0  0  0
  9 21  2  0  0  0  0
 10 15  1  0  0  0  0
 11  8  1  0  0  0  0
 12 22  1  0  0  0  0
 12  2  1  0  0  0  0
 14  1  1  0  0  0  0
 14 16  1  0  0  0  0
 16 11  1  0  0  0  0
 16 12  1  0  0  0  0
 17 23  1  0  0  0  0
 17  4  1  0  0  0  0
 18 13  1  0  0  0  0
 18 15  1  0  0  0  0
 19 11  1  0  0  0  0
 19  6  1  0  0  0  0
 20  5  1  0  0  0  0
 21 25  1  0  0  0  0
 23 24  1  0  0  0  0
 23 19  1  0  0  0  0
 24 19  1  0  0  0  0
 25 13  2  0  0  0  0
 26 27  1  0  0  0  0
 27 28  2  0  0  0  0
 27 21  1  0  0  0  0
 30 31  2  0  0  0  0
 31 29  1  0  0  0  0
 31 28  1  0  0  0  0
 32 30  1  0  0  0  0
 32 26  2  0  0  0  0
 34 33  1  0  0  0  0
 35 34  1  0  0  0  0
 36 37  1  0  0  0  0
 36 35  1  0  0  0  0
M  END
>  <MODEL>
6

>  <REMARK>
 VINA RESULT:      -8.2      2.926      4.928
  Name = 
  5 active torsions:
  status: ('A' for Active; 'I' for Inactive)
    1  A    between atoms: C_1  and  O_5
    2  A    between atoms: O_5  and  C_17
    3  A    between atoms: C_6  and  C_31
    4  A    between atoms: C_11  and  O_26
    5  A    between atoms: C_17  and  O_26
                            x       y       z     vdW  Elec       q    Type
                         _______ _______ _______ _____ _____    ______ ____

>  <TORSDO>
F 5

$$$$
=
 OpenBabel11052420063D

 37 45  0  0  1  0  0  0  0  0999 V2000
  193.5700  173.8700  143.9670 C   0  0  1  0  0  3  0  0  0  0  0  0
  192.5020  172.6590  139.5330 C   0  0  2  0  0  3  0  0  0  0  0  0
  189.6600  174.9910  142.0760 C   0  0  1  0  0  3  0  0  0  0  0  0
  189.0910  174.7630  145.7530 C   0  0  0  0  0  2  0  0  0  0  0  0
  190.2460  173.5570  140.0190 C   0  0  2  0  0  3  0  0  0  0  0  0
  189.9160  175.0410  143.3790 C   0  0  1  0  0  3  0  0  0  0  0  0
  194.7350  171.7600  143.1560 C   0  0  0  0  0  1  0  0  0  0  0  0
  190.6860  174.1540  141.3640 C   0  0  2  0  0  3  0  0  0  0  0  0
  188.9700  175.4870  144.4340 C   0  0  0  0  0  0  0  0  0  0  0  0
  188.7370  173.4080  139.8910 C   0  0  0  0  0  2  0  0  0  0  0  0
  191.1470  173.1690  142.4390 C   0  0  1  0  0  3  0  0  0  0  0  0
  193.2400  172.8430  140.8730 C   0  0  1  0  0  3  0  0  0  0  0  0
  187.9260  176.6640  141.7510 C   0  0  0  0  0  3  0  0  0  0  0  0
  193.3980  172.4440  143.4160 C   0  0  2  0  0  3  0  0  0  0  0  0
  188.1070  174.7850  140.0990 C   0  0  0  0  0  2  0  0  0  0  0  0
  192.4980  172.4590  142.1750 C   0  0  1  0  0  3  0  0  0  0  0  0
  190.5490  174.5090  146.1300 C   0  0  0  0  0  2  0  0  0  0  0  0
  188.2810  175.2330  141.5500 C   0  0  1  0  0  3  0  0  0  0  0  0
  191.0150  174.0800  143.6570 C   0  0  2  0  0  0  0  0  0  0  0  0
  191.0240  172.2940  139.6720 C   0  0  0  0  0  2  0  0  0  0  0  0
  188.0400  176.4710  144.2600 C   0  0  0  0  0  0  0  0  0  0  0  0
  193.4030  171.5680  140.0580 C   0  0  0  0  0  2  0  0  0  0  0  0
  191.2860  173.6550  145.0930 C   0  0  1  0  0  3  0  0  0  0  0  0
  192.2600  174.5970  144.3580 C   0  0  1  0  0  3  0  0  0  0  0  0
  187.8200  177.1910  142.9740 C   0  0  0  0  0  3  0  0  0  0  0  0
  185.8320  176.6320  145.4420 C   0  0  0  0  0  3  0  0  0  0  0  0
  187.1990  176.9400  145.3860 C   0  0  0  0  0  0  0  0  0  0  0  0
  187.7550  177.7510  146.3840 C   0  0  0  0  0  3  0  0  0  0  0  0
  187.4800  178.9920  148.3970 F   0  0  0  0  0  0  0  0  0  0  0  0
  185.6280  177.8890  147.4620 N   0  0  0  0  0  0  0  0  0  0  0  0
  186.9480  178.2150  147.4250 C   0  0  0  0  0  0  0  0  0  0  0  0
  185.0590  177.1150  146.4990 C   0  0  0  0  0  3  0  0  0  0  0  0
  194.5860  174.0060  144.9410 O   0  0  0  0  0  0  0  0  0  0  0  0
  194.9850  175.3510  145.0000 C   0  0  0  0  0  2  0  0  0  0  0  0
  195.0270  175.7650  146.3310 O   0  0  0  0  0  0  0  0  0  0  0  0
  194.2910  176.9500  146.3510 C   0  0  0  0  0  2  0  0  0  0  0  0
  193.1150  176.7540  147.0720 O   0  0  0  0  0  1  0  0  0  0  0  0
  1 24  1  0  0  0  0
  1 33  1  1  0  0  0
  2 20  1  1  0  0  0
  2 22  1  0  0  0  0
  2 12  1  0  0  0  0
  3  6  1  0  0  0  0
  4 17  1  0  0  0  0
  5  8  1  0  0  0  0
  6 19  1  0  0  0  0
  6  9  1  0  0  0  0
  7 14  1  0  0  0  0
  8  3  1  0  0  0  0
  8 11  1  0  0  0  0
  9  4  1  0  0  0  0
 10  5  1  0  0  0  0
 10 15  1  0  0  0  0
 11 19  1  0  0  0  0
 12 16  1  0  0  0  0
 13 25  2  0  0  0  0
 14  1  1  0  0  0  0
 15 18  1  0  0  0  0
 16 11  1  0  0  0  0
 16 14  1  0  0  0  0
 18 13  1  0  0  0  0
 18  3  1  0  0  0  0
 19 24  1  0  0  0  0
 19 23  1  0  0  0  0
 20  5  1  0  0  0  0
 21  9  2  0  0  0  0
 21 27  1  0  0  0  0
 22 12  1  0  0  0  0
 23 17  1  0  0  0  0
 24 23  1  0  0  0  0
 25 21  1  0  0  0  0
 26 32  1  0  0  0  0
 27 26  2  0  0  0  0
 27 28  1  0  0  0  0
 28 31  2  0  0  0  0
 31 30  1  0  0  0  0
 31 29  1  0  0  0  0
 32 30  2  0  0  0  0
 33 34  1  0  0  0  0
 34 35  1  0  0  0  0
 35 36  1  0  0  0  0
 36 37  1  0  0  0  0
M  END
>  <MODEL>
7

>  <REMARK>
 VINA RESULT:      -7.7      1.369      1.956
  Name = 
  5 active torsions:
  status: ('A' for Active; 'I' for Inactive)
    1  A    between atoms: C_1  and  O_5
    2  A    between atoms: O_5  and  C_17
    3  A    between atoms: C_6  and  C_31
    4  A    between atoms: C_11  and  O_26
    5  A    between atoms: C_17  and  O_26
                            x       y       z     vdW  Elec       q    Type
                         _______ _______ _______ _____ _____    ______ ____

>  <TORSDO>
F 5

$$$$
=
 OpenBabel11052420063D

 37 45  0  0  1  0  0  0  0  0999 V2000
  188.3790  177.1970  144.0610 C   0  0  1  0  0  3  0  0  0  0  0  0
  192.0690  176.4050  146.8950 C   0  0  2  0  0  3  0  0  0  0  0  0
  191.7750  174.5310  142.8470 C   0  0  1  0  0  3  0  0  0  0  0  0
  188.7380  173.3580  141.0320 C   0  0  0  0  0  2  0  0  0  0  0  0
  192.7770  174.7330  145.2100 C   0  0  2  0  0  3  0  0  0  0  0  0
  190.5930  174.5780  142.2430 C   0  0  1  0  0  3  0  0  0  0  0  0
  187.8530  177.4190  146.5400 C   0  0  0  0  0  1  0  0  0  0  0  0
  191.7070  175.1780  144.2020 C   0  0  2  0  0  3  0  0  0  0  0  0
  190.1880  173.7750  141.0600 C   0  0  0  0  0  0  0  0  0  0  0  0
  193.3470  173.3530  144.9140 C   0  0  0  0  0  2  0  0  0  0  0  0
  190.2470  174.9830  144.6140 C   0  0  1  0  0  3  0  0  0  0  0  0
  190.7400  176.9300  146.3170 C   0  0  1  0  0  3  0  0  0  0  0  0
  193.2980  173.7880  141.1030 C   0  0  0  0  0  3  0  0  0  0  0  0
  188.3560  176.5000  145.4330 C   0  0  2  0  0  3  0  0  0  0  0  0
  193.9200  173.3730  143.4970 C   0  0  0  0  0  2  0  0  0  0  0  0
  189.7330  175.9040  145.7480 C   0  0  1  0  0  3  0  0  0  0  0  0
  187.8160  174.4750  141.5140 C   0  0  0  0  0  2  0  0  0  0  0  0
  192.7940  173.5010  142.4720 C   0  0  1  0  0  3  0  0  0  0  0  0
  189.6040  175.0800  143.2320 C   0  0  2  0  0  0  0  0  0  0  0  0
  192.3170  174.9160  146.6510 C   0  0  0  0  0  2  0  0  0  0  0  0
  191.0390  173.4160  140.0530 C   0  0  0  0  0  0  0  0  0  0  0  0
  190.8870  176.6370  147.8030 C   0  0  0  0  0  2  0  0  0  0  0  0
  188.1180  174.9100  142.9520 C   0  0  1  0  0  3  0  0  0  0  0  0
  188.7770  176.3010  142.8630 C   0  0  1  0  0  3  0  0  0  0  0  0
  192.4930  173.7390  140.0380 C   0  0  0  0  0  3  0  0  0  0  0  0
  190.1950  173.4100  137.6900 C   0  0  0  0  0  3  0  0  0  0  0  0
  190.5470  172.7050  138.8500 C   0  0  0  0  0  0  0  0  0  0  0  0
  190.3720  171.3150  138.8810 C   0  0  0  0  0  3  0  0  0  0  0  0
  189.7150  169.3130  137.7740 F   0  0  0  0  0  0  0  0  0  0  0  0
  189.5580  171.3630  136.6370 N   0  0  0  0  0  0  0  0  0  0  0  0
  189.8780  170.6570  137.7540 C   0  0  0  0  0  0  0  0  0  0  0  0
  189.7040  172.7150  136.5830 C   0  0  0  0  0  3  0  0  0  0  0  0
  187.2490  178.0040  143.7930 O   0  0  0  0  0  0  0  0  0  0  0  0
  187.2090  178.2910  142.4180 C   0  0  0  0  0  2  0  0  0  0  0  0
  185.9150  178.6660  142.0600 O   0  0  0  0  0  0  0  0  0  0  0  0
  185.6380  177.9160  140.9180 C   0  0  0  0  0  2  0  0  0  0  0  0
  186.8230  177.6540  140.2340 O   0  0  0  0  0  1  0  0  0  0  0  0
  1 33  1  6  0  0  0
  1 14  1  0  0  0  0
  2 20  1  6  0  0  0
  2 22  1  0  0  0  0
  3  8  1  0  0  0  0
  4  9  1  0  0  0  0
  4 17  1  0  0  0  0
  5 20  1  0  0  0  0
  6  3  1  0  0  0  0
  6 19  1  0  0  0  0
  8 11  1  0  0  0  0
  8  5  1  0  0  0  0
  9  6  1  0  0  0  0
 10  5  1  0  0  0  0
 11 16  1  0  0  0  0
 12  2  1  0  0  0  0
 12 22  1  0  0  0  0
 13 18  1  0  0  0  0
 14 16  1  0  0  0  0
 14  7  1  0  0  0  0
 15 10  1  0  0  0  0
 16 12  1  0  0  0  0
 17 23  1  0  0  0  0
 18  3  1  0  0  0  0
 18 15  1  0  0  0  0
 19 11  1  0  0  0  0
 21  9  2  0  0  0  0
 23 19  1  0  0  0  0
 24 23  1  0  0  0  0
 24 19  1  0  0  0  0
 24  1  1  0  0  0  0
 25 21  1  0  0  0  0
 25 13  2  0  0  0  0
 26 27  1  0  0  0  0
 27 28  2  0  0  0  0
 27 21  1  0  0  0  0
 30 31  2  0  0  0  0
 31 29  1  0  0  0  0
 31 28  1  0  0  0  0
 32 30  1  0  0  0  0
 32 26  2  0  0  0  0
 34 33  1  0  0  0  0
 35 34  1  0  0  0  0
 36 35  1  0  0  0  0
 37 36  1  0  0  0  0
M  END
>  <MODEL>
8

>  <REMARK>
 VINA RESULT:      -7.7      4.652      7.867
  Name = 
  5 active torsions:
  status: ('A' for Active; 'I' for Inactive)
    1  A    between atoms: C_1  and  O_5
    2  A    between atoms: O_5  and  C_17
    3  A    between atoms: C_6  and  C_31
    4  A    between atoms: C_11  and  O_26
    5  A    between atoms: C_17  and  O_26
                            x       y       z     vdW  Elec       q    Type
                         _______ _______ _______ _____ _____    ______ ____

>  <TORSDO>
F 5

$$$$
=
 OpenBabel11052420063D

 37 45  0  0  1  0  0  0  0  0999 V2000
  189.9550  174.3570  141.7470 C   0  0  1  0  0  3  0  0  0  0  0  0
  188.7370  177.5460  145.0060 C   0  0  2  0  0  3  0  0  0  0  0  0
  192.6040  175.3150  145.2370 C   0  0  1  0  0  3  0  0  0  0  0  0
  193.3410  171.8070  144.2130 C   0  0  0  0  0  2  0  0  0  0  0  0
  190.7470  176.7900  146.2400 C   0  0  2  0  0  3  0  0  0  0  0  0
  192.7360  174.2510  144.4520 C   0  0  1  0  0  3  0  0  0  0  0  0
  187.4440  174.6490  142.0290 C   0  0  0  0  0  1  0  0  0  0  0  0
  191.2480  175.9390  145.0630 C   0  0  2  0  0  3  0  0  0  0  0  0
  193.7830  173.2030  144.5770 C   0  0  0  0  0  0  0  0  0  0  0  0
  191.3870  176.4150  147.5690 C   0  0  0  0  0  2  0  0  0  0  0  0
  190.3690  174.7630  144.6380 C   0  0  1  0  0  3  0  0  0  0  0  0
  188.7370  176.6350  143.7620 C   0  0  1  0  0  3  0  0  0  0  0  0
  194.8510  175.7080  146.0800 C   0  0  0  0  0  3  0  0  0  0  0  0
  188.7570  174.2810  142.7100 C   0  0  2  0  0  3  0  0  0  0  0  0
  192.9020  176.5470  147.4180 C   0  0  0  0  0  2  0  0  0  0  0  0
  189.0260  175.1280  143.9590 C   0  0  1  0  0  3  0  0  0  0  0  0
  192.4340  171.8000  142.9850 C   0  0  0  0  0  2  0  0  0  0  0  0
  193.4360  175.4730  146.4710 C   0  0  1  0  0  3  0  0  0  0  0  0
  191.4080  173.9730  143.8460 C   0  0  2  0  0  0  0  0  0  0  0  0
  189.2270  176.8660  146.2850 C   0  0  0  0  0  2  0  0  0  0  0  0
  195.0610  173.4460  144.9920 C   0  0  0  0  0  0  0  0  0  0  0  0
  187.4460  176.9450  144.5070 C   0  0  0  0  0  2  0  0  0  0  0  0
  191.1580  172.6240  143.1880 C   0  0  1  0  0  3  0  0  0  0  0  0
  191.3120  173.8960  142.3320 C   0  0  1  0  0  3  0  0  0  0  0  0
  195.5570  174.7830  145.4230 C   0  0  0  0  0  3  0  0  0  0  0  0
  197.0030  172.2540  143.9400 C   0  0  0  0  0  3  0  0  0  0  0  0
  196.0840  172.3740  144.9920 C   0  0  0  0  0  0  0  0  0  0  0  0
  196.1050  171.4270  146.0250 C   0  0  0  0  0  3  0  0  0  0  0  0
  197.0830  169.4880  147.0000 F   0  0  0  0  0  0  0  0  0  0  0  0
  197.9410  170.3170  144.9760 N   0  0  0  0  0  0  0  0  0  0  0  0
  197.0520  170.4020  146.0010 C   0  0  0  0  0  0  0  0  0  0  0  0
  197.9340  171.2140  143.9530 C   0  0  0  0  0  3  0  0  0  0  0  0
  189.7060  173.8340  140.4570 O   0  0  0  0  0  0  0  0  0  0  0  0
  190.9320  173.5230  139.8460 C   0  0  0  0  0  2  0  0  0  0  0  0
  190.7850  173.5710  138.4610 O   0  0  0  0  0  0  0  0  0  0  0  0
  189.4470  173.2450  138.2400 C   0  0  0  0  0  2  0  0  0  0  0  0
  188.9530  173.9980  137.1770 O   0  0  0  0  0  1  0  0  0  0  0  0
  1 33  1  6  0  0  0
  1 24  1  0  0  0  0
  1 14  1  0  0  0  0
  2 22  1  1  0  0  0
  2 20  1  0  0  0  0
  3 18  1  0  0  0  0
  4  9  1  0  0  0  0
  5 20  1  0  0  0  0
  5 10  1  0  0  0  0
  6  9  1  0  0  0  0
  6  3  1  0  0  0  0
  7 14  1  0  0  0  0
  8  3  1  0  0  0  0
  8  5  1  0  0  0  0
  9 21  2  0  0  0  0
 11  8  1  0  0  0  0
 12 16  1  0  0  0  0
 12 22  1  0  0  0  0
 12  2  1  0  0  0  0
 13 18  1  0  0  0  0
 14 16  1  0  0  0  0
 15 10  1  0  0  0  0
 16 11  1  0  0  0  0
 17 23  1  0  0  0  0
 17  4  1  0  0  0  0
 18 15  1  0  0  0  0
 19  6  1  0  0  0  0
 19 11  1  0  0  0  0
 21 27  1  0  0  0  0
 21 25  1  0  0  0  0
 23 19  1  0  0  0  0
 24 23  1  0  0  0  0
 24 19  1  0  0  0  0
 25 13  2  0  0  0  0
 26 32  2  0  0  0  0
 26 27  1  0  0  0  0
 27 28  2  0  0  0  0
 30 31  2  0  0  0  0
 31 28  1  0  0  0  0
 31 29  1  0  0  0  0
 32 30  1  0  0  0  0
 34 33  1  0  0  0  0
 35 34  1  0  0  0  0
 36 35  1  0  0  0  0
 37 36  1  0  0  0  0
M  END
>  <MODEL>
9

>  <REMARK>
 VINA RESULT:      -7.5      4.580      8.479
  Name = 
  5 active torsions:
  status: ('A' for Active; 'I' for Inactive)
    1  A    between atoms: C_1  and  O_5
    2  A    between atoms: O_5  and  C_17
    3  A    between atoms: C_6  and  C_31
    4  A    between atoms: C_11  and  O_26
    5  A    between atoms: C_17  and  O_26
                            x       y       z     vdW  Elec       q    Type
                         _______ _______ _______ _____ _____    ______ ____

>  <TORSDO>
F 5

$$$$
