=
 OpenBabel11052418343D

 27 31  0  0  1  0  0  0  0  0999 V2000
  189.1170  176.7210  145.0400 C   0  0  2  0  0  3  0  0  0  0  0  0
  187.8070  176.8230  142.9050 C   0  0  0  0  0  0  0  0  0  0  0  0
  189.8060  175.4590  143.0390 O   0  0  0  0  0  0  0  0  0  0  0  0
  186.7780  177.0580  142.0680 N   0  0  0  0  0  0  0  0  0  0  0  0
  191.7520  176.1530  146.1930 C   0  0  1  0  0  3  0  0  0  0  0  0
  188.0820  177.5190  144.2110 C   0  0  1  0  0  3  0  0  0  0  0  0
  188.1150  175.4640  141.1950 C   0  0  0  0  0  0  0  0  0  0  0  0
  189.6730  177.5700  146.1810 C   0  0  0  0  0  2  0  0  0  0  0  0
  188.6450  175.8790  142.3930 C   0  0  1  0  0  3  0  0  0  0  0  0
  191.2380  175.3490  144.9890 C   0  0  0  0  0  2  0  0  0  0  0  0
  186.9590  176.2190  141.0170 C   0  0  0  0  0  3  0  0  0  0  0  0
  190.6150  176.7360  147.0460 C   0  0  0  0  0  2  0  0  0  0  0  0
  190.2850  176.2040  144.1620 C   0  0  2  0  0  3  0  0  0  0  0  0
  188.2440  174.4330  138.9270 C   0  0  0  0  0  3  0  0  0  0  0  0
  189.6670  172.5220  138.4970 C   0  0  0  0  0  3  0  0  0  0  0  0
  190.0800  172.5300  139.8320 C   0  0  0  0  0  3  0  0  0  0  0  0
  189.5750  173.4900  140.7140 C   0  0  0  0  0  3  0  0  0  0  0  0
  188.6530  174.4490  140.2690 C   0  0  0  0  0  0  0  0  0  0  0  0
  188.7490  173.4740  138.0440 C   0  0  0  0  0  3  0  0  0  0  0  0
  184.4590  178.1080  146.4560 C   0  0  0  0  0  3  0  0  0  0  0  0
  186.8160  177.7390  144.9870 C   0  0  0  0  0  0  0  0  0  0  0  0
  186.2950  176.6920  145.7540 C   0  0  0  0  0  3  0  0  0  0  0  0
  185.1190  176.8760  146.4880 C   0  0  0  0  0  3  0  0  0  0  0  0
  184.9760  179.1580  145.6920 C   0  0  0  0  0  3  0  0  0  0  0  0
  186.1510  178.9750  144.9580 C   0  0  0  0  0  3  0  0  0  0  0  0
  193.9990  175.8160  146.5250 C   0  0  0  0  0  1  0  0  0  0  0  0
  192.7110  175.4520  146.9560 O   0  0  0  0  0  0  0  0  0  0  0  0
  1  8  1  1  0  0  0
  2  6  1  0  0  0  0
  3 13  1  0  0  0  0
  4  2  2  0  0  0  0
  5 27  1  1  0  0  0
  5 12  1  0  0  0  0
  6 21  1  1  0  0  0
  6  1  1  0  0  0  0
  8 12  1  0  0  0  0
  9  7  1  1  0  0  0
  9  2  1  0  0  0  0
  9  3  1  0  0  0  0
 10  5  1  0  0  0  0
 11  7  2  0  0  0  0
 11  4  1  0  0  0  0
 13 10  1  1  0  0  0
 13  1  1  0  0  0  0
 14 18  1  0  0  0  0
 15 16  2  0  0  0  0
 16 17  1  0  0  0  0
 18 17  2  0  0  0  0
 18  7  1  0  0  0  0
 19 15  1  0  0  0  0
 19 14  2  0  0  0  0
 20 23  1  0  0  0  0
 21 22  1  0  0  0  0
 22 23  2  0  0  0  0
 24 20  2  0  0  0  0
 25 21  2  0  0  0  0
 25 24  1  0  0  0  0
 26 27  1  0  0  0  0
M  END
>  <MODEL>
1

>  <REMARK>
 VINA RESULT:      -7.8      0.000      0.000
  Name = 
  3 active torsions:
  status: ('A' for Active; 'I' for Inactive)
    1  A    between atoms: C_9  and  C_15
    2  A    between atoms: C_13  and  O_22
    3  A    between atoms: C_14  and  C_17
                            x       y       z     vdW  Elec       q    Type
                         _______ _______ _______ _____ _____    ______ ____

>  <TORSDO>
F 3

$$$$
=
 OpenBabel11052418343D

 27 31  0  0  1  0  0  0  0  0999 V2000
  189.0800  176.7580  145.0450 C   0  0  2  0  0  3  0  0  0  0  0  0
  187.7690  176.8200  142.9100 C   0  0  0  0  0  0  0  0  0  0  0  0
  189.7700  175.4640  143.0650 O   0  0  0  0  0  0  0  0  0  0  0  0
  186.7380  177.0380  142.0700 N   0  0  0  0  0  0  0  0  0  0  0  0
  191.7180  176.2160  146.2050 C   0  0  1  0  0  3  0  0  0  0  0  0
  188.0430  177.5390  144.2030 C   0  0  1  0  0  3  0  0  0  0  0  0
  188.0780  175.4330  141.2220 C   0  0  0  0  0  0  0  0  0  0  0  0
  189.6350  177.6280  146.1700 C   0  0  0  0  0  2  0  0  0  0  0  0
  188.6080  175.8690  142.4130 C   0  0  1  0  0  3  0  0  0  0  0  0
  191.2040  175.3900  145.0150 C   0  0  0  0  0  2  0  0  0  0  0  0
  186.9200  176.1820  141.0330 C   0  0  0  0  0  3  0  0  0  0  0  0
  190.5800  176.8110  147.0490 C   0  0  0  0  0  2  0  0  0  0  0  0
  190.2490  176.2280  144.1750 C   0  0  2  0  0  3  0  0  0  0  0  0
  189.4370  173.3810  140.8160 C   0  0  0  0  0  3  0  0  0  0  0  0
  189.6550  172.4410  138.5960 C   0  0  0  0  0  3  0  0  0  0  0  0
  188.8400  173.4550  138.0860 C   0  0  0  0  0  3  0  0  0  0  0  0
  188.3240  174.4320  138.9420 C   0  0  0  0  0  3  0  0  0  0  0  0
  188.6180  174.4030  140.3130 C   0  0  0  0  0  0  0  0  0  0  0  0
  189.9530  172.4030  139.9600 C   0  0  0  0  0  3  0  0  0  0  0  0
  184.4080  178.2390  146.3950 C   0  0  0  0  0  3  0  0  0  0  0  0
  186.7770  177.7690  144.9760 C   0  0  0  0  0  0  0  0  0  0  0  0
  186.1280  179.0040  144.8720 C   0  0  0  0  0  3  0  0  0  0  0  0
  184.9450  179.2390  145.5800 C   0  0  0  0  0  3  0  0  0  0  0  0
  185.0510  177.0020  146.5020 C   0  0  0  0  0  3  0  0  0  0  0  0
  186.2330  176.7670  145.7950 C   0  0  0  0  0  3  0  0  0  0  0  0
  193.9630  175.8420  146.5010 C   0  0  0  0  0  1  0  0  0  0  0  0
  192.6790  175.5310  146.9790 O   0  0  0  0  0  0  0  0  0  0  0  0
  1  8  1  1  0  0  0
  2  6  1  0  0  0  0
  3 13  1  0  0  0  0
  4  2  2  0  0  0  0
  5 27  1  1  0  0  0
  5 12  1  0  0  0  0
  6 21  1  1  0  0  0
  6  1  1  0  0  0  0
  8 12  1  0  0  0  0
  9  7  1  1  0  0  0
  9  2  1  0  0  0  0
  9  3  1  0  0  0  0
 10  5  1  0  0  0  0
 11  7  2  0  0  0  0
 11  4  1  0  0  0  0
 13 10  1  1  0  0  0
 13  1  1  0  0  0  0
 15 19  1  0  0  0  0
 16 15  2  0  0  0  0
 16 17  1  0  0  0  0
 17 18  2  0  0  0  0
 18 14  1  0  0  0  0
 18  7  1  0  0  0  0
 19 14  2  0  0  0  0
 20 24  1  0  0  0  0
 21 25  1  0  0  0  0
 22 21  2  0  0  0  0
 22 23  1  0  0  0  0
 23 20  2  0  0  0  0
 25 24  2  0  0  0  0
 26 27  1  0  0  0  0
M  END
>  <MODEL>
2

>  <REMARK>
 VINA RESULT:      -7.8      0.100      1.319
  Name = 
  3 active torsions:
  status: ('A' for Active; 'I' for Inactive)
    1  A    between atoms: C_9  and  C_15
    2  A    between atoms: C_13  and  O_22
    3  A    between atoms: C_14  and  C_17
                            x       y       z     vdW  Elec       q    Type
                         _______ _______ _______ _____ _____    ______ ____

>  <TORSDO>
F 3

$$$$
=
 OpenBabel11052418343D

 27 31  0  0  1  0  0  0  0  0999 V2000
  190.4370  174.6550  142.4690 C   0  0  2  0  0  3  0  0  0  0  0  0
  190.3730  176.3640  144.3010 C   0  0  0  0  0  0  0  0  0  0  0  0
  188.3460  175.7940  143.1010 O   0  0  0  0  0  0  0  0  0  0  0  0
  190.7640  177.0710  145.3790 N   0  0  0  0  0  2  0  0  0  0  0  0
  189.0800  173.7030  140.0510 C   0  0  1  0  0  3  0  0  0  0  0  0
  191.2640  175.6420  143.3260 C   0  0  1  0  0  3  0  0  0  0  0  0
  188.5180  177.1600  145.1910 C   0  0  0  0  0  0  0  0  0  0  0  0
  191.2350  174.1860  141.2540 C   0  0  0  0  0  2  0  0  0  0  0  0
  189.0200  176.4180  144.1490 C   0  0  0  0  0  0  0  0  0  0  0  0
  188.2700  174.2530  141.2350 C   0  0  0  0  0  2  0  0  0  0  0  0
  189.6250  177.5570  145.9330 C   0  0  0  0  0  3  0  0  0  0  0  0
  190.4430  173.1380  140.4770 C   0  0  0  0  0  2  0  0  0  0  0  0
  189.0980  175.2780  141.9990 C   0  0  2  0  0  3  0  0  0  0  0  0
  186.5040  178.5880  144.8280 C   0  0  0  0  0  3  0  0  0  0  0  0
  184.4260  178.1420  145.9880 C   0  0  0  0  0  3  0  0  0  0  0  0
  185.0180  177.0510  146.6290 C   0  0  0  0  0  3  0  0  0  0  0  0
  186.3540  176.7290  146.3700 C   0  0  0  0  0  3  0  0  0  0  0  0
  187.1070  177.4940  145.4680 C   0  0  0  0  0  0  0  0  0  0  0  0
  185.1690  178.9100  145.0870 C   0  0  0  0  0  3  0  0  0  0  0  0
  194.5130  173.6700  145.3410 C   0  0  0  0  0  3  0  0  0  0  0  0
  192.3880  174.9420  144.0330 C   0  0  0  0  0  0  0  0  0  0  0  0
  193.6820  175.4650  143.9450 C   0  0  0  0  0  3  0  0  0  0  0  0
  194.7430  174.8310  144.5980 C   0  0  0  0  0  3  0  0  0  0  0  0
  193.2220  173.1430  145.4340 C   0  0  0  0  0  3  0  0  0  0  0  0
  192.1610  173.7760  144.7820 C   0  0  0  0  0  3  0  0  0  0  0  0
  188.6900  173.0120  137.8970 C   0  0  0  0  0  1  0  0  0  0  0  0
  188.3400  172.8120  139.2430 O   0  0  0  0  0  0  0  0  0  0  0  0
  1  8  1  6  0  0  0
  1  6  1  0  0  0  0
  2  4  1  0  0  0  0
  3  9  1  0  0  0  0
  4 11  1  0  0  0  0
  5 27  1  1  0  0  0
  5 12  1  0  0  0  0
  5 10  1  0  0  0  0
  6 21  1  1  0  0  0
  6  2  1  0  0  0  0
  7 18  1  0  0  0  0
  7 11  2  0  0  0  0
  9  2  2  0  0  0  0
  9  7  1  0  0  0  0
 12  8  1  0  0  0  0
 13 10  1  1  0  0  0
 13  1  1  0  0  0  0
 13  3  1  0  0  0  0
 14 19  2  0  0  0  0
 14 18  1  0  0  0  0
 15 16  2  0  0  0  0
 17 16  1  0  0  0  0
 18 17  2  0  0  0  0
 19 15  1  0  0  0  0
 20 24  1  0  0  0  0
 21 25  1  0  0  0  0
 22 21  2  0  0  0  0
 22 23  1  0  0  0  0
 23 20  2  0  0  0  0
 25 24  2  0  0  0  0
 26 27  1  0  0  0  0
M  END
>  <MODEL>
3

>  <REMARK>
 VINA RESULT:      -7.8      1.954      7.272
  Name = 
  3 active torsions:
  status: ('A' for Active; 'I' for Inactive)
    1  A    between atoms: C_9  and  C_15
    2  A    between atoms: C_13  and  O_22
    3  A    between atoms: C_14  and  C_17
                            x       y       z     vdW  Elec       q    Type
                         _______ _______ _______ _____ _____    ______ ____

>  <TORSDO>
F 3

$$$$
=
 OpenBabel11052418343D

 27 31  0  0  1  0  0  0  0  0999 V2000
  187.9800  175.8680  143.3940 C   0  0  2  0  0  3  0  0  0  0  0  0
  188.9290  176.0160  145.7090 C   0  0  0  0  0  0  0  0  0  0  0  0
  190.3270  175.2920  143.8680 O   0  0  0  0  0  0  0  0  0  0  0  0
  189.0360  176.3590  147.0070 N   0  0  0  0  0  2  0  0  0  0  0  0
  188.2960  174.6070  140.7660 C   0  0  1  0  0  3  0  0  0  0  0  0
  187.6590  175.9130  144.9070 C   0  0  1  0  0  3  0  0  0  0  0  0
  191.0810  175.8880  146.1780 C   0  0  0  0  0  0  0  0  0  0  0  0
  186.7630  175.4080  142.5930 C   0  0  0  0  0  2  0  0  0  0  0  0
  190.1470  175.7050  145.1870 C   0  0  0  0  0  0  0  0  0  0  0  0
  189.5280  174.9870  141.6020 C   0  0  0  0  0  2  0  0  0  0  0  0
  190.3590  176.2880  147.2990 C   0  0  0  0  0  3  0  0  0  0  0  0
  187.0660  175.4660  141.0980 C   0  0  0  0  0  2  0  0  0  0  0  0
  189.1830  174.9410  143.0860 C   0  0  2  0  0  3  0  0  0  0  0  0
  193.0630  174.4120  145.8400 C   0  0  0  0  0  3  0  0  0  0  0  0
  195.3150  175.2950  145.9440 C   0  0  0  0  0  3  0  0  0  0  0  0
  194.8040  176.5690  146.2000 C   0  0  0  0  0  3  0  0  0  0  0  0
  193.4220  176.7650  146.2770 C   0  0  0  0  0  3  0  0  0  0  0  0
  192.5410  175.6890  146.0970 C   0  0  0  0  0  0  0  0  0  0  0  0
  194.4450  174.2160  145.7630 C   0  0  0  0  0  3  0  0  0  0  0  0
  184.9460  179.1100  145.8710 C   0  0  0  0  0  3  0  0  0  0  0  0
  186.7190  177.0370  145.2310 C   0  0  0  0  0  0  0  0  0  0  0  0
  185.7050  176.8300  146.1730 C   0  0  0  0  0  3  0  0  0  0  0  0
  184.8210  177.8650  146.4930 C   0  0  0  0  0  3  0  0  0  0  0  0
  185.9590  179.3240  144.9310 C   0  0  0  0  0  3  0  0  0  0  0  0
  186.8430  178.2900  144.6100 C   0  0  0  0  0  3  0  0  0  0  0  0
  188.3100  173.2390  138.9220 C   0  0  0  0  0  1  0  0  0  0  0  0
  188.5680  174.5420  139.3820 O   0  0  0  0  0  0  0  0  0  0  0  0
  1  8  1  6  0  0  0
  1  6  1  0  0  0  0
  2  4  1  0  0  0  0
  3  9  1  0  0  0  0
  4 11  1  0  0  0  0
  5 27  1  6  0  0  0
  5 12  1  0  0  0  0
  5 10  1  0  0  0  0
  6 21  1  6  0  0  0
  6  2  1  0  0  0  0
  7 11  2  0  0  0  0
  9  2  2  0  0  0  0
  9  7  1  0  0  0  0
 12  8  1  0  0  0  0
 13 10  1  6  0  0  0
 13  1  1  0  0  0  0
 13  3  1  0  0  0  0
 14 18  1  0  0  0  0
 15 16  2  0  0  0  0
 16 17  1  0  0  0  0
 18  7  1  0  0  0  0
 18 17  2  0  0  0  0
 19 14  2  0  0  0  0
 19 15  1  0  0  0  0
 20 23  1  0  0  0  0
 21 22  1  0  0  0  0
 22 23  2  0  0  0  0
 24 20  2  0  0  0  0
 25 24  1  0  0  0  0
 25 21  2  0  0  0  0
 26 27  1  0  0  0  0
M  END
>  <MODEL>
4

>  <REMARK>
 VINA RESULT:      -7.6      1.691      5.789
  Name = 
  3 active torsions:
  status: ('A' for Active; 'I' for Inactive)
    1  A    between atoms: C_9  and  C_15
    2  A    between atoms: C_13  and  O_22
    3  A    between atoms: C_14  and  C_17
                            x       y       z     vdW  Elec       q    Type
                         _______ _______ _______ _____ _____    ______ ____

>  <TORSDO>
F 3

$$$$
=
 OpenBabel11052418343D

 27 31  0  0  1  0  0  0  0  0999 V2000
  189.6470  175.0310  142.9280 C   0  0  2  0  0  3  0  0  0  0  0  0
  188.4710  177.0740  143.7790 C   0  0  0  0  0  0  0  0  0  0  0  0
  187.6830  175.9670  141.7730 O   0  0  0  0  0  0  0  0  0  0  0  0
  188.0960  178.0500  144.6290 N   0  0  0  0  0  2  0  0  0  0  0  0
  190.1440  173.3840  140.5540 C   0  0  1  0  0  3  0  0  0  0  0  0
  189.7560  176.2930  143.8180 C   0  0  1  0  0  3  0  0  0  0  0  0
  186.5090  177.7700  143.0500 C   0  0  0  0  0  0  0  0  0  0  0  0
  191.0250  174.4270  142.6670 C   0  0  0  0  0  2  0  0  0  0  0  0
  187.5400  176.8980  142.8010 C   0  0  0  0  0  0  0  0  0  0  0  0
  188.7790  174.0580  140.7650 C   0  0  0  0  0  2  0  0  0  0  0  0
  186.8860  178.4770  144.1880 C   0  0  0  0  0  3  0  0  0  0  0  0
  190.8890  173.1300  141.8740 C   0  0  0  0  0  2  0  0  0  0  0  0
  188.9510  175.3350  141.5770 C   0  0  2  0  0  3  0  0  0  0  0  0
  185.3040  177.9470  140.8730 C   0  0  0  0  0  3  0  0  0  0  0  0
  182.9090  178.2920  140.7900 C   0  0  0  0  0  3  0  0  0  0  0  0
  182.8610  178.2950  142.1860 C   0  0  0  0  0  3  0  0  0  0  0  0
  184.0350  178.1250  142.9260 C   0  0  0  0  0  3  0  0  0  0  0  0
  185.2650  177.9490  142.2750 C   0  0  0  0  0  0  0  0  0  0  0  0
  184.1300  178.1170  140.1330 C   0  0  0  0  0  3  0  0  0  0  0  0
  190.8730  175.2970  147.8520 C   0  0  0  0  0  3  0  0  0  0  0  0
  190.1330  175.9350  145.2260 C   0  0  0  0  0  0  0  0  0  0  0  0
  191.3530  176.3850  145.7420 C   0  0  0  0  0  3  0  0  0  0  0  0
  191.7220  176.0680  147.0530 C   0  0  0  0  0  3  0  0  0  0  0  0
  189.6520  174.8450  147.3420 C   0  0  0  0  0  3  0  0  0  0  0  0
  189.2820  175.1620  146.0320 C   0  0  0  0  0  3  0  0  0  0  0  0
  189.2540  172.5170  138.6240 C   0  0  0  0  0  1  0  0  0  0  0  0
  190.0730  172.2390  139.7310 O   0  0  0  0  0  0  0  0  0  0  0  0
  1  8  1  6  0  0  0
  1  6  1  0  0  0  0
  2  6  1  0  0  0  0
  2  4  1  0  0  0  0
  3  9  1  0  0  0  0
  5 27  1  1  0  0  0
  5 10  1  0  0  0  0
  5 12  1  0  0  0  0
  6 21  1  1  0  0  0
  7 11  2  0  0  0  0
  9  7  1  0  0  0  0
  9  2  2  0  0  0  0
 11  4  1  0  0  0  0
 12  8  1  0  0  0  0
 13 10  1  1  0  0  0
 13  3  1  0  0  0  0
 13  1  1  0  0  0  0
 14 18  1  0  0  0  0
 15 16  2  0  0  0  0
 16 17  1  0  0  0  0
 18 17  2  0  0  0  0
 18  7  1  0  0  0  0
 19 15  1  0  0  0  0
 19 14  2  0  0  0  0
 21 22  2  0  0  0  0
 21 25  1  0  0  0  0
 22 23  1  0  0  0  0
 23 20  2  0  0  0  0
 24 20  1  0  0  0  0
 25 24  2  0  0  0  0
 26 27  1  0  0  0  0
M  END
>  <MODEL>
5

>  <REMARK>
 VINA RESULT:      -7.5      2.287      5.774
  Name = 
  3 active torsions:
  status: ('A' for Active; 'I' for Inactive)
    1  A    between atoms: C_9  and  C_15
    2  A    between atoms: C_13  and  O_22
    3  A    between atoms: C_14  and  C_17
                            x       y       z     vdW  Elec       q    Type
                         _______ _______ _______ _____ _____    ______ ____

>  <TORSDO>
F 3

$$$$
=
 OpenBabel11052418343D

 27 31  0  0  1  0  0  0  0  0999 V2000
  187.5400  176.3850  144.0870 C   0  0  2  0  0  3  0  0  0  0  0  0
  188.7030  175.6710  146.1890 C   0  0  0  0  0  0  0  0  0  0  0  0
  189.8440  175.5130  144.0570 O   0  0  0  0  0  0  0  0  0  0  0  0
  188.9630  175.5460  147.5050 N   0  0  0  0  0  2  0  0  0  0  0  0
  187.4800  176.0680  141.1730 C   0  0  1  0  0  3  0  0  0  0  0  0
  187.3640  175.9390  145.5580 C   0  0  1  0  0  3  0  0  0  0  0  0
  190.8620  175.2350  146.3260 C   0  0  0  0  0  0  0  0  0  0  0  0
  186.2140  176.3140  143.3330 C   0  0  0  0  0  2  0  0  0  0  0  0
  189.8290  175.4670  145.4500 C   0  0  0  0  0  0  0  0  0  0  0  0
  188.8160  176.0520  141.9320 C   0  0  0  0  0  2  0  0  0  0  0  0
  190.2920  175.2840  147.5950 C   0  0  0  0  0  3  0  0  0  0  0  0
  186.3860  176.8520  141.9150 C   0  0  0  0  0  2  0  0  0  0  0  0
  188.6020  175.5310  143.3480 C   0  0  2  0  0  3  0  0  0  0  0  0
  192.6300  173.8310  145.2660 C   0  0  0  0  0  3  0  0  0  0  0  0
  194.9680  174.4480  145.3980 C   0  0  0  0  0  3  0  0  0  0  0  0
  194.6260  175.5830  146.1370 C   0  0  0  0  0  3  0  0  0  0  0  0
  193.2870  175.8420  146.4410 C   0  0  0  0  0  3  0  0  0  0  0  0
  192.2780  174.9690  146.0080 C   0  0  0  0  0  0  0  0  0  0  0  0
  193.9700  173.5730  144.9610 C   0  0  0  0  0  3  0  0  0  0  0  0
  185.1710  178.8680  147.8210 C   0  0  0  0  0  3  0  0  0  0  0  0
  186.5850  176.9530  146.3450 C   0  0  0  0  0  0  0  0  0  0  0  0
  187.2740  177.9230  147.0800 C   0  0  0  0  0  3  0  0  0  0  0  0
  186.5690  178.8800  147.8160 C   0  0  0  0  0  3  0  0  0  0  0  0
  184.4770  177.9020  147.0870 C   0  0  0  0  0  3  0  0  0  0  0  0
  185.1810  176.9450  146.3510 C   0  0  0  0  0  3  0  0  0  0  0  0
  186.5780  177.3400  139.4880 C   0  0  0  0  0  1  0  0  0  0  0  0
  187.6180  176.4550  139.8220 O   0  0  0  0  0  0  0  0  0  0  0  0
  1  8  1  6  0  0  0
  1  6  1  0  0  0  0
  2  4  1  0  0  0  0
  3  9  1  0  0  0  0
  4 11  1  0  0  0  0
  5 27  1  6  0  0  0
  5 12  1  0  0  0  0
  5 10  1  0  0  0  0
  6  2  1  0  0  0  0
  6 21  1  1  0  0  0
  7 11  2  0  0  0  0
  9  2  2  0  0  0  0
  9  7  1  0  0  0  0
 12  8  1  0  0  0  0
 13 10  1  6  0  0  0
 13  3  1  0  0  0  0
 13  1  1  0  0  0  0
 14 18  1  0  0  0  0
 15 16  2  0  0  0  0
 16 17  1  0  0  0  0
 18  7  1  0  0  0  0
 18 17  2  0  0  0  0
 19 14  2  0  0  0  0
 19 15  1  0  0  0  0
 21 25  2  0  0  0  0
 21 22  1  0  0  0  0
 22 23  2  0  0  0  0
 23 20  1  0  0  0  0
 24 20  2  0  0  0  0
 25 24  1  0  0  0  0
 26 27  1  0  0  0  0
M  END
>  <MODEL>
6

>  <REMARK>
 VINA RESULT:      -7.4      2.517      5.721
  Name = 
  3 active torsions:
  status: ('A' for Active; 'I' for Inactive)
    1  A    between atoms: C_9  and  C_15
    2  A    between atoms: C_13  and  O_22
    3  A    between atoms: C_14  and  C_17
                            x       y       z     vdW  Elec       q    Type
                         _______ _______ _______ _____ _____    ______ ____

>  <TORSDO>
F 3

$$$$
=
 OpenBabel11052418343D

 27 31  0  0  1  0  0  0  0  0999 V2000
  188.6570  177.1640  144.0480 C   0  0  2  0  0  3  0  0  0  0  0  0
  186.9310  177.7660  142.3330 C   0  0  0  0  0  0  0  0  0  0  0  0
  188.8900  176.4930  141.6900 O   0  0  0  0  0  0  0  0  0  0  0  0
  185.7530  178.1690  141.8190 N   0  0  0  0  0  2  0  0  0  0  0  0
  191.4650  176.4190  144.4420 C   0  0  1  0  0  3  0  0  0  0  0  0
  187.4850  178.1090  143.6900 C   0  0  1  0  0  3  0  0  0  0  0  0
  186.8500  176.9100  140.3010 C   0  0  0  0  0  0  0  0  0  0  0  0
  189.4550  177.7090  145.2310 C   0  0  0  0  0  2  0  0  0  0  0  0
  187.6260  177.0200  141.4300 C   0  0  0  0  0  0  0  0  0  0  0  0
  190.6960  175.9360  143.2030 C   0  0  0  0  0  2  0  0  0  0  0  0
  185.6960  177.6400  140.5710 C   0  0  0  0  0  3  0  0  0  0  0  0
  190.5420  176.7160  145.6340 C   0  0  0  0  0  2  0  0  0  0  0  0
  189.6070  176.9380  142.8440 C   0  0  2  0  0  3  0  0  0  0  0  0
  186.7430  176.7090  137.8170 C   0  0  0  0  0  3  0  0  0  0  0  0
  187.7540  174.8350  136.6660 C   0  0  0  0  0  3  0  0  0  0  0  0
  188.1790  174.3130  137.8900 C   0  0  0  0  0  3  0  0  0  0  0  0
  187.8850  174.9880  139.0780 C   0  0  0  0  0  3  0  0  0  0  0  0
  187.1650  176.1920  139.0510 C   0  0  0  0  0  0  0  0  0  0  0  0
  187.0370  176.0330  136.6290 C   0  0  0  0  0  3  0  0  0  0  0  0
  184.4030  178.0430  146.6900 C   0  0  0  0  0  3  0  0  0  0  0  0
  186.4140  178.0700  144.7400 C   0  0  0  0  0  0  0  0  0  0  0  0
  185.7520  179.2540  145.0850 C   0  0  0  0  0  3  0  0  0  0  0  0
  184.7480  179.2410  146.0580 C   0  0  0  0  0  3  0  0  0  0  0  0
  185.0590  176.8570  146.3490 C   0  0  0  0  0  3  0  0  0  0  0  0
  186.0630  176.8690  145.3770 C   0  0  0  0  0  3  0  0  0  0  0  0
  193.7460  176.1740  144.3350 C   0  0  0  0  0  1  0  0  0  0  0  0
  192.5510  175.5820  144.7790 O   0  0  0  0  0  0  0  0  0  0  0  0
  1  8  1  1  0  0  0
  2  6  1  0  0  0  0
  3 13  1  0  0  0  0
  4  2  1  0  0  0  0
  5 27  1  1  0  0  0
  5 12  1  0  0  0  0
  6  1  1  0  0  0  0
  6 21  1  1  0  0  0
  7 11  2  0  0  0  0
  7  9  1  0  0  0  0
  8 12  1  0  0  0  0
  9  3  1  0  0  0  0
  9  2  2  0  0  0  0
 10  5  1  0  0  0  0
 11  4  1  0  0  0  0
 13 10  1  1  0  0  0
 13  1  1  0  0  0  0
 14 18  1  0  0  0  0
 15 16  2  0  0  0  0
 16 17  1  0  0  0  0
 18 17  2  0  0  0  0
 18  7  1  0  0  0  0
 19 15  1  0  0  0  0
 19 14  2  0  0  0  0
 21 22  2  0  0  0  0
 21 25  1  0  0  0  0
 22 23  1  0  0  0  0
 23 20  2  0  0  0  0
 24 20  1  0  0  0  0
 25 24  2  0  0  0  0
 26 27  1  0  0  0  0
M  END
>  <MODEL>
7

>  <REMARK>
 VINA RESULT:      -7.4      1.518      2.161
  Name = 
  3 active torsions:
  status: ('A' for Active; 'I' for Inactive)
    1  A    between atoms: C_9  and  C_15
    2  A    between atoms: C_13  and  O_22
    3  A    between atoms: C_14  and  C_17
                            x       y       z     vdW  Elec       q    Type
                         _______ _______ _______ _____ _____    ______ ____

>  <TORSDO>
F 3

$$$$
=
 OpenBabel11052418343D

 27 31  0  0  1  0  0  0  0  0999 V2000
  191.4630  174.6370  143.9980 C   0  0  2  0  0  3  0  0  0  0  0  0
  189.1190  174.5520  143.1140 C   0  0  0  0  0  0  0  0  0  0  0  0
  189.7470  176.2460  144.7290 O   0  0  0  0  0  0  0  0  0  0  0  0
  188.0860  174.2300  142.3120 N   0  0  0  0  0  0  0  0  0  0  0  0
  193.1380  175.5510  146.2240 C   0  0  1  0  0  3  0  0  0  0  0  0
  190.3870  173.7650  143.3080 C   0  0  1  0  0  3  0  0  0  0  0  0
  187.6230  176.1470  143.4090 C   0  0  0  0  0  0  0  0  0  0  0  0
  192.6100  173.7750  144.5220 C   0  0  0  0  0  2  0  0  0  0  0  0
  188.8590  175.6950  143.8070 C   0  0  1  0  0  3  0  0  0  0  0  0
  191.9340  176.3850  145.7600 C   0  0  0  0  0  2  0  0  0  0  0  0
  187.1660  175.2120  142.4850 C   0  0  0  0  0  3  0  0  0  0  0  0
  193.7060  174.6600  145.1090 C   0  0  0  0  0  2  0  0  0  0  0  0
  190.8700  175.4730  145.1610 C   0  0  2  0  0  3  0  0  0  0  0  0
  186.5030  178.3260  142.9420 C   0  0  0  0  0  3  0  0  0  0  0  0
  185.5500  179.6540  144.7280 C   0  0  0  0  0  3  0  0  0  0  0  0
  185.9490  178.6900  145.6580 C   0  0  0  0  0  3  0  0  0  0  0  0
  186.6270  177.5450  145.2290 C   0  0  0  0  0  3  0  0  0  0  0  0
  186.9080  177.3530  143.8680 C   0  0  0  0  0  0  0  0  0  0  0  0
  185.8260  179.4710  143.3700 C   0  0  0  0  0  3  0  0  0  0  0  0
  191.8440  172.2210  139.5660 C   0  0  0  0  0  3  0  0  0  0  0  0
  190.8880  173.2120  142.0050 C   0  0  0  0  0  0  0  0  0  0  0  0
  191.5120  174.0700  141.0930 C   0  0  0  0  0  3  0  0  0  0  0  0
  191.9900  173.5760  139.8760 C   0  0  0  0  0  3  0  0  0  0  0  0
  191.2230  171.3580  140.4730 C   0  0  0  0  0  3  0  0  0  0  0  0
  190.7450  171.8510  141.6900 C   0  0  0  0  0  3  0  0  0  0  0  0
  194.5880  177.3160  145.9920 C   0  0  0  0  0  1  0  0  0  0  0  0
  194.1260  176.3230  146.8730 O   0  0  0  0  0  0  0  0  0  0  0  0
  1  8  1  1  0  0  0
  1 13  1  0  0  0  0
  2  6  1  0  0  0  0
  3 13  1  0  0  0  0
  4 11  1  0  0  0  0
  4  2  2  0  0  0  0
  5 27  1  6  0  0  0
  6 21  1  6  0  0  0
  6  1  1  0  0  0  0
  7  9  1  0  0  0  0
  7 18  1  0  0  0  0
  8 12  1  0  0  0  0
  9  2  1  6  0  0  0
  9  3  1  0  0  0  0
 10  5  1  0  0  0  0
 11  7  2  0  0  0  0
 12  5  1  0  0  0  0
 13 10  1  6  0  0  0
 14 19  2  0  0  0  0
 14 18  1  0  0  0  0
 15 16  2  0  0  0  0
 17 16  1  0  0  0  0
 18 17  2  0  0  0  0
 19 15  1  0  0  0  0
 20 23  2  0  0  0  0
 20 24  1  0  0  0  0
 22 21  2  0  0  0  0
 23 22  1  0  0  0  0
 24 25  2  0  0  0  0
 25 21  1  0  0  0  0
 26 27  1  0  0  0  0
M  END
>  <MODEL>
8

>  <REMARK>
 VINA RESULT:      -7.2      1.933      6.207
  Name = 
  3 active torsions:
  status: ('A' for Active; 'I' for Inactive)
    1  A    between atoms: C_9  and  C_15
    2  A    between atoms: C_13  and  O_22
    3  A    between atoms: C_14  and  C_17
                            x       y       z     vdW  Elec       q    Type
                         _______ _______ _______ _____ _____    ______ ____

>  <TORSDO>
F 3

$$$$
=
 OpenBabel11052418343D

 27 31  0  0  1  0  0  0  0  0999 V2000
  188.2160  176.4140  144.2210 C   0  0  2  0  0  3  0  0  0  0  0  0
  189.5390  174.4120  143.4960 C   0  0  0  0  0  0  0  0  0  0  0  0
  188.1380  175.5850  141.9040 O   0  0  0  0  0  0  0  0  0  0  0  0
  190.4720  173.4410  143.5230 N   0  0  0  0  0  2  0  0  0  0  0  0
  185.8780  178.0740  143.6100 C   0  0  1  0  0  3  0  0  0  0  0  0
  188.9580  175.1350  144.6800 C   0  0  1  0  0  3  0  0  0  0  0  0
  189.8330  173.8160  141.3920 C   0  0  0  0  0  0  0  0  0  0  0  0
  187.3290  176.9600  145.3380 C   0  0  0  0  0  2  0  0  0  0  0  0
  189.1170  174.6460  142.2220 C   0  0  0  0  0  0  0  0  0  0  0  0
  186.7150  177.4580  142.4780 C   0  0  0  0  0  2  0  0  0  0  0  0
  190.6610  173.0750  142.2300 C   0  0  0  0  0  3  0  0  0  0  0  0
  186.6850  178.2740  144.9030 C   0  0  0  0  0  2  0  0  0  0  0  0
  187.3590  176.1620  142.9550 C   0  0  2  0  0  3  0  0  0  0  0  0
  188.5080  173.8860  139.2790 C   0  0  0  0  0  3  0  0  0  0  0  0
  189.5520  173.4930  137.1310 C   0  0  0  0  0  3  0  0  0  0  0  0
  190.7840  173.3110  137.7630 C   0  0  0  0  0  3  0  0  0  0  0  0
  190.8780  173.4160  139.1540 C   0  0  0  0  0  3  0  0  0  0  0  0
  189.7410  173.7050  139.9230 C   0  0  0  0  0  0  0  0  0  0  0  0
  188.4140  173.7810  137.8880 C   0  0  0  0  0  3  0  0  0  0  0  0
  192.0110  176.0800  147.5600 C   0  0  0  0  0  3  0  0  0  0  0  0
  190.0160  175.4540  145.6960 C   0  0  0  0  0  0  0  0  0  0  0  0
  191.1070  176.2450  145.3200 C   0  0  0  0  0  3  0  0  0  0  0  0
  192.1030  176.5580  146.2500 C   0  0  0  0  0  3  0  0  0  0  0  0
  190.9220  175.2910  147.9430 C   0  0  0  0  0  3  0  0  0  0  0  0
  189.9270  174.9770  147.0130 C   0  0  0  0  0  3  0  0  0  0  0  0
  185.1910  180.1650  144.2630 C   0  0  0  0  0  1  0  0  0  0  0  0
  185.1780  179.2330  143.2110 O   0  0  0  0  0  0  0  0  0  0  0  0
  1  6  1  0  0  0  0
  1  8  1  1  0  0  0
  2  4  1  0  0  0  0
  2  6  1  0  0  0  0
  3  9  1  0  0  0  0
  3 13  1  0  0  0  0
  5 27  1  6  0  0  0
  5 12  1  0  0  0  0
  6 21  1  1  0  0  0
  7  9  1  0  0  0  0
  7 11  2  0  0  0  0
  9  2  2  0  0  0  0
 10  5  1  0  0  0  0
 11  4  1  0  0  0  0
 12  8  1  0  0  0  0
 13 10  1  6  0  0  0
 13  1  1  0  0  0  0
 14 18  1  0  0  0  0
 15 16  2  0  0  0  0
 15 19  1  0  0  0  0
 16 17  1  0  0  0  0
 17 18  2  0  0  0  0
 18  7  1  0  0  0  0
 19 14  2  0  0  0  0
 20 24  1  0  0  0  0
 21 25  1  0  0  0  0
 22 21  2  0  0  0  0
 22 23  1  0  0  0  0
 23 20  2  0  0  0  0
 25 24  2  0  0  0  0
 27 26  1  0  0  0  0
M  END
>  <MODEL>
9

>  <REMARK>
 VINA RESULT:      -7.2      2.206      4.869
  Name = 
  3 active torsions:
  status: ('A' for Active; 'I' for Inactive)
    1  A    between atoms: C_9  and  C_15
    2  A    between atoms: C_13  and  O_22
    3  A    between atoms: C_14  and  C_17
                            x       y       z     vdW  Elec       q    Type
                         _______ _______ _______ _____ _____    ______ ____

>  <TORSDO>
F 3

$$$$
