=
 OpenBabel11052420373D

 34 39  0  0  1  0  0  0  0  0999 V2000
  188.2290  177.3610  144.1030 C   0  0  0  0  0  0  0  0  0  0  0  0
  185.8010  178.0590  144.3200 C   0  0  0  0  0  0  0  0  0  0  0  0
  186.3770  177.2250  146.5440 N   0  0  0  0  0  0  0  0  0  0  0  0
  190.4580  176.7690  144.0900 C   0  0  2  0  0  3  0  0  0  0  0  0
  189.3800  177.3080  143.3350 O   0  0  0  0  0  0  0  0  0  0  0  0
  189.9170  176.6230  145.5160 C   0  0  2  0  0  3  0  0  0  0  0  0
  189.0340  174.9340  147.1570 C   0  0  0  0  0  3  0  0  0  0  0  0
  189.9590  175.1650  145.9810 C   0  0  0  0  0  2  0  0  0  0  0  0
  187.5230  176.6310  146.3910 C   0  0  0  0  0  0  0  0  0  0  0  0
  188.4930  177.0220  145.3550 C   0  0  0  0  0  0  0  0  0  0  0  0
  187.9150  175.5910  147.2990 N   0  0  0  0  0  0  0  0  0  0  0  0
  184.5580  178.2810  143.7220 C   0  0  0  0  0  3  0  0  0  0  0  0
  184.3740  178.0730  142.3490 C   0  0  0  0  0  0  0  0  0  0  0  0
  185.4580  177.6530  141.5710 C   0  0  0  0  0  3  0  0  0  0  0  0
  185.9510  178.3860  145.7710 C   0  0  0  0  0  2  0  0  0  0  0  0
  186.7060  177.4350  142.1580 C   0  0  0  0  0  3  0  0  0  0  0  0
  186.8930  177.6340  143.5320 C   0  0  0  0  0  0  0  0  0  0  0  0
  183.0580  178.3060  141.7290 C   0  0  0  0  0  0  0  0  0  0  0  0
  182.1020  178.7570  142.4150 O   0  0  0  0  0  0  0  0  0  0  0  0
  182.8510  178.0230  140.3480 N   0  0  0  0  0  1  0  0  0  0  0  0
  191.7480  177.6120  144.0140 C   0  0  0  0  0  2  0  0  0  0  0  0
  193.5800  176.2970  144.8820 C   0  0  2  0  0  3  0  0  0  0  0  0
  192.8160  175.8490  142.7020 C   0  0  0  0  0  2  0  0  0  0  0  0
  194.6170  172.6460  144.7970 N   0  0  0  0  0  0  0  0  0  0  0  0
  193.9000  172.3270  143.6000 C   0  0  0  0  0  0  0  0  0  0  0  0
  194.3730  173.9260  145.4530 C   0  0  1  0  0  3  0  0  0  0  0  0
  193.9680  171.1780  143.0880 O   0  0  0  0  0  0  0  0  0  0  0  0
  194.3470  175.0730  144.4170 C   0  0  1  0  0  3  0  0  0  0  0  0
  195.6180  171.7430  145.3400 C   0  0  0  0  0  1  0  0  0  0  0  0
  193.0520  173.3790  142.9700 C   0  0  0  0  0  2  0  0  0  0  0  0
  193.7740  174.7240  143.0390 C   0  0  1  0  0  3  0  0  0  0  0  0
  193.1730  173.8580  146.1650 O   0  0  0  0  0  1  0  0  0  0  0  0
  193.0020  176.9080  143.6900 N   0  0  0  0  0  0  0  0  0  0  0  0
  194.5300  177.2700  145.5570 C   0  0  0  0  0  1  0  0  0  0  0  0
  1 10  2  0  0  0  0
  2 15  1  0  0  0  0
  4 21  1  1  0  0  0
  4  6  1  0  0  0  0
  5  4  1  0  0  0  0
  5  1  1  0  0  0  0
  6  8  1  6  0  0  0
  7 11  2  0  0  0  0
  8  7  1  0  0  0  0
  9  3  2  0  0  0  0
  9 11  1  0  0  0  0
 10  6  1  0  0  0  0
 10  9  1  0  0  0  0
 12  2  1  0  0  0  0
 13 12  2  0  0  0  0
 14 16  2  0  0  0  0
 14 13  1  0  0  0  0
 15  3  1  0  0  0  0
 16 17  1  0  0  0  0
 17  1  1  0  0  0  0
 17  2  2  0  0  0  0
 18 13  1  0  0  0  0
 18 19  2  0  0  0  0
 20 18  1  0  0  0  0
 22 34  1  6  0  0  0
 23 31  1  0  0  0  0
 23 33  1  0  0  0  0
 24 29  1  0  0  0  0
 24 26  1  0  0  0  0
 25 24  1  0  0  0  0
 26 32  1  6  0  0  0
 27 25  2  0  0  0  0
 28 22  1  0  0  0  0
 28 26  1  0  0  0  0
 30 31  1  0  0  0  0
 30 25  1  0  0  0  0
 31 28  1  0  0  0  0
 33 21  1  0  0  0  0
 33 22  1  0  0  0  0
M  END
>  <MODEL>
1

>  <REMARK>
 VINA RESULT:      -9.0      0.000      0.000
  Name = 
  3 active torsions:
  status: ('A' for Active; 'I' for Inactive)
    1  A    between atoms: C_3  and  C_25
    2  A    between atoms: C_8  and  C_18
    3  A    between atoms: C_18  and  N_30
                            x       y       z     vdW  Elec       q    Type
                         _______ _______ _______ _____ _____    ______ ____

>  <TORSDO>
F 3

$$$$
=
 OpenBabel11052420373D

 34 39  0  0  1  0  0  0  0  0999 V2000
  187.7440  176.4790  143.6840 C   0  0  0  0  0  0  0  0  0  0  0  0
  187.5910  176.3590  141.1560 C   0  0  0  0  0  0  0  0  0  0  0  0
  185.9610  178.0770  141.7670 N   0  0  0  0  0  0  0  0  0  0  0  0
  187.8340  176.7720  145.9700 C   0  0  2  0  0  3  0  0  0  0  0  0
  188.3720  176.0770  144.8510 O   0  0  0  0  0  0  0  0  0  0  0  0
  186.8790  177.8110  145.3780 C   0  0  2  0  0  3  0  0  0  0  0  0
  184.4410  178.2910  144.9810 C   0  0  0  0  0  3  0  0  0  0  0  0
  185.4470  177.6000  145.8780 C   0  0  0  0  0  2  0  0  0  0  0  0
  185.8370  177.9750  143.0570 C   0  0  0  0  0  0  0  0  0  0  0  0
  186.9200  177.4870  143.9260 C   0  0  0  0  0  0  0  0  0  0  0  0
  184.6300  178.4160  143.6950 N   0  0  0  0  0  0  0  0  0  0  0  0
  187.7440  175.6250  139.9780 C   0  0  0  0  0  3  0  0  0  0  0  0
  188.1910  174.2980  140.0120 C   0  0  0  0  0  0  0  0  0  0  0  0
  188.5010  173.7130  141.2450 C   0  0  0  0  0  3  0  0  0  0  0  0
  187.1950  177.7970  141.0420 C   0  0  0  0  0  2  0  0  0  0  0  0
  188.3570  174.4420  142.4270 C   0  0  0  0  0  3  0  0  0  0  0  0
  187.9020  175.7670  142.3990 C   0  0  0  0  0  0  0  0  0  0  0  0
  188.3450  173.5310  138.7630 C   0  0  0  0  0  0  0  0  0  0  0  0
  188.5640  172.2910  138.8010 O   0  0  0  0  0  0  0  0  0  0  0  0
  188.2490  174.1820  137.4990 N   0  0  0  0  0  1  0  0  0  0  0  0
  188.9100  177.3890  146.8880 C   0  0  0  0  0  2  0  0  0  0  0  0
  190.6680  175.7510  146.6260 C   0  0  2  0  0  3  0  0  0  0  0  0
  190.6330  177.5990  145.1690 C   0  0  0  0  0  2  0  0  0  0  0  0
  192.4160  174.0480  143.7190 N   0  0  0  0  0  0  0  0  0  0  0  0
  192.1330  175.0780  142.7640 C   0  0  0  0  0  0  0  0  0  0  0  0
  191.7450  174.0730  145.0130 C   0  0  1  0  0  3  0  0  0  0  0  0
  192.5720  175.0110  141.5860 O   0  0  0  0  0  0  0  0  0  0  0  0
  191.7660  175.4990  145.6100 C   0  0  1  0  0  3  0  0  0  0  0  0
  193.3960  173.0110  143.4400 C   0  0  0  0  0  1  0  0  0  0  0  0
  191.2900  176.2330  143.1860 C   0  0  0  0  0  2  0  0  0  0  0  0
  191.6730  176.6530  144.6050 C   0  0  1  0  0  3  0  0  0  0  0  0
  190.4380  173.6050  144.8640 O   0  0  0  0  0  1  0  0  0  0  0  0
  190.3220  177.1650  146.5280 N   0  0  0  0  0  0  0  0  0  0  0  0
  191.1770  175.4350  148.0200 C   0  0  0  0  0  1  0  0  0  0  0  0
  1 10  2  0  0  0  0
  1  5  1  0  0  0  0
  2 17  1  0  0  0  0
  3  9  2  0  0  0  0
  4 21  1  6  0  0  0
  5  4  1  0  0  0  0
  6  8  1  1  0  0  0
  6  4  1  0  0  0  0
  7  8  1  0  0  0  0
  9 11  1  0  0  0  0
  9 10  1  0  0  0  0
 10  6  1  0  0  0  0
 11  7  2  0  0  0  0
 12 13  1  0  0  0  0
 12  2  2  0  0  0  0
 13 14  2  0  0  0  0
 14 16  1  0  0  0  0
 15  2  1  0  0  0  0
 15  3  1  0  0  0  0
 17 16  2  0  0  0  0
 17  1  1  0  0  0  0
 18 19  2  0  0  0  0
 18 13  1  0  0  0  0
 20 18  1  0  0  0  0
 22 34  1  1  0  0  0
 23 33  1  0  0  0  0
 24 26  1  0  0  0  0
 25 30  1  0  0  0  0
 25 24  1  0  0  0  0
 26 32  1  6  0  0  0
 26 28  1  0  0  0  0
 27 25  2  0  0  0  0
 28 22  1  0  0  0  0
 29 24  1  0  0  0  0
 30 31  1  0  0  0  0
 31 23  1  0  0  0  0
 31 28  1  0  0  0  0
 33 22  1  0  0  0  0
 33 21  1  0  0  0  0
M  END
>  <MODEL>
2

>  <REMARK>
 VINA RESULT:      -8.4      2.955      4.524
  Name = 
  3 active torsions:
  status: ('A' for Active; 'I' for Inactive)
    1  A    between atoms: C_3  and  C_25
    2  A    between atoms: C_8  and  C_18
    3  A    between atoms: C_18  and  N_30
                            x       y       z     vdW  Elec       q    Type
                         _______ _______ _______ _____ _____    ______ ____

>  <TORSDO>
F 3

$$$$
=
 OpenBabel11052420373D

 34 39  0  0  1  0  0  0  0  0999 V2000
  189.3950  175.4800  144.6310 C   0  0  0  0  0  0  0  0  0  0  0  0
  187.5480  177.1750  144.2490 C   0  0  0  0  0  0  0  0  0  0  0  0
  189.2820  177.8180  142.6490 N   0  0  0  0  0  0  0  0  0  0  0  0
  191.1200  173.9580  144.7960 C   0  0  2  0  0  3  0  0  0  0  0  0
  189.8310  174.3300  145.2680 O   0  0  0  0  0  0  0  0  0  0  0  0
  191.4170  174.9170  143.6390 C   0  0  2  0  0  3  0  0  0  0  0  0
  192.7220  176.9820  143.0380 C   0  0  0  0  0  3  0  0  0  0  0  0
  192.6750  175.7470  143.9130 C   0  0  0  0  0  2  0  0  0  0  0  0
  190.3290  177.1320  142.9990 C   0  0  0  0  0  0  0  0  0  0  0  0
  190.2400  175.8270  143.6730 C   0  0  0  0  0  0  0  0  0  0  0  0
  191.6400  177.6110  142.6660 N   0  0  0  0  0  0  0  0  0  0  0  0
  186.4510  177.8870  144.7410 C   0  0  0  0  0  3  0  0  0  0  0  0
  186.0100  177.7060  146.0580 C   0  0  0  0  0  0  0  0  0  0  0  0
  186.6740  176.7880  146.8800 C   0  0  0  0  0  3  0  0  0  0  0  0
  187.9100  177.3490  142.8080 C   0  0  0  0  0  2  0  0  0  0  0  0
  187.7670  176.0680  146.3950 C   0  0  0  0  0  3  0  0  0  0  0  0
  188.2160  176.2500  145.0810 C   0  0  0  0  0  0  0  0  0  0  0  0
  184.8550  178.4650  146.5680 C   0  0  0  0  0  0  0  0  0  0  0  0
  184.7220  178.6660  147.8050 O   0  0  0  0  0  0  0  0  0  0  0  0
  183.8770  178.9810  145.6700 N   0  0  0  0  0  1  0  0  0  0  0  0
  191.2250  172.4720  144.3940 C   0  0  0  0  0  2  0  0  0  0  0  0
  193.1940  171.9380  143.0970 C   0  0  2  0  0  3  0  0  0  0  0  0
  193.4660  172.4920  145.3680 C   0  0  0  0  0  2  0  0  0  0  0  0
  196.7290  173.2890  142.7970 N   0  0  0  0  0  0  0  0  0  0  0  0
  196.7660  173.8720  144.1050 C   0  0  0  0  0  0  0  0  0  0  0  0
  195.4570  172.8130  142.2660 C   0  0  1  0  0  3  0  0  0  0  0  0
  197.8080  174.4300  144.5380 O   0  0  0  0  0  0  0  0  0  0  0  0
  194.6920  171.9970  143.3330 C   0  0  1  0  0  3  0  0  0  0  0  0
  197.9410  173.1180  142.0130 C   0  0  0  0  0  1  0  0  0  0  0  0
  195.5360  173.8210  144.9470 C   0  0  0  0  0  2  0  0  0  0  0  0
  194.8640  172.4580  144.7850 C   0  0  1  0  0  3  0  0  0  0  0  0
  194.7040  173.9030  141.8240 O   0  0  0  0  0  1  0  0  0  0  0  0
  192.5650  171.8560  144.4110 N   0  0  0  0  0  0  0  0  0  0  0  0
  192.8530  170.7070  142.2790 C   0  0  0  0  0  1  0  0  0  0  0  0
  1 17  1  0  0  0  0
  1  5  1  0  0  0  0
  2 12  2  0  0  0  0
  2 17  1  0  0  0  0
  3 15  1  0  0  0  0
  3  9  2  0  0  0  0
  4 21  1  6  0  0  0
  4  5  1  0  0  0  0
  6 10  1  0  0  0  0
  6  8  1  1  0  0  0
  6  4  1  0  0  0  0
  7  8  1  0  0  0  0
  9 10  1  0  0  0  0
 10  1  2  0  0  0  0
 11  9  1  0  0  0  0
 11  7  2  0  0  0  0
 12 13  1  0  0  0  0
 13 18  1  0  0  0  0
 13 14  2  0  0  0  0
 15  2  1  0  0  0  0
 16 14  1  0  0  0  0
 17 16  2  0  0  0  0
 18 19  2  0  0  0  0
 20 18  1  0  0  0  0
 21 33  1  0  0  0  0
 22 34  1  6  0  0  0
 22 28  1  0  0  0  0
 22 33  1  0  0  0  0
 24 25  1  0  0  0  0
 25 27  2  0  0  0  0
 25 30  1  0  0  0  0
 26 32  1  1  0  0  0
 26 24  1  0  0  0  0
 26 28  1  0  0  0  0
 28 31  1  0  0  0  0
 29 24  1  0  0  0  0
 31 30  1  0  0  0  0
 31 23  1  0  0  0  0
 33 23  1  0  0  0  0
M  END
>  <MODEL>
3

>  <REMARK>
 VINA RESULT:      -8.2      2.615      4.346
  Name = 
  3 active torsions:
  status: ('A' for Active; 'I' for Inactive)
    1  A    between atoms: C_3  and  C_25
    2  A    between atoms: C_8  and  C_18
    3  A    between atoms: C_18  and  N_30
                            x       y       z     vdW  Elec       q    Type
                         _______ _______ _______ _____ _____    ______ ____

>  <TORSDO>
F 3

$$$$
=
 OpenBabel11052420373D

 34 39  0  0  1  0  0  0  0  0999 V2000
  187.4660  177.2550  143.9650 C   0  0  0  0  0  0  0  0  0  0  0  0
  186.6290  177.7320  141.6200 C   0  0  0  0  0  0  0  0  0  0  0  0
  185.0150  178.8650  143.0650 N   0  0  0  0  0  0  0  0  0  0  0  0
  188.1510  176.9880  146.1510 C   0  0  2  0  0  3  0  0  0  0  0  0
  188.4440  176.7190  144.7860 O   0  0  0  0  0  0  0  0  0  0  0  0
  186.9340  177.9170  146.1260 C   0  0  2  0  0  3  0  0  0  0  0  0
  184.4410  177.9570  146.4610 C   0  0  0  0  0  3  0  0  0  0  0  0
  185.7420  177.2940  146.8600 C   0  0  0  0  0  2  0  0  0  0  0  0
  185.2720  178.4250  144.2610 C   0  0  0  0  0  0  0  0  0  0  0  0
  186.6110  177.9760  144.6750 C   0  0  0  0  0  0  0  0  0  0  0  0
  184.2430  178.4320  145.2610 N   0  0  0  0  0  0  0  0  0  0  0  0
  186.5460  177.3580  140.2760 C   0  0  0  0  0  3  0  0  0  0  0  0
  187.1640  176.1890  139.8160 C   0  0  0  0  0  0  0  0  0  0  0  0
  187.8830  175.3960  140.7180 C   0  0  0  0  0  3  0  0  0  0  0  0
  186.0220  179.0370  142.0250 C   0  0  0  0  0  2  0  0  0  0  0  0
  187.9770  175.7650  142.0610 C   0  0  0  0  0  3  0  0  0  0  0  0
  187.3540  176.9300  142.5280 C   0  0  0  0  0  0  0  0  0  0  0  0
  187.0660  175.8020  138.3980 C   0  0  0  0  0  0  0  0  0  0  0  0
  186.3170  176.4420  137.6130 O   0  0  0  0  0  0  0  0  0  0  0  0
  187.8180  174.6990  137.8970 N   0  0  0  0  0  1  0  0  0  0  0  0
  189.3440  177.5720  146.9360 C   0  0  0  0  0  2  0  0  0  0  0  0
  190.3610  175.3920  146.7070 C   0  0  2  0  0  3  0  0  0  0  0  0
  191.6800  177.1620  147.5220 C   0  0  0  0  0  2  0  0  0  0  0  0
  193.6990  174.0340  145.5130 N   0  0  0  0  0  0  0  0  0  0  0  0
  194.4340  175.2380  145.7610 C   0  0  0  0  0  0  0  0  0  0  0  0
  192.2420  174.0640  145.5780 C   0  0  1  0  0  3  0  0  0  0  0  0
  195.6780  175.2910  145.5670 O   0  0  0  0  0  0  0  0  0  0  0  0
  191.7680  174.8370  146.8290 C   0  0  1  0  0  3  0  0  0  0  0  0
  194.3780  172.7760  145.2500 C   0  0  0  0  0  1  0  0  0  0  0  0
  193.6970  176.4420  146.2400 C   0  0  0  0  0  2  0  0  0  0  0  0
  192.6420  176.0200  147.2630 C   0  0  1  0  0  3  0  0  0  0  0  0
  191.7400  174.6370  144.4070 O   0  0  0  0  0  1  0  0  0  0  0  0
  190.3240  176.6210  147.4920 N   0  0  0  0  0  0  0  0  0  0  0  0
  189.3660  174.3900  147.2630 C   0  0  0  0  0  1  0  0  0  0  0  0
  1 10  2  0  0  0  0
  1  5  1  0  0  0  0
  2 15  1  0  0  0  0
  2 17  1  0  0  0  0
  3  9  2  0  0  0  0
  4 21  1  6  0  0  0
  5  4  1  0  0  0  0
  6  4  1  0  0  0  0
  6  8  1  1  0  0  0
  7  8  1  0  0  0  0
  9 10  1  0  0  0  0
  9 11  1  0  0  0  0
 10  6  1  0  0  0  0
 11  7  2  0  0  0  0
 12  2  2  0  0  0  0
 13 12  1  0  0  0  0
 13 14  2  0  0  0  0
 14 16  1  0  0  0  0
 15  3  1  0  0  0  0
 16 17  2  0  0  0  0
 17  1  1  0  0  0  0
 18 13  1  0  0  0  0
 19 18  2  0  0  0  0
 20 18  1  0  0  0  0
 21 33  1  0  0  0  0
 22 28  1  0  0  0  0
 22 34  1  1  0  0  0
 22 33  1  0  0  0  0
 24 26  1  0  0  0  0
 24 25  1  0  0  0  0
 25 30  1  0  0  0  0
 26 32  1  6  0  0  0
 26 28  1  0  0  0  0
 27 25  2  0  0  0  0
 28 31  1  0  0  0  0
 29 24  1  0  0  0  0
 30 31  1  0  0  0  0
 31 23  1  0  0  0  0
 33 23  1  0  0  0  0
M  END
>  <MODEL>
4

>  <REMARK>
 VINA RESULT:      -8.1      2.521      4.054
  Name = 
  3 active torsions:
  status: ('A' for Active; 'I' for Inactive)
    1  A    between atoms: C_3  and  C_25
    2  A    between atoms: C_8  and  C_18
    3  A    between atoms: C_18  and  N_30
                            x       y       z     vdW  Elec       q    Type
                         _______ _______ _______ _____ _____    ______ ____

>  <TORSDO>
F 3

$$$$
=
 OpenBabel11052420373D

 34 39  0  0  1  0  0  0  0  0999 V2000
  186.5720  177.9350  143.9150 C   0  0  0  0  0  0  0  0  0  0  0  0
  184.2180  178.8540  143.7030 C   0  0  0  0  0  0  0  0  0  0  0  0
  184.5520  178.6330  146.1150 N   0  0  0  0  0  0  0  0  0  0  0  0
  188.7240  177.1900  144.2750 C   0  0  2  0  0  3  0  0  0  0  0  0
  187.7620  177.5790  143.3030 O   0  0  0  0  0  0  0  0  0  0  0  0
  188.0740  177.4920  145.6280 C   0  0  2  0  0  3  0  0  0  0  0  0
  186.9140  176.4040  147.5770 C   0  0  0  0  0  3  0  0  0  0  0  0
  187.9370  176.2230  146.4750 C   0  0  0  0  0  2  0  0  0  0  0  0
  185.6390  177.9320  146.2380 C   0  0  0  0  0  0  0  0  0  0  0  0
  186.7130  177.9400  145.2320 C   0  0  0  0  0  0  0  0  0  0  0  0
  185.8600  177.1610  147.4280 N   0  0  0  0  0  0  0  0  0  0  0  0
  183.0480  178.9970  142.9530 C   0  0  0  0  0  3  0  0  0  0  0  0
  182.9390  178.4280  141.6780 C   0  0  0  0  0  0  0  0  0  0  0  0
  184.0260  177.7230  141.1490 C   0  0  0  0  0  3  0  0  0  0  0  0
  184.3000  179.5610  145.0190 C   0  0  0  0  0  2  0  0  0  0  0  0
  185.2010  177.5810  141.8890 C   0  0  0  0  0  3  0  0  0  0  0  0
  185.3120  178.1410  143.1680 C   0  0  0  0  0  0  0  0  0  0  0  0
  181.6990  178.5800  140.8970 C   0  0  0  0  0  0  0  0  0  0  0  0
  181.4670  177.8250  139.9160 O   0  0  0  0  0  0  0  0  0  0  0  0
  180.7470  179.5830  141.2430 N   0  0  0  0  0  1  0  0  0  0  0  0
  190.0960  177.8740  144.0930 C   0  0  0  0  0  2  0  0  0  0  0  0
  191.5150  176.0390  144.7690 C   0  0  2  0  0  3  0  0  0  0  0  0
  191.0170  176.2850  142.4820 C   0  0  0  0  0  2  0  0  0  0  0  0
  191.8870  172.3760  143.8440 N   0  0  0  0  0  0  0  0  0  0  0  0
  191.3110  172.5040  142.5390 C   0  0  0  0  0  0  0  0  0  0  0  0
  191.7790  173.4880  144.7820 C   0  0  1  0  0  3  0  0  0  0  0  0
  191.2500  171.5190  141.7570 O   0  0  0  0  0  0  0  0  0  0  0  0
  192.1120  174.8250  144.0820 C   0  0  1  0  0  3  0  0  0  0  0  0
  192.6190  171.1820  144.2320 C   0  0  0  0  0  1  0  0  0  0  0  0
  190.7670  173.8280  142.1220 C   0  0  0  0  0  2  0  0  0  0  0  0
  191.6980  174.9380  142.6100 C   0  0  1  0  0  3  0  0  0  0  0  0
  190.4930  173.5080  145.3280 O   0  0  0  0  0  1  0  0  0  0  0  0
  191.2390  177.0200  143.7250 N   0  0  0  0  0  0  0  0  0  0  0  0
  192.5100  176.6050  145.7650 C   0  0  0  0  0  1  0  0  0  0  0  0
  1 10  2  0  0  0  0
  2 15  1  0  0  0  0
  3  9  2  0  0  0  0
  4 21  1  6  0  0  0
  4  6  1  0  0  0  0
  5  1  1  0  0  0  0
  5  4  1  0  0  0  0
  6  8  1  1  0  0  0
  8  7  1  0  0  0  0
  9 11  1  0  0  0  0
 10  6  1  0  0  0  0
 10  9  1  0  0  0  0
 11  7  2  0  0  0  0
 12  2  2  0  0  0  0
 13 12  1  0  0  0  0
 14 13  2  0  0  0  0
 14 16  1  0  0  0  0
 15  3  1  0  0  0  0
 16 17  2  0  0  0  0
 17  2  1  0  0  0  0
 17  1  1  0  0  0  0
 18 20  1  0  0  0  0
 18 13  1  0  0  0  0
 19 18  2  0  0  0  0
 22 34  1  1  0  0  0
 23 31  1  0  0  0  0
 23 33  1  0  0  0  0
 24 29  1  0  0  0  0
 24 26  1  0  0  0  0
 25 24  1  0  0  0  0
 26 32  1  6  0  0  0
 27 25  2  0  0  0  0
 28 22  1  0  0  0  0
 28 26  1  0  0  0  0
 30 25  1  0  0  0  0
 30 31  1  0  0  0  0
 31 28  1  0  0  0  0
 33 21  1  0  0  0  0
 33 22  1  0  0  0  0
M  END
>  <MODEL>
5

>  <REMARK>
 VINA RESULT:      -8.1      1.877      2.250
  Name = 
  3 active torsions:
  status: ('A' for Active; 'I' for Inactive)
    1  A    between atoms: C_3  and  C_25
    2  A    between atoms: C_8  and  C_18
    3  A    between atoms: C_18  and  N_30
                            x       y       z     vdW  Elec       q    Type
                         _______ _______ _______ _____ _____    ______ ____

>  <TORSDO>
F 3

$$$$
=
 OpenBabel11052420373D

 34 39  0  0  1  0  0  0  0  0999 V2000
  188.6570  176.8120  143.9770 C   0  0  0  0  0  0  0  0  0  0  0  0
  186.3720  177.8670  144.2840 C   0  0  0  0  0  0  0  0  0  0  0  0
  186.9930  177.1370  146.5340 N   0  0  0  0  0  0  0  0  0  0  0  0
  190.7750  175.9050  143.8760 C   0  0  2  0  0  3  0  0  0  0  0  0
  189.7280  176.5320  143.1460 O   0  0  0  0  0  0  0  0  0  0  0  0
  190.3280  175.9520  145.3400 C   0  0  2  0  0  3  0  0  0  0  0  0
  189.3470  174.5430  147.1790 C   0  0  0  0  0  3  0  0  0  0  0  0
  190.2040  174.5450  145.9300 C   0  0  0  0  0  2  0  0  0  0  0  0
  188.0310  176.3740  146.3620 C   0  0  0  0  0  0  0  0  0  0  0  0
  188.9650  176.5380  145.2360 C   0  0  0  0  0  0  0  0  0  0  0  0
  188.3430  175.3640  147.3320 N   0  0  0  0  0  0  0  0  0  0  0  0
  185.1290  178.2170  143.7490 C   0  0  0  0  0  3  0  0  0  0  0  0
  184.8160  177.9300  142.4150 C   0  0  0  0  0  0  0  0  0  0  0  0
  185.7700  177.2970  141.6100 C   0  0  0  0  0  3  0  0  0  0  0  0
  186.6740  178.2820  145.6890 C   0  0  0  0  0  2  0  0  0  0  0  0
  187.0160  176.9490  142.1340 C   0  0  0  0  0  3  0  0  0  0  0  0
  187.3320  177.2270  143.4710 C   0  0  0  0  0  0  0  0  0  0  0  0
  183.5010  178.3000  141.8620 C   0  0  0  0  0  0  0  0  0  0  0  0
  182.5680  178.6610  142.6260 O   0  0  0  0  0  0  0  0  0  0  0  0
  183.2710  178.2520  140.4560 N   0  0  0  0  0  1  0  0  0  0  0  0
  192.1600  176.5460  143.6430 C   0  0  0  0  0  2  0  0  0  0  0  0
  193.2090  174.7360  142.4320 C   0  0  2  0  0  3  0  0  0  0  0  0
  194.5870  176.3610  143.4320 C   0  0  0  0  0  2  0  0  0  0  0  0
  196.1260  174.3720  140.0310 N   0  0  0  0  0  0  0  0  0  0  0  0
  196.8180  175.5450  140.4750 C   0  0  0  0  0  0  0  0  0  0  0  0
  194.7560  174.1430  140.4750 C   0  0  1  0  0  3  0  0  0  0  0  0
  197.9410  175.8560  139.9980 O   0  0  0  0  0  0  0  0  0  0  0  0
  194.6230  174.4070  141.9920 C   0  0  1  0  0  3  0  0  0  0  0  0
  196.7800  173.3830  139.1900 C   0  0  0  0  0  1  0  0  0  0  0  0
  196.1760  176.4070  141.5080 C   0  0  0  0  0  2  0  0  0  0  0  0
  195.5040  175.5260  142.5610 C   0  0  1  0  0  3  0  0  0  0  0  0
  193.8910  174.9580  139.7400 O   0  0  0  0  0  1  0  0  0  0  0  0
  193.3230  175.6420  143.5700 N   0  0  0  0  0  0  0  0  0  0  0  0
  192.4950  173.4640  142.8500 C   0  0  0  0  0  1  0  0  0  0  0  0
  1 10  2  0  0  0  0
  2 15  1  0  0  0  0
  4 21  1  1  0  0  0
  4  6  1  0  0  0  0
  5  4  1  0  0  0  0
  5  1  1  0  0  0  0
  6  8  1  6  0  0  0
  7 11  2  0  0  0  0
  8  7  1  0  0  0  0
  9  3  2  0  0  0  0
  9 11  1  0  0  0  0
 10  6  1  0  0  0  0
 10  9  1  0  0  0  0
 12  2  1  0  0  0  0
 13 12  2  0  0  0  0
 14 16  2  0  0  0  0
 14 13  1  0  0  0  0
 15  3  1  0  0  0  0
 16 17  1  0  0  0  0
 17  1  1  0  0  0  0
 17  2  2  0  0  0  0
 18 13  1  0  0  0  0
 18 19  2  0  0  0  0
 20 18  1  0  0  0  0
 22 34  1  1  0  0  0
 22 33  1  0  0  0  0
 23 33  1  0  0  0  0
 24 25  1  0  0  0  0
 24 26  1  0  0  0  0
 25 30  1  0  0  0  0
 26 32  1  6  0  0  0
 26 28  1  0  0  0  0
 27 25  2  0  0  0  0
 28 22  1  0  0  0  0
 28 31  1  0  0  0  0
 29 24  1  0  0  0  0
 30 31  1  0  0  0  0
 31 23  1  0  0  0  0
 33 21  1  0  0  0  0
M  END
>  <MODEL>
6

>  <REMARK>
 VINA RESULT:      -7.9      2.316      2.944
  Name = 
  3 active torsions:
  status: ('A' for Active; 'I' for Inactive)
    1  A    between atoms: C_3  and  C_25
    2  A    between atoms: C_8  and  C_18
    3  A    between atoms: C_18  and  N_30
                            x       y       z     vdW  Elec       q    Type
                         _______ _______ _______ _____ _____    ______ ____

>  <TORSDO>
F 3

$$$$
=
 OpenBabel11052420373D

 34 39  0  0  1  0  0  0  0  0999 V2000
  191.4010  173.5230  142.6300 C   0  0  0  0  0  0  0  0  0  0  0  0
  190.8690  171.5880  141.0800 C   0  0  0  0  0  0  0  0  0  0  0  0
  191.7820  170.5130  143.0770 N   0  0  0  0  0  0  0  0  0  0  0  0
  191.8520  175.1650  144.1850 C   0  0  2  0  0  3  0  0  0  0  0  0
  191.3420  174.8830  142.8880 O   0  0  0  0  0  0  0  0  0  0  0  0
  192.1060  173.7980  144.8250 C   0  0  2  0  0  3  0  0  0  0  0  0
  193.9320  172.1620  145.3890 C   0  0  0  0  0  3  0  0  0  0  0  0
  193.5820  173.6220  145.1960 C   0  0  0  0  0  2  0  0  0  0  0  0
  192.2950  171.4830  143.7730 C   0  0  0  0  0  0  0  0  0  0  0  0
  191.7890  172.8640  143.7110 C   0  0  0  0  0  0  0  0  0  0  0  0
  193.3540  171.2130  144.7030 N   0  0  0  0  0  0  0  0  0  0  0  0
  190.6940  171.1030  139.7820 C   0  0  0  0  0  3  0  0  0  0  0  0
  190.8400  171.9480  138.6740 C   0  0  0  0  0  0  0  0  0  0  0  0
  191.1500  173.2970  138.8800 C   0  0  0  0  0  3  0  0  0  0  0  0
  190.6120  170.6550  142.2200 C   0  0  0  0  0  2  0  0  0  0  0  0
  191.3200  173.7920  140.1750 C   0  0  0  0  0  3  0  0  0  0  0  0
  191.1830  172.9490  141.2850 C   0  0  0  0  0  0  0  0  0  0  0  0
  190.6580  171.4260  137.3090 C   0  0  0  0  0  0  0  0  0  0  0  0
  191.2220  171.9860  136.3320 O   0  0  0  0  0  0  0  0  0  0  0  0
  189.8420  170.2800  137.0770 N   0  0  0  0  0  1  0  0  0  0  0  0
  190.9260  176.0680  145.0290 C   0  0  0  0  0  2  0  0  0  0  0  0
  188.8830  176.0470  146.3200 C   0  0  2  0  0  3  0  0  0  0  0  0
  188.7490  176.5230  144.0190 C   0  0  0  0  0  2  0  0  0  0  0  0
  185.7270  178.1490  146.4940 N   0  0  0  0  0  0  0  0  0  0  0  0
  185.8250  178.6550  145.1570 C   0  0  0  0  0  0  0  0  0  0  0  0
  186.8620  177.4370  147.0690 C   0  0  1  0  0  3  0  0  0  0  0  0
  184.9310  179.4020  144.6790 O   0  0  0  0  0  0  0  0  0  0  0  0
  187.4360  176.4180  146.0580 C   0  0  1  0  0  3  0  0  0  0  0  0
  184.5040  178.2890  147.2650 C   0  0  0  0  0  1  0  0  0  0  0  0
  187.0170  178.2920  144.3380 C   0  0  0  0  0  2  0  0  0  0  0  0
  187.3740  176.8260  144.5810 C   0  0  1  0  0  3  0  0  0  0  0  0
  187.8340  178.3590  147.4650 O   0  0  0  0  0  1  0  0  0  0  0  0
  189.4850  175.7580  145.0220 N   0  0  0  0  0  0  0  0  0  0  0  0
  188.9430  174.8160  147.2060 C   0  0  0  0  0  1  0  0  0  0  0  0
  1  5  1  0  0  0  0
  1 10  2  0  0  0  0
  2 17  1  0  0  0  0
  2 15  1  0  0  0  0
  3  9  2  0  0  0  0
  4  6  1  0  0  0  0
  4 21  1  1  0  0  0
  5  4  1  0  0  0  0
  6  8  1  6  0  0  0
  8  7  1  0  0  0  0
  9 11  1  0  0  0  0
 10  9  1  0  0  0  0
 10  6  1  0  0  0  0
 11  7  2  0  0  0  0
 12  2  2  0  0  0  0
 13 14  2  0  0  0  0
 13 12  1  0  0  0  0
 14 16  1  0  0  0  0
 15  3  1  0  0  0  0
 16 17  2  0  0  0  0
 17  1  1  0  0  0  0
 18 13  1  0  0  0  0
 19 18  2  0  0  0  0
 20 18  1  0  0  0  0
 22 34  1  1  0  0  0
 23 31  1  0  0  0  0
 23 33  1  0  0  0  0
 24 26  1  0  0  0  0
 24 29  1  0  0  0  0
 25 24  1  0  0  0  0
 26 32  1  6  0  0  0
 27 25  2  0  0  0  0
 28 22  1  0  0  0  0
 28 26  1  0  0  0  0
 30 31  1  0  0  0  0
 30 25  1  0  0  0  0
 31 28  1  0  0  0  0
 33 21  1  0  0  0  0
 33 22  1  0  0  0  0
M  END
>  <MODEL>
7

>  <REMARK>
 VINA RESULT:      -7.7      3.426      8.017
  Name = 
  3 active torsions:
  status: ('A' for Active; 'I' for Inactive)
    1  A    between atoms: C_3  and  C_25
    2  A    between atoms: C_8  and  C_18
    3  A    between atoms: C_18  and  N_30
                            x       y       z     vdW  Elec       q    Type
                         _______ _______ _______ _____ _____    ______ ____

>  <TORSDO>
F 3

$$$$
=
 OpenBabel11052420373D

 34 39  0  0  1  0  0  0  0  0999 V2000
  188.3510  175.2890  142.8970 C   0  0  0  0  0  0  0  0  0  0  0  0
  188.1630  176.8300  144.9020 C   0  0  0  0  0  0  0  0  0  0  0  0
  190.0060  175.3300  145.4790 N   0  0  0  0  0  0  0  0  0  0  0  0
  188.7090  173.8730  141.1110 C   0  0  2  0  0  3  0  0  0  0  0  0
  187.9450  174.9630  141.6140 O   0  0  0  0  0  0  0  0  0  0  0  0
  189.7920  173.6220  142.1650 C   0  0  2  0  0  3  0  0  0  0  0  0
  190.4240  172.0910  144.0580 C   0  0  0  0  0  3  0  0  0  0  0  0
  189.6950  172.2040  142.7360 C   0  0  0  0  0  2  0  0  0  0  0  0
  189.9540  174.3810  144.5930 C   0  0  0  0  0  0  0  0  0  0  0  0
  189.4200  174.5850  143.2360 C   0  0  0  0  0  0  0  0  0  0  0  0
  190.4950  173.0880  144.8980 N   0  0  0  0  0  0  0  0  0  0  0  0
  187.3830  177.6670  145.7030 C   0  0  0  0  0  3  0  0  0  0  0  0
  186.0310  177.8850  145.4110 C   0  0  0  0  0  0  0  0  0  0  0  0
  185.4650  177.2630  144.2920 C   0  0  0  0  0  3  0  0  0  0  0  0
  189.6200  176.7120  145.2180 C   0  0  0  0  0  2  0  0  0  0  0  0
  186.2390  176.4290  143.4820 C   0  0  0  0  0  3  0  0  0  0  0  0
  187.5900  176.2030  143.7750 C   0  0  0  0  0  0  0  0  0  0  0  0
  185.2160  178.7670  146.2650 C   0  0  0  0  0  0  0  0  0  0  0  0
  184.0170  179.0120  145.9660 O   0  0  0  0  0  0  0  0  0  0  0  0
  185.7740  179.3520  147.4380 N   0  0  0  0  0  1  0  0  0  0  0  0
  189.2810  174.1190  139.6990 C   0  0  0  0  0  2  0  0  0  0  0  0
  189.6950  173.3600  137.4430 C   0  0  2  0  0  3  0  0  0  0  0  0
  188.9060  171.8020  139.0210 C   0  0  0  0  0  2  0  0  0  0  0  0
  191.2200  170.2850  135.8200 N   0  0  0  0  0  0  0  0  0  0  0  0
  190.9760  169.4100  136.9280 C   0  0  0  0  0  0  0  0  0  0  0  0
  191.0350  171.7210  135.9950 C   0  0  1  0  0  3  0  0  0  0  0  0
  191.2670  168.1860  136.8640 O   0  0  0  0  0  0  0  0  0  0  0  0
  189.7140  172.0140  136.7420 C   0  0  1  0  0  3  0  0  0  0  0  0
  191.5970  169.7650  134.5170 C   0  0  0  0  0  1  0  0  0  0  0  0
  190.3810  169.9760  138.1720 C   0  0  0  0  0  2  0  0  0  0  0  0
  189.2970  170.9890  137.8030 C   0  0  1  0  0  3  0  0  0  0  0  0
  192.1330  172.2480  136.6800 O   0  0  0  0  0  1  0  0  0  0  0  0
  188.8520  173.2070  138.6240 N   0  0  0  0  0  0  0  0  0  0  0  0
  189.1080  174.4100  136.5180 C   0  0  0  0  0  1  0  0  0  0  0  0
  1 10  2  0  0  0  0
  1 17  1  0  0  0  0
  2 15  1  0  0  0  0
  2 12  1  0  0  0  0
  4 21  1  6  0  0  0
  4  5  1  0  0  0  0
  4  6  1  0  0  0  0
  5  1  1  0  0  0  0
  6  8  1  1  0  0  0
  6 10  1  0  0  0  0
  7 11  2  0  0  0  0
  8  7  1  0  0  0  0
  9 11  1  0  0  0  0
  9  3  2  0  0  0  0
 10  9  1  0  0  0  0
 13 12  2  0  0  0  0
 13 18  1  0  0  0  0
 14 13  1  0  0  0  0
 15  3  1  0  0  0  0
 16 17  1  0  0  0  0
 16 14  2  0  0  0  0
 17  2  2  0  0  0  0
 18 20  1  0  0  0  0
 19 18  2  0  0  0  0
 22 34  1  6  0  0  0
 22 33  1  0  0  0  0
 24 26  1  0  0  0  0
 24 25  1  0  0  0  0
 25 30  1  0  0  0  0
 26 32  1  1  0  0  0
 26 28  1  0  0  0  0
 27 25  2  0  0  0  0
 28 22  1  0  0  0  0
 28 31  1  0  0  0  0
 29 24  1  0  0  0  0
 31 30  1  0  0  0  0
 31 23  1  0  0  0  0
 33 23  1  0  0  0  0
 33 21  1  0  0  0  0
M  END
>  <MODEL>
8

>  <REMARK>
 VINA RESULT:      -7.7      5.067      6.422
  Name = 
  3 active torsions:
  status: ('A' for Active; 'I' for Inactive)
    1  A    between atoms: C_3  and  C_25
    2  A    between atoms: C_8  and  C_18
    3  A    between atoms: C_18  and  N_30
                            x       y       z     vdW  Elec       q    Type
                         _______ _______ _______ _____ _____    ______ ____

>  <TORSDO>
F 3

$$$$
=
 OpenBabel11052420373D

 34 39  0  0  1  0  0  0  0  0999 V2000
  193.5920  175.1130  142.7200 C   0  0  0  0  0  0  0  0  0  0  0  0
  195.4080  173.6290  141.7560 C   0  0  0  0  0  0  0  0  0  0  0  0
  195.6880  173.4100  144.1750 N   0  0  0  0  0  0  0  0  0  0  0  0
  191.9360  176.3460  143.7480 C   0  0  2  0  0  3  0  0  0  0  0  0
  192.4850  175.9180  142.5080 O   0  0  0  0  0  0  0  0  0  0  0  0
  192.7220  175.5870  144.8200 C   0  0  2  0  0  3  0  0  0  0  0  0
  194.5640  175.8510  146.5130 C   0  0  0  0  0  3  0  0  0  0  0  0
  193.4490  176.5490  145.7640 C   0  0  0  0  0  2  0  0  0  0  0  0
  194.9460  174.3490  144.6830 C   0  0  0  0  0  0  0  0  0  0  0  0
  193.7420  174.8650  144.0120 C   0  0  0  0  0  0  0  0  0  0  0  0
  195.2520  174.8750  145.9820 N   0  0  0  0  0  0  0  0  0  0  0  0
  196.2770  173.3240  140.7050 C   0  0  0  0  0  3  0  0  0  0  0  0
  196.2930  174.0980  139.5390 C   0  0  0  0  0  0  0  0  0  0  0  0
  195.4140  175.1820  139.4260 C   0  0  0  0  0  3  0  0  0  0  0  0
  195.3790  172.7090  142.9340 C   0  0  0  0  0  2  0  0  0  0  0  0
  194.5370  175.4900  140.4680 C   0  0  0  0  0  3  0  0  0  0  0  0
  194.5230  174.7230  141.6400 C   0  0  0  0  0  0  0  0  0  0  0  0
  197.2160  173.7710  138.4380 C   0  0  0  0  0  0  0  0  0  0  0  0
  197.5450  172.5750  138.2180 O   0  0  0  0  0  0  0  0  0  0  0  0
  197.7470  174.8030  137.6110 N   0  0  0  0  0  1  0  0  0  0  0  0
  190.4100  176.1380  143.8520 C   0  0  0  0  0  2  0  0  0  0  0  0
  188.5230  177.4780  143.1570 C   0  0  2  0  0  3  0  0  0  0  0  0
  188.9440  177.2470  145.4610 C   0  0  0  0  0  2  0  0  0  0  0  0
  184.9390  177.9730  144.3070 N   0  0  0  0  0  0  0  0  0  0  0  0
  185.1680  177.5510  145.6570 C   0  0  0  0  0  0  0  0  0  0  0  0
  185.9780  177.7510  143.3070 C   0  0  1  0  0  3  0  0  0  0  0  0
  184.2450  177.5860  146.5130 O   0  0  0  0  0  0  0  0  0  0  0  0
  187.3630  178.1570  143.8600 C   0  0  1  0  0  3  0  0  0  0  0  0
  183.7170  178.6610  143.9290 C   0  0  0  0  0  1  0  0  0  0  0  0
  186.5220  177.0530  146.0320 C   0  0  0  0  0  2  0  0  0  0  0  0
  187.5880  177.9160  145.3570 C   0  0  1  0  0  3  0  0  0  0  0  0
  185.9610  176.4110  142.9140 O   0  0  0  0  0  1  0  0  0  0  0  0
  189.5810  177.3200  144.1490 N   0  0  0  0  0  0  0  0  0  0  0  0
  189.0080  178.3490  142.0130 C   0  0  0  0  0  1  0  0  0  0  0  0
  1 10  2  0  0  0  0
  2 15  1  0  0  0  0
  3  9  2  0  0  0  0
  4 21  1  6  0  0  0
  4  6  1  0  0  0  0
  5  1  1  0  0  0  0
  5  4  1  0  0  0  0
  6  8  1  1  0  0  0
  8  7  1  0  0  0  0
  9 11  1  0  0  0  0
 10  9  1  0  0  0  0
 10  6  1  0  0  0  0
 11  7  2  0  0  0  0
 12  2  2  0  0  0  0
 13 12  1  0  0  0  0
 14 13  2  0  0  0  0
 14 16  1  0  0  0  0
 15  3  1  0  0  0  0
 16 17  2  0  0  0  0
 17  2  1  0  0  0  0
 17  1  1  0  0  0  0
 18 13  1  0  0  0  0
 19 18  2  0  0  0  0
 20 18  1  0  0  0  0
 21 33  1  0  0  0  0
 22 34  1  6  0  0  0
 22 28  1  0  0  0  0
 22 33  1  0  0  0  0
 24 25  1  0  0  0  0
 25 30  1  0  0  0  0
 25 27  2  0  0  0  0
 26 32  1  1  0  0  0
 26 28  1  0  0  0  0
 26 24  1  0  0  0  0
 28 31  1  0  0  0  0
 29 24  1  0  0  0  0
 31 23  1  0  0  0  0
 31 30  1  0  0  0  0
 33 23  1  0  0  0  0
M  END
>  <MODEL>
9

>  <REMARK>
 VINA RESULT:      -7.7      2.984      9.370
  Name = 
  3 active torsions:
  status: ('A' for Active; 'I' for Inactive)
    1  A    between atoms: C_3  and  C_25
    2  A    between atoms: C_8  and  C_18
    3  A    between atoms: C_18  and  N_30
                            x       y       z     vdW  Elec       q    Type
                         _______ _______ _______ _____ _____    ______ ____

>  <TORSDO>
F 3

$$$$
