=
 OpenBabel11052418253D

 27 30  0  0  1  0  0  0  0  0999 V2000
  190.8810  173.5890  143.7340 C   0  0  0  0  0  2  0  0  0  0  0  0
  189.5690  174.8700  145.4930 C   0  0  0  0  0  0  0  0  0  0  0  0
  189.0470  175.0190  143.0480 C   0  0  0  0  0  2  0  0  0  0  0  0
  186.7320  177.5690  146.2670 N   0  0  0  0  0  0  0  0  0  0  0  0
  185.9150  179.4350  144.8320 C   0  0  0  0  0  1  0  0  0  0  0  0
  189.1520  174.9530  146.7690 C   0  0  0  0  0  3  0  0  0  0  0  0
  186.9390  177.2540  143.9440 C   0  0  2  0  0  3  0  0  0  0  0  0
  185.8330  176.8360  142.9930 C   0  0  0  0  0  1  0  0  0  0  0  0
  187.4690  176.0250  144.6870 C   0  0  2  0  0  3  0  0  0  0  0  0
  190.8080  174.0780  145.1910 C   0  0  2  0  0  3  0  0  0  0  0  0
  186.3930  178.0760  145.0150 N   0  0  0  0  0  0  0  0  0  0  0  0
  187.3170  176.4360  146.1070 C   0  0  0  0  0  0  0  0  0  0  0  0
  190.4060  174.5600  142.7380 N   0  0  0  0  0  0  0  0  0  0  0  0
  188.9450  175.7270  144.4010 C   0  0  1  0  0  3  0  0  0  0  0  0
  188.0520  175.7920  147.1420 N   0  0  0  0  0  2  0  0  0  0  0  0
  194.5010  175.9280  146.4230 C   0  0  0  0  0  3  0  0  0  0  0  0
  192.0840  174.7400  145.6410 C   0  0  0  0  0  0  0  0  0  0  0  0
  192.1040  176.0630  146.1150 C   0  0  0  0  0  3  0  0  0  0  0  0
  193.3080  176.6530  146.5070 C   0  0  0  0  0  3  0  0  0  0  0  0
  194.4880  174.6130  145.9470 C   0  0  0  0  0  3  0  0  0  0  0  0
  193.2820  174.0230  145.5560 C   0  0  0  0  0  3  0  0  0  0  0  0
  191.3290  175.6840  142.6180 C   0  0  0  0  0  2  0  0  0  0  0  0
  192.6780  175.2160  142.0920 C   0  0  0  0  0  2  0  0  0  0  0  0
  193.8070  176.1170  142.5730 C   0  0  0  0  0  2  0  0  0  0  0  0
  195.1670  175.5390  142.2210 C   0  0  1  0  0  3  0  0  0  0  0  0
  196.2310  176.2330  143.0460 C   0  0  0  0  0  1  0  0  0  0  0  0
  195.1880  174.1740  142.5040 O   0  0  0  0  0  1  0  0  0  0  0  0
  1 10  1  0  0  0  0
  2  6  2  0  0  0  0
  5 11  1  0  0  0  0
  6 15  1  0  0  0  0
  7  8  1  6  0  0  0
  7  9  1  0  0  0  0
  7 11  1  0  0  0  0
  9 12  1  1  0  0  0
 10  2  1  0  0  0  0
 10 17  1  6  0  0  0
 11  4  1  0  0  0  0
 12  4  2  0  0  0  0
 12 15  1  0  0  0  0
 13  3  1  0  0  0  0
 13  1  1  0  0  0  0
 14  3  1  6  0  0  0
 14  9  1  0  0  0  0
 14  2  1  0  0  0  0
 16 19  1  0  0  0  0
 17 18  1  0  0  0  0
 18 19  2  0  0  0  0
 20 16  2  0  0  0  0
 21 17  2  0  0  0  0
 21 20  1  0  0  0  0
 22 13  1  0  0  0  0
 23 24  1  0  0  0  0
 23 22  1  0  0  0  0
 25 27  1  0  0  0  0
 25 24  1  0  0  0  0
 25 26  1  1  0  0  0
M  END
>  <MODEL>
1

>  <REMARK>
 VINA RESULT:      -6.4      0.000      0.000
  Name = 
  5 active torsions:
  status: ('A' for Active; 'I' for Inactive)
    1  A    between atoms: C_9  and  C_15
    2  A    between atoms: C_10  and  C_13
    3  A    between atoms: C_10  and  C_20
    4  A    between atoms: N_18  and  C_26
    5  A    between atoms: C_20  and  C_26
                            x       y       z     vdW  Elec       q    Type
                         _______ _______ _______ _____ _____    ______ ____

>  <TORSDO>
F 5

$$$$
=
 OpenBabel11052418253D

 27 30  0  0  1  0  0  0  0  0999 V2000
  189.7010  177.6310  143.1570 C   0  0  0  0  0  2  0  0  0  0  0  0
  191.1430  176.4640  144.8920 C   0  0  0  0  0  0  0  0  0  0  0  0
  190.9980  175.6860  142.5160 C   0  0  0  0  0  2  0  0  0  0  0  0
  193.5160  173.3750  145.7630 N   0  0  0  0  0  0  0  0  0  0  0  0
  193.5770  171.1090  144.7280 C   0  0  0  0  0  1  0  0  0  0  0  0
  191.8430  176.5490  146.0380 C   0  0  0  0  0  3  0  0  0  0  0  0
  192.7980  173.2400  143.5260 C   0  0  2  0  0  3  0  0  0  0  0  0
  193.6880  173.1670  142.3000 C   0  0  0  0  0  1  0  0  0  0  0  0
  192.7150  174.6880  144.0140 C   0  0  2  0  0  3  0  0  0  0  0  0
  190.0420  177.4550  144.6470 C   0  0  2  0  0  3  0  0  0  0  0  0
  193.4280  172.5510  144.6430 N   0  0  0  0  0  0  0  0  0  0  0  0
  193.1370  174.5570  145.4340 C   0  0  0  0  0  0  0  0  0  0  0  0
  189.7180  176.3890  142.3730 N   0  0  0  0  0  0  0  0  0  0  0  0
  191.2990  175.2720  143.9590 C   0  0  1  0  0  3  0  0  0  0  0  0
  192.8210  175.5630  146.3910 N   0  0  0  0  0  2  0  0  0  0  0  0
  186.4920  176.8560  147.0160 C   0  0  0  0  0  3  0  0  0  0  0  0
  188.8180  177.2330  145.4950 C   0  0  0  0  0  0  0  0  0  0  0  0
  188.7230  176.1550  146.3910 C   0  0  0  0  0  3  0  0  0  0  0  0
  187.5650  175.9690  147.1500 C   0  0  0  0  0  3  0  0  0  0  0  0
  186.5790  177.9280  146.1230 C   0  0  0  0  0  3  0  0  0  0  0  0
  187.7380  178.1140  145.3640 C   0  0  0  0  0  3  0  0  0  0  0  0
  188.5970  175.5250  142.7340 C   0  0  0  0  0  2  0  0  0  0  0  0
  187.3680  175.8700  141.9070 C   0  0  0  0  0  2  0  0  0  0  0  0
  186.2340  176.3850  142.7820 C   0  0  0  0  0  2  0  0  0  0  0  0
  185.5760  177.6120  142.1740 C   0  0  1  0  0  3  0  0  0  0  0  0
  184.4040  178.0290  143.0380 C   0  0  0  0  0  1  0  0  0  0  0  0
  186.4950  178.6600  142.1150 O   0  0  0  0  0  1  0  0  0  0  0  0
  1 10  1  0  0  0  0
  2  6  2  0  0  0  0
  6 15  1  0  0  0  0
  7  8  1  6  0  0  0
  7  9  1  0  0  0  0
  7 11  1  0  0  0  0
  9 12  1  1  0  0  0
 10  2  1  0  0  0  0
 10 17  1  1  0  0  0
 11  5  1  0  0  0  0
 11  4  1  0  0  0  0
 12  4  2  0  0  0  0
 12 15  1  0  0  0  0
 13  3  1  0  0  0  0
 13 22  1  0  0  0  0
 13  1  1  0  0  0  0
 14  3  1  6  0  0  0
 14  9  1  0  0  0  0
 14  2  1  0  0  0  0
 16 19  1  0  0  0  0
 17 18  1  0  0  0  0
 18 19  2  0  0  0  0
 20 16  2  0  0  0  0
 21 17  2  0  0  0  0
 21 20  1  0  0  0  0
 23 22  1  0  0  0  0
 23 24  1  0  0  0  0
 25 24  1  0  0  0  0
 25 26  1  1  0  0  0
 27 25  1  0  0  0  0
M  END
>  <MODEL>
2

>  <REMARK>
 VINA RESULT:      -6.3      2.982      6.742
  Name = 
  5 active torsions:
  status: ('A' for Active; 'I' for Inactive)
    1  A    between atoms: C_9  and  C_15
    2  A    between atoms: C_10  and  C_13
    3  A    between atoms: C_10  and  C_20
    4  A    between atoms: N_18  and  C_26
    5  A    between atoms: C_20  and  C_26
                            x       y       z     vdW  Elec       q    Type
                         _______ _______ _______ _____ _____    ______ ____

>  <TORSDO>
F 5

$$$$
=
 OpenBabel11052418253D

 27 30  0  0  1  0  0  0  0  0999 V2000
  191.2330  177.1850  143.1510 C   0  0  0  0  0  2  0  0  0  0  0  0
  192.8860  176.4610  144.9400 C   0  0  0  0  0  0  0  0  0  0  0  0
  193.0230  175.6550  142.5720 C   0  0  0  0  0  2  0  0  0  0  0  0
  195.9760  174.1320  145.9160 N   0  0  0  0  0  0  0  0  0  0  0  0
  196.6730  171.9580  144.9160 C   0  0  0  0  0  1  0  0  0  0  0  0
  193.5030  176.7400  146.1010 C   0  0  0  0  0  3  0  0  0  0  0  0
  195.3850  173.7920  143.6630 C   0  0  2  0  0  3  0  0  0  0  0  0
  196.2970  173.9520  142.4620 C   0  0  0  0  0  1  0  0  0  0  0  0
  194.9010  175.1680  144.1280 C   0  0  2  0  0  3  0  0  0  0  0  0
  191.5660  177.1170  144.6510 C   0  0  2  0  0  3  0  0  0  0  0  0
  196.1440  173.3060  144.8070 N   0  0  0  0  0  0  0  0  0  0  0  0
  195.3020  175.1660  145.5600 C   0  0  0  0  0  0  0  0  0  0  0  0
  191.6060  175.9870  142.3850 N   0  0  0  0  0  0  0  0  0  0  0  0
  193.3830  175.3480  144.0280 C   0  0  1  0  0  3  0  0  0  0  0  0
  194.7000  176.0560  146.4930 N   0  0  0  0  0  2  0  0  0  0  0  0
  188.2410  175.6210  146.9480 C   0  0  0  0  0  3  0  0  0  0  0  0
  190.4230  176.5800  145.4710 C   0  0  0  0  0  0  0  0  0  0  0  0
  190.5030  175.3440  146.1330 C   0  0  0  0  0  3  0  0  0  0  0  0
  189.4160  174.8670  146.8710 C   0  0  0  0  0  3  0  0  0  0  0  0
  188.1530  176.8490  146.2870 C   0  0  0  0  0  3  0  0  0  0  0  0
  189.2410  177.3260  145.5500 C   0  0  0  0  0  3  0  0  0  0  0  0
  190.7490  174.8560  142.7300 C   0  0  0  0  0  2  0  0  0  0  0  0
  189.4730  174.8790  141.9020 C   0  0  0  0  0  2  0  0  0  0  0  0
  188.2400  175.0340  142.7820 C   0  0  0  0  0  2  0  0  0  0  0  0
  187.2580  176.0320  142.1930 C   0  0  1  0  0  3  0  0  0  0  0  0
  186.1830  176.3340  143.2150 C   0  0  0  0  0  1  0  0  0  0  0  0
  187.9230  177.2130  141.8670 O   0  0  0  0  0  1  0  0  0  0  0  0
  1 10  1  0  0  0  0
  2  6  2  0  0  0  0
  6 15  1  0  0  0  0
  7  8  1  6  0  0  0
  7  9  1  0  0  0  0
  7 11  1  0  0  0  0
  9 12  1  1  0  0  0
 10  2  1  0  0  0  0
 10 17  1  1  0  0  0
 11  5  1  0  0  0  0
 11  4  1  0  0  0  0
 12  4  2  0  0  0  0
 12 15  1  0  0  0  0
 13  3  1  0  0  0  0
 13 22  1  0  0  0  0
 13  1  1  0  0  0  0
 14  3  1  6  0  0  0
 14  9  1  0  0  0  0
 14  2  1  0  0  0  0
 17 21  2  0  0  0  0
 17 18  1  0  0  0  0
 18 19  2  0  0  0  0
 19 16  1  0  0  0  0
 20 16  2  0  0  0  0
 21 20  1  0  0  0  0
 23 22  1  0  0  0  0
 23 24  1  0  0  0  0
 25 24  1  0  0  0  0
 25 26  1  1  0  0  0
 27 25  1  0  0  0  0
M  END
>  <MODEL>
3

>  <REMARK>
 VINA RESULT:      -6.3      2.968      6.844
  Name = 
  5 active torsions:
  status: ('A' for Active; 'I' for Inactive)
    1  A    between atoms: C_9  and  C_15
    2  A    between atoms: C_10  and  C_13
    3  A    between atoms: C_10  and  C_20
    4  A    between atoms: N_18  and  C_26
    5  A    between atoms: C_20  and  C_26
                            x       y       z     vdW  Elec       q    Type
                         _______ _______ _______ _____ _____    ______ ____

>  <TORSDO>
F 5

$$$$
=
 OpenBabel11052418253D

 27 30  0  0  1  0  0  0  0  0999 V2000
  190.2350  176.6220  144.0490 C   0  0  0  0  0  2  0  0  0  0  0  0
  188.4510  176.9150  142.2640 C   0  0  0  0  0  0  0  0  0  0  0  0
  188.2170  177.8600  144.5710 C   0  0  0  0  0  2  0  0  0  0  0  0
  184.7990  178.2380  141.3470 N   0  0  0  0  0  0  0  0  0  0  0  0
  182.8310  178.5590  142.8420 C   0  0  0  0  0  1  0  0  0  0  0  0
  188.1460  176.9760  140.9550 C   0  0  0  0  0  3  0  0  0  0  0  0
  185.2790  178.6840  143.6080 C   0  0  2  0  0  3  0  0  0  0  0  0
  185.2550  180.0440  144.2790 C   0  0  0  0  0  1  0  0  0  0  0  0
  186.5810  178.5230  142.8190 C   0  0  2  0  0  3  0  0  0  0  0  0
  189.6920  176.1790  142.6790 C   0  0  2  0  0  3  0  0  0  0  0  0
  184.2570  178.6190  142.5720 N   0  0  0  0  0  0  0  0  0  0  0  0
  186.0770  178.1890  141.4610 C   0  0  0  0  0  0  0  0  0  0  0  0
  189.2030  176.8900  145.0600 N   0  0  0  0  0  0  0  0  0  0  0  0
  187.4660  177.3800  143.3270 C   0  0  1  0  0  3  0  0  0  0  0  0
  186.9160  177.5540  140.5020 N   0  0  0  0  0  2  0  0  0  0  0  0
  189.4490  171.8850  142.3910 C   0  0  0  0  0  3  0  0  0  0  0  0
  189.5860  174.6820  142.5600 C   0  0  0  0  0  0  0  0  0  0  0  0
  188.3660  174.0460  142.2720 C   0  0  0  0  0  3  0  0  0  0  0  0
  188.2990  172.6530  142.1860 C   0  0  0  0  0  3  0  0  0  0  0  0
  190.6650  172.5110  142.6830 C   0  0  0  0  0  3  0  0  0  0  0  0
  190.7310  173.9050  142.7690 C   0  0  0  0  0  3  0  0  0  0  0  0
  188.5590  175.6520  145.4920 C   0  0  0  0  0  2  0  0  0  0  0  0
  189.5710  174.7170  146.1360 C   0  0  0  0  0  2  0  0  0  0  0  0
  189.7710  175.0410  147.6090 C   0  0  0  0  0  2  0  0  0  0  0  0
  191.1810  175.5330  147.8850 C   0  0  1  0  0  3  0  0  0  0  0  0
  192.0950  175.0770  146.7660 C   0  0  0  0  0  1  0  0  0  0  0  0
  191.1920  176.9270  147.9430 O   0  0  0  0  0  1  0  0  0  0  0  0
  1 13  1  0  0  0  0
  2 10  1  0  0  0  0
  2 14  1  0  0  0  0
  3 13  1  0  0  0  0
  4 12  2  0  0  0  0
  4 11  1  0  0  0  0
  6  2  2  0  0  0  0
  7  8  1  6  0  0  0
  9 12  1  6  0  0  0
  9 14  1  0  0  0  0
  9  7  1  0  0  0  0
 10 17  1  1  0  0  0
 10  1  1  0  0  0  0
 11  5  1  0  0  0  0
 11  7  1  0  0  0  0
 13 22  1  0  0  0  0
 14  3  1  1  0  0  0
 15  6  1  0  0  0  0
 15 12  1  0  0  0  0
 16 20  1  0  0  0  0
 17 21  1  0  0  0  0
 18 17  2  0  0  0  0
 19 18  1  0  0  0  0
 19 16  2  0  0  0  0
 20 21  2  0  0  0  0
 22 23  1  0  0  0  0
 23 24  1  0  0  0  0
 24 25  1  0  0  0  0
 25 26  1  6  0  0  0
 25 27  1  0  0  0  0
M  END
>  <MODEL>
4

>  <REMARK>
 VINA RESULT:      -6.3      2.776      5.057
  Name = 
  5 active torsions:
  status: ('A' for Active; 'I' for Inactive)
    1  A    between atoms: C_9  and  C_15
    2  A    between atoms: C_10  and  C_13
    3  A    between atoms: C_10  and  C_20
    4  A    between atoms: N_18  and  C_26
    5  A    between atoms: C_20  and  C_26
                            x       y       z     vdW  Elec       q    Type
                         _______ _______ _______ _____ _____    ______ ____

>  <TORSDO>
F 5

$$$$
=
 OpenBabel11052418253D

 27 30  0  0  1  0  0  0  0  0999 V2000
  189.3510  174.1950  144.8210 C   0  0  0  0  0  2  0  0  0  0  0  0
  191.1070  174.6010  143.0300 C   0  0  0  0  0  0  0  0  0  0  0  0
  191.6480  174.6090  145.4760 C   0  0  0  0  0  2  0  0  0  0  0  0
  194.8850  175.5740  142.1880 N   0  0  0  0  0  0  0  0  0  0  0  0
  196.5010  176.8960  143.5500 C   0  0  0  0  0  1  0  0  0  0  0  0
  191.5080  174.4080  141.7610 C   0  0  0  0  0  3  0  0  0  0  0  0
  194.5640  175.5170  144.5190 C   0  0  2  0  0  3  0  0  0  0  0  0
  195.3390  174.6720  145.5120 C   0  0  0  0  0  1  0  0  0  0  0  0
  193.5070  174.6530  143.8250 C   0  0  2  0  0  3  0  0  0  0  0  0
  189.6420  174.5130  143.3440 C   0  0  2  0  0  3  0  0  0  0  0  0
  195.4310  175.9220  143.4220 N   0  0  0  0  0  0  0  0  0  0  0  0
  193.8320  174.8680  142.3890 C   0  0  0  0  0  0  0  0  0  0  0  0
  190.2360  174.8710  145.7790 N   0  0  0  0  0  0  0  0  0  0  0  0
  192.0700  175.1120  144.0930 C   0  0  1  0  0  3  0  0  0  0  0  0
  192.8730  174.6000  141.3720 N   0  0  0  0  0  2  0  0  0  0  0  0
  187.2700  177.8240  141.9350 C   0  0  0  0  0  3  0  0  0  0  0  0
  188.8360  175.6800  142.8370 C   0  0  0  0  0  0  0  0  0  0  0  0
  189.4330  176.9130  142.5260 C   0  0  0  0  0  3  0  0  0  0  0  0
  188.6520  177.9810  142.0750 C   0  0  0  0  0  3  0  0  0  0  0  0
  186.6690  176.6010  142.2480 C   0  0  0  0  0  3  0  0  0  0  0  0
  187.4510  175.5330  142.6990 C   0  0  0  0  0  3  0  0  0  0  0  0
  189.9620  176.3040  145.8260 C   0  0  0  0  0  2  0  0  0  0  0  0
  188.6470  176.5760  146.5410 C   0  0  0  0  0  2  0  0  0  0  0  0
  187.7840  177.5600  145.7650 C   0  0  0  0  0  2  0  0  0  0  0  0
  186.4650  177.8200  146.4710 C   0  0  1  0  0  3  0  0  0  0  0  0
  185.3230  177.4720  145.5380 C   0  0  0  0  0  1  0  0  0  0  0  0
  186.3770  177.0270  147.6150 O   0  0  0  0  0  1  0  0  0  0  0  0
  1 13  1  0  0  0  0
  2 10  1  0  0  0  0
  2 14  1  0  0  0  0
  3 13  1  0  0  0  0
  4 12  2  0  0  0  0
  4 11  1  0  0  0  0
  6  2  2  0  0  0  0
  7  8  1  1  0  0  0
  9 12  1  6  0  0  0
  9 14  1  0  0  0  0
  9  7  1  0  0  0  0
 10 17  1  1  0  0  0
 10  1  1  0  0  0  0
 11  5  1  0  0  0  0
 11  7  1  0  0  0  0
 13 22  1  0  0  0  0
 14  3  1  1  0  0  0
 15  6  1  0  0  0  0
 15 12  1  0  0  0  0
 16 19  2  0  0  0  0
 16 20  1  0  0  0  0
 18 17  2  0  0  0  0
 19 18  1  0  0  0  0
 20 21  2  0  0  0  0
 21 17  1  0  0  0  0
 22 23  1  0  0  0  0
 24 25  1  0  0  0  0
 24 23  1  0  0  0  0
 25 26  1  6  0  0  0
 25 27  1  0  0  0  0
M  END
>  <MODEL>
5

>  <REMARK>
 VINA RESULT:      -6.1      2.900      7.238
  Name = 
  5 active torsions:
  status: ('A' for Active; 'I' for Inactive)
    1  A    between atoms: C_9  and  C_15
    2  A    between atoms: C_10  and  C_13
    3  A    between atoms: C_10  and  C_20
    4  A    between atoms: N_18  and  C_26
    5  A    between atoms: C_20  and  C_26
                            x       y       z     vdW  Elec       q    Type
                         _______ _______ _______ _____ _____    ______ ____

>  <TORSDO>
F 5

$$$$
=
 OpenBabel11052418253D

 27 30  0  0  1  0  0  0  0  0999 V2000
  191.4880  177.2820  143.2500 C   0  0  0  0  0  2  0  0  0  0  0  0
  193.0910  176.4130  145.0190 C   0  0  0  0  0  0  0  0  0  0  0  0
  193.2670  175.7660  142.6060 C   0  0  0  0  0  2  0  0  0  0  0  0
  196.1240  173.9720  145.8980 N   0  0  0  0  0  0  0  0  0  0  0  0
  196.8100  171.8590  144.7680 C   0  0  0  0  0  1  0  0  0  0  0  0
  193.6880  176.6020  146.2090 C   0  0  0  0  0  3  0  0  0  0  0  0
  195.5760  173.7940  143.6160 C   0  0  2  0  0  3  0  0  0  0  0  0
  196.5160  174.0200  142.4470 C   0  0  0  0  0  1  0  0  0  0  0  0
  195.1040  175.1440  144.1630 C   0  0  2  0  0  3  0  0  0  0  0  0
  191.7880  177.1080  144.7490 C   0  0  2  0  0  3  0  0  0  0  0  0
  196.3040  173.2200  144.7390 N   0  0  0  0  0  0  0  0  0  0  0  0
  195.4740  175.0380  145.5990 C   0  0  0  0  0  0  0  0  0  0  0  0
  191.8590  176.1330  142.4130 N   0  0  0  0  0  0  0  0  0  0  0  0
  193.5910  175.3550  144.0440 C   0  0  1  0  0  3  0  0  0  0  0  0
  194.8650  175.8730  146.5780 N   0  0  0  0  0  2  0  0  0  0  0  0
  188.3920  175.5120  146.8680 C   0  0  0  0  0  3  0  0  0  0  0  0
  190.6200  176.5360  145.5070 C   0  0  0  0  0  0  0  0  0  0  0  0
  190.6920  175.2890  146.1490 C   0  0  0  0  0  3  0  0  0  0  0  0
  189.5830  174.7800  146.8290 C   0  0  0  0  0  3  0  0  0  0  0  0
  188.3120  176.7510  146.2270 C   0  0  0  0  0  3  0  0  0  0  0  0
  189.4220  177.2600  145.5470 C   0  0  0  0  0  3  0  0  0  0  0  0
  190.9780  174.9960  142.6630 C   0  0  0  0  0  2  0  0  0  0  0  0
  189.5840  175.2680  142.1170 C   0  0  0  0  0  2  0  0  0  0  0  0
  188.5290  174.4530  142.8510 C   0  0  0  0  0  2  0  0  0  0  0  0
  188.1190  173.2270  142.0540 C   0  0  1  0  0  3  0  0  0  0  0  0
  188.4640  173.4430  140.5950 C   0  0  0  0  0  1  0  0  0  0  0  0
  188.8040  172.1070  142.5230 O   0  0  0  0  0  1  0  0  0  0  0  0
  1 10  1  0  0  0  0
  2  6  2  0  0  0  0
  6 15  1  0  0  0  0
  7  8  1  6  0  0  0
  7  9  1  0  0  0  0
  7 11  1  0  0  0  0
  9 12  1  1  0  0  0
 10  2  1  0  0  0  0
 10 17  1  6  0  0  0
 11  5  1  0  0  0  0
 11  4  1  0  0  0  0
 12  4  2  0  0  0  0
 12 15  1  0  0  0  0
 13  3  1  0  0  0  0
 13 22  1  0  0  0  0
 13  1  1  0  0  0  0
 14  3  1  6  0  0  0
 14  9  1  0  0  0  0
 14  2  1  0  0  0  0
 17 21  2  0  0  0  0
 17 18  1  0  0  0  0
 18 19  2  0  0  0  0
 19 16  1  0  0  0  0
 20 16  2  0  0  0  0
 21 20  1  0  0  0  0
 23 22  1  0  0  0  0
 23 24  1  0  0  0  0
 25 26  1  6  0  0  0
 25 27  1  0  0  0  0
 25 24  1  0  0  0  0
M  END
>  <MODEL>
6

>  <REMARK>
 VINA RESULT:      -5.8      3.002      6.771
  Name = 
  5 active torsions:
  status: ('A' for Active; 'I' for Inactive)
    1  A    between atoms: C_9  and  C_15
    2  A    between atoms: C_10  and  C_13
    3  A    between atoms: C_10  and  C_20
    4  A    between atoms: N_18  and  C_26
    5  A    between atoms: C_20  and  C_26
                            x       y       z     vdW  Elec       q    Type
                         _______ _______ _______ _____ _____    ______ ____

>  <TORSDO>
F 5

$$$$
=
 OpenBabel11052418253D

 27 30  0  0  1  0  0  0  0  0999 V2000
  190.2170  173.6170  144.0040 C   0  0  0  0  0  2  0  0  0  0  0  0
  189.0180  175.2250  145.5630 C   0  0  0  0  0  0  0  0  0  0  0  0
  188.5190  175.0990  143.1120 C   0  0  0  0  0  2  0  0  0  0  0  0
  186.4290  178.2390  145.9400 N   0  0  0  0  0  0  0  0  0  0  0  0
  185.7840  179.9660  144.2630 C   0  0  0  0  0  1  0  0  0  0  0  0
  188.6070  175.5100  146.8110 C   0  0  0  0  0  3  0  0  0  0  0  0
  186.6130  177.6070  143.6800 C   0  0  2  0  0  3  0  0  0  0  0  0
  185.4780  177.1660  142.7760 C   0  0  0  0  0  1  0  0  0  0  0  0
  187.0310  176.4440  144.5840 C   0  0  2  0  0  3  0  0  0  0  0  0
  190.1840  174.2960  145.3840 C   0  0  2  0  0  3  0  0  0  0  0  0
  186.1390  178.6060  144.6280 N   0  0  0  0  0  0  0  0  0  0  0  0
  186.9110  177.0490  145.9370 C   0  0  0  0  0  0  0  0  0  0  0  0
  189.8320  174.4860  142.8840 N   0  0  0  0  0  0  0  0  0  0  0  0
  188.4750  175.9840  144.3600 C   0  0  1  0  0  3  0  0  0  0  0  0
  187.5840  176.4830  147.0570 N   0  0  0  0  0  2  0  0  0  0  0  0
  193.9450  176.0660  146.5210 C   0  0  0  0  0  3  0  0  0  0  0  0
  191.5110  174.8970  145.7620 C   0  0  0  0  0  0  0  0  0  0  0  0
  192.7090  174.1700  145.6650 C   0  0  0  0  0  3  0  0  0  0  0  0
  193.9220  174.7530  146.0410 C   0  0  0  0  0  3  0  0  0  0  0  0
  192.7560  176.7940  146.6250 C   0  0  0  0  0  3  0  0  0  0  0  0
  191.5430  176.2100  146.2480 C   0  0  0  0  0  3  0  0  0  0  0  0
  190.8520  175.5010  142.6330 C   0  0  0  0  0  2  0  0  0  0  0  0
  192.1530  174.8530  142.1830 C   0  0  0  0  0  2  0  0  0  0  0  0
  191.9940  174.1610  140.8360 C   0  0  0  0  0  2  0  0  0  0  0  0
  192.3450  172.6860  140.9250 C   0  0  1  0  0  3  0  0  0  0  0  0
  193.1470  172.4390  142.1850 C   0  0  0  0  0  1  0  0  0  0  0  0
  191.1770  171.9240  140.9710 O   0  0  0  0  0  1  0  0  0  0  0  0
  1 10  1  0  0  0  0
  2  6  2  0  0  0  0
  5 11  1  0  0  0  0
  6 15  1  0  0  0  0
  7  8  1  6  0  0  0
  7  9  1  0  0  0  0
  7 11  1  0  0  0  0
  9 12  1  1  0  0  0
 10  2  1  0  0  0  0
 10 17  1  6  0  0  0
 11  4  1  0  0  0  0
 12  4  2  0  0  0  0
 12 15  1  0  0  0  0
 13  3  1  0  0  0  0
 13  1  1  0  0  0  0
 14  3  1  6  0  0  0
 14  9  1  0  0  0  0
 14  2  1  0  0  0  0
 16 20  1  0  0  0  0
 17 21  1  0  0  0  0
 18 17  2  0  0  0  0
 18 19  1  0  0  0  0
 19 16  2  0  0  0  0
 21 20  2  0  0  0  0
 22 13  1  0  0  0  0
 23 22  1  0  0  0  0
 24 25  1  0  0  0  0
 24 23  1  0  0  0  0
 25 27  1  0  0  0  0
 25 26  1  1  0  0  0
M  END
>  <MODEL>
7

>  <REMARK>
 VINA RESULT:      -5.8      1.537      2.012
  Name = 
  5 active torsions:
  status: ('A' for Active; 'I' for Inactive)
    1  A    between atoms: C_9  and  C_15
    2  A    between atoms: C_10  and  C_13
    3  A    between atoms: C_10  and  C_20
    4  A    between atoms: N_18  and  C_26
    5  A    between atoms: C_20  and  C_26
                            x       y       z     vdW  Elec       q    Type
                         _______ _______ _______ _____ _____    ______ ____

>  <TORSDO>
F 5

$$$$
=
 OpenBabel11052418253D

 27 30  0  0  1  0  0  0  0  0999 V2000
  190.0480  177.8450  145.5150 C   0  0  0  0  0  2  0  0  0  0  0  0
  189.6700  175.3400  145.3310 C   0  0  0  0  0  0  0  0  0  0  0  0
  190.7470  176.6790  143.5090 C   0  0  0  0  0  2  0  0  0  0  0  0
  189.8680  172.0700  143.0510 N   0  0  0  0  0  0  0  0  0  0  0  0
  189.8020  171.8890  140.5660 C   0  0  0  0  0  1  0  0  0  0  0  0
  189.5140  174.1610  145.9580 C   0  0  0  0  0  3  0  0  0  0  0  0
  190.6540  173.9390  141.8560 C   0  0  2  0  0  3  0  0  0  0  0  0
  192.0190  174.0840  141.2110 C   0  0  0  0  0  1  0  0  0  0  0  0
  190.7680  174.1960  143.3610 C   0  0  2  0  0  3  0  0  0  0  0  0
  189.3380  176.6000  146.0760 C   0  0  2  0  0  3  0  0  0  0  0  0
  190.2130  172.5530  141.7910 N   0  0  0  0  0  0  0  0  0  0  0  0
  190.1750  172.9560  143.9290 C   0  0  0  0  0  0  0  0  0  0  0  0
  190.1300  177.8950  144.0490 N   0  0  0  0  0  0  0  0  0  0  0  0
  189.9600  175.4070  143.8380 C   0  0  1  0  0  3  0  0  0  0  0  0
  189.6930  172.9180  145.2680 N   0  0  0  0  0  2  0  0  0  0  0  0
  185.1330  177.2950  146.7130 C   0  0  0  0  0  3  0  0  0  0  0  0
  187.8630  176.8220  146.2800 C   0  0  0  0  0  0  0  0  0  0  0  0
  186.9260  176.5460  145.2700 C   0  0  0  0  0  3  0  0  0  0  0  0
  185.5650  176.7800  145.4870 C   0  0  0  0  0  3  0  0  0  0  0  0
  186.0610  177.5760  147.7200 C   0  0  0  0  0  3  0  0  0  0  0  0
  187.4220  177.3410  147.5020 C   0  0  0  0  0  3  0  0  0  0  0  0
  188.8160  178.1300  143.4570 C   0  0  0  0  0  2  0  0  0  0  0  0
  188.9020  178.1110  141.9380 C   0  0  0  0  0  2  0  0  0  0  0  0
  187.8360  177.2100  141.3310 C   0  0  0  0  0  2  0  0  0  0  0  0
  186.5320  177.9580  141.1140 C   0  0  1  0  0  3  0  0  0  0  0  0
  185.9480  177.5630  139.7740 C   0  0  0  0  0  1  0  0  0  0  0  0
  185.6260  177.6290  142.1220 O   0  0  0  0  0  1  0  0  0  0  0  0
  1 10  1  0  0  0  0
  2  6  2  0  0  0  0
  2 10  1  0  0  0  0
  3 13  1  0  0  0  0
  4 12  2  0  0  0  0
  5 11  1  0  0  0  0
  7  8  1  6  0  0  0
  7  9  1  0  0  0  0
  9 14  1  0  0  0  0
  9 12  1  1  0  0  0
 10 17  1  6  0  0  0
 11  7  1  0  0  0  0
 11  4  1  0  0  0  0
 12 15  1  0  0  0  0
 13  1  1  0  0  0  0
 14  3  1  1  0  0  0
 14  2  1  0  0  0  0
 15  6  1  0  0  0  0
 16 20  1  0  0  0  0
 17 21  1  0  0  0  0
 18 19  1  0  0  0  0
 18 17  2  0  0  0  0
 19 16  2  0  0  0  0
 21 20  2  0  0  0  0
 22 13  1  0  0  0  0
 23 22  1  0  0  0  0
 24 23  1  0  0  0  0
 25 26  1  6  0  0  0
 25 24  1  0  0  0  0
 25 27  1  0  0  0  0
M  END
>  <MODEL>
8

>  <REMARK>
 VINA RESULT:      -5.7      3.402      6.364
  Name = 
  5 active torsions:
  status: ('A' for Active; 'I' for Inactive)
    1  A    between atoms: C_9  and  C_15
    2  A    between atoms: C_10  and  C_13
    3  A    between atoms: C_10  and  C_20
    4  A    between atoms: N_18  and  C_26
    5  A    between atoms: C_20  and  C_26
                            x       y       z     vdW  Elec       q    Type
                         _______ _______ _______ _____ _____    ______ ____

>  <TORSDO>
F 5

$$$$
=
 OpenBabel11052418253D

 27 30  0  0  1  0  0  0  0  0999 V2000
  192.1960  177.0780  144.3180 C   0  0  0  0  0  2  0  0  0  0  0  0
  189.7970  177.3060  143.5130 C   0  0  0  0  0  0  0  0  0  0  0  0
  190.4110  177.3180  145.9410 C   0  0  0  0  0  2  0  0  0  0  0  0
  185.9320  177.5300  144.4840 N   0  0  0  0  0  0  0  0  0  0  0  0
  184.7770  176.6650  146.5160 C   0  0  0  0  0  1  0  0  0  0  0  0
  188.9530  177.6780  142.5340 C   0  0  0  0  0  3  0  0  0  0  0  0
  187.2480  177.3600  146.4280 C   0  0  2  0  0  3  0  0  0  0  0  0
  187.2670  178.3370  147.5880 C   0  0  0  0  0  1  0  0  0  0  0  0
  188.0890  177.9140  145.2750 C   0  0  2  0  0  3  0  0  0  0  0  0
  191.2070  176.9420  143.1470 C   0  0  2  0  0  3  0  0  0  0  0  0
  185.9110  177.2880  145.8560 N   0  0  0  0  0  0  0  0  0  0  0  0
  187.1200  177.8840  144.1470 C   0  0  0  0  0  0  0  0  0  0  0  0
  191.6700  176.6380  145.6180 N   0  0  0  0  0  0  0  0  0  0  0  0
  189.2980  177.0400  144.9260 C   0  0  1  0  0  3  0  0  0  0  0  0
  187.5650  177.9160  142.7960 N   0  0  0  0  0  2  0  0  0  0  0  0
  191.6510  173.1540  141.1400 C   0  0  0  0  0  3  0  0  0  0  0  0
  191.3350  175.6210  142.4360 C   0  0  0  0  0  0  0  0  0  0  0  0
  190.2270  174.7830  142.2250 C   0  0  0  0  0  3  0  0  0  0  0  0
  190.3850  173.5560  141.5770 C   0  0  0  0  0  3  0  0  0  0  0  0
  192.7580  173.9820  141.3520 C   0  0  0  0  0  3  0  0  0  0  0  0
  192.6000  175.2100  142.0000 C   0  0  0  0  0  3  0  0  0  0  0  0
  191.5120  175.1870  145.6570 C   0  0  0  0  0  2  0  0  0  0  0  0
  192.6530  174.5440  146.4310 C   0  0  0  0  0  2  0  0  0  0  0  0
  193.6830  173.9270  145.4960 C   0  0  0  0  0  2  0  0  0  0  0  0
  195.0270  174.6250  145.6120 C   0  0  1  0  0  3  0  0  0  0  0  0
  195.4310  175.1580  144.2530 C   0  0  0  0  0  1  0  0  0  0  0  0
  194.9320  175.6890  146.5090 O   0  0  0  0  0  1  0  0  0  0  0  0
  1 13  1  0  0  0  0
  2 14  1  0  0  0  0
  4 11  1  0  0  0  0
  6 15  1  0  0  0  0
  6  2  2  0  0  0  0
  7  8  1  1  0  0  0
  9 12  1  6  0  0  0
  9  7  1  0  0  0  0
 10 17  1  1  0  0  0
 10  2  1  0  0  0  0
 10  1  1  0  0  0  0
 11  7  1  0  0  0  0
 11  5  1  0  0  0  0
 12  4  2  0  0  0  0
 13 22  1  0  0  0  0
 13  3  1  0  0  0  0
 14  9  1  0  0  0  0
 14  3  1  1  0  0  0
 15 12  1  0  0  0  0
 16 20  2  0  0  0  0
 16 19  1  0  0  0  0
 18 17  1  0  0  0  0
 19 18  2  0  0  0  0
 20 21  1  0  0  0  0
 21 17  2  0  0  0  0
 22 23  1  0  0  0  0
 24 25  1  0  0  0  0
 24 23  1  0  0  0  0
 25 26  1  6  0  0  0
 25 27  1  0  0  0  0
M  END
>  <MODEL>
9

>  <REMARK>
 VINA RESULT:      -5.6      1.941      3.897
  Name = 
  5 active torsions:
  status: ('A' for Active; 'I' for Inactive)
    1  A    between atoms: C_9  and  C_15
    2  A    between atoms: C_10  and  C_13
    3  A    between atoms: C_10  and  C_20
    4  A    between atoms: N_18  and  C_26
    5  A    between atoms: C_20  and  C_26
                            x       y       z     vdW  Elec       q    Type
                         _______ _______ _______ _____ _____    ______ ____

>  <TORSDO>
F 5

$$$$
