=
 OpenBabel11052419513D

 55 55  0  0  1  0  0  0  0  0999 V2000
  195.4730  175.0500  143.0210 C   0  0  2  0  0  3  0  0  0  0  0  0
  196.5930  176.0820  141.1600 O   0  0  0  0  0  0  0  0  0  0  0  0
  196.4020  176.0600  142.4050 C   0  0  0  0  0  0  0  0  0  0  0  0
  197.0630  177.0060  143.2350 N   0  0  0  0  0  1  0  0  0  0  0  0
  194.8230  175.5830  144.3110 C   0  0  2  0  0  3  0  0  0  0  0  0
  195.4690  174.9920  145.5620 C   0  0  0  0  0  1  0  0  0  0  0  0
  192.8240  175.2520  143.0430 O   0  0  0  0  0  1  0  0  0  0  0  0
  193.2940  175.4310  144.3460 C   0  0  2  0  0  3  0  0  0  0  0  0
  192.0910  177.5020  144.0670 O   0  0  0  0  0  1  0  0  0  0  0  0
  192.5940  176.6170  145.0220 C   0  0  1  0  0  3  0  0  0  0  0  0
  191.4500  176.1220  145.8900 C   0  0  0  0  0  2  0  0  0  0  0  0
  190.0950  176.3710  145.2300 C   0  0  1  0  0  3  0  0  0  0  0  0
  190.1960  173.9740  145.1430 O   0  0  0  0  0  1  0  0  0  0  0  0
  189.3510  175.0650  144.9230 C   0  0  2  0  0  3  0  0  0  0  0  0
  188.8030  175.0260  143.4960 C   0  0  0  0  0  2  0  0  0  0  0  0
  189.8480  174.8080  142.5550 O   0  0  0  0  0  0  0  0  0  0  0  0
  189.9280  173.6510  141.7730 C   0  0  0  0  0  0  0  0  0  0  0  0
  190.7700  172.7500  142.0400 O   0  0  0  0  0  0  0  0  0  0  0  0
  189.0120  173.4780  140.6410 C   0  0  0  0  0  0  0  0  0  0  0  0
  187.8900  172.9310  140.8140 O   0  0  0  0  0  0  0  0  0  0  0  0
  189.3920  173.9120  139.3400 N   0  0  0  0  0  1  0  0  0  0  0  0
  189.2510  177.2970  146.0990 C   0  0  0  0  0  2  0  0  0  0  0  0
  188.0550  176.6480  146.5030 O   0  0  0  0  0  0  0  0  0  0  0  0
  186.2280  177.8460  147.5180 C   0  0  0  0  0  3  0  0  0  0  0  0
  184.8570  177.9000  145.0810 C   0  0  0  0  0  0  0  0  0  0  0  0
  186.1070  177.2820  145.1670 C   0  0  0  0  0  3  0  0  0  0  0  0
  184.9770  178.4640  147.4320 C   0  0  0  0  0  3  0  0  0  0  0  0
  186.8020  177.2530  146.3890 C   0  0  0  0  0  0  0  0  0  0  0  0
  184.1930  177.9250  143.9000 F   0  0  0  0  0  0  0  0  0  0  0  0
  184.2930  178.4920  146.2130 C   0  0  0  0  0  3  0  0  0  0  0  0
  197.5090  173.7040  142.8600 O   0  0  0  0  0  1  0  0  0  0  0  0
  196.1780  173.7060  143.2860 C   0  0  2  0  0  3  0  0  0  0  0  0
  195.4250  172.4390  142.8490 C   0  0  2  0  0  3  0  0  0  0  0  0
  196.4480  171.2750  144.7200 O   0  0  0  0  0  1  0  0  0  0  0  0
  195.3220  171.3140  143.8920 C   0  0  1  0  0  3  0  0  0  0  0  0
  192.8440  171.4600  144.1650 O   0  0  0  0  0  0  0  0  0  0  0  0
  194.1050  171.5160  144.7380 C   0  0  0  0  0  0  0  0  0  0  0  0
  194.2190  171.7700  145.9680 O   0  0  0  0  0  1  0  0  0  0  0  0
  195.9940  171.8980  141.5330 C   0  0  0  0  0  2  0  0  0  0  0  0
  194.9360  171.7450  140.4330 C   0  0  2  0  0  0  0  0  0  0  0  0
  196.7130  170.2060  139.7020 O   0  0  0  0  0  1  0  0  0  0  0  0
  195.6320  170.9810  139.2670 C   0  0  2  0  0  3  0  0  0  0  0  0
  196.0480  171.8860  138.0960 C   0  0  1  0  0  3  0  0  0  0  0  0
  197.4280  172.1020  138.0950 O   0  0  0  0  0  1  0  0  0  0  0  0
  194.3210  170.5870  136.6800 C   0  0  0  0  0  1  0  0  0  0  0  0
  195.6180  171.3120  136.7800 C   0  0  0  0  0  0  0  0  0  0  0  0
  196.3120  171.4480  135.7840 O   0  0  0  0  0  0  0  0  0  0  0  0
  194.5510  173.1880  140.0200 C   0  0  0  0  0  2  0  0  0  0  0  0
  193.1760  173.3580  139.8400 O   0  0  0  0  0  0  0  0  0  0  0  0
  193.0690  174.1400  138.6910 C   0  0  0  0  0  2  0  0  0  0  0  0
  194.2610  175.0750  138.6080 C   0  0  0  0  0  1  0  0  0  0  0  0
  193.8470  171.0240  141.0010 O   0  0  0  0  0  0  0  0  0  0  0  0
  193.4530  169.9550  140.1820 C   0  0  0  0  0  2  0  0  0  0  0  0
  192.7040  168.9260  141.0090 C   0  0  0  0  0  2  0  0  0  0  0  0
  191.6950  169.5500  141.7430 O   0  0  0  0  0  1  0  0  0  0  0  0
  1  3  1  1  0  0  0
  1 32  1  0  0  0  0
  1  5  1  0  0  0  0
  2  3  2  0  0  0  0
  3  4  1  0  0  0  0
  5  8  1  0  0  0  0
  5  6  1  1  0  0  0
  8  7  1  6  0  0  0
  8 10  1  0  0  0  0
 10  9  1  6  0  0  0
 10 11  1  0  0  0  0
 12 11  1  1  0  0  0
 12 22  1  0  0  0  0
 14 13  1  6  0  0  0
 14 12  1  0  0  0  0
 15 14  1  0  0  0  0
 16 15  1  0  0  0  0
 17 18  2  0  0  0  0
 17 16  1  0  0  0  0
 19 20  2  0  0  0  0
 19 17  1  0  0  0  0
 21 19  1  0  0  0  0
 22 23  1  0  0  0  0
 25 26  2  0  0  0  0
 25 30  1  0  0  0  0
 26 28  1  0  0  0  0
 27 24  1  0  0  0  0
 28 23  1  0  0  0  0
 28 24  2  0  0  0  0
 29 25  1  0  0  0  0
 30 27  2  0  0  0  0
 32 31  1  6  0  0  0
 33 39  1  6  0  0  0
 33 32  1  0  0  0  0
 33 35  1  0  0  0  0
 35 34  1  1  0  0  0
 35 37  1  0  0  0  0
 36 37  2  0  0  0  0
 37 38  1  0  0  0  0
 40 48  1  6  0  0  0
 40 52  1  0  0  0  0
 40 39  1  0  0  0  0
 42 41  1  1  0  0  0
 42 40  1  0  0  0  0
 43 44  1  6  0  0  0
 43 42  1  0  0  0  0
 45 46  1  0  0  0  0
 46 43  1  0  0  0  0
 47 46  2  0  0  0  0
 49 48  1  0  0  0  0
 50 49  1  0  0  0  0
 51 50  1  0  0  0  0
 53 52  1  0  0  0  0
 53 54  1  0  0  0  0
 54 55  1  0  0  0  0
M  END
>  <MODEL>
1

>  <REMARK>
 VINA RESULT:      -4.5      0.000      0.000
  Name = 
  29 active torsions:
  status: ('A' for Active; 'I' for Inactive)
    1  A    between atoms: C_1  and  C_30
    2  A    between atoms: O_2  and  C_28
    3  A    between atoms: O_2  and  C_44
    4  A    between atoms: C_6  and  C_8
    5  A    between atoms: C_6  and  O_20
    6  A    between atoms: C_6  and  C_38
    7  A    between atoms: C_6  and  C_46
    8  A    between atoms: C_7  and  C_8
    9  A    between atoms: C_7  and  C_23
   10  A    between atoms: C_7  and  C_43
   11  A    between atoms: C_10  and  C_32
   12  A    between atoms: C_11  and  C_29
   13  A    between atoms: C_11  and  C_38
   14  A    between atoms: C_12  and  O_14
   15  A    between atoms: O_14  and  C_46
   16  A    between atoms: C_16  and  C_17
   17  A    between atoms: C_16  and  C_26
   18  A    between atoms: C_17  and  C_23
   19  A    between atoms: C_17  and  C_37
   20  A    between atoms: O_20  and  C_30
   21  A    between atoms: C_26  and  C_45
   22  A    between atoms: C_28  and  C_33
   23  A    between atoms: C_32  and  O_39
   24  A    between atoms: C_33  and  C_49
   25  A    between atoms: C_33  and  C_52
   26  A    between atoms: C_34  and  O_39
   27  A    between atoms: C_34  and  C_52
   28  A    between atoms: C_35  and  C_43
   29  A    between atoms: C_45  and  C_49
                            x       y       z     vdW  Elec       q    Type
                         _______ _______ _______ _____ _____    ______ ____

>  <TORSDO>
F 29

$$$$
=
 OpenBabel11052419513D

 55 55  0  0  1  0  0  0  0  0999 V2000
  191.3910  172.6380  142.2850 C   0  0  2  0  0  3  0  0  0  0  0  0
  192.7040  173.7710  140.6200 O   0  0  0  0  0  0  0  0  0  0  0  0
  192.0730  173.8470  141.7080 C   0  0  0  0  0  0  0  0  0  0  0  0
  191.9980  175.0920  142.3910 N   0  0  0  0  0  1  0  0  0  0  0  0
  189.9460  172.9490  142.7180 C   0  0  2  0  0  3  0  0  0  0  0  0
  189.4840  172.0440  143.8570 C   0  0  0  0  0  1  0  0  0  0  0  0
  189.3320  172.0060  140.6090 O   0  0  0  0  0  1  0  0  0  0  0  0
  188.9360  172.9500  141.5600 C   0  0  2  0  0  3  0  0  0  0  0  0
  188.0090  174.2470  139.7500 O   0  0  0  0  0  1  0  0  0  0  0  0
  188.7670  174.3340  140.9190 C   0  0  1  0  0  3  0  0  0  0  0  0
  188.0760  175.2760  141.8900 C   0  0  0  0  0  2  0  0  0  0  0  0
  188.6300  176.6960  141.7850 C   0  0  1  0  0  3  0  0  0  0  0  0
  187.8040  178.9500  141.7610 O   0  0  0  0  0  1  0  0  0  0  0  0
  187.5990  177.6800  141.2160 C   0  0  2  0  0  3  0  0  0  0  0  0
  186.1600  177.2270  141.4640 C   0  0  0  0  0  2  0  0  0  0  0  0
  185.3070  178.3430  141.6950 O   0  0  0  0  0  0  0  0  0  0  0  0
  184.3150  178.3410  142.6810 C   0  0  0  0  0  0  0  0  0  0  0  0
  183.1020  178.1710  142.3740 O   0  0  0  0  0  0  0  0  0  0  0  0
  184.6920  178.5220  144.0870 C   0  0  0  0  0  0  0  0  0  0  0  0
  183.8150  178.8220  144.9420 O   0  0  0  0  0  0  0  0  0  0  0  0
  186.0500  178.3790  144.4890 N   0  0  0  0  0  1  0  0  0  0  0  0
  189.1460  177.1600  143.1430 C   0  0  0  0  0  2  0  0  0  0  0  0
  189.0480  176.1120  144.0970 O   0  0  0  0  0  0  0  0  0  0  0  0
  190.3660  175.1040  145.8440 C   0  0  0  0  0  3  0  0  0  0  0  0
  190.1250  177.4090  147.4100 C   0  0  0  0  0  0  0  0  0  0  0  0
  189.5190  177.3510  146.1520 C   0  0  0  0  0  3  0  0  0  0  0  0
  190.9730  175.1620  147.1020 C   0  0  0  0  0  3  0  0  0  0  0  0
  189.6390  176.1960  145.3590 C   0  0  0  0  0  0  0  0  0  0  0  0
  190.0070  178.5250  148.1680 F   0  0  0  0  0  0  0  0  0  0  0  0
  190.8530  176.3150  147.8840 C   0  0  0  0  0  3  0  0  0  0  0  0
  192.4600  172.9640  144.4610 O   0  0  0  0  0  1  0  0  0  0  0  0
  192.1880  172.0320  143.4560 C   0  0  2  0  0  3  0  0  0  0  0  0
  193.4260  171.2000  143.0840 C   0  0  2  0  0  3  0  0  0  0  0  0
  192.6750  169.2120  144.2610 O   0  0  0  0  0  1  0  0  0  0  0  0
  193.2410  169.6740  143.0690 C   0  0  1  0  0  3  0  0  0  0  0  0
  192.6650  169.6880  140.6390 O   0  0  0  0  0  0  0  0  0  0  0  0
  192.3570  169.2810  141.9280 C   0  0  0  0  0  0  0  0  0  0  0  0
  191.3110  168.6070  142.1350 O   0  0  0  0  0  1  0  0  0  0  0  0
  194.6210  171.5850  143.9640 C   0  0  0  0  0  2  0  0  0  0  0  0
  195.8720  171.9550  143.1570 C   0  0  2  0  0  0  0  0  0  0  0  0
  197.6450  173.6280  143.5020 O   0  0  0  0  0  1  0  0  0  0  0  0
  196.2700  173.3910  143.6110 C   0  0  2  0  0  3  0  0  0  0  0  0
  195.7670  173.7560  145.0170 C   0  0  1  0  0  3  0  0  0  0  0  0
  196.7750  173.5930  145.9700 O   0  0  0  0  0  1  0  0  0  0  0  0
  194.7070  175.7030  146.3430 C   0  0  0  0  0  1  0  0  0  0  0  0
  195.2380  175.1580  145.0640 C   0  0  0  0  0  0  0  0  0  0  0  0
  195.2540  175.8630  144.0670 O   0  0  0  0  0  0  0  0  0  0  0  0
  195.4340  171.9270  141.6720 C   0  0  0  0  0  2  0  0  0  0  0  0
  196.2360  172.7230  140.8490 O   0  0  0  0  0  0  0  0  0  0  0  0
  195.9570  172.2800  139.5560 C   0  0  0  0  0  2  0  0  0  0  0  0
  196.4490  173.3090  138.5560 C   0  0  0  0  0  1  0  0  0  0  0  0
  196.8650  170.9790  143.4580 O   0  0  0  0  0  0  0  0  0  0  0  0
  196.4450  170.1170  144.4850 C   0  0  0  0  0  2  0  0  0  0  0  0
  197.4890  170.0870  145.5860 C   0  0  0  0  0  2  0  0  0  0  0  0
  196.9580  169.4870  146.7270 O   0  0  0  0  0  1  0  0  0  0  0  0
  1  3  1  1  0  0  0
  1  5  1  0  0  0  0
  1 32  1  0  0  0  0
  2  3  2  0  0  0  0
  3  4  1  0  0  0  0
  5  6  1  1  0  0  0
  8  7  1  6  0  0  0
  8  5  1  0  0  0  0
 10  9  1  6  0  0  0
 10  8  1  0  0  0  0
 10 11  1  0  0  0  0
 12 11  1  1  0  0  0
 12 22  1  0  0  0  0
 14 15  1  0  0  0  0
 14 13  1  1  0  0  0
 14 12  1  0  0  0  0
 15 16  1  0  0  0  0
 16 17  1  0  0  0  0
 17 19  1  0  0  0  0
 18 17  2  0  0  0  0
 19 21  1  0  0  0  0
 19 20  2  0  0  0  0
 22 23  1  0  0  0  0
 23 28  1  0  0  0  0
 24 27  1  0  0  0  0
 25 30  1  0  0  0  0
 25 29  1  0  0  0  0
 26 25  2  0  0  0  0
 27 30  2  0  0  0  0
 28 24  2  0  0  0  0
 28 26  1  0  0  0  0
 32 31  1  1  0  0  0
 33 32  1  0  0  0  0
 33 39  1  1  0  0  0
 35 33  1  0  0  0  0
 35 34  1  1  0  0  0
 36 37  2  0  0  0  0
 37 38  1  0  0  0  0
 37 35  1  0  0  0  0
 40 48  1  6  0  0  0
 40 52  1  0  0  0  0
 40 42  1  0  0  0  0
 40 39  1  0  0  0  0
 42 41  1  1  0  0  0
 42 43  1  0  0  0  0
 43 46  1  0  0  0  0
 43 44  1  1  0  0  0
 46 45  1  0  0  0  0
 47 46  2  0  0  0  0
 49 48  1  0  0  0  0
 50 49  1  0  0  0  0
 51 50  1  0  0  0  0
 52 53  1  0  0  0  0
 53 54  1  0  0  0  0
 54 55  1  0  0  0  0
M  END
>  <MODEL>
2

>  <REMARK>
 VINA RESULT:      -4.5      2.768      5.803
  Name = 
  29 active torsions:
  status: ('A' for Active; 'I' for Inactive)
    1  A    between atoms: C_1  and  C_30
    2  A    between atoms: O_2  and  C_28
    3  A    between atoms: O_2  and  C_44
    4  A    between atoms: C_6  and  C_8
    5  A    between atoms: C_6  and  O_20
    6  A    between atoms: C_6  and  C_38
    7  A    between atoms: C_6  and  C_46
    8  A    between atoms: C_7  and  C_8
    9  A    between atoms: C_7  and  C_23
   10  A    between atoms: C_7  and  C_43
   11  A    between atoms: C_10  and  C_32
   12  A    between atoms: C_11  and  C_29
   13  A    between atoms: C_11  and  C_38
   14  A    between atoms: C_12  and  O_14
   15  A    between atoms: O_14  and  C_46
   16  A    between atoms: C_16  and  C_17
   17  A    between atoms: C_16  and  C_26
   18  A    between atoms: C_17  and  C_23
   19  A    between atoms: C_17  and  C_37
   20  A    between atoms: O_20  and  C_30
   21  A    between atoms: C_26  and  C_45
   22  A    between atoms: C_28  and  C_33
   23  A    between atoms: C_32  and  O_39
   24  A    between atoms: C_33  and  C_49
   25  A    between atoms: C_33  and  C_52
   26  A    between atoms: C_34  and  O_39
   27  A    between atoms: C_34  and  C_52
   28  A    between atoms: C_35  and  C_43
   29  A    between atoms: C_45  and  C_49
                            x       y       z     vdW  Elec       q    Type
                         _______ _______ _______ _____ _____    ______ ____

>  <TORSDO>
F 29

$$$$
=
 OpenBabel11052419513D

 55 55  0  0  1  0  0  0  0  0999 V2000
  190.8790  173.0880  142.9690 C   0  0  2  0  0  3  0  0  0  0  0  0
  188.5580  172.4660  143.0090 O   0  0  0  0  0  0  0  0  0  0  0  0
  189.6340  172.5960  143.6520 C   0  0  0  0  0  0  0  0  0  0  0  0
  189.6720  172.2650  145.0340 N   0  0  0  0  0  1  0  0  0  0  0  0
  190.6650  174.4620  142.3080 C   0  0  2  0  0  3  0  0  0  0  0  0
  191.9870  175.1390  141.9550 C   0  0  0  0  0  1  0  0  0  0  0  0
  188.5920  175.6520  142.3730 O   0  0  0  0  0  1  0  0  0  0  0  0
  189.7520  175.4040  143.1120 C   0  0  2  0  0  3  0  0  0  0  0  0
  190.0600  177.7500  142.6440 O   0  0  0  0  0  1  0  0  0  0  0  0
  190.4470  176.7160  143.4990 C   0  0  1  0  0  3  0  0  0  0  0  0
  190.0890  177.0930  144.9270 C   0  0  0  0  0  2  0  0  0  0  0  0
  189.7770  175.8580  145.7720 C   0  0  1  0  0  3  0  0  0  0  0  0
  191.2220  176.7500  147.4690 O   0  0  0  0  0  1  0  0  0  0  0  0
  190.8760  175.5720  146.8050 C   0  0  2  0  0  3  0  0  0  0  0  0
  192.1180  174.9380  146.1760 C   0  0  0  0  0  2  0  0  0  0  0  0
  193.3030  175.3900  146.8230 O   0  0  0  0  0  0  0  0  0  0  0  0
  194.5110  175.5670  146.1410 C   0  0  0  0  0  0  0  0  0  0  0  0
  195.4620  174.7510  146.2930 O   0  0  0  0  0  0  0  0  0  0  0  0
  194.6670  176.7050  145.2300 C   0  0  0  0  0  0  0  0  0  0  0  0
  194.8310  177.8660  145.6920 O   0  0  0  0  0  0  0  0  0  0  0  0
  194.6180  176.5070  143.8210 N   0  0  0  0  0  1  0  0  0  0  0  0
  188.4160  176.0100  146.4410 C   0  0  0  0  0  2  0  0  0  0  0  0
  187.3930  176.1370  145.4640 O   0  0  0  0  0  0  0  0  0  0  0  0
  185.9130  177.3620  146.9180 C   0  0  0  0  0  3  0  0  0  0  0  0
  184.5390  178.3970  144.7130 C   0  0  0  0  0  0  0  0  0  0  0  0
  185.6150  177.5270  144.5220 C   0  0  0  0  0  3  0  0  0  0  0  0
  184.8370  178.2340  147.1100 C   0  0  0  0  0  3  0  0  0  0  0  0
  186.3110  177.0050  145.6260 C   0  0  0  0  0  0  0  0  0  0  0  0
  183.8740  178.8970  143.6440 F   0  0  0  0  0  0  0  0  0  0  0  0
  184.1510  178.7520  146.0070 C   0  0  0  0  0  3  0  0  0  0  0  0
  190.5370  171.0000  141.7410 O   0  0  0  0  0  1  0  0  0  0  0  0
  191.4120  172.0710  141.9410 C   0  0  2  0  0  3  0  0  0  0  0  0
  192.8670  171.6080  142.1260 C   0  0  2  0  0  3  0  0  0  0  0  0
  192.8220  170.7750  144.4070 O   0  0  0  0  0  1  0  0  0  0  0  0
  193.4340  171.6970  143.5520 C   0  0  1  0  0  3  0  0  0  0  0  0
  195.3860  170.2070  143.0980 O   0  0  0  0  0  0  0  0  0  0  0  0
  194.9060  171.4340  143.5290 C   0  0  0  0  0  0  0  0  0  0  0  0
  195.7170  172.3120  143.9330 O   0  0  0  0  0  1  0  0  0  0  0  0
  193.7930  172.3240  141.1360 C   0  0  0  0  0  2  0  0  0  0  0  0
  194.0700  171.5080  139.8670 C   0  0  2  0  0  0  0  0  0  0  0  0
  196.2260  172.5620  140.4150 O   0  0  0  0  0  1  0  0  0  0  0  0
  195.6090  171.5750  139.6390 C   0  0  2  0  0  3  0  0  0  0  0  0
  196.0100  171.7160  138.1610 C   0  0  1  0  0  3  0  0  0  0  0  0
  196.7690  172.8710  137.9550 O   0  0  0  0  0  1  0  0  0  0  0  0
  196.0840  169.1910  137.6230 C   0  0  0  0  0  1  0  0  0  0  0  0
  196.7640  170.5140  137.6800 C   0  0  0  0  0  0  0  0  0  0  0  0
  197.9270  170.6110  137.3170 O   0  0  0  0  0  0  0  0  0  0  0  0
  193.2930  172.2220  138.7330 C   0  0  0  0  0  2  0  0  0  0  0  0
  192.9080  173.5230  139.0690 O   0  0  0  0  0  0  0  0  0  0  0  0
  192.9570  174.2230  137.8640 C   0  0  0  0  0  2  0  0  0  0  0  0
  194.1080  175.2100  137.9020 C   0  0  0  0  0  1  0  0  0  0  0  0
  193.5990  170.1870  140.1120 O   0  0  0  0  0  0  0  0  0  0  0  0
  192.7730  169.7320  139.0710 C   0  0  0  0  0  2  0  0  0  0  0  0
  191.9340  168.5650  139.5570 C   0  0  0  0  0  2  0  0  0  0  0  0
  190.6410  168.6630  139.0450 O   0  0  0  0  0  1  0  0  0  0  0  0
  1  3  1  6  0  0  0
  2  3  2  0  0  0  0
  3  4  1  0  0  0  0
  5  6  1  1  0  0  0
  5  1  1  0  0  0  0
  5  8  1  0  0  0  0
  8  7  1  6  0  0  0
  8 10  1  0  0  0  0
 10  9  1  6  0  0  0
 10 11  1  0  0  0  0
 12 11  1  1  0  0  0
 12 22  1  0  0  0  0
 12 14  1  0  0  0  0
 14 13  1  6  0  0  0
 15 14  1  0  0  0  0
 15 16  1  0  0  0  0
 17 18  2  0  0  0  0
 17 16  1  0  0  0  0
 19 20  2  0  0  0  0
 19 17  1  0  0  0  0
 21 19  1  0  0  0  0
 23 28  1  0  0  0  0
 23 22  1  0  0  0  0
 24 27  1  0  0  0  0
 25 30  1  0  0  0  0
 26 25  2  0  0  0  0
 26 28  1  0  0  0  0
 28 24  2  0  0  0  0
 29 25  1  0  0  0  0
 30 27  2  0  0  0  0
 32 31  1  1  0  0  0
 32 33  1  0  0  0  0
 32  1  1  0  0  0  0
 33 39  1  6  0  0  0
 33 35  1  0  0  0  0
 35 34  1  1  0  0  0
 36 37  2  0  0  0  0
 37 35  1  0  0  0  0
 37 38  1  0  0  0  0
 40 48  1  6  0  0  0
 40 52  1  0  0  0  0
 40 39  1  0  0  0  0
 42 40  1  0  0  0  0
 42 41  1  1  0  0  0
 43 44  1  1  0  0  0
 43 42  1  0  0  0  0
 45 46  1  0  0  0  0
 46 43  1  0  0  0  0
 47 46  2  0  0  0  0
 48 49  1  0  0  0  0
 50 51  1  0  0  0  0
 50 49  1  0  0  0  0
 53 54  1  0  0  0  0
 53 52  1  0  0  0  0
 55 54  1  0  0  0  0
M  END
>  <MODEL>
3

>  <REMARK>
 VINA RESULT:      -4.5      1.973      4.045
  Name = 
  29 active torsions:
  status: ('A' for Active; 'I' for Inactive)
    1  A    between atoms: C_1  and  C_30
    2  A    between atoms: O_2  and  C_28
    3  A    between atoms: O_2  and  C_44
    4  A    between atoms: C_6  and  C_8
    5  A    between atoms: C_6  and  O_20
    6  A    between atoms: C_6  and  C_38
    7  A    between atoms: C_6  and  C_46
    8  A    between atoms: C_7  and  C_8
    9  A    between atoms: C_7  and  C_23
   10  A    between atoms: C_7  and  C_43
   11  A    between atoms: C_10  and  C_32
   12  A    between atoms: C_11  and  C_29
   13  A    between atoms: C_11  and  C_38
   14  A    between atoms: C_12  and  O_14
   15  A    between atoms: O_14  and  C_46
   16  A    between atoms: C_16  and  C_17
   17  A    between atoms: C_16  and  C_26
   18  A    between atoms: C_17  and  C_23
   19  A    between atoms: C_17  and  C_37
   20  A    between atoms: O_20  and  C_30
   21  A    between atoms: C_26  and  C_45
   22  A    between atoms: C_28  and  C_33
   23  A    between atoms: C_32  and  O_39
   24  A    between atoms: C_33  and  C_49
   25  A    between atoms: C_33  and  C_52
   26  A    between atoms: C_34  and  O_39
   27  A    between atoms: C_34  and  C_52
   28  A    between atoms: C_35  and  C_43
   29  A    between atoms: C_45  and  C_49
                            x       y       z     vdW  Elec       q    Type
                         _______ _______ _______ _____ _____    ______ ____

>  <TORSDO>
F 29

$$$$
=
 OpenBabel11052419513D

 55 55  0  0  1  0  0  0  0  0999 V2000
  190.2940  173.6820  141.5300 C   0  0  2  0  0  3  0  0  0  0  0  0
  188.0270  172.8910  141.4000 O   0  0  0  0  0  0  0  0  0  0  0  0
  188.9390  173.5900  140.8840 C   0  0  0  0  0  0  0  0  0  0  0  0
  188.6820  174.3070  139.6830 N   0  0  0  0  0  1  0  0  0  0  0  0
  190.7010  175.1420  141.7990 C   0  0  2  0  0  3  0  0  0  0  0  0
  192.1570  175.2560  142.2440 C   0  0  0  0  0  1  0  0  0  0  0  0
  189.1710  176.9560  142.0920 O   0  0  0  0  0  1  0  0  0  0  0  0
  189.7620  175.8830  142.7650 C   0  0  2  0  0  3  0  0  0  0  0  0
  190.3420  177.7410  144.1890 O   0  0  0  0  0  1  0  0  0  0  0  0
  190.4740  176.3590  144.0370 C   0  0  1  0  0  3  0  0  0  0  0  0
  189.8840  175.6680  145.2550 C   0  0  0  0  0  2  0  0  0  0  0  0
  189.8650  176.5930  146.4710 C   0  0  1  0  0  3  0  0  0  0  0  0
  187.9250  175.5290  147.4040 O   0  0  0  0  0  1  0  0  0  0  0  0
  188.4510  176.7710  147.0400 C   0  0  2  0  0  3  0  0  0  0  0  0
  187.5100  177.4740  146.0600 C   0  0  0  0  0  2  0  0  0  0  0  0
  186.7260  176.5290  145.3410 O   0  0  0  0  0  0  0  0  0  0  0  0
  185.8690  176.8990  144.3000 C   0  0  0  0  0  0  0  0  0  0  0  0
  185.9650  176.3610  143.1630 O   0  0  0  0  0  0  0  0  0  0  0  0
  184.8370  177.9140  144.5390 C   0  0  0  0  0  0  0  0  0  0  0  0
  184.3520  178.0620  145.6930 O   0  0  0  0  0  0  0  0  0  0  0  0
  184.3670  178.7250  143.4670 N   0  0  0  0  0  1  0  0  0  0  0  0
  190.8290  176.0810  147.5350 C   0  0  0  0  0  2  0  0  0  0  0  0
  192.1110  176.6690  147.3700 O   0  0  0  0  0  0  0  0  0  0  0  0
  193.1910  174.7100  146.4770 C   0  0  0  0  0  3  0  0  0  0  0  0
  194.9490  176.3060  144.9980 C   0  0  0  0  0  0  0  0  0  0  0  0
  193.9800  176.8990  145.8100 C   0  0  0  0  0  3  0  0  0  0  0  0
  194.1610  174.1160  145.6640 C   0  0  0  0  0  3  0  0  0  0  0  0
  193.0920  176.1030  146.5550 C   0  0  0  0  0  0  0  0  0  0  0  0
  195.8000  177.0790  144.2830 F   0  0  0  0  0  0  0  0  0  0  0  0
  195.0380  174.9130  144.9240 C   0  0  0  0  0  3  0  0  0  0  0  0
  191.0260  172.8310  139.3560 O   0  0  0  0  0  1  0  0  0  0  0  0
  191.3770  172.9620  140.7030 C   0  0  2  0  0  3  0  0  0  0  0  0
  191.9310  171.6540  141.2900 C   0  0  2  0  0  3  0  0  0  0  0  0
  190.9000  169.5890  142.0470 O   0  0  0  0  0  1  0  0  0  0  0  0
  191.0500  170.9490  142.3340 C   0  0  1  0  0  3  0  0  0  0  0  0
  191.4900  172.2670  144.4090 O   0  0  0  0  0  1  0  0  0  0  0  0
  191.6610  171.0930  143.6930 C   0  0  0  0  0  0  0  0  0  0  0  0
  192.3600  170.1630  144.1790 O   0  0  0  0  0  0  0  0  0  0  0  0
  193.3470  171.8640  141.8380 C   0  0  0  0  0  2  0  0  0  0  0  0
  194.4200  171.0990  141.0520 C   0  0  2  0  0  0  0  0  0  0  0  0
  195.1810  169.3310  142.5850 O   0  0  0  0  0  1  0  0  0  0  0  0
  195.4620  170.6140  142.1030 C   0  0  2  0  0  3  0  0  0  0  0  0
  195.6700  171.5970  143.2670 C   0  0  1  0  0  3  0  0  0  0  0  0
  195.3650  170.9990  144.4910 O   0  0  0  0  0  1  0  0  0  0  0  0
  197.9410  171.8610  144.4690 C   0  0  0  0  0  1  0  0  0  0  0  0
  197.0710  172.1300  143.2910 C   0  0  0  0  0  0  0  0  0  0  0  0
  197.5120  172.7660  142.3460 O   0  0  0  0  0  0  0  0  0  0  0  0
  195.0340  172.1300  140.0730 C   0  0  0  0  0  2  0  0  0  0  0  0
  194.7850  173.4540  140.4440 O   0  0  0  0  0  0  0  0  0  0  0  0
  195.1750  174.2060  139.3360 C   0  0  0  0  0  2  0  0  0  0  0  0
  193.9780  174.9700  138.8020 C   0  0  0  0  0  1  0  0  0  0  0  0
  193.7610  170.0280  140.3840 O   0  0  0  0  0  0  0  0  0  0  0  0
  194.5810  169.4490  139.4030 C   0  0  0  0  0  2  0  0  0  0  0  0
  193.7510  169.1090  138.1780 C   0  0  0  0  0  2  0  0  0  0  0  0
  193.7200  170.1970  137.3080 O   0  0  0  0  0  1  0  0  0  0  0  0
  1  3  1  6  0  0  0
  1  5  1  0  0  0  0
  3  2  2  0  0  0  0
  4  3  1  0  0  0  0
  5  6  1  1  0  0  0
  5  8  1  0  0  0  0
  8  7  1  6  0  0  0
  8 10  1  0  0  0  0
 10  9  1  1  0  0  0
 10 11  1  0  0  0  0
 12 11  1  6  0  0  0
 12 14  1  0  0  0  0
 12 22  1  0  0  0  0
 14 13  1  6  0  0  0
 15 14  1  0  0  0  0
 16 15  1  0  0  0  0
 17 19  1  0  0  0  0
 17 16  1  0  0  0  0
 18 17  2  0  0  0  0
 19 20  2  0  0  0  0
 21 19  1  0  0  0  0
 23 22  1  0  0  0  0
 24 28  1  0  0  0  0
 25 26  1  0  0  0  0
 26 28  2  0  0  0  0
 27 24  2  0  0  0  0
 28 23  1  0  0  0  0
 29 25  1  0  0  0  0
 30 25  2  0  0  0  0
 30 27  1  0  0  0  0
 32 31  1  6  0  0  0
 32 33  1  0  0  0  0
 32  1  1  0  0  0  0
 33 39  1  1  0  0  0
 33 35  1  0  0  0  0
 35 34  1  6  0  0  0
 35 37  1  0  0  0  0
 37 38  2  0  0  0  0
 37 36  1  0  0  0  0
 40 48  1  6  0  0  0
 40 39  1  0  0  0  0
 40 42  1  0  0  0  0
 42 41  1  1  0  0  0
 42 43  1  0  0  0  0
 43 46  1  0  0  0  0
 43 44  1  1  0  0  0
 46 45  1  0  0  0  0
 47 46  2  0  0  0  0
 48 49  1  0  0  0  0
 50 49  1  0  0  0  0
 51 50  1  0  0  0  0
 52 40  1  0  0  0  0
 53 52  1  0  0  0  0
 54 53  1  0  0  0  0
 55 54  1  0  0  0  0
M  END
>  <MODEL>
4

>  <REMARK>
 VINA RESULT:      -4.5      2.737      5.760
  Name = 
  29 active torsions:
  status: ('A' for Active; 'I' for Inactive)
    1  A    between atoms: C_1  and  C_30
    2  A    between atoms: O_2  and  C_28
    3  A    between atoms: O_2  and  C_44
    4  A    between atoms: C_6  and  C_8
    5  A    between atoms: C_6  and  O_20
    6  A    between atoms: C_6  and  C_38
    7  A    between atoms: C_6  and  C_46
    8  A    between atoms: C_7  and  C_8
    9  A    between atoms: C_7  and  C_23
   10  A    between atoms: C_7  and  C_43
   11  A    between atoms: C_10  and  C_32
   12  A    between atoms: C_11  and  C_29
   13  A    between atoms: C_11  and  C_38
   14  A    between atoms: C_12  and  O_14
   15  A    between atoms: O_14  and  C_46
   16  A    between atoms: C_16  and  C_17
   17  A    between atoms: C_16  and  C_26
   18  A    between atoms: C_17  and  C_23
   19  A    between atoms: C_17  and  C_37
   20  A    between atoms: O_20  and  C_30
   21  A    between atoms: C_26  and  C_45
   22  A    between atoms: C_28  and  C_33
   23  A    between atoms: C_32  and  O_39
   24  A    between atoms: C_33  and  C_49
   25  A    between atoms: C_33  and  C_52
   26  A    between atoms: C_34  and  O_39
   27  A    between atoms: C_34  and  C_52
   28  A    between atoms: C_35  and  C_43
   29  A    between atoms: C_45  and  C_49
                            x       y       z     vdW  Elec       q    Type
                         _______ _______ _______ _____ _____    ______ ____

>  <TORSDO>
F 29

$$$$
=
 OpenBabel11052419513D

 55 55  0  0  1  0  0  0  0  0999 V2000
  195.3520  174.9120  143.1500 C   0  0  2  0  0  3  0  0  0  0  0  0
  196.1310  176.1470  141.2400 O   0  0  0  0  0  0  0  0  0  0  0  0
  196.1560  175.9990  142.4910 C   0  0  0  0  0  0  0  0  0  0  0  0
  196.9430  176.8740  143.2870 N   0  0  0  0  0  1  0  0  0  0  0  0
  194.6770  175.4050  144.4430 C   0  0  2  0  0  3  0  0  0  0  0  0
  195.3060  174.7840  145.6890 C   0  0  0  0  0  1  0  0  0  0  0  0
  192.6260  175.8120  143.2850 O   0  0  0  0  0  1  0  0  0  0  0  0
  193.1480  175.2410  144.4480 C   0  0  2  0  0  3  0  0  0  0  0  0
  192.3410  177.2240  145.5590 O   0  0  0  0  0  1  0  0  0  0  0  0
  192.4910  175.8430  145.6970 C   0  0  1  0  0  3  0  0  0  0  0  0
  191.1240  175.2160  145.9190 C   0  0  0  0  0  2  0  0  0  0  0  0
  190.0210  176.0120  145.2240 C   0  0  1  0  0  3  0  0  0  0  0  0
  189.7900  173.8780  144.1500 O   0  0  0  0  0  1  0  0  0  0  0  0
  189.2370  175.1590  144.2180 C   0  0  2  0  0  3  0  0  0  0  0  0
  189.1940  175.7880  142.8250 C   0  0  0  0  0  2  0  0  0  0  0  0
  187.8960  175.6720  142.2540 O   0  0  0  0  0  0  0  0  0  0  0  0
  187.6190  176.0410  140.9330 C   0  0  0  0  0  0  0  0  0  0  0  0
  187.9560  175.2960  139.9720 O   0  0  0  0  0  0  0  0  0  0  0  0
  186.9180  177.3010  140.6670 C   0  0  0  0  0  0  0  0  0  0  0  0
  186.9820  178.2480  141.4960 O   0  0  0  0  0  0  0  0  0  0  0  0
  186.1470  177.4540  139.4800 N   0  0  0  0  0  1  0  0  0  0  0  0
  189.0940  176.6390  146.2590 C   0  0  0  0  0  2  0  0  0  0  0  0
  187.7610  176.1880  146.0710 O   0  0  0  0  0  0  0  0  0  0  0  0
  185.4970  176.8220  146.6000 C   0  0  0  0  0  3  0  0  0  0  0  0
  185.7000  179.0710  144.9500 C   0  0  0  0  0  0  0  0  0  0  0  0
  186.7850  178.2020  145.0850 C   0  0  0  0  0  3  0  0  0  0  0  0
  184.4110  177.6920  146.4650 C   0  0  0  0  0  3  0  0  0  0  0  0
  186.6900  177.0710  145.9140 C   0  0  0  0  0  0  0  0  0  0  0  0
  185.7990  180.1600  144.1510 F   0  0  0  0  0  0  0  0  0  0  0  0
  184.5130  178.8170  145.6420 C   0  0  0  0  0  3  0  0  0  0  0  0
  197.4890  173.7490  142.8950 O   0  0  0  0  0  1  0  0  0  0  0  0
  196.2010  173.6560  143.4290 C   0  0  2  0  0  3  0  0  0  0  0  0
  195.5420  172.3010  143.1240 C   0  0  2  0  0  3  0  0  0  0  0  0
  194.6830  170.1810  143.9410 O   0  0  0  0  0  1  0  0  0  0  0  0
  195.2580  171.3950  144.3320 C   0  0  1  0  0  3  0  0  0  0  0  0
  196.9110  171.9170  146.1300 O   0  0  0  0  0  1  0  0  0  0  0  0
  196.5320  171.1130  145.0650 C   0  0  0  0  0  0  0  0  0  0  0  0
  197.2820  170.1680  144.7010 O   0  0  0  0  0  0  0  0  0  0  0  0
  196.3380  171.5400  142.0580 C   0  0  0  0  0  2  0  0  0  0  0  0
  195.5900  171.4050  140.7250 C   0  0  2  0  0  0  0  0  0  0  0  0
  197.9410  171.4800  140.0000 O   0  0  0  0  0  1  0  0  0  0  0  0
  196.6240  171.7530  139.6140 C   0  0  2  0  0  3  0  0  0  0  0  0
  196.5010  173.1910  139.0830 C   0  0  1  0  0  3  0  0  0  0  0  0
  197.6590  173.9260  139.3500 O   0  0  0  0  0  1  0  0  0  0  0  0
  196.7890  172.1570  136.7330 C   0  0  0  0  0  1  0  0  0  0  0  0
  196.2100  173.2090  137.6120 C   0  0  0  0  0  0  0  0  0  0  0  0
  195.4890  174.0700  137.1310 O   0  0  0  0  0  0  0  0  0  0  0  0
  194.4430  172.4430  140.7830 C   0  0  0  0  0  2  0  0  0  0  0  0
  193.2080  171.9180  140.3930 O   0  0  0  0  0  0  0  0  0  0  0  0
  192.3080  172.3980  141.3430 C   0  0  0  0  0  2  0  0  0  0  0  0
  191.7460  171.2340  142.1360 C   0  0  0  0  0  1  0  0  0  0  0  0
  195.1180  170.0630  140.6480 O   0  0  0  0  0  0  0  0  0  0  0  0
  195.4140  169.4840  139.4030 C   0  0  0  0  0  2  0  0  0  0  0  0
  194.1240  169.1170  138.6920 C   0  0  0  0  0  2  0  0  0  0  0  0
  193.8050  170.0970  137.7520 O   0  0  0  0  0  1  0  0  0  0  0  0
  1  3  1  1  0  0  0
  1 32  1  0  0  0  0
  1  5  1  0  0  0  0
  2  3  2  0  0  0  0
  3  4  1  0  0  0  0
  5  8  1  0  0  0  0
  5  6  1  1  0  0  0
  8  7  1  6  0  0  0
  8 10  1  0  0  0  0
 10  9  1  6  0  0  0
 10 11  1  0  0  0  0
 12 11  1  1  0  0  0
 12 22  1  0  0  0  0
 14 13  1  6  0  0  0
 14 12  1  0  0  0  0
 15 14  1  0  0  0  0
 16 15  1  0  0  0  0
 17 16  1  0  0  0  0
 18 17  2  0  0  0  0
 19 17  1  0  0  0  0
 19 20  2  0  0  0  0
 21 19  1  0  0  0  0
 23 22  1  0  0  0  0
 25 26  2  0  0  0  0
 25 30  1  0  0  0  0
 26 28  1  0  0  0  0
 27 24  1  0  0  0  0
 28 23  1  0  0  0  0
 28 24  2  0  0  0  0
 29 25  1  0  0  0  0
 30 27  2  0  0  0  0
 32 31  1  6  0  0  0
 33 39  1  6  0  0  0
 33 32  1  0  0  0  0
 33 35  1  0  0  0  0
 35 34  1  6  0  0  0
 35 37  1  0  0  0  0
 37 36  1  0  0  0  0
 38 37  2  0  0  0  0
 40 48  1  6  0  0  0
 40 39  1  0  0  0  0
 42 41  1  1  0  0  0
 42 40  1  0  0  0  0
 43 44  1  6  0  0  0
 43 42  1  0  0  0  0
 45 46  1  0  0  0  0
 46 43  1  0  0  0  0
 47 46  2  0  0  0  0
 49 48  1  0  0  0  0
 49 50  1  0  0  0  0
 50 51  1  0  0  0  0
 52 40  1  0  0  0  0
 53 52  1  0  0  0  0
 54 53  1  0  0  0  0
 55 54  1  0  0  0  0
M  END
>  <MODEL>
5

>  <REMARK>
 VINA RESULT:      -4.3      1.813      2.325
  Name = 
  29 active torsions:
  status: ('A' for Active; 'I' for Inactive)
    1  A    between atoms: C_1  and  C_30
    2  A    between atoms: O_2  and  C_28
    3  A    between atoms: O_2  and  C_44
    4  A    between atoms: C_6  and  C_8
    5  A    between atoms: C_6  and  O_20
    6  A    between atoms: C_6  and  C_38
    7  A    between atoms: C_6  and  C_46
    8  A    between atoms: C_7  and  C_8
    9  A    between atoms: C_7  and  C_23
   10  A    between atoms: C_7  and  C_43
   11  A    between atoms: C_10  and  C_32
   12  A    between atoms: C_11  and  C_29
   13  A    between atoms: C_11  and  C_38
   14  A    between atoms: C_12  and  O_14
   15  A    between atoms: O_14  and  C_46
   16  A    between atoms: C_16  and  C_17
   17  A    between atoms: C_16  and  C_26
   18  A    between atoms: C_17  and  C_23
   19  A    between atoms: C_17  and  C_37
   20  A    between atoms: O_20  and  C_30
   21  A    between atoms: C_26  and  C_45
   22  A    between atoms: C_28  and  C_33
   23  A    between atoms: C_32  and  O_39
   24  A    between atoms: C_33  and  C_49
   25  A    between atoms: C_33  and  C_52
   26  A    between atoms: C_34  and  O_39
   27  A    between atoms: C_34  and  C_52
   28  A    between atoms: C_35  and  C_43
   29  A    between atoms: C_45  and  C_49
                            x       y       z     vdW  Elec       q    Type
                         _______ _______ _______ _____ _____    ______ ____

>  <TORSDO>
F 29

$$$$
=
 OpenBabel11052419513D

 55 55  0  0  1  0  0  0  0  0999 V2000
  191.7400  172.7100  141.8420 C   0  0  2  0  0  3  0  0  0  0  0  0
  189.6150  172.2010  140.8390 O   0  0  0  0  0  0  0  0  0  0  0  0
  190.3660  173.0730  141.3530 C   0  0  0  0  0  0  0  0  0  0  0  0
  189.9040  174.4120  141.4800 N   0  0  0  0  0  1  0  0  0  0  0  0
  192.0210  173.2880  143.2410 C   0  0  2  0  0  3  0  0  0  0  0  0
  193.5160  173.4680  143.4960 C   0  0  0  0  0  1  0  0  0  0  0  0
  191.3180  171.1520  144.0510 O   0  0  0  0  0  1  0  0  0  0  0  0
  191.3490  172.5090  144.3830 C   0  0  2  0  0  3  0  0  0  0  0  0
  189.3710  172.2870  145.7460 O   0  0  0  0  0  1  0  0  0  0  0  0
  189.9410  173.0250  144.7070 C   0  0  1  0  0  3  0  0  0  0  0  0
  190.0030  174.4880  145.1130 C   0  0  0  0  0  2  0  0  0  0  0  0
  189.7240  174.6680  146.6040 C   0  0  1  0  0  3  0  0  0  0  0  0
  190.6830  176.6320  147.6000 O   0  0  0  0  0  1  0  0  0  0  0  0
  190.9210  175.2780  147.3470 C   0  0  2  0  0  3  0  0  0  0  0  0
  192.2330  175.1090  146.5800 C   0  0  0  0  0  2  0  0  0  0  0  0
  192.9570  176.3330  146.5330 O   0  0  0  0  0  0  0  0  0  0  0  0
  193.3820  176.9100  145.3310 C   0  0  0  0  0  0  0  0  0  0  0  0
  194.5880  177.2440  145.1680 O   0  0  0  0  0  0  0  0  0  0  0  0
  192.4180  177.1120  144.2450 C   0  0  0  0  0  0  0  0  0  0  0  0
  192.6670  176.6760  143.0890 O   0  0  0  0  0  0  0  0  0  0  0  0
  191.2050  177.8170  144.4860 N   0  0  0  0  0  1  0  0  0  0  0  0
  188.4640  175.5030  146.8060 C   0  0  0  0  0  2  0  0  0  0  0  0
  188.0690  176.1100  145.5840 O   0  0  0  0  0  0  0  0  0  0  0  0
  185.8650  176.7620  146.3090 C   0  0  0  0  0  3  0  0  0  0  0  0
  185.9040  178.9610  144.5800 C   0  0  0  0  0  0  0  0  0  0  0  0
  186.9990  178.0950  144.6360 C   0  0  0  0  0  3  0  0  0  0  0  0
  184.7700  177.6280  146.2530 C   0  0  0  0  0  3  0  0  0  0  0  0
  186.9870  176.9890  145.5040 C   0  0  0  0  0  0  0  0  0  0  0  0
  185.9240  180.0250  143.7430 F   0  0  0  0  0  0  0  0  0  0  0  0
  184.7900  178.7280  145.3900 C   0  0  0  0  0  3  0  0  0  0  0  0
  192.6820  174.4590  140.4150 O   0  0  0  0  0  1  0  0  0  0  0  0
  192.8380  173.1400  140.8490 C   0  0  2  0  0  3  0  0  0  0  0  0
  193.1270  172.1750  139.6880 C   0  0  2  0  0  3  0  0  0  0  0  0
  195.1340  171.6350  140.9440 O   0  0  0  0  0  1  0  0  0  0  0  0
  194.3430  171.2500  139.8580 C   0  0  1  0  0  3  0  0  0  0  0  0
  194.2500  168.8500  139.1740 O   0  0  0  0  0  0  0  0  0  0  0  0
  193.8820  169.8420  140.0700 C   0  0  0  0  0  0  0  0  0  0  0  0
  193.1330  169.5560  141.0420 O   0  0  0  0  0  1  0  0  0  0  0  0
  193.2180  172.9380  138.3610 C   0  0  0  0  0  2  0  0  0  0  0  0
  192.2260  172.4340  137.3040 C   0  0  2  0  0  0  0  0  0  0  0  0
  192.2980  172.0920  134.8680 O   0  0  0  0  0  1  0  0  0  0  0  0
  193.0710  172.1220  136.0340 C   0  0  2  0  0  3  0  0  0  0  0  0
  193.9210  170.8460  136.1540 C   0  0  1  0  0  3  0  0  0  0  0  0
  193.5390  169.8960  135.2030 O   0  0  0  0  0  1  0  0  0  0  0  0
  196.3710  170.3800  136.8290 C   0  0  0  0  0  1  0  0  0  0  0  0
  195.3830  171.1470  136.0200 C   0  0  0  0  0  0  0  0  0  0  0  0
  195.7750  172.0030  135.2410 O   0  0  0  0  0  0  0  0  0  0  0  0
  191.2430  173.6060  137.0620 C   0  0  0  0  0  2  0  0  0  0  0  0
  190.2330  173.6820  138.0260 O   0  0  0  0  0  0  0  0  0  0  0  0
  189.0920  174.0380  137.3080 C   0  0  0  0  0  2  0  0  0  0  0  0
  189.4990  174.5300  135.9310 C   0  0  0  0  0  1  0  0  0  0  0  0
  191.5900  171.2820  137.8480 O   0  0  0  0  0  0  0  0  0  0  0  0
  190.6140  170.7720  136.9760 C   0  0  0  0  0  2  0  0  0  0  0  0
  189.7070  169.8160  137.7280 C   0  0  0  0  0  2  0  0  0  0  0  0
  190.3130  169.4250  138.9220 O   0  0  0  0  0  1  0  0  0  0  0  0
  1  3  1  6  0  0  0
  1  5  1  0  0  0  0
  2  3  2  0  0  0  0
  3  4  1  0  0  0  0
  5  6  1  1  0  0  0
  5  8  1  0  0  0  0
  8  7  1  6  0  0  0
  8 10  1  0  0  0  0
 10 11  1  0  0  0  0
 10  9  1  1  0  0  0
 12 11  1  6  0  0  0
 12 22  1  0  0  0  0
 12 14  1  0  0  0  0
 14 13  1  6  0  0  0
 15 14  1  0  0  0  0
 16 15  1  0  0  0  0
 17 16  1  0  0  0  0
 18 17  2  0  0  0  0
 19 21  1  0  0  0  0
 19 17  1  0  0  0  0
 20 19  2  0  0  0  0
 23 22  1  0  0  0  0
 25 26  2  0  0  0  0
 25 30  1  0  0  0  0
 26 28  1  0  0  0  0
 27 24  1  0  0  0  0
 28 23  1  0  0  0  0
 28 24  2  0  0  0  0
 29 25  1  0  0  0  0
 30 27  2  0  0  0  0
 32 31  1  6  0  0  0
 32  1  1  0  0  0  0
 33 39  1  6  0  0  0
 33 35  1  0  0  0  0
 33 32  1  0  0  0  0
 35 37  1  0  0  0  0
 35 34  1  1  0  0  0
 36 37  2  0  0  0  0
 37 38  1  0  0  0  0
 40 48  1  6  0  0  0
 40 52  1  0  0  0  0
 40 39  1  0  0  0  0
 42 41  1  6  0  0  0
 42 43  1  0  0  0  0
 42 40  1  0  0  0  0
 43 44  1  6  0  0  0
 46 43  1  0  0  0  0
 46 45  1  0  0  0  0
 47 46  2  0  0  0  0
 48 49  1  0  0  0  0
 50 49  1  0  0  0  0
 51 50  1  0  0  0  0
 53 54  1  0  0  0  0
 53 52  1  0  0  0  0
 54 55  1  0  0  0  0
M  END
>  <MODEL>
6

>  <REMARK>
 VINA RESULT:      -4.3      2.367      4.452
  Name = 
  29 active torsions:
  status: ('A' for Active; 'I' for Inactive)
    1  A    between atoms: C_1  and  C_30
    2  A    between atoms: O_2  and  C_28
    3  A    between atoms: O_2  and  C_44
    4  A    between atoms: C_6  and  C_8
    5  A    between atoms: C_6  and  O_20
    6  A    between atoms: C_6  and  C_38
    7  A    between atoms: C_6  and  C_46
    8  A    between atoms: C_7  and  C_8
    9  A    between atoms: C_7  and  C_23
   10  A    between atoms: C_7  and  C_43
   11  A    between atoms: C_10  and  C_32
   12  A    between atoms: C_11  and  C_29
   13  A    between atoms: C_11  and  C_38
   14  A    between atoms: C_12  and  O_14
   15  A    between atoms: O_14  and  C_46
   16  A    between atoms: C_16  and  C_17
   17  A    between atoms: C_16  and  C_26
   18  A    between atoms: C_17  and  C_23
   19  A    between atoms: C_17  and  C_37
   20  A    between atoms: O_20  and  C_30
   21  A    between atoms: C_26  and  C_45
   22  A    between atoms: C_28  and  C_33
   23  A    between atoms: C_32  and  O_39
   24  A    between atoms: C_33  and  C_49
   25  A    between atoms: C_33  and  C_52
   26  A    between atoms: C_34  and  O_39
   27  A    between atoms: C_34  and  C_52
   28  A    between atoms: C_35  and  C_43
   29  A    between atoms: C_45  and  C_49
                            x       y       z     vdW  Elec       q    Type
                         _______ _______ _______ _____ _____    ______ ____

>  <TORSDO>
F 29

$$$$
=
 OpenBabel11052419513D

 55 55  0  0  1  0  0  0  0  0999 V2000
  191.2310  172.9850  142.2930 C   0  0  2  0  0  3  0  0  0  0  0  0
  191.8240  172.5130  144.5750 O   0  0  0  0  0  0  0  0  0  0  0  0
  190.9100  172.6020  143.7120 C   0  0  0  0  0  0  0  0  0  0  0  0
  189.5630  172.3480  144.0850 N   0  0  0  0  0  1  0  0  0  0  0  0
  191.2940  174.5120  142.1130 C   0  0  2  0  0  3  0  0  0  0  0  0
  192.7070  175.0540  142.3200 C   0  0  0  0  0  1  0  0  0  0  0  0
  189.1660  175.5990  142.1700 O   0  0  0  0  0  1  0  0  0  0  0  0
  190.2710  175.2820  142.9640 C   0  0  2  0  0  3  0  0  0  0  0  0
  190.6280  177.6620  142.8060 O   0  0  0  0  0  1  0  0  0  0  0  0
  190.8620  176.5430  143.6080 C   0  0  1  0  0  3  0  0  0  0  0  0
  190.2380  176.7720  144.9740 C   0  0  0  0  0  2  0  0  0  0  0  0
  190.2050  175.4870  145.7990 C   0  0  1  0  0  3  0  0  0  0  0  0
  191.0670  176.6780  147.6980 O   0  0  0  0  0  1  0  0  0  0  0  0
  191.2240  175.5100  146.9470 C   0  0  2  0  0  3  0  0  0  0  0  0
  192.6660  175.3930  146.4510 C   0  0  0  0  0  2  0  0  0  0  0  0
  193.3160  176.6600  146.4730 O   0  0  0  0  0  0  0  0  0  0  0  0
  194.5690  176.8720  145.8890 C   0  0  0  0  0  0  0  0  0  0  0  0
  195.0460  178.0360  145.7920 O   0  0  0  0  0  0  0  0  0  0  0  0
  195.3420  175.7260  145.3990 C   0  0  0  0  0  0  0  0  0  0  0  0
  195.7220  174.8310  146.2010 O   0  0  0  0  0  0  0  0  0  0  0  0
  195.6810  175.6270  144.0200 N   0  0  0  0  0  1  0  0  0  0  0  0
  188.7940  175.2310  146.3170 C   0  0  0  0  0  2  0  0  0  0  0  0
  187.8500  176.0030  145.5900 O   0  0  0  0  0  0  0  0  0  0  0  0
  185.5910  176.7820  145.9000 C   0  0  0  0  0  3  0  0  0  0  0  0
  186.4560  178.6620  147.7830 C   0  0  0  0  0  0  0  0  0  0  0  0
  187.3780  177.8140  147.1650 C   0  0  0  0  0  3  0  0  0  0  0  0
  184.6670  177.6300  146.5180 C   0  0  0  0  0  3  0  0  0  0  0  0
  186.9500  176.8660  146.2190 C   0  0  0  0  0  0  0  0  0  0  0  0
  186.8750  179.5720  148.6940 F   0  0  0  0  0  0  0  0  0  0  0  0
  185.1000  178.5680  147.4600 C   0  0  0  0  0  3  0  0  0  0  0  0
  189.0630  171.9200  141.9030 O   0  0  0  0  0  1  0  0  0  0  0  0
  190.2380  172.3630  141.2910 C   0  0  2  0  0  3  0  0  0  0  0  0
  190.8120  171.3250  140.3130 C   0  0  2  0  0  3  0  0  0  0  0  0
  190.5040  168.9900  139.7180 O   0  0  0  0  0  1  0  0  0  0  0  0
  190.7780  169.8600  140.7780 C   0  0  1  0  0  3  0  0  0  0  0  0
  192.3720  169.8110  142.7000 O   0  0  0  0  0  1  0  0  0  0  0  0
  192.0960  169.4880  141.3800 C   0  0  0  0  0  0  0  0  0  0  0  0
  192.9750  168.9100  140.6840 O   0  0  0  0  0  0  0  0  0  0  0  0
  192.2290  171.7160  139.8790 C   0  0  0  0  0  2  0  0  0  0  0  0
  192.3490  171.9840  138.3730 C   0  0  2  0  0  0  0  0  0  0  0  0
  190.4540  171.1110  137.0670 O   0  0  0  0  0  1  0  0  0  0  0  0
  190.8940  172.1820  137.8530 C   0  0  2  0  0  3  0  0  0  0  0  0
  190.6740  173.5170  137.1240 C   0  0  1  0  0  3  0  0  0  0  0  0
  191.0340  173.4200  135.7780 O   0  0  0  0  0  1  0  0  0  0  0  0
  188.4470  173.5890  138.4330 C   0  0  0  0  0  1  0  0  0  0  0  0
  189.2530  173.9800  137.2430 C   0  0  0  0  0  0  0  0  0  0  0  0
  188.7540  174.6880  136.3820 O   0  0  0  0  0  0  0  0  0  0  0  0
  193.0020  170.7140  137.7740 C   0  0  0  0  0  2  0  0  0  0  0  0
  193.9610  170.9990  136.7980 O   0  0  0  0  0  0  0  0  0  0  0  0
  195.1080  170.3360  137.2330 C   0  0  0  0  0  2  0  0  0  0  0  0
  195.4280  169.2050  136.2740 C   0  0  0  0  0  1  0  0  0  0  0  0
  193.1590  173.1460  138.2210 O   0  0  0  0  0  0  0  0  0  0  0  0
  193.9870  173.3460  139.3370 C   0  0  0  0  0  2  0  0  0  0  0  0
  195.2480  174.0750  138.9130 C   0  0  0  0  0  2  0  0  0  0  0  0
  196.3410  173.2110  138.9790 O   0  0  0  0  0  1  0  0  0  0  0  0
  1  3  1  1  0  0  0
  3  4  1  0  0  0  0
  3  2  2  0  0  0  0
  5  1  1  0  0  0  0
  5  6  1  1  0  0  0
  5  8  1  0  0  0  0
  8  7  1  6  0  0  0
  8 10  1  0  0  0  0
 10  9  1  6  0  0  0
 10 11  1  0  0  0  0
 12 11  1  1  0  0  0
 12 22  1  0  0  0  0
 12 14  1  0  0  0  0
 14 13  1  6  0  0  0
 15 16  1  0  0  0  0
 15 14  1  0  0  0  0
 17 16  1  0  0  0  0
 18 17  2  0  0  0  0
 19 17  1  0  0  0  0
 19 20  2  0  0  0  0
 21 19  1  0  0  0  0
 23 28  1  0  0  0  0
 23 22  1  0  0  0  0
 24 28  2  0  0  0  0
 24 27  1  0  0  0  0
 25 29  1  0  0  0  0
 26 25  2  0  0  0  0
 27 30  2  0  0  0  0
 28 26  1  0  0  0  0
 30 25  1  0  0  0  0
 32 31  1  1  0  0  0
 32  1  1  0  0  0  0
 33 39  1  1  0  0  0
 33 35  1  0  0  0  0
 33 32  1  0  0  0  0
 35 34  1  6  0  0  0
 35 37  1  0  0  0  0
 37 36  1  0  0  0  0
 38 37  2  0  0  0  0
 40 48  1  6  0  0  0
 40 39  1  0  0  0  0
 42 41  1  6  0  0  0
 42 40  1  0  0  0  0
 43 44  1  6  0  0  0
 43 46  1  0  0  0  0
 43 42  1  0  0  0  0
 46 45  1  0  0  0  0
 47 46  2  0  0  0  0
 49 50  1  0  0  0  0
 49 48  1  0  0  0  0
 51 50  1  0  0  0  0
 52 40  1  0  0  0  0
 52 53  1  0  0  0  0
 54 55  1  0  0  0  0
 54 53  1  0  0  0  0
M  END
>  <MODEL>
7

>  <REMARK>
 VINA RESULT:      -4.2      2.385      5.373
  Name = 
  29 active torsions:
  status: ('A' for Active; 'I' for Inactive)
    1  A    between atoms: C_1  and  C_30
    2  A    between atoms: O_2  and  C_28
    3  A    between atoms: O_2  and  C_44
    4  A    between atoms: C_6  and  C_8
    5  A    between atoms: C_6  and  O_20
    6  A    between atoms: C_6  and  C_38
    7  A    between atoms: C_6  and  C_46
    8  A    between atoms: C_7  and  C_8
    9  A    between atoms: C_7  and  C_23
   10  A    between atoms: C_7  and  C_43
   11  A    between atoms: C_10  and  C_32
   12  A    between atoms: C_11  and  C_29
   13  A    between atoms: C_11  and  C_38
   14  A    between atoms: C_12  and  O_14
   15  A    between atoms: O_14  and  C_46
   16  A    between atoms: C_16  and  C_17
   17  A    between atoms: C_16  and  C_26
   18  A    between atoms: C_17  and  C_23
   19  A    between atoms: C_17  and  C_37
   20  A    between atoms: O_20  and  C_30
   21  A    between atoms: C_26  and  C_45
   22  A    between atoms: C_28  and  C_33
   23  A    between atoms: C_32  and  O_39
   24  A    between atoms: C_33  and  C_49
   25  A    between atoms: C_33  and  C_52
   26  A    between atoms: C_34  and  O_39
   27  A    between atoms: C_34  and  C_52
   28  A    between atoms: C_35  and  C_43
   29  A    between atoms: C_45  and  C_49
                            x       y       z     vdW  Elec       q    Type
                         _______ _______ _______ _____ _____    ______ ____

>  <TORSDO>
F 29

$$$$
=
 OpenBabel11052419513D

 55 55  0  0  1  0  0  0  0  0999 V2000
  191.2850  174.8690  144.6430 C   0  0  2  0  0  3  0  0  0  0  0  0
  189.5270  173.9940  146.0300 O   0  0  0  0  0  0  0  0  0  0  0  0
  190.5130  174.7720  145.9290 C   0  0  0  0  0  0  0  0  0  0  0  0
  190.9050  175.5580  147.0460 N   0  0  0  0  0  1  0  0  0  0  0  0
  190.8790  176.1080  143.8240 C   0  0  2  0  0  3  0  0  0  0  0  0
  191.9120  177.2270  143.9310 C   0  0  0  0  0  1  0  0  0  0  0  0
  188.5420  175.6070  143.8640 O   0  0  0  0  0  1  0  0  0  0  0  0
  189.4640  176.6220  144.1330 C   0  0  2  0  0  3  0  0  0  0  0  0
  190.2540  178.6750  143.1440 O   0  0  0  0  0  1  0  0  0  0  0  0
  189.1130  177.8990  143.3590 C   0  0  1  0  0  3  0  0  0  0  0  0
  188.4970  177.5420  142.0170 C   0  0  0  0  0  2  0  0  0  0  0  0
  187.2190  178.3390  141.7560 C   0  0  1  0  0  3  0  0  0  0  0  0
  186.7300  176.6780  140.0930 O   0  0  0  0  0  1  0  0  0  0  0  0
  186.1420  177.4940  141.0620 C   0  0  2  0  0  3  0  0  0  0  0  0
  185.0430  178.3510  140.4330 C   0  0  0  0  0  2  0  0  0  0  0  0
  183.8100  178.1880  141.1250 O   0  0  0  0  0  0  0  0  0  0  0  0
  182.5990  177.9600  140.4630 C   0  0  0  0  0  0  0  0  0  0  0  0
  182.5630  177.2740  139.4040 O   0  0  0  0  0  0  0  0  0  0  0  0
  181.3580  178.5130  141.0150 C   0  0  0  0  0  0  0  0  0  0  0  0
  181.3450  178.9960  142.1790 O   0  0  0  0  0  0  0  0  0  0  0  0
  180.1600  178.4910  140.2460 N   0  0  0  0  0  1  0  0  0  0  0  0
  186.6990  178.9370  143.0580 C   0  0  0  0  0  2  0  0  0  0  0  0
  185.9580  177.9720  143.7900 O   0  0  0  0  0  0  0  0  0  0  0  0
  185.9210  176.7110  145.8430 C   0  0  0  0  0  3  0  0  0  0  0  0
  185.9330  179.0740  147.3400 C   0  0  0  0  0  0  0  0  0  0  0  0
  185.9450  179.1300  145.9440 C   0  0  0  0  0  3  0  0  0  0  0  0
  185.9090  176.6550  147.2400 C   0  0  0  0  0  3  0  0  0  0  0  0
  185.9410  177.9450  145.1860 C   0  0  0  0  0  0  0  0  0  0  0  0
  185.9380  180.2190  148.0640 F   0  0  0  0  0  0  0  0  0  0  0  0
  185.9160  177.8370  147.9870 C   0  0  0  0  0  3  0  0  0  0  0  0
  191.0660  172.4330  144.5710 O   0  0  0  0  0  1  0  0  0  0  0  0
  191.1500  173.5900  143.7920 C   0  0  2  0  0  3  0  0  0  0  0  0
  192.1390  173.4360  142.6250 C   0  0  2  0  0  3  0  0  0  0  0  0
  192.0390  172.2540  140.5050 O   0  0  0  0  0  1  0  0  0  0  0  0
  191.5230  173.3390  141.2190 C   0  0  1  0  0  3  0  0  0  0  0  0
  189.4810  171.9320  141.5080 O   0  0  0  0  0  1  0  0  0  0  0  0
  190.0390  173.1880  141.3250 C   0  0  0  0  0  0  0  0  0  0  0  0
  189.2860  174.1940  141.2150 O   0  0  0  0  0  0  0  0  0  0  0  0
  193.0910  172.2610  142.8740 C   0  0  0  0  0  2  0  0  0  0  0  0
  194.5310  172.7010  143.1680 C   0  0  2  0  0  0  0  0  0  0  0  0
  194.1370  172.4350  145.5830 O   0  0  0  0  0  1  0  0  0  0  0  0
  194.9270  172.0130  144.5080 C   0  0  2  0  0  3  0  0  0  0  0  0
  196.4210  172.1400  144.8500 C   0  0  1  0  0  3  0  0  0  0  0  0
  196.6240  173.0620  145.8800 O   0  0  0  0  0  1  0  0  0  0  0  0
  196.6690  170.1980  146.5360 C   0  0  0  0  0  1  0  0  0  0  0  0
  197.0120  170.8140  145.2250 C   0  0  0  0  0  0  0  0  0  0  0  0
  197.7600  170.2260  144.4580 O   0  0  0  0  0  0  0  0  0  0  0  0
  194.4760  174.2420  143.3110 C   0  0  0  0  0  2  0  0  0  0  0  0
  195.5910  174.8830  142.7640 O   0  0  0  0  0  0  0  0  0  0  0  0
  195.9250  175.8610  143.7010 C   0  0  0  0  0  2  0  0  0  0  0  0
  196.9890  176.7720  143.1190 C   0  0  0  0  0  1  0  0  0  0  0  0
  195.3280  172.2770  142.0660 O   0  0  0  0  0  0  0  0  0  0  0  0
  194.8940  171.0390  141.5630 C   0  0  0  0  0  2  0  0  0  0  0  0
  196.0180  170.0240  141.6650 C   0  0  0  0  0  2  0  0  0  0  0  0
  195.5230  168.8140  142.1510 O   0  0  0  0  0  1  0  0  0  0  0  0
  1  3  1  1  0  0  0
  3  2  2  0  0  0  0
  3  4  1  0  0  0  0
  5  6  1  1  0  0  0
  5  8  1  0  0  0  0
  5  1  1  0  0  0  0
  8  7  1  6  0  0  0
 10  9  1  6  0  0  0
 10  8  1  0  0  0  0
 11 10  1  0  0  0  0
 12 11  1  1  0  0  0
 12 22  1  0  0  0  0
 14 13  1  6  0  0  0
 14 12  1  0  0  0  0
 15 14  1  0  0  0  0
 15 16  1  0  0  0  0
 17 19  1  0  0  0  0
 17 16  1  0  0  0  0
 18 17  2  0  0  0  0
 19 20  2  0  0  0  0
 21 19  1  0  0  0  0
 22 23  1  0  0  0  0
 23 28  1  0  0  0  0
 24 27  1  0  0  0  0
 25 30  1  0  0  0  0
 25 29  1  0  0  0  0
 26 25  2  0  0  0  0
 27 30  2  0  0  0  0
 28 24  2  0  0  0  0
 28 26  1  0  0  0  0
 32 31  1  1  0  0  0
 32  1  1  0  0  0  0
 33 39  1  1  0  0  0
 33 32  1  0  0  0  0
 35 34  1  1  0  0  0
 35 37  1  0  0  0  0
 35 33  1  0  0  0  0
 37 36  1  0  0  0  0
 38 37  2  0  0  0  0
 40 39  1  6  0  0  0
 40 48  1  0  0  0  0
 40 42  1  0  0  0  0
 42 43  1  0  0  0  0
 42 41  1  1  0  0  0
 43 46  1  0  0  0  0
 43 44  1  1  0  0  0
 46 45  1  0  0  0  0
 47 46  2  0  0  0  0
 49 48  1  0  0  0  0
 49 50  1  0  0  0  0
 51 50  1  0  0  0  0
 52 40  1  0  0  0  0
 53 54  1  0  0  0  0
 53 52  1  0  0  0  0
 54 55  1  0  0  0  0
M  END
>  <MODEL>
8

>  <REMARK>
 VINA RESULT:      -4.0      3.381      5.837
  Name = 
  29 active torsions:
  status: ('A' for Active; 'I' for Inactive)
    1  A    between atoms: C_1  and  C_30
    2  A    between atoms: O_2  and  C_28
    3  A    between atoms: O_2  and  C_44
    4  A    between atoms: C_6  and  C_8
    5  A    between atoms: C_6  and  O_20
    6  A    between atoms: C_6  and  C_38
    7  A    between atoms: C_6  and  C_46
    8  A    between atoms: C_7  and  C_8
    9  A    between atoms: C_7  and  C_23
   10  A    between atoms: C_7  and  C_43
   11  A    between atoms: C_10  and  C_32
   12  A    between atoms: C_11  and  C_29
   13  A    between atoms: C_11  and  C_38
   14  A    between atoms: C_12  and  O_14
   15  A    between atoms: O_14  and  C_46
   16  A    between atoms: C_16  and  C_17
   17  A    between atoms: C_16  and  C_26
   18  A    between atoms: C_17  and  C_23
   19  A    between atoms: C_17  and  C_37
   20  A    between atoms: O_20  and  C_30
   21  A    between atoms: C_26  and  C_45
   22  A    between atoms: C_28  and  C_33
   23  A    between atoms: C_32  and  O_39
   24  A    between atoms: C_33  and  C_49
   25  A    between atoms: C_33  and  C_52
   26  A    between atoms: C_34  and  O_39
   27  A    between atoms: C_34  and  C_52
   28  A    between atoms: C_35  and  C_43
   29  A    between atoms: C_45  and  C_49
                            x       y       z     vdW  Elec       q    Type
                         _______ _______ _______ _____ _____    ______ ____

>  <TORSDO>
F 29

$$$$
=
 OpenBabel11052419513D

 55 55  0  0  1  0  0  0  0  0999 V2000
  190.7970  173.4220  141.8030 C   0  0  2  0  0  3  0  0  0  0  0  0
  188.7630  172.1500  141.6480 O   0  0  0  0  0  0  0  0  0  0  0  0
  189.5300  172.9960  141.1150 C   0  0  0  0  0  0  0  0  0  0  0  0
  189.1880  173.5600  139.8560 N   0  0  0  0  0  1  0  0  0  0  0  0
  190.8980  174.9540  141.9170 C   0  0  2  0  0  3  0  0  0  0  0  0
  192.2550  175.3980  142.4570 C   0  0  0  0  0  1  0  0  0  0  0  0
  189.2130  176.6490  141.9570 O   0  0  0  0  0  1  0  0  0  0  0  0
  189.7450  175.5970  142.7060 C   0  0  2  0  0  3  0  0  0  0  0  0
  190.4610  177.4440  144.0820 O   0  0  0  0  0  1  0  0  0  0  0  0
  190.1740  176.0770  144.0980 C   0  0  1  0  0  3  0  0  0  0  0  0
  189.0660  175.8150  145.1040 C   0  0  0  0  0  2  0  0  0  0  0  0
  189.2150  176.6930  146.3460 C   0  0  1  0  0  3  0  0  0  0  0  0
  186.9610  176.3780  147.1110 O   0  0  0  0  0  1  0  0  0  0  0  0
  187.8910  177.3560  146.7490 C   0  0  2  0  0  3  0  0  0  0  0  0
  187.3190  178.2410  145.6410 C   0  0  0  0  0  2  0  0  0  0  0  0
  186.0710  177.7350  145.1790 O   0  0  0  0  0  0  0  0  0  0  0  0
  185.1300  178.5380  144.5250 C   0  0  0  0  0  0  0  0  0  0  0  0
  184.4110  179.3460  145.1730 O   0  0  0  0  0  0  0  0  0  0  0  0
  184.9910  178.4460  143.0670 C   0  0  0  0  0  0  0  0  0  0  0  0
  185.9900  178.6390  142.3240 O   0  0  0  0  0  0  0  0  0  0  0  0
  183.7240  178.1570  142.4860 N   0  0  0  0  0  1  0  0  0  0  0  0
  189.8000  175.8800  147.4960 C   0  0  0  0  0  2  0  0  0  0  0  0
  191.1240  176.3050  147.7830 O   0  0  0  0  0  0  0  0  0  0  0  0
  192.2990  174.5650  146.6000 C   0  0  0  0  0  3  0  0  0  0  0  0
  194.3250  176.3600  145.8950 C   0  0  0  0  0  0  0  0  0  0  0  0
  193.2430  176.7940  146.6640 C   0  0  0  0  0  3  0  0  0  0  0  0
  193.3820  174.1310  145.8300 C   0  0  0  0  0  3  0  0  0  0  0  0
  192.2200  175.8970  147.0200 C   0  0  0  0  0  0  0  0  0  0  0  0
  195.3060  177.2290  145.5550 F   0  0  0  0  0  0  0  0  0  0  0  0
  194.3940  175.0290  145.4770 C   0  0  0  0  0  3  0  0  0  0  0  0
  191.7440  172.1620  139.9320 O   0  0  0  0  0  1  0  0  0  0  0  0
  192.0480  172.8480  141.1110 C   0  0  2  0  0  3  0  0  0  0  0  0
  193.0270  172.0660  142.0030 C   0  0  2  0  0  3  0  0  0  0  0  0
  191.3010  171.9660  143.7100 O   0  0  0  0  0  1  0  0  0  0  0  0
  192.4070  171.2940  143.1800 C   0  0  1  0  0  3  0  0  0  0  0  0
  190.7960  169.7830  142.0160 O   0  0  0  0  0  0  0  0  0  0  0  0
  191.9770  169.9350  142.7260 C   0  0  0  0  0  0  0  0  0  0  0  0
  192.6660  168.9190  143.0140 O   0  0  0  0  0  1  0  0  0  0  0  0
  194.1560  172.9770  142.4960 C   0  0  0  0  0  2  0  0  0  0  0  0
  195.5280  172.6080  141.9170 C   0  0  2  0  0  0  0  0  0  0  0  0
  197.7450  172.3680  142.9600 O   0  0  0  0  0  1  0  0  0  0  0  0
  196.3810  172.1000  143.1180 C   0  0  2  0  0  3  0  0  0  0  0  0
  196.1540  170.6170  143.4540 C   0  0  1  0  0  3  0  0  0  0  0  0
  197.2840  169.8540  143.1500 O   0  0  0  0  0  1  0  0  0  0  0  0
  196.2690  171.4040  145.9120 C   0  0  0  0  0  1  0  0  0  0  0  0
  195.7830  170.4320  144.8950 C   0  0  0  0  0  0  0  0  0  0  0  0
  195.0720  169.5010  145.2400 O   0  0  0  0  0  0  0  0  0  0  0  0
  196.0990  173.9210  141.3260 C   0  0  0  0  0  2  0  0  0  0  0  0
  195.7440  175.0530  142.0640 O   0  0  0  0  0  0  0  0  0  0  0  0
  196.6850  176.0150  141.7000 C   0  0  0  0  0  2  0  0  0  0  0  0
  197.2050  175.7080  140.3080 C   0  0  0  0  0  1  0  0  0  0  0  0
  195.3060  171.6070  140.9280 O   0  0  0  0  0  0  0  0  0  0  0  0
  195.9610  171.9170  139.7250 C   0  0  0  0  0  2  0  0  0  0  0  0
  196.0240  170.6820  138.8460 C   0  0  0  0  0  2  0  0  0  0  0  0
  196.1750  169.5430  139.6360 O   0  0  0  0  0  1  0  0  0  0  0  0
  1  3  1  6  0  0  0
  1  5  1  0  0  0  0
  3  2  2  0  0  0  0
  4  3  1  0  0  0  0
  5  6  1  1  0  0  0
  5  8  1  0  0  0  0
  8  7  1  6  0  0  0
  8 10  1  0  0  0  0
 10  9  1  6  0  0  0
 10 11  1  0  0  0  0
 12 11  1  6  0  0  0
 12 14  1  0  0  0  0
 12 22  1  0  0  0  0
 14 13  1  6  0  0  0
 15 14  1  0  0  0  0
 16 15  1  0  0  0  0
 17 18  2  0  0  0  0
 17 16  1  0  0  0  0
 19 17  1  0  0  0  0
 20 19  2  0  0  0  0
 21 19  1  0  0  0  0
 22 23  1  0  0  0  0
 24 28  1  0  0  0  0
 25 26  1  0  0  0  0
 26 28  2  0  0  0  0
 27 24  2  0  0  0  0
 28 23  1  0  0  0  0
 29 25  1  0  0  0  0
 30 27  1  0  0  0  0
 30 25  2  0  0  0  0
 32 31  1  6  0  0  0
 32  1  1  0  0  0  0
 32 33  1  0  0  0  0
 33 39  1  1  0  0  0
 33 35  1  0  0  0  0
 35 34  1  6  0  0  0
 36 37  2  0  0  0  0
 37 38  1  0  0  0  0
 37 35  1  0  0  0  0
 40 48  1  6  0  0  0
 40 39  1  0  0  0  0
 40 42  1  0  0  0  0
 42 41  1  6  0  0  0
 42 43  1  0  0  0  0
 43 44  1  1  0  0  0
 43 46  1  0  0  0  0
 46 47  2  0  0  0  0
 46 45  1  0  0  0  0
 48 49  1  0  0  0  0
 50 49  1  0  0  0  0
 51 50  1  0  0  0  0
 52 40  1  0  0  0  0
 53 52  1  0  0  0  0
 54 55  1  0  0  0  0
 54 53  1  0  0  0  0
M  END
>  <MODEL>
9

>  <REMARK>
 VINA RESULT:      -4.0      2.709      5.882
  Name = 
  29 active torsions:
  status: ('A' for Active; 'I' for Inactive)
    1  A    between atoms: C_1  and  C_30
    2  A    between atoms: O_2  and  C_28
    3  A    between atoms: O_2  and  C_44
    4  A    between atoms: C_6  and  C_8
    5  A    between atoms: C_6  and  O_20
    6  A    between atoms: C_6  and  C_38
    7  A    between atoms: C_6  and  C_46
    8  A    between atoms: C_7  and  C_8
    9  A    between atoms: C_7  and  C_23
   10  A    between atoms: C_7  and  C_43
   11  A    between atoms: C_10  and  C_32
   12  A    between atoms: C_11  and  C_29
   13  A    between atoms: C_11  and  C_38
   14  A    between atoms: C_12  and  O_14
   15  A    between atoms: O_14  and  C_46
   16  A    between atoms: C_16  and  C_17
   17  A    between atoms: C_16  and  C_26
   18  A    between atoms: C_17  and  C_23
   19  A    between atoms: C_17  and  C_37
   20  A    between atoms: O_20  and  C_30
   21  A    between atoms: C_26  and  C_45
   22  A    between atoms: C_28  and  C_33
   23  A    between atoms: C_32  and  O_39
   24  A    between atoms: C_33  and  C_49
   25  A    between atoms: C_33  and  C_52
   26  A    between atoms: C_34  and  O_39
   27  A    between atoms: C_34  and  C_52
   28  A    between atoms: C_35  and  C_43
   29  A    between atoms: C_45  and  C_49
                            x       y       z     vdW  Elec       q    Type
                         _______ _______ _______ _____ _____    ______ ____

>  <TORSDO>
F 29

$$$$
