=
 OpenBabel11052418023D

 28 32  0  0  1  0  0  0  0  0999 V2000
  191.1200  174.2160  144.7070 C   0  0  0  0  0  0  0  0  0  0  0  0
  191.5740  177.3180  148.5700 C   0  0  0  0  0  1  0  0  0  0  0  0
  188.8380  176.7690  146.0230 C   0  0  0  0  0  0  0  0  0  0  0  0
  191.3640  175.7270  146.6100 C   0  0  0  0  0  0  0  0  0  0  0  0
  189.3790  175.7760  145.2630 N   0  0  0  0  0  0  0  0  0  0  0  0
  193.1360  174.1630  146.0630 C   0  0  0  0  0  3  0  0  0  0  0  0
  190.8300  176.7550  147.4070 C   0  0  0  0  0  0  0  0  0  0  0  0
  192.6280  175.1800  146.8720 C   0  0  0  0  0  3  0  0  0  0  0  0
  189.5700  177.2730  147.1070 C   0  0  0  0  0  3  0  0  0  0  0  0
  192.3880  173.6840  144.9860 C   0  0  0  0  0  3  0  0  0  0  0  0
  190.6050  175.2430  145.5200 C   0  0  0  0  0  0  0  0  0  0  0  0
  187.3120  177.7560  144.4260 C   0  0  0  0  0  3  0  0  0  0  0  0
  185.5310  178.3600  146.8350 C   0  0  0  0  0  3  0  0  0  0  0  0
  185.6560  179.5490  144.6530 C   0  0  0  0  0  0  0  0  0  0  0  0
  187.5030  177.3240  145.6810 C   0  0  0  0  0  0  0  0  0  0  0  0
  186.3450  176.3270  147.6330 O   0  0  0  0  0  1  0  0  0  0  0  0
  185.3870  179.5380  145.9580 C   0  0  0  0  0  3  0  0  0  0  0  0
  186.4190  177.3620  146.7080 C   0  0  0  0  0  0  0  0  0  0  0  0
  185.4990  180.7000  143.9560 F   0  0  0  0  0  0  0  0  0  0  0  0
  186.0210  178.3030  143.9180 C   0  0  0  0  0  2  0  0  0  0  0  0
  190.3250  173.7000  143.5400 C   0  0  2  0  0  3  0  0  0  0  0  0
  189.7020  172.3320  143.8520 C   0  0  0  0  0  2  0  0  0  0  0  0
  190.6140  172.6810  141.2300 C   0  0  1  0  0  3  0  0  0  0  0  0
  190.4620  171.3090  143.2630 O   0  0  0  0  0  0  0  0  0  0  0  0
  191.2600  174.9350  141.7080 O   0  0  0  0  0  1  0  0  0  0  0  0
  191.1800  173.6590  142.2640 C   0  0  1  0  0  3  0  0  0  0  0  0
  191.5030  171.4590  141.1240 C   0  0  0  0  0  2  0  0  0  0  0  0
  190.1930  171.3500  141.8790 C   0  0  2  0  0  3  0  0  0  0  0  0
  1 10  2  0  0  0  0
  1 11  1  0  0  0  0
  3  9  1  0  0  0  0
  4  8  1  0  0  0  0
  4  7  1  0  0  0  0
  5 11  1  0  0  0  0
  5  3  2  0  0  0  0
  6  8  2  0  0  0  0
  7  2  1  0  0  0  0
  9  7  2  0  0  0  0
 10  6  1  0  0  0  0
 11  4  2  0  0  0  0
 12 15  2  0  0  0  0
 14 17  2  0  0  0  0
 15  3  1  0  0  0  0
 15 18  1  0  0  0  0
 17 13  1  0  0  0  0
 18 13  2  0  0  0  0
 18 16  1  0  0  0  0
 19 14  1  0  0  0  0
 20 12  1  0  0  0  0
 20 14  1  0  0  0  0
 21 22  1  0  0  0  0
 21  1  1  1  0  0  0
 23 27  1  6  0  0  0
 23 28  1  0  0  0  0
 23 26  1  0  0  0  0
 24 22  1  0  0  0  0
 26 25  1  6  0  0  0
 26 21  1  0  0  0  0
 28 27  1  6  0  0  0
 28 24  1  0  0  0  0
M  END
>  <MODEL>
1

>  <REMARK>
 VINA RESULT:      -8.3      0.000      0.000
  Name = 
  2 active torsions:
  status: ('A' for Active; 'I' for Inactive)
    1  A    between atoms: C_1  and  C_2
    2  A    between atoms: C_10  and  C_13
                            x       y       z     vdW  Elec       q    Type
                         _______ _______ _______ _____ _____    ______ ____

>  <TORSDO>
F 2

$$$$
=
 OpenBabel11052418023D

 28 32  0  0  1  0  0  0  0  0999 V2000
  191.5110  174.5220  144.4640 C   0  0  0  0  0  0  0  0  0  0  0  0
  191.5790  177.2420  148.6290 C   0  0  0  0  0  1  0  0  0  0  0  0
  189.0170  176.8040  145.8870 C   0  0  0  0  0  0  0  0  0  0  0  0
  191.5650  175.8460  146.5150 C   0  0  0  0  0  0  0  0  0  0  0  0
  189.6550  175.9230  145.0670 N   0  0  0  0  0  0  0  0  0  0  0  0
  193.4530  174.4410  145.9230 C   0  0  0  0  0  3  0  0  0  0  0  0
  190.9310  176.7590  147.3750 C   0  0  0  0  0  0  0  0  0  0  0  0
  192.8440  175.3430  146.7960 C   0  0  0  0  0  3  0  0  0  0  0  0
  189.6610  177.2360  147.0550 C   0  0  0  0  0  3  0  0  0  0  0  0
  192.7920  174.0330  144.7630 C   0  0  0  0  0  3  0  0  0  0  0  0
  190.8950  175.4330  145.3410 C   0  0  0  0  0  0  0  0  0  0  0  0
  187.5110  177.8280  144.2930 C   0  0  0  0  0  3  0  0  0  0  0  0
  185.6040  178.1780  146.6540 C   0  0  0  0  0  3  0  0  0  0  0  0
  185.7600  179.5210  144.5660 C   0  0  0  0  0  0  0  0  0  0  0  0
  187.6710  177.3190  145.5230 C   0  0  0  0  0  0  0  0  0  0  0  0
  186.4840  176.1350  147.3490 O   0  0  0  0  0  1  0  0  0  0  0  0
  185.4380  179.4060  145.8530 C   0  0  0  0  0  3  0  0  0  0  0  0
  186.5450  177.2340  146.5010 C   0  0  0  0  0  0  0  0  0  0  0  0
  185.5750  180.7090  143.9420 F   0  0  0  0  0  0  0  0  0  0  0  0
  186.2180  178.3480  143.7650 C   0  0  0  0  0  2  0  0  0  0  0  0
  190.8100  174.0830  143.2080 C   0  0  2  0  0  3  0  0  0  0  0  0
  190.8490  175.1820  142.1360 C   0  0  0  0  0  2  0  0  0  0  0  0
  188.4850  173.6910  142.2610 C   0  0  1  0  0  3  0  0  0  0  0  0
  189.6220  175.8630  142.0970 O   0  0  0  0  0  0  0  0  0  0  0  0
  189.3830  172.3310  144.0140 O   0  0  0  0  0  1  0  0  0  0  0  0
  189.3730  173.6300  143.5080 C   0  0  1  0  0  3  0  0  0  0  0  0
  187.4930  174.8290  142.3790 C   0  0  0  0  0  2  0  0  0  0  0  0
  188.6980  174.9980  141.4750 C   0  0  2  0  0  3  0  0  0  0  0  0
  1 10  2  0  0  0  0
  1 11  1  0  0  0  0
  3  9  1  0  0  0  0
  4  8  1  0  0  0  0
  4  7  1  0  0  0  0
  5 11  1  0  0  0  0
  5  3  2  0  0  0  0
  6  8  2  0  0  0  0
  7  2  1  0  0  0  0
  9  7  2  0  0  0  0
 10  6  1  0  0  0  0
 11  4  2  0  0  0  0
 12 15  2  0  0  0  0
 14 17  2  0  0  0  0
 15  3  1  0  0  0  0
 15 18  1  0  0  0  0
 17 13  1  0  0  0  0
 18 13  2  0  0  0  0
 18 16  1  0  0  0  0
 19 14  1  0  0  0  0
 20 12  1  0  0  0  0
 20 14  1  0  0  0  0
 21 26  1  0  0  0  0
 21  1  1  1  0  0  0
 22 21  1  0  0  0  0
 23 27  1  1  0  0  0
 23 26  1  0  0  0  0
 24 22  1  0  0  0  0
 26 25  1  6  0  0  0
 28 24  1  0  0  0  0
 28 23  1  0  0  0  0
 28 27  1  1  0  0  0
M  END
>  <MODEL>
2

>  <REMARK>
 VINA RESULT:      -8.0      1.167      1.976
  Name = 
  2 active torsions:
  status: ('A' for Active; 'I' for Inactive)
    1  A    between atoms: C_1  and  C_2
    2  A    between atoms: C_10  and  C_13
                            x       y       z     vdW  Elec       q    Type
                         _______ _______ _______ _____ _____    ______ ____

>  <TORSDO>
F 2

$$$$
=
 OpenBabel11052418023D

 28 32  0  0  1  0  0  0  0  0999 V2000
  191.3100  174.8830  143.7740 C   0  0  0  0  0  0  0  0  0  0  0  0
  187.4370  173.0290  141.2600 C   0  0  0  0  0  1  0  0  0  0  0  0
  187.8730  176.1100  143.4040 C   0  0  0  0  0  0  0  0  0  0  0  0
  189.4240  173.9560  142.5290 C   0  0  0  0  0  0  0  0  0  0  0  0
  189.1790  175.9920  143.7740 N   0  0  0  0  0  0  0  0  0  0  0  0
  191.5670  172.8170  142.5190 C   0  0  0  0  0  3  0  0  0  0  0  0
  188.0770  174.0510  142.1380 C   0  0  0  0  0  0  0  0  0  0  0  0
  190.2340  172.8900  142.1120 C   0  0  0  0  0  3  0  0  0  0  0  0
  187.3070  175.1270  142.5800 C   0  0  0  0  0  3  0  0  0  0  0  0
  192.1020  173.8070  143.3460 C   0  0  0  0  0  3  0  0  0  0  0  0
  189.9650  174.9590  143.3660 C   0  0  0  0  0  0  0  0  0  0  0  0
  186.8280  177.3250  145.2160 C   0  0  0  0  0  3  0  0  0  0  0  0
  185.3530  178.8730  143.0340 C   0  0  0  0  0  3  0  0  0  0  0  0
  184.6540  178.4460  145.3830 C   0  0  0  0  0  0  0  0  0  0  0  0
  187.0590  177.2510  143.8980 C   0  0  0  0  0  0  0  0  0  0  0  0
  187.3470  178.6250  141.8550 O   0  0  0  0  0  1  0  0  0  0  0  0
  184.3580  178.7030  144.1100 C   0  0  0  0  0  3  0  0  0  0  0  0
  186.5540  178.2820  142.9430 C   0  0  0  0  0  0  0  0  0  0  0  0
  183.6490  178.2940  146.2780 F   0  0  0  0  0  0  0  0  0  0  0  0
  186.0640  178.4260  145.8700 C   0  0  0  0  0  2  0  0  0  0  0  0
  191.8930  175.9400  144.6700 C   0  0  2  0  0  3  0  0  0  0  0  0
  192.9010  176.8180  143.9140 C   0  0  0  0  0  2  0  0  0  0  0  0
  193.5480  176.2410  146.5740 C   0  0  1  0  0  3  0  0  0  0  0  0
  194.2120  176.4170  144.2150 O   0  0  0  0  0  0  0  0  0  0  0  0
  191.5120  175.0150  146.8510 O   0  0  0  0  0  1  0  0  0  0  0  0
  192.5140  175.3140  145.9290 C   0  0  1  0  0  3  0  0  0  0  0  0
  194.9450  175.6940  146.3650 C   0  0  0  0  0  2  0  0  0  0  0  0
  194.4840  176.8670  145.5240 C   0  0  2  0  0  3  0  0  0  0  0  0
  2  7  1  0  0  0  0
  3  5  1  0  0  0  0
  3 15  1  0  0  0  0
  4 11  1  0  0  0  0
  6 10  1  0  0  0  0
  7  4  2  0  0  0  0
  7  9  1  0  0  0  0
  8  6  2  0  0  0  0
  8  4  1  0  0  0  0
  9  3  2  0  0  0  0
 10  1  2  0  0  0  0
 11  5  2  0  0  0  0
 11  1  1  0  0  0  0
 12 20  1  0  0  0  0
 13 17  1  0  0  0  0
 14 20  1  0  0  0  0
 14 19  1  0  0  0  0
 15 12  2  0  0  0  0
 16 18  1  0  0  0  0
 17 14  2  0  0  0  0
 18 13  2  0  0  0  0
 18 15  1  0  0  0  0
 21  1  1  6  0  0  0
 21 26  1  0  0  0  0
 22 24  1  0  0  0  0
 22 21  1  0  0  0  0
 23 27  1  1  0  0  0
 24 28  1  0  0  0  0
 26 23  1  0  0  0  0
 26 25  1  1  0  0  0
 28 27  1  1  0  0  0
 28 23  1  0  0  0  0
M  END
>  <MODEL>
3

>  <REMARK>
 VINA RESULT:      -8.0      2.466      4.817
  Name = 
  2 active torsions:
  status: ('A' for Active; 'I' for Inactive)
    1  A    between atoms: C_1  and  C_2
    2  A    between atoms: C_10  and  C_13
                            x       y       z     vdW  Elec       q    Type
                         _______ _______ _______ _____ _____    ______ ____

>  <TORSDO>
F 2

$$$$
=
 OpenBabel11052418023D

 28 32  0  0  1  0  0  0  0  0999 V2000
  187.3140  177.2600  143.5150 C   0  0  0  0  0  0  0  0  0  0  0  0
  189.9760  174.2190  140.6140 C   0  0  0  0  0  1  0  0  0  0  0  0
  190.5110  175.5620  144.1050 C   0  0  0  0  0  0  0  0  0  0  0  0
  188.6020  175.7670  142.0740 C   0  0  0  0  0  0  0  0  0  0  0  0
  189.3990  176.3320  144.2650 N   0  0  0  0  0  0  0  0  0  0  0  0
  186.5000  176.6960  141.2950 C   0  0  0  0  0  3  0  0  0  0  0  0
  189.7430  174.9700  141.8820 C   0  0  0  0  0  0  0  0  0  0  0  0
  187.6220  175.8950  141.0800 C   0  0  0  0  0  3  0  0  0  0  0  0
  190.6950  174.8740  142.8970 C   0  0  0  0  0  3  0  0  0  0  0  0
  186.3460  177.3760  142.5050 C   0  0  0  0  0  3  0  0  0  0  0  0
  188.4470  176.4540  143.3000 C   0  0  0  0  0  0  0  0  0  0  0  0
  191.5750  176.4950  146.0680 C   0  0  0  0  0  3  0  0  0  0  0  0
  193.7180  174.3570  145.6500 C   0  0  0  0  0  3  0  0  0  0  0  0
  193.9240  176.5730  146.7620 C   0  0  0  0  0  0  0  0  0  0  0  0
  191.5260  175.4850  145.1870 C   0  0  0  0  0  0  0  0  0  0  0  0
  191.9250  173.0510  144.9380 O   0  0  0  0  0  1  0  0  0  0  0  0
  194.4610  175.5510  146.0990 C   0  0  0  0  0  3  0  0  0  0  0  0
  192.4280  174.2980  145.2880 C   0  0  0  0  0  0  0  0  0  0  0  0
  194.7090  177.6230  147.1060 F   0  0  0  0  0  0  0  0  0  0  0  0
  192.5080  176.5460  147.2300 C   0  0  0  0  0  2  0  0  0  0  0  0
  187.1440  178.0020  144.8110 C   0  0  2  0  0  3  0  0  0  0  0  0
  187.2610  177.0560  146.0140 C   0  0  0  0  0  2  0  0  0  0  0  0
  185.3660  179.1000  146.2580 C   0  0  1  0  0  3  0  0  0  0  0  0
  185.9840  176.7340  146.5030 O   0  0  0  0  0  0  0  0  0  0  0  0
  185.9680  179.9730  144.1130 O   0  0  0  0  0  1  0  0  0  0  0  0
  185.8230  178.7860  144.8300 C   0  0  1  0  0  3  0  0  0  0  0  0
  184.1570  178.2610  146.6170 C   0  0  0  0  0  2  0  0  0  0  0  0
  185.5100  177.8760  147.1810 C   0  0  2  0  0  3  0  0  0  0  0  0
  2  7  1  0  0  0  0
  3  5  1  0  0  0  0
  3 15  1  0  0  0  0
  4 11  1  0  0  0  0
  6 10  1  0  0  0  0
  7  4  2  0  0  0  0
  7  9  1  0  0  0  0
  8  6  2  0  0  0  0
  8  4  1  0  0  0  0
  9  3  2  0  0  0  0
 10  1  2  0  0  0  0
 11  1  1  0  0  0  0
 11  5  2  0  0  0  0
 12 20  1  0  0  0  0
 13 17  1  0  0  0  0
 14 19  1  0  0  0  0
 14 20  1  0  0  0  0
 15 18  1  0  0  0  0
 15 12  2  0  0  0  0
 16 18  1  0  0  0  0
 17 14  2  0  0  0  0
 18 13  2  0  0  0  0
 21  1  1  6  0  0  0
 21 26  1  0  0  0  0
 21 22  1  0  0  0  0
 22 24  1  0  0  0  0
 23 27  1  6  0  0  0
 23 28  1  0  0  0  0
 24 28  1  0  0  0  0
 26 25  1  6  0  0  0
 26 23  1  0  0  0  0
 28 27  1  6  0  0  0
M  END
>  <MODEL>
4

>  <REMARK>
 VINA RESULT:      -7.5      2.739      7.373
  Name = 
  2 active torsions:
  status: ('A' for Active; 'I' for Inactive)
    1  A    between atoms: C_1  and  C_2
    2  A    between atoms: C_10  and  C_13
                            x       y       z     vdW  Elec       q    Type
                         _______ _______ _______ _____ _____    ______ ____

>  <TORSDO>
F 2

$$$$
=
 OpenBabel11052418023D

 28 32  0  0  1  0  0  0  0  0999 V2000
  190.7230  173.9080  144.3140 C   0  0  0  0  0  0  0  0  0  0  0  0
  192.1900  176.8090  148.0800 C   0  0  0  0  0  1  0  0  0  0  0  0
  189.0860  176.7680  145.9250 C   0  0  0  0  0  0  0  0  0  0  0  0
  191.4630  175.3170  146.1670 C   0  0  0  0  0  0  0  0  0  0  0  0
  189.3520  175.7170  145.0990 N   0  0  0  0  0  0  0  0  0  0  0  0
  192.8660  173.4970  145.3860 C   0  0  0  0  0  3  0  0  0  0  0  0
  191.2150  176.4000  147.0270 C   0  0  0  0  0  0  0  0  0  0  0  0
  192.6430  174.5660  146.2560 C   0  0  0  0  0  3  0  0  0  0  0  0
  190.0290  177.1230  146.9000 C   0  0  0  0  0  3  0  0  0  0  0  0
  191.9130  173.1700  144.4190 C   0  0  0  0  0  3  0  0  0  0  0  0
  190.4960  174.9860  145.1890 C   0  0  0  0  0  0  0  0  0  0  0  0
  187.1730  177.9010  146.8790 C   0  0  0  0  0  3  0  0  0  0  0  0
  186.0530  177.9330  144.0360 C   0  0  0  0  0  3  0  0  0  0  0  0
  184.8200  177.9760  146.1970 C   0  0  0  0  0  0  0  0  0  0  0  0
  187.8270  177.5400  145.7650 C   0  0  0  0  0  0  0  0  0  0  0  0
  188.2840  178.2200  143.4260 O   0  0  0  0  0  1  0  0  0  0  0  0
  184.8810  177.6860  144.8980 C   0  0  0  0  0  3  0  0  0  0  0  0
  187.3440  177.9160  144.4030 C   0  0  0  0  0  0  0  0  0  0  0  0
  183.6910  177.6850  146.8860 F   0  0  0  0  0  0  0  0  0  0  0  0
  185.9210  178.7090  146.8880 C   0  0  0  0  0  2  0  0  0  0  0  0
  189.7070  173.5540  143.2650 C   0  0  2  0  0  3  0  0  0  0  0  0
  189.5280  172.0330  143.1530 C   0  0  0  0  0  2  0  0  0  0  0  0
  189.4020  173.4500  140.7440 C   0  0  1  0  0  3  0  0  0  0  0  0
  190.2400  171.5420  142.0470 O   0  0  0  0  0  0  0  0  0  0  0  0
  189.6840  175.5260  141.8990 O   0  0  0  0  0  1  0  0  0  0  0  0
  190.0670  174.1860  141.9110 C   0  0  1  0  0  3  0  0  0  0  0  0
  190.4370  172.6720  139.9570 C   0  0  0  0  0  2  0  0  0  0  0  0
  189.5150  171.9220  140.8980 C   0  0  2  0  0  3  0  0  0  0  0  0
  1 10  2  0  0  0  0
  1 11  1  0  0  0  0
  3  9  1  0  0  0  0
  4  8  1  0  0  0  0
  4  7  1  0  0  0  0
  5 11  1  0  0  0  0
  5  3  2  0  0  0  0
  6  8  2  0  0  0  0
  7  2  1  0  0  0  0
  9  7  2  0  0  0  0
 10  6  1  0  0  0  0
 11  4  2  0  0  0  0
 12 20  1  0  0  0  0
 13 18  2  0  0  0  0
 13 17  1  0  0  0  0
 14 19  1  0  0  0  0
 14 20  1  0  0  0  0
 15  3  1  0  0  0  0
 15 12  2  0  0  0  0
 16 18  1  0  0  0  0
 17 14  2  0  0  0  0
 18 15  1  0  0  0  0
 21  1  1  1  0  0  0
 22 21  1  0  0  0  0
 23 27  1  6  0  0  0
 23 28  1  0  0  0  0
 23 26  1  0  0  0  0
 24 22  1  0  0  0  0
 26 25  1  1  0  0  0
 26 21  1  0  0  0  0
 28 27  1  6  0  0  0
 28 24  1  0  0  0  0
M  END
>  <MODEL>
5

>  <REMARK>
 VINA RESULT:      -7.5      1.596      1.952
  Name = 
  2 active torsions:
  status: ('A' for Active; 'I' for Inactive)
    1  A    between atoms: C_1  and  C_2
    2  A    between atoms: C_10  and  C_13
                            x       y       z     vdW  Elec       q    Type
                         _______ _______ _______ _____ _____    ______ ____

>  <TORSDO>
F 2

$$$$
=
 OpenBabel11052418023D

 28 32  0  0  1  0  0  0  0  0999 V2000
  189.2500  175.2790  144.5430 C   0  0  0  0  0  0  0  0  0  0  0  0
  186.2260  177.0500  148.0750 C   0  0  0  0  0  1  0  0  0  0  0  0
  186.2400  177.3630  144.3090 C   0  0  0  0  0  0  0  0  0  0  0  0
  187.7770  176.1350  146.2940 C   0  0  0  0  0  0  0  0  0  0  0  0
  187.3460  176.6350  143.9870 N   0  0  0  0  0  0  0  0  0  0  0  0
  189.6970  174.7700  146.8780 C   0  0  0  0  0  3  0  0  0  0  0  0
  186.6440  176.8840  146.6530 C   0  0  0  0  0  0  0  0  0  0  0  0
  188.5740  175.5050  147.2600 C   0  0  0  0  0  3  0  0  0  0  0  0
  185.8820  177.4970  145.6580 C   0  0  0  0  0  3  0  0  0  0  0  0
  190.0350  174.6580  145.5270 C   0  0  0  0  0  3  0  0  0  0  0  0
  188.1170  176.0220  144.9260 C   0  0  0  0  0  0  0  0  0  0  0  0
  184.1760  178.3460  143.5160 C   0  0  0  0  0  3  0  0  0  0  0  0
  185.4540  178.2480  140.7430 C   0  0  0  0  0  3  0  0  0  0  0  0
  183.0410  178.2170  141.3480 C   0  0  0  0  0  0  0  0  0  0  0  0
  185.4490  178.0260  143.2410 C   0  0  0  0  0  0  0  0  0  0  0  0
  187.4200  178.7110  141.9040 O   0  0  0  0  0  1  0  0  0  0  0  0
  184.0340  177.9160  140.5140 C   0  0  0  0  0  3  0  0  0  0  0  0
  186.0810  178.3430  141.9250 C   0  0  0  0  0  0  0  0  0  0  0  0
  181.7770  177.8430  141.0340 F   0  0  0  0  0  0  0  0  0  0  0  0
  183.2660  179.0480  142.5670 C   0  0  0  0  0  2  0  0  0  0  0  0
  189.6250  175.1600  143.0920 C   0  0  2  0  0  3  0  0  0  0  0  0
  188.9890  173.9180  142.4530 C   0  0  0  0  0  2  0  0  0  0  0  0
  191.5750  174.5390  141.5870 C   0  0  1  0  0  3  0  0  0  0  0  0
  189.9340  172.8830  142.3610 O   0  0  0  0  0  0  0  0  0  0  0  0
  191.6220  176.4850  142.9790 O   0  0  0  0  0  1  0  0  0  0  0  0
  191.1510  175.1740  142.9140 C   0  0  1  0  0  3  0  0  0  0  0  0
  192.2370  173.1990  141.8340 C   0  0  0  0  0  2  0  0  0  0  0  0
  190.8140  173.2290  141.3150 C   0  0  2  0  0  3  0  0  0  0  0  0
  1 11  2  0  0  0  0
  1 10  1  0  0  0  0
  3  9  1  0  0  0  0
  4  7  1  0  0  0  0
  4  8  2  0  0  0  0
  5  3  2  0  0  0  0
  5 11  1  0  0  0  0
  6  8  1  0  0  0  0
  7  2  1  0  0  0  0
  9  7  2  0  0  0  0
 10  6  2  0  0  0  0
 11  4  1  0  0  0  0
 13 18  2  0  0  0  0
 14 20  1  0  0  0  0
 15 12  2  0  0  0  0
 15  3  1  0  0  0  0
 16 18  1  0  0  0  0
 17 13  1  0  0  0  0
 17 14  2  0  0  0  0
 18 15  1  0  0  0  0
 19 14  1  0  0  0  0
 20 12  1  0  0  0  0
 21  1  1  1  0  0  0
 22 21  1  0  0  0  0
 23 27  1  1  0  0  0
 23 26  1  0  0  0  0
 24 22  1  0  0  0  0
 26 25  1  6  0  0  0
 26 21  1  0  0  0  0
 28 23  1  0  0  0  0
 28 27  1  1  0  0  0
 28 24  1  0  0  0  0
M  END
>  <MODEL>
6

>  <REMARK>
 VINA RESULT:      -7.4      2.489      3.724
  Name = 
  2 active torsions:
  status: ('A' for Active; 'I' for Inactive)
    1  A    between atoms: C_1  and  C_2
    2  A    between atoms: C_10  and  C_13
                            x       y       z     vdW  Elec       q    Type
                         _______ _______ _______ _____ _____    ______ ____

>  <TORSDO>
F 2

$$$$
=
 OpenBabel11052418023D

 28 32  0  0  1  0  0  0  0  0999 V2000
  188.3600  176.8260  145.3050 C   0  0  0  0  0  0  0  0  0  0  0  0
  192.9460  175.0000  145.9300 C   0  0  0  0  0  1  0  0  0  0  0  0
  190.3380  174.5320  143.2360 C   0  0  0  0  0  0  0  0  0  0  0  0
  190.6150  175.9450  145.6310 C   0  0  0  0  0  0  0  0  0  0  0  0
  189.3300  175.3190  143.7040 N   0  0  0  0  0  0  0  0  0  0  0  0
  189.6530  177.4620  147.2630 C   0  0  0  0  0  3  0  0  0  0  0  0
  191.6680  175.1350  145.1730 C   0  0  0  0  0  0  0  0  0  0  0  0
  190.7150  176.6680  146.8280 C   0  0  0  0  0  3  0  0  0  0  0  0
  191.5230  174.4290  143.9790 C   0  0  0  0  0  3  0  0  0  0  0  0
  188.4810  177.5400  146.5070 C   0  0  0  0  0  3  0  0  0  0  0  0
  189.4290  176.0240  144.8640 C   0  0  0  0  0  0  0  0  0  0  0  0
  191.0840  173.9360  141.0130 C   0  0  0  0  0  3  0  0  0  0  0  0
  188.3280  172.6640  140.6680 C   0  0  0  0  0  3  0  0  0  0  0  0
  189.8520  173.5760  138.9250 C   0  0  0  0  0  0  0  0  0  0  0  0
  190.1630  173.7710  141.9720 C   0  0  0  0  0  0  0  0  0  0  0  0
  188.5640  172.1330  142.9240 O   0  0  0  0  0  1  0  0  0  0  0  0
  188.6300  173.2680  139.3550 C   0  0  0  0  0  3  0  0  0  0  0  0
  189.0080  172.8370  141.8110 C   0  0  0  0  0  0  0  0  0  0  0  0
  189.9990  174.1430  137.7040 F   0  0  0  0  0  0  0  0  0  0  0  0
  191.0710  173.2170  139.7070 C   0  0  0  0  0  2  0  0  0  0  0  0
  187.0920  176.9100  144.5020 C   0  0  2  0  0  3  0  0  0  0  0  0
  187.2930  177.7460  143.2300 C   0  0  0  0  0  2  0  0  0  0  0  0
  184.8130  178.0330  144.4930 C   0  0  1  0  0  3  0  0  0  0  0  0
  186.7790  179.0400  143.4160 O   0  0  0  0  0  0  0  0  0  0  0  0
  185.4200  176.4160  146.1490 O   0  0  0  0  0  1  0  0  0  0  0  0
  185.9320  177.4420  145.3560 C   0  0  1  0  0  3  0  0  0  0  0  0
  184.7890  179.5420  144.6280 C   0  0  0  0  0  2  0  0  0  0  0  0
  185.3740  178.9280  143.3720 C   0  0  2  0  0  3  0  0  0  0  0  0
  1 10  1  0  0  0  0
  3  5  2  0  0  0  0
  3  9  1  0  0  0  0
  4  8  2  0  0  0  0
  5 11  1  0  0  0  0
  7  4  1  0  0  0  0
  7  2  1  0  0  0  0
  8  6  1  0  0  0  0
  9  7  2  0  0  0  0
 10  6  2  0  0  0  0
 11  1  2  0  0  0  0
 11  4  1  0  0  0  0
 12 15  2  0  0  0  0
 13 18  2  0  0  0  0
 14 17  2  0  0  0  0
 14 20  1  0  0  0  0
 15  3  1  0  0  0  0
 17 13  1  0  0  0  0
 18 15  1  0  0  0  0
 18 16  1  0  0  0  0
 19 14  1  0  0  0  0
 20 12  1  0  0  0  0
 21  1  1  1  0  0  0
 21 26  1  0  0  0  0
 22 24  1  0  0  0  0
 22 21  1  0  0  0  0
 23 27  1  1  0  0  0
 23 26  1  0  0  0  0
 26 25  1  6  0  0  0
 28 24  1  0  0  0  0
 28 23  1  0  0  0  0
 28 27  1  1  0  0  0
M  END
>  <MODEL>
7

>  <REMARK>
 VINA RESULT:      -7.3      2.555      6.705
  Name = 
  2 active torsions:
  status: ('A' for Active; 'I' for Inactive)
    1  A    between atoms: C_1  and  C_2
    2  A    between atoms: C_10  and  C_13
                            x       y       z     vdW  Elec       q    Type
                         _______ _______ _______ _____ _____    ______ ____

>  <TORSDO>
F 2

$$$$
=
 OpenBabel11052418023D

 28 32  0  0  1  0  0  0  0  0999 V2000
  191.0310  174.1700  144.0560 C   0  0  0  0  0  0  0  0  0  0  0  0
  190.7890  177.3930  147.8390 C   0  0  0  0  0  1  0  0  0  0  0  0
  188.8800  177.0930  144.5920 C   0  0  0  0  0  0  0  0  0  0  0  0
  190.9280  175.7380  145.9260 C   0  0  0  0  0  0  0  0  0  0  0  0
  189.4630  175.9910  144.0430 N   0  0  0  0  0  0  0  0  0  0  0  0
  192.5220  173.9080  145.9580 C   0  0  0  0  0  3  0  0  0  0  0  0
  190.3460  176.8750  146.5120 C   0  0  0  0  0  0  0  0  0  0  0  0
  191.9580  175.0320  146.5640 C   0  0  0  0  0  3  0  0  0  0  0  0
  189.3270  177.5490  145.8400 C   0  0  0  0  0  3  0  0  0  0  0  0
  192.0620  173.4790  144.7110 C   0  0  0  0  0  3  0  0  0  0  0  0
  190.4610  175.3040  144.6640 C   0  0  0  0  0  0  0  0  0  0  0  0
  186.7710  178.2780  144.5670 C   0  0  0  0  0  3  0  0  0  0  0  0
  186.8850  177.9670  141.5300 C   0  0  0  0  0  3  0  0  0  0  0  0
  184.8910  178.2190  142.9960 C   0  0  0  0  0  0  0  0  0  0  0  0
  187.8080  177.8120  143.8570 C   0  0  0  0  0  0  0  0  0  0  0  0
  189.1790  178.2390  141.8360 O   0  0  0  0  0  1  0  0  0  0  0  0
  185.4610  177.7880  141.8720 C   0  0  0  0  0  3  0  0  0  0  0  0
  187.9190  178.0220  142.3820 C   0  0  0  0  0  0  0  0  0  0  0  0
  183.5740  177.9800  143.2030 F   0  0  0  0  0  0  0  0  0  0  0  0
  185.6380  179.0520  143.9830 C   0  0  0  0  0  2  0  0  0  0  0  0
  190.5480  173.7060  142.7100 C   0  0  2  0  0  3  0  0  0  0  0  0
  189.6570  172.4610  142.8370 C   0  0  0  0  0  2  0  0  0  0  0  0
  191.3480  172.5240  140.6090 C   0  0  1  0  0  3  0  0  0  0  0  0
  190.3910  171.3080  142.5170 O   0  0  0  0  0  0  0  0  0  0  0  0
  192.1620  174.6860  141.2310 O   0  0  0  0  0  1  0  0  0  0  0  0
  191.7260  173.4690  141.7530 C   0  0  1  0  0  3  0  0  0  0  0  0
  192.0300  171.1820  140.7900 C   0  0  0  0  0  2  0  0  0  0  0  0
  190.5550  171.3060  141.1170 C   0  0  2  0  0  3  0  0  0  0  0  0
  1 11  2  0  0  0  0
  1 10  1  0  0  0  0
  3  9  1  0  0  0  0
  4  7  1  0  0  0  0
  4  8  2  0  0  0  0
  5  3  2  0  0  0  0
  5 11  1  0  0  0  0
  6  8  1  0  0  0  0
  7  2  1  0  0  0  0
  9  7  2  0  0  0  0
 10  6  2  0  0  0  0
 11  4  1  0  0  0  0
 13 17  1  0  0  0  0
 13 18  2  0  0  0  0
 14 19  1  0  0  0  0
 14 20  1  0  0  0  0
 15 12  2  0  0  0  0
 15  3  1  0  0  0  0
 16 18  1  0  0  0  0
 17 14  2  0  0  0  0
 18 15  1  0  0  0  0
 20 12  1  0  0  0  0
 21 22  1  0  0  0  0
 21  1  1  1  0  0  0
 23 27  1  1  0  0  0
 23 28  1  0  0  0  0
 23 26  1  0  0  0  0
 24 22  1  0  0  0  0
 26 25  1  6  0  0  0
 26 21  1  0  0  0  0
 28 27  1  1  0  0  0
 28 24  1  0  0  0  0
M  END
>  <MODEL>
8

>  <REMARK>
 VINA RESULT:      -7.3      1.816      2.354
  Name = 
  2 active torsions:
  status: ('A' for Active; 'I' for Inactive)
    1  A    between atoms: C_1  and  C_2
    2  A    between atoms: C_10  and  C_13
                            x       y       z     vdW  Elec       q    Type
                         _______ _______ _______ _____ _____    ______ ____

>  <TORSDO>
F 2

$$$$
=
 OpenBabel11052418023D

 28 32  0  0  1  0  0  0  0  0999 V2000
  189.0500  176.2680  144.3650 C   0  0  0  0  0  0  0  0  0  0  0  0
  191.5660  175.2910  148.5440 C   0  0  0  0  0  1  0  0  0  0  0  0
  192.6020  175.5410  144.9190 C   0  0  0  0  0  0  0  0  0  0  0  0
  190.2650  175.7940  146.4300 C   0  0  0  0  0  0  0  0  0  0  0  0
  191.4120  175.8310  144.3230 N   0  0  0  0  0  0  0  0  0  0  0  0
  187.8780  176.2280  146.4950 C   0  0  0  0  0  3  0  0  0  0  0  0
  191.4790  175.4880  147.0690 C   0  0  0  0  0  0  0  0  0  0  0  0
  189.0710  175.9280  147.1540 C   0  0  0  0  0  3  0  0  0  0  0  0
  192.6420  175.3600  146.3090 C   0  0  0  0  0  3  0  0  0  0  0  0
  187.8660  176.3960  145.1080 C   0  0  0  0  0  3  0  0  0  0  0  0
  190.2540  175.9650  145.0270 C   0  0  0  0  0  0  0  0  0  0  0  0
  194.7640  176.3450  144.1880 C   0  0  0  0  0  3  0  0  0  0  0  0
  194.5760  174.2090  142.0120 C   0  0  0  0  0  3  0  0  0  0  0  0
  195.8350  176.3540  141.9840 C   0  0  0  0  0  0  0  0  0  0  0  0
  193.8290  175.3880  144.0960 C   0  0  0  0  0  0  0  0  0  0  0  0
  193.5050  172.9680  143.6690 O   0  0  0  0  0  1  0  0  0  0  0  0
  195.2090  175.3650  141.3480 C   0  0  0  0  0  3  0  0  0  0  0  0
  194.0060  174.1870  143.2260 C   0  0  0  0  0  0  0  0  0  0  0  0
  196.3630  177.3720  141.2630 F   0  0  0  0  0  0  0  0  0  0  0  0
  196.0630  176.3180  143.4580 C   0  0  0  0  0  2  0  0  0  0  0  0
  189.0260  176.4430  142.8720 C   0  0  2  0  0  3  0  0  0  0  0  0
  189.1440  177.9230  142.4830 C   0  0  0  0  0  2  0  0  0  0  0  0
  187.4410  176.3800  140.8870 C   0  0  1  0  0  3  0  0  0  0  0  0
  187.8790  178.4390  142.1540 O   0  0  0  0  0  0  0  0  0  0  0  0
  187.9710  174.4140  142.1450 O   0  0  0  0  0  1  0  0  0  0  0  0
  187.7770  175.7900  142.2600 C   0  0  1  0  0  3  0  0  0  0  0  0
  186.1940  177.2350  140.9740 C   0  0  0  0  0  2  0  0  0  0  0  0
  187.5450  177.9160  140.8880 C   0  0  2  0  0  3  0  0  0  0  0  0
  1 11  2  0  0  0  0
  1 10  1  0  0  0  0
  3  9  1  0  0  0  0
  4  7  1  0  0  0  0
  4  8  2  0  0  0  0
  5  3  2  0  0  0  0
  5 11  1  0  0  0  0
  6  8  1  0  0  0  0
  7  2  1  0  0  0  0
  9  7  2  0  0  0  0
 10  6  2  0  0  0  0
 11  4  1  0  0  0  0
 13 18  2  0  0  0  0
 14 20  1  0  0  0  0
 15 12  2  0  0  0  0
 15  3  1  0  0  0  0
 17 14  2  0  0  0  0
 17 13  1  0  0  0  0
 18 16  1  0  0  0  0
 18 15  1  0  0  0  0
 19 14  1  0  0  0  0
 20 12  1  0  0  0  0
 21  1  1  1  0  0  0
 22 21  1  0  0  0  0
 23 28  1  0  0  0  0
 23 27  1  1  0  0  0
 23 26  1  0  0  0  0
 24 22  1  0  0  0  0
 26 25  1  6  0  0  0
 26 21  1  0  0  0  0
 28 27  1  1  0  0  0
 28 24  1  0  0  0  0
M  END
>  <MODEL>
9

>  <REMARK>
 VINA RESULT:      -7.3      3.639      6.743
  Name = 
  2 active torsions:
  status: ('A' for Active; 'I' for Inactive)
    1  A    between atoms: C_1  and  C_2
    2  A    between atoms: C_10  and  C_13
                            x       y       z     vdW  Elec       q    Type
                         _______ _______ _______ _____ _____    ______ ____

>  <TORSDO>
F 2

$$$$
