=
 OpenBabel11052419553D

 37 41  0  0  1  0  0  0  0  0999 V2000
  193.3960  174.0780  145.0280 C   0  0  1  0  0  0  0  0  0  0  0  0
  192.0860  171.7140  142.7230 C   0  0  0  0  0  0  0  0  0  0  0  0
  190.2750  174.5620  141.8520 C   0  0  0  0  0  2  0  0  0  0  0  0
  194.7450  174.7340  145.1880 N   0  0  0  0  0  0  0  0  0  0  0  0
  190.0520  177.1410  145.6250 C   0  0  0  0  0  2  0  0  0  0  0  0
  190.4700  172.0030  140.7470 C   0  0  0  0  0  2  0  0  0  0  0  0
  189.5650  174.6930  145.9060 C   0  0  0  0  0  1  0  0  0  0  0  0
  193.6600  176.8110  145.5190 C   0  0  1  0  0  3  0  0  0  0  0  0
  190.2230  173.4400  142.8780 C   0  0  0  0  0  2  0  0  0  0  0  0
  188.7250  177.1190  143.5640 C   0  0  0  0  0  0  0  0  0  0  0  0
  189.0460  172.2310  140.2190 C   0  0  0  0  0  2  0  0  0  0  0  0
  194.6710  175.8550  146.1220 C   0  0  2  0  0  3  0  0  0  0  0  0
  193.5360  172.5680  144.7190 C   0  0  0  0  0  2  0  0  0  0  0  0
  193.1130  172.5170  141.9180 C   0  0  0  0  0  1  0  0  0  0  0  0
  187.9890  175.6130  141.8350 C   0  0  0  0  0  2  0  0  0  0  0  0
  188.2330  173.3370  140.9040 C   0  0  0  0  0  2  0  0  0  0  0  0
  192.2310  171.9110  144.2510 C   0  0  0  0  0  2  0  0  0  0  0  0
  192.6500  176.7410  146.6360 C   0  0  0  0  0  2  0  0  0  0  0  0
  190.6440  175.7170  145.5600 C   0  0  2  0  0  3  0  0  0  0  0  0
  188.9490  174.6880  141.0870 C   0  0  2  0  0  3  0  0  0  0  0  0
  192.4790  174.2380  146.3020 C   0  0  0  0  0  2  0  0  0  0  0  0
  190.6480  172.0830  142.2850 C   0  0  2  0  0  3  0  0  0  0  0  0
  188.7750  177.3240  144.8580 C   0  0  0  0  0  0  0  0  0  0  0  0
  192.3260  170.2430  142.4370 C   0  0  0  0  0  1  0  0  0  0  0  0
  191.7790  175.5460  146.4880 N   0  0  1  0  0  0  0  0  0  0  0  0
  195.1150  177.2200  145.6710 C   0  0  0  0  0  2  0  0  0  0  0  0
  192.7650  174.6720  143.9320 O   0  0  0  0  0  1  0  0  0  0  0  0
  188.6330  176.8840  142.2840 C   0  0  0  0  0  3  0  0  0  0  0  0
  187.0040  176.5760  146.4580 C   0  0  0  0  0  2  0  0  0  0  0  0
  187.5500  177.7350  145.6180 C   0  0  2  0  0  3  0  0  0  0  0  0
  186.4720  178.2830  144.6800 C   0  0  0  0  0  2  0  0  0  0  0  0
  184.2220  179.1970  144.5730 N   0  0  0  0  0  1  0  0  0  0  0  0
  184.7050  177.5520  146.2970 C   0  0  0  0  0  2  0  0  0  0  0  0
  185.2490  178.7200  145.4800 C   0  0  1  0  0  3  0  0  0  0  0  0
  185.7790  177.0290  147.2470 C   0  0  0  0  0  2  0  0  0  0  0  0
  197.1190  174.2370  145.1690 N   0  0  0  0  0  1  0  0  0  0  0  0
  195.8090  173.8340  145.6680 C   0  0  0  0  0  2  0  0  0  0  0  0
  1 27  1  6  0  0  0
  1  4  1  0  0  0  0
  1 21  1  0  0  0  0
  2 17  1  0  0  0  0
  3  9  1  0  0  0  0
  4 37  1  0  0  0  0
  4 12  1  0  0  0  0
  8 26  1  1  0  0  0
  8 12  1  0  0  0  0
  8 18  1  0  0  0  0
 10 23  2  0  0  0  0
 11  6  1  0  0  0  0
 11 16  1  0  0  0  0
 12 26  1  6  0  0  0
 13  1  1  0  0  0  0
 14  2  1  0  0  0  0
 15 28  1  0  0  0  0
 17 13  1  0  0  0  0
 19  5  1  0  0  0  0
 19  7  1  1  0  0  0
 19 25  1  0  0  0  0
 20 16  1  1  0  0  0
 20 15  1  0  0  0  0
 20  3  1  0  0  0  0
 22  6  1  6  0  0  0
 22  2  1  0  0  0  0
 22  9  1  0  0  0  0
 23  5  1  0  0  0  0
 24  2  1  0  0  0  0
 25 21  1  6  0  0  0
 25 18  1  0  0  0  0
 28 10  2  0  0  0  0
 29 35  1  0  0  0  0
 30 23  1  6  0  0  0
 30 29  1  0  0  0  0
 31 34  1  0  0  0  0
 31 30  1  0  0  0  0
 33 35  1  0  0  0  0
 34 32  1  6  0  0  0
 34 33  1  0  0  0  0
 36 37  1  0  0  0  0
M  END
>  <MODEL>
1

>  <REMARK>
 VINA RESULT:      -9.8      0.000      0.000
  Name = 
  2 active torsions:
  status: ('A' for Active; 'I' for Inactive)
    1  A    between atoms: N_5  and  C_23
    2  A    between atoms: C_6  and  C_31
                            x       y       z     vdW  Elec       q    Type
                         _______ _______ _______ _____ _____    ______ ____

>  <TORSDO>
F 2

$$$$
=
 OpenBabel11052419553D

 37 41  0  0  1  0  0  0  0  0999 V2000
  193.5710  174.1380  144.8030 C   0  0  1  0  0  0  0  0  0  0  0  0
  192.3770  171.9070  142.3100 C   0  0  0  0  0  0  0  0  0  0  0  0
  190.1970  174.5950  141.8930 C   0  0  0  0  0  2  0  0  0  0  0  0
  194.8450  174.9300  144.9630 N   0  0  0  0  0  0  0  0  0  0  0  0
  189.9530  176.6870  145.9550 C   0  0  0  0  0  2  0  0  0  0  0  0
  190.6010  172.2180  140.4800 C   0  0  0  0  0  2  0  0  0  0  0  0
  189.7670  174.1830  145.9670 C   0  0  0  0  0  1  0  0  0  0  0  0
  193.5580  176.8100  145.6030 C   0  0  1  0  0  3  0  0  0  0  0  0
  190.3460  173.3660  142.7780 C   0  0  0  0  0  2  0  0  0  0  0  0
  188.4930  176.7370  143.9860 C   0  0  0  0  0  0  0  0  0  0  0  0
  189.1270  172.3310  140.0650 C   0  0  0  0  0  2  0  0  0  0  0  0
  194.7110  175.9220  146.0270 C   0  0  2  0  0  3  0  0  0  0  0  0
  193.8590  172.7000  144.3080 C   0  0  0  0  0  2  0  0  0  0  0  0
  193.2460  172.9140  141.5490 C   0  0  0  0  0  1  0  0  0  0  0  0
  187.8110  175.3570  142.1340 C   0  0  0  0  0  2  0  0  0  0  0  0
  188.2440  173.2470  140.9240 C   0  0  0  0  0  2  0  0  0  0  0  0
  192.6060  171.9470  143.8400 C   0  0  0  0  0  2  0  0  0  0  0  0
  192.6450  176.4940  146.7590 C   0  0  0  0  0  2  0  0  0  0  0  0
  190.6950  175.3620  145.6850 C   0  0  2  0  0  3  0  0  0  0  0  0
  188.8130  174.6450  141.2260 C   0  0  2  0  0  3  0  0  0  0  0  0
  192.7350  174.0420  146.1370 C   0  0  0  0  0  2  0  0  0  0  0  0
  190.8790  172.1470  142.0030 C   0  0  2  0  0  3  0  0  0  0  0  0
  188.6110  176.8000  145.2900 C   0  0  0  0  0  0  0  0  0  0  0  0
  192.7600  170.5170  141.8360 C   0  0  0  0  0  1  0  0  0  0  0  0
  191.9060  175.2260  146.5190 N   0  0  1  0  0  0  0  0  0  0  0  0
  194.9640  177.3720  145.7190 C   0  0  0  0  0  2  0  0  0  0  0  0
  192.8000  174.7710  143.8250 O   0  0  0  0  0  1  0  0  0  0  0  0
  188.3370  176.6380  142.6940 C   0  0  0  0  0  3  0  0  0  0  0  0
  186.1130  176.7330  145.3770 C   0  0  0  0  0  2  0  0  0  0  0  0
  187.4050  176.9720  146.1630 C   0  0  2  0  0  3  0  0  0  0  0  0
  187.3920  178.3510  146.8270 C   0  0  0  0  0  2  0  0  0  0  0  0
  186.1530  179.8150  148.3190 N   0  0  0  0  0  1  0  0  0  0  0  0
  184.8910  178.2670  146.9330 C   0  0  0  0  0  2  0  0  0  0  0  0
  186.1720  178.4890  147.7320 C   0  0  1  0  0  3  0  0  0  0  0  0
  184.9030  176.8810  146.2950 C   0  0  0  0  0  2  0  0  0  0  0  0
  197.2210  174.6210  144.5860 N   0  0  0  0  0  1  0  0  0  0  0  0
  196.0350  174.1170  145.2690 C   0  0  0  0  0  2  0  0  0  0  0  0
  1 27  1  6  0  0  0
  1  4  1  0  0  0  0
  1 21  1  0  0  0  0
  2 17  1  0  0  0  0
  3  9  1  0  0  0  0
  4 37  1  0  0  0  0
  4 12  1  0  0  0  0
  8 26  1  1  0  0  0
  8 12  1  0  0  0  0
  8 18  1  0  0  0  0
 10 23  2  0  0  0  0
 11  6  1  0  0  0  0
 11 16  1  0  0  0  0
 12 26  1  6  0  0  0
 13  1  1  0  0  0  0
 14  2  1  0  0  0  0
 15 28  1  0  0  0  0
 17 13  1  0  0  0  0
 19  5  1  0  0  0  0
 19  7  1  1  0  0  0
 19 25  1  0  0  0  0
 20 16  1  1  0  0  0
 20  3  1  0  0  0  0
 20 15  1  0  0  0  0
 22  6  1  6  0  0  0
 22  2  1  0  0  0  0
 22  9  1  0  0  0  0
 23  5  1  0  0  0  0
 24  2  1  0  0  0  0
 25 21  1  6  0  0  0
 25 18  1  0  0  0  0
 28 10  2  0  0  0  0
 29 30  1  0  0  0  0
 29 35  1  0  0  0  0
 30 23  1  6  0  0  0
 30 31  1  0  0  0  0
 31 34  1  0  0  0  0
 33 34  1  0  0  0  0
 34 32  1  6  0  0  0
 35 33  1  0  0  0  0
 36 37  1  0  0  0  0
M  END
>  <MODEL>
2

>  <REMARK>
 VINA RESULT:      -9.2      0.943      1.051
  Name = 
  2 active torsions:
  status: ('A' for Active; 'I' for Inactive)
    1  A    between atoms: N_5  and  C_23
    2  A    between atoms: C_6  and  C_31
                            x       y       z     vdW  Elec       q    Type
                         _______ _______ _______ _____ _____    ______ ____

>  <TORSDO>
F 2

$$$$
=
 OpenBabel11052419553D

 37 41  0  0  1  0  0  0  0  0999 V2000
  192.5700  173.2000  141.5850 C   0  0  1  0  0  0  0  0  0  0  0  0
  194.9870  175.0100  143.4550 C   0  0  0  0  0  0  0  0  0  0  0  0
  192.2990  175.0070  145.6750 C   0  0  0  0  0  2  0  0  0  0  0  0
  192.4680  171.7630  141.1370 N   0  0  0  0  0  0  0  0  0  0  0  0
  188.5230  174.6860  143.1110 C   0  0  0  0  0  2  0  0  0  0  0  0
  194.9520  175.8630  145.8780 C   0  0  0  0  0  2  0  0  0  0  0  0
  190.2560  176.3410  142.3590 C   0  0  0  0  0  1  0  0  0  0  0  0
  190.1990  171.7490  141.8100 C   0  0  1  0  0  3  0  0  0  0  0  0
  192.7900  175.7950  144.4680 C   0  0  0  0  0  2  0  0  0  0  0  0
  188.8890  175.4260  145.4200 C   0  0  0  0  0  0  0  0  0  0  0  0
  194.4440  176.8640  146.9260 C   0  0  0  0  0  2  0  0  0  0  0  0
  191.1250  171.4660  140.6430 C   0  0  2  0  0  3  0  0  0  0  0  0
  194.0030  173.7510  141.3900 C   0  0  0  0  0  2  0  0  0  0  0  0
  195.0390  173.5880  144.0230 C   0  0  0  0  0  1  0  0  0  0  0  0
  190.5730  176.4440  146.8070 C   0  0  0  0  0  2  0  0  0  0  0  0
  192.9370  177.1560  146.9170 C   0  0  0  0  0  2  0  0  0  0  0  0
  194.2490  175.0910  142.0970 C   0  0  0  0  0  2  0  0  0  0  0  0
  189.4170  172.8610  141.1610 C   0  0  0  0  0  2  0  0  0  0  0  0
  189.9550  174.8580  142.5610 C   0  0  2  0  0  3  0  0  0  0  0  0
  192.0100  175.9280  146.8700 C   0  0  2  0  0  3  0  0  0  0  0  0
  191.5680  174.1540  140.8270 C   0  0  0  0  0  2  0  0  0  0  0  0
  194.3200  175.9720  144.4670 C   0  0  2  0  0  3  0  0  0  0  0  0
  188.2050  175.5370  144.3070 C   0  0  0  0  0  0  0  0  0  0  0  0
  196.4160  175.4620  143.2160 C   0  0  0  0  0  1  0  0  0  0  0  0
  190.1420  174.1540  141.2770 N   0  0  1  0  0  0  0  0  0  0  0  0
  190.3460  170.3390  141.2620 C   0  0  0  0  0  2  0  0  0  0  0  0
  192.2900  173.2360  142.9530 O   0  0  0  0  0  1  0  0  0  0  0  0
  189.5760  175.3680  146.5270 C   0  0  0  0  0  3  0  0  0  0  0  0
  187.6090  177.8910  143.7090 C   0  0  0  0  0  2  0  0  0  0  0  0
  187.0900  176.5320  144.1860 C   0  0  2  0  0  3  0  0  0  0  0  0
  186.3280  176.6730  145.5060 C   0  0  0  0  0  2  0  0  0  0  0  0
  184.4970  177.8210  146.6180 N   0  0  0  0  0  1  0  0  0  0  0  0
  185.7140  179.0220  144.8900 C   0  0  0  0  0  2  0  0  0  0  0  0
  185.1810  177.6680  145.3490 C   0  0  1  0  0  3  0  0  0  0  0  0
  186.4520  178.8750  143.5630 C   0  0  0  0  0  2  0  0  0  0  0  0
  192.7860  171.3880  138.7620 N   0  0  0  0  0  1  0  0  0  0  0  0
  193.4180  171.3850  140.0760 C   0  0  0  0  0  2  0  0  0  0  0  0
  1 27  1  1  0  0  0
  2 14  1  0  0  0  0
  2 22  1  0  0  0  0
  4  1  1  0  0  0  0
  5 23  1  0  0  0  0
  6 11  1  0  0  0  0
  8 18  1  6  0  0  0
  9  3  1  0  0  0  0
 10 28  2  0  0  0  0
 12  4  1  0  0  0  0
 12 26  1  1  0  0  0
 12  8  1  0  0  0  0
 13  1  1  0  0  0  0
 13 17  1  0  0  0  0
 15 20  1  0  0  0  0
 16 11  1  0  0  0  0
 17  2  1  0  0  0  0
 18 25  1  0  0  0  0
 19  7  1  6  0  0  0
 19  5  1  0  0  0  0
 20  3  1  6  0  0  0
 20 16  1  0  0  0  0
 21  1  1  0  0  0  0
 22  9  1  1  0  0  0
 22  6  1  0  0  0  0
 23 10  2  0  0  0  0
 24  2  1  0  0  0  0
 25 21  1  1  0  0  0
 25 19  1  0  0  0  0
 26  8  1  0  0  0  0
 28 15  1  0  0  0  0
 29 30  1  0  0  0  0
 30 23  1  1  0  0  0
 30 31  1  0  0  0  0
 33 34  1  0  0  0  0
 34 31  1  0  0  0  0
 34 32  1  1  0  0  0
 35 29  1  0  0  0  0
 35 33  1  0  0  0  0
 36 37  1  0  0  0  0
 37  4  1  0  0  0  0
M  END
>  <MODEL>
3

>  <REMARK>
 VINA RESULT:      -8.4      2.350      5.392
  Name = 
  2 active torsions:
  status: ('A' for Active; 'I' for Inactive)
    1  A    between atoms: N_5  and  C_23
    2  A    between atoms: C_6  and  C_31
                            x       y       z     vdW  Elec       q    Type
                         _______ _______ _______ _____ _____    ______ ____

>  <TORSDO>
F 2

$$$$
=
 OpenBabel11052419553D

 37 41  0  0  1  0  0  0  0  0999 V2000
  191.2470  174.2170  141.6050 C   0  0  1  0  0  0  0  0  0  0  0  0
  194.1960  175.4760  143.1330 C   0  0  0  0  0  0  0  0  0  0  0  0
  192.0440  175.3240  145.8710 C   0  0  0  0  0  2  0  0  0  0  0  0
  190.8850  172.8900  140.9850 N   0  0  0  0  0  0  0  0  0  0  0  0
  187.8090  175.7590  144.1950 C   0  0  0  0  0  2  0  0  0  0  0  0
  194.7640  175.9080  145.6010 C   0  0  0  0  0  2  0  0  0  0  0  0
  189.5320  177.3650  143.3260 C   0  0  0  0  0  1  0  0  0  0  0  0
  188.8200  172.9520  142.1370 C   0  0  1  0  0  3  0  0  0  0  0  0
  192.3640  176.2600  144.7150 C   0  0  0  0  0  2  0  0  0  0  0  0
  188.7290  176.0650  146.4470 C   0  0  0  0  0  0  0  0  0  0  0  0
  194.6060  176.7560  146.8710 C   0  0  0  0  0  2  0  0  0  0  0  0
  189.4440  172.7940  140.7650 C   0  0  2  0  0  3  0  0  0  0  0  0
  192.6650  174.6700  141.1780 C   0  0  0  0  0  2  0  0  0  0  0  0
  194.1950  173.9790  143.4610 C   0  0  0  0  0  1  0  0  0  0  0  0
  190.7720  176.6900  147.5580 C   0  0  0  0  0  2  0  0  0  0  0  0
  193.1750  177.1720  147.2410 C   0  0  0  0  0  2  0  0  0  0  0  0
  193.2090  175.8460  142.0000 C   0  0  0  0  0  2  0  0  0  0  0  0
  188.0580  174.2200  141.8490 C   0  0  0  0  0  2  0  0  0  0  0  0
  189.1060  175.9000  143.3710 C   0  0  2  0  0  3  0  0  0  0  0  0
  192.1190  176.0510  147.2220 C   0  0  2  0  0  3  0  0  0  0  0  0
  190.2310  175.3650  141.2370 C   0  0  0  0  0  2  0  0  0  0  0  0
  193.8710  176.3060  144.3980 C   0  0  2  0  0  3  0  0  0  0  0  0
  187.8480  176.4200  145.5430 C   0  0  0  0  0  0  0  0  0  0  0  0
  195.5890  175.8400  142.6500 C   0  0  0  0  0  1  0  0  0  0  0  0
  188.9390  175.4100  141.9890 N   0  0  1  0  0  0  0  0  0  0  0  0
  188.6810  171.6480  141.3700 C   0  0  0  0  0  2  0  0  0  0  0  0
  191.2630  174.0450  142.9910 O   0  0  0  0  0  1  0  0  0  0  0  0
  189.6180  175.7640  147.3530 C   0  0  0  0  0  3  0  0  0  0  0  0
  186.1170  177.2640  147.1380 C   0  0  0  0  0  2  0  0  0  0  0  0
  186.8590  177.5100  145.8210 C   0  0  2  0  0  3  0  0  0  0  0  0
  185.8710  177.6730  144.6630 C   0  0  0  0  0  2  0  0  0  0  0  0
  183.9410  178.9190  143.8700 N   0  0  0  0  0  1  0  0  0  0  0  0
  184.1500  178.5400  146.2620 C   0  0  0  0  0  2  0  0  0  0  0  0
  184.8940  178.8070  144.9580 C   0  0  1  0  0  3  0  0  0  0  0  0
  185.1410  178.4040  147.4140 C   0  0  0  0  0  2  0  0  0  0  0  0
  190.6670  172.9170  138.5700 N   0  0  0  0  0  1  0  0  0  0  0  0
  191.5440  172.6170  139.6950 C   0  0  0  0  0  2  0  0  0  0  0  0
  1 27  1  1  0  0  0
  2 14  1  0  0  0  0
  2 22  1  0  0  0  0
  4  1  1  0  0  0  0
  5 23  1  0  0  0  0
  6 11  1  0  0  0  0
  8 26  1  6  0  0  0
  9  3  1  0  0  0  0
 10 28  2  0  0  0  0
 11 16  1  0  0  0  0
 12  4  1  0  0  0  0
 12 26  1  1  0  0  0
 12  8  1  0  0  0  0
 13  1  1  0  0  0  0
 13 17  1  0  0  0  0
 17  2  1  0  0  0  0
 18 25  1  0  0  0  0
 18  8  1  0  0  0  0
 19  7  1  6  0  0  0
 19  5  1  0  0  0  0
 20  3  1  6  0  0  0
 20 16  1  0  0  0  0
 20 15  1  0  0  0  0
 21  1  1  0  0  0  0
 22  9  1  1  0  0  0
 22  6  1  0  0  0  0
 23 10  2  0  0  0  0
 24  2  1  0  0  0  0
 25 21  1  1  0  0  0
 25 19  1  0  0  0  0
 28 15  1  0  0  0  0
 29 35  1  0  0  0  0
 30 23  1  6  0  0  0
 30 29  1  0  0  0  0
 31 34  1  0  0  0  0
 31 30  1  0  0  0  0
 33 35  1  0  0  0  0
 34 32  1  6  0  0  0
 34 33  1  0  0  0  0
 36 37  1  0  0  0  0
 37  4  1  0  0  0  0
M  END
>  <MODEL>
4

>  <REMARK>
 VINA RESULT:      -8.4      2.411      5.427
  Name = 
  2 active torsions:
  status: ('A' for Active; 'I' for Inactive)
    1  A    between atoms: N_5  and  C_23
    2  A    between atoms: C_6  and  C_31
                            x       y       z     vdW  Elec       q    Type
                         _______ _______ _______ _____ _____    ______ ____

>  <TORSDO>
F 2

$$$$
=
 OpenBabel11052419553D

 37 41  0  0  1  0  0  0  0  0999 V2000
  191.8450  173.9020  142.9060 C   0  0  1  0  0  0  0  0  0  0  0  0
  193.4960  175.5910  145.5580 C   0  0  0  0  0  0  0  0  0  0  0  0
  190.1790  175.7940  146.6080 C   0  0  0  0  0  2  0  0  0  0  0  0
  191.8260  172.4660  142.4420 N   0  0  0  0  0  0  0  0  0  0  0  0
  187.6250  175.6640  142.8130 C   0  0  0  0  0  2  0  0  0  0  0  0
  192.6110  176.4880  147.7970 C   0  0  0  0  0  2  0  0  0  0  0  0
  189.6160  177.1940  142.7770 C   0  0  0  0  0  1  0  0  0  0  0  0
  189.4750  172.6050  142.2160 C   0  0  1  0  0  3  0  0  0  0  0  0
  191.1340  176.5290  145.6790 C   0  0  0  0  0  2  0  0  0  0  0  0
  187.1470  176.4200  145.0950 C   0  0  0  0  0  0  0  0  0  0  0  0
  191.8120  177.5370  148.5850 C   0  0  0  0  0  2  0  0  0  0  0  0
  190.7500  172.2440  141.4790 C   0  0  2  0  0  3  0  0  0  0  0  0
  193.2790  174.3590  143.2670 C   0  0  0  0  0  2  0  0  0  0  0  0
  193.2400  174.1800  146.0950 C   0  0  0  0  0  1  0  0  0  0  0  0
  188.2500  177.3570  147.0200 C   0  0  0  0  0  2  0  0  0  0  0  0
  190.4410  177.9220  148.0130 C   0  0  0  0  0  2  0  0  0  0  0  0
  193.3280  175.6930  144.0230 C   0  0  0  0  0  2  0  0  0  0  0  0
  189.0660  173.7520  141.3290 C   0  0  0  0  0  2  0  0  0  0  0  0
  189.1670  175.7360  142.8410 C   0  0  2  0  0  3  0  0  0  0  0  0
  189.5230  176.7530  147.6130 C   0  0  2  0  0  3  0  0  0  0  0  0
  191.2630  174.9020  141.8340 C   0  0  0  0  0  2  0  0  0  0  0  0
  192.5620  176.6110  146.2520 C   0  0  2  0  0  3  0  0  0  0  0  0
  186.9380  176.5540  143.8080 C   0  0  0  0  0  0  0  0  0  0  0  0
  194.9370  175.9500  145.8750 C   0  0  0  0  0  1  0  0  0  0  0  0
  189.7760  174.9990  141.7160 N   0  0  1  0  0  0  0  0  0  0  0  0
  189.7250  171.1790  141.7530 C   0  0  0  0  0  2  0  0  0  0  0  0
  191.0760  173.9790  144.0700 O   0  0  0  0  0  1  0  0  0  0  0  0
  187.3640  176.3390  146.3790 C   0  0  0  0  0  3  0  0  0  0  0  0
  184.9020  177.9240  144.2890 C   0  0  0  0  0  2  0  0  0  0  0  0
  186.0160  177.6130  143.2850 C   0  0  2  0  0  3  0  0  0  0  0  0
  185.4300  177.2180  141.9270 C   0  0  0  0  0  2  0  0  0  0  0  0
  183.9410  177.9170  140.1380 N   0  0  0  0  0  1  0  0  0  0  0  0
  183.4050  178.6110  142.4050 C   0  0  0  0  0  2  0  0  0  0  0  0
  184.5200  178.3250  141.4040 C   0  0  1  0  0  3  0  0  0  0  0  0
  183.9980  179.0280  143.7480 C   0  0  0  0  0  2  0  0  0  0  0  0
  192.9880  172.0370  140.3570 N   0  0  0  0  0  1  0  0  0  0  0  0
  193.0780  172.0110  141.8130 C   0  0  0  0  0  2  0  0  0  0  0  0
  1 13  1  0  0  0  0
  1 27  1  1  0  0  0
  2 24  1  0  0  0  0
  2 14  1  0  0  0  0
  2 22  1  0  0  0  0
  4  1  1  0  0  0  0
  5 19  1  0  0  0  0
  5 23  1  0  0  0  0
  6 11  1  0  0  0  0
  8 18  1  6  0  0  0
  9  3  1  0  0  0  0
 10 28  2  0  0  0  0
 12 26  1  1  0  0  0
 12  8  1  0  0  0  0
 12  4  1  0  0  0  0
 13 17  1  0  0  0  0
 15 20  1  0  0  0  0
 16 11  1  0  0  0  0
 17  2  1  0  0  0  0
 19  7  1  6  0  0  0
 20  3  1  6  0  0  0
 20 16  1  0  0  0  0
 21  1  1  0  0  0  0
 22  9  1  6  0  0  0
 22  6  1  0  0  0  0
 23 10  2  0  0  0  0
 25 18  1  1  0  0  0
 25 21  1  0  0  0  0
 25 19  1  0  0  0  0
 26  8  1  0  0  0  0
 28 15  1  0  0  0  0
 30 23  1  1  0  0  0
 30 29  1  0  0  0  0
 31 30  1  0  0  0  0
 33 35  1  0  0  0  0
 34 32  1  6  0  0  0
 34 31  1  0  0  0  0
 34 33  1  0  0  0  0
 35 29  1  0  0  0  0
 36 37  1  0  0  0  0
 37  4  1  0  0  0  0
M  END
>  <MODEL>
5

>  <REMARK>
 VINA RESULT:      -8.4      2.345      5.420
  Name = 
  2 active torsions:
  status: ('A' for Active; 'I' for Inactive)
    1  A    between atoms: N_5  and  C_23
    2  A    between atoms: C_6  and  C_31
                            x       y       z     vdW  Elec       q    Type
                         _______ _______ _______ _____ _____    ______ ____

>  <TORSDO>
F 2

$$$$
=
 OpenBabel11052419553D

 37 41  0  0  1  0  0  0  0  0999 V2000
  189.6880  173.6950  140.7300 C   0  0  1  0  0  0  0  0  0  0  0  0
  187.8260  175.7350  142.9630 C   0  0  0  0  0  0  0  0  0  0  0  0
  191.0570  176.1930  144.1860 C   0  0  0  0  0  2  0  0  0  0  0  0
  190.0100  173.7920  139.2590 N   0  0  0  0  0  0  0  0  0  0  0  0
  193.3880  172.4110  143.0910 C   0  0  0  0  0  2  0  0  0  0  0  0
  188.5910  177.3520  144.8060 C   0  0  0  0  0  2  0  0  0  0  0  0
  191.1030  172.0770  144.0770 C   0  0  0  0  0  1  0  0  0  0  0  0
  192.2550  173.2240  139.7460 C   0  0  1  0  0  3  0  0  0  0  0  0
  189.9160  175.1930  144.3070 C   0  0  0  0  0  2  0  0  0  0  0  0
  193.7920  174.1740  144.7470 C   0  0  0  0  0  0  0  0  0  0  0  0
  189.1680  177.5900  146.2090 C   0  0  0  0  0  2  0  0  0  0  0  0
  191.0600  172.8450  138.8920 C   0  0  2  0  0  3  0  0  0  0  0  0
  188.2070  174.0470  141.0070 C   0  0  0  0  0  2  0  0  0  0  0  0
  188.4210  176.7130  141.9450 C   0  0  0  0  0  1  0  0  0  0  0  0
  192.5990  175.7480  146.1240 C   0  0  0  0  0  2  0  0  0  0  0  0
  190.3880  176.7420  146.5980 C   0  0  0  0  0  2  0  0  0  0  0  0
  187.8930  174.2610  142.4940 C   0  0  0  0  0  2  0  0  0  0  0  0
  192.3500  171.9330  140.5170 C   0  0  0  0  0  2  0  0  0  0  0  0
  191.8740  172.6120  142.8720 C   0  0  2  0  0  3  0  0  0  0  0  0
  191.5270  176.6820  145.5650 C   0  0  2  0  0  3  0  0  0  0  0  0
  189.9750  172.2650  141.3300 C   0  0  0  0  0  2  0  0  0  0  0  0
  188.5370  175.8780  144.3300 C   0  0  2  0  0  3  0  0  0  0  0  0
  193.9030  172.9110  144.4100 C   0  0  0  0  0  0  0  0  0  0  0  0
  186.3580  176.0840  143.1330 C   0  0  0  0  0  1  0  0  0  0  0  0
  191.3950  171.9260  141.6560 N   0  0  1  0  0  0  0  0  0  0  0  0
  192.3130  173.3530  138.2330 C   0  0  0  0  0  2  0  0  0  0  0  0
  190.4740  174.6380  141.3960 O   0  0  0  0  0  1  0  0  0  0  0  0
  193.6610  175.4140  145.1280 C   0  0  0  0  0  3  0  0  0  0  0  0
  196.0630  172.0050  145.2860 C   0  0  0  0  0  2  0  0  0  0  0  0
  194.5350  171.9210  145.3400 C   0  0  2  0  0  3  0  0  0  0  0  0
  194.0570  170.4970  145.0430 C   0  0  0  0  0  2  0  0  0  0  0  0
  194.2610  168.1660  145.6990 N   0  0  0  0  0  1  0  0  0  0  0  0
  196.2120  169.5950  145.9440 C   0  0  0  0  0  2  0  0  0  0  0  0
  194.6910  169.5130  146.0210 C   0  0  1  0  0  3  0  0  0  0  0  0
  196.6800  171.0110  146.2660 C   0  0  0  0  0  2  0  0  0  0  0  0
  189.0160  174.2350  137.0910 N   0  0  0  0  0  1  0  0  0  0  0  0
  188.8650  173.5420  138.3650 C   0  0  0  0  0  2  0  0  0  0  0  0
  1 13  1  0  0  0  0
  1 21  1  0  0  0  0
  1 27  1  1  0  0  0
  2 24  1  0  0  0  0
  2 22  1  0  0  0  0
  3  9  1  0  0  0  0
  4  1  1  0  0  0  0
  5 23  1  0  0  0  0
  6 11  1  0  0  0  0
  8 26  1  6  0  0  0
  8 18  1  0  0  0  0
 10 28  2  0  0  0  0
 11 16  1  0  0  0  0
 12 26  1  6  0  0  0
 12  4  1  0  0  0  0
 12  8  1  0  0  0  0
 13 17  1  0  0  0  0
 14  2  1  0  0  0  0
 17  2  1  0  0  0  0
 19  5  1  0  0  0  0
 19  7  1  1  0  0  0
 20  3  1  6  0  0  0
 20 15  1  0  0  0  0
 20 16  1  0  0  0  0
 21 25  1  0  0  0  0
 22  9  1  6  0  0  0
 22  6  1  0  0  0  0
 23 10  2  0  0  0  0
 25 18  1  6  0  0  0
 25 19  1  0  0  0  0
 28 15  1  0  0  0  0
 29 30  1  0  0  0  0
 29 35  1  0  0  0  0
 30 23  1  6  0  0  0
 31 30  1  0  0  0  0
 31 34  1  0  0  0  0
 33 34  1  0  0  0  0
 33 35  1  0  0  0  0
 34 32  1  6  0  0  0
 36 37  1  0  0  0  0
 37  4  1  0  0  0  0
M  END
>  <MODEL>
6

>  <REMARK>
 VINA RESULT:      -8.3      3.082      8.048
  Name = 
  2 active torsions:
  status: ('A' for Active; 'I' for Inactive)
    1  A    between atoms: N_5  and  C_23
    2  A    between atoms: C_6  and  C_31
                            x       y       z     vdW  Elec       q    Type
                         _______ _______ _______ _____ _____    ______ ____

>  <TORSDO>
F 2

$$$$
=
 OpenBabel11052419553D

 37 41  0  0  1  0  0  0  0  0999 V2000
  192.4040  173.0190  141.0340 C   0  0  1  0  0  0  0  0  0  0  0  0
  195.2420  175.0990  141.5190 C   0  0  0  0  0  0  0  0  0  0  0  0
  193.8170  175.1710  144.6990 C   0  0  0  0  0  2  0  0  0  0  0  0
  192.2320  171.5450  140.7650 N   0  0  0  0  0  0  0  0  0  0  0  0
  189.3370  174.4500  144.1090 C   0  0  0  0  0  2  0  0  0  0  0  0
  196.2090  176.1630  143.6480 C   0  0  0  0  0  2  0  0  0  0  0  0
  190.4210  176.1080  142.5670 C   0  0  0  0  0  1  0  0  0  0  0  0
  190.5010  171.4870  142.3770 C   0  0  1  0  0  3  0  0  0  0  0  0
  193.6600  175.8700  143.3560 C   0  0  0  0  0  2  0  0  0  0  0  0
  190.6210  175.4100  145.9650 C   0  0  0  0  0  0  0  0  0  0  0  0
  196.1350  177.2300  144.7510 C   0  0  0  0  0  2  0  0  0  0  0  0
  190.8380  171.1430  140.9390 C   0  0  2  0  0  3  0  0  0  0  0  0
  193.5550  173.6160  140.1890 C   0  0  0  0  0  2  0  0  0  0  0  0
  195.6540  173.7380  142.0890 C   0  0  0  0  0  1  0  0  0  0  0  0
  192.6550  176.6250  146.3930 C   0  0  0  0  0  2  0  0  0  0  0  0
  194.7590  177.4500  145.3960 C   0  0  0  0  0  2  0  0  0  0  0  0
  193.9780  175.0230  140.6290 C   0  0  0  0  0  2  0  0  0  0  0  0
  189.4260  172.5000  142.0790 C   0  0  0  0  0  2  0  0  0  0  0  0
  190.3610  174.6370  142.9700 C   0  0  2  0  0  3  0  0  0  0  0  0
  194.0100  176.1820  145.8400 C   0  0  2  0  0  3  0  0  0  0  0  0
  191.0970  173.8540  140.7450 C   0  0  0  0  0  2  0  0  0  0  0  0
  195.0130  176.1160  142.6630 C   0  0  2  0  0  3  0  0  0  0  0  0
  189.5100  175.3890  145.2680 C   0  0  0  0  0  0  0  0  0  0  0  0
  196.3790  175.5930  140.6420 C   0  0  0  0  0  1  0  0  0  0  0  0
  190.0200  173.8300  141.7820 N   0  0  1  0  0  0  0  0  0  0  0  0
  190.5040  170.0420  141.9070 C   0  0  0  0  0  2  0  0  0  0  0  0
  192.7530  173.1650  142.3780 O   0  0  0  0  0  1  0  0  0  0  0  0
  191.7280  175.4830  146.6510 C   0  0  0  0  0  3  0  0  0  0  0  0
  187.7010  175.9190  146.9110 C   0  0  0  0  0  2  0  0  0  0  0  0
  188.3800  176.3160  145.5970 C   0  0  2  0  0  3  0  0  0  0  0  0
  187.3620  176.3780  144.4560 C   0  0  0  0  0  2  0  0  0  0  0  0
  185.2630  177.3650  143.7290 N   0  0  0  0  0  1  0  0  0  0  0  0
  185.5600  176.9320  146.1030 C   0  0  0  0  0  2  0  0  0  0  0  0
  186.2390  177.3510  144.8030 C   0  0  1  0  0  3  0  0  0  0  0  0
  186.5770  176.8970  147.2400 C   0  0  0  0  0  2  0  0  0  0  0  0
  191.5010  170.9750  138.5240 N   0  0  0  0  0  1  0  0  0  0  0  0
  192.6450  171.1170  139.4170 C   0  0  0  0  0  2  0  0  0  0  0  0
  1 27  1  1  0  0  0
  2 14  1  0  0  0  0
  2 22  1  0  0  0  0
  4 12  1  0  0  0  0
  4  1  1  0  0  0  0
  5 23  1  0  0  0  0
  6 11  1  0  0  0  0
  8 26  1  1  0  0  0
  9  3  1  0  0  0  0
 10 28  2  0  0  0  0
 11 16  1  0  0  0  0
 12 26  1  1  0  0  0
 12  8  1  0  0  0  0
 13 17  1  0  0  0  0
 13  1  1  0  0  0  0
 15 28  1  0  0  0  0
 16 20  1  0  0  0  0
 17  2  1  0  0  0  0
 18  8  1  0  0  0  0
 19  7  1  6  0  0  0
 19  5  1  0  0  0  0
 20  3  1  6  0  0  0
 20 15  1  0  0  0  0
 21  1  1  0  0  0  0
 22  9  1  1  0  0  0
 22  6  1  0  0  0  0
 23 10  2  0  0  0  0
 24  2  1  0  0  0  0
 25 21  1  1  0  0  0
 25 18  1  0  0  0  0
 25 19  1  0  0  0  0
 29 35  1  0  0  0  0
 30 23  1  6  0  0  0
 30 29  1  0  0  0  0
 31 34  1  0  0  0  0
 31 30  1  0  0  0  0
 33 35  1  0  0  0  0
 34 32  1  6  0  0  0
 34 33  1  0  0  0  0
 36 37  1  0  0  0  0
 37  4  1  0  0  0  0
M  END
>  <MODEL>
7

>  <REMARK>
 VINA RESULT:      -8.2      2.657      5.545
  Name = 
  2 active torsions:
  status: ('A' for Active; 'I' for Inactive)
    1  A    between atoms: N_5  and  C_23
    2  A    between atoms: C_6  and  C_31
                            x       y       z     vdW  Elec       q    Type
                         _______ _______ _______ _____ _____    ______ ____

>  <TORSDO>
F 2

$$$$
=
 OpenBabel11052419553D

 37 41  0  0  1  0  0  0  0  0999 V2000
  188.8110  176.1820  144.2470 C   0  0  1  0  0  0  0  0  0  0  0  0
  191.4300  175.4160  146.5210 C   0  0  0  0  0  0  0  0  0  0  0  0
  193.1090  175.1840  143.4740 C   0  0  0  0  0  2  0  0  0  0  0  0
  188.0250  177.4360  143.9530 N   0  0  0  0  0  0  0  0  0  0  0  0
  189.9520  174.0660  140.3560 C   0  0  0  0  0  2  0  0  0  0  0  0
  193.9450  175.0620  146.1380 C   0  0  0  0  0  2  0  0  0  0  0  0
  189.9100  172.7770  142.5100 C   0  0  0  0  0  1  0  0  0  0  0  0
  188.2900  177.0210  141.6390 C   0  0  1  0  0  3  0  0  0  0  0  0
  192.2210  174.3240  144.3630 C   0  0  0  0  0  2  0  0  0  0  0  0
  192.3980  173.8970  140.3580 C   0  0  0  0  0  0  0  0  0  0  0  0
  195.1020  174.1870  145.6300 C   0  0  0  0  0  2  0  0  0  0  0  0
  187.2590  177.2930  142.7170 C   0  0  2  0  0  3  0  0  0  0  0  0
  188.9930  175.9740  145.7700 C   0  0  0  0  0  2  0  0  0  0  0  0
  191.6470  176.8880  146.1570 C   0  0  0  0  0  1  0  0  0  0  0  0
  194.2470  173.6100  141.8740 C   0  0  0  0  0  2  0  0  0  0  0  0
  194.9110  173.5370  144.2530 C   0  0  0  0  0  2  0  0  0  0  0  0
  190.0260  174.8970  146.1260 C   0  0  0  0  0  2  0  0  0  0  0  0
  187.8020  175.6460  141.2590 C   0  0  0  0  0  2  0  0  0  0  0  0
  189.7030  174.1500  141.8770 C   0  0  2  0  0  3  0  0  0  0  0  0
  194.4220  174.4670  143.1280 C   0  0  2  0  0  3  0  0  0  0  0  0
  188.1440  174.8840  143.6480 C   0  0  0  0  0  2  0  0  0  0  0  0
  192.5160  174.5320  145.8610 C   0  0  2  0  0  3  0  0  0  0  0  0
  191.2450  173.4100  139.9680 C   0  0  0  0  0  0  0  0  0  0  0  0
  191.5450  175.2920  148.0290 C   0  0  0  0  0  1  0  0  0  0  0  0
  188.3390  174.6190  142.1890 N   0  0  1  0  0  0  0  0  0  0  0  0
  187.4560  178.2910  141.6090 C   0  0  0  0  0  2  0  0  0  0  0  0
  190.0830  176.3420  143.6920 O   0  0  0  0  0  1  0  0  0  0  0  0
  193.5580  174.3340  140.7630 C   0  0  0  0  0  3  0  0  0  0  0  0
  189.7300  171.7670  138.8450 C   0  0  0  0  0  2  0  0  0  0  0  0
  191.1800  172.1670  139.1320 C   0  0  2  0  0  3  0  0  0  0  0  0
  191.9430  171.0150  139.7900 C   0  0  0  0  0  2  0  0  0  0  0  0
  192.5780  168.6800  139.5640 N   0  0  0  0  0  1  0  0  0  0  0  0
  190.4370  169.3740  138.6440 C   0  0  0  0  0  2  0  0  0  0  0  0
  191.8860  169.7720  138.9060 C   0  0  1  0  0  3  0  0  0  0  0  0
  189.6910  170.5200  137.9660 C   0  0  0  0  0  2  0  0  0  0  0  0
  185.7180  177.4000  144.7010 N   0  0  0  0  0  1  0  0  0  0  0  0
  187.0780  177.8250  145.0130 C   0  0  0  0  0  2  0  0  0  0  0  0
  1 27  1  6  0  0  0
  1 13  1  0  0  0  0
  2 24  1  0  0  0  0
  3  9  1  0  0  0  0
  4  1  1  0  0  0  0
  4 37  1  0  0  0  0
  5 19  1  0  0  0  0
  8 18  1  6  0  0  0
  8 12  1  0  0  0  0
 10 28  2  0  0  0  0
 11  6  1  0  0  0  0
 12 26  1  6  0  0  0
 12  4  1  0  0  0  0
 13 17  1  0  0  0  0
 14  2  1  0  0  0  0
 16 11  1  0  0  0  0
 17  2  1  0  0  0  0
 19 25  1  0  0  0  0
 19  7  1  6  0  0  0
 20 15  1  6  0  0  0
 20  3  1  0  0  0  0
 20 16  1  0  0  0  0
 21  1  1  0  0  0  0
 22  9  1  6  0  0  0
 22  6  1  0  0  0  0
 22  2  1  0  0  0  0
 23  5  1  0  0  0  0
 23 10  2  0  0  0  0
 25 18  1  6  0  0  0
 25 21  1  0  0  0  0
 26  8  1  0  0  0  0
 28 15  1  0  0  0  0
 29 30  1  0  0  0  0
 30 31  1  0  0  0  0
 30 23  1  1  0  0  0
 33 34  1  0  0  0  0
 34 32  1  1  0  0  0
 34 31  1  0  0  0  0
 35 33  1  0  0  0  0
 35 29  1  0  0  0  0
 36 37  1  0  0  0  0
M  END
>  <MODEL>
8

>  <REMARK>
 VINA RESULT:      -8.1      2.639      7.765
  Name = 
  2 active torsions:
  status: ('A' for Active; 'I' for Inactive)
    1  A    between atoms: N_5  and  C_23
    2  A    between atoms: C_6  and  C_31
                            x       y       z     vdW  Elec       q    Type
                         _______ _______ _______ _____ _____    ______ ____

>  <TORSDO>
F 2

$$$$
=
 OpenBabel11052419553D

 37 41  0  0  1  0  0  0  0  0999 V2000
  193.3140  171.3420  141.9370 C   0  0  1  0  0  0  0  0  0  0  0  0
  195.5620  173.3230  143.8450 C   0  0  0  0  0  0  0  0  0  0  0  0
  192.5250  174.1340  145.3500 C   0  0  0  0  0  2  0  0  0  0  0  0
  193.0900  169.8560  141.8120 N   0  0  0  0  0  0  0  0  0  0  0  0
  189.3120  173.5450  142.1450 C   0  0  0  0  0  2  0  0  0  0  0  0
  195.1840  174.7550  145.9440 C   0  0  0  0  0  2  0  0  0  0  0  0
  191.3820  174.7840  141.4480 C   0  0  0  0  0  1  0  0  0  0  0  0
  190.7570  170.2280  141.9460 C   0  0  1  0  0  3  0  0  0  0  0  0
  193.3500  174.5440  144.1390 C   0  0  0  0  0  2  0  0  0  0  0  0
  189.3280  174.8020  144.2510 C   0  0  0  0  0  0  0  0  0  0  0  0
  194.6350  176.0310  146.6000 C   0  0  0  0  0  2  0  0  0  0  0  0
  191.8400  169.5740  141.1100 C   0  0  2  0  0  3  0  0  0  0  0  0
  194.8230  171.6860  141.9500 C   0  0  0  0  0  2  0  0  0  0  0  0
  195.2930  172.0910  144.7150 C   0  0  0  0  0  1  0  0  0  0  0  0
  190.8420  175.9690  145.7150 C   0  0  0  0  0  2  0  0  0  0  0  0
  193.2180  176.4550  146.1880 C   0  0  0  0  0  2  0  0  0  0  0  0
  195.1220  173.1300  142.3740 C   0  0  0  0  0  2  0  0  0  0  0  0
  190.2880  171.2120  140.9060 C   0  0  0  0  0  2  0  0  0  0  0  0
  190.8320  173.4350  141.9050 C   0  0  2  0  0  3  0  0  0  0  0  0
  192.1480  175.3490  146.2120 C   0  0  2  0  0  3  0  0  0  0  0  0
  192.6300  172.1670  140.7800 C   0  0  0  0  0  2  0  0  0  0  0  0
  194.8600  174.5670  144.4390 C   0  0  2  0  0  3  0  0  0  0  0  0
  188.8970  174.6950  143.0170 C   0  0  0  0  0  0  0  0  0  0  0  0
  197.0620  173.5610  143.8360 C   0  0  0  0  0  1  0  0  0  0  0  0
  191.1590  172.4170  140.8880 N   0  0  1  0  0  0  0  0  0  0  0  0
  190.7980  168.7190  141.7760 C   0  0  0  0  0  2  0  0  0  0  0  0
  192.7830  171.7470  143.1650 O   0  0  0  0  0  1  0  0  0  0  0  0
  189.7710  174.9570  145.4680 C   0  0  0  0  0  3  0  0  0  0  0  0
  188.7640  176.9790  142.0080 C   0  0  0  0  0  2  0  0  0  0  0  0
  187.9850  175.7300  142.4300 C   0  0  2  0  0  3  0  0  0  0  0  0
  186.8590  176.0930  143.4020 C   0  0  0  0  0  2  0  0  0  0  0  0
  184.8940  177.4870  143.7180 N   0  0  0  0  0  1  0  0  0  0  0  0
  186.7150  178.3700  142.3710 C   0  0  0  0  0  2  0  0  0  0  0  0
  185.9290  177.1250  142.7690 C   0  0  1  0  0  3  0  0  0  0  0  0
  187.8190  178.0030  141.3840 C   0  0  0  0  0  2  0  0  0  0  0  0
  193.8040  168.8680  139.7150 N   0  0  0  0  0  1  0  0  0  0  0  0
  194.1620  169.1340  141.1030 C   0  0  0  0  0  2  0  0  0  0  0  0
  1 13  1  0  0  0  0
  1 27  1  1  0  0  0
  2 22  1  0  0  0  0
  2 14  1  0  0  0  0
  4  1  1  0  0  0  0
  5 23  1  0  0  0  0
  6 11  1  0  0  0  0
  8 18  1  6  0  0  0
  9  3  1  0  0  0  0
 10 28  2  0  0  0  0
 12 26  1  1  0  0  0
 12  4  1  0  0  0  0
 12  8  1  0  0  0  0
 13 17  1  0  0  0  0
 15 20  1  0  0  0  0
 16 20  1  0  0  0  0
 16 11  1  0  0  0  0
 17  2  1  0  0  0  0
 19  7  1  6  0  0  0
 19  5  1  0  0  0  0
 20  3  1  6  0  0  0
 21  1  1  0  0  0  0
 22  9  1  1  0  0  0
 22  6  1  0  0  0  0
 23 10  2  0  0  0  0
 24  2  1  0  0  0  0
 25 21  1  1  0  0  0
 25 18  1  0  0  0  0
 25 19  1  0  0  0  0
 26  8  1  0  0  0  0
 28 15  1  0  0  0  0
 29 30  1  0  0  0  0
 30 23  1  1  0  0  0
 30 31  1  0  0  0  0
 33 34  1  0  0  0  0
 34 31  1  0  0  0  0
 34 32  1  1  0  0  0
 35 29  1  0  0  0  0
 35 33  1  0  0  0  0
 36 37  1  0  0  0  0
 37  4  1  0  0  0  0
M  END
>  <MODEL>
9

>  <REMARK>
 VINA RESULT:      -7.8      2.607      5.688
  Name = 
  2 active torsions:
  status: ('A' for Active; 'I' for Inactive)
    1  A    between atoms: N_5  and  C_23
    2  A    between atoms: C_6  and  C_31
                            x       y       z     vdW  Elec       q    Type
                         _______ _______ _______ _____ _____    ______ ____

>  <TORSDO>
F 2

$$$$
