=
 OpenBabel11052418383D

 34 38  0  0  1  0  0  0  0  0999 V2000
  184.6310  178.2910  143.0760 C   0  0  0  0  0  0  0  0  0  0  0  0
  185.0250  178.3330  145.5010 C   0  0  0  0  0  0  0  0  0  0  0  0
  186.8420  177.6350  143.9800 C   0  0  0  0  0  0  0  0  0  0  0  0
  189.9550  177.1340  144.2420 N   0  0  0  0  0  0  0  0  0  0  0  0
  184.2070  178.2760  140.6010 C   0  0  0  0  0  1  0  0  0  0  0  0
  183.7340  178.7830  145.7560 O   0  0  0  0  0  1  0  0  0  0  0  0
  187.1480  177.6750  146.3990 C   0  0  0  0  0  3  0  0  0  0  0  0
  185.4890  178.0890  144.1870 C   0  0  0  0  0  0  0  0  0  0  0  0
  189.0840  176.8860  145.1670 C   0  0  0  0  0  0  0  0  0  0  0  0
  183.3130  178.7140  143.2460 O   0  0  0  0  0  1  0  0  0  0  0  0
  187.2740  177.4520  142.6340 C   0  0  0  0  0  0  0  0  0  0  0  0
  185.0920  178.0700  141.7810 C   0  0  0  0  0  0  0  0  0  0  0  0
  185.8590  178.1330  146.5850 C   0  0  0  0  0  3  0  0  0  0  0  0
  189.6510  177.6450  143.0060 O   0  0  0  0  0  0  0  0  0  0  0  0
  188.6440  177.0510  142.2100 C   0  0  1  0  0  3  0  0  0  0  0  0
  187.6700  177.3940  145.1310 C   0  0  0  0  0  0  0  0  0  0  0  0
  186.3970  177.6640  141.5720 C   0  0  0  0  0  3  0  0  0  0  0  0
  190.1720  173.6460  141.4520 C   0  0  0  0  0  0  0  0  0  0  0  0
  189.0990  172.8400  141.6710 N   0  0  0  0  0  0  0  0  0  0  0  0
  188.8300  175.5690  142.0330 C   0  0  0  0  0  0  0  0  0  0  0  0
  187.8980  173.3450  142.0590 C   0  0  0  0  0  3  0  0  0  0  0  0
  190.0560  175.0260  141.6270 C   0  0  0  0  0  3  0  0  0  0  0  0
  187.7420  174.7200  142.2450 C   0  0  0  0  0  3  0  0  0  0  0  0
  191.4680  173.0600  141.0230 C   0  0  0  0  0  1  0  0  0  0  0  0
  189.5490  176.1810  146.2840 O   0  0  0  0  0  0  0  0  0  0  0  0
  190.6980  176.4950  146.8960 O   0  0  0  0  0  0  0  0  0  0  0  0
  191.2550  175.2680  147.2550 C   0  0  0  0  0  2  0  0  0  0  0  0
  192.0510  174.2190  144.6500 C   0  0  0  0  0  1  0  0  0  0  0  0
  192.6590  175.2290  146.8640 N   0  0  0  0  0  0  0  0  0  0  0  0
  192.9030  174.1230  145.9160 C   0  0  2  0  0  3  0  0  0  0  0  0
  195.1920  175.2420  146.0180 C   0  0  0  0  0  2  0  0  0  0  0  0
  194.4460  176.5450  145.7310 C   0  0  0  0  0  2  0  0  0  0  0  0
  193.0040  176.5220  146.2610 C   0  0  0  0  0  2  0  0  0  0  0  0
  194.3850  174.0380  145.5250 C   0  0  0  0  0  2  0  0  0  0  0  0
  1 10  1  0  0  0  0
  1  8  1  0  0  0  0
  2  6  1  0  0  0  0
  2 13  1  0  0  0  0
  3  8  1  0  0  0  0
  3 16  2  0  0  0  0
  4  9  2  0  0  0  0
  5 12  1  0  0  0  0
  7 13  2  0  0  0  0
  8  2  2  0  0  0  0
  9 25  1  0  0  0  0
 11  3  1  0  0  0  0
 12  1  2  0  0  0  0
 14  4  1  0  0  0  0
 15 20  1  1  0  0  0
 15 11  1  0  0  0  0
 15 14  1  0  0  0  0
 16  9  1  0  0  0  0
 16  7  1  0  0  0  0
 17 12  1  0  0  0  0
 17 11  2  0  0  0  0
 18 22  2  0  0  0  0
 18 19  1  0  0  0  0
 19 21  2  0  0  0  0
 20 23  2  0  0  0  0
 21 23  1  0  0  0  0
 22 20  1  0  0  0  0
 24 18  1  0  0  0  0
 25 26  1  0  0  0  0
 26 27  1  0  0  0  0
 29 27  1  0  0  0  0
 30 28  1  6  0  0  0
 30 29  1  0  0  0  0
 32 31  1  0  0  0  0
 32 33  1  0  0  0  0
 33 29  1  0  0  0  0
 34 30  1  0  0  0  0
 34 31  1  0  0  0  0
M  END
>  <MODEL>
1

>  <REMARK>
 VINA RESULT:      -8.8      0.000      0.000
  Name = 
  5 active torsions:
  status: ('A' for Active; 'I' for Inactive)
    1  A    between atoms: C_3  and  N_13
    2  A    between atoms: C_3  and  O_17
    3  A    between atoms: C_12  and  C_28
    4  A    between atoms: O_17  and  O_29
    5  A    between atoms: C_18  and  O_29
                            x       y       z     vdW  Elec       q    Type
                         _______ _______ _______ _____ _____    ______ ____

>  <TORSDO>
F 5

$$$$
=
 OpenBabel11052418383D

 34 38  0  0  1  0  0  0  0  0999 V2000
  184.8090  178.3330  143.1760 C   0  0  0  0  0  0  0  0  0  0  0  0
  185.0660  178.3390  145.6210 C   0  0  0  0  0  0  0  0  0  0  0  0
  187.0180  177.8490  144.1890 C   0  0  0  0  0  0  0  0  0  0  0  0
  190.1440  177.6170  144.6160 N   0  0  0  0  0  0  0  0  0  0  0  0
  184.5240  178.3510  140.6810 C   0  0  0  0  0  1  0  0  0  0  0  0
  183.7280  178.6660  145.8120 O   0  0  0  0  0  1  0  0  0  0  0  0
  187.1870  177.8460  146.6220 C   0  0  0  0  0  3  0  0  0  0  0  0
  185.6210  178.1750  144.3300 C   0  0  0  0  0  0  0  0  0  0  0  0
  189.2500  177.2670  145.4840 C   0  0  0  0  0  0  0  0  0  0  0  0
  183.4520  178.6320  143.2810 O   0  0  0  0  0  1  0  0  0  0  0  0
  187.5380  177.7430  142.8660 C   0  0  0  0  0  0  0  0  0  0  0  0
  185.3590  178.1900  141.9050 C   0  0  0  0  0  0  0  0  0  0  0  0
  185.8540  178.1830  146.7450 C   0  0  0  0  0  3  0  0  0  0  0  0
  189.8640  178.1350  143.3770 O   0  0  0  0  0  0  0  0  0  0  0  0
  188.9590  177.4770  142.5110 C   0  0  1  0  0  3  0  0  0  0  0  0
  187.8010  177.6490  145.3800 C   0  0  0  0  0  0  0  0  0  0  0  0
  186.7050  177.9070  141.7610 C   0  0  0  0  0  3  0  0  0  0  0  0
  188.6370  173.7130  142.0320 C   0  0  0  0  0  0  0  0  0  0  0  0
  189.9500  173.3550  141.9970 N   0  0  0  0  0  0  0  0  0  0  0  0
  189.2870  176.0230  142.3100 C   0  0  0  0  0  0  0  0  0  0  0  0
  190.9410  174.2780  142.1160 C   0  0  0  0  0  3  0  0  0  0  0  0
  188.2830  175.0520  142.1920 C   0  0  0  0  0  3  0  0  0  0  0  0
  190.6260  175.6290  142.2770 C   0  0  0  0  0  3  0  0  0  0  0  0
  187.5810  172.6760  141.9050 C   0  0  0  0  0  1  0  0  0  0  0  0
  189.7150  176.5740  146.6080 O   0  0  0  0  0  0  0  0  0  0  0  0
  190.1960  175.3260  146.5260 O   0  0  0  0  0  0  0  0  0  0  0  0
  191.5340  175.4370  146.9040 C   0  0  0  0  0  2  0  0  0  0  0  0
  194.1070  176.8020  146.7100 C   0  0  0  0  0  1  0  0  0  0  0  0
  192.3930  175.2470  145.7420 N   0  0  0  0  0  0  0  0  0  0  0  0
  193.2260  176.4450  145.5120 C   0  0  2  0  0  3  0  0  0  0  0  0
  194.0820  174.8550  143.7110 C   0  0  0  0  0  2  0  0  0  0  0  0
  194.2370  173.8350  144.8390 C   0  0  0  0  0  2  0  0  0  0  0  0
  193.2280  174.0630  145.9760 C   0  0  0  0  0  2  0  0  0  0  0  0
  194.1080  176.2810  144.2650 C   0  0  0  0  0  2  0  0  0  0  0  0
  1 10  1  0  0  0  0
  1  8  1  0  0  0  0
  2  6  1  0  0  0  0
  2 13  1  0  0  0  0
  3  8  1  0  0  0  0
  3 16  2  0  0  0  0
  4  9  2  0  0  0  0
  5 12  1  0  0  0  0
  7 13  2  0  0  0  0
  8  2  2  0  0  0  0
  9 25  1  0  0  0  0
 11  3  1  0  0  0  0
 12  1  2  0  0  0  0
 14  4  1  0  0  0  0
 15 20  1  1  0  0  0
 15 11  1  0  0  0  0
 15 14  1  0  0  0  0
 16  9  1  0  0  0  0
 16  7  1  0  0  0  0
 17 12  1  0  0  0  0
 17 11  2  0  0  0  0
 18 22  1  0  0  0  0
 19 18  2  0  0  0  0
 19 21  1  0  0  0  0
 21 23  2  0  0  0  0
 22 20  2  0  0  0  0
 23 20  1  0  0  0  0
 24 18  1  0  0  0  0
 26 25  1  0  0  0  0
 26 27  1  0  0  0  0
 29 33  1  0  0  0  0
 29 27  1  0  0  0  0
 30 29  1  0  0  0  0
 30 28  1  1  0  0  0
 31 34  1  0  0  0  0
 31 32  1  0  0  0  0
 32 33  1  0  0  0  0
 34 30  1  0  0  0  0
M  END
>  <MODEL>
2

>  <REMARK>
 VINA RESULT:      -8.5      0.827      1.696
  Name = 
  5 active torsions:
  status: ('A' for Active; 'I' for Inactive)
    1  A    between atoms: C_3  and  N_13
    2  A    between atoms: C_3  and  O_17
    3  A    between atoms: C_12  and  C_28
    4  A    between atoms: O_17  and  O_29
    5  A    between atoms: C_18  and  O_29
                            x       y       z     vdW  Elec       q    Type
                         _______ _______ _______ _____ _____    ______ ____

>  <TORSDO>
F 5

$$$$
=
 OpenBabel11052418383D

 34 38  0  0  1  0  0  0  0  0999 V2000
  194.3370  176.0740  144.4210 C   0  0  0  0  0  0  0  0  0  0  0  0
  193.5720  176.8190  146.6350 C   0  0  0  0  0  0  0  0  0  0  0  0
  192.1140  175.3740  145.2620 C   0  0  0  0  0  0  0  0  0  0  0  0
  189.4720  173.7010  145.7460 N   0  0  0  0  0  0  0  0  0  0  0  0
  195.1490  175.3110  142.1710 C   0  0  0  0  0  1  0  0  0  0  0  0
  194.7510  177.5210  146.8630 O   0  0  0  0  0  1  0  0  0  0  0  0
  191.4140  176.1770  147.4560 C   0  0  0  0  0  3  0  0  0  0  0  0
  193.3490  176.0950  145.4400 C   0  0  0  0  0  0  0  0  0  0  0  0
  189.7490  174.8300  146.3150 C   0  0  0  0  0  0  0  0  0  0  0  0
  195.5340  176.7740  144.5580 O   0  0  0  0  0  1  0  0  0  0  0  0
  191.9600  174.6200  144.0610 C   0  0  0  0  0  0  0  0  0  0  0  0
  194.1260  175.3450  143.2530 C   0  0  0  0  0  0  0  0  0  0  0  0
  192.6100  176.8430  147.6270 C   0  0  0  0  0  3  0  0  0  0  0  0
  190.2850  173.0680  144.8410 O   0  0  0  0  0  0  0  0  0  0  0  0
  190.7920  173.7640  143.7190 C   0  0  1  0  0  3  0  0  0  0  0  0
  191.1150  175.4560  146.2940 C   0  0  0  0  0  0  0  0  0  0  0  0
  192.9570  174.6270  143.0880 C   0  0  0  0  0  3  0  0  0  0  0  0
  188.6790  176.4590  142.0530 C   0  0  0  0  0  0  0  0  0  0  0  0
  187.6960  175.6970  141.5020 N   0  0  0  0  0  0  0  0  0  0  0  0
  189.7220  174.4620  142.9260 C   0  0  0  0  0  0  0  0  0  0  0  0
  187.6850  174.3440  141.6380 C   0  0  0  0  0  3  0  0  0  0  0  0
  189.7080  175.8560  142.7780 C   0  0  0  0  0  3  0  0  0  0  0  0
  188.6980  173.7030  142.3560 C   0  0  0  0  0  3  0  0  0  0  0  0
  188.6560  177.9360  141.8900 C   0  0  0  0  0  1  0  0  0  0  0  0
  188.7160  175.4230  147.0520 O   0  0  0  0  0  0  0  0  0  0  0  0
  188.1540  176.5820  146.6840 O   0  0  0  0  0  0  0  0  0  0  0  0
  186.8310  176.4880  147.1180 C   0  0  0  0  0  2  0  0  0  0  0  0
  185.8140  179.1770  147.6200 C   0  0  0  0  0  1  0  0  0  0  0  0
  185.9490  177.1420  146.1600 N   0  0  0  0  0  0  0  0  0  0  0  0
  185.0560  178.0980  146.8460 C   0  0  2  0  0  3  0  0  0  0  0  0
  184.4350  178.4620  144.4000 C   0  0  0  0  0  2  0  0  0  0  0  0
  185.9360  178.6240  144.1570 C   0  0  0  0  0  2  0  0  0  0  0  0
  186.7800  177.8240  145.1610 C   0  0  0  0  0  2  0  0  0  0  0  0
  184.0890  178.7670  145.8590 C   0  0  0  0  0  2  0  0  0  0  0  0
  1 10  1  0  0  0  0
  1  8  1  0  0  0  0
  2  6  1  0  0  0  0
  2 13  1  0  0  0  0
  3  8  1  0  0  0  0
  3 16  2  0  0  0  0
  4  9  2  0  0  0  0
  5 12  1  0  0  0  0
  7 13  2  0  0  0  0
  8  2  2  0  0  0  0
  9 25  1  0  0  0  0
 11  3  1  0  0  0  0
 12  1  2  0  0  0  0
 14  4  1  0  0  0  0
 15 20  1  1  0  0  0
 15 11  1  0  0  0  0
 15 14  1  0  0  0  0
 16  9  1  0  0  0  0
 16  7  1  0  0  0  0
 17 12  1  0  0  0  0
 17 11  2  0  0  0  0
 18 22  1  0  0  0  0
 19 21  1  0  0  0  0
 19 18  2  0  0  0  0
 21 23  2  0  0  0  0
 22 20  2  0  0  0  0
 23 20  1  0  0  0  0
 24 18  1  0  0  0  0
 26 25  1  0  0  0  0
 26 27  1  0  0  0  0
 29 30  1  0  0  0  0
 29 27  1  0  0  0  0
 30 28  1  6  0  0  0
 31 34  1  0  0  0  0
 32 31  1  0  0  0  0
 32 33  1  0  0  0  0
 33 29  1  0  0  0  0
 34 30  1  0  0  0  0
M  END
>  <MODEL>
3

>  <REMARK>
 VINA RESULT:      -8.4      2.436      7.040
  Name = 
  5 active torsions:
  status: ('A' for Active; 'I' for Inactive)
    1  A    between atoms: C_3  and  N_13
    2  A    between atoms: C_3  and  O_17
    3  A    between atoms: C_12  and  C_28
    4  A    between atoms: O_17  and  O_29
    5  A    between atoms: C_18  and  O_29
                            x       y       z     vdW  Elec       q    Type
                         _______ _______ _______ _____ _____    ______ ____

>  <TORSDO>
F 5

$$$$
=
 OpenBabel11052418383D

 34 38  0  0  1  0  0  0  0  0999 V2000
  184.7390  178.3470  143.2030 C   0  0  0  0  0  0  0  0  0  0  0  0
  185.0520  178.4170  145.6390 C   0  0  0  0  0  0  0  0  0  0  0  0
  186.9500  177.8060  144.1810 C   0  0  0  0  0  0  0  0  0  0  0  0
  190.0730  177.4630  144.5470 N   0  0  0  0  0  0  0  0  0  0  0  0
  184.3980  178.3020  140.7150 C   0  0  0  0  0  1  0  0  0  0  0  0
  183.7320  178.8020  145.8490 O   0  0  0  0  0  1  0  0  0  0  0  0
  187.1740  177.8690  146.6090 C   0  0  0  0  0  3  0  0  0  0  0  0
  185.5700  178.1920  144.3420 C   0  0  0  0  0  0  0  0  0  0  0  0
  189.1870  177.1750  145.4450 C   0  0  0  0  0  0  0  0  0  0  0  0
  183.3980  178.7030  143.3280 O   0  0  0  0  0  1  0  0  0  0  0  0
  187.4340  177.6400  142.8510 C   0  0  0  0  0  0  0  0  0  0  0  0
  185.2540  178.1450  141.9240 C   0  0  0  0  0  0  0  0  0  0  0  0
  185.8590  178.2630  146.7510 C   0  0  0  0  0  3  0  0  0  0  0  0
  189.7850  177.9540  143.3000 O   0  0  0  0  0  0  0  0  0  0  0  0
  188.8360  177.3070  142.4740 C   0  0  1  0  0  3  0  0  0  0  0  0
  187.7510  177.6110  145.3610 C   0  0  0  0  0  0  0  0  0  0  0  0
  186.5840  177.8040  141.7610 C   0  0  0  0  0  3  0  0  0  0  0  0
  190.5360  173.9840  141.7170 C   0  0  0  0  0  0  0  0  0  0  0  0
  189.5170  173.1210  141.9770 N   0  0  0  0  0  0  0  0  0  0  0  0
  189.1020  175.8360  142.3110 C   0  0  0  0  0  0  0  0  0  0  0  0
  188.3000  173.5620  142.3940 C   0  0  0  0  0  3  0  0  0  0  0  0
  190.3450  175.3570  141.8770 C   0  0  0  0  0  3  0  0  0  0  0  0
  188.0710  174.9290  142.5660 C   0  0  0  0  0  3  0  0  0  0  0  0
  191.8500  173.4670  141.2570 C   0  0  0  0  0  1  0  0  0  0  0  0
  189.6490  176.4980  146.5800 O   0  0  0  0  0  0  0  0  0  0  0  0
  190.9110  176.6170  147.0150 O   0  0  0  0  0  0  0  0  0  0  0  0
  191.4470  175.3340  146.9030 C   0  0  0  0  0  2  0  0  0  0  0  0
  194.1100  176.5290  146.8860 C   0  0  0  0  0  1  0  0  0  0  0  0
  192.2930  175.2540  145.7180 N   0  0  0  0  0  0  0  0  0  0  0  0
  193.2090  176.4110  145.6560 C   0  0  2  0  0  3  0  0  0  0  0  0
  193.9540  175.0410  143.6390 C   0  0  0  0  0  2  0  0  0  0  0  0
  194.0350  173.8610  144.6070 C   0  0  0  0  0  2  0  0  0  0  0  0
  193.0420  173.9930  145.7720 C   0  0  0  0  0  2  0  0  0  0  0  0
  194.0790  176.3670  144.3910 C   0  0  0  0  0  2  0  0  0  0  0  0
  1 10  1  0  0  0  0
  1  8  1  0  0  0  0
  2  6  1  0  0  0  0
  2 13  1  0  0  0  0
  3  8  1  0  0  0  0
  3 16  2  0  0  0  0
  4  9  2  0  0  0  0
  5 12  1  0  0  0  0
  7 13  2  0  0  0  0
  8  2  2  0  0  0  0
  9 25  1  0  0  0  0
 11  3  1  0  0  0  0
 12  1  2  0  0  0  0
 14  4  1  0  0  0  0
 15 20  1  1  0  0  0
 15 11  1  0  0  0  0
 15 14  1  0  0  0  0
 16  9  1  0  0  0  0
 16  7  1  0  0  0  0
 17 12  1  0  0  0  0
 17 11  2  0  0  0  0
 18 22  2  0  0  0  0
 18 19  1  0  0  0  0
 19 21  2  0  0  0  0
 20 23  2  0  0  0  0
 21 23  1  0  0  0  0
 22 20  1  0  0  0  0
 24 18  1  0  0  0  0
 25 26  1  0  0  0  0
 27 26  1  0  0  0  0
 29 33  1  0  0  0  0
 29 27  1  0  0  0  0
 30 29  1  0  0  0  0
 30 28  1  1  0  0  0
 31 34  1  0  0  0  0
 31 32  1  0  0  0  0
 32 33  1  0  0  0  0
 34 30  1  0  0  0  0
M  END
>  <MODEL>
4

>  <REMARK>
 VINA RESULT:      -8.2      0.666      1.269
  Name = 
  5 active torsions:
  status: ('A' for Active; 'I' for Inactive)
    1  A    between atoms: C_3  and  N_13
    2  A    between atoms: C_3  and  O_17
    3  A    between atoms: C_12  and  C_28
    4  A    between atoms: O_17  and  O_29
    5  A    between atoms: C_18  and  O_29
                            x       y       z     vdW  Elec       q    Type
                         _______ _______ _______ _____ _____    ______ ____

>  <TORSDO>
F 5

$$$$
=
 OpenBabel11052418383D

 34 38  0  0  1  0  0  0  0  0999 V2000
  186.1400  178.1970  145.7510 C   0  0  0  0  0  0  0  0  0  0  0  0
  185.5420  177.7390  143.4120 C   0  0  0  0  0  0  0  0  0  0  0  0
  187.4800  176.5900  144.4240 C   0  0  0  0  0  0  0  0  0  0  0  0
  189.3390  174.1540  143.6370 N   0  0  0  0  0  0  0  0  0  0  0  0
  186.7180  178.6690  148.1490 C   0  0  0  0  0  1  0  0  0  0  0  0
  184.4600  178.6120  143.4630 O   0  0  0  0  0  1  0  0  0  0  0  0
  186.8410  176.2090  142.1010 C   0  0  0  0  0  3  0  0  0  0  0  0
  186.3800  177.5160  144.5290 C   0  0  0  0  0  0  0  0  0  0  0  0
  188.8210  174.9920  142.7980 C   0  0  0  0  0  0  0  0  0  0  0  0
  185.0950  179.1100  145.8780 O   0  0  0  0  0  1  0  0  0  0  0  0
  188.2630  176.3650  145.5940 C   0  0  0  0  0  0  0  0  0  0  0  0
  186.9520  177.9630  146.8580 C   0  0  0  0  0  0  0  0  0  0  0  0
  185.7750  177.0790  142.2200 C   0  0  0  0  0  3  0  0  0  0  0  0
  189.1610  174.2050  144.9960 O   0  0  0  0  0  0  0  0  0  0  0  0
  189.3960  175.4060  145.7070 C   0  0  1  0  0  3  0  0  0  0  0  0
  187.7230  175.9530  143.1570 C   0  0  0  0  0  0  0  0  0  0  0  0
  187.9910  177.0540  146.7730 C   0  0  0  0  0  3  0  0  0  0  0  0
  193.1400  176.1050  145.7370 C   0  0  0  0  0  0  0  0  0  0  0  0
  193.1960  177.1810  144.9050 N   0  0  0  0  0  0  0  0  0  0  0  0
  190.7460  176.0050  145.4220 C   0  0  0  0  0  0  0  0  0  0  0  0
  192.0770  177.6920  144.3260 C   0  0  0  0  0  3  0  0  0  0  0  0
  191.9130  175.5000  146.0120 C   0  0  0  0  0  3  0  0  0  0  0  0
  190.8310  177.1130  144.5780 C   0  0  0  0  0  3  0  0  0  0  0  0
  194.3820  175.5780  146.3570 C   0  0  0  0  0  1  0  0  0  0  0  0
  189.2730  174.9050  141.4750 O   0  0  0  0  0  0  0  0  0  0  0  0
  189.6390  173.7400  140.9240 O   0  0  0  0  0  0  0  0  0  0  0  0
  188.8210  173.6060  139.8020 C   0  0  0  0  0  2  0  0  0  0  0  0
  190.7030  173.4180  137.5790 C   0  0  0  0  0  1  0  0  0  0  0  0
  189.0810  172.3280  139.1510 N   0  0  0  0  0  0  0  0  0  0  0  0
  189.4650  172.5330  137.7400 C   0  0  2  0  0  3  0  0  0  0  0  0
  189.7100  170.0080  137.9890 C   0  0  0  0  0  2  0  0  0  0  0  0
  190.5560  170.3210  139.2240 C   0  0  0  0  0  2  0  0  0  0  0  0
  190.1470  171.6430  139.8920 C   0  0  0  0  0  2  0  0  0  0  0  0
  189.7010  171.1950  137.0250 C   0  0  0  0  0  2  0  0  0  0  0  0
  1 10  1  0  0  0  0
  1 12  1  0  0  0  0
  2  6  1  0  0  0  0
  2  8  1  0  0  0  0
  3  8  1  0  0  0  0
  3 11  2  0  0  0  0
  4 14  1  0  0  0  0
  7 13  1  0  0  0  0
  7 16  2  0  0  0  0
  8  1  2  0  0  0  0
  9 16  1  0  0  0  0
  9  4  2  0  0  0  0
 11 15  1  0  0  0  0
 11 17  1  0  0  0  0
 12  5  1  0  0  0  0
 13  2  2  0  0  0  0
 14 15  1  0  0  0  0
 15 20  1  6  0  0  0
 16  3  1  0  0  0  0
 17 12  2  0  0  0  0
 18 22  1  0  0  0  0
 18 24  1  0  0  0  0
 19 18  2  0  0  0  0
 20 22  2  0  0  0  0
 21 23  2  0  0  0  0
 21 19  1  0  0  0  0
 23 20  1  0  0  0  0
 25  9  1  0  0  0  0
 26 25  1  0  0  0  0
 27 26  1  0  0  0  0
 29 27  1  0  0  0  0
 29 33  1  0  0  0  0
 30 28  1  1  0  0  0
 30 29  1  0  0  0  0
 31 32  1  0  0  0  0
 32 33  1  0  0  0  0
 34 30  1  0  0  0  0
 34 31  1  0  0  0  0
M  END
>  <MODEL>
5

>  <REMARK>
 VINA RESULT:      -7.6      2.343      6.010
  Name = 
  5 active torsions:
  status: ('A' for Active; 'I' for Inactive)
    1  A    between atoms: C_3  and  N_13
    2  A    between atoms: C_3  and  O_17
    3  A    between atoms: C_12  and  C_28
    4  A    between atoms: O_17  and  O_29
    5  A    between atoms: C_18  and  O_29
                            x       y       z     vdW  Elec       q    Type
                         _______ _______ _______ _____ _____    ______ ____

>  <TORSDO>
F 5

$$$$
=
 OpenBabel11052418383D

 34 38  0  0  1  0  0  0  0  0999 V2000
  186.2290  178.1530  145.8530 C   0  0  0  0  0  0  0  0  0  0  0  0
  185.5940  177.5910  143.5460 C   0  0  0  0  0  0  0  0  0  0  0  0
  187.5580  176.4990  144.5730 C   0  0  0  0  0  0  0  0  0  0  0  0
  189.4210  174.0450  143.8580 N   0  0  0  0  0  0  0  0  0  0  0  0
  186.8450  178.7310  148.2180 C   0  0  0  0  0  1  0  0  0  0  0  0
  184.5060  178.4580  143.5800 O   0  0  0  0  0  1  0  0  0  0  0  0
  186.8820  176.0150  142.2800 C   0  0  0  0  0  3  0  0  0  0  0  0
  186.4520  177.4220  144.6580 C   0  0  0  0  0  0  0  0  0  0  0  0
  188.8830  174.8420  142.9930 C   0  0  0  0  0  0  0  0  0  0  0  0
  185.1790  179.0630  145.9590 O   0  0  0  0  0  1  0  0  0  0  0  0
  188.3620  176.3300  145.7370 C   0  0  0  0  0  0  0  0  0  0  0  0
  187.0620  177.9720  146.9540 C   0  0  0  0  0  0  0  0  0  0  0  0
  185.8120  176.8820  142.3800 C   0  0  0  0  0  3  0  0  0  0  0  0
  189.2670  174.1530  145.2160 O   0  0  0  0  0  0  0  0  0  0  0  0
  189.5040  175.3840  145.8710 C   0  0  1  0  0  3  0  0  0  0  0  0
  187.7840  175.8100  143.3300 C   0  0  0  0  0  0  0  0  0  0  0  0
  188.1060  177.0670  146.8900 C   0  0  0  0  0  3  0  0  0  0  0  0
  193.2480  176.0810  145.7720 C   0  0  0  0  0  0  0  0  0  0  0  0
  193.2780  177.1490  144.9300 N   0  0  0  0  0  0  0  0  0  0  0  0
  190.8450  175.9790  145.5370 C   0  0  0  0  0  0  0  0  0  0  0  0
  192.1410  177.6560  144.3840 C   0  0  0  0  0  3  0  0  0  0  0  0
  192.0300  175.4790  146.0930 C   0  0  0  0  0  3  0  0  0  0  0  0
  190.9030  177.0810  144.6810 C   0  0  0  0  0  3  0  0  0  0  0  0
  194.5100  175.5570  146.3560 C   0  0  0  0  0  1  0  0  0  0  0  0
  189.3120  174.7020  141.6670 O   0  0  0  0  0  0  0  0  0  0  0  0
  189.6260  173.5090  141.1440 O   0  0  0  0  0  0  0  0  0  0  0  0
  190.8640  173.7050  140.5320 C   0  0  0  0  0  2  0  0  0  0  0  0
  193.3670  172.3670  139.8530 C   0  0  0  0  0  1  0  0  0  0  0  0
  191.9290  173.5710  141.5180 N   0  0  0  0  0  0  0  0  0  0  0  0
  192.7370  172.3650  141.2470 C   0  0  2  0  0  3  0  0  0  0  0  0
  193.9770  173.3960  143.2220 C   0  0  0  0  0  2  0  0  0  0  0  0
  193.9660  174.6930  142.4120 C   0  0  0  0  0  2  0  0  0  0  0  0
  192.7570  174.7810  141.4680 C   0  0  0  0  0  2  0  0  0  0  0  0
  193.8390  172.1830  142.3010 C   0  0  0  0  0  2  0  0  0  0  0  0
  1 10  1  0  0  0  0
  1 12  1  0  0  0  0
  2  6  1  0  0  0  0
  2  8  1  0  0  0  0
  3  8  1  0  0  0  0
  3 11  2  0  0  0  0
  4 14  1  0  0  0  0
  7 13  1  0  0  0  0
  7 16  2  0  0  0  0
  8  1  2  0  0  0  0
  9 16  1  0  0  0  0
  9  4  2  0  0  0  0
 11 15  1  0  0  0  0
 11 17  1  0  0  0  0
 12  5  1  0  0  0  0
 13  2  2  0  0  0  0
 14 15  1  0  0  0  0
 15 20  1  6  0  0  0
 16  3  1  0  0  0  0
 17 12  2  0  0  0  0
 18 22  1  0  0  0  0
 18 24  1  0  0  0  0
 19 18  2  0  0  0  0
 20 22  2  0  0  0  0
 21 23  2  0  0  0  0
 21 19  1  0  0  0  0
 23 20  1  0  0  0  0
 25  9  1  0  0  0  0
 26 25  1  0  0  0  0
 27 26  1  0  0  0  0
 27 29  1  0  0  0  0
 30 28  1  6  0  0  0
 30 29  1  0  0  0  0
 30 34  1  0  0  0  0
 32 31  1  0  0  0  0
 33 29  1  0  0  0  0
 33 32  1  0  0  0  0
 34 31  1  0  0  0  0
M  END
>  <MODEL>
6

>  <REMARK>
 VINA RESULT:      -7.5      2.001      4.753
  Name = 
  5 active torsions:
  status: ('A' for Active; 'I' for Inactive)
    1  A    between atoms: C_3  and  N_13
    2  A    between atoms: C_3  and  O_17
    3  A    between atoms: C_12  and  C_28
    4  A    between atoms: O_17  and  O_29
    5  A    between atoms: C_18  and  O_29
                            x       y       z     vdW  Elec       q    Type
                         _______ _______ _______ _____ _____    ______ ____

>  <TORSDO>
F 5

$$$$
=
 OpenBabel11052418383D

 34 38  0  0  1  0  0  0  0  0999 V2000
  192.3500  170.8100  143.3630 C   0  0  0  0  0  0  0  0  0  0  0  0
  190.5530  171.3320  141.7700 C   0  0  0  0  0  0  0  0  0  0  0  0
  191.5730  173.1480  143.0970 C   0  0  0  0  0  0  0  0  0  0  0  0
  191.5240  176.3100  143.0320 N   0  0  0  0  0  0  0  0  0  0  0  0
  194.1970  170.2520  144.9700 C   0  0  0  0  0  1  0  0  0  0  0  0
  190.4400  170.0010  141.3810 O   0  0  0  0  0  1  0  0  0  0  0  0
  189.7670  173.5830  141.5180 C   0  0  0  0  0  3  0  0  0  0  0  0
  191.4910  171.7530  142.7410 C   0  0  0  0  0  0  0  0  0  0  0  0
  190.5250  175.5470  142.7220 C   0  0  0  0  0  0  0  0  0  0  0  0
  192.2820  169.4530  143.0510 O   0  0  0  0  0  1  0  0  0  0  0  0
  192.5690  173.5260  144.0450 C   0  0  0  0  0  0  0  0  0  0  0  0
  193.2870  171.2260  144.3050 C   0  0  0  0  0  0  0  0  0  0  0  0
  189.7130  172.2490  141.1650 C   0  0  0  0  0  3  0  0  0  0  0  0
  192.7510  175.8560  143.4430 O   0  0  0  0  0  0  0  0  0  0  0  0
  192.8540  174.9160  144.4940 C   0  0  1  0  0  3  0  0  0  0  0  0
  190.6550  174.0700  142.4830 C   0  0  0  0  0  0  0  0  0  0  0  0
  193.3920  172.5660  144.6290 C   0  0  0  0  0  3  0  0  0  0  0  0
  190.2300  175.1730  147.2430 C   0  0  0  0  0  0  0  0  0  0  0  0
  190.7560  176.1790  147.9930 N   0  0  0  0  0  0  0  0  0  0  0  0
  192.1090  175.3330  145.7330 C   0  0  0  0  0  0  0  0  0  0  0  0
  191.9280  176.7800  147.6550 C   0  0  0  0  0  3  0  0  0  0  0  0
  190.8960  174.7340  146.0980 C   0  0  0  0  0  3  0  0  0  0  0  0
  192.6240  176.3680  146.5160 C   0  0  0  0  0  3  0  0  0  0  0  0
  188.9440  174.5440  147.6390 C   0  0  0  0  0  1  0  0  0  0  0  0
  189.2950  176.1860  142.5220 O   0  0  0  0  0  0  0  0  0  0  0  0
  188.7840  177.0430  143.4160 O   0  0  0  0  0  0  0  0  0  0  0  0
  187.9490  176.2630  144.2170 C   0  0  0  0  0  2  0  0  0  0  0  0
  187.3710  177.5830  146.7550 C   0  0  0  0  0  1  0  0  0  0  0  0
  186.6820  176.9530  144.4270 N   0  0  0  0  0  0  0  0  0  0  0  0
  186.3150  176.9370  145.8580 C   0  0  2  0  0  3  0  0  0  0  0  0
  184.4440  178.3470  144.8500 C   0  0  0  0  0  2  0  0  0  0  0  0
  185.5590  179.1660  144.2010 C   0  0  0  0  0  2  0  0  0  0  0  0
  186.8200  178.3290  143.9360 C   0  0  0  0  0  2  0  0  0  0  0  0
  184.9610  177.6220  146.0950 C   0  0  0  0  0  2  0  0  0  0  0  0
  1 12  1  0  0  0  0
  2  8  1  0  0  0  0
  3 11  2  0  0  0  0
  4 14  1  0  0  0  0
  6  2  1  0  0  0  0
  7 16  2  0  0  0  0
  8  3  1  0  0  0  0
  8  1  2  0  0  0  0
  9  4  2  0  0  0  0
 10  1  1  0  0  0  0
 11 15  1  0  0  0  0
 11 17  1  0  0  0  0
 12 17  2  0  0  0  0
 12  5  1  0  0  0  0
 13  7  1  0  0  0  0
 13  2  2  0  0  0  0
 14 15  1  0  0  0  0
 15 20  1  1  0  0  0
 16  9  1  0  0  0  0
 16  3  1  0  0  0  0
 18 24  1  0  0  0  0
 18 19  1  0  0  0  0
 20 22  1  0  0  0  0
 20 23  2  0  0  0  0
 21 19  2  0  0  0  0
 22 18  2  0  0  0  0
 23 21  1  0  0  0  0
 25  9  1  0  0  0  0
 25 26  1  0  0  0  0
 26 27  1  0  0  0  0
 27 29  1  0  0  0  0
 29 30  1  0  0  0  0
 30 34  1  0  0  0  0
 30 28  1  1  0  0  0
 31 34  1  0  0  0  0
 32 31  1  0  0  0  0
 33 32  1  0  0  0  0
 33 29  1  0  0  0  0
M  END
>  <MODEL>
7

>  <REMARK>
 VINA RESULT:      -7.5      2.686      7.896
  Name = 
  5 active torsions:
  status: ('A' for Active; 'I' for Inactive)
    1  A    between atoms: C_3  and  N_13
    2  A    between atoms: C_3  and  O_17
    3  A    between atoms: C_12  and  C_28
    4  A    between atoms: O_17  and  O_29
    5  A    between atoms: C_18  and  O_29
                            x       y       z     vdW  Elec       q    Type
                         _______ _______ _______ _____ _____    ______ ____

>  <TORSDO>
F 5

$$$$
=
 OpenBabel11052418383D

 34 38  0  0  1  0  0  0  0  0999 V2000
  194.5540  172.5470  145.0550 C   0  0  0  0  0  0  0  0  0  0  0  0
  194.5300  174.8950  145.7820 C   0  0  0  0  0  0  0  0  0  0  0  0
  192.4410  173.8390  144.9920 C   0  0  0  0  0  0  0  0  0  0  0  0
  189.3650  174.5770  145.0450 N   0  0  0  0  0  0  0  0  0  0  0  0
  194.6020  170.1420  144.3360 C   0  0  0  0  0  1  0  0  0  0  0  0
  195.8870  174.8680  146.0860 O   0  0  0  0  0  1  0  0  0  0  0  0
  192.5030  176.1710  145.7030 C   0  0  0  0  0  3  0  0  0  0  0  0
  193.8520  173.7600  145.2780 C   0  0  0  0  0  0  0  0  0  0  0  0
  190.3290  175.4310  144.9190 C   0  0  0  0  0  0  0  0  0  0  0  0
  195.9210  172.4450  145.3060 O   0  0  0  0  0  1  0  0  0  0  0  0
  191.7970  172.6540  144.5330 C   0  0  0  0  0  0  0  0  0  0  0  0
  193.8840  171.4240  144.5770 C   0  0  0  0  0  0  0  0  0  0  0  0
  193.8490  176.0780  145.9970 C   0  0  0  0  0  3  0  0  0  0  0  0
  189.5380  173.2220  145.1670 O   0  0  0  0  0  0  0  0  0  0  0  0
  190.3430  172.5140  144.2440 C   0  0  1  0  0  3  0  0  0  0  0  0
  191.7700  175.0980  145.1840 C   0  0  0  0  0  0  0  0  0  0  0  0
  192.5250  171.4840  144.3300 C   0  0  0  0  0  3  0  0  0  0  0  0
  190.5210  173.3980  140.5440 C   0  0  0  0  0  0  0  0  0  0  0  0
  189.2070  173.3000  140.2040 N   0  0  0  0  0  0  0  0  0  0  0  0
  189.9660  172.7760  142.8120 C   0  0  0  0  0  0  0  0  0  0  0  0
  188.2600  172.9540  141.1160 C   0  0  0  0  0  3  0  0  0  0  0  0
  190.9230  173.1410  141.8550 C   0  0  0  0  0  3  0  0  0  0  0  0
  188.6240  172.6890  142.4380 C   0  0  0  0  0  3  0  0  0  0  0  0
  191.5280  173.7840  139.5220 C   0  0  0  0  0  1  0  0  0  0  0  0
  189.9590  176.7440  144.6050 O   0  0  0  0  0  0  0  0  0  0  0  0
  189.1140  177.4470  145.3710 O   0  0  0  0  0  0  0  0  0  0  0  0
  188.1400  177.9140  144.4880 C   0  0  0  0  0  2  0  0  0  0  0  0
  185.6130  177.4510  143.1040 C   0  0  0  0  0  1  0  0  0  0  0  0
  186.8690  178.0600  145.1880 N   0  0  0  0  0  0  0  0  0  0  0  0
  185.8010  178.4510  144.2450 C   0  0  2  0  0  3  0  0  0  0  0  0
  184.5060  178.1780  146.4240 C   0  0  0  0  0  2  0  0  0  0  0  0
  185.1800  176.8100  146.5270 C   0  0  0  0  0  2  0  0  0  0  0  0
  186.5530  176.7830  145.8380 C   0  0  0  0  0  2  0  0  0  0  0  0
  184.4620  178.6520  144.9700 C   0  0  0  0  0  2  0  0  0  0  0  0
  1  8  1  0  0  0  0
  1 10  1  0  0  0  0
  2 13  1  0  0  0  0
  2  6  1  0  0  0  0
  3 16  2  0  0  0  0
  3  8  1  0  0  0  0
  4 14  1  0  0  0  0
  5 12  1  0  0  0  0
  7 13  2  0  0  0  0
  8  2  2  0  0  0  0
  9  4  2  0  0  0  0
  9 16  1  0  0  0  0
 11  3  1  0  0  0  0
 12  1  2  0  0  0  0
 15 20  1  6  0  0  0
 15 11  1  0  0  0  0
 15 14  1  0  0  0  0
 16  7  1  0  0  0  0
 17 11  2  0  0  0  0
 17 12  1  0  0  0  0
 18 22  1  0  0  0  0
 19 18  2  0  0  0  0
 19 21  1  0  0  0  0
 21 23  2  0  0  0  0
 22 20  2  0  0  0  0
 23 20  1  0  0  0  0
 24 18  1  0  0  0  0
 25  9  1  0  0  0  0
 25 26  1  0  0  0  0
 27 29  1  0  0  0  0
 27 26  1  0  0  0  0
 29 33  1  0  0  0  0
 30 28  1  6  0  0  0
 30 34  1  0  0  0  0
 30 29  1  0  0  0  0
 31 32  1  0  0  0  0
 33 32  1  0  0  0  0
 34 31  1  0  0  0  0
M  END
>  <MODEL>
8

>  <REMARK>
 VINA RESULT:      -7.4      2.317      7.621
  Name = 
  5 active torsions:
  status: ('A' for Active; 'I' for Inactive)
    1  A    between atoms: C_3  and  N_13
    2  A    between atoms: C_3  and  O_17
    3  A    between atoms: C_12  and  C_28
    4  A    between atoms: O_17  and  O_29
    5  A    between atoms: C_18  and  O_29
                            x       y       z     vdW  Elec       q    Type
                         _______ _______ _______ _____ _____    ______ ____

>  <TORSDO>
F 5

$$$$
=
 OpenBabel11052418383D

 34 38  0  0  1  0  0  0  0  0999 V2000
  186.1490  178.2970  145.9390 C   0  0  0  0  0  0  0  0  0  0  0  0
  185.4370  177.8370  143.6320 C   0  0  0  0  0  0  0  0  0  0  0  0
  187.4020  176.6620  144.5610 C   0  0  0  0  0  0  0  0  0  0  0  0
  189.1840  174.1940  143.7040 N   0  0  0  0  0  0  0  0  0  0  0  0
  186.8440  178.7710  148.3050 C   0  0  0  0  0  1  0  0  0  0  0  0
  184.3720  178.7270  143.7280 O   0  0  0  0  0  1  0  0  0  0  0  0
  186.6510  176.2800  142.2720 C   0  0  0  0  0  3  0  0  0  0  0  0
  186.3220  177.6060  144.7110 C   0  0  0  0  0  0  0  0  0  0  0  0
  188.6420  175.0360  142.8840 C   0  0  0  0  0  0  0  0  0  0  0  0
  185.1250  179.2270  146.1080 O   0  0  0  0  0  1  0  0  0  0  0  0
  188.2340  176.4310  145.6950 C   0  0  0  0  0  0  0  0  0  0  0  0
  187.0080  178.0560  147.0080 C   0  0  0  0  0  0  0  0  0  0  0  0
  185.6060  177.1670  142.4350 C   0  0  0  0  0  3  0  0  0  0  0  0
  189.0700  174.2550  145.0690 O   0  0  0  0  0  0  0  0  0  0  0  0
  189.3560  175.4550  145.7620 C   0  0  1  0  0  3  0  0  0  0  0  0
  187.5770  176.0160  143.2880 C   0  0  0  0  0  0  0  0  0  0  0  0
  188.0270  177.1300  146.8820 C   0  0  0  0  0  3  0  0  0  0  0  0
  193.1090  176.0790  145.5960 C   0  0  0  0  0  0  0  0  0  0  0  0
  193.1430  177.1660  144.7790 N   0  0  0  0  0  0  0  0  0  0  0  0
  190.7010  176.0310  145.4120 C   0  0  0  0  0  0  0  0  0  0  0  0
  192.0050  177.7080  144.2700 C   0  0  0  0  0  3  0  0  0  0  0  0
  191.8880  175.4940  145.9290 C   0  0  0  0  0  3  0  0  0  0  0  0
  190.7630  177.1510  144.5810 C   0  0  0  0  0  3  0  0  0  0  0  0
  194.3730  175.5160  146.1380 C   0  0  0  0  0  1  0  0  0  0  0  0
  189.0310  174.9350  141.5430 O   0  0  0  0  0  0  0  0  0  0  0  0
  189.2290  173.7520  140.9460 O   0  0  0  0  0  0  0  0  0  0  0  0
  190.5560  173.7890  140.5180 C   0  0  0  0  0  2  0  0  0  0  0  0
  192.3960  173.1790  142.7010 C   0  0  0  0  0  1  0  0  0  0  0  0
  191.1520  172.4640  140.6430 N   0  0  0  0  0  0  0  0  0  0  0  0
  192.4680  172.5480  141.3090 C   0  0  2  0  0  3  0  0  0  0  0  0
  192.1860  170.0310  141.0190 C   0  0  0  0  0  2  0  0  0  0  0  0
  190.8160  170.2190  141.6720 C   0  0  0  0  0  2  0  0  0  0  0  0
  190.2300  171.6150  141.4070 C   0  0  0  0  0  2  0  0  0  0  0  0
  193.1320  171.1670  141.4120 C   0  0  0  0  0  2  0  0  0  0  0  0
  1 10  1  0  0  0  0
  1 12  1  0  0  0  0
  2  6  1  0  0  0  0
  2  8  1  0  0  0  0
  3  8  1  0  0  0  0
  3 11  2  0  0  0  0
  4 14  1  0  0  0  0
  7 13  1  0  0  0  0
  7 16  2  0  0  0  0
  8  1  2  0  0  0  0
  9 16  1  0  0  0  0
  9  4  2  0  0  0  0
 11 15  1  0  0  0  0
 11 17  1  0  0  0  0
 12  5  1  0  0  0  0
 13  2  2  0  0  0  0
 14 15  1  0  0  0  0
 15 20  1  6  0  0  0
 16  3  1  0  0  0  0
 17 12  2  0  0  0  0
 18 22  1  0  0  0  0
 18 24  1  0  0  0  0
 19 18  2  0  0  0  0
 20 22  2  0  0  0  0
 21 23  2  0  0  0  0
 21 19  1  0  0  0  0
 23 20  1  0  0  0  0
 25  9  1  0  0  0  0
 26 25  1  0  0  0  0
 27 29  1  0  0  0  0
 27 26  1  0  0  0  0
 29 30  1  0  0  0  0
 29 33  1  0  0  0  0
 30 34  1  0  0  0  0
 30 28  1  1  0  0  0
 31 34  1  0  0  0  0
 31 32  1  0  0  0  0
 33 32  1  0  0  0  0
M  END
>  <MODEL>
9

>  <REMARK>
 VINA RESULT:      -7.4      1.950      5.116
  Name = 
  5 active torsions:
  status: ('A' for Active; 'I' for Inactive)
    1  A    between atoms: C_3  and  N_13
    2  A    between atoms: C_3  and  O_17
    3  A    between atoms: C_12  and  C_28
    4  A    between atoms: O_17  and  O_29
    5  A    between atoms: C_18  and  O_29
                            x       y       z     vdW  Elec       q    Type
                         _______ _______ _______ _____ _____    ______ ____

>  <TORSDO>
F 5

$$$$
