=
 OpenBabel11052417503D

 31 35  0  0  1  0  0  0  0  0999 V2000
  185.3230  177.9630  141.0170 C   0  0  0  0  0  0  0  0  0  0  0  0
  187.2450  177.1710  144.1440 C   0  0  0  0  0  0  0  0  0  0  0  0
  186.3930  177.6410  145.2880 C   0  0  0  0  0  0  0  0  0  0  0  0
  184.3130  178.5060  146.2180 C   0  0  0  0  0  0  0  0  0  0  0  0
  186.8730  177.2920  142.7770 C   0  0  0  0  0  0  0  0  0  0  0  0
  186.2160  177.5130  140.0430 C   0  0  0  0  0  3  0  0  0  0  0  0
  185.0500  178.0220  145.1350 C   0  0  0  0  0  3  0  0  0  0  0  0
  189.3580  176.1860  143.4120 C   0  0  0  0  0  0  0  0  0  0  0  0
  183.7920  178.6650  140.5440 Cl  0  0  0  0  0  0  0  0  0  0  0  0
  188.2940  177.3300  146.7630 O   0  0  0  0  0  0  0  0  0  0  0  0
  183.0210  178.8740  146.0480 F   0  0  0  0  0  0  0  0  0  0  0  0
  188.9680  176.3130  142.1200 N   0  0  0  0  0  0  0  0  0  0  0  0
  188.5140  176.6230  144.4490 C   0  0  0  0  0  0  0  0  0  0  0  0
  185.6520  177.8550  142.3700 C   0  0  0  0  0  3  0  0  0  0  0  0
  184.9140  178.6260  147.4720 C   0  0  0  0  0  3  0  0  0  0  0  0
  187.7720  176.8450  141.7760 C   0  0  0  0  0  0  0  0  0  0  0  0
  187.4380  176.9560  140.4230 C   0  0  0  0  0  3  0  0  0  0  0  0
  188.9260  176.4050  145.8820 C   0  0  0  0  0  2  0  0  0  0  0  0
  186.9760  177.7350  146.5670 C   0  0  0  0  0  0  0  0  0  0  0  0
  186.2450  178.2410  147.6460 C   0  0  0  0  0  3  0  0  0  0  0  0
  190.7030  175.5970  143.7000 C   0  0  0  0  0  2  0  0  0  0  0  0
  191.3550  177.9050  143.7970 O   0  0  0  0  0  1  0  0  0  0  0  0
  191.8020  176.6240  143.4630 C   0  0  1  0  0  3  0  0  0  0  0  0
  195.0960  174.8790  145.6480 C   0  0  1  0  0  3  0  0  0  0  0  0
  192.9820  176.1930  145.5830 C   0  0  0  0  0  3  0  0  0  0  0  0
  194.3340  175.9770  142.2760 O   0  0  0  0  0  0  0  0  0  0  0  0
  196.2300  174.6230  146.3930 F   0  0  0  0  0  0  0  0  0  0  0  0
  194.1940  175.8520  146.4020 C   0  0  0  0  0  2  0  0  0  0  0  0
  194.2760  175.9060  143.5320 C   0  0  0  0  0  0  0  0  0  0  0  0
  193.0320  176.2730  144.2460 C   0  0  0  0  0  0  0  0  0  0  0  0
  195.4930  175.4780  144.3000 C   0  0  0  0  0  2  0  0  0  0  0  0
  1 14  1  0  0  0  0
  2 13  2  0  0  0  0
  2  3  1  0  0  0  0
  3 19  1  0  0  0  0
  4 15  2  0  0  0  0
  5  2  1  0  0  0  0
  6 17  1  0  0  0  0
  6  1  2  0  0  0  0
  7  3  2  0  0  0  0
  7  4  1  0  0  0  0
  8 21  1  0  0  0  0
  8 13  1  0  0  0  0
  9  1  1  0  0  0  0
 11  4  1  0  0  0  0
 12  8  2  0  0  0  0
 13 18  1  0  0  0  0
 14  5  2  0  0  0  0
 15 20  1  0  0  0  0
 16 12  1  0  0  0  0
 16  5  1  0  0  0  0
 17 16  2  0  0  0  0
 18 10  1  0  0  0  0
 19 10  1  0  0  0  0
 19 20  2  0  0  0  0
 23 21  1  0  0  0  0
 23 22  1  1  0  0  0
 23 30  1  0  0  0  0
 24 27  1  1  0  0  0
 24 28  1  0  0  0  0
 25 28  1  0  0  0  0
 26 29  2  0  0  0  0
 29 30  1  0  0  0  0
 29 31  1  0  0  0  0
 30 25  2  0  0  0  0
 31 24  1  0  0  0  0
M  END
>  <MODEL>
1

>  <REMARK>
 VINA RESULT:      -9.4      0.000      0.000
  Name = 
  3 active torsions:
  status: ('A' for Active; 'I' for Inactive)
    1  A    between atoms: C_9  and  C_22
    2  A    between atoms: C_9  and  C_23
    3  A    between atoms: C_15  and  C_23
                            x       y       z     vdW  Elec       q    Type
                         _______ _______ _______ _____ _____    ______ ____

>  <TORSDO>
F 3

$$$$
=
 OpenBabel11052417503D

 31 35  0  0  1  0  0  0  0  0999 V2000
  184.9850  178.0830  146.0640 C   0  0  0  0  0  0  0  0  0  0  0  0
  187.6960  176.3960  144.0890 C   0  0  0  0  0  0  0  0  0  0  0  0
  187.3810  176.6520  142.6430 C   0  0  0  0  0  0  0  0  0  0  0  0
  186.1150  177.7430  140.8700 C   0  0  0  0  0  0  0  0  0  0  0  0
  186.9020  176.8690  145.1700 C   0  0  0  0  0  0  0  0  0  0  0  0
  185.3680  177.7540  147.3640 C   0  0  0  0  0  3  0  0  0  0  0  0
  186.4140  177.5800  142.2250 C   0  0  0  0  0  3  0  0  0  0  0  0
  189.1500  175.3080  145.7230 C   0  0  0  0  0  0  0  0  0  0  0  0
  183.5500  179.0480  145.7900 Cl  0  0  0  0  0  0  0  0  0  0  0  0
  189.0540  175.0010  142.0410 O   0  0  0  0  0  0  0  0  0  0  0  0
  185.1750  178.6400  140.4880 F   0  0  0  0  0  0  0  0  0  0  0  0
  188.3720  175.7790  146.7280 N   0  0  0  0  0  0  0  0  0  0  0  0
  188.8240  175.5920  144.3860 C   0  0  0  0  0  0  0  0  0  0  0  0
  185.7440  177.6420  144.9780 C   0  0  0  0  0  3  0  0  0  0  0  0
  186.7740  176.9710  139.9120 C   0  0  0  0  0  3  0  0  0  0  0  0
  187.2750  176.5380  146.4960 C   0  0  0  0  0  0  0  0  0  0  0  0
  186.5110  176.9820  147.5790 C   0  0  0  0  0  3  0  0  0  0  0  0
  189.7400  175.1280  143.2830 C   0  0  0  0  0  2  0  0  0  0  0  0
  188.0620  175.9030  141.6630 C   0  0  0  0  0  0  0  0  0  0  0  0
  187.7460  176.0520  140.3090 C   0  0  0  0  0  3  0  0  0  0  0  0
  190.3380  174.4660  146.0720 C   0  0  0  0  0  2  0  0  0  0  0  0
  191.3370  175.2320  148.1160 O   0  0  0  0  0  1  0  0  0  0  0  0
  191.4240  175.3120  146.7230 C   0  0  1  0  0  3  0  0  0  0  0  0
  195.1380  174.4190  144.7040 C   0  0  1  0  0  3  0  0  0  0  0  0
  192.9390  173.7060  145.6300 C   0  0  0  0  0  3  0  0  0  0  0  0
  193.7930  176.9130  146.9680 O   0  0  0  0  0  0  0  0  0  0  0  0
  196.3880  173.9730  144.3230 F   0  0  0  0  0  0  0  0  0  0  0  0
  194.2840  173.2360  145.1520 C   0  0  0  0  0  2  0  0  0  0  0  0
  193.9300  175.8070  146.3840 C   0  0  0  0  0  0  0  0  0  0  0  0
  192.7810  174.8820  146.2540 C   0  0  0  0  0  0  0  0  0  0  0  0
  195.2790  175.4210  145.8490 C   0  0  0  0  0  2  0  0  0  0  0  0
  1  6  1  0  0  0  0
  2 13  2  0  0  0  0
  2  5  1  0  0  0  0
  3  2  1  0  0  0  0
  4  7  2  0  0  0  0
  5 16  2  0  0  0  0
  6 17  2  0  0  0  0
  7  3  1  0  0  0  0
  8 21  1  0  0  0  0
  8 12  2  0  0  0  0
  9  1  1  0  0  0  0
 10 18  1  0  0  0  0
 11  4  1  0  0  0  0
 13  8  1  0  0  0  0
 14  5  1  0  0  0  0
 14  1  2  0  0  0  0
 15 20  2  0  0  0  0
 15  4  1  0  0  0  0
 16 12  1  0  0  0  0
 16 17  1  0  0  0  0
 18 13  1  0  0  0  0
 19 10  1  0  0  0  0
 19  3  2  0  0  0  0
 20 19  1  0  0  0  0
 21 23  1  0  0  0  0
 23 22  1  1  0  0  0
 24 27  1  1  0  0  0
 24 28  1  0  0  0  0
 24 31  1  0  0  0  0
 25 30  2  0  0  0  0
 28 25  1  0  0  0  0
 29 26  2  0  0  0  0
 30 29  1  0  0  0  0
 30 23  1  0  0  0  0
 31 29  1  0  0  0  0
M  END
>  <MODEL>
2

>  <REMARK>
 VINA RESULT:      -9.1      2.414      4.430
  Name = 
  3 active torsions:
  status: ('A' for Active; 'I' for Inactive)
    1  A    between atoms: C_9  and  C_22
    2  A    between atoms: C_9  and  C_23
    3  A    between atoms: C_15  and  C_23
                            x       y       z     vdW  Elec       q    Type
                         _______ _______ _______ _____ _____    ______ ____

>  <TORSDO>
F 3

$$$$
=
 OpenBabel11052417503D

 31 35  0  0  1  0  0  0  0  0999 V2000
  185.1580  178.0270  141.5240 C   0  0  0  0  0  0  0  0  0  0  0  0
  187.6750  177.6580  144.2850 C   0  0  0  0  0  0  0  0  0  0  0  0
  186.9100  177.7940  145.5700 C   0  0  0  0  0  0  0  0  0  0  0  0
  184.8370  177.9630  146.8400 C   0  0  0  0  0  0  0  0  0  0  0  0
  187.0820  177.7400  142.9950 C   0  0  0  0  0  0  0  0  0  0  0  0
  185.9820  177.9120  140.4040 C   0  0  0  0  0  3  0  0  0  0  0  0
  185.5070  177.7760  145.6290 C   0  0  0  0  0  3  0  0  0  0  0  0
  189.8430  177.3740  143.1940 C   0  0  0  0  0  0  0  0  0  0  0  0
  183.4370  178.2770  141.3240 Cl  0  0  0  0  0  0  0  0  0  0  0  0
  189.0230  177.9710  146.7490 O   0  0  0  0  0  0  0  0  0  0  0  0
  183.4840  177.9460  146.8750 F   0  0  0  0  0  0  0  0  0  0  0  0
  189.2420  177.4540  141.9810 N   0  0  0  0  0  0  0  0  0  0  0  0
  189.0790  177.4880  144.3680 C   0  0  0  0  0  0  0  0  0  0  0  0
  185.7050  177.9440  142.8060 C   0  0  0  0  0  3  0  0  0  0  0  0
  185.5630  178.1830  148.0120 C   0  0  0  0  0  3  0  0  0  0  0  0
  187.9070  177.6320  141.8490 C   0  0  0  0  0  0  0  0  0  0  0  0
  187.3540  177.7160  140.5670 C   0  0  0  0  0  3  0  0  0  0  0  0
  189.7480  177.3200  145.7090 C   0  0  0  0  0  2  0  0  0  0  0  0
  187.6300  177.9840  146.7650 C   0  0  0  0  0  0  0  0  0  0  0  0
  186.9590  178.1940  147.9740 C   0  0  0  0  0  3  0  0  0  0  0  0
  191.3270  177.1890  143.2470 C   0  0  0  0  0  2  0  0  0  0  0  0
  193.1290  175.8800  142.3500 O   0  0  0  0  0  1  0  0  0  0  0  0
  191.7400  175.9320  142.4930 C   0  0  1  0  0  3  0  0  0  0  0  0
  189.7490  172.8750  144.8090 C   0  0  1  0  0  3  0  0  0  0  0  0
  191.6820  174.3960  144.4190 C   0  0  0  0  0  3  0  0  0  0  0  0
  189.7330  174.1790  141.4250 O   0  0  0  0  0  0  0  0  0  0  0  0
  189.3490  171.7160  145.4450 F   0  0  0  0  0  0  0  0  0  0  0  0
  191.2070  173.1720  145.1490 C   0  0  0  0  0  2  0  0  0  0  0  0
  190.1610  173.8970  142.5750 C   0  0  0  0  0  0  0  0  0  0  0  0
  191.2350  174.7060  143.1940 C   0  0  0  0  0  0  0  0  0  0  0  0
  189.5920  172.7110  143.2990 C   0  0  0  0  0  2  0  0  0  0  0  0
  1 14  1  0  0  0  0
  2 13  2  0  0  0  0
  2  3  1  0  0  0  0
  3  7  2  0  0  0  0
  3 19  1  0  0  0  0
  4 11  1  0  0  0  0
  4 15  2  0  0  0  0
  5  2  1  0  0  0  0
  6 17  1  0  0  0  0
  6  1  2  0  0  0  0
  7  4  1  0  0  0  0
  8 21  1  0  0  0  0
  8 13  1  0  0  0  0
  9  1  1  0  0  0  0
 10 19  1  0  0  0  0
 12  8  2  0  0  0  0
 13 18  1  0  0  0  0
 14  5  2  0  0  0  0
 16 12  1  0  0  0  0
 16  5  1  0  0  0  0
 17 16  2  0  0  0  0
 18 10  1  0  0  0  0
 19 20  2  0  0  0  0
 20 15  1  0  0  0  0
 23 22  1  1  0  0  0
 23 30  1  0  0  0  0
 23 21  1  0  0  0  0
 24 28  1  0  0  0  0
 24 27  1  1  0  0  0
 25 28  1  0  0  0  0
 26 29  2  0  0  0  0
 29 30  1  0  0  0  0
 29 31  1  0  0  0  0
 30 25  2  0  0  0  0
 31 24  1  0  0  0  0
M  END
>  <MODEL>
3

>  <REMARK>
 VINA RESULT:      -8.8      2.165      2.789
  Name = 
  3 active torsions:
  status: ('A' for Active; 'I' for Inactive)
    1  A    between atoms: C_9  and  C_22
    2  A    between atoms: C_9  and  C_23
    3  A    between atoms: C_15  and  C_23
                            x       y       z     vdW  Elec       q    Type
                         _______ _______ _______ _____ _____    ______ ____

>  <TORSDO>
F 3

$$$$
=
 OpenBabel11052417503D

 31 35  0  0  1  0  0  0  0  0999 V2000
  190.1640  172.4680  141.4590 C   0  0  0  0  0  0  0  0  0  0  0  0
  189.9870  175.6200  143.4920 C   0  0  0  0  0  0  0  0  0  0  0  0
  190.9520  175.4390  144.6280 C   0  0  0  0  0  0  0  0  0  0  0  0
  192.7300  174.2340  145.7790 C   0  0  0  0  0  0  0  0  0  0  0  0
  189.7520  174.6410  142.4870 C   0  0  0  0  0  0  0  0  0  0  0  0
  189.2190  172.7440  140.4700 C   0  0  0  0  0  3  0  0  0  0  0  0
  191.8890  174.3950  144.6750 C   0  0  0  0  0  3  0  0  0  0  0  0
  188.2990  177.0250  142.4210 C   0  0  0  0  0  0  0  0  0  0  0  0
  191.0220  170.9430  141.4500 Cl  0  0  0  0  0  0  0  0  0  0  0  0
  190.0000  177.4070  145.6810 O   0  0  0  0  0  0  0  0  0  0  0  0
  193.6240  173.2170  145.8070 F   0  0  0  0  0  0  0  0  0  0  0  0
  188.1050  176.0710  141.4770 N   0  0  0  0  0  0  0  0  0  0  0  0
  189.2300  176.8160  143.4530 C   0  0  0  0  0  0  0  0  0  0  0  0
  190.4240  173.4080  142.4580 C   0  0  0  0  0  3  0  0  0  0  0  0
  192.6360  175.1110  146.8600 C   0  0  0  0  0  3  0  0  0  0  0  0
  188.7910  174.9050  141.4790 C   0  0  0  0  0  0  0  0  0  0  0  0
  188.5340  173.9600  140.4820 C   0  0  0  0  0  3  0  0  0  0  0  0
  189.4920  177.9160  144.4510 C   0  0  0  0  0  2  0  0  0  0  0  0
  190.8920  176.3370  145.7110 C   0  0  0  0  0  0  0  0  0  0  0  0
  191.7180  176.1620  146.8260 C   0  0  0  0  0  3  0  0  0  0  0  0
  187.4880  178.2810  142.3480 C   0  0  0  0  0  2  0  0  0  0  0  0
  185.6160  176.7910  142.1450 O   0  0  0  0  0  1  0  0  0  0  0  0
  186.0330  178.0030  142.7030 C   0  0  1  0  0  3  0  0  0  0  0  0
  186.2610  178.0740  147.0170 C   0  0  1  0  0  3  0  0  0  0  0  0
  185.9420  176.8430  144.8750 C   0  0  0  0  0  3  0  0  0  0  0  0
  185.5660  180.3530  144.2830 O   0  0  0  0  0  0  0  0  0  0  0  0
  186.0250  178.0290  148.3770 F   0  0  0  0  0  0  0  0  0  0  0  0
  185.7520  176.7910  146.3650 C   0  0  0  0  0  2  0  0  0  0  0  0
  185.6600  179.2690  144.9160 C   0  0  0  0  0  0  0  0  0  0  0  0
  185.8450  177.9920  144.1900 C   0  0  0  0  0  0  0  0  0  0  0  0
  185.5470  179.2810  146.4130 C   0  0  0  0  0  2  0  0  0  0  0  0
  1 14  1  0  0  0  0
  2  3  1  0  0  0  0
  3  7  2  0  0  0  0
  3 19  1  0  0  0  0
  4 11  1  0  0  0  0
  4 15  2  0  0  0  0
  5  2  1  0  0  0  0
  6 17  1  0  0  0  0
  6  1  2  0  0  0  0
  7  4  1  0  0  0  0
  8 13  1  0  0  0  0
  9  1  1  0  0  0  0
 10 19  1  0  0  0  0
 12 16  1  0  0  0  0
 12  8  2  0  0  0  0
 13  2  2  0  0  0  0
 13 18  1  0  0  0  0
 14  5  2  0  0  0  0
 16  5  1  0  0  0  0
 17 16  2  0  0  0  0
 18 10  1  0  0  0  0
 19 20  2  0  0  0  0
 20 15  1  0  0  0  0
 21  8  1  0  0  0  0
 21 23  1  0  0  0  0
 23 22  1  1  0  0  0
 23 30  1  0  0  0  0
 24 27  1  1  0  0  0
 25 28  1  0  0  0  0
 26 29  2  0  0  0  0
 28 24  1  0  0  0  0
 29 31  1  0  0  0  0
 30 25  2  0  0  0  0
 30 29  1  0  0  0  0
 31 24  1  0  0  0  0
M  END
>  <MODEL>
4

>  <REMARK>
 VINA RESULT:      -8.6      3.049      7.016
  Name = 
  3 active torsions:
  status: ('A' for Active; 'I' for Inactive)
    1  A    between atoms: C_9  and  C_22
    2  A    between atoms: C_9  and  C_23
    3  A    between atoms: C_15  and  C_23
                            x       y       z     vdW  Elec       q    Type
                         _______ _______ _______ _____ _____    ______ ____

>  <TORSDO>
F 3

$$$$
=
 OpenBabel11052417503D

 31 35  0  0  1  0  0  0  0  0999 V2000
  188.5350  174.5490  140.4380 C   0  0  0  0  0  0  0  0  0  0  0  0
  187.9270  176.0920  143.8070 C   0  0  0  0  0  0  0  0  0  0  0  0
  186.7510  177.0100  143.6400 C   0  0  0  0  0  0  0  0  0  0  0  0
  184.8870  177.9210  142.3600 C   0  0  0  0  0  0  0  0  0  0  0  0
  188.4810  175.3130  142.7530 C   0  0  0  0  0  0  0  0  0  0  0  0
  189.6480  173.7540  140.7140 C   0  0  0  0  0  3  0  0  0  0  0  0
  185.9370  177.0090  142.4950 C   0  0  0  0  0  3  0  0  0  0  0  0
  189.6650  175.2110  145.2810 C   0  0  0  0  0  0  0  0  0  0  0  0
  187.8580  174.5800  138.8240 Cl  0  0  0  0  0  0  0  0  0  0  0  0
  187.2360  177.9430  145.8260 O   0  0  0  0  0  0  0  0  0  0  0  0
  184.1170  177.9060  141.2460 F   0  0  0  0  0  0  0  0  0  0  0  0
  190.1640  174.4790  144.2540 N   0  0  0  0  0  0  0  0  0  0  0  0
  188.5490  176.0410  145.0780 C   0  0  0  0  0  0  0  0  0  0  0  0
  187.9600  175.3220  141.4490 C   0  0  0  0  0  3  0  0  0  0  0  0
  184.6430  178.8570  143.3650 C   0  0  0  0  0  3  0  0  0  0  0  0
  189.6150  174.5060  143.0170 C   0  0  0  0  0  0  0  0  0  0  0  0
  190.1870  173.7340  142.0010 C   0  0  0  0  0  3  0  0  0  0  0  0
  187.9580  176.7890  146.2450 C   0  0  0  0  0  2  0  0  0  0  0  0
  186.4720  177.9390  144.6610 C   0  0  0  0  0  0  0  0  0  0  0  0
  185.4360  178.8660  144.5150 C   0  0  0  0  0  3  0  0  0  0  0  0
  190.3420  175.1300  146.6130 C   0  0  0  0  0  2  0  0  0  0  0  0
  191.5630  176.5050  148.1560 O   0  0  0  0  0  1  0  0  0  0  0  0
  191.3060  176.2940  146.7990 C   0  0  1  0  0  3  0  0  0  0  0  0
  194.5840  175.0230  144.2870 C   0  0  1  0  0  3  0  0  0  0  0  0
  193.4740  175.1580  146.5120 C   0  0  0  0  0  3  0  0  0  0  0  0
  191.9790  177.5460  144.3050 O   0  0  0  0  0  0  0  0  0  0  0  0
  195.7950  174.8290  143.6520 F   0  0  0  0  0  0  0  0  0  0  0  0
  194.7670  174.8890  145.7970 C   0  0  0  0  0  2  0  0  0  0  0  0
  192.8090  176.7090  144.7470 C   0  0  0  0  0  0  0  0  0  0  0  0
  192.5830  176.0480  146.0520 C   0  0  0  0  0  0  0  0  0  0  0  0
  194.0470  176.4130  143.9510 C   0  0  0  0  0  2  0  0  0  0  0  0
  1  6  2  0  0  0  0
  1 14  1  0  0  0  0
  2 13  2  0  0  0  0
  3  2  1  0  0  0  0
  3 19  1  0  0  0  0
  4  7  1  0  0  0  0
  4 15  2  0  0  0  0
  5 16  1  0  0  0  0
  5  2  1  0  0  0  0
  6 17  1  0  0  0  0
  7  3  2  0  0  0  0
  8 21  1  0  0  0  0
  9  1  1  0  0  0  0
 10 18  1  0  0  0  0
 11  4  1  0  0  0  0
 12  8  2  0  0  0  0
 13  8  1  0  0  0  0
 13 18  1  0  0  0  0
 14  5  2  0  0  0  0
 15 20  1  0  0  0  0
 16 12  1  0  0  0  0
 17 16  2  0  0  0  0
 19 10  1  0  0  0  0
 20 19  2  0  0  0  0
 21 23  1  0  0  0  0
 23 22  1  1  0  0  0
 24 27  1  6  0  0  0
 24 28  1  0  0  0  0
 26 29  2  0  0  0  0
 28 25  1  0  0  0  0
 29 30  1  0  0  0  0
 30 25  2  0  0  0  0
 30 23  1  0  0  0  0
 31 24  1  0  0  0  0
 31 29  1  0  0  0  0
M  END
>  <MODEL>
5

>  <REMARK>
 VINA RESULT:      -8.6      2.222      3.199
  Name = 
  3 active torsions:
  status: ('A' for Active; 'I' for Inactive)
    1  A    between atoms: C_9  and  C_22
    2  A    between atoms: C_9  and  C_23
    3  A    between atoms: C_15  and  C_23
                            x       y       z     vdW  Elec       q    Type
                         _______ _______ _______ _____ _____    ______ ____

>  <TORSDO>
F 3

$$$$
=
 OpenBabel11052417503D

 31 35  0  0  1  0  0  0  0  0999 V2000
  185.9710  177.8610  141.9700 C   0  0  0  0  0  0  0  0  0  0  0  0
  188.5410  175.2900  142.9100 C   0  0  0  0  0  0  0  0  0  0  0  0
  188.7140  174.4120  141.7040 C   0  0  0  0  0  0  0  0  0  0  0  0
  188.3310  173.8620  139.3610 C   0  0  0  0  0  0  0  0  0  0  0  0
  187.6460  176.3940  142.9660 C   0  0  0  0  0  0  0  0  0  0  0  0
  185.8800  178.5840  143.1600 C   0  0  0  0  0  3  0  0  0  0  0  0
  188.1930  174.7360  140.4410 C   0  0  0  0  0  3  0  0  0  0  0  0
  189.1360  175.7430  145.2360 C   0  0  0  0  0  0  0  0  0  0  0  0
  184.9900  178.3130  140.5930 Cl  0  0  0  0  0  0  0  0  0  0  0  0
  189.9640  172.8550  143.0830 O   0  0  0  0  0  0  0  0  0  0  0  0
  187.8170  174.1920  138.1530 F   0  0  0  0  0  0  0  0  0  0  0  0
  188.2760  176.7910  145.2510 N   0  0  0  0  0  0  0  0  0  0  0  0
  189.2780  174.9640  144.0750 C   0  0  0  0  0  0  0  0  0  0  0  0
  186.8440  176.7750  141.8760 C   0  0  0  0  0  3  0  0  0  0  0  0
  188.9850  172.6410  139.5320 C   0  0  0  0  0  3  0  0  0  0  0  0
  187.5370  177.1330  144.1690 C   0  0  0  0  0  0  0  0  0  0  0  0
  186.6610  178.2190  144.2570 C   0  0  0  0  0  3  0  0  0  0  0  0
  190.2940  173.8510  144.0460 C   0  0  0  0  0  2  0  0  0  0  0  0
  189.4010  173.1910  141.8530 C   0  0  0  0  0  0  0  0  0  0  0  0
  189.5190  172.3060  140.7780 C   0  0  0  0  0  3  0  0  0  0  0  0
  189.9040  175.4290  146.4820 C   0  0  0  0  0  2  0  0  0  0  0  0
  191.1900  176.6290  148.1150 O   0  0  0  0  0  1  0  0  0  0  0  0
  190.9630  176.4910  146.7430 C   0  0  1  0  0  3  0  0  0  0  0  0
  194.2050  174.9840  144.3160 C   0  0  1  0  0  3  0  0  0  0  0  0
  193.0530  175.2050  146.5130 C   0  0  0  0  0  3  0  0  0  0  0  0
  191.7820  177.6820  144.2630 O   0  0  0  0  0  0  0  0  0  0  0  0
  195.4150  174.7030  143.7120 F   0  0  0  0  0  0  0  0  0  0  0  0
  194.3420  174.8440  145.8300 C   0  0  0  0  0  2  0  0  0  0  0  0
  192.5400  176.7910  144.7270 C   0  0  0  0  0  0  0  0  0  0  0  0
  192.2380  176.1530  146.0280 C   0  0  0  0  0  0  0  0  0  0  0  0
  193.7740  176.4060  143.9630 C   0  0  0  0  0  2  0  0  0  0  0  0
  1  6  1  0  0  0  0
  2  5  2  0  0  0  0
  2 13  1  0  0  0  0
  3 19  1  0  0  0  0
  3  2  1  0  0  0  0
  4 15  2  0  0  0  0
  4  7  1  0  0  0  0
  5 16  1  0  0  0  0
  6 17  2  0  0  0  0
  7  3  2  0  0  0  0
  8 12  1  0  0  0  0
  8 21  1  0  0  0  0
  9  1  1  0  0  0  0
 10 18  1  0  0  0  0
 11  4  1  0  0  0  0
 13  8  2  0  0  0  0
 14  1  2  0  0  0  0
 14  5  1  0  0  0  0
 15 20  1  0  0  0  0
 16 17  1  0  0  0  0
 16 12  2  0  0  0  0
 18 13  1  0  0  0  0
 19 10  1  0  0  0  0
 20 19  2  0  0  0  0
 21 23  1  0  0  0  0
 23 22  1  1  0  0  0
 24 27  1  6  0  0  0
 24 28  1  0  0  0  0
 26 29  2  0  0  0  0
 28 25  1  0  0  0  0
 29 30  1  0  0  0  0
 30 25  2  0  0  0  0
 30 23  1  0  0  0  0
 31 24  1  0  0  0  0
 31 29  1  0  0  0  0
M  END
>  <MODEL>
6

>  <REMARK>
 VINA RESULT:      -8.5      2.949      4.800
  Name = 
  3 active torsions:
  status: ('A' for Active; 'I' for Inactive)
    1  A    between atoms: C_9  and  C_22
    2  A    between atoms: C_9  and  C_23
    3  A    between atoms: C_15  and  C_23
                            x       y       z     vdW  Elec       q    Type
                         _______ _______ _______ _____ _____    ______ ____

>  <TORSDO>
F 3

$$$$
=
 OpenBabel11052417503D

 31 35  0  0  1  0  0  0  0  0999 V2000
  191.0610  176.6170  147.1860 C   0  0  0  0  0  0  0  0  0  0  0  0
  188.0270  176.6870  144.9760 C   0  0  0  0  0  0  0  0  0  0  0  0
  186.9670  177.4220  145.7440 C   0  0  0  0  0  0  0  0  0  0  0  0
  186.2080  178.7660  147.6300 C   0  0  0  0  0  0  0  0  0  0  0  0
  189.3380  176.4410  145.4690 C   0  0  0  0  0  0  0  0  0  0  0  0
  191.9480  175.8960  146.3860 C   0  0  0  0  0  3  0  0  0  0  0  0
  187.2360  178.1440  146.9180 C   0  0  0  0  0  3  0  0  0  0  0  0
  188.6300  175.4540  142.9540 C   0  0  0  0  0  0  0  0  0  0  0  0
  191.5660  177.1860  148.7620 Cl  0  0  0  0  0  0  0  0  0  0  0  0
  185.3390  176.6810  144.1050 O   0  0  0  0  0  0  0  0  0  0  0  0
  186.4880  179.4540  148.7630 F   0  0  0  0  0  0  0  0  0  0  0  0
  189.8720  175.2420  143.4560 N   0  0  0  0  0  0  0  0  0  0  0  0
  187.6790  176.1660  143.7050 C   0  0  0  0  0  0  0  0  0  0  0  0
  189.7680  176.8830  146.7320 C   0  0  0  0  0  3  0  0  0  0  0  0
  184.8900  178.6650  147.1830 C   0  0  0  0  0  3  0  0  0  0  0  0
  190.2480  175.7050  144.6710 C   0  0  0  0  0  0  0  0  0  0  0  0
  191.5410  175.4410  145.1320 C   0  0  0  0  0  3  0  0  0  0  0  0
  186.3290  176.4620  143.1040 C   0  0  0  0  0  2  0  0  0  0  0  0
  185.6360  177.3570  145.2870 C   0  0  0  0  0  0  0  0  0  0  0  0
  184.6050  177.9600  146.0120 C   0  0  0  0  0  3  0  0  0  0  0  0
  188.2970  174.8950  141.6070 C   0  0  0  0  0  2  0  0  0  0  0  0
  187.4870  172.6650  141.9720 O   0  0  0  0  0  1  0  0  0  0  0  0
  188.5970  173.4030  141.5540 C   0  0  1  0  0  3  0  0  0  0  0  0
  190.3660  172.7390  137.6680 C   0  0  1  0  0  3  0  0  0  0  0  0
  188.5580  173.6700  139.1040 C   0  0  0  0  0  3  0  0  0  0  0  0
  190.4380  171.2750  140.9850 O   0  0  0  0  0  0  0  0  0  0  0  0
  190.6800  172.3410  136.3830 F   0  0  0  0  0  0  0  0  0  0  0  0
  188.9430  173.2880  137.7030 C   0  0  0  0  0  2  0  0  0  0  0  0
  190.0060  171.9150  139.9910 C   0  0  0  0  0  0  0  0  0  0  0  0
  189.0100  172.9960  140.1710 C   0  0  0  0  0  0  0  0  0  0  0  0
  190.4870  171.5480  138.6170 C   0  0  0  0  0  2  0  0  0  0  0  0
  1  9  1  0  0  0  0
  2  5  1  0  0  0  0
  2  3  1  0  0  0  0
  3  7  1  0  0  0  0
  4 11  1  0  0  0  0
  5 14  2  0  0  0  0
  6  1  2  0  0  0  0
  7  4  2  0  0  0  0
  8 12  2  0  0  0  0
  8 13  1  0  0  0  0
 10 19  1  0  0  0  0
 12 16  1  0  0  0  0
 13  2  2  0  0  0  0
 14  1  1  0  0  0  0
 15  4  1  0  0  0  0
 16 17  2  0  0  0  0
 16  5  1  0  0  0  0
 17  6  1  0  0  0  0
 18 13  1  0  0  0  0
 18 10  1  0  0  0  0
 19  3  2  0  0  0  0
 19 20  1  0  0  0  0
 20 15  2  0  0  0  0
 21  8  1  0  0  0  0
 23 21  1  0  0  0  0
 23 22  1  6  0  0  0
 24 27  1  6  0  0  0
 24 28  1  0  0  0  0
 24 31  1  0  0  0  0
 25 30  2  0  0  0  0
 28 25  1  0  0  0  0
 29 30  1  0  0  0  0
 29 26  2  0  0  0  0
 30 23  1  0  0  0  0
 31 29  1  0  0  0  0
M  END
>  <MODEL>
7

>  <REMARK>
 VINA RESULT:      -8.4      4.347      6.106
  Name = 
  3 active torsions:
  status: ('A' for Active; 'I' for Inactive)
    1  A    between atoms: C_9  and  C_22
    2  A    between atoms: C_9  and  C_23
    3  A    between atoms: C_15  and  C_23
                            x       y       z     vdW  Elec       q    Type
                         _______ _______ _______ _____ _____    ______ ____

>  <TORSDO>
F 3

$$$$
=
 OpenBabel11052417503D

 31 35  0  0  1  0  0  0  0  0999 V2000
  186.4000  177.1830  141.2480 C   0  0  0  0  0  0  0  0  0  0  0  0
  187.4300  176.4180  144.7770 C   0  0  0  0  0  0  0  0  0  0  0  0
  186.4610  177.1470  145.6620 C   0  0  0  0  0  0  0  0  0  0  0  0
  184.4360  178.4510  146.0330 C   0  0  0  0  0  0  0  0  0  0  0  0
  187.3860  176.4520  143.3550 C   0  0  0  0  0  0  0  0  0  0  0  0
  187.3760  176.4850  140.5360 C   0  0  0  0  0  3  0  0  0  0  0  0
  185.2790  177.7340  145.1810 C   0  0  0  0  0  3  0  0  0  0  0  0
  189.4230  175.0140  144.6130 C   0  0  0  0  0  0  0  0  0  0  0  0
  185.1660  178.0810  140.3920 Cl  0  0  0  0  0  0  0  0  0  0  0  0
  187.9130  176.6780  147.5480 O   0  0  0  0  0  0  0  0  0  0  0  0
  183.3030  179.0130  145.5490 F   0  0  0  0  0  0  0  0  0  0  0  0
  189.3470  175.0650  143.2600 N   0  0  0  0  0  0  0  0  0  0  0  0
  188.4780  175.6970  145.3990 C   0  0  0  0  0  0  0  0  0  0  0  0
  186.4090  177.1670  142.6440 C   0  0  0  0  0  3  0  0  0  0  0  0
  184.7690  178.6020  147.3800 C   0  0  0  0  0  3  0  0  0  0  0  0
  188.3740  175.7530  142.6180 C   0  0  0  0  0  0  0  0  0  0  0  0
  188.3610  175.7720  141.2210 C   0  0  0  0  0  3  0  0  0  0  0  0
  188.5280  175.5690  146.9000 C   0  0  0  0  0  2  0  0  0  0  0  0
  186.7680  177.2790  147.0300 C   0  0  0  0  0  0  0  0  0  0  0  0
  185.9350  178.0160  147.8780 C   0  0  0  0  0  3  0  0  0  0  0  0
  190.5400  174.2380  145.2390 C   0  0  0  0  0  2  0  0  0  0  0  0
  192.4610  175.6650  145.4280 O   0  0  0  0  0  1  0  0  0  0  0  0
  191.8800  174.6580  144.6520 C   0  0  1  0  0  3  0  0  0  0  0  0
  193.9280  170.8530  144.6030 C   0  0  1  0  0  3  0  0  0  0  0  0
  193.5510  173.1080  145.5900 C   0  0  0  0  0  3  0  0  0  0  0  0
  192.0990  172.9970  142.3210 O   0  0  0  0  0  0  0  0  0  0  0  0
  194.8310  169.8130  144.5040 F   0  0  0  0  0  0  0  0  0  0  0  0
  194.4910  171.9380  145.5160 C   0  0  0  0  0  2  0  0  0  0  0  0
  192.7990  172.6580  143.3100 C   0  0  0  0  0  0  0  0  0  0  0  0
  192.8010  173.4790  144.5430 C   0  0  0  0  0  0  0  0  0  0  0  0
  193.6590  171.4310  143.2150 C   0  0  0  0  0  2  0  0  0  0  0  0
  1 14  1  0  0  0  0
  2 13  2  0  0  0  0
  2  3  1  0  0  0  0
  3 19  1  0  0  0  0
  4 15  2  0  0  0  0
  5  2  1  0  0  0  0
  6 17  1  0  0  0  0
  6  1  2  0  0  0  0
  7  3  2  0  0  0  0
  7  4  1  0  0  0  0
  8 21  1  0  0  0  0
  8 13  1  0  0  0  0
  9  1  1  0  0  0  0
 11  4  1  0  0  0  0
 12  8  2  0  0  0  0
 13 18  1  0  0  0  0
 14  5  2  0  0  0  0
 15 20  1  0  0  0  0
 16 12  1  0  0  0  0
 16  5  1  0  0  0  0
 17 16  2  0  0  0  0
 18 10  1  0  0  0  0
 19 10  1  0  0  0  0
 19 20  2  0  0  0  0
 23 21  1  0  0  0  0
 23 22  1  1  0  0  0
 24 27  1  6  0  0  0
 24 28  1  0  0  0  0
 26 29  2  0  0  0  0
 28 25  1  0  0  0  0
 29 30  1  0  0  0  0
 30 23  1  0  0  0  0
 30 25  2  0  0  0  0
 31 29  1  0  0  0  0
 31 24  1  0  0  0  0
M  END
>  <MODEL>
8

>  <REMARK>
 VINA RESULT:      -8.3      2.230      2.375
  Name = 
  3 active torsions:
  status: ('A' for Active; 'I' for Inactive)
    1  A    between atoms: C_9  and  C_22
    2  A    between atoms: C_9  and  C_23
    3  A    between atoms: C_15  and  C_23
                            x       y       z     vdW  Elec       q    Type
                         _______ _______ _______ _____ _____    ______ ____

>  <TORSDO>
F 3

$$$$
=
 OpenBabel11052417503D

 31 35  0  0  1  0  0  0  0  0999 V2000
  190.8420  175.3550  146.5460 C   0  0  0  0  0  0  0  0  0  0  0  0
  188.0120  176.2880  144.2610 C   0  0  0  0  0  0  0  0  0  0  0  0
  187.0400  177.0690  145.0970 C   0  0  0  0  0  0  0  0  0  0  0  0
  186.3920  178.2210  147.1450 C   0  0  0  0  0  0  0  0  0  0  0  0
  189.2290  175.7450  144.7590 C   0  0  0  0  0  0  0  0  0  0  0  0
  191.6480  174.6220  145.6750 C   0  0  0  0  0  3  0  0  0  0  0  0
  187.3480  177.5460  146.3820 C   0  0  0  0  0  3  0  0  0  0  0  0
  188.5340  175.2910  142.0920 C   0  0  0  0  0  0  0  0  0  0  0  0
  191.3300  175.5810  148.2120 Cl  0  0  0  0  0  0  0  0  0  0  0  0
  185.4230  176.8810  143.2990 O   0  0  0  0  0  0  0  0  0  0  0  0
  186.7080  178.6680  148.3840 F   0  0  0  0  0  0  0  0  0  0  0  0
  189.6890  174.7930  142.6000 N   0  0  0  0  0  0  0  0  0  0  0  0
  187.6670  176.0350  142.9110 C   0  0  0  0  0  0  0  0  0  0  0  0
  189.6430  175.9080  146.0910 C   0  0  0  0  0  3  0  0  0  0  0  0
  185.1080  178.4190  146.6370 C   0  0  0  0  0  3  0  0  0  0  0  0
  190.0550  174.9930  143.8880 C   0  0  0  0  0  0  0  0  0  0  0  0
  191.2540  174.4410  144.3490 C   0  0  0  0  0  3  0  0  0  0  0  0
  186.4270  176.6490  142.3150 C   0  0  0  0  0  2  0  0  0  0  0  0
  185.7500  177.3070  144.5840 C   0  0  0  0  0  0  0  0  0  0  0  0
  184.7870  177.9620  145.3570 C   0  0  0  0  0  3  0  0  0  0  0  0
  188.2020  175.0110  140.6600 C   0  0  0  0  0  2  0  0  0  0  0  0
  187.8130  172.6590  140.3760 O   0  0  0  0  0  1  0  0  0  0  0  0
  188.7710  173.6660  140.2290 C   0  0  1  0  0  3  0  0  0  0  0  0
  190.4530  174.5410  136.3460 C   0  0  1  0  0  3  0  0  0  0  0  0
  188.4920  174.2740  137.8570 C   0  0  0  0  0  3  0  0  0  0  0  0
  191.3610  172.7680  139.3770 O   0  0  0  0  0  0  0  0  0  0  0  0
  190.8530  174.5480  135.0240 F   0  0  0  0  0  0  0  0  0  0  0  0
  188.9410  174.3470  136.4260 C   0  0  0  0  0  2  0  0  0  0  0  0
  190.6320  173.2830  138.4890 C   0  0  0  0  0  0  0  0  0  0  0  0
  189.2580  173.7280  138.8120 C   0  0  0  0  0  0  0  0  0  0  0  0
  191.1610  173.4100  137.0890 C   0  0  0  0  0  2  0  0  0  0  0  0
  1  9  1  0  0  0  0
  2  5  1  0  0  0  0
  2  3  1  0  0  0  0
  3  7  1  0  0  0  0
  4 11  1  0  0  0  0
  5 14  2  0  0  0  0
  6  1  2  0  0  0  0
  7  4  2  0  0  0  0
  8 12  2  0  0  0  0
  8 13  1  0  0  0  0
 10 19  1  0  0  0  0
 12 16  1  0  0  0  0
 13  2  2  0  0  0  0
 14  1  1  0  0  0  0
 15  4  1  0  0  0  0
 16 17  2  0  0  0  0
 16  5  1  0  0  0  0
 17  6  1  0  0  0  0
 18 13  1  0  0  0  0
 18 10  1  0  0  0  0
 19  3  2  0  0  0  0
 19 20  1  0  0  0  0
 20 15  2  0  0  0  0
 21  8  1  0  0  0  0
 23 22  1  6  0  0  0
 23 21  1  0  0  0  0
 24 27  1  6  0  0  0
 24 28  1  0  0  0  0
 24 31  1  0  0  0  0
 25 30  2  0  0  0  0
 28 25  1  0  0  0  0
 29 30  1  0  0  0  0
 29 26  2  0  0  0  0
 30 23  1  0  0  0  0
 31 29  1  0  0  0  0
M  END
>  <MODEL>
9

>  <REMARK>
 VINA RESULT:      -8.1      4.396      6.293
  Name = 
  3 active torsions:
  status: ('A' for Active; 'I' for Inactive)
    1  A    between atoms: C_9  and  C_22
    2  A    between atoms: C_9  and  C_23
    3  A    between atoms: C_15  and  C_23
                            x       y       z     vdW  Elec       q    Type
                         _______ _______ _______ _____ _____    ______ ____

>  <TORSDO>
F 3

$$$$
