=
 OpenBabel11052418543D

 34 39  0  0  1  0  0  0  0  0999 V2000
  191.1110  175.4950  145.8630 C   0  0  0  0  0  0  0  0  0  0  0  0
  191.7130  173.5040  144.4190 C   0  0  2  0  0  3  0  0  0  0  0  0
  189.7020  175.0430  143.9100 C   0  0  0  0  0  0  0  0  0  0  0  0
  188.3360  174.8080  141.9410 N   0  0  1  0  0  0  0  0  0  0  0  0
  193.4520  174.7340  145.8210 C   0  0  0  0  0  2  0  0  0  0  0  0
  193.0180  173.4060  145.2250 C   0  0  0  0  0  2  0  0  0  0  0  0
  190.1200  173.3290  142.1390 N   0  0  0  0  0  0  0  0  0  0  0  0
  190.8260  174.7060  144.7260 C   0  0  0  0  0  0  0  0  0  0  0  0
  188.2970  173.8830  140.9320 O   0  0  0  0  0  0  0  0  0  0  0  0
  192.3280  175.2530  146.6980 C   0  0  0  0  0  2  0  0  0  0  0  0
  188.8150  176.0870  144.3320 C   0  0  0  0  0  0  0  0  0  0  0  0
  190.2560  176.5200  146.2450 C   0  0  0  0  0  3  0  0  0  0  0  0
  190.9890  172.3280  144.6220 O   0  0  0  0  0  1  0  0  0  0  0  0
  187.2150  175.5610  142.4650 C   0  0  0  0  0  2  0  0  0  0  0  0
  187.6670  176.3860  143.6480 C   0  0  1  0  0  3  0  0  0  0  0  0
  189.4040  173.0510  141.0920 C   0  0  0  0  0  0  0  0  0  0  0  0
  189.4420  174.4390  142.7310 C   0  0  2  0  0  3  0  0  0  0  0  0
  189.1200  176.7980  145.5010 C   0  0  0  0  0  3  0  0  0  0  0  0
  185.2010  178.3610  145.7230 C   0  0  0  0  0  0  0  0  0  0  0  0
  184.9940  179.4790  144.9100 C   0  0  0  0  0  3  0  0  0  0  0  0
  186.7440  177.4530  144.0850 C   0  0  0  0  0  0  0  0  0  0  0  0
  185.6630  179.5890  143.6890 C   0  0  0  0  0  3  0  0  0  0  0  0
  186.0730  177.3500  145.3120 C   0  0  0  0  0  3  0  0  0  0  0  0
  186.5370  178.5770  143.2750 C   0  0  0  0  0  3  0  0  0  0  0  0
  184.3660  178.2270  147.2540 Cl  0  0  0  0  0  0  0  0  0  0  0  0
  189.2720  171.9230  139.0050 C   0  0  0  0  0  3  0  0  0  0  0  0
  189.7210  171.9700  140.2150 N   0  0  0  0  0  0  0  0  0  0  0  0
  189.5980  172.1160  136.1040 N   0  0  0  0  0  1  0  0  0  0  0  0
  189.6080  170.7540  138.1450 C   0  0  1  0  0  3  0  0  0  0  0  0
  190.3940  171.1970  136.9000 C   0  0  1  0  0  3  0  0  0  0  0  0
  191.6160  169.1510  136.8400 C   0  0  0  0  0  2  0  0  0  0  0  0
  190.8630  168.5910  138.0450 C   0  0  0  0  0  2  0  0  0  0  0  0
  190.4310  169.7440  138.9470 C   0  0  0  0  0  2  0  0  0  0  0  0
  190.7460  170.0410  136.0740 N   0  0  0  0  0  2  0  0  0  0  0  0
  1 12  1  0  0  0  0
  1 10  1  0  0  0  0
  2 13  1  1  0  0  0
  2  8  1  0  0  0  0
  2  6  1  0  0  0  0
  3 11  2  0  0  0  0
  3  8  1  0  0  0  0
  4 14  1  1  0  0  0
  4 17  1  0  0  0  0
  5 10  1  0  0  0  0
  6  5  1  0  0  0  0
  8  1  2  0  0  0  0
  9 16  1  0  0  0  0
  9  4  1  0  0  0  0
 11 18  1  0  0  0  0
 14 15  1  0  0  0  0
 15 21  1  1  0  0  0
 15 11  1  0  0  0  0
 16  7  2  0  0  0  0
 17  7  1  1  0  0  0
 17  3  1  0  0  0  0
 18 12  2  0  0  0  0
 19 25  1  0  0  0  0
 20 19  2  0  0  0  0
 21 23  2  0  0  0  0
 22 20  1  0  0  0  0
 23 19  1  0  0  0  0
 24 22  2  0  0  0  0
 24 21  1  0  0  0  0
 26 27  2  0  0  0  0
 27 16  1  0  0  0  0
 29 33  1  0  0  0  0
 29 26  1  1  0  0  0
 30 28  1  6  0  0  0
 30 29  1  0  0  0  0
 31 32  1  0  0  0  0
 32 33  1  0  0  0  0
 34 31  1  0  0  0  0
 34 30  1  0  0  0  0
M  END
>  <MODEL>
1

>  <REMARK>
 VINA RESULT:      -8.8      0.000      0.000
  Name = 
  3 active torsions:
  status: ('A' for Active; 'I' for Inactive)
    1  A    between atoms: C_3  and  C_13
    2  A    between atoms: C_12  and  C_28
    3  A    between atoms: N_17  and  C_29
                            x       y       z     vdW  Elec       q    Type
                         _______ _______ _______ _____ _____    ______ ____

>  <TORSDO>
F 3

$$$$
=
 OpenBabel11052418543D

 34 39  0  0  1  0  0  0  0  0999 V2000
  191.1770  176.0330  146.0550 C   0  0  0  0  0  0  0  0  0  0  0  0
  191.8830  173.9960  144.7280 C   0  0  2  0  0  3  0  0  0  0  0  0
  189.7730  175.3730  144.1580 C   0  0  0  0  0  0  0  0  0  0  0  0
  188.3980  174.9300  142.2320 N   0  0  1  0  0  0  0  0  0  0  0  0
  193.5600  175.4170  146.0200 C   0  0  0  0  0  2  0  0  0  0  0  0
  193.2020  174.0290  145.5160 C   0  0  0  0  0  2  0  0  0  0  0  0
  190.2730  173.5790  142.4910 N   0  0  0  0  0  0  0  0  0  0  0  0
  190.9260  175.1580  144.9740 C   0  0  0  0  0  0  0  0  0  0  0  0
  188.4030  173.9430  141.2830 O   0  0  0  0  0  0  0  0  0  0  0  0
  192.4180  175.9200  146.8810 C   0  0  0  0  0  2  0  0  0  0  0  0
  188.8280  176.3850  144.5300 C   0  0  0  0  0  0  0  0  0  0  0  0
  190.2650  177.0260  146.3870 C   0  0  0  0  0  3  0  0  0  0  0  0
  191.2360  172.7920  145.0160 O   0  0  0  0  0  1  0  0  0  0  0  0
  187.2400  175.6440  142.7270 C   0  0  0  0  0  2  0  0  0  0  0  0
  187.6540  176.5690  143.8490 C   0  0  1  0  0  3  0  0  0  0  0  0
  189.5620  173.1920  141.4760 C   0  0  0  0  0  0  0  0  0  0  0  0
  189.5350  174.6800  143.0250 C   0  0  2  0  0  3  0  0  0  0  0  0
  189.1040  177.1870  145.6460 C   0  0  0  0  0  3  0  0  0  0  0  0
  184.9900  178.4400  145.7690 C   0  0  0  0  0  0  0  0  0  0  0  0
  184.8120  179.5660  144.9610 C   0  0  0  0  0  3  0  0  0  0  0  0
  186.6730  177.6030  144.2350 C   0  0  0  0  0  0  0  0  0  0  0  0
  185.5650  179.7170  143.7950 C   0  0  0  0  0  3  0  0  0  0  0  0
  185.9180  177.4600  145.4070 C   0  0  0  0  0  3  0  0  0  0  0  0
  186.4940  178.7350  143.4300 C   0  0  0  0  0  3  0  0  0  0  0  0
  184.0500  178.2560  147.2330 Cl  0  0  0  0  0  0  0  0  0  0  0  0
  190.8210  172.1860  139.7300 C   0  0  0  0  0  3  0  0  0  0  0  0
  189.9340  172.0790  140.6630 N   0  0  0  0  0  0  0  0  0  0  0  0
  193.1110  170.4410  140.2490 N   0  0  0  0  0  1  0  0  0  0  0  0
  191.1460  170.9990  138.8910 C   0  0  1  0  0  3  0  0  0  0  0  0
  191.8640  169.9210  139.7200 C   0  0  1  0  0  3  0  0  0  0  0  0
  190.8980  168.1660  138.4260 C   0  0  0  0  0  2  0  0  0  0  0  0
  190.1750  169.1510  137.5100 C   0  0  0  0  0  2  0  0  0  0  0  0
  189.8620  170.4250  138.2900 C   0  0  0  0  0  2  0  0  0  0  0  0
  192.1540  168.7460  138.8960 N   0  0  0  0  0  2  0  0  0  0  0  0
  1 12  1  0  0  0  0
  1 10  1  0  0  0  0
  2  8  1  0  0  0  0
  2 13  1  1  0  0  0
  2  6  1  0  0  0  0
  3 11  2  0  0  0  0
  3  8  1  0  0  0  0
  4 14  1  1  0  0  0
  4 17  1  0  0  0  0
  5 10  1  0  0  0  0
  6  5  1  0  0  0  0
  8  1  2  0  0  0  0
  9 16  1  0  0  0  0
  9  4  1  0  0  0  0
 11 18  1  0  0  0  0
 14 15  1  0  0  0  0
 15 21  1  1  0  0  0
 15 11  1  0  0  0  0
 16  7  2  0  0  0  0
 17  7  1  1  0  0  0
 17  3  1  0  0  0  0
 18 12  2  0  0  0  0
 19 25  1  0  0  0  0
 20 19  2  0  0  0  0
 21 23  2  0  0  0  0
 22 20  1  0  0  0  0
 23 19  1  0  0  0  0
 24 22  2  0  0  0  0
 24 21  1  0  0  0  0
 26 27  2  0  0  0  0
 27 16  1  0  0  0  0
 29 30  1  0  0  0  0
 29 26  1  1  0  0  0
 30 28  1  6  0  0  0
 31 34  1  0  0  0  0
 32 33  1  0  0  0  0
 32 31  1  0  0  0  0
 33 29  1  0  0  0  0
 34 30  1  0  0  0  0
M  END
>  <MODEL>
2

>  <REMARK>
 VINA RESULT:      -8.8      1.186      1.467
  Name = 
  3 active torsions:
  status: ('A' for Active; 'I' for Inactive)
    1  A    between atoms: C_3  and  C_13
    2  A    between atoms: C_12  and  C_28
    3  A    between atoms: N_17  and  C_29
                            x       y       z     vdW  Elec       q    Type
                         _______ _______ _______ _____ _____    ______ ____

>  <TORSDO>
F 3

$$$$
=
 OpenBabel11052418543D

 34 39  0  0  1  0  0  0  0  0999 V2000
  188.5560  174.7390  141.2490 C   0  0  0  0  0  0  0  0  0  0  0  0
  190.9120  173.8890  141.6260 C   0  0  2  0  0  3  0  0  0  0  0  0
  189.5270  175.0400  143.4790 C   0  0  0  0  0  0  0  0  0  0  0  0
  190.2990  175.2560  145.7500 N   0  0  1  0  0  0  0  0  0  0  0  0
  189.3780  172.8850  139.8530 C   0  0  0  0  0  2  0  0  0  0  0  0
  190.8080  173.2090  140.2520 C   0  0  0  0  0  2  0  0  0  0  0  0
  191.7120  174.1310  144.2850 N   0  0  0  0  0  0  0  0  0  0  0  0
  189.6420  174.5630  142.1370 C   0  0  0  0  0  0  0  0  0  0  0  0
  191.4840  174.9620  146.3690 O   0  0  0  0  0  0  0  0  0  0  0  0
  188.5770  174.1730  139.8650 C   0  0  0  0  0  2  0  0  0  0  0  0
  188.3730  175.8010  143.8580 C   0  0  0  0  0  0  0  0  0  0  0  0
  187.4330  175.4550  141.6400 C   0  0  0  0  0  3  0  0  0  0  0  0
  191.9440  174.8280  141.5670 O   0  0  0  0  0  1  0  0  0  0  0  0
  189.3830  176.3200  146.1020 C   0  0  0  0  0  2  0  0  0  0  0  0
  188.2540  176.3720  145.0970 C   0  0  1  0  0  3  0  0  0  0  0  0
  192.2690  174.2660  145.4500 C   0  0  0  0  0  0  0  0  0  0  0  0
  190.4510  174.7870  144.4300 C   0  0  2  0  0  3  0  0  0  0  0  0
  187.3520  175.9900  142.9170 C   0  0  0  0  0  3  0  0  0  0  0  0
  185.6120  179.0740  145.1520 C   0  0  0  0  0  0  0  0  0  0  0  0
  184.8290  178.6680  146.2360 C   0  0  0  0  0  3  0  0  0  0  0  0
  187.0720  177.1660  145.4890 C   0  0  0  0  0  0  0  0  0  0  0  0
  185.1610  177.5110  146.9440 C   0  0  0  0  0  3  0  0  0  0  0  0
  186.7310  178.3250  144.7780 C   0  0  0  0  0  3  0  0  0  0  0  0
  186.2820  176.7600  146.5720 C   0  0  0  0  0  3  0  0  0  0  0  0
  185.1910  180.5210  144.2630 Cl  0  0  0  0  0  0  0  0  0  0  0  0
  194.1630  172.9210  144.9570 C   0  0  0  0  0  3  0  0  0  0  0  0
  193.5750  173.7670  145.7350 N   0  0  0  0  0  0  0  0  0  0  0  0
  194.6050  170.2810  146.1370 N   0  0  0  0  0  1  0  0  0  0  0  0
  195.5140  172.4080  145.3210 C   0  0  1  0  0  3  0  0  0  0  0  0
  195.5630  170.8750  145.2230 C   0  0  1  0  0  3  0  0  0  0  0  0
  197.8610  170.9070  144.5870 C   0  0  0  0  0  2  0  0  0  0  0  0
  197.9380  172.4280  144.6990 C   0  0  0  0  0  2  0  0  0  0  0  0
  196.5660  173.0230  144.3970 C   0  0  0  0  0  2  0  0  0  0  0  0
  196.9000  170.3800  145.5530 N   0  0  0  0  0  2  0  0  0  0  0  0
  1 12  2  0  0  0  0
  1  8  1  0  0  0  0
  2 13  1  6  0  0  0
  2  8  1  0  0  0  0
  3 11  1  0  0  0  0
  4 14  1  6  0  0  0
  4  9  1  0  0  0  0
  5 10  1  0  0  0  0
  5  6  1  0  0  0  0
  6  2  1  0  0  0  0
  7 17  1  0  0  0  0
  7 16  2  0  0  0  0
  8  3  2  0  0  0  0
 10  1  1  0  0  0  0
 11 15  1  0  0  0  0
 12 18  1  0  0  0  0
 15 21  1  6  0  0  0
 15 14  1  0  0  0  0
 16 27  1  0  0  0  0
 16  9  1  0  0  0  0
 17  3  1  6  0  0  0
 17  4  1  0  0  0  0
 18 11  2  0  0  0  0
 19 20  1  0  0  0  0
 20 22  2  0  0  0  0
 21 24  2  0  0  0  0
 23 19  2  0  0  0  0
 23 21  1  0  0  0  0
 24 22  1  0  0  0  0
 25 19  1  0  0  0  0
 26 27  2  0  0  0  0
 29 26  1  6  0  0  0
 30 29  1  0  0  0  0
 30 34  1  0  0  0  0
 30 28  1  1  0  0  0
 31 32  1  0  0  0  0
 31 34  1  0  0  0  0
 33 32  1  0  0  0  0
 33 29  1  0  0  0  0
M  END
>  <MODEL>
3

>  <REMARK>
 VINA RESULT:      -8.6      3.256      6.095
  Name = 
  3 active torsions:
  status: ('A' for Active; 'I' for Inactive)
    1  A    between atoms: C_3  and  C_13
    2  A    between atoms: C_12  and  C_28
    3  A    between atoms: N_17  and  C_29
                            x       y       z     vdW  Elec       q    Type
                         _______ _______ _______ _____ _____    ______ ____

>  <TORSDO>
F 3

$$$$
=
 OpenBabel11052418543D

 34 39  0  0  1  0  0  0  0  0999 V2000
  191.9760  176.0790  146.1130 C   0  0  0  0  0  0  0  0  0  0  0  0
  192.9780  174.5110  144.3960 C   0  0  2  0  0  3  0  0  0  0  0  0
  190.6090  175.5130  144.1600 C   0  0  0  0  0  0  0  0  0  0  0  0
  189.2260  175.1660  142.2190 N   0  0  1  0  0  0  0  0  0  0  0  0
  194.4260  175.9770  145.8980 C   0  0  0  0  0  2  0  0  0  0  0  0
  194.3130  174.6640  145.1420 C   0  0  0  0  0  2  0  0  0  0  0  0
  191.3410  174.2000  142.1630 N   0  0  0  0  0  0  0  0  0  0  0  0
  191.8320  175.3880  144.8890 C   0  0  0  0  0  0  0  0  0  0  0  0
  189.3620  174.3940  141.0970 O   0  0  0  0  0  0  0  0  0  0  0  0
  193.2660  176.0690  146.8700 C   0  0  0  0  0  2  0  0  0  0  0  0
  189.5110  176.2250  144.7460 C   0  0  0  0  0  0  0  0  0  0  0  0
  190.9120  176.7870  146.6550 C   0  0  0  0  0  3  0  0  0  0  0  0
  192.5980  173.1690  144.4610 O   0  0  0  0  0  1  0  0  0  0  0  0
  187.9850  175.5250  142.8730 C   0  0  0  0  0  2  0  0  0  0  0  0
  188.2830  176.2900  144.1430 C   0  0  1  0  0  3  0  0  0  0  0  0
  190.6550  173.8710  141.1100 C   0  0  0  0  0  0  0  0  0  0  0  0
  190.4380  175.0090  142.9190 C   0  0  2  0  0  3  0  0  0  0  0  0
  189.6970  176.8440  145.9890 C   0  0  0  0  0  3  0  0  0  0  0  0
  185.7030  178.9610  144.8480 C   0  0  0  0  0  0  0  0  0  0  0  0
  184.9890  178.3790  145.8990 C   0  0  0  0  0  3  0  0  0  0  0  0
  187.1460  177.0130  144.7470 C   0  0  0  0  0  0  0  0  0  0  0  0
  185.3460  177.1150  146.3730 C   0  0  0  0  0  3  0  0  0  0  0  0
  186.7790  178.2800  144.2730 C   0  0  0  0  0  3  0  0  0  0  0  0
  186.4250  176.4320  145.7990 C   0  0  0  0  0  3  0  0  0  0  0  0
  185.2500  180.5430  144.2530 Cl  0  0  0  0  0  0  0  0  0  0  0  0
  190.6750  173.0010  138.9000 C   0  0  0  0  0  3  0  0  0  0  0  0
  191.1830  173.0280  140.0870 N   0  0  0  0  0  0  0  0  0  0  0  0
  189.5660  170.3510  138.3460 N   0  0  0  0  0  1  0  0  0  0  0  0
  191.2470  172.0770  137.8810 C   0  0  1  0  0  3  0  0  0  0  0  0
  190.1570  171.1620  137.2970 C   0  0  1  0  0  3  0  0  0  0  0  0
  191.2430  171.0840  135.1750 C   0  0  0  0  0  2  0  0  0  0  0  0
  192.4030  171.9490  135.6650 C   0  0  0  0  0  2  0  0  0  0  0  0
  191.9030  172.8860  136.7610 C   0  0  0  0  0  2  0  0  0  0  0  0
  190.7190  170.2770  136.2760 N   0  0  0  0  0  2  0  0  0  0  0  0
  1 12  1  0  0  0  0
  1 10  1  0  0  0  0
  2 13  1  1  0  0  0
  2  8  1  0  0  0  0
  2  6  1  0  0  0  0
  3 11  2  0  0  0  0
  3  8  1  0  0  0  0
  4 14  1  1  0  0  0
  4 17  1  0  0  0  0
  5 10  1  0  0  0  0
  6  5  1  0  0  0  0
  8  1  2  0  0  0  0
  9 16  1  0  0  0  0
  9  4  1  0  0  0  0
 11 18  1  0  0  0  0
 14 15  1  0  0  0  0
 15 11  1  0  0  0  0
 15 21  1  1  0  0  0
 16  7  2  0  0  0  0
 17  7  1  1  0  0  0
 17  3  1  0  0  0  0
 18 12  2  0  0  0  0
 19 20  1  0  0  0  0
 20 22  2  0  0  0  0
 21 24  2  0  0  0  0
 23 21  1  0  0  0  0
 23 19  2  0  0  0  0
 24 22  1  0  0  0  0
 25 19  1  0  0  0  0
 26 27  2  0  0  0  0
 27 16  1  0  0  0  0
 29 26  1  1  0  0  0
 30 29  1  0  0  0  0
 30 28  1  1  0  0  0
 31 32  1  0  0  0  0
 31 34  1  0  0  0  0
 32 33  1  0  0  0  0
 33 29  1  0  0  0  0
 34 30  1  0  0  0  0
M  END
>  <MODEL>
4

>  <REMARK>
 VINA RESULT:      -8.4      1.503      2.008
  Name = 
  3 active torsions:
  status: ('A' for Active; 'I' for Inactive)
    1  A    between atoms: C_3  and  C_13
    2  A    between atoms: C_12  and  C_28
    3  A    between atoms: N_17  and  C_29
                            x       y       z     vdW  Elec       q    Type
                         _______ _______ _______ _____ _____    ______ ____

>  <TORSDO>
F 3

$$$$
=
 OpenBabel11052418543D

 34 39  0  0  1  0  0  0  0  0999 V2000
  186.4350  178.1300  143.8550 C   0  0  0  0  0  0  0  0  0  0  0  0
  186.1500  177.3550  141.4610 C   0  0  2  0  0  3  0  0  0  0  0  0
  187.9930  176.4330  143.0190 C   0  0  0  0  0  0  0  0  0  0  0  0
  189.4830  174.6540  142.3780 N   0  0  1  0  0  0  0  0  0  0  0  0
  184.2040  178.2830  142.8240 C   0  0  0  0  0  2  0  0  0  0  0  0
  184.8230  178.1310  141.4450 C   0  0  0  0  0  2  0  0  0  0  0  0
  187.8770  175.2660  140.8120 N   0  0  0  0  0  0  0  0  0  0  0  0
  186.8720  177.2940  142.8030 C   0  0  0  0  0  0  0  0  0  0  0  0
  189.6870  173.9780  141.2040 O   0  0  0  0  0  0  0  0  0  0  0  0
  185.2090  178.9770  143.7230 C   0  0  0  0  0  2  0  0  0  0  0  0
  188.7270  176.5300  144.2470 C   0  0  0  0  0  0  0  0  0  0  0  0
  187.1410  178.1930  145.0490 C   0  0  0  0  0  3  0  0  0  0  0  0
  186.9940  177.9220  140.5040 O   0  0  0  0  0  1  0  0  0  0  0  0
  190.4780  174.9410  143.3900 C   0  0  0  0  0  2  0  0  0  0  0  0
  189.8680  175.8070  144.4700 C   0  0  1  0  0  3  0  0  0  0  0  0
  188.6770  174.3670  140.3240 C   0  0  0  0  0  0  0  0  0  0  0  0
  188.3870  175.5010  142.1260 C   0  0  2  0  0  3  0  0  0  0  0  0
  188.2760  177.4180  145.2330 C   0  0  0  0  0  3  0  0  0  0  0  0
  192.6600  176.5230  146.9150 C   0  0  0  0  0  0  0  0  0  0  0  0
  192.0820  176.1070  148.1170 C   0  0  0  0  0  3  0  0  0  0  0  0
  190.6340  175.9110  145.7280 C   0  0  0  0  0  0  0  0  0  0  0  0
  190.7820  175.5990  148.1300 C   0  0  0  0  0  3  0  0  0  0  0  0
  191.9390  176.4260  145.7220 C   0  0  0  0  0  3  0  0  0  0  0  0
  190.0580  175.5000  146.9360 C   0  0  0  0  0  3  0  0  0  0  0  0
  194.2880  177.1640  146.9020 Cl  0  0  0  0  0  0  0  0  0  0  0  0
  189.5550  173.7130  138.2160 C   0  0  0  0  0  3  0  0  0  0  0  0
  188.5370  173.8590  138.9980 N   0  0  0  0  0  0  0  0  0  0  0  0
  190.2800  175.2470  135.8330 N   0  0  0  0  0  1  0  0  0  0  0  0
  189.3460  173.2090  136.8300 C   0  0  1  0  0  3  0  0  0  0  0  0
  190.3900  173.8000  135.8680 C   0  0  1  0  0  3  0  0  0  0  0  0
  190.3890  171.8300  134.5240 C   0  0  0  0  0  2  0  0  0  0  0  0
  189.3170  171.1650  135.3860 C   0  0  0  0  0  2  0  0  0  0  0  0
  189.4310  171.6830  136.8170 C   0  0  0  0  0  2  0  0  0  0  0  0
  190.1980  173.2790  134.5140 N   0  0  0  0  0  2  0  0  0  0  0  0
  1 12  1  0  0  0  0
  2 13  1  6  0  0  0
  2  8  1  0  0  0  0
  3 11  2  0  0  0  0
  4 14  1  6  0  0  0
  5 10  1  0  0  0  0
  6  2  1  0  0  0  0
  6  5  1  0  0  0  0
  8  3  1  0  0  0  0
  8  1  2  0  0  0  0
  9  4  1  0  0  0  0
 10  1  1  0  0  0  0
 11 15  1  0  0  0  0
 11 18  1  0  0  0  0
 12 18  2  0  0  0  0
 14 15  1  0  0  0  0
 15 21  1  6  0  0  0
 16  7  2  0  0  0  0
 16  9  1  0  0  0  0
 17  7  1  6  0  0  0
 17  4  1  0  0  0  0
 17  3  1  0  0  0  0
 19 20  1  0  0  0  0
 20 22  2  0  0  0  0
 21 24  2  0  0  0  0
 23 21  1  0  0  0  0
 23 19  2  0  0  0  0
 24 22  1  0  0  0  0
 25 19  1  0  0  0  0
 26 27  2  0  0  0  0
 27 16  1  0  0  0  0
 29 26  1  1  0  0  0
 30 28  1  6  0  0  0
 30 29  1  0  0  0  0
 31 32  1  0  0  0  0
 32 33  1  0  0  0  0
 33 29  1  0  0  0  0
 34 31  1  0  0  0  0
 34 30  1  0  0  0  0
M  END
>  <MODEL>
5

>  <REMARK>
 VINA RESULT:      -8.4      2.603      5.407
  Name = 
  3 active torsions:
  status: ('A' for Active; 'I' for Inactive)
    1  A    between atoms: C_3  and  C_13
    2  A    between atoms: C_12  and  C_28
    3  A    between atoms: N_17  and  C_29
                            x       y       z     vdW  Elec       q    Type
                         _______ _______ _______ _____ _____    ______ ____

>  <TORSDO>
F 3

$$$$
=
 OpenBabel11052418543D

 34 39  0  0  1  0  0  0  0  0999 V2000
  186.4750  178.1620  146.0960 C   0  0  0  0  0  0  0  0  0  0  0  0
  185.2360  178.5470  143.9210 C   0  0  2  0  0  3  0  0  0  0  0  0
  187.5200  177.3450  144.0360 C   0  0  0  0  0  0  0  0  0  0  0  0
  188.5780  176.3560  142.1120 N   0  0  1  0  0  0  0  0  0  0  0  0
  184.0240  178.3840  146.1590 C   0  0  0  0  0  2  0  0  0  0  0  0
  184.0360  178.9970  144.7690 C   0  0  0  0  0  2  0  0  0  0  0  0
  186.4980  177.3320  141.7540 N   0  0  0  0  0  0  0  0  0  0  0  0
  186.4320  177.9990  144.6930 C   0  0  0  0  0  0  0  0  0  0  0  0
  188.2770  176.3460  140.7770 O   0  0  0  0  0  0  0  0  0  0  0  0
  185.3240  178.7460  146.8510 C   0  0  0  0  0  2  0  0  0  0  0  0
  188.6850  176.9890  144.7910 C   0  0  0  0  0  0  0  0  0  0  0  0
  187.6010  177.7880  146.8170 C   0  0  0  0  0  3  0  0  0  0  0  0
  185.6440  179.6290  143.1390 O   0  0  0  0  0  1  0  0  0  0  0  0
  189.9020  176.3100  142.6970 C   0  0  0  0  0  2  0  0  0  0  0  0
  189.8000  176.4560  144.1990 C   0  0  1  0  0  3  0  0  0  0  0  0
  187.0120  176.9160  140.6360 C   0  0  0  0  0  0  0  0  0  0  0  0
  187.4970  177.0170  142.7260 C   0  0  2  0  0  3  0  0  0  0  0  0
  188.6920  177.2270  146.1720 C   0  0  0  0  0  3  0  0  0  0  0  0
  193.3620  176.4150  145.4610 C   0  0  0  0  0  0  0  0  0  0  0  0
  193.2940  175.4160  146.4360 C   0  0  0  0  0  3  0  0  0  0  0  0
  191.0070  176.0990  144.9700 C   0  0  0  0  0  0  0  0  0  0  0  0
  192.0860  174.7620  146.6840 C   0  0  0  0  0  3  0  0  0  0  0  0
  192.2220  176.7560  144.7290 C   0  0  0  0  0  3  0  0  0  0  0  0
  190.9420  175.1010  145.9510 C   0  0  0  0  0  3  0  0  0  0  0  0
  194.8760  177.2370  145.1560 Cl  0  0  0  0  0  0  0  0  0  0  0  0
  186.7680  176.4880  138.3120 C   0  0  0  0  0  3  0  0  0  0  0  0
  186.3390  177.0630  139.3860 N   0  0  0  0  0  0  0  0  0  0  0  0
  188.1120  177.2820  135.8370 N   0  0  0  0  0  1  0  0  0  0  0  0
  186.0450  176.7040  137.0270 C   0  0  1  0  0  3  0  0  0  0  0  0
  186.9580  176.4010  135.8270 C   0  0  1  0  0  3  0  0  0  0  0  0
  185.1170  175.6460  134.5130 C   0  0  0  0  0  2  0  0  0  0  0  0
  184.1150  175.9540  135.6230 C   0  0  0  0  0  2  0  0  0  0  0  0
  184.8050  175.8120  136.9770 C   0  0  0  0  0  2  0  0  0  0  0  0
  186.2330  176.5870  134.5690 N   0  0  0  0  0  2  0  0  0  0  0  0
  1 12  1  0  0  0  0
  1 10  1  0  0  0  0
  2 13  1  1  0  0  0
  2  8  1  0  0  0  0
  2  6  1  0  0  0  0
  3  8  1  0  0  0  0
  3 11  2  0  0  0  0
  4 14  1  6  0  0  0
  4 17  1  0  0  0  0
  5 10  1  0  0  0  0
  6  5  1  0  0  0  0
  8  1  2  0  0  0  0
  9  4  1  0  0  0  0
 11 18  1  0  0  0  0
 14 15  1  0  0  0  0
 15 11  1  0  0  0  0
 15 21  1  6  0  0  0
 16  9  1  0  0  0  0
 16  7  2  0  0  0  0
 17  7  1  6  0  0  0
 17  3  1  0  0  0  0
 18 12  2  0  0  0  0
 19 20  1  0  0  0  0
 20 22  2  0  0  0  0
 21 24  2  0  0  0  0
 23 21  1  0  0  0  0
 23 19  2  0  0  0  0
 24 22  1  0  0  0  0
 25 19  1  0  0  0  0
 26 27  2  0  0  0  0
 27 16  1  0  0  0  0
 29 26  1  1  0  0  0
 30 28  1  6  0  0  0
 30 29  1  0  0  0  0
 31 34  1  0  0  0  0
 31 32  1  0  0  0  0
 32 33  1  0  0  0  0
 33 29  1  0  0  0  0
 34 30  1  0  0  0  0
M  END
>  <MODEL>
6

>  <REMARK>
 VINA RESULT:      -8.3      4.389      6.756
  Name = 
  3 active torsions:
  status: ('A' for Active; 'I' for Inactive)
    1  A    between atoms: C_3  and  C_13
    2  A    between atoms: C_12  and  C_28
    3  A    between atoms: N_17  and  C_29
                            x       y       z     vdW  Elec       q    Type
                         _______ _______ _______ _____ _____    ______ ____

>  <TORSDO>
F 3

$$$$
=
 OpenBabel11052418543D

 34 39  0  0  1  0  0  0  0  0999 V2000
  193.3780  174.4450  141.6370 C   0  0  0  0  0  0  0  0  0  0  0  0
  192.1480  175.9600  143.2510 C   0  0  2  0  0  3  0  0  0  0  0  0
  190.9290  174.4110  141.5810 C   0  0  0  0  0  0  0  0  0  0  0  0
  188.5340  174.1620  141.5310 N   0  0  1  0  0  0  0  0  0  0  0  0
  194.4940  175.0860  143.7360 C   0  0  0  0  0  2  0  0  0  0  0  0
  193.5040  176.2230  143.9240 C   0  0  0  0  0  2  0  0  0  0  0  0
  189.3880  175.5790  143.1650 N   0  0  0  0  0  0  0  0  0  0  0  0
  192.1440  174.9130  142.1410 C   0  0  0  0  0  0  0  0  0  0  0  0
  187.5120  174.7880  142.1940 O   0  0  0  0  0  0  0  0  0  0  0  0
  194.6790  174.8570  142.2490 C   0  0  0  0  0  2  0  0  0  0  0  0
  190.9860  173.5470  140.4380 C   0  0  0  0  0  0  0  0  0  0  0  0
  193.4170  173.5870  140.5460 C   0  0  0  0  0  3  0  0  0  0  0  0
  191.6710  177.1720  142.7480 O   0  0  0  0  0  1  0  0  0  0  0  0
  188.4850  173.6150  140.1910 C   0  0  0  0  0  2  0  0  0  0  0  0
  189.8560  173.1170  139.7950 C   0  0  1  0  0  3  0  0  0  0  0  0
  188.0900  175.5940  143.1740 C   0  0  0  0  0  0  0  0  0  0  0  0
  189.7120  174.6900  142.0940 C   0  0  2  0  0  3  0  0  0  0  0  0
  192.2410  173.1610  139.9480 C   0  0  0  0  0  3  0  0  0  0  0  0
  190.0990  170.0210  137.6410 C   0  0  0  0  0  0  0  0  0  0  0  0
  190.0130  170.5730  136.3600 C   0  0  0  0  0  3  0  0  0  0  0  0
  189.9100  172.2370  138.6100 C   0  0  0  0  0  0  0  0  0  0  0  0
  189.8710  171.9520  136.2000 C   0  0  0  0  0  3  0  0  0  0  0  0
  190.0480  170.8500  138.7640 C   0  0  0  0  0  3  0  0  0  0  0  0
  189.8210  172.7860  137.3240 C   0  0  0  0  0  3  0  0  0  0  0  0
  190.2720  168.2910  137.8380 Cl  0  0  0  0  0  0  0  0  0  0  0  0
  186.9740  177.5960  143.8000 C   0  0  0  0  0  3  0  0  0  0  0  0
  187.3420  176.3920  144.0910 N   0  0  0  0  0  0  0  0  0  0  0  0
  184.2050  178.4560  143.4160 N   0  0  0  0  0  1  0  0  0  0  0  0
  186.2240  178.3950  144.8090 C   0  0  1  0  0  3  0  0  0  0  0  0
  184.7160  178.1030  144.7280 C   0  0  1  0  0  3  0  0  0  0  0  0
  184.4380  178.4590  147.0700 C   0  0  0  0  0  2  0  0  0  0  0  0
  185.9120  178.8140  147.2560 C   0  0  0  0  0  2  0  0  0  0  0  0
  186.7420  178.0740  146.2110 C   0  0  0  0  0  2  0  0  0  0  0  0
  183.9880  178.8690  145.7410 N   0  0  0  0  0  2  0  0  0  0  0  0
  1  8  1  0  0  0  0
  1 10  1  0  0  0  0
  2 13  1  6  0  0  0
  2  6  1  0  0  0  0
  3  8  2  0  0  0  0
  4 14  1  6  0  0  0
  4 17  1  0  0  0  0
  4  9  1  0  0  0  0
  5  6  1  0  0  0  0
  7 16  2  0  0  0  0
  8  2  1  0  0  0  0
  9 16  1  0  0  0  0
 10  5  1  0  0  0  0
 11  3  1  0  0  0  0
 12  1  2  0  0  0  0
 15 21  1  6  0  0  0
 15 14  1  0  0  0  0
 15 11  1  0  0  0  0
 16 27  1  0  0  0  0
 17  3  1  6  0  0  0
 17  7  1  0  0  0  0
 18 11  2  0  0  0  0
 18 12  1  0  0  0  0
 19 25  1  0  0  0  0
 19 23  1  0  0  0  0
 20 19  2  0  0  0  0
 21 23  2  0  0  0  0
 22 20  1  0  0  0  0
 22 24  2  0  0  0  0
 24 21  1  0  0  0  0
 26 27  2  0  0  0  0
 29 26  1  6  0  0  0
 29 33  1  0  0  0  0
 30 28  1  6  0  0  0
 30 29  1  0  0  0  0
 30 34  1  0  0  0  0
 31 32  1  0  0  0  0
 33 32  1  0  0  0  0
 34 31  1  0  0  0  0
M  END
>  <MODEL>
7

>  <REMARK>
 VINA RESULT:      -8.2      3.639      8.641
  Name = 
  3 active torsions:
  status: ('A' for Active; 'I' for Inactive)
    1  A    between atoms: C_3  and  C_13
    2  A    between atoms: C_12  and  C_28
    3  A    between atoms: N_17  and  C_29
                            x       y       z     vdW  Elec       q    Type
                         _______ _______ _______ _____ _____    ______ ____

>  <TORSDO>
F 3

$$$$
=
 OpenBabel11052418543D

 34 39  0  0  1  0  0  0  0  0999 V2000
  194.3530  174.8200  143.7750 C   0  0  0  0  0  0  0  0  0  0  0  0
  192.6560  176.2340  145.0130 C   0  0  2  0  0  3  0  0  0  0  0  0
  192.0150  174.6760  143.0550 C   0  0  0  0  0  0  0  0  0  0  0  0
  189.7390  174.3210  142.3520 N   0  0  1  0  0  0  0  0  0  0  0  0
  194.8240  175.4550  146.1070 C   0  0  0  0  0  2  0  0  0  0  0  0
  193.7640  176.5410  146.0330 C   0  0  0  0  0  2  0  0  0  0  0  0
  190.0460  175.7310  144.1760 N   0  0  0  0  0  0  0  0  0  0  0  0
  193.0060  175.2190  143.9300 C   0  0  0  0  0  0  0  0  0  0  0  0
  188.5460  174.8820  142.7200 O   0  0  0  0  0  0  0  0  0  0  0  0
  195.4170  175.2740  144.7230 C   0  0  0  0  0  2  0  0  0  0  0  0
  192.4240  173.8470  141.9590 C   0  0  0  0  0  0  0  0  0  0  0  0
  194.7290  173.9940  142.7250 C   0  0  0  0  0  3  0  0  0  0  0  0
  192.2730  177.4370  144.4160 O   0  0  0  0  0  1  0  0  0  0  0  0
  190.0830  173.8070  141.0420 C   0  0  0  0  0  2  0  0  0  0  0  0
  191.5340  173.3830  141.0270 C   0  0  1  0  0  3  0  0  0  0  0  0
  188.7940  175.6880  143.8310 C   0  0  0  0  0  0  0  0  0  0  0  0
  190.6920  174.8870  143.2210 C   0  0  2  0  0  3  0  0  0  0  0  0
  193.7820  173.5300  141.8240 C   0  0  0  0  0  3  0  0  0  0  0  0
  192.2630  170.3440  138.9010 C   0  0  0  0  0  0  0  0  0  0  0  0
  192.7460  170.9390  137.7320 C   0  0  0  0  0  3  0  0  0  0  0  0
  191.9510  172.5380  139.8910 C   0  0  0  0  0  0  0  0  0  0  0  0
  192.8280  172.3300  137.6370 C   0  0  0  0  0  3  0  0  0  0  0  0
  191.8660  171.1410  139.9780 C   0  0  0  0  0  3  0  0  0  0  0  0
  192.4320  173.1300  138.7160 C   0  0  0  0  0  3  0  0  0  0  0  0
  192.1560  168.6020  139.0160 Cl  0  0  0  0  0  0  0  0  0  0  0  0
  187.5450  177.6660  144.2450 C   0  0  0  0  0  3  0  0  0  0  0  0
  187.7870  176.4270  144.5200 N   0  0  0  0  0  0  0  0  0  0  0  0
  185.0660  178.6550  143.0490 N   0  0  0  0  0  1  0  0  0  0  0  0
  186.5040  178.3980  145.0200 C   0  0  1  0  0  3  0  0  0  0  0  0
  185.1090  178.1670  144.4160 C   0  0  1  0  0  3  0  0  0  0  0  0
  184.0670  178.3220  146.5550 C   0  0  0  0  0  2  0  0  0  0  0  0
  185.3950  178.6060  147.2530 C   0  0  0  0  0  2  0  0  0  0  0  0
  186.5240  177.9340  146.4760 C   0  0  0  0  0  2  0  0  0  0  0  0
  184.0870  178.8650  145.1980 N   0  0  0  0  0  2  0  0  0  0  0  0
  1  8  1  0  0  0  0
  1 10  1  0  0  0  0
  2 13  1  6  0  0  0
  2  6  1  0  0  0  0
  3  8  2  0  0  0  0
  4 14  1  6  0  0  0
  4  9  1  0  0  0  0
  4 17  1  0  0  0  0
  6  5  1  0  0  0  0
  8  2  1  0  0  0  0
  9 16  1  0  0  0  0
 10  5  1  0  0  0  0
 11  3  1  0  0  0  0
 12  1  2  0  0  0  0
 15 21  1  6  0  0  0
 15 14  1  0  0  0  0
 15 11  1  0  0  0  0
 16  7  2  0  0  0  0
 16 27  1  0  0  0  0
 17  3  1  6  0  0  0
 17  7  1  0  0  0  0
 18 11  2  0  0  0  0
 18 12  1  0  0  0  0
 19 25  1  0  0  0  0
 19 23  1  0  0  0  0
 20 19  2  0  0  0  0
 21 23  2  0  0  0  0
 22 20  1  0  0  0  0
 22 24  2  0  0  0  0
 24 21  1  0  0  0  0
 26 27  2  0  0  0  0
 29 26  1  6  0  0  0
 29 33  1  0  0  0  0
 30 28  1  6  0  0  0
 30 29  1  0  0  0  0
 30 34  1  0  0  0  0
 31 32  1  0  0  0  0
 33 32  1  0  0  0  0
 34 31  1  0  0  0  0
M  END
>  <MODEL>
8

>  <REMARK>
 VINA RESULT:      -7.9      3.670      8.573
  Name = 
  3 active torsions:
  status: ('A' for Active; 'I' for Inactive)
    1  A    between atoms: C_3  and  C_13
    2  A    between atoms: C_12  and  C_28
    3  A    between atoms: N_17  and  C_29
                            x       y       z     vdW  Elec       q    Type
                         _______ _______ _______ _____ _____    ______ ____

>  <TORSDO>
F 3

$$$$
=
 OpenBabel11052418543D

 34 39  0  0  1  0  0  0  0  0999 V2000
  190.8700  176.4370  146.2200 C   0  0  0  0  0  0  0  0  0  0  0  0
  192.0960  174.6200  144.9530 C   0  0  2  0  0  3  0  0  0  0  0  0
  189.9600  175.7570  144.0490 C   0  0  0  0  0  0  0  0  0  0  0  0
  189.0540  175.2980  141.8650 N   0  0  1  0  0  0  0  0  0  0  0  0
  193.2790  176.1350  146.6290 C   0  0  0  0  0  2  0  0  0  0  0  0
  193.2220  174.7580  145.9890 C   0  0  0  0  0  2  0  0  0  0  0  0
  191.0170  174.1820  142.4210 N   0  0  0  0  0  0  0  0  0  0  0  0
  190.9560  175.6260  145.0660 C   0  0  0  0  0  0  0  0  0  0  0  0
  189.3790  174.3980  140.8850 O   0  0  0  0  0  0  0  0  0  0  0  0
  191.9340  176.4180  147.2700 C   0  0  0  0  0  2  0  0  0  0  0  0
  188.8290  176.6070  144.2780 C   0  0  0  0  0  0  0  0  0  0  0  0
  189.7800  177.2750  146.4160 C   0  0  0  0  0  3  0  0  0  0  0  0
  191.5830  173.3240  145.0420 O   0  0  0  0  0  1  0  0  0  0  0  0
  187.7340  175.8160  142.1570 C   0  0  0  0  0  2  0  0  0  0  0  0
  187.7920  176.6930  143.3860 C   0  0  1  0  0  3  0  0  0  0  0  0
  190.5740  173.7890  141.2650 C   0  0  0  0  0  0  0  0  0  0  0  0
  190.0430  175.1330  142.8550 C   0  0  2  0  0  3  0  0  0  0  0  0
  188.7710  177.3450  145.4680 C   0  0  0  0  0  3  0  0  0  0  0  0
  184.3890  178.2940  143.0160 C   0  0  0  0  0  0  0  0  0  0  0  0
  184.3980  179.2030  144.0780 C   0  0  0  0  0  3  0  0  0  0  0  0
  186.6200  177.5580  143.6230 C   0  0  0  0  0  0  0  0  0  0  0  0
  185.5110  179.2890  144.9150 C   0  0  0  0  0  3  0  0  0  0  0  0
  185.4960  177.4730  142.7890 C   0  0  0  0  0  3  0  0  0  0  0  0
  186.6230  178.4690  144.6890 C   0  0  0  0  0  3  0  0  0  0  0  0
  182.9900  178.1840  141.9710 Cl  0  0  0  0  0  0  0  0  0  0  0  0
  190.7370  171.6330  140.2800 C   0  0  0  0  0  3  0  0  0  0  0  0
  191.2480  172.8020  140.4850 N   0  0  0  0  0  0  0  0  0  0  0  0
  189.5470  170.0770  138.1070 N   0  0  0  0  0  1  0  0  0  0  0  0
  191.5000  170.6310  139.4850 C   0  0  1  0  0  3  0  0  0  0  0  0
  190.9310  170.5120  138.0610 C   0  0  1  0  0  3  0  0  0  0  0  0
  193.0810  170.0200  137.1540 C   0  0  0  0  0  2  0  0  0  0  0  0
  193.7430  170.0660  138.5290 C   0  0  0  0  0  2  0  0  0  0  0  0
  192.9740  171.0340  139.4240 C   0  0  0  0  0  2  0  0  0  0  0  0
  191.7030  169.5480  137.2760 N   0  0  0  0  0  2  0  0  0  0  0  0
  1 12  1  0  0  0  0
  1 10  1  0  0  0  0
  2 13  1  1  0  0  0
  2  8  1  0  0  0  0
  2  6  1  0  0  0  0
  3 11  2  0  0  0  0
  3  8  1  0  0  0  0
  4 14  1  1  0  0  0
  4 17  1  0  0  0  0
  5 10  1  0  0  0  0
  6  5  1  0  0  0  0
  8  1  2  0  0  0  0
  9 16  1  0  0  0  0
  9  4  1  0  0  0  0
 11 18  1  0  0  0  0
 14 15  1  0  0  0  0
 15 21  1  1  0  0  0
 15 11  1  0  0  0  0
 16  7  2  0  0  0  0
 17  7  1  1  0  0  0
 17  3  1  0  0  0  0
 18 12  2  0  0  0  0
 19 20  1  0  0  0  0
 20 22  2  0  0  0  0
 21 24  2  0  0  0  0
 23 19  2  0  0  0  0
 23 21  1  0  0  0  0
 24 22  1  0  0  0  0
 25 19  1  0  0  0  0
 26 27  2  0  0  0  0
 27 16  1  0  0  0  0
 29 26  1  1  0  0  0
 30 28  1  1  0  0  0
 30 29  1  0  0  0  0
 31 34  1  0  0  0  0
 31 32  1  0  0  0  0
 32 33  1  0  0  0  0
 33 29  1  0  0  0  0
 34 30  1  0  0  0  0
M  END
>  <MODEL>
9

>  <REMARK>
 VINA RESULT:      -7.9      1.671      1.865
  Name = 
  3 active torsions:
  status: ('A' for Active; 'I' for Inactive)
    1  A    between atoms: C_3  and  C_13
    2  A    between atoms: C_12  and  C_28
    3  A    between atoms: N_17  and  C_29
                            x       y       z     vdW  Elec       q    Type
                         _______ _______ _______ _____ _____    ______ ____

>  <TORSDO>
F 3

$$$$
