=
 OpenBabel11052417383D

 25 29  0  0  1  0  0  0  0  0999 V2000
  185.9210  176.8080  144.0610 C   0  0  1  0  0  3  0  0  0  0  0  0
  187.0290  176.3710  143.0740 C   0  0  0  0  0  0  0  0  0  0  0  0
  185.5870  178.6110  142.2160 C   0  0  0  0  0  2  0  0  0  0  0  0
  186.4730  177.2690  145.3630 C   0  0  1  0  0  3  0  0  0  0  0  0
  189.2290  175.2900  143.5940 C   0  0  0  0  0  0  0  0  0  0  0  0
  185.7500  179.6100  147.7550 O   0  0  0  0  0  0  0  0  0  0  0  0
  187.0880  178.6220  142.1220 C   0  0  0  0  0  2  0  0  0  0  0  0
  186.1180  178.4870  145.6600 C   0  0  2  0  0  3  0  0  0  0  0  0
  186.1130  178.6030  147.0930 C   0  0  0  0  0  0  0  0  0  0  0  0
  189.2860  177.5990  142.4040 C   0  0  0  0  0  0  0  0  0  0  0  0
  191.2220  178.4360  143.6900 C   0  0  0  0  0  1  0  0  0  0  0  0
  187.8930  175.2840  143.6420 C   0  0  0  0  0  3  0  0  0  0  0  0
  186.5110  177.4010  147.6520 O   0  0  0  0  0  0  0  0  0  0  0  0
  185.1160  178.0510  143.5680 C   0  0  2  0  0  3  0  0  0  0  0  0
  185.2390  179.1270  144.6580 C   0  0  0  0  0  2  0  0  0  0  0  0
  190.0440  176.3910  142.9590 C   0  0  0  0  0  0  0  0  0  0  0  0
  186.7320  176.4580  146.6030 C   0  0  0  0  0  2  0  0  0  0  0  0
  189.9230  177.6640  143.7780 C   0  0  2  0  0  3  0  0  0  0  0  0
  187.7890  177.5550  142.5250 C   0  0  0  0  0  0  0  0  0  0  0  0
  189.9610  174.1400  144.2110 C   0  0  0  0  0  2  0  0  0  0  0  0
  190.9370  174.6280  145.2710 C   0  0  0  0  0  2  0  0  0  0  0  0
  190.1920  174.9810  146.5530 C   0  0  0  0  0  2  0  0  0  0  0  0
  190.9030  176.0580  147.3670 C   0  0  0  0  0  3  0  0  0  0  0  0
  192.3250  176.2790  146.8850 C   0  0  0  0  0  1  0  0  0  0  0  0
  190.1280  177.3630  147.3580 C   0  0  0  0  0  1  0  0  0  0  0  0
  1  2  1  6  0  0  0
  1  4  1  0  0  0  0
  2 12  1  0  0  0  0
  4  8  1  0  0  0  0
  4 17  1  1  0  0  0
  5 12  2  0  0  0  0
  5 20  1  0  0  0  0
  7  3  1  0  0  0  0
  7 19  1  0  0  0  0
  8 15  1  1  0  0  0
  8  9  1  0  0  0  0
  9 13  1  0  0  0  0
  9  6  2  0  0  0  0
 10 19  1  0  0  0  0
 10 16  2  0  0  0  0
 10 18  1  0  0  0  0
 14  3  1  6  0  0  0
 14  1  1  0  0  0  0
 14 15  1  0  0  0  0
 16  5  1  0  0  0  0
 16 18  1  0  0  0  0
 17 13  1  0  0  0  0
 18 11  1  6  0  0  0
 19  2  2  0  0  0  0
 20 21  1  0  0  0  0
 21 22  1  0  0  0  0
 22 23  1  0  0  0  0
 24 23  1  0  0  0  0
 25 23  1  0  0  0  0
M  END
>  <MODEL>
1

>  <REMARK>
 VINA RESULT:      -7.6      0.000      0.000
  Name = 
  4 active torsions:
  status: ('A' for Active; 'I' for Inactive)
    1  A    between atoms: C_2  and  C_21
    2  A    between atoms: C_6  and  C_15
    3  A    between atoms: C_15  and  C_25
    4  A    between atoms: C_21  and  C_25
                            x       y       z     vdW  Elec       q    Type
                         _______ _______ _______ _____ _____    ______ ____

>  <TORSDO>
F 4

$$$$
=
 OpenBabel11052417383D

 25 29  0  0  1  0  0  0  0  0999 V2000
  186.1100  176.7080  144.0900 C   0  0  1  0  0  3  0  0  0  0  0  0
  187.2590  176.2990  143.1400 C   0  0  0  0  0  0  0  0  0  0  0  0
  185.7160  178.4270  142.1790 C   0  0  0  0  0  2  0  0  0  0  0  0
  186.6100  177.2410  145.3860 C   0  0  1  0  0  3  0  0  0  0  0  0
  189.5040  175.3580  143.7360 C   0  0  0  0  0  0  0  0  0  0  0  0
  185.7140  179.6170  147.6830 O   0  0  0  0  0  0  0  0  0  0  0  0
  187.2160  178.5170  142.1120 C   0  0  0  0  0  2  0  0  0  0  0  0
  186.1830  178.4470  145.6340 C   0  0  2  0  0  3  0  0  0  0  0  0
  186.1440  178.6100  147.0620 C   0  0  0  0  0  0  0  0  0  0  0  0
  189.4590  177.6260  142.4680 C   0  0  0  0  0  0  0  0  0  0  0  0
  191.3210  178.6100  143.7600 C   0  0  0  0  0  1  0  0  0  0  0  0
  188.1700  175.2810  143.7600 C   0  0  0  0  0  3  0  0  0  0  0  0
  186.5950  177.4510  147.6690 O   0  0  0  0  0  0  0  0  0  0  0  0
  185.2490  177.8880  143.5400 C   0  0  2  0  0  3  0  0  0  0  0  0
  185.2920  179.0040  144.5950 C   0  0  0  0  0  2  0  0  0  0  0  0
  190.2700  176.4800  143.0780 C   0  0  0  0  0  0  0  0  0  0  0  0
  186.8870  176.4870  146.6570 C   0  0  0  0  0  2  0  0  0  0  0  0
  190.0640  177.7710  143.8510 C   0  0  2  0  0  3  0  0  0  0  0  0
  187.9650  177.5040  142.5640 C   0  0  0  0  0  0  0  0  0  0  0  0
  190.2850  174.2710  144.4050 C   0  0  0  0  0  2  0  0  0  0  0  0
  191.7770  174.5570  144.3360 C   0  0  0  0  0  2  0  0  0  0  0  0
  192.3650  174.6420  145.7400 C   0  0  0  0  0  2  0  0  0  0  0  0
  192.3270  176.0570  146.3070 C   0  0  0  0  0  3  0  0  0  0  0  0
  191.4290  176.1500  147.5270 C   0  0  0  0  0  1  0  0  0  0  0  0
  193.7210  176.5620  146.6320 C   0  0  0  0  0  1  0  0  0  0  0  0
  1  2  1  6  0  0  0
  1  4  1  0  0  0  0
  2 12  1  0  0  0  0
  4  8  1  0  0  0  0
  4 17  1  1  0  0  0
  5 12  2  0  0  0  0
  5 20  1  0  0  0  0
  7  3  1  0  0  0  0
  7 19  1  0  0  0  0
  8 15  1  1  0  0  0
  8  9  1  0  0  0  0
  9 13  1  0  0  0  0
  9  6  2  0  0  0  0
 10 19  1  0  0  0  0
 10 16  2  0  0  0  0
 10 18  1  0  0  0  0
 14  3  1  6  0  0  0
 14  1  1  0  0  0  0
 14 15  1  0  0  0  0
 16  5  1  0  0  0  0
 16 18  1  0  0  0  0
 17 13  1  0  0  0  0
 18 11  1  6  0  0  0
 19  2  2  0  0  0  0
 21 20  1  0  0  0  0
 21 22  1  0  0  0  0
 22 23  1  0  0  0  0
 23 25  1  0  0  0  0
 23 24  1  0  0  0  0
M  END
>  <MODEL>
2

>  <REMARK>
 VINA RESULT:      -7.4      0.630      1.029
  Name = 
  4 active torsions:
  status: ('A' for Active; 'I' for Inactive)
    1  A    between atoms: C_2  and  C_21
    2  A    between atoms: C_6  and  C_15
    3  A    between atoms: C_15  and  C_25
    4  A    between atoms: C_21  and  C_25
                            x       y       z     vdW  Elec       q    Type
                         _______ _______ _______ _____ _____    ______ ____

>  <TORSDO>
F 4

$$$$
=
 OpenBabel11052417383D

 25 29  0  0  1  0  0  0  0  0999 V2000
  191.4540  174.9610  146.2760 C   0  0  1  0  0  3  0  0  0  0  0  0
  190.7770  176.3510  146.2910 C   0  0  0  0  0  0  0  0  0  0  0  0
  193.4300  176.4090  145.4020 C   0  0  0  0  0  2  0  0  0  0  0  0
  190.8170  174.0320  145.3040 C   0  0  1  0  0  3  0  0  0  0  0  0
  188.3620  176.9040  145.9140 C   0  0  0  0  0  0  0  0  0  0  0  0
  191.7600  171.5060  143.1940 O   0  0  0  0  0  0  0  0  0  0  0  0
  192.3810  177.1650  144.6360 C   0  0  0  0  0  2  0  0  0  0  0  0
  191.6560  173.5740  144.4180 C   0  0  2  0  0  3  0  0  0  0  0  0
  191.1760  172.2870  143.9890 C   0  0  0  0  0  0  0  0  0  0  0  0
  190.0920  177.9280  144.2670 C   0  0  0  0  0  0  0  0  0  0  0  0
  188.6690  177.6240  142.2720 C   0  0  0  0  0  1  0  0  0  0  0  0
  189.3120  176.2620  146.6010 C   0  0  0  0  0  3  0  0  0  0  0  0
  189.9880  172.0000  144.6380 O   0  0  0  0  0  0  0  0  0  0  0  0
  192.9370  175.0050  145.7890 C   0  0  2  0  0  3  0  0  0  0  0  0
  193.0420  174.0570  144.5850 C   0  0  0  0  0  2  0  0  0  0  0  0
  188.6400  177.8060  144.7360 C   0  0  0  0  0  0  0  0  0  0  0  0
  189.6920  173.0630  145.5440 C   0  0  0  0  0  2  0  0  0  0  0  0
  189.1390  176.9840  143.5600 C   0  0  2  0  0  3  0  0  0  0  0  0
  191.1090  177.1500  145.0530 C   0  0  0  0  0  0  0  0  0  0  0  0
  186.9380  176.7130  146.3330 C   0  0  0  0  0  2  0  0  0  0  0  0
  186.2050  178.0450  146.3750 C   0  0  0  0  0  2  0  0  0  0  0  0
  184.8180  177.9050  145.7580 C   0  0  0  0  0  2  0  0  0  0  0  0
  184.7270  178.5310  144.3700 C   0  0  0  0  0  3  0  0  0  0  0  0
  185.5660  179.7920  144.2660 C   0  0  0  0  0  1  0  0  0  0  0  0
  185.1170  177.5410  143.2870 C   0  0  0  0  0  1  0  0  0  0  0  0
  1  2  1  6  0  0  0
  2 12  1  0  0  0  0
  3 14  1  0  0  0  0
  4 17  1  1  0  0  0
  4  1  1  0  0  0  0
  5 20  1  0  0  0  0
  5 12  2  0  0  0  0
  6  9  2  0  0  0  0
  7 19  1  0  0  0  0
  7  3  1  0  0  0  0
  8 15  1  1  0  0  0
  8  4  1  0  0  0  0
  9  8  1  0  0  0  0
  9 13  1  0  0  0  0
 10 16  2  0  0  0  0
 10 19  1  0  0  0  0
 13 17  1  0  0  0  0
 14 15  1  6  0  0  0
 14  1  1  0  0  0  0
 16  5  1  0  0  0  0
 18 11  1  6  0  0  0
 18 10  1  0  0  0  0
 18 16  1  0  0  0  0
 19  2  2  0  0  0  0
 20 21  1  0  0  0  0
 22 21  1  0  0  0  0
 23 22  1  0  0  0  0
 24 23  1  0  0  0  0
 25 23  1  0  0  0  0
M  END
>  <MODEL>
3

>  <REMARK>
 VINA RESULT:      -7.1      2.681      6.346
  Name = 
  4 active torsions:
  status: ('A' for Active; 'I' for Inactive)
    1  A    between atoms: C_2  and  C_21
    2  A    between atoms: C_6  and  C_15
    3  A    between atoms: C_15  and  C_25
    4  A    between atoms: C_21  and  C_25
                            x       y       z     vdW  Elec       q    Type
                         _______ _______ _______ _____ _____    ______ ____

>  <TORSDO>
F 4

$$$$
=
 OpenBabel11052417383D

 25 29  0  0  1  0  0  0  0  0999 V2000
  189.2200  176.8530  142.7490 C   0  0  1  0  0  3  0  0  0  0  0  0
  189.1230  177.7810  143.9820 C   0  0  0  0  0  0  0  0  0  0  0  0
  187.1780  178.2980  142.0380 C   0  0  0  0  0  2  0  0  0  0  0  0
  188.9540  175.4290  143.0900 C   0  0  1  0  0  3  0  0  0  0  0  0
  189.7110  177.2630  146.3630 C   0  0  0  0  0  0  0  0  0  0  0  0
  187.4950  172.6900  141.6450 O   0  0  0  0  0  0  0  0  0  0  0  0
  186.7710  178.2210  143.4830 C   0  0  0  0  0  2  0  0  0  0  0  0
  187.9680  174.9220  142.4060 C   0  0  2  0  0  3  0  0  0  0  0  0
  188.1960  173.5060  142.2970 C   0  0  0  0  0  0  0  0  0  0  0  0
  187.2480  177.9210  145.8570 C   0  0  0  0  0  0  0  0  0  0  0  0
  186.2790  176.2810  147.4300 C   0  0  0  0  0  1  0  0  0  0  0  0
  190.0610  177.3650  145.0770 C   0  0  0  0  0  3  0  0  0  0  0  0
  189.3560  173.1750  142.9740 O   0  0  0  0  0  0  0  0  0  0  0  0
  188.1380  177.1570  141.6660 C   0  0  2  0  0  3  0  0  0  0  0  0
  187.3520  175.8560  141.4400 C   0  0  0  0  0  2  0  0  0  0  0  0
  188.3240  177.5550  146.8830 C   0  0  0  0  0  0  0  0  0  0  0  0
  189.9410  174.3690  143.4940 C   0  0  0  0  0  2  0  0  0  0  0  0
  187.3500  176.5030  146.3830 C   0  0  2  0  0  3  0  0  0  0  0  0
  187.6920  177.9790  144.4240 C   0  0  0  0  0  0  0  0  0  0  0  0
  190.7520  176.8270  147.3440 C   0  0  0  0  0  2  0  0  0  0  0  0
  191.0440  175.3420  147.1980 C   0  0  0  0  0  2  0  0  0  0  0  0
  192.5210  175.1200  146.8880 C   0  0  0  0  0  2  0  0  0  0  0  0
  193.0910  176.1870  145.9590 C   0  0  0  0  0  3  0  0  0  0  0  0
  194.3660  176.7950  146.5160 C   0  0  0  0  0  1  0  0  0  0  0  0
  193.3280  175.6390  144.5630 C   0  0  0  0  0  1  0  0  0  0  0  0
  1  4  1  0  0  0  0
  1  2  1  1  0  0  0
  2 19  2  0  0  0  0
  2 12  1  0  0  0  0
  3  7  1  0  0  0  0
  4 17  1  6  0  0  0
  5 16  1  0  0  0  0
  5 20  1  0  0  0  0
  6  9  2  0  0  0  0
  7 19  1  0  0  0  0
  8 15  1  6  0  0  0
  8  4  1  0  0  0  0
  9  8  1  0  0  0  0
  9 13  1  0  0  0  0
 10 18  1  0  0  0  0
 10 16  2  0  0  0  0
 12  5  2  0  0  0  0
 13 17  1  0  0  0  0
 14 15  1  1  0  0  0
 14  3  1  0  0  0  0
 14  1  1  0  0  0  0
 18 16  1  0  0  0  0
 18 11  1  1  0  0  0
 19 10  1  0  0  0  0
 21 20  1  0  0  0  0
 22 21  1  0  0  0  0
 23 24  1  0  0  0  0
 23 22  1  0  0  0  0
 25 23  1  0  0  0  0
M  END
>  <MODEL>
4

>  <REMARK>
 VINA RESULT:      -6.9      2.578      4.468
  Name = 
  4 active torsions:
  status: ('A' for Active; 'I' for Inactive)
    1  A    between atoms: C_2  and  C_21
    2  A    between atoms: C_6  and  C_15
    3  A    between atoms: C_15  and  C_25
    4  A    between atoms: C_21  and  C_25
                            x       y       z     vdW  Elec       q    Type
                         _______ _______ _______ _____ _____    ______ ____

>  <TORSDO>
F 4

$$$$
=
 OpenBabel11052417383D

 25 29  0  0  1  0  0  0  0  0999 V2000
  188.7420  177.9270  145.0710 C   0  0  1  0  0  3  0  0  0  0  0  0
  189.7300  177.0560  145.8830 C   0  0  0  0  0  0  0  0  0  0  0  0
  187.1580  177.1490  146.9810 C   0  0  0  0  0  2  0  0  0  0  0  0
  188.4860  177.3750  143.7130 C   0  0  1  0  0  3  0  0  0  0  0  0
  191.6680  175.7110  145.0370 C   0  0  0  0  0  0  0  0  0  0  0  0
  185.8870  177.1640  141.4950 O   0  0  0  0  0  0  0  0  0  0  0  0
  187.8590  175.8240  146.8620 C   0  0  0  0  0  2  0  0  0  0  0  0
  187.2230  177.1390  143.4950 C   0  0  2  0  0  3  0  0  0  0  0  0
  186.9980  177.2520  142.0790 C   0  0  0  0  0  0  0  0  0  0  0  0
  189.7650  174.4270  146.2540 C   0  0  0  0  0  0  0  0  0  0  0  0
  189.8280  172.4870  144.7250 C   0  0  0  0  0  1  0  0  0  0  0  0
  191.0420  176.8840  145.1770 C   0  0  0  0  0  3  0  0  0  0  0  0
  188.1940  177.5410  141.4450 O   0  0  0  0  0  0  0  0  0  0  0  0
  187.3140  177.9810  145.6970 C   0  0  2  0  0  3  0  0  0  0  0  0
  186.3340  177.4860  144.6230 C   0  0  0  0  0  2  0  0  0  0  0  0
  191.1360  174.4050  145.5730 C   0  0  0  0  0  0  0  0  0  0  0  0
  189.2150  177.6770  142.4330 C   0  0  0  0  0  2  0  0  0  0  0  0
  189.8910  173.9980  144.8050 C   0  0  2  0  0  3  0  0  0  0  0  0
  189.0920  175.7670  146.3440 C   0  0  0  0  0  0  0  0  0  0  0  0
  192.9700  175.6910  144.3000 C   0  0  0  0  0  2  0  0  0  0  0  0
  194.0800  176.2910  145.1490 C   0  0  0  0  0  2  0  0  0  0  0  0
  194.6110  175.2560  146.1350 C   0  0  0  0  0  2  0  0  0  0  0  0
  195.3090  174.0900  145.4420 C   0  0  0  0  0  3  0  0  0  0  0  0
  196.7150  173.8790  145.9740 C   0  0  0  0  0  1  0  0  0  0  0  0
  194.4970  172.8120  145.5570 C   0  0  0  0  0  1  0  0  0  0  0  0
  1 14  1  0  0  0  0
  1  2  1  1  0  0  0
  2 19  1  0  0  0  0
  4 17  1  6  0  0  0
  4  1  1  0  0  0  0
  5 12  1  0  0  0  0
  5 16  2  3  0  0  0
  6  9  2  0  0  0  0
  7  3  1  0  0  0  0
  8  4  1  0  0  0  0
  8 15  1  1  0  0  0
  9  8  1  0  0  0  0
 10 19  2  3  0  0  0
 12  2  2  0  0  0  0
 13  9  1  0  0  0  0
 13 17  1  0  0  0  0
 14 15  1  6  0  0  0
 14  3  1  0  0  0  0
 16 10  1  0  0  0  0
 18 11  1  1  0  0  0
 18 16  1  0  0  0  0
 18 10  1  0  0  0  0
 19  7  1  0  0  0  0
 20  5  1  0  0  0  0
 20 21  1  0  0  0  0
 21 22  1  0  0  0  0
 23 25  1  0  0  0  0
 23 24  1  0  0  0  0
 23 22  1  0  0  0  0
M  END
>  <MODEL>
5

>  <REMARK>
 VINA RESULT:      -6.9      2.697      4.576
  Name = 
  4 active torsions:
  status: ('A' for Active; 'I' for Inactive)
    1  A    between atoms: C_2  and  C_21
    2  A    between atoms: C_6  and  C_15
    3  A    between atoms: C_15  and  C_25
    4  A    between atoms: C_21  and  C_25
                            x       y       z     vdW  Elec       q    Type
                         _______ _______ _______ _____ _____    ______ ____

>  <TORSDO>
F 4

$$$$
=
 OpenBabel11052417383D

 25 29  0  0  1  0  0  0  0  0999 V2000
  188.8260  177.9160  144.7290 C   0  0  1  0  0  3  0  0  0  0  0  0
  189.9620  176.9790  145.2020 C   0  0  0  0  0  0  0  0  0  0  0  0
  187.7280  176.9680  146.8880 C   0  0  0  0  0  2  0  0  0  0  0  0
  188.2420  177.4870  143.4300 C   0  0  1  0  0  3  0  0  0  0  0  0
  191.6150  175.7180  143.8030 C   0  0  0  0  0  0  0  0  0  0  0  0
  185.1850  177.4700  141.8890 O   0  0  0  0  0  0  0  0  0  0  0  0
  188.3550  175.6610  146.4900 C   0  0  0  0  0  2  0  0  0  0  0  0
  186.9590  177.2690  143.5000 C   0  0  2  0  0  3  0  0  0  0  0  0
  186.4050  177.5070  142.1950 C   0  0  0  0  0  0  0  0  0  0  0  0
  190.0320  174.3270  145.3230 C   0  0  0  0  0  0  0  0  0  0  0  0
  189.6910  172.5320  143.6610 C   0  0  0  0  0  1  0  0  0  0  0  0
  191.0640  176.8730  144.1910 C   0  0  0  0  0  3  0  0  0  0  0  0
  187.4200  177.8540  141.3210 O   0  0  0  0  0  0  0  0  0  0  0  0
  187.5890  177.9110  145.6820 C   0  0  2  0  0  3  0  0  0  0  0  0
  186.3720  177.5120  144.8340 C   0  0  0  0  0  2  0  0  0  0  0  0
  191.2010  174.3680  144.3350 C   0  0  0  0  0  0  0  0  0  0  0  0
  188.6510  177.9040  142.0440 C   0  0  0  0  0  2  0  0  0  0  0  0
  189.8000  174.0290  143.8550 C   0  0  2  0  0  3  0  0  0  0  0  0
  189.4270  175.6520  145.6880 C   0  0  0  0  0  0  0  0  0  0  0  0
  192.7030  175.7660  142.7770 C   0  0  0  0  0  2  0  0  0  0  0  0
  193.9730  175.1200  143.3060 C   0  0  0  0  0  2  0  0  0  0  0  0
  194.7760  176.1240  144.1270 C   0  0  0  0  0  2  0  0  0  0  0  0
  194.9370  175.6960  145.5820 C   0  0  0  0  0  3  0  0  0  0  0  0
  194.0770  176.5320  146.5130 C   0  0  0  0  0  1  0  0  0  0  0  0
  194.6380  174.2190  145.7630 C   0  0  0  0  0  1  0  0  0  0  0  0
  1  2  1  1  0  0  0
  1 14  1  0  0  0  0
  2 19  1  0  0  0  0
  4 17  1  6  0  0  0
  4  8  1  0  0  0  0
  4  1  1  0  0  0  0
  5 12  1  0  0  0  0
  5 16  2  3  0  0  0
  6  9  2  0  0  0  0
  7  3  1  0  0  0  0
  8 15  1  1  0  0  0
  9  8  1  0  0  0  0
 10 19  2  3  0  0  0
 12  2  2  0  0  0  0
 13 17  1  0  0  0  0
 13  9  1  0  0  0  0
 14 15  1  6  0  0  0
 14  3  1  0  0  0  0
 16 10  1  0  0  0  0
 18 11  1  1  0  0  0
 18 16  1  0  0  0  0
 18 10  1  0  0  0  0
 19  7  1  0  0  0  0
 20 21  1  0  0  0  0
 20  5  1  0  0  0  0
 21 22  1  0  0  0  0
 22 23  1  0  0  0  0
 23 25  1  0  0  0  0
 23 24  1  0  0  0  0
M  END
>  <MODEL>
6

>  <REMARK>
 VINA RESULT:      -6.8      2.544      4.312
  Name = 
  4 active torsions:
  status: ('A' for Active; 'I' for Inactive)
    1  A    between atoms: C_2  and  C_21
    2  A    between atoms: C_6  and  C_15
    3  A    between atoms: C_15  and  C_25
    4  A    between atoms: C_21  and  C_25
                            x       y       z     vdW  Elec       q    Type
                         _______ _______ _______ _____ _____    ______ ____

>  <TORSDO>
F 4

$$$$
=
 OpenBabel11052417383D

 25 29  0  0  1  0  0  0  0  0999 V2000
  185.9450  176.7800  144.0920 C   0  0  1  0  0  3  0  0  0  0  0  0
  187.0510  176.3390  143.1040 C   0  0  0  0  0  0  0  0  0  0  0  0
  185.5570  178.5300  142.2070 C   0  0  0  0  0  2  0  0  0  0  0  0
  186.5010  177.2840  145.3760 C   0  0  1  0  0  3  0  0  0  0  0  0
  189.2770  175.3140  143.6260 C   0  0  0  0  0  0  0  0  0  0  0  0
  185.7590  179.6690  147.7170 O   0  0  0  0  0  0  0  0  0  0  0  0
  187.0560  178.5670  142.0960 C   0  0  0  0  0  2  0  0  0  0  0  0
  186.1260  178.5020  145.6460 C   0  0  2  0  0  3  0  0  0  0  0  0
  186.1340  178.6530  147.0770 C   0  0  0  0  0  0  0  0  0  0  0  0
  189.2760  177.5940  142.3790 C   0  0  0  0  0  0  0  0  0  0  0  0
  191.2090  178.4990  143.6230 C   0  0  0  0  0  1  0  0  0  0  0  0
  187.9420  175.2840  143.6890 C   0  0  0  0  0  3  0  0  0  0  0  0
  186.5610  177.4730  147.6610 O   0  0  0  0  0  0  0  0  0  0  0  0
  185.1110  177.9950  143.5770 C   0  0  2  0  0  3  0  0  0  0  0  0
  185.2250  179.0990  144.6390 C   0  0  0  0  0  2  0  0  0  0  0  0
  190.0630  176.4140  142.9550 C   0  0  0  0  0  0  0  0  0  0  0  0
  186.7890  176.5090  146.6330 C   0  0  0  0  0  2  0  0  0  0  0  0
  189.9260  177.7040  143.7450 C   0  0  2  0  0  3  0  0  0  0  0  0
  187.7820  177.5240  142.5170 C   0  0  0  0  0  0  0  0  0  0  0  0
  190.0370  174.1940  144.2630 C   0  0  0  0  0  2  0  0  0  0  0  0
  190.8200  173.4110  143.2200 C   0  0  0  0  0  2  0  0  0  0  0  0
  189.9210  172.3780  142.5500 C   0  0  0  0  0  2  0  0  0  0  0  0
  189.7520  172.6290  141.0540 C   0  0  0  0  0  3  0  0  0  0  0  0
  188.3400  173.0690  140.7140 C   0  0  0  0  0  1  0  0  0  0  0  0
  190.7630  173.6410  140.5450 C   0  0  0  0  0  1  0  0  0  0  0  0
  1  2  1  6  0  0  0
  1  4  1  0  0  0  0
  2 12  1  0  0  0  0
  4  8  1  0  0  0  0
  4 17  1  1  0  0  0
  5 12  2  0  0  0  0
  5 20  1  0  0  0  0
  7  3  1  0  0  0  0
  7 19  1  0  0  0  0
  8 15  1  1  0  0  0
  8  9  1  0  0  0  0
  9 13  1  0  0  0  0
  9  6  2  0  0  0  0
 10 19  1  0  0  0  0
 10 16  2  0  0  0  0
 10 18  1  0  0  0  0
 14  3  1  6  0  0  0
 14  1  1  0  0  0  0
 14 15  1  0  0  0  0
 16  5  1  0  0  0  0
 16 18  1  0  0  0  0
 17 13  1  0  0  0  0
 18 11  1  6  0  0  0
 19  2  2  0  0  0  0
 21 20  1  0  0  0  0
 22 21  1  0  0  0  0
 23 22  1  0  0  0  0
 24 23  1  0  0  0  0
 25 23  1  0  0  0  0
M  END
>  <MODEL>
7

>  <REMARK>
 VINA RESULT:      -6.8      1.424      2.874
  Name = 
  4 active torsions:
  status: ('A' for Active; 'I' for Inactive)
    1  A    between atoms: C_2  and  C_21
    2  A    between atoms: C_6  and  C_15
    3  A    between atoms: C_15  and  C_25
    4  A    between atoms: C_21  and  C_25
                            x       y       z     vdW  Elec       q    Type
                         _______ _______ _______ _____ _____    ______ ____

>  <TORSDO>
F 4

$$$$
=
 OpenBabel11052417383D

 25 29  0  0  1  0  0  0  0  0999 V2000
  189.2090  177.2260  142.7380 C   0  0  1  0  0  3  0  0  0  0  0  0
  189.5660  177.7100  144.1620 C   0  0  0  0  0  0  0  0  0  0  0  0
  186.8810  178.1160  143.4820 C   0  0  0  0  0  2  0  0  0  0  0  0
  189.3520  175.7520  142.5880 C   0  0  1  0  0  3  0  0  0  0  0  0
  191.2750  176.7720  145.7370 C   0  0  0  0  0  0  0  0  0  0  0  0
  187.8160  173.1970  140.9050 O   0  0  0  0  0  0  0  0  0  0  0  0
  187.2190  177.5300  144.8250 C   0  0  0  0  0  2  0  0  0  0  0  0
  188.2490  175.1740  142.2060 C   0  0  2  0  0  3  0  0  0  0  0  0
  188.6100  173.9790  141.4890 C   0  0  0  0  0  0  0  0  0  0  0  0
  188.7970  176.7590  146.5200 C   0  0  0  0  0  0  0  0  0  0  0  0
  188.9410  174.5410  147.5960 C   0  0  0  0  0  1  0  0  0  0  0  0
  190.9580  177.3200  144.5590 C   0  0  0  0  0  3  0  0  0  0  0  0
  189.9870  173.8470  141.4810 O   0  0  0  0  0  0  0  0  0  0  0  0
  187.7120  177.4660  142.3640 C   0  0  2  0  0  3  0  0  0  0  0  0
  187.1190  176.1000  141.9880 C   0  0  0  0  0  2  0  0  0  0  0  0
  190.2700  176.4760  146.8240 C   0  0  0  0  0  0  0  0  0  0  0  0
  190.5600  174.9760  142.1420 C   0  0  0  0  0  2  0  0  0  0  0  0
  189.3460  175.3530  146.3840 C   0  0  2  0  0  3  0  0  0  0  0  0
  188.4990  177.3350  145.1650 C   0  0  0  0  0  0  0  0  0  0  0  0
  192.7080  176.4260  145.9910 C   0  0  0  0  0  2  0  0  0  0  0  0
  193.1670  175.3140  145.0600 C   0  0  0  0  0  2  0  0  0  0  0  0
  193.0750  173.9640  145.7630 C   0  0  0  0  0  2  0  0  0  0  0  0
  192.7310  172.8270  144.8050 C   0  0  0  0  0  3  0  0  0  0  0  0
  191.2300  172.6670  144.6380 C   0  0  0  0  0  1  0  0  0  0  0  0
  193.4000  173.0160  143.4560 C   0  0  0  0  0  1  0  0  0  0  0  0
  1  2  1  1  0  0  0
  2 12  2  0  0  0  0
  2 19  1  0  0  0  0
  3  7  1  0  0  0  0
  4 17  1  6  0  0  0
  4  1  1  0  0  0  0
  5 20  1  0  0  0  0
  5 16  2  3  0  0  0
  6  9  2  0  0  0  0
  7 19  1  0  0  0  0
  8 15  1  6  0  0  0
  8  4  1  0  0  0  0
  9  8  1  0  0  0  0
 10 16  1  0  0  0  0
 12  5  1  0  0  0  0
 13  9  1  0  0  0  0
 13 17  1  0  0  0  0
 14 15  1  1  0  0  0
 14  1  1  0  0  0  0
 14  3  1  0  0  0  0
 18 10  1  0  0  0  0
 18 16  1  0  0  0  0
 18 11  1  1  0  0  0
 19 10  2  3  0  0  0
 21 22  1  0  0  0  0
 21 20  1  0  0  0  0
 23 22  1  0  0  0  0
 24 23  1  0  0  0  0
 25 23  1  0  0  0  0
M  END
>  <MODEL>
8

>  <REMARK>
 VINA RESULT:      -6.6      2.869      4.853
  Name = 
  4 active torsions:
  status: ('A' for Active; 'I' for Inactive)
    1  A    between atoms: C_2  and  C_21
    2  A    between atoms: C_6  and  C_15
    3  A    between atoms: C_15  and  C_25
    4  A    between atoms: C_21  and  C_25
                            x       y       z     vdW  Elec       q    Type
                         _______ _______ _______ _____ _____    ______ ____

>  <TORSDO>
F 4

$$$$
=
 OpenBabel11052417383D

 25 29  0  0  1  0  0  0  0  0999 V2000
  189.9830  177.1840  144.4370 C   0  0  1  0  0  3  0  0  0  0  0  0
  189.8030  177.0660  142.9050 C   0  0  0  0  0  0  0  0  0  0  0  0
  192.2200  176.0030  143.8320 C   0  0  0  0  0  2  0  0  0  0  0  0
  188.9790  176.3830  145.1880 C   0  0  1  0  0  3  0  0  0  0  0  0
  187.6760  176.7820  141.6110 C   0  0  0  0  0  0  0  0  0  0  0  0
  188.8170  174.5560  148.0780 O   0  0  0  0  0  0  0  0  0  0  0  0
  191.4020  175.2170  142.8460 C   0  0  0  0  0  2  0  0  0  0  0  0
  189.5230  175.5100  145.9860 C   0  0  2  0  0  3  0  0  0  0  0  0
  188.6070  175.2810  147.0710 C   0  0  0  0  0  0  0  0  0  0  0  0
  189.4630  174.9070  141.3970 C   0  0  0  0  0  0  0  0  0  0  0  0
  187.8160  173.0660  141.3990 C   0  0  0  0  0  1  0  0  0  0  0  0
  188.4310  177.4810  142.4650 C   0  0  0  0  0  3  0  0  0  0  0  0
  187.4660  176.0380  146.8760 O   0  0  0  0  0  0  0  0  0  0  0  0
  191.3390  176.5980  144.9430 C   0  0  2  0  0  3  0  0  0  0  0  0
  191.0010  175.5210  145.9840 C   0  0  0  0  0  2  0  0  0  0  0  0
  188.1080  175.4820  140.9760 C   0  0  0  0  0  0  0  0  0  0  0  0
  187.6300  176.8190  145.6920 C   0  0  0  0  0  2  0  0  0  0  0  0
  188.1850  174.3910  142.0300 C   0  0  2  0  0  3  0  0  0  0  0  0
  190.2460  175.7160  142.3910 C   0  0  0  0  0  0  0  0  0  0  0  0
  186.3210  177.3150  141.2690 C   0  0  0  0  0  2  0  0  0  0  0  0
  185.9320  178.4440  142.2100 C   0  0  0  0  0  2  0  0  0  0  0  0
  184.8670  177.9700  143.1940 C   0  0  0  0  0  2  0  0  0  0  0  0
  184.5420  179.0160  144.2560 C   0  0  0  0  0  3  0  0  0  0  0  0
  184.4190  178.3970  145.6360 C   0  0  0  0  0  1  0  0  0  0  0  0
  185.5670  180.1360  144.2630 C   0  0  0  0  0  1  0  0  0  0  0  0
  1  2  1  6  0  0  0
  1 14  1  0  0  0  0
  1  4  1  0  0  0  0
  4 17  1  1  0  0  0
  4  8  1  0  0  0  0
  5 12  2  0  0  0  0
  7  3  1  0  0  0  0
  8 15  1  1  0  0  0
  8  9  1  0  0  0  0
  9  6  2  0  0  0  0
 10 18  1  0  0  0  0
 10 19  1  0  0  0  0
 12  2  1  0  0  0  0
 13  9  1  0  0  0  0
 14  3  1  6  0  0  0
 14 15  1  0  0  0  0
 16 10  2  0  0  0  0
 16  5  1  0  0  0  0
 16 18  1  0  0  0  0
 17 13  1  0  0  0  0
 18 11  1  6  0  0  0
 19  7  1  0  0  0  0
 19  2  2  0  0  0  0
 20  5  1  0  0  0  0
 20 21  1  0  0  0  0
 21 22  1  0  0  0  0
 22 23  1  0  0  0  0
 23 25  1  0  0  0  0
 23 24  1  0  0  0  0
M  END
>  <MODEL>
9

>  <REMARK>
 VINA RESULT:      -6.6      1.752      5.230
  Name = 
  4 active torsions:
  status: ('A' for Active; 'I' for Inactive)
    1  A    between atoms: C_2  and  C_21
    2  A    between atoms: C_6  and  C_15
    3  A    between atoms: C_15  and  C_25
    4  A    between atoms: C_21  and  C_25
                            x       y       z     vdW  Elec       q    Type
                         _______ _______ _______ _____ _____    ______ ____

>  <TORSDO>
F 4

$$$$
