=
 OpenBabel11052420313D

 34 38  0  0  1  0  0  0  0  0999 V2000
  187.9810  177.5420  143.8460 C   0  0  0  0  0  0  0  0  0  0  0  0
  188.7280  176.9120  146.5950 C   0  0  0  0  0  2  0  0  0  0  0  0
  189.2480  177.2500  144.1510 C   0  0  0  0  0  3  0  0  0  0  0  0
  187.2600  177.1970  146.2300 C   0  0  1  0  0  3  0  0  0  0  0  0
  185.2860  178.6230  147.0370 C   0  0  0  0  0  2  0  0  0  0  0  0
  186.5210  177.8020  147.4290 C   0  0  0  0  0  2  0  0  0  0  0  0
  189.7420  177.4320  145.5600 C   0  0  2  0  0  3  0  0  0  0  0  0
  185.6100  178.2350  144.5670 C   0  0  0  0  0  2  0  0  0  0  0  0
  187.0880  178.0510  144.9570 C   0  0  2  0  0  3  0  0  0  0  0  0
  184.6510  178.0940  145.7540 C   0  0  0  0  0  2  0  0  0  0  0  0
  192.7750  175.8090  147.1890 C   0  0  0  0  0  3  0  0  0  0  0  0
  191.9270  176.6420  144.6470 C   0  0  0  0  0  3  0  0  0  0  0  0
  195.6800  174.8890  145.1790 C   0  0  0  0  0  0  0  0  0  0  0  0
  194.8390  175.0700  146.2350 N   0  0  0  0  0  0  0  0  0  0  0  0
  193.6130  175.6390  146.0840 C   0  0  0  0  0  0  0  0  0  0  0  0
  194.0330  175.8850  143.7130 C   0  0  0  0  0  3  0  0  0  0  0  0
  193.1870  176.0610  144.8060 C   0  0  0  0  0  0  0  0  0  0  0  0
  195.2850  175.2960  143.8960 C   0  0  0  0  0  3  0  0  0  0  0  0
  191.0860  176.8100  145.7540 C   0  0  0  0  0  0  0  0  0  0  0  0
  191.5160  176.3940  147.0250 C   0  0  0  0  0  3  0  0  0  0  0  0
  197.9410  174.4740  144.5910 O   0  0  0  0  0  0  0  0  0  0  0  0
  196.9930  174.2620  145.3920 C   0  0  0  0  0  0  0  0  0  0  0  0
  197.1910  173.4160  146.4770 O   0  0  0  0  0  1  0  0  0  0  0  0
  187.3380  175.9000  140.3140 C   0  0  0  0  0  2  0  0  0  0  0  0
  188.8270  175.3930  142.1070 O   0  0  0  0  0  0  0  0  0  0  0  0
  186.5680  177.0660  139.7460 C   0  0  0  0  0  0  0  0  0  0  0  0
  186.2700  178.1360  140.4980 C   0  0  0  0  0  3  0  0  0  0  0  0
  187.9500  176.1790  141.6590 C   0  0  0  0  0  0  0  0  0  0  0  0
  186.7280  178.2660  141.8920 C   0  0  0  0  0  3  0  0  0  0  0  0
  187.5110  177.3440  142.4590 C   0  0  0  0  0  0  0  0  0  0  0  0
  186.5710  176.0410  137.3890 C   0  0  0  0  0  0  0  0  0  0  0  0
  186.0250  176.0920  136.1140 O   0  0  0  0  0  0  0  0  0  0  0  0
  187.4560  175.1830  137.6480 O   0  0  0  0  0  1  0  0  0  0  0  0
  186.1130  176.9620  138.3890 N   0  0  0  0  0  2  0  0  0  0  0  0
  1  3  2  0  0  0  0
  1  9  1  0  0  0  0
  3  7  1  0  0  0  0
  4  2  1  1  0  0  0
  4  6  1  0  0  0  0
  5  6  1  0  0  0  0
  7 19  1  6  0  0  0
  7  2  1  0  0  0  0
  8 10  1  0  0  0  0
  9  8  1  6  0  0  0
  9  4  1  0  0  0  0
 10  5  1  0  0  0  0
 12 17  2  0  0  0  0
 12 19  1  0  0  0  0
 13 22  1  0  0  0  0
 13 14  2  0  0  0  0
 15 14  1  0  0  0  0
 15 11  2  0  0  0  0
 16 18  2  0  0  0  0
 16 17  1  0  0  0  0
 17 15  1  0  0  0  0
 18 13  1  0  0  0  0
 19 20  2  0  0  0  0
 20 11  1  0  0  0  0
 21 22  2  0  0  0  0
 22 23  1  0  0  0  0
 24 28  1  0  0  0  0
 26 24  1  0  0  0  0
 26 27  2  0  0  0  0
 27 29  1  0  0  0  0
 28 25  2  0  0  0  0
 28 30  1  0  0  0  0
 29 30  2  0  0  0  0
 30  1  1  0  0  0  0
 31 33  1  0  0  0  0
 31 34  1  0  0  0  0
 32 31  2  0  0  0  0
 34 26  1  0  0  0  0
M  END
>  <MODEL>
1

>  <REMARK>
 VINA RESULT:      -9.5      0.000      0.000
  Name = 
  4 active torsions:
  status: ('A' for Active; 'I' for Inactive)
    1  A    between atoms: C_1  and  C_34
    2  A    between atoms: CA_7  and  C_15
    3  A    between atoms: C_18  and  C_30
    4  A    between atoms: C_23  and  N_25
                            x       y       z     vdW  Elec       q    Type
                         _______ _______ _______ _____ _____    ______ ____

>  <TORSDO>
F 4

$$$$
=
 OpenBabel11052420313D

 34 38  0  0  1  0  0  0  0  0999 V2000
  190.6490  176.5070  143.8570 C   0  0  0  0  0  0  0  0  0  0  0  0
  193.1080  175.1310  144.6180 C   0  0  0  0  0  2  0  0  0  0  0  0
  191.7070  176.5140  143.0420 C   0  0  0  0  0  3  0  0  0  0  0  0
  191.8690  175.0820  145.5320 C   0  0  1  0  0  3  0  0  0  0  0  0
  191.2420  175.4330  147.9940 C   0  0  0  0  0  2  0  0  0  0  0  0
  192.2950  174.9340  146.9970 C   0  0  0  0  0  2  0  0  0  0  0  0
  193.0850  176.2840  143.5980 C   0  0  2  0  0  3  0  0  0  0  0  0
  189.6260  176.1310  146.1890 C   0  0  0  0  0  2  0  0  0  0  0  0
  190.8970  176.2620  145.3310 C   0  0  2  0  0  3  0  0  0  0  0  0
  189.8290  175.2690  147.4400 C   0  0  0  0  0  2  0  0  0  0  0  0
  196.3750  176.1020  141.6920 C   0  0  0  0  0  3  0  0  0  0  0  0
  193.6470  175.6110  141.2600 C   0  0  0  0  0  3  0  0  0  0  0  0
  196.4390  174.9870  138.2170 C   0  0  0  0  0  0  0  0  0  0  0  0
  196.8310  175.4350  139.4430 N   0  0  0  0  0  0  0  0  0  0  0  0
  195.9380  175.6450  140.4470 C   0  0  0  0  0  0  0  0  0  0  0  0
  194.1430  174.9420  138.9830 C   0  0  0  0  0  3  0  0  0  0  0  0
  194.5650  175.4000  140.2300 C   0  0  0  0  0  0  0  0  0  0  0  0
  195.0820  174.7340  137.9700 C   0  0  0  0  0  3  0  0  0  0  0  0
  194.0850  176.0670  142.5090 C   0  0  0  0  0  0  0  0  0  0  0  0
  195.4520  176.3150  142.7200 C   0  0  0  0  0  3  0  0  0  0  0  0
  197.8490  175.7290  136.4590 O   0  0  0  0  0  0  0  0  0  0  0  0
  197.4430  174.7690  137.1650 C   0  0  0  0  0  0  0  0  0  0  0  0
  197.9410  173.4920  136.9350 O   0  0  0  0  0  1  0  0  0  0  0  0
  186.9780  175.8220  142.5800 C   0  0  0  0  0  2  0  0  0  0  0  0
  188.8150  174.3990  143.1190 O   0  0  0  0  0  0  0  0  0  0  0  0
  186.7030  177.2410  142.1490 C   0  0  0  0  0  0  0  0  0  0  0  0
  187.5940  178.2190  142.3660 C   0  0  0  0  0  3  0  0  0  0  0  0
  188.4030  175.5840  142.9990 C   0  0  0  0  0  0  0  0  0  0  0  0
  188.9100  177.9590  142.9750 C   0  0  0  0  0  3  0  0  0  0  0  0
  189.3010  176.7220  143.2910 C   0  0  0  0  0  0  0  0  0  0  0  0
  184.2460  177.9940  142.2130 C   0  0  0  0  0  0  0  0  0  0  0  0
  183.0870  178.1930  141.4750 O   0  0  0  0  0  0  0  0  0  0  0  0
  184.2420  178.2390  143.4480 O   0  0  0  0  0  1  0  0  0  0  0  0
  185.4270  177.5170  141.5520 N   0  0  0  0  0  2  0  0  0  0  0  0
  1  9  1  0  0  0  0
  3  7  1  0  0  0  0
  3  1  2  0  0  0  0
  4  2  1  6  0  0  0
  4  6  1  0  0  0  0
  6  5  1  0  0  0  0
  7 19  1  6  0  0  0
  7  2  1  0  0  0  0
  8 10  1  0  0  0  0
  9  4  1  0  0  0  0
  9  8  1  1  0  0  0
 10  5  1  0  0  0  0
 11 20  1  0  0  0  0
 12 19  1  0  0  0  0
 13 14  2  0  0  0  0
 14 15  1  0  0  0  0
 15 11  2  0  0  0  0
 16 17  1  0  0  0  0
 17 15  1  0  0  0  0
 17 12  2  0  0  0  0
 18 13  1  0  0  0  0
 18 16  2  0  0  0  0
 19 20  2  0  0  0  0
 21 22  2  0  0  0  0
 22 13  1  0  0  0  0
 23 22  1  0  0  0  0
 24 28  1  0  0  0  0
 26 27  2  0  0  0  0
 26 24  1  0  0  0  0
 27 29  1  0  0  0  0
 28 25  2  0  0  0  0
 28 30  1  0  0  0  0
 29 30  2  0  0  0  0
 30  1  1  0  0  0  0
 31 33  1  0  0  0  0
 32 31  2  0  0  0  0
 34 26  1  0  0  0  0
 34 31  1  0  0  0  0
M  END
>  <MODEL>
2

>  <REMARK>
 VINA RESULT:      -9.3      3.763      5.369
  Name = 
  4 active torsions:
  status: ('A' for Active; 'I' for Inactive)
    1  A    between atoms: C_1  and  C_34
    2  A    between atoms: CA_7  and  C_15
    3  A    between atoms: C_18  and  C_30
    4  A    between atoms: C_23  and  N_25
                            x       y       z     vdW  Elec       q    Type
                         _______ _______ _______ _____ _____    ______ ____

>  <TORSDO>
F 4

$$$$
=
 OpenBabel11052420313D

 34 38  0  0  1  0  0  0  0  0999 V2000
  192.7530  173.6280  143.5170 C   0  0  0  0  0  0  0  0  0  0  0  0
  192.7510  175.4100  145.8280 C   0  0  0  0  0  2  0  0  0  0  0  0
  191.6010  174.0130  144.0730 C   0  0  0  0  0  3  0  0  0  0  0  0
  194.0760  175.0060  145.1530 C   0  0  1  0  0  3  0  0  0  0  0  0
  196.3950  174.1090  145.7810 C   0  0  0  0  0  2  0  0  0  0  0  0
  195.2160  175.0060  146.1770 C   0  0  0  0  0  2  0  0  0  0  0  0
  191.5740  174.4730  145.5040 C   0  0  2  0  0  3  0  0  0  0  0  0
  195.3100  173.3520  143.6340 C   0  0  0  0  0  2  0  0  0  0  0  0
  194.0000  173.6770  144.3760 C   0  0  2  0  0  3  0  0  0  0  0  0
  196.5390  174.0160  144.2640 C   0  0  0  0  0  2  0  0  0  0  0  0
  188.3480  175.3380  147.3300 C   0  0  0  0  0  3  0  0  0  0  0  0
  189.7270  176.0750  144.9990 C   0  0  0  0  0  3  0  0  0  0  0  0
  186.0750  177.8520  145.9740 C   0  0  0  0  0  0  0  0  0  0  0  0
  186.6240  176.9010  146.7790 N   0  0  0  0  0  0  0  0  0  0  0  0
  187.8120  176.3090  146.4800 C   0  0  0  0  0  0  0  0  0  0  0  0
  187.9590  177.6480  144.4690 C   0  0  0  0  0  3  0  0  0  0  0  0
  188.5050  176.6770  145.3070 C   0  0  0  0  0  0  0  0  0  0  0  0
  186.7390  178.2400  144.8010 C   0  0  0  0  0  3  0  0  0  0  0  0
  190.2650  175.1030  145.8510 C   0  0  0  0  0  0  0  0  0  0  0  0
  189.5690  174.7350  147.0160 C   0  0  0  0  0  3  0  0  0  0  0  0
  184.4420  178.5430  147.5510 O   0  0  0  0  0  1  0  0  0  0  0  0
  184.7910  178.4670  146.3430 C   0  0  0  0  0  0  0  0  0  0  0  0
  183.9460  178.9580  145.3550 O   0  0  0  0  0  0  0  0  0  0  0  0
  193.2870  173.6320  139.6060 C   0  0  0  0  0  2  0  0  0  0  0  0
  193.3120  175.3490  141.2620 O   0  0  0  0  0  0  0  0  0  0  0  0
  192.7120  172.2560  139.3760 C   0  0  0  0  0  0  0  0  0  0  0  0
  192.3250  171.4840  140.4020 C   0  0  0  0  0  3  0  0  0  0  0  0
  193.1200  174.1270  141.0170 C   0  0  0  0  0  0  0  0  0  0  0  0
  192.3770  171.9510  141.7980 C   0  0  0  0  0  3  0  0  0  0  0  0
  192.7620  173.1920  142.1050 C   0  0  0  0  0  0  0  0  0  0  0  0
  191.5470  171.8910  137.1150 C   0  0  0  0  0  0  0  0  0  0  0  0
  191.6600  171.3580  135.8380 O   0  0  0  0  0  0  0  0  0  0  0  0
  190.4790  172.4680  137.4520 O   0  0  0  0  0  1  0  0  0  0  0  0
  192.6510  171.7810  138.0230 N   0  0  0  0  0  2  0  0  0  0  0  0
  1  3  2  0  0  0  0
  1  9  1  0  0  0  0
  3  7  1  0  0  0  0
  4  2  1  1  0  0  0
  4  6  1  0  0  0  0
  5  6  1  0  0  0  0
  7  2  1  0  0  0  0
  7 19  1  6  0  0  0
  8 10  1  0  0  0  0
  9  8  1  6  0  0  0
  9  4  1  0  0  0  0
 10  5  1  0  0  0  0
 12 17  2  0  0  0  0
 12 19  1  0  0  0  0
 13 22  1  0  0  0  0
 13 14  2  0  0  0  0
 15 14  1  0  0  0  0
 15 11  2  0  0  0  0
 16 18  2  0  0  0  0
 16 17  1  0  0  0  0
 17 15  1  0  0  0  0
 18 13  1  0  0  0  0
 19 20  2  0  0  0  0
 20 11  1  0  0  0  0
 22 21  1  0  0  0  0
 23 22  2  0  0  0  0
 24 28  1  0  0  0  0
 26 24  1  0  0  0  0
 26 27  2  0  0  0  0
 27 29  1  0  0  0  0
 28 25  2  0  0  0  0
 28 30  1  0  0  0  0
 29 30  2  0  0  0  0
 30  1  1  0  0  0  0
 31 33  1  0  0  0  0
 31 34  1  0  0  0  0
 32 31  2  0  0  0  0
 34 26  1  0  0  0  0
M  END
>  <MODEL>
3

>  <REMARK>
 VINA RESULT:      -9.1      4.019      8.079
  Name = 
  4 active torsions:
  status: ('A' for Active; 'I' for Inactive)
    1  A    between atoms: C_1  and  C_34
    2  A    between atoms: CA_7  and  C_15
    3  A    between atoms: C_18  and  C_30
    4  A    between atoms: C_23  and  N_25
                            x       y       z     vdW  Elec       q    Type
                         _______ _______ _______ _____ _____    ______ ____

>  <TORSDO>
F 4

$$$$
=
 OpenBabel11052420313D

 34 38  0  0  1  0  0  0  0  0999 V2000
  192.4870  172.9670  144.1480 C   0  0  0  0  0  0  0  0  0  0  0  0
  192.5210  175.4770  145.6360 C   0  0  0  0  0  2  0  0  0  0  0  0
  191.3450  173.5210  144.5630 C   0  0  0  0  0  3  0  0  0  0  0  0
  193.8320  174.8610  145.1100 C   0  0  1  0  0  3  0  0  0  0  0  0
  196.1870  174.2760  145.9410 C   0  0  0  0  0  2  0  0  0  0  0  0
  195.0030  175.2480  146.0200 C   0  0  0  0  0  2  0  0  0  0  0  0
  191.3540  174.4770  145.7230 C   0  0  2  0  0  3  0  0  0  0  0  0
  195.0510  172.7720  144.2660 C   0  0  0  0  0  2  0  0  0  0  0  0
  193.7580  173.3380  144.8820 C   0  0  2  0  0  3  0  0  0  0  0  0
  196.2860  173.6300  144.5610 C   0  0  0  0  0  2  0  0  0  0  0  0
  188.0380  175.7070  147.1340 C   0  0  0  0  0  3  0  0  0  0  0  0
  189.5930  175.9980  144.8160 C   0  0  0  0  0  3  0  0  0  0  0  0
  185.9390  177.9830  145.2010 C   0  0  0  0  0  0  0  0  0  0  0  0
  186.4040  177.1790  146.1970 N   0  0  0  0  0  0  0  0  0  0  0  0
  187.5900  176.5230  146.0920 C   0  0  0  0  0  0  0  0  0  0  0  0
  187.9140  177.4850  143.8950 C   0  0  0  0  0  3  0  0  0  0  0  0
  188.3720  176.6670  144.9260 C   0  0  0  0  0  0  0  0  0  0  0  0
  186.6930  178.1480  144.0290 C   0  0  0  0  0  3  0  0  0  0  0  0
  190.0430  175.1820  145.8610 C   0  0  0  0  0  0  0  0  0  0  0  0
  189.2600  175.0370  147.0180 C   0  0  0  0  0  3  0  0  0  0  0  0
  184.0460  178.6480  146.4680 O   0  0  0  0  0  1  0  0  0  0  0  0
  184.6520  178.6760  145.3640 C   0  0  0  0  0  0  0  0  0  0  0  0
  184.0900  179.3590  144.2920 O   0  0  0  0  0  0  0  0  0  0  0  0
  192.2620  169.6450  142.0280 C   0  0  0  0  0  2  0  0  0  0  0  0
  192.5870  170.0850  144.3490 O   0  0  0  0  0  0  0  0  0  0  0  0
  192.4520  170.3110  140.6870 C   0  0  0  0  0  0  0  0  0  0  0  0
  192.5360  171.6450  140.5790 C   0  0  0  0  0  3  0  0  0  0  0  0
  192.4550  170.5730  143.1950 C   0  0  0  0  0  0  0  0  0  0  0  0
  192.5130  172.5290  141.7560 C   0  0  0  0  0  3  0  0  0  0  0  0
  192.4610  172.0390  142.9980 C   0  0  0  0  0  0  0  0  0  0  0  0
  191.3690  169.1070  138.6910 C   0  0  0  0  0  0  0  0  0  0  0  0
  191.5780  168.2630  137.6090 O   0  0  0  0  0  0  0  0  0  0  0  0
  190.2110  169.5460  138.9180 O   0  0  0  0  0  1  0  0  0  0  0  0
  192.4780  169.4670  139.5260 N   0  0  0  0  0  2  0  0  0  0  0  0
  1  3  2  0  0  0  0
  1  9  1  0  0  0  0
  2  7  1  0  0  0  0
  3  7  1  0  0  0  0
  4  2  1  1  0  0  0
  4  6  1  0  0  0  0
  5  6  1  0  0  0  0
  7 19  1  6  0  0  0
  8 10  1  0  0  0  0
  9  8  1  6  0  0  0
  9  4  1  0  0  0  0
 10  5  1  0  0  0  0
 12 17  2  0  0  0  0
 12 19  1  0  0  0  0
 13 22  1  0  0  0  0
 13 14  2  0  0  0  0
 15 14  1  0  0  0  0
 15 11  2  0  0  0  0
 16 18  2  0  0  0  0
 16 17  1  0  0  0  0
 17 15  1  0  0  0  0
 18 13  1  0  0  0  0
 19 20  2  0  0  0  0
 20 11  1  0  0  0  0
 22 21  1  0  0  0  0
 23 22  2  0  0  0  0
 24 28  1  0  0  0  0
 26 24  1  0  0  0  0
 27 26  2  0  0  0  0
 27 29  1  0  0  0  0
 28 25  2  0  0  0  0
 29 30  2  0  0  0  0
 30 28  1  0  0  0  0
 30  1  1  0  0  0  0
 31 33  1  0  0  0  0
 31 34  1  0  0  0  0
 32 31  2  0  0  0  0
 34 26  1  0  0  0  0
M  END
>  <MODEL>
4

>  <REMARK>
 VINA RESULT:      -9.1      4.507      8.498
  Name = 
  4 active torsions:
  status: ('A' for Active; 'I' for Inactive)
    1  A    between atoms: C_1  and  C_34
    2  A    between atoms: CA_7  and  C_15
    3  A    between atoms: C_18  and  C_30
    4  A    between atoms: C_23  and  N_25
                            x       y       z     vdW  Elec       q    Type
                         _______ _______ _______ _____ _____    ______ ____

>  <TORSDO>
F 4

$$$$
=
 OpenBabel11052420313D

 34 38  0  0  1  0  0  0  0  0999 V2000
  193.6940  174.6930  142.5630 C   0  0  0  0  0  0  0  0  0  0  0  0
  192.9990  176.0170  145.0690 C   0  0  0  0  0  2  0  0  0  0  0  0
  192.4570  175.1580  142.7620 C   0  0  0  0  0  3  0  0  0  0  0  0
  194.4370  175.5270  144.8170 C   0  0  1  0  0  3  0  0  0  0  0  0
  196.2720  174.1660  145.9830 C   0  0  0  0  0  2  0  0  0  0  0  0
  195.1140  175.1600  146.1420 C   0  0  0  0  0  2  0  0  0  0  0  0
  191.9460  175.3570  144.1610 C   0  0  2  0  0  3  0  0  0  0  0  0
  195.9910  173.9870  143.4840 C   0  0  0  0  0  2  0  0  0  0  0  0
  194.5350  174.3850  143.7840 C   0  0  2  0  0  3  0  0  0  0  0  0
  196.9560  174.3200  144.6270 C   0  0  0  0  0  2  0  0  0  0  0  0
  189.1140  177.6840  143.1330 C   0  0  0  0  0  3  0  0  0  0  0  0
  189.7900  175.9790  145.2560 C   0  0  0  0  0  3  0  0  0  0  0  0
  186.1940  178.1020  145.2820 C   0  0  0  0  0  0  0  0  0  0  0  0
  187.0660  178.2210  144.2430 N   0  0  0  0  0  0  0  0  0  0  0  0
  188.2430  177.5400  144.2150 C   0  0  0  0  0  0  0  0  0  0  0  0
  187.7060  176.5480  146.3570 C   0  0  0  0  0  3  0  0  0  0  0  0
  188.5850  176.6830  145.2840 C   0  0  0  0  0  0  0  0  0  0  0  0
  186.5040  177.2580  146.3590 C   0  0  0  0  0  3  0  0  0  0  0  0
  190.6620  176.1220  144.1710 C   0  0  0  0  0  0  0  0  0  0  0  0
  190.3210  176.9790  143.1110 C   0  0  0  0  0  3  0  0  0  0  0  0
  184.0510  178.6520  146.1420 O   0  0  0  0  0  1  0  0  0  0  0  0
  184.9300  178.8550  145.2630 C   0  0  0  0  0  0  0  0  0  0  0  0
  184.6940  179.7890  144.2620 O   0  0  0  0  0  0  0  0  0  0  0  0
  195.6370  175.2920  139.1800 C   0  0  0  0  0  2  0  0  0  0  0  0
  195.2100  176.6620  141.0860 O   0  0  0  0  0  0  0  0  0  0  0  0
  195.0600  174.0970  138.4630 C   0  0  0  0  0  0  0  0  0  0  0  0
  194.2490  173.2330  139.0930 C   0  0  0  0  0  3  0  0  0  0  0  0
  195.0070  175.5530  140.5210 C   0  0  0  0  0  0  0  0  0  0  0  0
  193.8240  173.4330  140.4880 C   0  0  0  0  0  3  0  0  0  0  0  0
  194.1840  174.5170  141.1800 C   0  0  0  0  0  0  0  0  0  0  0  0
  196.6660  173.2580  136.6400 C   0  0  0  0  0  0  0  0  0  0  0  0
  196.8970  173.1490  135.2760 O   0  0  0  0  0  0  0  0  0  0  0  0
  197.5160  172.8010  137.4490 O   0  0  0  0  0  1  0  0  0  0  0  0
  195.4600  173.8840  137.1020 N   0  0  0  0  0  2  0  0  0  0  0  0
  1  3  2  0  0  0  0
  1  9  1  0  0  0  0
  3  7  1  0  0  0  0
  4  2  1  1  0  0  0
  4  6  1  0  0  0  0
  5  6  1  0  0  0  0
  7 19  1  6  0  0  0
  7  2  1  0  0  0  0
  8 10  1  0  0  0  0
  9  8  1  6  0  0  0
  9  4  1  0  0  0  0
 10  5  1  0  0  0  0
 11 15  1  0  0  0  0
 12 17  1  0  0  0  0
 13 18  1  0  0  0  0
 14 13  2  0  0  0  0
 15 14  1  0  0  0  0
 15 17  2  0  0  0  0
 16 18  2  0  0  0  0
 17 16  1  0  0  0  0
 19 12  2  0  0  0  0
 20 11  2  0  0  0  0
 20 19  1  0  0  0  0
 22 13  1  0  0  0  0
 22 21  1  0  0  0  0
 23 22  2  0  0  0  0
 24 28  1  0  0  0  0
 26 27  2  0  0  0  0
 26 24  1  0  0  0  0
 27 29  1  0  0  0  0
 28 25  2  0  0  0  0
 28 30  1  0  0  0  0
 29 30  2  0  0  0  0
 30  1  1  0  0  0  0
 31 34  1  0  0  0  0
 31 33  1  0  0  0  0
 32 31  2  0  0  0  0
 34 26  1  0  0  0  0
M  END
>  <MODEL>
5

>  <REMARK>
 VINA RESULT:      -8.9      4.155      8.835
  Name = 
  4 active torsions:
  status: ('A' for Active; 'I' for Inactive)
    1  A    between atoms: C_1  and  C_34
    2  A    between atoms: CA_7  and  C_15
    3  A    between atoms: C_18  and  C_30
    4  A    between atoms: C_23  and  N_25
                            x       y       z     vdW  Elec       q    Type
                         _______ _______ _______ _____ _____    ______ ____

>  <TORSDO>
F 4

$$$$
=
 OpenBabel11052420313D

 34 38  0  0  1  0  0  0  0  0999 V2000
  190.0740  174.7670  143.0630 C   0  0  0  0  0  0  0  0  0  0  0  0
  189.6170  177.5460  143.8230 C   0  0  0  0  0  2  0  0  0  0  0  0
  188.8300  175.2380  143.1840 C   0  0  0  0  0  3  0  0  0  0  0  0
  191.0490  177.0140  143.6310 C   0  0  1  0  0  3  0  0  0  0  0  0
  193.3080  176.9970  144.8470 C   0  0  0  0  0  2  0  0  0  0  0  0
  192.0260  177.7790  144.5310 C   0  0  0  0  0  2  0  0  0  0  0  0
  188.5650  176.4440  144.0410 C   0  0  2  0  0  3  0  0  0  0  0  0
  192.5990  174.9760  143.5160 C   0  0  0  0  0  2  0  0  0  0  0  0
  191.1760  175.4870  143.8100 C   0  0  2  0  0  3  0  0  0  0  0  0
  193.6760  176.0490  143.7080 C   0  0  0  0  0  2  0  0  0  0  0  0
  185.0640  177.7750  144.7250 C   0  0  0  0  0  3  0  0  0  0  0  0
  186.6990  177.1380  142.5350 C   0  0  0  0  0  3  0  0  0  0  0  0
  182.8330  178.6110  141.9600 C   0  0  0  0  0  0  0  0  0  0  0  0
  183.3300  178.4290  143.2150 N   0  0  0  0  0  0  0  0  0  0  0  0
  184.5860  177.9490  143.4240 C   0  0  0  0  0  0  0  0  0  0  0  0
  184.9180  177.8060  141.0310 C   0  0  0  0  0  3  0  0  0  0  0  0
  185.4080  177.6260  142.3230 C   0  0  0  0  0  0  0  0  0  0  0  0
  183.6250  178.3010  140.8450 C   0  0  0  0  0  3  0  0  0  0  0  0
  187.1790  176.9660  143.8380 C   0  0  0  0  0  0  0  0  0  0  0  0
  186.3560  177.2830  144.9320 C   0  0  0  0  0  3  0  0  0  0  0  0
  180.7580  179.4140  142.7860 O   0  0  0  0  0  1  0  0  0  0  0  0
  181.4720  179.1390  141.7850 C   0  0  0  0  0  0  0  0  0  0  0  0
  180.9570  179.3230  140.5070 O   0  0  0  0  0  0  0  0  0  0  0  0
  190.2940  171.0250  141.8250 C   0  0  0  0  0  2  0  0  0  0  0  0
  190.0170  172.0240  143.9730 O   0  0  0  0  0  0  0  0  0  0  0  0
  190.8510  171.3510  140.4620 C   0  0  0  0  0  0  0  0  0  0  0  0
  191.0070  172.6220  140.0600 C   0  0  0  0  0  3  0  0  0  0  0  0
  190.2080  172.2140  142.7420 C   0  0  0  0  0  0  0  0  0  0  0  0
  190.7090  173.7640  140.9400 C   0  0  0  0  0  3  0  0  0  0  0  0
  190.3170  173.5870  142.2050 C   0  0  0  0  0  0  0  0  0  0  0  0
  190.3690  169.7910  138.4770 C   0  0  0  0  0  0  0  0  0  0  0  0
  190.8080  168.6970  137.7450 O   0  0  0  0  0  0  0  0  0  0  0  0
  189.2950  170.3630  138.1510 O   0  0  0  0  0  1  0  0  0  0  0  0
  191.1510  170.2530  139.5880 N   0  0  0  0  0  2  0  0  0  0  0  0
  1  3  2  0  0  0  0
  1  9  1  0  0  0  0
  2  7  1  0  0  0  0
  3  7  1  0  0  0  0
  4  9  1  0  0  0  0
  4  2  1  1  0  0  0
  4  6  1  0  0  0  0
  6  5  1  0  0  0  0
  7 19  1  6  0  0  0
  8 10  1  0  0  0  0
  9  8  1  6  0  0  0
 10  5  1  0  0  0  0
 11 20  1  0  0  0  0
 12 19  1  0  0  0  0
 13 14  2  0  0  0  0
 14 15  1  0  0  0  0
 15 11  2  0  0  0  0
 16 17  1  0  0  0  0
 17 12  2  0  0  0  0
 17 15  1  0  0  0  0
 18 16  2  0  0  0  0
 18 13  1  0  0  0  0
 19 20  2  0  0  0  0
 22 13  1  0  0  0  0
 22 21  1  0  0  0  0
 23 22  2  0  0  0  0
 24 28  1  0  0  0  0
 26 24  1  0  0  0  0
 27 26  2  0  0  0  0
 27 29  1  0  0  0  0
 28 25  2  0  0  0  0
 29 30  2  0  0  0  0
 30 28  1  0  0  0  0
 30  1  1  0  0  0  0
 31 34  1  0  0  0  0
 32 31  2  0  0  0  0
 33 31  1  0  0  0  0
 34 26  1  0  0  0  0
M  END
>  <MODEL>
6

>  <REMARK>
 VINA RESULT:      -8.6      4.226      8.826
  Name = 
  4 active torsions:
  status: ('A' for Active; 'I' for Inactive)
    1  A    between atoms: C_1  and  C_34
    2  A    between atoms: CA_7  and  C_15
    3  A    between atoms: C_18  and  C_30
    4  A    between atoms: C_23  and  N_25
                            x       y       z     vdW  Elec       q    Type
                         _______ _______ _______ _____ _____    ______ ____

>  <TORSDO>
F 4

$$$$
=
 OpenBabel11052420313D

 34 38  0  0  1  0  0  0  0  0999 V2000
  193.4980  173.6700  143.6690 C   0  0  0  0  0  0  0  0  0  0  0  0
  191.1810  174.5820  142.1480 C   0  0  0  0  0  2  0  0  0  0  0  0
  192.5140  174.3400  144.2740 C   0  0  0  0  0  3  0  0  0  0  0  0
  192.2920  173.7640  141.4640 C   0  0  1  0  0  3  0  0  0  0  0  0
  193.7650  173.8390  139.3660 C   0  0  0  0  0  2  0  0  0  0  0  0
  192.3920  174.1390  139.9810 C   0  0  0  0  0  2  0  0  0  0  0  0
  191.6130  175.2370  143.4720 C   0  0  2  0  0  3  0  0  0  0  0  0
  194.7200  172.9470  141.5220 C   0  0  0  0  0  2  0  0  0  0  0  0
  193.6580  173.8510  142.1740 C   0  0  2  0  0  3  0  0  0  0  0  0
  194.4330  172.6470  140.0470 C   0  0  0  0  0  2  0  0  0  0  0  0
  189.1100  175.6350  146.3130 C   0  0  0  0  0  3  0  0  0  0  0  0
  189.5230  176.5840  143.7040 C   0  0  0  0  0  3  0  0  0  0  0  0
  186.2250  177.8400  145.9380 C   0  0  0  0  0  0  0  0  0  0  0  0
  187.1250  176.9600  146.4580 N   0  0  0  0  0  0  0  0  0  0  0  0
  188.2050  176.5370  145.7480 C   0  0  0  0  0  0  0  0  0  0  0  0
  187.5030  177.9130  143.8840 C   0  0  0  0  0  3  0  0  0  0  0  0
  188.4130  177.0120  144.4350 C   0  0  0  0  0  0  0  0  0  0  0  0
  186.4030  178.3310  144.6360 C   0  0  0  0  0  3  0  0  0  0  0  0
  190.4310  175.6810  144.2710 C   0  0  0  0  0  0  0  0  0  0  0  0
  190.2180  175.2060  145.5760 C   0  0  0  0  0  3  0  0  0  0  0  0
  185.1480  178.2840  148.0060 O   0  0  0  0  0  1  0  0  0  0  0  0
  185.0760  178.2720  146.7480 C   0  0  0  0  0  0  0  0  0  0  0  0
  183.8950  178.6580  146.1270 O   0  0  0  0  0  0  0  0  0  0  0  0
  196.4830  172.3900  145.9120 C   0  0  0  0  0  2  0  0  0  0  0  0
  196.1460  174.3560  144.6040 O   0  0  0  0  0  0  0  0  0  0  0  0
  196.0040  170.9620  145.9970 C   0  0  0  0  0  0  0  0  0  0  0  0
  194.8340  170.5880  145.4590 C   0  0  0  0  0  3  0  0  0  0  0  0
  195.6850  173.2390  144.9610 C   0  0  0  0  0  0  0  0  0  0  0  0
  193.9840  171.5240  144.7040 C   0  0  0  0  0  3  0  0  0  0  0  0
  194.3660  172.7830  144.4720 C   0  0  0  0  0  0  0  0  0  0  0  0
  196.3680  168.9840  147.5970 C   0  0  0  0  0  0  0  0  0  0  0  0
  197.3030  168.1830  148.2370 O   0  0  0  0  0  1  0  0  0  0  0  0
  195.1410  168.7730  147.7860 O   0  0  0  0  0  0  0  0  0  0  0  0
  196.8180  170.0320  146.7270 N   0  0  0  0  0  2  0  0  0  0  0  0
  1  3  2  0  0  0  0
  1 30  1  0  0  0  0
  2  7  1  0  0  0  0
  4  6  1  6  0  0  0
  4  2  1  0  0  0  0
  4  9  1  0  0  0  0
  5  6  1  0  0  0  0
  5 10  1  0  0  0  0
  7 19  1  1  0  0  0
  7  3  1  0  0  0  0
  9  8  1  6  0  0  0
  9  1  1  0  0  0  0
 10  8  1  0  0  0  0
 12 19  2  0  0  0  0
 12 17  1  0  0  0  0
 13 14  1  0  0  0  0
 13 22  1  0  0  0  0
 15 11  1  0  0  0  0
 15 14  2  0  0  0  0
 16 17  2  0  0  0  0
 16 18  1  0  0  0  0
 17 15  1  0  0  0  0
 18 13  2  0  0  0  0
 19 20  1  0  0  0  0
 20 11  2  0  0  0  0
 22 21  1  0  0  0  0
 23 22  2  0  0  0  0
 24 26  1  0  0  0  0
 25 28  2  0  0  0  0
 26 34  1  0  0  0  0
 27 26  2  0  0  0  0
 28 24  1  0  0  0  0
 29 27  1  0  0  0  0
 30 29  2  0  0  0  0
 30 28  1  0  0  0  0
 31 33  2  0  0  0  0
 31 32  1  0  0  0  0
 34 31  1  0  0  0  0
M  END
>  <MODEL>
7

>  <REMARK>
 VINA RESULT:      -8.6      3.947     10.139
  Name = 
  4 active torsions:
  status: ('A' for Active; 'I' for Inactive)
    1  A    between atoms: C_1  and  C_34
    2  A    between atoms: CA_7  and  C_15
    3  A    between atoms: C_18  and  C_30
    4  A    between atoms: C_23  and  N_25
                            x       y       z     vdW  Elec       q    Type
                         _______ _______ _______ _____ _____    ______ ____

>  <TORSDO>
F 4

$$$$
=
 OpenBabel11052420313D

 34 38  0  0  1  0  0  0  0  0999 V2000
  188.4630  175.6890  143.2940 C   0  0  0  0  0  0  0  0  0  0  0  0
  187.8170  175.5770  140.4510 C   0  0  0  0  0  2  0  0  0  0  0  0
  188.8440  174.6440  142.5560 C   0  0  0  0  0  3  0  0  0  0  0  0
  187.4250  176.8050  141.2940 C   0  0  1  0  0  3  0  0  0  0  0  0
  185.3850  178.2910  141.7530 C   0  0  0  0  0  2  0  0  0  0  0  0
  186.1620  177.4610  140.7230 C   0  0  0  0  0  2  0  0  0  0  0  0
  188.1120  174.3170  141.2840 C   0  0  2  0  0  3  0  0  0  0  0  0
  186.9940  177.7760  143.6250 C   0  0  0  0  0  2  0  0  0  0  0  0
  187.2900  176.5100  142.8010 C   0  0  2  0  0  3  0  0  0  0  0  0
  186.3160  178.8820  142.8090 C   0  0  0  0  0  2  0  0  0  0  0  0
  190.3650  171.4000  140.3300 C   0  0  0  0  0  3  0  0  0  0  0  0
  188.6800  173.2700  139.0900 C   0  0  0  0  0  3  0  0  0  0  0  0
  190.7100  170.3980  136.8370 C   0  0  0  0  0  0  0  0  0  0  0  0
  190.8500  170.4490  138.1910 N   0  0  0  0  0  0  0  0  0  0  0  0
  190.1990  171.3760  138.9430 C   0  0  0  0  0  0  0  0  0  0  0  0
  189.1970  172.2840  136.9350 C   0  0  0  0  0  3  0  0  0  0  0  0
  189.3540  172.3190  138.3200 C   0  0  0  0  0  0  0  0  0  0  0  0
  189.8760  171.3200  136.1880 C   0  0  0  0  0  3  0  0  0  0  0  0
  188.8440  173.2920  140.4790 C   0  0  0  0  0  0  0  0  0  0  0  0
  189.6910  172.3550  141.0960 C   0  0  0  0  0  3  0  0  0  0  0  0
  191.5990  169.5030  134.8270 O   0  0  0  0  0  0  0  0  0  0  0  0
  191.4310  169.3720  136.0680 C   0  0  0  0  0  0  0  0  0  0  0  0
  191.9200  168.2400  136.7090 O   0  0  0  0  0  1  0  0  0  0  0  0
  191.0150  177.3480  145.8070 C   0  0  0  0  0  2  0  0  0  0  0  0
  190.8360  177.3350  143.4280 O   0  0  0  0  0  0  0  0  0  0  0  0
  190.6060  176.5230  147.0010 C   0  0  0  0  0  0  0  0  0  0  0  0
  189.5850  175.6560  146.9310 C   0  0  0  0  0  3  0  0  0  0  0  0
  190.3740  176.9060  144.5200 C   0  0  0  0  0  0  0  0  0  0  0  0
  188.8510  175.4100  145.6780 C   0  0  0  0  0  3  0  0  0  0  0  0
  189.2030  176.0040  144.5340 C   0  0  0  0  0  0  0  0  0  0  0  0
  191.1630  177.8570  149.1260 C   0  0  0  0  0  0  0  0  0  0  0  0
  191.9410  177.9160  150.2740 O   0  0  0  0  0  1  0  0  0  0  0  0
  190.3370  178.7790  148.8920 O   0  0  0  0  0  0  0  0  0  0  0  0
  191.3090  176.7450  148.2330 N   0  0  0  0  0  2  0  0  0  0  0  0
  1 30  1  0  0  0  0
  2  7  1  0  0  0  0
  3  1  2  0  0  0  0
  4  2  1  6  0  0  0
  4  9  1  0  0  0  0
  5 10  1  0  0  0  0
  6  4  1  0  0  0  0
  6  5  1  0  0  0  0
  7 19  1  6  0  0  0
  7  3  1  0  0  0  0
  9  1  1  0  0  0  0
  9  8  1  1  0  0  0
 10  8  1  0  0  0  0
 11 20  1  0  0  0  0
 12 19  1  0  0  0  0
 13 14  2  0  0  0  0
 14 15  1  0  0  0  0
 15 11  2  0  0  0  0
 16 17  1  0  0  0  0
 17 15  1  0  0  0  0
 17 12  2  0  0  0  0
 18 13  1  0  0  0  0
 18 16  2  0  0  0  0
 19 20  2  0  0  0  0
 21 22  2  0  0  0  0
 22 23  1  0  0  0  0
 22 13  1  0  0  0  0
 24 26  1  0  0  0  0
 25 28  2  0  0  0  0
 26 34  1  0  0  0  0
 27 26  2  0  0  0  0
 28 30  1  0  0  0  0
 28 24  1  0  0  0  0
 29 27  1  0  0  0  0
 30 29  2  0  0  0  0
 31 32  1  0  0  0  0
 33 31  2  0  0  0  0
 34 31  1  0  0  0  0
M  END
>  <MODEL>
8

>  <REMARK>
 VINA RESULT:      -8.5      4.437      8.301
  Name = 
  4 active torsions:
  status: ('A' for Active; 'I' for Inactive)
    1  A    between atoms: C_1  and  C_34
    2  A    between atoms: CA_7  and  C_15
    3  A    between atoms: C_18  and  C_30
    4  A    between atoms: C_23  and  N_25
                            x       y       z     vdW  Elec       q    Type
                         _______ _______ _______ _____ _____    ______ ____

>  <TORSDO>
F 4

$$$$
=
 OpenBabel11052420313D

 34 38  0  0  1  0  0  0  0  0999 V2000
  185.5710  177.9270  143.4190 C   0  0  0  0  0  0  0  0  0  0  0  0
  187.5550  176.4130  144.9320 C   0  0  0  0  0  2  0  0  0  0  0  0
  186.5430  177.2650  142.7850 C   0  0  0  0  0  3  0  0  0  0  0  0
  186.4020  177.1340  145.6560 C   0  0  1  0  0  3  0  0  0  0  0  0
  186.0270  178.7210  147.6360 C   0  0  0  0  0  2  0  0  0  0  0  0
  186.8380  177.5510  147.0650 C   0  0  0  0  0  2  0  0  0  0  0  0
  187.8190  176.9330  143.5070 C   0  0  2  0  0  3  0  0  0  0  0  0
  184.5980  178.9510  145.5710 C   0  0  0  0  0  2  0  0  0  0  0  0
  185.8090  178.3160  144.8630 C   0  0  2  0  0  3  0  0  0  0  0  0
  184.6020  178.7300  147.0870 C   0  0  0  0  0  2  0  0  0  0  0  0
  190.7400  174.7660  142.3810 C   0  0  0  0  0  3  0  0  0  0  0  0
  188.1220  175.3780  141.5780 C   0  0  0  0  0  3  0  0  0  0  0  0
  190.4540  172.6880  139.3950 C   0  0  0  0  0  0  0  0  0  0  0  0
  190.9460  173.2890  140.5130 N   0  0  0  0  0  0  0  0  0  0  0  0
  190.2040  174.1690  141.2380 C   0  0  0  0  0  0  0  0  0  0  0  0
  188.3660  173.8740  139.6910 C   0  0  0  0  0  3  0  0  0  0  0  0
  188.8880  174.4790  140.8330 C   0  0  0  0  0  0  0  0  0  0  0  0
  189.1490  172.9740  138.9670 C   0  0  0  0  0  3  0  0  0  0  0  0
  188.6580  175.9750  142.7250 C   0  0  0  0  0  0  0  0  0  0  0  0
  189.9700  175.6690  143.1220 C   0  0  0  0  0  3  0  0  0  0  0  0
  192.0170  170.9080  139.2580 O   0  0  0  0  0  1  0  0  0  0  0  0
  191.2930  171.7380  138.6480 C   0  0  0  0  0  0  0  0  0  0  0  0
  191.3010  171.7630  137.2590 O   0  0  0  0  0  0  0  0  0  0  0  0
  182.9220  178.2910  140.5150 C   0  0  0  0  0  2  0  0  0  0  0  0
  185.2770  177.9080  140.5430 O   0  0  0  0  0  0  0  0  0  0  0  0
  181.8380  178.8890  141.3770 C   0  0  0  0  0  0  0  0  0  0  0  0
  181.9990  179.0270  142.7010 C   0  0  0  0  0  3  0  0  0  0  0  0
  184.2410  178.1390  141.2230 C   0  0  0  0  0  0  0  0  0  0  0  0
  183.2550  178.6660  143.3800 C   0  0  0  0  0  3  0  0  0  0  0  0
  184.3180  178.2330  142.6970 C   0  0  0  0  0  0  0  0  0  0  0  0
  179.3450  178.5730  140.8380 C   0  0  0  0  0  0  0  0  0  0  0  0
  178.2530  179.0580  140.1310 O   0  0  0  0  0  0  0  0  0  0  0  0
  179.2100  177.5500  141.5600 O   0  0  0  0  0  1  0  0  0  0  0  0
  180.6060  179.2500  140.7360 N   0  0  0  0  0  2  0  0  0  0  0  0
  1  9  1  0  0  0  0
  3  1  2  0  0  0  0
  3  7  1  0  0  0  0
  4  2  1  6  0  0  0
  4  6  1  0  0  0  0
  6  5  1  0  0  0  0
  7 19  1  6  0  0  0
  7  2  1  0  0  0  0
  8 10  1  0  0  0  0
  9  8  1  1  0  0  0
  9  4  1  0  0  0  0
 10  5  1  0  0  0  0
 11 20  1  0  0  0  0
 12 19  1  0  0  0  0
 13 14  2  0  0  0  0
 14 15  1  0  0  0  0
 15 11  2  0  0  0  0
 16 17  1  0  0  0  0
 17 15  1  0  0  0  0
 17 12  2  0  0  0  0
 18 13  1  0  0  0  0
 18 16  2  0  0  0  0
 19 20  2  0  0  0  0
 22 21  1  0  0  0  0
 22 13  1  0  0  0  0
 23 22  2  0  0  0  0
 24 28  1  0  0  0  0
 24 26  1  0  0  0  0
 25 28  2  0  0  0  0
 26 27  2  0  0  0  0
 27 29  1  0  0  0  0
 28 30  1  0  0  0  0
 30 29  2  0  0  0  0
 30  1  1  0  0  0  0
 31 33  1  0  0  0  0
 32 31  2  0  0  0  0
 34 31  1  0  0  0  0
 34 26  1  0  0  0  0
M  END
>  <MODEL>
9

>  <REMARK>
 VINA RESULT:      -8.4      4.136      5.805
  Name = 
  4 active torsions:
  status: ('A' for Active; 'I' for Inactive)
    1  A    between atoms: C_1  and  C_34
    2  A    between atoms: CA_7  and  C_15
    3  A    between atoms: C_18  and  C_30
    4  A    between atoms: C_23  and  N_25
                            x       y       z     vdW  Elec       q    Type
                         _______ _______ _______ _____ _____    ______ ____

>  <TORSDO>
F 4

$$$$
