=
 OpenBabel11052417573D

 31 34  0  0  1  0  0  0  0  0999 V2000
  188.0810  173.6280  141.6470 C   0  0  1  0  0  3  0  0  0  0  0  0
  188.4480  176.5330  144.0730 C   0  0  0  0  0  0  0  0  0  0  0  0
  187.0770  177.0550  144.3440 C   0  0  0  0  0  0  0  0  0  0  0  0
  184.8400  177.6530  143.6420 C   0  0  0  0  0  3  0  0  0  0  0  0
  188.7280  175.5890  143.1350 C   0  0  0  0  0  0  0  0  0  0  0  0
  189.3180  173.0560  142.3130 C   0  0  0  0  0  2  0  0  0  0  0  0
  186.1040  177.1470  143.3400 C   0  0  0  0  0  3  0  0  0  0  0  0
  190.8890  176.3520  144.9280 C   0  0  1  0  0  3  0  0  0  0  0  0
  187.0660  172.6910  141.6570 F   0  0  0  0  0  0  0  0  0  0  0  0
  187.8310  177.5420  146.7200 C   0  0  0  0  0  2  0  0  0  0  0  0
  184.5560  178.0680  144.9030 N   0  0  0  0  0  0  0  0  0  0  0  0
  190.8550  174.9580  144.3250 C   0  0  0  0  0  2  0  0  0  0  0  0
  189.4720  176.9310  145.1260 C   0  0  2  0  0  3  0  0  0  0  0  0
  187.6240  174.8830  142.3820 C   0  0  0  0  0  2  0  0  0  0  0  0
  185.0950  178.5100  147.2560 C   0  0  0  0  0  1  0  0  0  0  0  0
  190.1640  175.0990  142.9830 C   0  0  1  0  0  3  0  0  0  0  0  0
  190.3720  173.9700  142.1530 O   0  0  0  0  0  0  0  0  0  0  0  0
  188.9230  176.6060  146.4420 N   0  0  0  0  0  2  0  0  0  0  0  0
  186.7630  177.5070  145.6460 C   0  0  0  0  0  0  0  0  0  0  0  0
  185.4760  178.0140  145.9020 C   0  0  0  0  0  0  0  0  0  0  0  0
  191.7380  176.4070  146.1950 C   0  0  0  0  0  2  0  0  0  0  0  0
  193.6860  174.9510  146.5130 C   0  0  0  0  0  2  0  0  0  0  0  0
  193.1540  176.0180  145.9120 C   0  0  0  0  0  0  0  0  0  0  0  0
  194.7890  177.7590  145.8540 O   0  0  0  0  0  1  0  0  0  0  0  0
  193.9910  176.9270  145.0630 C   0  0  1  0  0  3  0  0  0  0  0  0
  196.0730  176.7570  143.8640 O   0  0  0  0  0  1  0  0  0  0  0  0
  194.8310  176.1460  144.0490 C   0  0  2  0  0  3  0  0  0  0  0  0
  194.1120  176.0440  142.7120 C   0  0  0  0  0  2  0  0  0  0  0  0
  193.9290  174.6170  142.3210 C   0  0  0  0  0  0  0  0  0  0  0  0
  194.1600  173.6080  143.2470 O   0  0  0  0  0  1  0  0  0  0  0  0
  193.5370  174.3280  141.1610 O   0  0  0  0  0  0  0  0  0  0  0  0
  1  9  1  1  0  0  0
  1  6  1  0  0  0  0
  1 14  1  0  0  0  0
  2  3  1  0  0  0  0
  3 19  1  0  0  0  0
  4 11  2  0  0  0  0
  5  2  2  0  0  0  0
  7  4  1  0  0  0  0
  7  3  2  0  0  0  0
  8 13  1  0  0  0  0
  8 21  1  1  0  0  0
 11 20  1  0  0  0  0
 12  8  1  0  0  0  0
 13  2  1  6  0  0  0
 13 18  1  0  0  0  0
 14  5  1  0  0  0  0
 16  5  1  0  0  0  0
 16 12  1  1  0  0  0
 17  6  1  0  0  0  0
 17 16  1  0  0  0  0
 18 10  1  0  0  0  0
 19 20  2  0  0  0  0
 19 10  1  0  0  0  0
 20 15  1  0  0  0  0
 23 21  1  0  0  0  0
 23 22  2  0  0  0  0
 25 24  1  1  0  0  0
 25 23  1  0  0  0  0
 27 26  1  6  0  0  0
 27 25  1  0  0  0  0
 28 27  1  0  0  0  0
 29 28  1  0  0  0  0
 29 30  1  0  0  0  0
 31 29  2  0  0  0  0
M  END
>  <MODEL>
1

>  <REMARK>
 VINA RESULT:      -7.2      0.000      0.000
  Name = 
  6 active torsions:
  status: ('A' for Active; 'I' for Inactive)
    1  A    between atoms: C_1  and  C_24
    2  A    between atoms: C_9  and  C_22
    3  A    between atoms: C_9  and  C_23
    4  A    between atoms: C_15  and  C_23
    5  A    between atoms: C_19  and  C_22
    6  A    between atoms: C_19  and  C_24
                            x       y       z     vdW  Elec       q    Type
                         _______ _______ _______ _____ _____    ______ ____

>  <TORSDO>
F 6

$$$$
=
 OpenBabel11052417573D

 31 34  0  0  1  0  0  0  0  0999 V2000
  188.7040  174.3580  140.9130 C   0  0  1  0  0  3  0  0  0  0  0  0
  188.2280  177.1100  143.4940 C   0  0  0  0  0  0  0  0  0  0  0  0
  186.7940  177.5200  143.4400 C   0  0  0  0  0  0  0  0  0  0  0  0
  184.7550  178.0110  142.2330 C   0  0  0  0  0  3  0  0  0  0  0  0
  188.8050  176.2530  142.6090 C   0  0  0  0  0  0  0  0  0  0  0  0
  189.7840  173.8270  141.8380 C   0  0  0  0  0  2  0  0  0  0  0  0
  186.0920  177.6130  142.2310 C   0  0  0  0  0  3  0  0  0  0  0  0
  190.3920  177.0370  144.9190 C   0  0  1  0  0  3  0  0  0  0  0  0
  187.7980  173.3560  140.6250 F   0  0  0  0  0  0  0  0  0  0  0  0
  186.9020  177.8940  145.9490 C   0  0  0  0  0  2  0  0  0  0  0  0
  184.1380  178.3200  143.4030 N   0  0  0  0  0  0  0  0  0  0  0  0
  190.6210  175.6880  144.2590 C   0  0  0  0  0  2  0  0  0  0  0  0
  188.9270  177.5040  144.7860 C   0  0  2  0  0  3  0  0  0  0  0  0
  187.9800  175.5270  141.5720 C   0  0  0  0  0  2  0  0  0  0  0  0
  184.0480  178.6370  145.8350 C   0  0  0  0  0  1  0  0  0  0  0  0
  190.2700  175.8730  142.7950 C   0  0  1  0  0  3  0  0  0  0  0  0
  190.7660  174.8190  141.9890 O   0  0  0  0  0  0  0  0  0  0  0  0
  188.1020  177.0550  145.9070 N   0  0  0  0  0  2  0  0  0  0  0  0
  186.1350  177.8590  144.6430 C   0  0  0  0  0  0  0  0  0  0  0  0
  184.7880  178.2610  144.5960 C   0  0  0  0  0  0  0  0  0  0  0  0
  190.8980  177.0630  146.3580 C   0  0  0  0  0  2  0  0  0  0  0  0
  191.9040  175.0390  147.3080 C   0  0  0  0  0  2  0  0  0  0  0  0
  192.0460  176.1230  146.5420 C   0  0  0  0  0  0  0  0  0  0  0  0
  194.1470  177.1990  146.9130 O   0  0  0  0  0  1  0  0  0  0  0  0
  193.3810  176.5020  145.9740 C   0  0  1  0  0  3  0  0  0  0  0  0
  195.3300  175.0940  146.1280 O   0  0  0  0  0  1  0  0  0  0  0  0
  194.1350  175.2840  145.4310 C   0  0  2  0  0  3  0  0  0  0  0  0
  194.4330  175.4470  143.9480 C   0  0  0  0  0  2  0  0  0  0  0  0
  195.8530  175.8520  143.7380 C   0  0  0  0  0  0  0  0  0  0  0  0
  196.7910  174.9110  143.3360 O   0  0  0  0  0  0  0  0  0  0  0  0
  196.1940  177.0520  143.8980 O   0  0  0  0  0  1  0  0  0  0  0  0
  1  9  1  1  0  0  0
  1 14  1  0  0  0  0
  1  6  1  0  0  0  0
  3  2  1  0  0  0  0
  3 19  1  0  0  0  0
  4 11  2  0  0  0  0
  5 16  1  0  0  0  0
  5  2  2  0  0  0  0
  6 17  1  0  0  0  0
  7  4  1  0  0  0  0
  7  3  2  0  0  0  0
  8 21  1  1  0  0  0
 11 20  1  0  0  0  0
 12  8  1  0  0  0  0
 13  2  1  6  0  0  0
 13  8  1  0  0  0  0
 13 18  1  0  0  0  0
 14  5  1  0  0  0  0
 16 12  1  1  0  0  0
 17 16  1  0  0  0  0
 18 10  1  0  0  0  0
 19 10  1  0  0  0  0
 20 19  2  0  0  0  0
 20 15  1  0  0  0  0
 21 23  1  0  0  0  0
 23 22  2  0  0  0  0
 25 23  1  0  0  0  0
 25 24  1  1  0  0  0
 27 25  1  0  0  0  0
 27 26  1  1  0  0  0
 28 27  1  0  0  0  0
 29 31  1  0  0  0  0
 29 28  1  0  0  0  0
 30 29  2  0  0  0  0
M  END
>  <MODEL>
2

>  <REMARK>
 VINA RESULT:      -7.2      1.312      1.693
  Name = 
  6 active torsions:
  status: ('A' for Active; 'I' for Inactive)
    1  A    between atoms: C_1  and  C_24
    2  A    between atoms: C_9  and  C_22
    3  A    between atoms: C_9  and  C_23
    4  A    between atoms: C_15  and  C_23
    5  A    between atoms: C_19  and  C_22
    6  A    between atoms: C_19  and  C_24
                            x       y       z     vdW  Elec       q    Type
                         _______ _______ _______ _____ _____    ______ ____

>  <TORSDO>
F 6

$$$$
=
 OpenBabel11052417573D

 31 34  0  0  1  0  0  0  0  0999 V2000
  191.9360  176.2250  146.6680 C   0  0  1  0  0  3  0  0  0  0  0  0
  190.1240  176.0050  143.3320 C   0  0  0  0  0  0  0  0  0  0  0  0
  190.9870  175.2050  142.4150 C   0  0  0  0  0  0  0  0  0  0  0  0
  193.1440  174.5720  141.5220 C   0  0  0  0  0  3  0  0  0  0  0  0
  190.5110  176.4210  144.5680 C   0  0  0  0  0  0  0  0  0  0  0  0
  190.5540  176.2870  147.2920 C   0  0  0  0  0  2  0  0  0  0  0  0
  192.3830  175.3340  142.4060 C   0  0  0  0  0  3  0  0  0  0  0  0
  187.7220  176.8320  143.8490 C   0  0  1  0  0  3  0  0  0  0  0  0
  192.6710  175.2140  147.2560 F   0  0  0  0  0  0  0  0  0  0  0  0
  188.8650  174.2530  141.3960 C   0  0  0  0  0  2  0  0  0  0  0  0
  192.5360  173.7150  140.6610 N   0  0  0  0  0  0  0  0  0  0  0  0
  188.1150  176.6430  145.3050 C   0  0  0  0  0  2  0  0  0  0  0  0
  188.6690  176.0770  142.8930 C   0  0  2  0  0  3  0  0  0  0  0  0
  191.8220  175.9680  145.1690 C   0  0  0  0  0  2  0  0  0  0  0  0
  190.5890  172.6300  139.6350 C   0  0  0  0  0  1  0  0  0  0  0  0
  189.5220  177.1920  145.4340 C   0  0  1  0  0  3  0  0  0  0  0  0
  189.8880  177.4140  146.7840 O   0  0  0  0  0  0  0  0  0  0  0  0
  188.2070  174.7170  142.6190 N   0  0  0  0  0  2  0  0  0  0  0  0
  190.3750  174.3190  141.5010 C   0  0  0  0  0  0  0  0  0  0  0  0
  191.1840  173.5740  140.6240 C   0  0  0  0  0  0  0  0  0  0  0  0
  186.2500  176.5110  143.6080 C   0  0  0  0  0  2  0  0  0  0  0  0
  184.6380  177.9210  142.4130 C   0  0  0  0  0  2  0  0  0  0  0  0
  185.4420  177.7610  143.4670 C   0  0  0  0  0  0  0  0  0  0  0  0
  185.3080  180.1080  143.8970 O   0  0  0  0  0  1  0  0  0  0  0  0
  185.6660  178.8730  144.4480 C   0  0  1  0  0  3  0  0  0  0  0  0
  183.5870  178.9580  145.6630 O   0  0  0  0  0  1  0  0  0  0  0  0
  184.9380  178.6200  145.7710 C   0  0  2  0  0  3  0  0  0  0  0  0
  185.5720  179.4180  146.9010 C   0  0  0  0  0  2  0  0  0  0  0  0
  186.3420  178.5210  147.8100 C   0  0  0  0  0  0  0  0  0  0  0  0
  185.9460  177.2020  147.9840 O   0  0  0  0  0  0  0  0  0  0  0  0
  187.3670  178.9530  148.3980 O   0  0  0  0  0  1  0  0  0  0  0  0
  1  9  1  1  0  0  0
  1  6  1  0  0  0  0
  2  5  2  0  0  0  0
  3  2  1  0  0  0  0
  4  7  2  0  0  0  0
  5 14  1  0  0  0  0
  5 16  1  0  0  0  0
  7  3  1  0  0  0  0
  8 21  1  1  0  0  0
  8 12  1  0  0  0  0
 10 19  1  0  0  0  0
 10 18  1  0  0  0  0
 11  4  1  0  0  0  0
 13 18  1  1  0  0  0
 13  2  1  0  0  0  0
 13  8  1  0  0  0  0
 14  1  1  0  0  0  0
 15 20  1  0  0  0  0
 16 12  1  1  0  0  0
 16 17  1  0  0  0  0
 17  6  1  0  0  0  0
 19  3  2  0  0  0  0
 20 11  2  0  0  0  0
 20 19  1  0  0  0  0
 22 23  2  0  0  0  0
 23 21  1  0  0  0  0
 23 25  1  0  0  0  0
 25 24  1  6  0  0  0
 25 27  1  0  0  0  0
 27 26  1  6  0  0  0
 27 28  1  0  0  0  0
 28 29  1  0  0  0  0
 29 30  2  0  0  0  0
 29 31  1  0  0  0  0
M  END
>  <MODEL>
3

>  <REMARK>
 VINA RESULT:      -7.2      3.959      7.808
  Name = 
  6 active torsions:
  status: ('A' for Active; 'I' for Inactive)
    1  A    between atoms: C_1  and  C_24
    2  A    between atoms: C_9  and  C_22
    3  A    between atoms: C_9  and  C_23
    4  A    between atoms: C_15  and  C_23
    5  A    between atoms: C_19  and  C_22
    6  A    between atoms: C_19  and  C_24
                            x       y       z     vdW  Elec       q    Type
                         _______ _______ _______ _____ _____    ______ ____

>  <TORSDO>
F 6

$$$$
=
 OpenBabel11052417573D

 31 34  0  0  1  0  0  0  0  0999 V2000
  189.7660  171.9180  141.6110 C   0  0  1  0  0  3  0  0  0  0  0  0
  190.1730  174.9870  143.8190 C   0  0  0  0  0  0  0  0  0  0  0  0
  191.5150  174.8900  144.4650 C   0  0  0  0  0  0  0  0  0  0  0  0
  193.2900  173.6340  145.5250 C   0  0  0  0  0  3  0  0  0  0  0  0
  189.6150  173.9940  143.0760 C   0  0  0  0  0  0  0  0  0  0  0  0
  188.9010  172.8000  140.7300 C   0  0  0  0  0  2  0  0  0  0  0  0
  192.0350  173.6700  144.9190 C   0  0  0  0  0  3  0  0  0  0  0  0
  188.2430  176.5590  143.0970 C   0  0  1  0  0  3  0  0  0  0  0  0
  190.7620  171.3300  140.8550 F   0  0  0  0  0  0  0  0  0  0  0  0
  191.6780  177.4180  144.2960 C   0  0  0  0  0  2  0  0  0  0  0  0
  194.0020  174.7790  145.6870 N   0  0  0  0  0  0  0  0  0  0  0  0
  188.1260  175.6420  141.8920 C   0  0  0  0  0  2  0  0  0  0  0  0
  189.5960  176.3950  143.8190 C   0  0  2  0  0  3  0  0  0  0  0  0
  190.3950  172.7480  142.7250 C   0  0  0  0  0  2  0  0  0  0  0  0
  194.3580  177.2010  145.5130 C   0  0  0  0  0  1  0  0  0  0  0  0
  188.2560  174.2290  142.4270 C   0  0  1  0  0  3  0  0  0  0  0  0
  187.8150  173.2600  141.4920 O   0  0  0  0  0  0  0  0  0  0  0  0
  190.6150  177.3050  143.2950 N   0  0  0  0  0  2  0  0  0  0  0  0
  192.2680  176.0700  144.6570 C   0  0  0  0  0  0  0  0  0  0  0  0
  193.5260  175.9850  145.2790 C   0  0  0  0  0  0  0  0  0  0  0  0
  187.9270  178.0100  142.7440 C   0  0  0  0  0  2  0  0  0  0  0  0
  185.6200  178.3260  141.9730 C   0  0  0  0  0  2  0  0  0  0  0  0
  186.4850  178.3230  142.9900 C   0  0  0  0  0  0  0  0  0  0  0  0
  185.6430  180.1000  144.3460 O   0  0  0  0  0  1  0  0  0  0  0  0
  186.0730  178.7700  144.3610 C   0  0  1  0  0  3  0  0  0  0  0  0
  183.9990  178.5920  145.5730 O   0  0  0  0  0  1  0  0  0  0  0  0
  185.0120  177.8470  144.9650 C   0  0  2  0  0  3  0  0  0  0  0  0
  185.6310  176.9040  145.9870 C   0  0  0  0  0  2  0  0  0  0  0  0
  186.6240  177.6260  146.8340 C   0  0  0  0  0  0  0  0  0  0  0  0
  186.1900  178.5340  147.7910 O   0  0  0  0  0  1  0  0  0  0  0  0
  187.8520  177.3910  146.7010 O   0  0  0  0  0  0  0  0  0  0  0  0
  1  9  1  6  0  0  0
  1 14  1  0  0  0  0
  2 13  1  0  0  0  0
  2  3  1  0  0  0  0
  3 19  2  0  0  0  0
  3  7  1  0  0  0  0
  4 11  1  0  0  0  0
  5  2  2  0  0  0  0
  6 17  1  0  0  0  0
  6  1  1  0  0  0  0
  7  4  2  0  0  0  0
  8 21  1  6  0  0  0
  8 13  1  0  0  0  0
 10 19  1  0  0  0  0
 12  8  1  0  0  0  0
 13 18  1  6  0  0  0
 14  5  1  0  0  0  0
 16 12  1  6  0  0  0
 16  5  1  0  0  0  0
 17 16  1  0  0  0  0
 18 10  1  0  0  0  0
 19 20  1  0  0  0  0
 20 15  1  0  0  0  0
 20 11  2  0  0  0  0
 21 23  1  0  0  0  0
 22 23  2  0  0  0  0
 23 25  1  0  0  0  0
 25 24  1  6  0  0  0
 25 27  1  0  0  0  0
 27 26  1  1  0  0  0
 27 28  1  0  0  0  0
 28 29  1  0  0  0  0
 29 30  1  0  0  0  0
 31 29  2  0  0  0  0
M  END
>  <MODEL>
4

>  <REMARK>
 VINA RESULT:      -7.1      3.381      7.000
  Name = 
  6 active torsions:
  status: ('A' for Active; 'I' for Inactive)
    1  A    between atoms: C_1  and  C_24
    2  A    between atoms: C_9  and  C_22
    3  A    between atoms: C_9  and  C_23
    4  A    between atoms: C_15  and  C_23
    5  A    between atoms: C_19  and  C_22
    6  A    between atoms: C_19  and  C_24
                            x       y       z     vdW  Elec       q    Type
                         _______ _______ _______ _____ _____    ______ ____

>  <TORSDO>
F 6

$$$$
=
 OpenBabel11052417573D

 31 34  0  0  1  0  0  0  0  0999 V2000
  189.8440  172.9390  140.7670 C   0  0  1  0  0  3  0  0  0  0  0  0
  190.2820  174.5490  144.1840 C   0  0  0  0  0  0  0  0  0  0  0  0
  191.6740  174.2560  144.6330 C   0  0  0  0  0  0  0  0  0  0  0  0
  193.5860  172.7890  144.8480 C   0  0  0  0  0  3  0  0  0  0  0  0
  189.7130  174.0080  143.0730 C   0  0  0  0  0  0  0  0  0  0  0  0
  188.8710  174.0670  140.4800 C   0  0  0  0  0  2  0  0  0  0  0  0
  192.2860  173.0180  144.3980 C   0  0  0  0  0  3  0  0  0  0  0  0
  188.2280  176.1120  144.4270 C   0  0  1  0  0  3  0  0  0  0  0  0
  190.8020  172.8820  139.7730 F   0  0  0  0  0  0  0  0  0  0  0  0
  191.7040  176.5450  145.7320 C   0  0  0  0  0  2  0  0  0  0  0  0
  194.2540  173.7600  145.5230 N   0  0  0  0  0  0  0  0  0  0  0  0
  188.0580  175.8990  142.9320 C   0  0  0  0  0  2  0  0  0  0  0  0
  189.6410  175.7240  144.9080 C   0  0  2  0  0  3  0  0  0  0  0  0
  190.5210  173.1620  142.1150 C   0  0  0  0  0  2  0  0  0  0  0  0
  194.4800  175.9750  146.5550 C   0  0  0  0  0  1  0  0  0  0  0  0
  188.2970  174.4210  142.6900 C   0  0  1  0  0  3  0  0  0  0  0  0
  187.8290  174.0040  141.4190 O   0  0  0  0  0  0  0  0  0  0  0  0
  190.5700  176.8520  144.8580 N   0  0  0  0  0  2  0  0  0  0  0  0
  192.3830  175.2460  145.3500 C   0  0  0  0  0  0  0  0  0  0  0  0
  193.6900  174.9690  145.7880 C   0  0  0  0  0  0  0  0  0  0  0  0
  187.8170  177.5180  144.8540 C   0  0  0  0  0  2  0  0  0  0  0  0
  186.6570  176.8440  146.9070 C   0  0  0  0  0  2  0  0  0  0  0  0
  186.6090  177.4820  145.7360 C   0  0  0  0  0  0  0  0  0  0  0  0
  184.7840  178.9790  146.1020 O   0  0  0  0  0  1  0  0  0  0  0  0
  185.3220  178.0460  145.2110 C   0  0  1  0  0  3  0  0  0  0  0  0
  185.3460  180.0310  143.8470 O   0  0  0  0  0  1  0  0  0  0  0  0
  185.4910  178.6420  143.8110 C   0  0  2  0  0  3  0  0  0  0  0  0
  184.4770  178.0510  142.8430 C   0  0  0  0  0  2  0  0  0  0  0  0
  184.8950  178.2930  141.4320 C   0  0  0  0  0  0  0  0  0  0  0  0
  186.2360  178.2120  141.0820 O   0  0  0  0  0  1  0  0  0  0  0  0
  184.0300  178.5410  140.5540 O   0  0  0  0  0  0  0  0  0  0  0  0
  1  9  1  6  0  0  0
  1 14  1  0  0  0  0
  2  3  1  0  0  0  0
  3 19  1  0  0  0  0
  4 11  2  0  0  0  0
  5  2  2  0  0  0  0
  6  1  1  0  0  0  0
  6 17  1  0  0  0  0
  7  3  2  0  0  0  0
  7  4  1  0  0  0  0
  8 21  1  6  0  0  0
  8 13  1  0  0  0  0
 11 20  1  0  0  0  0
 12  8  1  0  0  0  0
 13  2  1  6  0  0  0
 14  5  1  0  0  0  0
 16 12  1  6  0  0  0
 16  5  1  0  0  0  0
 17 16  1  0  0  0  0
 18 13  1  0  0  0  0
 18 10  1  0  0  0  0
 19 10  1  0  0  0  0
 19 20  2  0  0  0  0
 20 15  1  0  0  0  0
 21 23  1  0  0  0  0
 23 22  2  0  0  0  0
 25 23  1  0  0  0  0
 25 24  1  1  0  0  0
 27 26  1  1  0  0  0
 27 25  1  0  0  0  0
 28 27  1  0  0  0  0
 29 28  1  0  0  0  0
 30 29  1  0  0  0  0
 31 29  2  0  0  0  0
M  END
>  <MODEL>
5

>  <REMARK>
 VINA RESULT:      -7.1      3.410      6.988
  Name = 
  6 active torsions:
  status: ('A' for Active; 'I' for Inactive)
    1  A    between atoms: C_1  and  C_24
    2  A    between atoms: C_9  and  C_22
    3  A    between atoms: C_9  and  C_23
    4  A    between atoms: C_15  and  C_23
    5  A    between atoms: C_19  and  C_22
    6  A    between atoms: C_19  and  C_24
                            x       y       z     vdW  Elec       q    Type
                         _______ _______ _______ _____ _____    ______ ____

>  <TORSDO>
F 6

$$$$
=
 OpenBabel11052417573D

 31 34  0  0  1  0  0  0  0  0999 V2000
  191.4470  176.5540  148.1280 C   0  0  1  0  0  3  0  0  0  0  0  0
  188.9280  176.2010  145.3030 C   0  0  0  0  0  0  0  0  0  0  0  0
  187.8050  177.1400  145.5950 C   0  0  0  0  0  0  0  0  0  0  0  0
  186.2630  178.2200  147.1140 C   0  0  0  0  0  3  0  0  0  0  0  0
  189.9440  175.9410  146.1690 C   0  0  0  0  0  0  0  0  0  0  0  0
  192.4970  176.1990  147.0920 C   0  0  0  0  0  2  0  0  0  0  0  0
  187.3220  177.3400  146.8940 C   0  0  0  0  0  3  0  0  0  0  0  0
  190.1900  174.8600  143.4790 C   0  0  1  0  0  3  0  0  0  0  0  0
  191.7910  177.7340  148.7600 F   0  0  0  0  0  0  0  0  0  0  0  0
  187.5980  177.5260  143.0930 C   0  0  0  0  0  2  0  0  0  0  0  0
  185.6920  178.8730  146.0680 N   0  0  0  0  0  0  0  0  0  0  0  0
  191.4350  175.1980  144.2820 C   0  0  0  0  0  2  0  0  0  0  0  0
  189.0020  175.7720  143.8450 C   0  0  2  0  0  3  0  0  0  0  0  0
  190.0850  176.7120  147.4610 C   0  0  0  0  0  2  0  0  0  0  0  0
  185.4240  179.4280  143.6930 C   0  0  0  0  0  1  0  0  0  0  0  0
  191.0610  174.9980  145.7380 C   0  0  1  0  0  3  0  0  0  0  0  0
  192.2000  174.9260  146.5780 O   0  0  0  0  0  0  0  0  0  0  0  0
  188.9530  176.9740  143.0130 N   0  0  0  0  0  2  0  0  0  0  0  0
  187.1860  177.8190  144.5210 C   0  0  0  0  0  0  0  0  0  0  0  0
  186.1170  178.6930  144.7900 C   0  0  0  0  0  0  0  0  0  0  0  0
  190.4710  174.8180  141.9800 C   0  0  0  0  0  2  0  0  0  0  0  0
  192.2000  173.2130  141.3080 C   0  0  0  0  0  2  0  0  0  0  0  0
  190.9100  173.4530  141.5510 C   0  0  0  0  0  0  0  0  0  0  0  0
  189.6770  171.5740  142.3620 O   0  0  0  0  0  1  0  0  0  0  0  0
  189.8600  172.4210  141.2650 C   0  0  1  0  0  3  0  0  0  0  0  0
  187.5000  172.6740  141.6740 O   0  0  0  0  0  1  0  0  0  0  0  0
  188.5400  173.0590  140.8250 C   0  0  2  0  0  3  0  0  0  0  0  0
  188.1980  172.6670  139.3950 C   0  0  0  0  0  2  0  0  0  0  0  0
  188.6640  173.7110  138.4380 C   0  0  0  0  0  0  0  0  0  0  0  0
  190.0080  173.7960  138.1020 O   0  0  0  0  0  1  0  0  0  0  0  0
  187.8340  174.4970  137.9130 O   0  0  0  0  0  0  0  0  0  0  0  0
  1  9  1  6  0  0  0
  2  3  1  0  0  0  0
  2  5  2  0  0  0  0
  3  7  1  0  0  0  0
  5 14  1  0  0  0  0
  6  1  1  0  0  0  0
  7  4  2  0  0  0  0
  8 21  1  6  0  0  0
  8 13  1  0  0  0  0
  8 12  1  0  0  0  0
 10 19  1  0  0  0  0
 11  4  1  0  0  0  0
 13 18  1  6  0  0  0
 13  2  1  0  0  0  0
 14  1  1  0  0  0  0
 15 20  1  0  0  0  0
 16 12  1  6  0  0  0
 16  5  1  0  0  0  0
 16 17  1  0  0  0  0
 17  6  1  0  0  0  0
 18 10  1  0  0  0  0
 19 20  1  0  0  0  0
 19  3  2  0  0  0  0
 20 11  2  0  0  0  0
 22 23  2  0  0  0  0
 23 21  1  0  0  0  0
 25 23  1  0  0  0  0
 25 24  1  1  0  0  0
 27 25  1  0  0  0  0
 27 26  1  1  0  0  0
 28 27  1  0  0  0  0
 29 28  1  0  0  0  0
 30 29  1  0  0  0  0
 31 29  2  0  0  0  0
M  END
>  <MODEL>
6

>  <REMARK>
 VINA RESULT:      -7.0      2.931      5.457
  Name = 
  6 active torsions:
  status: ('A' for Active; 'I' for Inactive)
    1  A    between atoms: C_1  and  C_24
    2  A    between atoms: C_9  and  C_22
    3  A    between atoms: C_9  and  C_23
    4  A    between atoms: C_15  and  C_23
    5  A    between atoms: C_19  and  C_22
    6  A    between atoms: C_19  and  C_24
                            x       y       z     vdW  Elec       q    Type
                         _______ _______ _______ _____ _____    ______ ____

>  <TORSDO>
F 6

$$$$
=
 OpenBabel11052417573D

 31 34  0  0  1  0  0  0  0  0999 V2000
  191.2100  176.6470  148.0260 C   0  0  1  0  0  3  0  0  0  0  0  0
  188.4170  176.4320  145.4550 C   0  0  0  0  0  0  0  0  0  0  0  0
  187.3580  177.3960  145.8750 C   0  0  0  0  0  0  0  0  0  0  0  0
  186.0060  178.4850  147.5590 C   0  0  0  0  0  3  0  0  0  0  0  0
  189.5050  176.1230  146.2120 C   0  0  0  0  0  0  0  0  0  0  0  0
  192.1430  176.2850  146.8850 C   0  0  0  0  0  2  0  0  0  0  0  0
  187.0110  177.5800  147.2190 C   0  0  0  0  0  3  0  0  0  0  0  0
  189.4540  175.0970  143.4900 C   0  0  1  0  0  3  0  0  0  0  0  0
  191.6510  177.8010  148.6440 F   0  0  0  0  0  0  0  0  0  0  0  0
  186.9200  177.8450  143.4140 C   0  0  0  0  0  2  0  0  0  0  0  0
  185.3560  179.1780  146.5880 N   0  0  0  0  0  0  0  0  0  0  0  0
  190.7810  175.3800  144.1730 C   0  0  0  0  0  2  0  0  0  0  0  0
  188.3350  176.0350  143.9890 C   0  0  2  0  0  3  0  0  0  0  0  0
  189.7950  176.8600  147.4990 C   0  0  0  0  0  2  0  0  0  0  0  0
  184.8750  179.7950  144.2620 C   0  0  0  0  0  1  0  0  0  0  0  0
  190.5450  175.1580  145.6540 C   0  0  1  0  0  3  0  0  0  0  0  0
  191.7570  175.0340  146.3770 O   0  0  0  0  0  0  0  0  0  0  0  0
  188.2430  177.2560  143.1900 N   0  0  0  0  0  2  0  0  0  0  0  0
  186.6590  178.1170  144.8810 C   0  0  0  0  0  0  0  0  0  0  0  0
  185.6490  179.0150  145.2710 C   0  0  0  0  0  0  0  0  0  0  0  0
  189.5860  175.0810  141.9690 C   0  0  0  0  0  2  0  0  0  0  0  0
  187.9900  173.2490  141.6370 C   0  0  0  0  0  2  0  0  0  0  0  0
  189.2070  173.7470  141.4090 C   0  0  0  0  0  0  0  0  0  0  0  0
  190.6710  173.5430  139.5320 O   0  0  0  0  0  1  0  0  0  0  0  0
  190.2630  172.9330  140.7220 C   0  0  1  0  0  3  0  0  0  0  0  0
  192.6130  172.4350  140.8950 O   0  0  0  0  0  1  0  0  0  0  0  0
  191.4530  172.6510  141.6430 C   0  0  2  0  0  3  0  0  0  0  0  0
  191.1840  171.4400  142.5230 C   0  0  0  0  0  2  0  0  0  0  0  0
  191.1560  171.8310  143.9620 C   0  0  0  0  0  0  0  0  0  0  0  0
  189.9450  171.9110  144.6370 O   0  0  0  0  0  1  0  0  0  0  0  0
  192.2320  172.0620  144.5710 O   0  0  0  0  0  0  0  0  0  0  0  0
  1  9  1  6  0  0  0
  2  3  1  0  0  0  0
  2  5  2  0  0  0  0
  3  7  1  0  0  0  0
  5 14  1  0  0  0  0
  6  1  1  0  0  0  0
  7  4  2  0  0  0  0
  8 21  1  6  0  0  0
  8 13  1  0  0  0  0
  8 12  1  0  0  0  0
 10 19  1  0  0  0  0
 11  4  1  0  0  0  0
 13 18  1  6  0  0  0
 13  2  1  0  0  0  0
 14  1  1  0  0  0  0
 15 20  1  0  0  0  0
 16 12  1  6  0  0  0
 16  5  1  0  0  0  0
 16 17  1  0  0  0  0
 17  6  1  0  0  0  0
 18 10  1  0  0  0  0
 19 20  1  0  0  0  0
 19  3  2  0  0  0  0
 20 11  2  0  0  0  0
 23 22  2  0  0  0  0
 23 21  1  0  0  0  0
 25 24  1  6  0  0  0
 25 23  1  0  0  0  0
 25 27  1  0  0  0  0
 27 26  1  6  0  0  0
 27 28  1  0  0  0  0
 28 29  1  0  0  0  0
 29 31  2  0  0  0  0
 29 30  1  0  0  0  0
M  END
>  <MODEL>
7

>  <REMARK>
 VINA RESULT:      -7.0      2.844      4.958
  Name = 
  6 active torsions:
  status: ('A' for Active; 'I' for Inactive)
    1  A    between atoms: C_1  and  C_24
    2  A    between atoms: C_9  and  C_22
    3  A    between atoms: C_9  and  C_23
    4  A    between atoms: C_15  and  C_23
    5  A    between atoms: C_19  and  C_22
    6  A    between atoms: C_19  and  C_24
                            x       y       z     vdW  Elec       q    Type
                         _______ _______ _______ _____ _____    ______ ____

>  <TORSDO>
F 6

$$$$
=
 OpenBabel11052417573D

 31 34  0  0  1  0  0  0  0  0999 V2000
  191.2650  176.1440  147.7160 C   0  0  1  0  0  3  0  0  0  0  0  0
  188.3750  176.1860  145.2450 C   0  0  0  0  0  0  0  0  0  0  0  0
  187.4000  177.2080  145.7260 C   0  0  0  0  0  0  0  0  0  0  0  0
  186.1860  178.3430  147.4840 C   0  0  0  0  0  3  0  0  0  0  0  0
  189.4640  175.7840  145.9540 C   0  0  0  0  0  0  0  0  0  0  0  0
  192.1290  175.7490  146.5330 C   0  0  0  0  0  2  0  0  0  0  0  0
  187.1140  177.3810  147.0870 C   0  0  0  0  0  3  0  0  0  0  0  0
  189.2470  174.8340  143.2120 C   0  0  1  0  0  3  0  0  0  0  0  0
  191.8060  177.2490  148.3450 F   0  0  0  0  0  0  0  0  0  0  0  0
  186.9080  177.7490  143.2940 C   0  0  0  0  0  2  0  0  0  0  0  0
  185.5520  179.1030  146.5540 N   0  0  0  0  0  0  0  0  0  0  0  0
  190.6140  175.0090  143.8530 C   0  0  0  0  0  2  0  0  0  0  0  0
  188.2140  175.8330  143.7740 C   0  0  2  0  0  3  0  0  0  0  0  0
  189.8500  176.4660  147.2470 C   0  0  0  0  0  2  0  0  0  0  0  0
  185.0330  179.8120  144.2630 C   0  0  0  0  0  1  0  0  0  0  0  0
  190.4150  174.7650  145.3360 C   0  0  1  0  0  3  0  0  0  0  0  0
  191.6410  174.5410  146.0110 O   0  0  0  0  0  0  0  0  0  0  0  0
  188.1780  177.0780  143.0080 N   0  0  0  0  0  2  0  0  0  0  0  0
  186.7170  178.0000  144.7760 C   0  0  0  0  0  0  0  0  0  0  0  0
  185.7870  178.9550  145.2240 C   0  0  0  0  0  0  0  0  0  0  0  0
  189.3240  174.8490  141.6880 C   0  0  0  0  0  2  0  0  0  0  0  0
  187.9200  172.8490  141.8970 C   0  0  0  0  0  2  0  0  0  0  0  0
  188.5670  173.7010  141.0990 C   0  0  0  0  0  0  0  0  0  0  0  0
  188.1850  174.5410  138.8950 O   0  0  0  0  0  1  0  0  0  0  0  0
  188.6760  173.4530  139.6240 C   0  0  1  0  0  3  0  0  0  0  0  0
  190.4590  173.7740  138.0360 O   0  0  0  0  0  1  0  0  0  0  0  0
  190.1080  173.1040  139.2100 C   0  0  2  0  0  3  0  0  0  0  0  0
  190.2630  171.6040  139.0040 C   0  0  0  0  0  2  0  0  0  0  0  0
  190.8850  170.9700  140.2020 C   0  0  0  0  0  0  0  0  0  0  0  0
  191.5110  171.7580  141.1590 O   0  0  0  0  0  1  0  0  0  0  0  0
  190.8170  169.7240  140.3600 O   0  0  0  0  0  0  0  0  0  0  0  0
  1  9  1  6  0  0  0
  2  3  1  0  0  0  0
  2  5  2  0  0  0  0
  3  7  1  0  0  0  0
  5 14  1  0  0  0  0
  6  1  1  0  0  0  0
  7  4  2  0  0  0  0
  8 21  1  6  0  0  0
  8 13  1  0  0  0  0
  8 12  1  0  0  0  0
 10 19  1  0  0  0  0
 11  4  1  0  0  0  0
 13 18  1  6  0  0  0
 13  2  1  0  0  0  0
 14  1  1  0  0  0  0
 15 20  1  0  0  0  0
 16 12  1  6  0  0  0
 16  5  1  0  0  0  0
 16 17  1  0  0  0  0
 17  6  1  0  0  0  0
 18 10  1  0  0  0  0
 19 20  1  0  0  0  0
 19  3  2  0  0  0  0
 20 11  2  0  0  0  0
 23 21  1  0  0  0  0
 23 22  2  0  0  0  0
 25 24  1  6  0  0  0
 25 23  1  0  0  0  0
 27 26  1  6  0  0  0
 27 25  1  0  0  0  0
 28 27  1  0  0  0  0
 28 29  1  0  0  0  0
 29 31  2  0  0  0  0
 29 30  1  0  0  0  0
M  END
>  <MODEL>
8

>  <REMARK>
 VINA RESULT:      -6.9      2.925      5.346
  Name = 
  6 active torsions:
  status: ('A' for Active; 'I' for Inactive)
    1  A    between atoms: C_1  and  C_24
    2  A    between atoms: C_9  and  C_22
    3  A    between atoms: C_9  and  C_23
    4  A    between atoms: C_15  and  C_23
    5  A    between atoms: C_19  and  C_22
    6  A    between atoms: C_19  and  C_24
                            x       y       z     vdW  Elec       q    Type
                         _______ _______ _______ _____ _____    ______ ____

>  <TORSDO>
F 6

$$$$
=
 OpenBabel11052417573D

 31 34  0  0  1  0  0  0  0  0999 V2000
  184.5430  178.1870  140.4670 C   0  0  1  0  0  3  0  0  0  0  0  0
  186.8370  177.9330  143.4890 C   0  0  0  0  0  0  0  0  0  0  0  0
  185.9800  178.0630  144.7030 C   0  0  0  0  0  0  0  0  0  0  0  0
  184.1370  179.0460  145.9240 C   0  0  0  0  0  3  0  0  0  0  0  0
  186.3870  178.1250  142.2190 C   0  0  0  0  0  0  0  0  0  0  0  0
  185.5370  177.2760  139.7710 C   0  0  0  0  0  2  0  0  0  0  0  0
  184.9010  178.9550  144.7610 C   0  0  0  0  0  3  0  0  0  0  0  0
  189.0810  177.0680  142.5220 C   0  0  1  0  0  3  0  0  0  0  0  0
  183.2710  177.6540  140.3720 F   0  0  0  0  0  0  0  0  0  0  0  0
  187.5260  176.4120  145.8580 C   0  0  0  0  0  2  0  0  0  0  0  0
  184.4450  178.2810  147.0030 N   0  0  0  0  0  0  0  0  0  0  0  0
  188.2640  176.7320  141.2850 C   0  0  0  0  0  2  0  0  0  0  0  0
  188.1880  177.2900  143.7600 C   0  0  2  0  0  3  0  0  0  0  0  0
  184.9190  178.3470  141.9360 C   0  0  0  0  0  2  0  0  0  0  0  0
  185.7830  176.6290  148.2290 C   0  0  0  0  0  1  0  0  0  0  0  0
  187.3480  177.9180  141.0540 C   0  0  1  0  0  3  0  0  0  0  0  0
  186.7870  177.9150  139.7530 O   0  0  0  0  0  0  0  0  0  0  0  0
  187.9630  176.0530  144.5060 N   0  0  0  0  0  2  0  0  0  0  0  0
  186.2900  177.2880  145.8440 C   0  0  0  0  0  0  0  0  0  0  0  0
  185.4950  177.4180  146.9960 C   0  0  0  0  0  0  0  0  0  0  0  0
  190.1950  176.0540  142.7630 C   0  0  0  0  0  2  0  0  0  0  0  0
  191.5570  177.9500  143.5160 C   0  0  0  0  0  2  0  0  0  0  0  0
  191.2900  176.6440  143.5940 C   0  0  0  0  0  0  0  0  0  0  0  0
  193.1390  175.1300  143.5840 O   0  0  0  0  0  1  0  0  0  0  0  0
  192.1620  175.7200  144.3910 C   0  0  1  0  0  3  0  0  0  0  0  0
  194.1760  176.4810  145.4720 O   0  0  0  0  0  1  0  0  0  0  0  0
  192.7860  176.4260  145.5980 C   0  0  2  0  0  3  0  0  0  0  0  0
  192.4220  175.7140  146.8920 C   0  0  0  0  0  2  0  0  0  0  0  0
  190.9980  175.9730  147.2520 C   0  0  0  0  0  0  0  0  0  0  0  0
  190.1700  174.9180  147.6120 O   0  0  0  0  0  1  0  0  0  0  0  0
  190.5550  177.1500  147.2570 O   0  0  0  0  0  0  0  0  0  0  0  0
  1  9  1  1  0  0  0
  1 14  1  0  0  0  0
  2  3  1  0  0  0  0
  3  7  2  0  0  0  0
  3 19  1  0  0  0  0
  4 11  2  0  0  0  0
  5  2  2  0  0  0  0
  6  1  1  0  0  0  0
  7  4  1  0  0  0  0
  8 21  1  1  0  0  0
  8 13  1  0  0  0  0
 12  8  1  0  0  0  0
 13  2  1  6  0  0  0
 13 18  1  0  0  0  0
 14  5  1  0  0  0  0
 16 12  1  1  0  0  0
 16  5  1  0  0  0  0
 17  6  1  0  0  0  0
 17 16  1  0  0  0  0
 18 10  1  0  0  0  0
 19 10  1  0  0  0  0
 19 20  2  0  0  0  0
 20 11  1  0  0  0  0
 20 15  1  0  0  0  0
 21 23  1  0  0  0  0
 22 23  2  0  0  0  0
 23 25  1  0  0  0  0
 25 24  1  6  0  0  0
 25 27  1  0  0  0  0
 27 26  1  6  0  0  0
 27 28  1  0  0  0  0
 28 29  1  0  0  0  0
 29 31  2  0  0  0  0
 29 30  1  0  0  0  0
M  END
>  <MODEL>
9

>  <REMARK>
 VINA RESULT:      -6.9      2.643      4.005
  Name = 
  6 active torsions:
  status: ('A' for Active; 'I' for Inactive)
    1  A    between atoms: C_1  and  C_24
    2  A    between atoms: C_9  and  C_22
    3  A    between atoms: C_9  and  C_23
    4  A    between atoms: C_15  and  C_23
    5  A    between atoms: C_19  and  C_22
    6  A    between atoms: C_19  and  C_24
                            x       y       z     vdW  Elec       q    Type
                         _______ _______ _______ _____ _____    ______ ____

>  <TORSDO>
F 6

$$$$
