=
 OpenBabel11052418213D

 27 31  0  0  1  0  0  0  0  0999 V2000
  186.0720  177.7000  147.1070 N   0  0  0  0  0  2  0  0  0  0  0  0
  184.0530  178.6520  146.4050 O   0  0  0  0  0  0  0  0  0  0  0  0
  189.4950  176.2740  146.3460 C   0  0  1  0  0  3  0  0  0  0  0  0
  188.5900  177.6210  144.3800 C   0  0  0  0  0  2  0  0  0  0  0  0
  186.0690  178.8700  144.6460 S   0  0  0  0  0  0  0  0  0  0  0  0
  189.4400  176.4070  144.8000 C   0  0  2  0  0  3  0  0  0  0  0  0
  185.2720  178.4270  146.1870 C   0  0  0  0  0  0  0  0  0  0  0  0
  187.3980  177.5460  146.5510 C   0  0  2  0  0  3  0  0  0  0  0  0
  187.2240  177.5260  145.0460 C   0  0  2  0  0  3  0  0  0  0  0  0
  188.1020  176.2740  146.9900 C   0  0  0  0  0  2  0  0  0  0  0  0
  190.3090  175.0770  146.8240 C   0  0  0  0  0  2  0  0  0  0  0  0
  194.5030  175.7390  146.2080 C   0  0  0  0  0  3  0  0  0  0  0  0
  191.7680  175.3060  146.6140 C   0  0  0  0  0  0  0  0  0  0  0  0
  192.3700  176.4830  147.0790 C   0  0  0  0  0  3  0  0  0  0  0  0
  193.7360  176.6980  146.8750 C   0  0  0  0  0  3  0  0  0  0  0  0
  193.9050  174.5630  145.7440 C   0  0  0  0  0  3  0  0  0  0  0  0
  192.5390  174.3480  145.9480 C   0  0  0  0  0  3  0  0  0  0  0  0
  188.9010  175.1460  144.1250 C   0  0  0  0  0  2  0  0  0  0  0  0
  189.6650  172.8530  143.4900 C   0  0  2  0  0  0  0  0  0  0  0  0
  191.7810  174.4810  141.7070 C   0  0  0  0  0  1  0  0  0  0  0  0
  189.3520  174.3620  141.0510 C   0  0  0  0  0  2  0  0  0  0  0  0
  190.7740  172.0260  143.7240 O   0  0  0  0  0  0  0  0  0  0  0  0
  189.7890  172.0740  144.7350 C   0  0  0  0  0  2  0  0  0  0  0  0
  190.3610  174.8480  142.1020 C   0  0  1  0  0  3  0  0  0  0  0  0
  189.2410  172.8350  141.0340 C   0  0  0  0  0  2  0  0  0  0  0  0
  188.7660  172.3150  142.3860 C   0  0  0  0  0  2  0  0  0  0  0  0
  190.0350  174.3350  143.5130 C   0  0  1  0  0  3  0  0  0  0  0  0
  3 11  1  6  0  0  0
  3 10  1  0  0  0  0
  4  6  1  0  0  0  0
  5  9  1  0  0  0  0
  5  7  1  0  0  0  0
  6 18  1  6  0  0  0
  6  3  1  0  0  0  0
  7  2  2  0  0  0  0
  7  1  1  0  0  0  0
  8 10  1  1  0  0  0
  8  1  1  0  0  0  0
  9  4  1  6  0  0  0
  9  8  1  0  0  0  0
 12 15  1  0  0  0  0
 13 11  1  0  0  0  0
 13 14  1  0  0  0  0
 15 14  2  0  0  0  0
 16 17  1  0  0  0  0
 16 12  2  0  0  0  0
 17 13  2  0  0  0  0
 19 26  1  6  0  0  0
 19 27  1  0  0  0  0
 19 22  1  0  0  0  0
 19 23  1  0  0  0  0
 21 24  1  0  0  0  0
 22 23  1  0  0  0  0
 24 20  1  6  0  0  0
 24 27  1  0  0  0  0
 25 21  1  0  0  0  0
 25 26  1  0  0  0  0
 27 18  1  6  0  0  0
M  END
>  <MODEL>
1

>  <REMARK>
 VINA RESULT:      -7.6      0.000      0.000
  Name = 
  4 active torsions:
  status: ('A' for Active; 'I' for Inactive)
    1  A    between atoms: C_2  and  C_6
    2  A    between atoms: C_2  and  C_9
    3  A    between atoms: C_3  and  C_14
    4  A    between atoms: C_3  and  C_26
                            x       y       z     vdW  Elec       q    Type
                         _______ _______ _______ _____ _____    ______ ____

>  <TORSDO>
F 4

$$$$
=
 OpenBabel11052418213D

 27 31  0  0  1  0  0  0  0  0999 V2000
  186.1340  177.3380  147.0090 N   0  0  0  0  0  2  0  0  0  0  0  0
  184.0830  178.0720  146.1530 O   0  0  0  0  0  0  0  0  0  0  0  0
  189.7060  176.1910  146.5050 C   0  0  1  0  0  3  0  0  0  0  0  0
  188.8010  177.3610  144.4290 C   0  0  0  0  0  2  0  0  0  0  0  0
  186.1700  178.3890  144.4960 S   0  0  0  0  0  0  0  0  0  0  0  0
  189.7280  176.2490  144.9530 C   0  0  2  0  0  3  0  0  0  0  0  0
  185.3270  177.9480  146.0120 C   0  0  0  0  0  0  0  0  0  0  0  0
  187.4970  177.2780  146.5330 C   0  0  2  0  0  3  0  0  0  0  0  0
  187.4130  177.1740  145.0240 C   0  0  2  0  0  3  0  0  0  0  0  0
  188.2820  176.0950  147.0730 C   0  0  0  0  0  2  0  0  0  0  0  0
  190.5920  175.0950  147.0850 C   0  0  0  0  0  2  0  0  0  0  0  0
  194.7140  175.7680  146.1050 C   0  0  0  0  0  3  0  0  0  0  0  0
  192.0240  175.3290  146.7400 C   0  0  0  0  0  0  0  0  0  0  0  0
  192.7700  174.3240  146.1120 C   0  0  0  0  0  3  0  0  0  0  0  0
  194.1150  174.5440  145.7950 C   0  0  0  0  0  3  0  0  0  0  0  0
  193.9710  176.7730  146.7310 C   0  0  0  0  0  3  0  0  0  0  0  0
  192.6270  176.5530  147.0470 C   0  0  0  0  0  3  0  0  0  0  0  0
  189.3410  174.9160  144.3140 C   0  0  0  0  0  2  0  0  0  0  0  0
  190.7650  174.0940  142.4330 C   0  0  2  0  0  0  0  0  0  0  0  0
  188.2640  175.0350  140.6520 C   0  0  0  0  0  1  0  0  0  0  0  0
  188.1340  172.9630  142.0790 C   0  0  0  0  0  2  0  0  0  0  0  0
  191.4960  174.6410  141.3670 O   0  0  0  0  0  0  0  0  0  0  0  0
  192.1170  174.6430  142.6360 C   0  0  0  0  0  2  0  0  0  0  0  0
  188.2950  174.4900  142.0700 C   0  0  1  0  0  3  0  0  0  0  0  0
  189.3620  172.2600  141.4930 C   0  0  0  0  0  2  0  0  0  0  0  0
  190.6090  172.5840  142.3090 C   0  0  0  0  0  2  0  0  0  0  0  0
  189.5610  174.9540  142.8080 C   0  0  1  0  0  3  0  0  0  0  0  0
  3 10  1  0  0  0  0
  3 11  1  6  0  0  0
  4  6  1  0  0  0  0
  5  9  1  0  0  0  0
  5  7  1  0  0  0  0
  6 18  1  6  0  0  0
  6  3  1  0  0  0  0
  7  2  2  0  0  0  0
  7  1  1  0  0  0  0
  8  1  1  0  0  0  0
  8 10  1  1  0  0  0
  9  4  1  6  0  0  0
  9  8  1  0  0  0  0
 12 16  1  0  0  0  0
 13 17  1  0  0  0  0
 13 11  1  0  0  0  0
 14 13  2  0  0  0  0
 15 12  2  0  0  0  0
 15 14  1  0  0  0  0
 16 17  2  0  0  0  0
 19 26  1  1  0  0  0
 19 23  1  0  0  0  0
 19 27  1  0  0  0  0
 22 19  1  0  0  0  0
 22 23  1  0  0  0  0
 24 20  1  6  0  0  0
 24 21  1  0  0  0  0
 24 27  1  0  0  0  0
 25 21  1  0  0  0  0
 25 26  1  0  0  0  0
 27 18  1  1  0  0  0
M  END
>  <MODEL>
2

>  <REMARK>
 VINA RESULT:      -7.4      1.069      1.795
  Name = 
  4 active torsions:
  status: ('A' for Active; 'I' for Inactive)
    1  A    between atoms: C_2  and  C_6
    2  A    between atoms: C_2  and  C_9
    3  A    between atoms: C_3  and  C_14
    4  A    between atoms: C_3  and  C_26
                            x       y       z     vdW  Elec       q    Type
                         _______ _______ _______ _____ _____    ______ ____

>  <TORSDO>
F 4

$$$$
=
 OpenBabel11052418213D

 27 31  0  0  1  0  0  0  0  0999 V2000
  183.9220  178.0720  142.6470 N   0  0  0  0  0  2  0  0  0  0  0  0
  183.0830  178.2380  140.4690 O   0  0  0  0  0  0  0  0  0  0  0  0
  186.7300  177.2670  145.0550 C   0  0  1  0  0  3  0  0  0  0  0  0
  187.6020  177.5900  142.6820 C   0  0  0  0  0  2  0  0  0  0  0  0
  185.7610  178.2580  140.6450 S   0  0  0  0  0  0  0  0  0  0  0  0
  187.7860  176.8260  144.0060 C   0  0  2  0  0  3  0  0  0  0  0  0
  184.0740  178.2270  141.2440 C   0  0  0  0  0  0  0  0  0  0  0  0
  185.2320  178.0290  143.2560 C   0  0  2  0  0  3  0  0  0  0  0  0
  186.1610  177.4370  142.2160 C   0  0  2  0  0  3  0  0  0  0  0  0
  185.2940  177.1870  144.5180 C   0  0  0  0  0  2  0  0  0  0  0  0
  186.8490  176.5310  146.3840 C   0  0  0  0  0  2  0  0  0  0  0  0
  190.9590  176.1580  147.5580 C   0  0  0  0  0  3  0  0  0  0  0  0
  188.2770  176.4030  146.7960 C   0  0  0  0  0  0  0  0  0  0  0  0
  189.0770  177.5450  146.9300 C   0  0  0  0  0  3  0  0  0  0  0  0
  190.4170  177.4210  147.3100 C   0  0  0  0  0  3  0  0  0  0  0  0
  190.1630  175.0160  147.4250 C   0  0  0  0  0  3  0  0  0  0  0  0
  188.8230  175.1400  147.0460 C   0  0  0  0  0  3  0  0  0  0  0  0
  187.7510  175.3220  143.7390 C   0  0  0  0  0  2  0  0  0  0  0  0
  190.1170  174.5760  143.4410 C   0  0  2  0  0  0  0  0  0  0  0  0
  189.0620  173.7150  140.5330 C   0  0  0  0  0  1  0  0  0  0  0  0
  188.4160  172.4070  142.5870 C   0  0  0  0  0  2  0  0  0  0  0  0
  191.2480  174.9750  142.7120 O   0  0  0  0  0  0  0  0  0  0  0  0
  190.9830  175.6720  143.9120 C   0  0  0  0  0  2  0  0  0  0  0  0
  188.3230  173.7560  141.8590 C   0  0  1  0  0  3  0  0  0  0  0  0
  189.8390  172.1260  143.0800 C   0  0  0  0  0  2  0  0  0  0  0  0
  190.2900  173.1990  144.0650 C   0  0  0  0  0  2  0  0  0  0  0  0
  188.8150  174.9280  142.7240 C   0  0  1  0  0  3  0  0  0  0  0  0
  1  8  1  0  0  0  0
  2  7  2  0  0  0  0
  3 11  1  1  0  0  0
  4  6  1  0  0  0  0
  5  7  1  0  0  0  0
  5  9  1  0  0  0  0
  6 18  1  6  0  0  0
  6  3  1  0  0  0  0
  7  1  1  0  0  0  0
  8 10  1  1  0  0  0
  9  4  1  1  0  0  0
  9  8  1  0  0  0  0
 10  3  1  0  0  0  0
 11 13  1  0  0  0  0
 13 14  2  0  0  0  0
 13 17  1  0  0  0  0
 14 15  1  0  0  0  0
 15 12  2  0  0  0  0
 16 12  1  0  0  0  0
 17 16  2  0  0  0  0
 19 23  1  1  0  0  0
 19 26  1  0  0  0  0
 21 25  1  0  0  0  0
 22 19  1  0  0  0  0
 22 23  1  0  0  0  0
 24 20  1  6  0  0  0
 24 21  1  0  0  0  0
 24 27  1  0  0  0  0
 25 26  1  0  0  0  0
 27 19  1  0  0  0  0
 27 18  1  1  0  0  0
M  END
>  <MODEL>
3

>  <REMARK>
 VINA RESULT:      -7.2      2.461      3.466
  Name = 
  4 active torsions:
  status: ('A' for Active; 'I' for Inactive)
    1  A    between atoms: C_2  and  C_6
    2  A    between atoms: C_2  and  C_9
    3  A    between atoms: C_3  and  C_14
    4  A    between atoms: C_3  and  C_26
                            x       y       z     vdW  Elec       q    Type
                         _______ _______ _______ _____ _____    ______ ____

>  <TORSDO>
F 4

$$$$
=
 OpenBabel11052418213D

 27 31  0  0  1  0  0  0  0  0999 V2000
  184.5000  177.8710  142.7210 N   0  0  0  0  0  2  0  0  0  0  0  0
  183.6370  178.2280  140.5750 O   0  0  0  0  0  0  0  0  0  0  0  0
  187.3470  176.8980  145.0190 C   0  0  1  0  0  3  0  0  0  0  0  0
  188.1900  177.4670  142.6820 C   0  0  0  0  0  2  0  0  0  0  0  0
  186.3160  178.2890  140.7330 S   0  0  0  0  0  0  0  0  0  0  0  0
  188.4020  176.5840  143.9240 C   0  0  2  0  0  3  0  0  0  0  0  0
  184.6350  178.1640  141.3380 C   0  0  0  0  0  0  0  0  0  0  0  0
  185.8160  177.7980  143.3130 C   0  0  2  0  0  3  0  0  0  0  0  0
  186.7480  177.3290  142.2140 C   0  0  2  0  0  3  0  0  0  0  0  0
  185.9070  176.8390  144.4870 C   0  0  0  0  0  2  0  0  0  0  0  0
  187.4940  176.0410  146.2700 C   0  0  0  0  0  2  0  0  0  0  0  0
  191.3610  176.5720  148.0520 C   0  0  0  0  0  3  0  0  0  0  0  0
  188.8400  176.2240  146.8860 C   0  0  0  0  0  0  0  0  0  0  0  0
  189.5570  175.1150  147.3550 C   0  0  0  0  0  3  0  0  0  0  0  0
  190.8160  175.2910  147.9380 C   0  0  0  0  0  3  0  0  0  0  0  0
  190.6480  177.6800  147.5840 C   0  0  0  0  0  3  0  0  0  0  0  0
  189.3900  177.5050  147.0010 C   0  0  0  0  0  3  0  0  0  0  0  0
  188.3960  175.1120  143.5140 C   0  0  0  0  0  2  0  0  0  0  0  0
  189.9420  173.2120  143.0210 C   0  0  2  0  0  0  0  0  0  0  0  0
  192.0310  175.0010  144.6790 C   0  0  0  0  0  1  0  0  0  0  0  0
  191.3310  175.6500  142.3470 C   0  0  0  0  0  2  0  0  0  0  0  0
  190.5600  172.1660  143.7240 O   0  0  0  0  0  0  0  0  0  0  0  0
  189.2180  171.9670  143.3320 C   0  0  0  0  0  2  0  0  0  0  0  0
  190.8720  175.4320  143.7970 C   0  0  1  0  0  3  0  0  0  0  0  0
  191.7110  174.3320  141.6690 C   0  0  0  0  0  2  0  0  0  0  0  0
  190.5160  173.3850  141.6220 C   0  0  0  0  0  2  0  0  0  0  0  0
  189.7050  174.4370  143.9020 C   0  0  1  0  0  3  0  0  0  0  0  0
  1  8  1  0  0  0  0
  2  7  2  0  0  0  0
  3 11  1  1  0  0  0
  4  6  1  0  0  0  0
  5  7  1  0  0  0  0
  5  9  1  0  0  0  0
  6 18  1  6  0  0  0
  6  3  1  0  0  0  0
  7  1  1  0  0  0  0
  8 10  1  1  0  0  0
  9  4  1  1  0  0  0
  9  8  1  0  0  0  0
 10  3  1  0  0  0  0
 11 13  1  0  0  0  0
 13 17  2  0  0  0  0
 13 14  1  0  0  0  0
 14 15  2  0  0  0  0
 15 12  1  0  0  0  0
 16 12  2  0  0  0  0
 17 16  1  0  0  0  0
 19 26  1  6  0  0  0
 19 23  1  0  0  0  0
 19 22  1  0  0  0  0
 19 27  1  0  0  0  0
 21 24  1  0  0  0  0
 23 22  1  0  0  0  0
 24 27  1  0  0  0  0
 24 20  1  1  0  0  0
 25 21  1  0  0  0  0
 26 25  1  0  0  0  0
 27 18  1  6  0  0  0
M  END
>  <MODEL>
4

>  <REMARK>
 VINA RESULT:      -6.9      2.247      3.198
  Name = 
  4 active torsions:
  status: ('A' for Active; 'I' for Inactive)
    1  A    between atoms: C_2  and  C_6
    2  A    between atoms: C_2  and  C_9
    3  A    between atoms: C_3  and  C_14
    4  A    between atoms: C_3  and  C_26
                            x       y       z     vdW  Elec       q    Type
                         _______ _______ _______ _____ _____    ______ ____

>  <TORSDO>
F 4

$$$$
=
 OpenBabel11052418213D

 27 31  0  0  1  0  0  0  0  0999 V2000
  185.1250  178.1850  143.7870 N   0  0  0  0  0  2  0  0  0  0  0  0
  183.4280  178.2460  142.1760 O   0  0  0  0  0  0  0  0  0  0  0  0
  188.6320  177.2450  144.8590 C   0  0  1  0  0  3  0  0  0  0  0  0
  188.3920  177.2070  142.3210 C   0  0  0  0  0  2  0  0  0  0  0  0
  185.9020  177.9160  141.1890 S   0  0  0  0  0  0  0  0  0  0  0  0
  189.0790  176.5610  143.5380 C   0  0  2  0  0  3  0  0  0  0  0  0
  184.6550  178.1770  142.4470 C   0  0  0  0  0  0  0  0  0  0  0  0
  186.5610  178.0230  143.7780 C   0  0  2  0  0  3  0  0  0  0  0  0
  186.8860  177.2080  142.5420 C   0  0  2  0  0  3  0  0  0  0  0  0
  187.1050  177.3100  145.0030 C   0  0  0  0  0  2  0  0  0  0  0  0
  189.2660  176.6360  146.1040 C   0  0  0  0  0  2  0  0  0  0  0  0
  193.4650  175.9780  145.5180 C   0  0  0  0  0  3  0  0  0  0  0  0
  190.7260  176.4110  145.9020 C   0  0  0  0  0  0  0  0  0  0  0  0
  191.4560  177.2470  145.0470 C   0  0  0  0  0  3  0  0  0  0  0  0
  192.8240  177.0290  144.8560 C   0  0  0  0  0  3  0  0  0  0  0  0
  192.7380  175.1440  146.3730 C   0  0  0  0  0  3  0  0  0  0  0  0
  191.3710  175.3610  146.5640 C   0  0  0  0  0  3  0  0  0  0  0  0
  188.8100  175.0570  143.5400 C   0  0  0  0  0  2  0  0  0  0  0  0
  189.8480  172.7860  143.6340 C   0  0  2  0  0  0  0  0  0  0  0  0
  192.2530  174.2570  142.0970 C   0  0  0  0  0  1  0  0  0  0  0  0
  190.0890  173.7320  140.9180 C   0  0  0  0  0  2  0  0  0  0  0  0
  190.9060  172.1550  144.3050 O   0  0  0  0  0  0  0  0  0  0  0  0
  189.6910  172.2910  145.0120 C   0  0  0  0  0  2  0  0  0  0  0  0
  190.7600  174.5300  142.0460 C   0  0  1  0  0  3  0  0  0  0  0  0
  190.0790  172.2310  141.2150 C   0  0  0  0  0  2  0  0  0  0  0  0
  189.3010  171.9390  142.4940 C   0  0  0  0  0  2  0  0  0  0  0  0
  190.1100  174.2750  143.4160 C   0  0  1  0  0  3  0  0  0  0  0  0
  2  7  2  0  0  0  0
  3 10  1  0  0  0  0
  3 11  1  1  0  0  0
  4  6  1  0  0  0  0
  5  7  1  0  0  0  0
  5  9  1  0  0  0  0
  6 18  1  1  0  0  0
  6  3  1  0  0  0  0
  7  1  1  0  0  0  0
  8  1  1  0  0  0  0
  8 10  1  1  0  0  0
  9  4  1  6  0  0  0
  9  8  1  0  0  0  0
 12 16  1  0  0  0  0
 13 11  1  0  0  0  0
 13 17  1  0  0  0  0
 14 13  2  0  0  0  0
 15 14  1  0  0  0  0
 15 12  2  0  0  0  0
 16 17  2  0  0  0  0
 19 26  1  6  0  0  0
 19 22  1  0  0  0  0
 19 23  1  0  0  0  0
 21 25  1  0  0  0  0
 21 24  1  0  0  0  0
 22 23  1  0  0  0  0
 24 20  1  1  0  0  0
 24 27  1  0  0  0  0
 25 26  1  0  0  0  0
 27 18  1  6  0  0  0
 27 19  1  0  0  0  0
M  END
>  <MODEL>
5

>  <REMARK>
 VINA RESULT:      -6.7      1.838      2.083
  Name = 
  4 active torsions:
  status: ('A' for Active; 'I' for Inactive)
    1  A    between atoms: C_2  and  C_6
    2  A    between atoms: C_2  and  C_9
    3  A    between atoms: C_3  and  C_14
    4  A    between atoms: C_3  and  C_26
                            x       y       z     vdW  Elec       q    Type
                         _______ _______ _______ _____ _____    ______ ____

>  <TORSDO>
F 4

$$$$
=
 OpenBabel11052418213D

 27 31  0  0  1  0  0  0  0  0999 V2000
  190.5550  170.6490  140.8500 N   0  0  0  0  0  2  0  0  0  0  0  0
  192.4420  169.2640  140.8400 O   0  0  0  0  0  0  0  0  0  0  0  0
  188.8270  173.8740  141.8200 C   0  0  1  0  0  3  0  0  0  0  0  0
  191.3610  174.0810  142.0100 C   0  0  0  0  0  2  0  0  0  0  0  0
  192.9550  171.8580  141.3020 S   0  0  0  0  0  0  0  0  0  0  0  0
  190.0070  174.5190  142.5980 C   0  0  2  0  0  3  0  0  0  0  0  0
  191.9550  170.4210  140.9280 C   0  0  0  0  0  0  0  0  0  0  0  0
  190.3000  172.0570  141.0530 C   0  0  2  0  0  3  0  0  0  0  0  0
  191.4110  172.5610  141.9520 C   0  0  2  0  0  3  0  0  0  0  0  0
  188.9600  172.3490  141.7030 C   0  0  0  0  0  2  0  0  0  0  0  0
  187.4580  174.2560  142.3690 C   0  0  0  0  0  2  0  0  0  0  0  0
  186.9090  178.5100  142.2890 C   0  0  0  0  0  3  0  0  0  0  0  0
  187.2640  175.7340  142.3380 C   0  0  0  0  0  0  0  0  0  0  0  0
  187.7150  176.4810  141.2410 C   0  0  0  0  0  3  0  0  0  0  0  0
  187.5370  177.8680  141.2180 C   0  0  0  0  0  3  0  0  0  0  0  0
  186.4580  177.7670  143.3840 C   0  0  0  0  0  3  0  0  0  0  0  0
  186.6350  176.3810  143.4070 C   0  0  0  0  0  3  0  0  0  0  0  0
  189.9680  174.1940  144.0910 C   0  0  0  0  0  2  0  0  0  0  0  0
  190.1110  175.1920  146.3770 C   0  0  2  0  0  0  0  0  0  0  0  0
  190.0300  177.9560  144.7440 C   0  0  0  0  0  1  0  0  0  0  0  0
  192.0900  176.5060  144.7380 C   0  0  0  0  0  2  0  0  0  0  0  0
  189.2770  175.8990  147.2560 O   0  0  0  0  0  0  0  0  0  0  0  0
  189.1250  174.4950  147.2210 C   0  0  0  0  0  2  0  0  0  0  0  0
  190.6090  176.6100  144.3440 C   0  0  1  0  0  3  0  0  0  0  0  0
  192.2690  176.4350  146.2570 C   0  0  0  0  0  2  0  0  0  0  0  0
  191.5660  175.2070  146.8260 C   0  0  0  0  0  2  0  0  0  0  0  0
  189.7650  175.4590  144.9130 C   0  0  1  0  0  3  0  0  0  0  0  0
  1  7  1  0  0  0  0
  1  8  1  0  0  0  0
  2  7  2  0  0  0  0
  3 11  1  1  0  0  0
  3  6  1  0  0  0  0
  4  6  1  0  0  0  0
  5  9  1  0  0  0  0
  6 18  1  1  0  0  0
  7  5  1  0  0  0  0
  8 10  1  1  0  0  0
  8  9  1  0  0  0  0
  9  4  1  6  0  0  0
 10  3  1  0  0  0  0
 12 16  1  0  0  0  0
 13 11  1  0  0  0  0
 13 17  1  0  0  0  0
 14 13  2  0  0  0  0
 15 14  1  0  0  0  0
 15 12  2  0  0  0  0
 16 17  2  0  0  0  0
 19 26  1  1  0  0  0
 19 23  1  0  0  0  0
 19 22  1  0  0  0  0
 21 25  1  0  0  0  0
 23 22  1  0  0  0  0
 24 21  1  0  0  0  0
 24 20  1  1  0  0  0
 24 27  1  0  0  0  0
 25 26  1  0  0  0  0
 27 18  1  6  0  0  0
 27 19  1  0  0  0  0
M  END
>  <MODEL>
6

>  <REMARK>
 VINA RESULT:      -6.6      3.577      7.113
  Name = 
  4 active torsions:
  status: ('A' for Active; 'I' for Inactive)
    1  A    between atoms: C_2  and  C_6
    2  A    between atoms: C_2  and  C_9
    3  A    between atoms: C_3  and  C_14
    4  A    between atoms: C_3  and  C_26
                            x       y       z     vdW  Elec       q    Type
                         _______ _______ _______ _____ _____    ______ ____

>  <TORSDO>
F 4

$$$$
=
 OpenBabel11052418213D

 27 31  0  0  1  0  0  0  0  0999 V2000
  194.7080  176.2210  145.1790 N   0  0  0  0  0  2  0  0  0  0  0  0
  196.6510  174.9360  144.9530 O   0  0  0  0  0  0  0  0  0  0  0  0
  190.9410  176.5650  145.0550 C   0  0  1  0  0  3  0  0  0  0  0  0
  191.6490  174.1190  145.1730 C   0  0  0  0  0  2  0  0  0  0  0  0
  194.4050  173.5180  145.3330 S   0  0  0  0  0  0  0  0  0  0  0  0
  190.6110  175.1110  144.6180 C   0  0  2  0  0  3  0  0  0  0  0  0
  195.4130  174.9880  145.1680 C   0  0  0  0  0  0  0  0  0  0  0  0
  193.3030  175.9530  145.3810 C   0  0  2  0  0  3  0  0  0  0  0  0
  193.0430  174.5860  144.7800 C   0  0  2  0  0  3  0  0  0  0  0  0
  192.3850  176.9690  144.7250 C   0  0  0  0  0  2  0  0  0  0  0  0
  189.9570  177.5980  144.5190 C   0  0  0  0  0  2  0  0  0  0  0  0
  186.0390  176.9690  146.1510 C   0  0  0  0  0  3  0  0  0  0  0  0
  188.5950  177.3830  145.0890 C   0  0  0  0  0  0  0  0  0  0  0  0
  188.4450  176.9800  146.4220 C   0  0  0  0  0  3  0  0  0  0  0  0
  187.1670  176.7730  146.9510 C   0  0  0  0  0  3  0  0  0  0  0  0
  186.1860  177.3720  144.8200 C   0  0  0  0  0  3  0  0  0  0  0  0
  187.4630  177.5790  144.2910 C   0  0  0  0  0  3  0  0  0  0  0  0
  190.5230  174.9650  143.1000 C   0  0  0  0  0  2  0  0  0  0  0  0
  188.6650  174.0250  141.7180 C   0  0  2  0  0  0  0  0  0  0  0  0
  190.1640  171.2470  142.3080 C   0  0  0  0  0  1  0  0  0  0  0  0
  191.1340  172.9290  140.7020 C   0  0  0  0  0  2  0  0  0  0  0  0
  187.5200  173.2380  141.9150 O   0  0  0  0  0  0  0  0  0  0  0  0
  187.4100  174.6140  142.2150 C   0  0  0  0  0  2  0  0  0  0  0  0
  190.7380  172.6450  142.1590 C   0  0  1  0  0  3  0  0  0  0  0  0
  189.9070  173.0420  139.7930 C   0  0  0  0  0  2  0  0  0  0  0  0
  189.0070  174.1880  140.2440 C   0  0  0  0  0  2  0  0  0  0  0  0
  189.7690  173.6970  142.7220 C   0  0  1  0  0  3  0  0  0  0  0  0
  1  8  1  0  0  0  0
  2  7  2  0  0  0  0
  3 11  1  6  0  0  0
  6 18  1  6  0  0  0
  6  3  1  0  0  0  0
  6  4  1  0  0  0  0
  7  1  1  0  0  0  0
  7  5  1  0  0  0  0
  8 10  1  6  0  0  0
  9  4  1  1  0  0  0
  9  5  1  0  0  0  0
  9  8  1  0  0  0  0
 10  3  1  0  0  0  0
 11 13  1  0  0  0  0
 12 15  1  0  0  0  0
 13 14  1  0  0  0  0
 14 15  2  0  0  0  0
 16 12  2  0  0  0  0
 17 16  1  0  0  0  0
 17 13  2  0  0  0  0
 19 26  1  6  0  0  0
 19 22  1  0  0  0  0
 19 23  1  0  0  0  0
 19 27  1  0  0  0  0
 21 24  1  0  0  0  0
 22 23  1  0  0  0  0
 24 20  1  6  0  0  0
 24 27  1  0  0  0  0
 25 26  1  0  0  0  0
 25 21  1  0  0  0  0
 27 18  1  6  0  0  0
M  END
>  <MODEL>
7

>  <REMARK>
 VINA RESULT:      -6.5      3.379      5.932
  Name = 
  4 active torsions:
  status: ('A' for Active; 'I' for Inactive)
    1  A    between atoms: C_2  and  C_6
    2  A    between atoms: C_2  and  C_9
    3  A    between atoms: C_3  and  C_14
    4  A    between atoms: C_3  and  C_26
                            x       y       z     vdW  Elec       q    Type
                         _______ _______ _______ _____ _____    ______ ____

>  <TORSDO>
F 4

$$$$
=
 OpenBabel11052418213D

 27 31  0  0  1  0  0  0  0  0999 V2000
  195.3160  175.5030  145.8820 N   0  0  0  0  0  2  0  0  0  0  0  0
  197.2180  174.1450  145.7620 O   0  0  0  0  0  0  0  0  0  0  0  0
  191.6680  176.1570  145.1120 C   0  0  1  0  0  3  0  0  0  0  0  0
  192.2510  173.6910  144.8340 C   0  0  0  0  0  2  0  0  0  0  0  0
  194.8930  172.8570  145.3880 S   0  0  0  0  0  0  0  0  0  0  0  0
  191.3840  174.8530  144.3170 C   0  0  2  0  0  3  0  0  0  0  0  0
  195.9650  174.2470  145.7410 C   0  0  0  0  0  0  0  0  0  0  0  0
  193.8900  175.3090  145.7470 C   0  0  2  0  0  3  0  0  0  0  0  0
  193.7120  174.1180  144.8270 C   0  0  2  0  0  3  0  0  0  0  0  0
  193.1620  176.5060  145.1610 C   0  0  0  0  0  2  0  0  0  0  0  0
  190.8510  177.3510  144.6330 C   0  0  0  0  0  2  0  0  0  0  0  0
  186.7460  176.9750  145.8230 C   0  0  0  0  0  3  0  0  0  0  0  0
  189.4250  177.2230  145.0490 C   0  0  0  0  0  0  0  0  0  0  0  0
  189.0940  176.5400  146.2270 C   0  0  0  0  0  3  0  0  0  0  0  0
  187.7550  176.4160  146.6110 C   0  0  0  0  0  3  0  0  0  0  0  0
  187.0750  177.6590  144.6480 C   0  0  0  0  0  3  0  0  0  0  0  0
  188.4130  177.7830  144.2630 C   0  0  0  0  0  3  0  0  0  0  0  0
  191.6030  175.0270  142.8150 C   0  0  0  0  0  2  0  0  0  0  0  0
  190.5790  173.5340  141.0930 C   0  0  2  0  0  0  0  0  0  0  0  0
  187.8340  174.6340  142.3450 C   0  0  0  0  0  1  0  0  0  0  0  0
  189.2640  172.9840  143.6020 C   0  0  0  0  0  2  0  0  0  0  0  0
  189.8720  173.6690  139.8890 O   0  0  0  0  0  0  0  0  0  0  0  0
  191.2770  173.7910  139.8210 C   0  0  0  0  0  2  0  0  0  0  0  0
  189.1780  174.4000  143.0120 C   0  0  1  0  0  3  0  0  0  0  0  0
  189.3160  171.9160  142.5070 C   0  0  0  0  0  2  0  0  0  0  0  0
  190.5450  172.1080  141.6240 C   0  0  0  0  0  2  0  0  0  0  0  0
  190.3320  174.7050  142.0420 C   0  0  1  0  0  3  0  0  0  0  0  0
  3 11  1  6  0  0  0
  3 10  1  0  0  0  0
  5  7  1  0  0  0  0
  6 18  1  6  0  0  0
  6  4  1  0  0  0  0
  6  3  1  0  0  0  0
  7  2  2  0  0  0  0
  7  1  1  0  0  0  0
  8 10  1  6  0  0  0
  8  1  1  0  0  0  0
  9  4  1  1  0  0  0
  9  5  1  0  0  0  0
  9  8  1  0  0  0  0
 11 13  1  0  0  0  0
 12 15  1  0  0  0  0
 13 14  1  0  0  0  0
 14 15  2  0  0  0  0
 16 12  2  0  0  0  0
 17 16  1  0  0  0  0
 17 13  2  0  0  0  0
 19 23  1  6  0  0  0
 19 26  1  0  0  0  0
 19 27  1  0  0  0  0
 22 19  1  0  0  0  0
 23 22  1  0  0  0  0
 24 20  1  6  0  0  0
 24 21  1  0  0  0  0
 25 21  1  0  0  0  0
 26 25  1  0  0  0  0
 27 18  1  1  0  0  0
 27 24  1  0  0  0  0
M  END
>  <MODEL>
8

>  <REMARK>
 VINA RESULT:      -6.5      3.663      6.160
  Name = 
  4 active torsions:
  status: ('A' for Active; 'I' for Inactive)
    1  A    between atoms: C_2  and  C_6
    2  A    between atoms: C_2  and  C_9
    3  A    between atoms: C_3  and  C_14
    4  A    between atoms: C_3  and  C_26
                            x       y       z     vdW  Elec       q    Type
                         _______ _______ _______ _____ _____    ______ ____

>  <TORSDO>
F 4

$$$$
=
 OpenBabel11052418213D

 27 31  0  0  1  0  0  0  0  0999 V2000
  186.0130  179.1690  142.9520 N   0  0  0  0  0  2  0  0  0  0  0  0
  185.0910  180.8740  144.2630 O   0  0  0  0  0  0  0  0  0  0  0  0
  188.1310  176.0510  142.5960 C   0  0  1  0  0  3  0  0  0  0  0  0
  187.4900  176.4700  145.0280 C   0  0  0  0  0  2  0  0  0  0  0  0
  185.8590  178.6970  145.6310 S   0  0  0  0  0  0  0  0  0  0  0  0
  188.5750  175.9290  144.0790 C   0  0  2  0  0  3  0  0  0  0  0  0
  185.5660  179.7120  144.1850 C   0  0  0  0  0  0  0  0  0  0  0  0
  186.5660  177.8560  143.1940 C   0  0  2  0  0  3  0  0  0  0  0  0
  187.1180  177.8830  144.6040 C   0  0  2  0  0  3  0  0  0  0  0  0
  187.6750  177.4710  142.2300 C   0  0  0  0  0  2  0  0  0  0  0  0
  189.1730  175.5480  141.6050 C   0  0  0  0  0  2  0  0  0  0  0  0
  190.1520  171.4390  142.3590 C   0  0  0  0  0  3  0  0  0  0  0  0
  189.5160  174.1210  141.8700 C   0  0  0  0  0  0  0  0  0  0  0  0
  190.8020  173.6420  141.5910 C   0  0  0  0  0  3  0  0  0  0  0  0
  191.1180  172.3020  141.8350 C   0  0  0  0  0  3  0  0  0  0  0  0
  188.8670  171.9160  142.6390 C   0  0  0  0  0  3  0  0  0  0  0  0
  188.5510  173.2550  142.3950 C   0  0  0  0  0  3  0  0  0  0  0  0
  189.8980  176.6450  144.3520 C   0  0  0  0  0  2  0  0  0  0  0  0
  192.0500  176.3410  145.5830 C   0  0  2  0  0  0  0  0  0  0  0  0
  191.2650  173.2340  145.3880 C   0  0  0  0  0  1  0  0  0  0  0  0
  190.0460  174.7840  146.9550 C   0  0  0  0  0  2  0  0  0  0  0  0
  193.3370  175.8450  145.3200 O   0  0  0  0  0  0  0  0  0  0  0  0
  193.0640  177.1660  144.9010 C   0  0  0  0  0  2  0  0  0  0  0  0
  190.3690  174.4560  145.4900 C   0  0  1  0  0  3  0  0  0  0  0  0
  191.2800  175.2910  147.7070 C   0  0  0  0  0  2  0  0  0  0  0  0
  191.8130  176.5690  147.0690 C   0  0  0  0  0  2  0  0  0  0  0  0
  190.9820  175.6490  144.7400 C   0  0  1  0  0  3  0  0  0  0  0  0
  1  8  1  0  0  0  0
  1  7  1  0  0  0  0
  3 11  1  6  0  0  0
  3  6  1  0  0  0  0
  6 18  1  6  0  0  0
  6  4  1  0  0  0  0
  7  2  2  0  0  0  0
  7  5  1  0  0  0  0
  8 10  1  6  0  0  0
  8  9  1  0  0  0  0
  9  4  1  1  0  0  0
  9  5  1  0  0  0  0
 10  3  1  0  0  0  0
 11 13  1  0  0  0  0
 12 16  1  0  0  0  0
 13 17  1  0  0  0  0
 14 15  1  0  0  0  0
 14 13  2  0  0  0  0
 15 12  2  0  0  0  0
 17 16  2  0  0  0  0
 19 23  1  6  0  0  0
 19 26  1  0  0  0  0
 21 25  1  0  0  0  0
 22 19  1  0  0  0  0
 23 22  1  0  0  0  0
 24 20  1  1  0  0  0
 24 21  1  0  0  0  0
 26 25  1  0  0  0  0
 27 18  1  1  0  0  0
 27 24  1  0  0  0  0
 27 19  1  0  0  0  0
M  END
>  <MODEL>
9

>  <REMARK>
 VINA RESULT:      -6.5      2.036      4.809
  Name = 
  4 active torsions:
  status: ('A' for Active; 'I' for Inactive)
    1  A    between atoms: C_2  and  C_6
    2  A    between atoms: C_2  and  C_9
    3  A    between atoms: C_3  and  C_14
    4  A    between atoms: C_3  and  C_26
                            x       y       z     vdW  Elec       q    Type
                         _______ _______ _______ _____ _____    ______ ____

>  <TORSDO>
F 4

$$$$
