=
 OpenBabel11052417173D

 30 34  0  0  1  0  0  0  0  0999 V2000
  187.9840  175.7490  143.8450 N   0  0  0  0  0  2  0  0  0  0  0  0
  187.4570  176.3870  141.5290 C   0  0  0  0  0  0  0  0  0  0  0  0
  185.4840  178.9670  145.3400 C   0  0  0  0  0  2  0  0  0  0  0  0
  188.1610  176.1280  145.2460 C   0  0  2  0  0  3  0  0  0  0  0  0
  185.0380  178.7730  146.7850 C   0  0  0  0  0  2  0  0  0  0  0  0
  186.8330  177.2530  140.6280 C   0  0  0  0  0  3  0  0  0  0  0  0
  188.4020  175.0440  140.9080 Cl  0  0  0  0  0  0  0  0  0  0  0  0
  186.4020  177.8690  144.8490 C   0  0  0  0  0  0  0  0  0  0  0  0
  186.0820  178.3330  141.0970 C   0  0  0  0  0  3  0  0  0  0  0  0
  187.3380  176.6110  142.9080 C   0  0  0  0  0  0  0  0  0  0  0  0
  187.1140  177.1090  145.7190 C   0  0  0  0  0  0  0  0  0  0  0  0
  186.2570  178.4980  147.6450 C   0  0  0  0  0  2  0  0  0  0  0  0
  186.8810  177.1800  147.2080 C   0  0  0  0  0  2  0  0  0  0  0  0
  185.9490  178.5480  142.4710 C   0  0  0  0  0  3  0  0  0  0  0  0
  186.5760  177.6900  143.3870 C   0  0  0  0  0  0  0  0  0  0  0  0
  189.5740  176.6720  145.5130 C   0  0  2  0  0  3  0  0  0  0  0  0
  190.8490  178.2270  143.6420 S   0  0  0  0  0  0  0  0  0  0  0  0
  190.4750  176.7790  144.3110 C   0  0  0  0  0  0  0  0  0  0  0  0
  191.5520  174.8250  142.6180 C   0  0  0  0  0  0  0  0  0  0  0  0
  191.2110  174.2340  143.7390 O   0  0  0  0  0  0  0  0  0  0  0  0
  191.0990  175.6040  143.8060 N   0  0  0  0  0  0  0  0  0  0  0  0
  192.8720  175.5940  142.3910 C   0  0  0  0  0  2  0  0  0  0  0  0
  192.9340  174.1480  142.5130 C   0  0  0  0  0  2  0  0  0  0  0  0
  190.1080  174.7920  146.9260 O   0  0  0  0  0  1  0  0  0  0  0  0
  190.2540  176.1740  146.7940 C   0  0  1  0  0  3  0  0  0  0  0  0
  191.7150  176.6090  146.9710 C   0  0  0  0  0  2  0  0  0  0  0  0
  192.7210  175.4700  146.8460 C   0  0  0  0  0  2  0  0  0  0  0  0
  193.9600  177.1180  145.4400 O   0  0  0  0  0  0  0  0  0  0  0  0
  193.9530  175.9160  146.1350 C   0  0  0  0  0  0  0  0  0  0  0  0
  194.9870  175.1990  146.1610 O   0  0  0  0  0  1  0  0  0  0  0  0
  1  4  1  0  0  0  0
  2 10  1  0  0  0  0
  3  5  1  0  0  0  0
  4 16  1  6  0  0  0
  4 11  1  0  0  0  0
  5 12  1  0  0  0  0
  6  9  1  0  0  0  0
  6  2  2  0  0  0  0
  7  2  1  0  0  0  0
  8  3  1  0  0  0  0
  8 11  2  0  0  0  0
  9 14  2  0  0  0  0
 10 15  2  0  0  0  0
 10  1  1  0  0  0  0
 11 13  1  0  0  0  0
 13 12  1  0  0  0  0
 14 15  1  0  0  0  0
 15  8  1  0  0  0  0
 16 18  1  6  0  0  0
 16 25  1  0  0  0  0
 17 18  2  0  0  0  0
 19 20  1  0  0  0  0
 19 21  1  0  0  0  0
 20 21  1  0  0  0  0
 21 18  1  0  0  0  0
 22 23  1  0  0  0  0
 22 19  1  0  0  0  0
 23 19  1  0  0  0  0
 25 24  1  6  0  0  0
 25 26  1  0  0  0  0
 27 26  1  0  0  0  0
 28 29  2  0  0  0  0
 29 30  1  0  0  0  0
 29 27  1  0  0  0  0
M  END
>  <MODEL>
1

>  <REMARK>
 VINA RESULT:      -7.4      0.000      0.000
  Name = 
  7 active torsions:
  status: ('A' for Active; 'I' for Inactive)
    1  A    between atoms: C_4  and  C_13
    2  A    between atoms: C_7  and  C_15
    3  A    between atoms: C_7  and  C_16
    4  A    between atoms: C_8  and  N_12
    5  A    between atoms: C_8  and  C_13
    6  A    between atoms: C_13  and  C_30
    7  A    between atoms: C_16  and  C_30
                            x       y       z     vdW  Elec       q    Type
                         _______ _______ _______ _____ _____    ______ ____

>  <TORSDO>
F 7

$$$$
=
 OpenBabel11052417173D

 30 34  0  0  1  0  0  0  0  0999 V2000
  190.2380  177.4180  144.4090 N   0  0  0  0  0  2  0  0  0  0  0  0
  192.0160  176.4310  145.7940 C   0  0  0  0  0  0  0  0  0  0  0  0
  187.2530  176.2220  147.3250 C   0  0  0  0  0  2  0  0  0  0  0  0
  188.8440  177.4280  143.9710 C   0  0  2  0  0  3  0  0  0  0  0  0
  185.9500  177.0050  147.2200 C   0  0  0  0  0  2  0  0  0  0  0  0
  192.4040  175.7060  146.9230 C   0  0  0  0  0  3  0  0  0  0  0  0
  193.2450  176.9740  144.6630 Cl  0  0  0  0  0  0  0  0  0  0  0  0
  188.2650  176.6070  146.2670 C   0  0  0  0  0  0  0  0  0  0  0  0
  191.4450  175.2570  147.8330 C   0  0  0  0  0  3  0  0  0  0  0  0
  190.6570  176.6960  145.5680 C   0  0  0  0  0  0  0  0  0  0  0  0
  187.8760  177.1940  145.1070 C   0  0  0  0  0  0  0  0  0  0  0  0
  185.4560  176.9550  145.7860 C   0  0  0  0  0  2  0  0  0  0  0  0
  186.4610  177.6710  144.8940 C   0  0  0  0  0  2  0  0  0  0  0  0
  190.0930  175.5340  147.6180 C   0  0  0  0  0  3  0  0  0  0  0  0
  189.6890  176.2540  146.4840 C   0  0  0  0  0  0  0  0  0  0  0  0
  188.6000  176.4230  142.8340 C   0  0  2  0  0  3  0  0  0  0  0  0
  191.1190  175.6540  142.0560 S   0  0  0  0  0  0  0  0  0  0  0  0
  189.6360  175.3420  142.6770 C   0  0  0  0  0  0  0  0  0  0  0  0
  189.8680  172.6770  143.5090 C   0  0  0  0  0  0  0  0  0  0  0  0
  188.6170  172.8780  143.1640 O   0  0  0  0  0  0  0  0  0  0  0  0
  189.3580  174.0370  143.1740 N   0  0  0  0  0  0  0  0  0  0  0  0
  190.4740  173.0430  144.8800 C   0  0  0  0  0  2  0  0  0  0  0  0
  189.5370  171.9350  144.8210 C   0  0  0  0  0  2  0  0  0  0  0  0
  187.7330  175.9940  140.6240 O   0  0  0  0  0  1  0  0  0  0  0  0
  188.0700  177.0110  141.5200 C   0  0  1  0  0  3  0  0  0  0  0  0
  186.9360  178.0340  141.6710 C   0  0  0  0  0  2  0  0  0  0  0  0
  185.9240  178.0110  140.5290 C   0  0  0  0  0  2  0  0  0  0  0  0
  184.2520  177.9130  142.3800 O   0  0  0  0  0  1  0  0  0  0  0  0
  184.5320  178.1580  141.0420 C   0  0  0  0  0  0  0  0  0  0  0  0
  183.6090  178.5020  140.2600 O   0  0  0  0  0  0  0  0  0  0  0  0
  1 10  1  0  0  0  0
  2  6  1  0  0  0  0
  4 16  1  6  0  0  0
  4  1  1  0  0  0  0
  4 11  1  0  0  0  0
  5  3  1  0  0  0  0
  6  9  2  0  0  0  0
  7  2  1  0  0  0  0
  8 15  1  0  0  0  0
  8  3  1  0  0  0  0
 10  2  2  0  0  0  0
 10 15  1  0  0  0  0
 11  8  2  0  0  0  0
 12  5  1  0  0  0  0
 13 11  1  0  0  0  0
 13 12  1  0  0  0  0
 14  9  1  0  0  0  0
 15 14  2  0  0  0  0
 16 18  1  6  0  0  0
 17 18  2  0  0  0  0
 18 21  1  0  0  0  0
 19 23  1  0  0  0  0
 19 22  1  0  0  0  0
 20 21  1  0  0  0  0
 20 19  1  0  0  0  0
 21 19  1  0  0  0  0
 23 22  1  0  0  0  0
 25 24  1  6  0  0  0
 25 26  1  0  0  0  0
 25 16  1  0  0  0  0
 27 29  1  0  0  0  0
 27 26  1  0  0  0  0
 29 28  1  0  0  0  0
 30 29  2  0  0  0  0
M  END
>  <MODEL>
2

>  <REMARK>
 VINA RESULT:      -7.0      3.206      6.030
  Name = 
  7 active torsions:
  status: ('A' for Active; 'I' for Inactive)
    1  A    between atoms: C_4  and  C_13
    2  A    between atoms: C_7  and  C_15
    3  A    between atoms: C_7  and  C_16
    4  A    between atoms: C_8  and  N_12
    5  A    between atoms: C_8  and  C_13
    6  A    between atoms: C_13  and  C_30
    7  A    between atoms: C_16  and  C_30
                            x       y       z     vdW  Elec       q    Type
                         _______ _______ _______ _____ _____    ______ ____

>  <TORSDO>
F 7

$$$$
=
 OpenBabel11052417173D

 30 34  0  0  1  0  0  0  0  0999 V2000
  188.2370  177.9160  145.5990 N   0  0  0  0  0  2  0  0  0  0  0  0
  186.3560  178.4510  147.0910 C   0  0  0  0  0  0  0  0  0  0  0  0
  185.5130  177.5250  142.2420 C   0  0  0  0  0  2  0  0  0  0  0  0
  188.7460  177.2340  144.4100 C   0  0  2  0  0  3  0  0  0  0  0  0
  186.1940  177.6570  140.8850 C   0  0  0  0  0  2  0  0  0  0  0  0
  184.9820  178.6020  147.2940 C   0  0  0  0  0  3  0  0  0  0  0  0
  187.4510  178.6880  148.4420 Cl  0  0  0  0  0  0  0  0  0  0  0  0
  186.4810  177.6040  143.4030 C   0  0  0  0  0  0  0  0  0  0  0  0
  184.0900  178.4120  146.2360 C   0  0  0  0  0  3  0  0  0  0  0  0
  186.8380  178.0940  145.8220 C   0  0  0  0  0  0  0  0  0  0  0  0
  187.7990  177.3290  143.2360 C   0  0  0  0  0  0  0  0  0  0  0  0
  187.3730  176.7020  140.8280 C   0  0  0  0  0  2  0  0  0  0  0  0
  188.4000  177.1270  141.8680 C   0  0  0  0  0  2  0  0  0  0  0  0
  184.5710  178.0720  144.9690 C   0  0  0  0  0  3  0  0  0  0  0  0
  185.9470  177.9100  144.7530 C   0  0  0  0  0  0  0  0  0  0  0  0
  189.1020  175.7680  144.7040 C   0  0  2  0  0  3  0  0  0  0  0  0
  188.9630  174.7980  147.2700 S   0  0  0  0  0  0  0  0  0  0  0  0
  189.7660  175.5050  146.0290 C   0  0  0  0  0  0  0  0  0  0  0  0
  192.4510  175.4400  146.8240 C   0  0  0  0  0  0  0  0  0  0  0  0
  192.1860  176.6620  146.4240 O   0  0  0  0  0  0  0  0  0  0  0  0
  191.1540  175.7860  146.1760 N   0  0  0  0  0  0  0  0  0  0  0  0
  192.8130  174.2650  145.8920 C   0  0  0  0  0  2  0  0  0  0  0  0
  193.7880  175.3270  146.0630 C   0  0  0  0  0  2  0  0  0  0  0  0
  190.9340  175.4220  143.1730 O   0  0  0  0  0  1  0  0  0  0  0  0
  189.6620  174.9640  143.5240 C   0  0  1  0  0  3  0  0  0  0  0  0
  189.6360  173.4390  143.7000 C   0  0  0  0  0  2  0  0  0  0  0  0
  189.7030  172.6630  142.3880 C   0  0  0  0  0  2  0  0  0  0  0  0
  188.7400  173.5300  140.2560 O   0  0  0  0  0  0  0  0  0  0  0  0
  188.5380  172.9820  141.5150 C   0  0  0  0  0  0  0  0  0  0  0  0
  187.3690  172.7590  141.9230 O   0  0  0  0  0  1  0  0  0  0  0  0
  1 10  1  0  0  0  0
  2  6  1  0  0  0  0
  2  7  1  0  0  0  0
  3  8  1  0  0  0  0
  4 16  1  1  0  0  0
  4  1  1  0  0  0  0
  5  3  1  0  0  0  0
  8 15  1  0  0  0  0
  9  6  2  0  0  0  0
 10  2  2  0  0  0  0
 11  8  2  0  0  0  0
 11  4  1  0  0  0  0
 12  5  1  0  0  0  0
 12 13  1  0  0  0  0
 13 11  1  0  0  0  0
 14  9  1  0  0  0  0
 15 14  2  0  0  0  0
 15 10  1  0  0  0  0
 16 18  1  1  0  0  0
 18 21  1  0  0  0  0
 18 17  2  0  0  0  0
 20 19  1  0  0  0  0
 21 20  1  0  0  0  0
 21 19  1  0  0  0  0
 22 23  1  0  0  0  0
 22 19  1  0  0  0  0
 23 19  1  0  0  0  0
 25 24  1  1  0  0  0
 25 26  1  0  0  0  0
 25 16  1  0  0  0  0
 27 26  1  0  0  0  0
 28 29  2  0  0  0  0
 29 30  1  0  0  0  0
 29 27  1  0  0  0  0
M  END
>  <MODEL>
3

>  <REMARK>
 VINA RESULT:      -7.0      2.630      5.031
  Name = 
  7 active torsions:
  status: ('A' for Active; 'I' for Inactive)
    1  A    between atoms: C_4  and  C_13
    2  A    between atoms: C_7  and  C_15
    3  A    between atoms: C_7  and  C_16
    4  A    between atoms: C_8  and  N_12
    5  A    between atoms: C_8  and  C_13
    6  A    between atoms: C_13  and  C_30
    7  A    between atoms: C_16  and  C_30
                            x       y       z     vdW  Elec       q    Type
                         _______ _______ _______ _____ _____    ______ ____

>  <TORSDO>
F 7

$$$$
=
 OpenBabel11052417173D

 30 34  0  0  1  0  0  0  0  0999 V2000
  187.6800  175.3720  143.1730 N   0  0  0  0  0  2  0  0  0  0  0  0
  187.3810  176.1400  140.8560 C   0  0  0  0  0  0  0  0  0  0  0  0
  185.4680  178.8070  144.6380 C   0  0  0  0  0  2  0  0  0  0  0  0
  187.8070  175.6830  144.5960 C   0  0  2  0  0  3  0  0  0  0  0  0
  184.9100  178.6200  146.0440 C   0  0  0  0  0  2  0  0  0  0  0  0
  186.9180  177.1010  139.9530 C   0  0  0  0  0  3  0  0  0  0  0  0
  188.2060  174.7180  140.2410 Cl  0  0  0  0  0  0  0  0  0  0  0  0
  186.2860  177.6270  144.1610 C   0  0  0  0  0  0  0  0  0  0  0  0
  186.2650  178.2450  140.4180 C   0  0  0  0  0  3  0  0  0  0  0  0
  187.1980  176.3330  142.2330 C   0  0  0  0  0  0  0  0  0  0  0  0
  186.8490  176.7620  145.0420 C   0  0  0  0  0  0  0  0  0  0  0  0
  186.0310  178.1780  146.9660 C   0  0  0  0  0  2  0  0  0  0  0  0
  186.5300  176.8120  146.5160 C   0  0  0  0  0  2  0  0  0  0  0  0
  186.0690  178.4300  141.7880 C   0  0  0  0  0  3  0  0  0  0  0  0
  186.5340  177.4760  142.7060 C   0  0  0  0  0  0  0  0  0  0  0  0
  189.2520  176.0510  144.9690 C   0  0  2  0  0  3  0  0  0  0  0  0
  189.2960  174.6530  147.3330 S   0  0  0  0  0  0  0  0  0  0  0  0
  189.9540  175.0990  145.9010 C   0  0  0  0  0  0  0  0  0  0  0  0
  191.8650  173.2840  144.9530 C   0  0  0  0  0  0  0  0  0  0  0  0
  192.4900  174.1620  145.7020 O   0  0  0  0  0  0  0  0  0  0  0  0
  191.1730  174.4930  145.4830 N   0  0  0  0  0  0  0  0  0  0  0  0
  191.4910  173.4970  143.4700 C   0  0  0  0  0  2  0  0  0  0  0  0
  192.8930  173.3190  143.8030 C   0  0  0  0  0  2  0  0  0  0  0  0
  190.0380  177.7240  146.5200 O   0  0  0  0  0  1  0  0  0  0  0  0
  189.5180  177.5380  145.2370 C   0  0  1  0  0  3  0  0  0  0  0  0
  190.3610  178.2550  144.1730 C   0  0  0  0  0  2  0  0  0  0  0  0
  190.8880  177.3350  143.0770 C   0  0  0  0  0  2  0  0  0  0  0  0
  193.0880  176.4930  142.2540 O   0  0  0  0  0  0  0  0  0  0  0  0
  192.3280  177.0140  143.2920 C   0  0  0  0  0  0  0  0  0  0  0  0
  192.8540  177.2130  144.4180 O   0  0  0  0  0  1  0  0  0  0  0  0
  1  4  1  0  0  0  0
  2 10  1  0  0  0  0
  3  5  1  0  0  0  0
  4 16  1  6  0  0  0
  4 11  1  0  0  0  0
  5 12  1  0  0  0  0
  6  9  1  0  0  0  0
  6  2  2  0  0  0  0
  7  2  1  0  0  0  0
  8  3  1  0  0  0  0
  8 11  2  0  0  0  0
  9 14  2  0  0  0  0
 10 15  2  0  0  0  0
 10  1  1  0  0  0  0
 11 13  1  0  0  0  0
 13 12  1  0  0  0  0
 14 15  1  0  0  0  0
 15  8  1  0  0  0  0
 16 25  1  0  0  0  0
 16 18  1  1  0  0  0
 18 17  2  0  0  0  0
 19 21  1  0  0  0  0
 19 20  1  0  0  0  0
 21 20  1  0  0  0  0
 21 18  1  0  0  0  0
 22 23  1  0  0  0  0
 22 19  1  0  0  0  0
 23 19  1  0  0  0  0
 25 24  1  1  0  0  0
 26 25  1  0  0  0  0
 27 29  1  0  0  0  0
 27 26  1  0  0  0  0
 28 29  2  0  0  0  0
 29 30  1  0  0  0  0
M  END
>  <MODEL>
4

>  <REMARK>
 VINA RESULT:      -6.9      1.865      2.259
  Name = 
  7 active torsions:
  status: ('A' for Active; 'I' for Inactive)
    1  A    between atoms: C_4  and  C_13
    2  A    between atoms: C_7  and  C_15
    3  A    between atoms: C_7  and  C_16
    4  A    between atoms: C_8  and  N_12
    5  A    between atoms: C_8  and  C_13
    6  A    between atoms: C_13  and  C_30
    7  A    between atoms: C_16  and  C_30
                            x       y       z     vdW  Elec       q    Type
                         _______ _______ _______ _____ _____    ______ ____

>  <TORSDO>
F 7

$$$$
=
 OpenBabel11052417173D

 30 34  0  0  1  0  0  0  0  0999 V2000
  190.4180  177.1020  144.2180 N   0  0  0  0  0  2  0  0  0  0  0  0
  192.2080  176.2630  145.6810 C   0  0  0  0  0  0  0  0  0  0  0  0
  187.4630  176.2430  147.2800 C   0  0  0  0  0  2  0  0  0  0  0  0
  189.0180  177.0700  143.7970 C   0  0  2  0  0  3  0  0  0  0  0  0
  186.1610  177.0160  147.1050 C   0  0  0  0  0  2  0  0  0  0  0  0
  192.6080  175.6630  146.8790 C   0  0  0  0  0  3  0  0  0  0  0  0
  193.4250  176.6740  144.4850 Cl  0  0  0  0  0  0  0  0  0  0  0  0
  188.4630  176.5060  146.1750 C   0  0  0  0  0  0  0  0  0  0  0  0
  191.6580  175.3200  147.8430 C   0  0  0  0  0  3  0  0  0  0  0  0
  190.8480  176.5080  145.4440 C   0  0  0  0  0  0  0  0  0  0  0  0
  188.0630  176.9650  144.9620 C   0  0  0  0  0  0  0  0  0  0  0  0
  185.6510  176.8120  145.6910 C   0  0  0  0  0  2  0  0  0  0  0  0
  186.6470  177.4220  144.7150 C   0  0  0  0  0  2  0  0  0  0  0  0
  190.3040  175.5780  147.6140 C   0  0  0  0  0  3  0  0  0  0  0  0
  189.8890  176.1730  146.4140 C   0  0  0  0  0  0  0  0  0  0  0  0
  188.7570  175.9480  142.7790 C   0  0  2  0  0  3  0  0  0  0  0  0
  189.3280  173.4380  143.7390 S   0  0  0  0  0  0  0  0  0  0  0  0
  189.6880  174.7660  142.8490 C   0  0  0  0  0  0  0  0  0  0  0  0
  191.9830  173.9760  141.4510 C   0  0  0  0  0  0  0  0  0  0  0  0
  192.1050  175.2540  141.7240 O   0  0  0  0  0  0  0  0  0  0  0  0
  190.8620  174.7590  142.0440 N   0  0  0  0  0  0  0  0  0  0  0  0
  191.1910  173.4000  140.2580 C   0  0  0  0  0  2  0  0  0  0  0  0
  192.4330  174.0990  139.9800 C   0  0  0  0  0  2  0  0  0  0  0  0
  187.8360  175.3440  140.6330 O   0  0  0  0  0  1  0  0  0  0  0  0
  188.3870  176.4000  141.3610 C   0  0  1  0  0  3  0  0  0  0  0  0
  187.5150  177.6610  141.2820 C   0  0  0  0  0  2  0  0  0  0  0  0
  186.4100  177.5860  140.2340 C   0  0  0  0  0  2  0  0  0  0  0  0
  185.0640  178.6610  142.0400 O   0  0  0  0  0  1  0  0  0  0  0  0
  185.1110  178.0630  140.7880 C   0  0  0  0  0  0  0  0  0  0  0  0
  184.0540  177.9190  140.1210 O   0  0  0  0  0  0  0  0  0  0  0  0
  1 10  1  0  0  0  0
  2  6  1  0  0  0  0
  4 16  1  6  0  0  0
  4  1  1  0  0  0  0
  4 11  1  0  0  0  0
  5  3  1  0  0  0  0
  6  9  2  0  0  0  0
  7  2  1  0  0  0  0
  8 15  1  0  0  0  0
  8  3  1  0  0  0  0
 10  2  2  0  0  0  0
 10 15  1  0  0  0  0
 11  8  2  0  0  0  0
 12  5  1  0  0  0  0
 13 11  1  0  0  0  0
 13 12  1  0  0  0  0
 14  9  1  0  0  0  0
 15 14  2  0  0  0  0
 16 18  1  6  0  0  0
 18 17  2  0  0  0  0
 19 20  1  0  0  0  0
 19 21  1  0  0  0  0
 20 21  1  0  0  0  0
 21 18  1  0  0  0  0
 22 19  1  0  0  0  0
 23 22  1  0  0  0  0
 23 19  1  0  0  0  0
 25 24  1  1  0  0  0
 25 16  1  0  0  0  0
 26 25  1  0  0  0  0
 27 29  1  0  0  0  0
 27 26  1  0  0  0  0
 29 28  1  0  0  0  0
 30 29  2  0  0  0  0
M  END
>  <MODEL>
5

>  <REMARK>
 VINA RESULT:      -6.8      3.059      5.908
  Name = 
  7 active torsions:
  status: ('A' for Active; 'I' for Inactive)
    1  A    between atoms: C_4  and  C_13
    2  A    between atoms: C_7  and  C_15
    3  A    between atoms: C_7  and  C_16
    4  A    between atoms: C_8  and  N_12
    5  A    between atoms: C_8  and  C_13
    6  A    between atoms: C_13  and  C_30
    7  A    between atoms: C_16  and  C_30
                            x       y       z     vdW  Elec       q    Type
                         _______ _______ _______ _____ _____    ______ ____

>  <TORSDO>
F 7

$$$$
=
 OpenBabel11052417173D

 30 34  0  0  1  0  0  0  0  0999 V2000
  191.9770  176.6360  142.9100 N   0  0  0  0  0  2  0  0  0  0  0  0
  194.2790  176.1110  143.5990 C   0  0  0  0  0  0  0  0  0  0  0  0
  190.7340  176.8120  147.0650 C   0  0  0  0  0  2  0  0  0  0  0  0
  190.5400  176.5780  143.1740 C   0  0  2  0  0  3  0  0  0  0  0  0
  189.4400  177.5880  147.2830 C   0  0  0  0  0  2  0  0  0  0  0  0
  195.2030  175.8310  144.6100 C   0  0  0  0  0  3  0  0  0  0  0  0
  194.8150  176.1110  141.9280 Cl  0  0  0  0  0  0  0  0  0  0  0  0
  191.1260  176.7070  145.6080 C   0  0  0  0  0  0  0  0  0  0  0  0
  194.7990  175.8180  145.9460 C   0  0  0  0  0  3  0  0  0  0  0  0
  192.9400  176.3670  143.9300 C   0  0  0  0  0  0  0  0  0  0  0  0
  190.2040  176.8480  144.6220 C   0  0  0  0  0  0  0  0  0  0  0  0
  188.3740  177.0440  146.3500 C   0  0  0  0  0  2  0  0  0  0  0  0
  188.7970  177.3090  144.9120 C   0  0  0  0  0  2  0  0  0  0  0  0
  193.4690  176.0880  146.2780 C   0  0  0  0  0  3  0  0  0  0  0  0
  192.5300  176.3640  145.2730 C   0  0  0  0  0  0  0  0  0  0  0  0
  189.9320  175.2420  142.7160 C   0  0  2  0  0  3  0  0  0  0  0  0
  191.4100  173.7220  140.9700 S   0  0  0  0  0  0  0  0  0  0  0  0
  190.9090  174.1220  142.4780 C   0  0  0  0  0  0  0  0  0  0  0  0
  192.1680  172.2460  144.1330 C   0  0  0  0  0  0  0  0  0  0  0  0
  191.4310  173.0170  144.8970 O   0  0  0  0  0  0  0  0  0  0  0  0
  191.4900  173.4600  143.5960 N   0  0  0  0  0  0  0  0  0  0  0  0
  193.5870  172.5940  143.6340 C   0  0  0  0  0  2  0  0  0  0  0  0
  193.4130  172.2900  145.0430 C   0  0  0  0  0  2  0  0  0  0  0  0
  187.8400  174.3430  141.9210 O   0  0  0  0  0  1  0  0  0  0  0  0
  188.7910  175.3390  141.6950 C   0  0  1  0  0  3  0  0  0  0  0  0
  188.1440  176.7250  141.5650 C   0  0  0  0  0  2  0  0  0  0  0  0
  186.6560  176.7480  141.9010 C   0  0  0  0  0  2  0  0  0  0  0  0
  185.3150  178.3900  140.5860 O   0  0  0  0  0  0  0  0  0  0  0  0
  186.0830  178.1100  141.7080 C   0  0  0  0  0  0  0  0  0  0  0  0
  186.2990  179.0080  142.5620 O   0  0  0  0  0  1  0  0  0  0  0  0
  1  4  1  0  0  0  0
  1 10  1  0  0  0  0
  2 10  2  0  0  0  0
  2  6  1  0  0  0  0
  3  5  1  0  0  0  0
  4 16  1  1  0  0  0
  4 11  1  0  0  0  0
  6  9  2  0  0  0  0
  7  2  1  0  0  0  0
  8  3  1  0  0  0  0
  9 14  1  0  0  0  0
 10 15  1  0  0  0  0
 11 13  1  0  0  0  0
 11  8  2  0  0  0  0
 12  5  1  0  0  0  0
 13 12  1  0  0  0  0
 15  8  1  0  0  0  0
 15 14  2  0  0  0  0
 16 18  1  6  0  0  0
 17 18  2  0  0  0  0
 18 21  1  0  0  0  0
 19 20  1  0  0  0  0
 19 23  1  0  0  0  0
 21 19  1  0  0  0  0
 21 20  1  0  0  0  0
 22 19  1  0  0  0  0
 22 23  1  0  0  0  0
 25 24  1  1  0  0  0
 25 16  1  0  0  0  0
 26 25  1  0  0  0  0
 26 27  1  0  0  0  0
 28 29  2  0  0  0  0
 29 27  1  0  0  0  0
 29 30  1  0  0  0  0
M  END
>  <MODEL>
6

>  <REMARK>
 VINA RESULT:      -6.8      2.950      6.095
  Name = 
  7 active torsions:
  status: ('A' for Active; 'I' for Inactive)
    1  A    between atoms: C_4  and  C_13
    2  A    between atoms: C_7  and  C_15
    3  A    between atoms: C_7  and  C_16
    4  A    between atoms: C_8  and  N_12
    5  A    between atoms: C_8  and  C_13
    6  A    between atoms: C_13  and  C_30
    7  A    between atoms: C_16  and  C_30
                            x       y       z     vdW  Elec       q    Type
                         _______ _______ _______ _____ _____    ______ ____

>  <TORSDO>
F 7

$$$$
=
 OpenBabel11052417173D

 30 34  0  0  1  0  0  0  0  0999 V2000
  190.1750  175.3650  147.0350 N   0  0  0  0  0  2  0  0  0  0  0  0
  192.2750  176.5680  147.4740 C   0  0  0  0  0  0  0  0  0  0  0  0
  192.1770  172.8620  144.1080 C   0  0  0  0  0  2  0  0  0  0  0  0
  189.3230  174.6140  146.1140 C   0  0  2  0  0  3  0  0  0  0  0  0
  191.4450  171.5570  143.8180 C   0  0  0  0  0  2  0  0  0  0  0  0
  193.6230  176.7900  147.1810 C   0  0  0  0  0  3  0  0  0  0  0  0
  191.5000  177.5380  148.7150 Cl  0  0  0  0  0  0  0  0  0  0  0  0
  191.4410  173.7530  145.0850 C   0  0  0  0  0  0  0  0  0  0  0  0
  194.2600  176.0370  146.1930 C   0  0  0  0  0  3  0  0  0  0  0  0
  191.5580  175.5940  146.7640 C   0  0  0  0  0  0  0  0  0  0  0  0
  190.1030  173.6270  145.2760 C   0  0  0  0  0  0  0  0  0  0  0  0
  190.0010  171.8680  143.4690 C   0  0  0  0  0  2  0  0  0  0  0  0
  189.3210  172.4800  144.6860 C   0  0  0  0  0  2  0  0  0  0  0  0
  193.5510  175.0550  145.4960 C   0  0  0  0  0  3  0  0  0  0  0  0
  192.1960  174.8270  145.7750 C   0  0  0  0  0  0  0  0  0  0  0  0
  188.4920  175.5480  145.2190 C   0  0  2  0  0  3  0  0  0  0  0  0
  187.9280  175.1250  142.5640 S   0  0  0  0  0  0  0  0  0  0  0  0
  188.9130  175.6220  143.7760 C   0  0  0  0  0  0  0  0  0  0  0  0
  190.8850  177.4510  142.9930 C   0  0  0  0  0  0  0  0  0  0  0  0
  191.3450  176.2450  142.7530 O   0  0  0  0  0  0  0  0  0  0  0  0
  190.1570  176.2320  143.4470 N   0  0  0  0  0  0  0  0  0  0  0  0
  190.9310  178.1560  144.3660 C   0  0  0  0  0  2  0  0  0  0  0  0
  192.1810  177.9710  143.6500 C   0  0  0  0  0  2  0  0  0  0  0  0
  187.7690  177.8200  144.8560 O   0  0  0  0  0  1  0  0  0  0  0  0
  188.0790  176.8850  145.8460 C   0  0  1  0  0  3  0  0  0  0  0  0
  186.9750  176.7970  146.9090 C   0  0  0  0  0  2  0  0  0  0  0  0
  185.5630  176.9260  146.3480 C   0  0  0  0  0  2  0  0  0  0  0  0
  183.7830  178.6570  146.0950 O   0  0  0  0  0  0  0  0  0  0  0  0
  184.9660  178.2470  146.6950 C   0  0  0  0  0  0  0  0  0  0  0  0
  185.5380  178.9940  147.5300 O   0  0  0  0  0  1  0  0  0  0  0  0
  2  7  1  0  0  0  0
  3  8  1  0  0  0  0
  4 16  1  6  0  0  0
  4  1  1  0  0  0  0
  5  3  1  0  0  0  0
  6  2  1  0  0  0  0
  8 11  2  0  0  0  0
  8 15  1  0  0  0  0
  9  6  2  0  0  0  0
 10  1  1  0  0  0  0
 10  2  2  0  0  0  0
 11  4  1  0  0  0  0
 12  5  1  0  0  0  0
 12 13  1  0  0  0  0
 13 11  1  0  0  0  0
 14 15  2  0  0  0  0
 14  9  1  0  0  0  0
 15 10  1  0  0  0  0
 16 18  1  6  0  0  0
 16 25  1  0  0  0  0
 17 18  2  0  0  0  0
 19 21  1  0  0  0  0
 19 23  1  0  0  0  0
 19 22  1  0  0  0  0
 20 19  1  0  0  0  0
 20 21  1  0  0  0  0
 21 18  1  0  0  0  0
 23 22  1  0  0  0  0
 25 24  1  6  0  0  0
 25 26  1  0  0  0  0
 27 29  1  0  0  0  0
 27 26  1  0  0  0  0
 28 29  2  0  0  0  0
 29 30  1  0  0  0  0
M  END
>  <MODEL>
7

>  <REMARK>
 VINA RESULT:      -6.8      3.229      6.658
  Name = 
  7 active torsions:
  status: ('A' for Active; 'I' for Inactive)
    1  A    between atoms: C_4  and  C_13
    2  A    between atoms: C_7  and  C_15
    3  A    between atoms: C_7  and  C_16
    4  A    between atoms: C_8  and  N_12
    5  A    between atoms: C_8  and  C_13
    6  A    between atoms: C_13  and  C_30
    7  A    between atoms: C_16  and  C_30
                            x       y       z     vdW  Elec       q    Type
                         _______ _______ _______ _____ _____    ______ ____

>  <TORSDO>
F 7

$$$$
=
 OpenBabel11052417173D

 30 34  0  0  1  0  0  0  0  0999 V2000
  192.2130  176.7460  143.0030 N   0  0  0  0  0  2  0  0  0  0  0  0
  194.4450  176.0700  143.7850 C   0  0  0  0  0  0  0  0  0  0  0  0
  190.7510  176.7770  147.0900 C   0  0  0  0  0  2  0  0  0  0  0  0
  190.7620  176.7480  143.1870 C   0  0  2  0  0  3  0  0  0  0  0  0
  189.4860  177.6070  147.2800 C   0  0  0  0  0  2  0  0  0  0  0  0
  195.2970  175.6930  144.8270 C   0  0  0  0  0  3  0  0  0  0  0  0
  195.0730  176.1270  142.1460 Cl  0  0  0  0  0  0  0  0  0  0  0  0
  191.2180  176.7260  145.6520 C   0  0  0  0  0  0  0  0  0  0  0  0
  194.8190  175.6340  146.1370 C   0  0  0  0  0  3  0  0  0  0  0  0
  193.1040  176.3770  144.0570 C   0  0  0  0  0  0  0  0  0  0  0  0
  190.3600  176.9630  144.6270 C   0  0  0  0  0  0  0  0  0  0  0  0
  188.4490  177.1660  146.2640 C   0  0  0  0  0  2  0  0  0  0  0  0
  188.9640  177.4800  144.8660 C   0  0  0  0  0  2  0  0  0  0  0  0
  193.4870  175.9550  146.4120 C   0  0  0  0  0  3  0  0  0  0  0  0
  192.6200  176.3280  145.3740 C   0  0  0  0  0  0  0  0  0  0  0  0
  190.1170  175.4700  142.6280 C   0  0  2  0  0  3  0  0  0  0  0  0
  188.6230  174.5410  140.5190 S   0  0  0  0  0  0  0  0  0  0  0  0
  189.0010  175.6760  141.6380 C   0  0  0  0  0  0  0  0  0  0  0  0
  186.8760  177.4920  141.4750 C   0  0  0  0  0  0  0  0  0  0  0  0
  187.9870  178.1880  141.5460 O   0  0  0  0  0  0  0  0  0  0  0  0
  188.1890  176.8410  141.7410 N   0  0  0  0  0  0  0  0  0  0  0  0
  186.1280  176.8950  142.6860 C   0  0  0  0  0  2  0  0  0  0  0  0
  186.1100  178.3370  142.5150 C   0  0  0  0  0  2  0  0  0  0  0  0
  188.5670  173.9000  143.6010 O   0  0  0  0  0  1  0  0  0  0  0  0
  189.8920  174.3350  143.6350 C   0  0  1  0  0  3  0  0  0  0  0  0
  190.8790  173.1640  143.5320 C   0  0  0  0  0  2  0  0  0  0  0  0
  191.6920  172.9250  144.8000 C   0  0  0  0  0  2  0  0  0  0  0  0
  193.5740  172.7470  143.1710 O   0  0  0  0  0  0  0  0  0  0  0  0
  193.1160  172.6290  144.4760 C   0  0  0  0  0  0  0  0  0  0  0  0
  193.9040  172.2670  145.3880 O   0  0  0  0  0  1  0  0  0  0  0  0
  1  4  1  0  0  0  0
  1 10  1  0  0  0  0
  2 10  2  0  0  0  0
  2  6  1  0  0  0  0
  3  5  1  0  0  0  0
  4 16  1  1  0  0  0
  4 11  1  0  0  0  0
  6  9  2  0  0  0  0
  7  2  1  0  0  0  0
  8  3  1  0  0  0  0
  9 14  1  0  0  0  0
 10 15  1  0  0  0  0
 11 13  1  0  0  0  0
 11  8  2  0  0  0  0
 12  5  1  0  0  0  0
 13 12  1  0  0  0  0
 15  8  1  0  0  0  0
 15 14  2  0  0  0  0
 16 18  1  1  0  0  0
 16 25  1  0  0  0  0
 17 18  2  0  0  0  0
 18 21  1  0  0  0  0
 19 20  1  0  0  0  0
 19 21  1  0  0  0  0
 19 23  1  0  0  0  0
 19 22  1  0  0  0  0
 20 21  1  0  0  0  0
 23 22  1  0  0  0  0
 25 24  1  6  0  0  0
 26 25  1  0  0  0  0
 26 27  1  0  0  0  0
 28 29  2  0  0  0  0
 29 27  1  0  0  0  0
 29 30  1  0  0  0  0
M  END
>  <MODEL>
8

>  <REMARK>
 VINA RESULT:      -6.7      2.634      5.627
  Name = 
  7 active torsions:
  status: ('A' for Active; 'I' for Inactive)
    1  A    between atoms: C_4  and  C_13
    2  A    between atoms: C_7  and  C_15
    3  A    between atoms: C_7  and  C_16
    4  A    between atoms: C_8  and  N_12
    5  A    between atoms: C_8  and  C_13
    6  A    between atoms: C_13  and  C_30
    7  A    between atoms: C_16  and  C_30
                            x       y       z     vdW  Elec       q    Type
                         _______ _______ _______ _____ _____    ______ ____

>  <TORSDO>
F 7

$$$$
=
 OpenBabel11052417173D

 30 34  0  0  1  0  0  0  0  0999 V2000
  191.8360  176.7180  143.1390 N   0  0  0  0  0  2  0  0  0  0  0  0
  194.0950  176.0890  143.8820 C   0  0  0  0  0  0  0  0  0  0  0  0
  190.4860  176.8790  147.2610 C   0  0  0  0  0  2  0  0  0  0  0  0
  190.3910  176.7150  143.3630 C   0  0  2  0  0  3  0  0  0  0  0  0
  189.2200  177.7040  147.4570 C   0  0  0  0  0  2  0  0  0  0  0  0
  194.9790  175.7560  144.9120 C   0  0  0  0  0  3  0  0  0  0  0  0
  194.6780  176.0940  142.2250 Cl  0  0  0  0  0  0  0  0  0  0  0  0
  190.9140  176.7810  145.8130 C   0  0  0  0  0  0  0  0  0  0  0  0
  194.5370  175.7380  146.2370 C   0  0  0  0  0  3  0  0  0  0  0  0
  192.7590  176.3940  144.1800 C   0  0  0  0  0  0  0  0  0  0  0  0
  190.0260  176.9760  144.8050 C   0  0  0  0  0  0  0  0  0  0  0  0
  188.1590  177.2190  146.4870 C   0  0  0  0  0  2  0  0  0  0  0  0
  188.6320  177.4890  145.0650 C   0  0  0  0  0  2  0  0  0  0  0  0
  193.2110  176.0570  146.5360 C   0  0  0  0  0  3  0  0  0  0  0  0
  192.3120  176.3860  145.5110 C   0  0  0  0  0  0  0  0  0  0  0  0
  189.7430  175.4130  142.8660 C   0  0  2  0  0  3  0  0  0  0  0  0
  190.8900  173.1550  143.9310 S   0  0  0  0  0  0  0  0  0  0  0  0
  190.6660  174.2330  142.7170 C   0  0  0  0  0  0  0  0  0  0  0  0
  191.6800  173.0020  140.4140 C   0  0  0  0  0  0  0  0  0  0  0  0
  192.3460  174.1190  140.5930 O   0  0  0  0  0  0  0  0  0  0  0  0
  191.2840  173.9900  141.4570 N   0  0  0  0  0  0  0  0  0  0  0  0
  190.3000  172.8980  139.7300 C   0  0  0  0  0  2  0  0  0  0  0  0
  191.4510  173.2120  138.9030 C   0  0  0  0  0  2  0  0  0  0  0  0
  187.6780  174.6230  141.9010 O   0  0  0  0  0  1  0  0  0  0  0  0
  188.6980  175.5650  141.7530 C   0  0  1  0  0  3  0  0  0  0  0  0
  188.1390  176.9830  141.5690 C   0  0  0  0  0  2  0  0  0  0  0  0
  186.8650  177.0430  140.7330 C   0  0  0  0  0  2  0  0  0  0  0  0
  186.2800  178.8640  142.3360 O   0  0  0  0  0  1  0  0  0  0  0  0
  185.9850  178.1620  141.1750 C   0  0  0  0  0  0  0  0  0  0  0  0
  184.9700  178.4670  140.4970 O   0  0  0  0  0  0  0  0  0  0  0  0
  1  4  1  0  0  0  0
  1 10  1  0  0  0  0
  2 10  2  0  0  0  0
  2  6  1  0  0  0  0
  3  5  1  0  0  0  0
  4 16  1  1  0  0  0
  4 11  1  0  0  0  0
  6  9  2  0  0  0  0
  7  2  1  0  0  0  0
  8  3  1  0  0  0  0
  9 14  1  0  0  0  0
 10 15  1  0  0  0  0
 11 13  1  0  0  0  0
 11  8  2  0  0  0  0
 12  5  1  0  0  0  0
 13 12  1  0  0  0  0
 15  8  1  0  0  0  0
 15 14  2  0  0  0  0
 16 18  1  6  0  0  0
 18 17  2  0  0  0  0
 19 20  1  0  0  0  0
 19 21  1  0  0  0  0
 20 21  1  0  0  0  0
 21 18  1  0  0  0  0
 22 19  1  0  0  0  0
 23 22  1  0  0  0  0
 23 19  1  0  0  0  0
 25 24  1  1  0  0  0
 25 16  1  0  0  0  0
 26 25  1  0  0  0  0
 27 29  1  0  0  0  0
 27 26  1  0  0  0  0
 29 28  1  0  0  0  0
 30 29  2  0  0  0  0
M  END
>  <MODEL>
9

>  <REMARK>
 VINA RESULT:      -6.5      3.114      6.176
  Name = 
  7 active torsions:
  status: ('A' for Active; 'I' for Inactive)
    1  A    between atoms: C_4  and  C_13
    2  A    between atoms: C_7  and  C_15
    3  A    between atoms: C_7  and  C_16
    4  A    between atoms: C_8  and  N_12
    5  A    between atoms: C_8  and  C_13
    6  A    between atoms: C_13  and  C_30
    7  A    between atoms: C_16  and  C_30
                            x       y       z     vdW  Elec       q    Type
                         _______ _______ _______ _____ _____    ______ ____

>  <TORSDO>
F 7

$$$$
