=
 OpenBabel11052418543D

 34 38  0  0  1  0  0  0  0  0999 V2000
  184.9560  178.3080  145.6970 C   0  0  0  0  0  0  0  0  0  0  0  0
  185.5170  177.7810  143.4060 C   0  0  0  0  0  0  0  0  0  0  0  0
  187.0120  177.0080  145.2420 N   0  0  0  0  0  0  0  0  0  0  0  0
  189.2790  176.0520  144.5410 C   0  0  2  0  0  3  0  0  0  0  0  0
  183.5730  179.0280  143.9150 C   0  0  0  0  0  3  0  0  0  0  0  0
  184.3990  178.4410  143.0100 N   0  0  0  0  0  0  0  0  0  0  0  0
  187.7950  176.9590  142.9260 C   0  0  2  0  0  3  0  0  0  0  0  0
  185.8220  177.6900  144.7820 C   0  0  0  0  0  0  0  0  0  0  0  0
  189.8590  175.7480  143.1540 C   0  0  0  0  0  2  0  0  0  0  0  0
  183.8500  178.9530  145.2440 N   0  0  0  0  0  0  0  0  0  0  0  0
  186.6390  177.8520  147.5050 C   0  0  0  0  0  2  0  0  0  0  0  0
  185.1800  178.1700  147.1750 C   0  0  0  0  0  2  0  0  0  0  0  0
  186.3800  177.0990  142.3770 C   0  0  0  0  0  2  0  0  0  0  0  0
  188.8370  176.2140  142.1080 C   0  0  1  0  0  3  0  0  0  0  0  0
  187.7930  176.2540  144.2560 C   0  0  2  0  0  3  0  0  0  0  0  0
  187.1200  176.6770  146.6610 C   0  0  0  0  0  2  0  0  0  0  0  0
  188.1940  175.0440  140.1330 O   0  0  0  0  0  0  0  0  0  0  0  0
  188.2600  175.0290  141.3910 C   0  0  0  0  0  0  0  0  0  0  0  0
  187.7670  173.9410  142.1180 O   0  0  0  0  0  0  0  0  0  0  0  0
  188.2800  172.6240  141.9590 C   0  0  0  0  0  2  0  0  0  0  0  0
  189.1370  172.2370  143.1640 C   0  0  0  0  0  2  0  0  0  0  0  0
  191.1540  172.6630  141.8020 C   0  0  0  0  0  1  0  0  0  0  0  0
  191.4030  171.5780  144.0000 C   0  0  0  0  0  1  0  0  0  0  0  0
  190.5140  171.6970  142.7760 C   0  0  0  0  0  0  0  0  0  0  0  0
  190.3970  170.4500  142.1620 O   0  0  0  0  0  1  0  0  0  0  0  0
  189.9480  177.3180  145.0670 C   0  0  0  0  0  2  0  0  0  0  0  0
  190.9690  176.9790  145.9970 O   0  0  0  0  0  0  0  0  0  0  0  0
  194.1050  173.9740  144.8840 C   0  0  0  0  0  3  0  0  0  0  0  0
  193.4310  174.1030  146.0250 C   0  0  0  0  0  3  0  0  0  0  0  0
  192.0940  176.2200  145.6610 C   0  0  0  0  0  0  0  0  0  0  0  0
  192.3010  175.0250  146.2490 C   0  0  0  0  0  3  0  0  0  0  0  0
  193.7990  176.1810  143.8270 C   0  0  0  0  0  3  0  0  0  0  0  0
  193.0380  176.8350  144.7050 C   0  0  0  0  0  3  0  0  0  0  0  0
  193.7360  174.7030  143.6350 C   0  0  0  0  0  2  0  0  0  0  0  0
  1 12  1  0  0  0  0
  2  8  1  0  0  0  0
  3 16  1  0  0  0  0
  4 26  1  6  0  0  0
  5 10  2  0  0  0  0
  6  2  2  0  0  0  0
  6  5  1  0  0  0  0
  7 13  1  6  0  0  0
  7 15  1  0  0  0  0
  8  3  1  0  0  0  0
  8  1  2  0  0  0  0
  9  4  1  0  0  0  0
 10  1  1  0  0  0  0
 12 11  1  0  0  0  0
 13  2  1  0  0  0  0
 14 18  1  1  0  0  0
 14  7  1  0  0  0  0
 14  9  1  0  0  0  0
 15  4  1  0  0  0  0
 15  3  1  1  0  0  0
 16 11  1  0  0  0  0
 17 18  2  0  0  0  0
 18 19  1  0  0  0  0
 20 19  1  0  0  0  0
 20 21  1  0  0  0  0
 22 24  1  0  0  0  0
 24 21  1  0  0  0  0
 24 23  1  0  0  0  0
 25 24  1  0  0  0  0
 26 27  1  0  0  0  0
 28 29  2  0  0  0  0
 29 31  1  0  0  0  0
 30 27  1  0  0  0  0
 30 31  2  0  0  0  0
 32 33  2  0  0  0  0
 33 30  1  0  0  0  0
 34 32  1  0  0  0  0
 34 28  1  0  0  0  0
M  END
>  <MODEL>
1

>  <REMARK>
 VINA RESULT:      -7.4      0.000      0.000
  Name = 
  8 active torsions:
  status: ('A' for Active; 'I' for Inactive)
    1  A    between atoms: C_5  and  C_26
    2  A    between atoms: C_12  and  O_28
    3  A    between atoms: O_13  and  C_17
    4  A    between atoms: O_13  and  C_33
    5  A    between atoms: C_17  and  C_29
    6  A    between atoms: C_20  and  C_34
    7  A    between atoms: C_26  and  O_28
    8  A    between atoms: C_33  and  C_34
                            x       y       z     vdW  Elec       q    Type
                         _______ _______ _______ _____ _____    ______ ____

>  <TORSDO>
F 8

$$$$
=
 OpenBabel11052418543D

 34 38  0  0  1  0  0  0  0  0999 V2000
  184.7610  178.4700  144.9180 C   0  0  0  0  0  0  0  0  0  0  0  0
  186.7290  177.6530  146.0560 C   0  0  0  0  0  0  0  0  0  0  0  0
  186.7300  177.8120  143.5720 N   0  0  0  0  0  0  0  0  0  0  0  0
  188.6880  176.7010  142.3570 C   0  0  2  0  0  3  0  0  0  0  0  0
  184.8070  178.2900  147.2780 C   0  0  0  0  0  3  0  0  0  0  0  0
  186.0810  177.8190  147.2380 N   0  0  0  0  0  0  0  0  0  0  0  0
  188.4650  176.5220  144.7130 C   0  0  2  0  0  3  0  0  0  0  0  0
  186.0770  177.9880  144.8500 C   0  0  0  0  0  0  0  0  0  0  0  0
  189.9610  176.0370  142.8960 C   0  0  0  0  0  2  0  0  0  0  0  0
  184.1610  178.6170  146.1280 N   0  0  0  0  0  0  0  0  0  0  0  0
  184.6280  178.2840  142.4170 C   0  0  0  0  0  2  0  0  0  0  0  0
  184.0480  178.9250  143.6770 C   0  0  0  0  0  2  0  0  0  0  0  0
  188.1580  177.1760  146.0560 C   0  0  0  0  0  2  0  0  0  0  0  0
  189.8790  176.0430  144.4290 C   0  0  1  0  0  3  0  0  0  0  0  0
  188.1520  177.4530  143.5730 C   0  0  2  0  0  3  0  0  0  0  0  0
  186.1440  178.4520  142.3960 C   0  0  0  0  0  2  0  0  0  0  0  0
  191.4340  177.8400  144.2530 O   0  0  0  0  0  0  0  0  0  0  0  0
  190.9190  176.9620  144.9960 C   0  0  0  0  0  0  0  0  0  0  0  0
  191.3370  176.8160  146.3220 O   0  0  0  0  0  0  0  0  0  0  0  0
  192.0950  175.6960  146.7630 C   0  0  0  0  0  2  0  0  0  0  0  0
  193.5860  175.9370  146.5310 C   0  0  0  0  0  2  0  0  0  0  0  0
  195.5680  174.6700  145.7740 C   0  0  0  0  0  1  0  0  0  0  0  0
  193.3240  173.8450  145.1800 C   0  0  0  0  0  1  0  0  0  0  0  0
  194.1640  175.0910  145.3960 C   0  0  0  0  0  0  0  0  0  0  0  0
  194.2180  175.8270  144.2120 O   0  0  0  0  0  1  0  0  0  0  0  0
  187.7420  175.6000  141.8900 C   0  0  0  0  0  2  0  0  0  0  0  0
  188.3650  174.8200  140.8770 O   0  0  0  0  0  0  0  0  0  0  0  0
  190.7190  171.0440  141.4340 C   0  0  0  0  0  3  0  0  0  0  0  0
  190.4260  171.6940  140.3100 C   0  0  0  0  0  3  0  0  0  0  0  0
  188.8960  173.5460  141.1050 C   0  0  0  0  0  0  0  0  0  0  0  0
  189.7780  173.0180  140.2330 C   0  0  0  0  0  3  0  0  0  0  0  0
  189.0640  171.9460  143.0230 C   0  0  0  0  0  3  0  0  0  0  0  0
  188.3830  172.8240  142.2870 C   0  0  0  0  0  3  0  0  0  0  0  0
  190.5020  171.6270  142.7900 C   0  0  0  0  0  2  0  0  0  0  0  0
  1 10  1  0  0  0  0
  2  6  2  0  0  0  0
  3  8  1  0  0  0  0
  4 26  1  1  0  0  0
  4  9  1  0  0  0  0
  4 15  1  0  0  0  0
  6  5  1  0  0  0  0
  7 13  1  1  0  0  0
  8  1  2  0  0  0  0
  8  2  1  0  0  0  0
  9 14  1  0  0  0  0
 10  5  2  0  0  0  0
 11 12  1  0  0  0  0
 12  1  1  0  0  0  0
 13  2  1  0  0  0  0
 14  7  1  0  0  0  0
 14 18  1  1  0  0  0
 15  3  1  6  0  0  0
 15  7  1  0  0  0  0
 16 11  1  0  0  0  0
 16  3  1  0  0  0  0
 17 18  2  0  0  0  0
 18 19  1  0  0  0  0
 19 20  1  0  0  0  0
 21 20  1  0  0  0  0
 23 24  1  0  0  0  0
 24 22  1  0  0  0  0
 24 21  1  0  0  0  0
 25 24  1  0  0  0  0
 27 30  1  0  0  0  0
 27 26  1  0  0  0  0
 28 34  1  0  0  0  0
 29 28  2  0  0  0  0
 30 33  1  0  0  0  0
 31 29  1  0  0  0  0
 31 30  2  0  0  0  0
 33 32  2  0  0  0  0
 34 32  1  0  0  0  0
M  END
>  <MODEL>
2

>  <REMARK>
 VINA RESULT:      -7.3      1.459      4.830
  Name = 
  8 active torsions:
  status: ('A' for Active; 'I' for Inactive)
    1  A    between atoms: C_5  and  C_26
    2  A    between atoms: C_12  and  O_28
    3  A    between atoms: O_13  and  C_17
    4  A    between atoms: O_13  and  C_33
    5  A    between atoms: C_17  and  C_29
    6  A    between atoms: C_20  and  C_34
    7  A    between atoms: C_26  and  O_28
    8  A    between atoms: C_33  and  C_34
                            x       y       z     vdW  Elec       q    Type
                         _______ _______ _______ _____ _____    ______ ____

>  <TORSDO>
F 8

$$$$
=
 OpenBabel11052418543D

 34 38  0  0  1  0  0  0  0  0999 V2000
  190.7160  172.6890  140.3890 C   0  0  0  0  0  0  0  0  0  0  0  0
  188.8230  174.1810  140.5530 C   0  0  0  0  0  0  0  0  0  0  0  0
  190.7240  174.4390  142.1390 N   0  0  0  0  0  0  0  0  0  0  0  0
  190.3550  176.0190  144.1170 C   0  0  2  0  0  3  0  0  0  0  0  0
  188.8790  172.4790  138.9110 C   0  0  0  0  0  3  0  0  0  0  0  0
  188.2520  173.5270  139.5080 N   0  0  0  0  0  0  0  0  0  0  0  0
  188.5970  175.5560  142.5910 C   0  0  2  0  0  3  0  0  0  0  0  0
  190.0920  173.7760  141.0200 C   0  0  0  0  0  0  0  0  0  0  0  0
  189.1880  176.9560  144.4530 C   0  0  0  0  0  2  0  0  0  0  0  0
  190.1010  172.0730  139.3470 N   0  0  0  0  0  0  0  0  0  0  0  0
  192.4510  172.7110  142.2050 C   0  0  0  0  0  2  0  0  0  0  0  0
  192.1030  172.2690  140.7840 C   0  0  0  0  0  2  0  0  0  0  0  0
  188.1210  175.3700  141.1550 C   0  0  0  0  0  2  0  0  0  0  0  0
  188.1030  176.7540  143.3860 C   0  0  1  0  0  3  0  0  0  0  0  0
  190.0970  175.6600  142.6560 C   0  0  2  0  0  3  0  0  0  0  0  0
  192.1450  174.1940  142.3820 C   0  0  0  0  0  2  0  0  0  0  0  0
  188.9690  178.3780  141.8710 O   0  0  0  0  0  0  0  0  0  0  0  0
  187.9770  177.9870  142.5420 C   0  0  0  0  0  0  0  0  0  0  0  0
  186.7820  178.7130  142.5360 O   0  0  0  0  0  0  0  0  0  0  0  0
  185.6990  178.4050  143.4060 C   0  0  0  0  0  2  0  0  0  0  0  0
  185.7780  179.2520  144.6750 C   0  0  0  0  0  2  0  0  0  0  0  0
  185.3700  177.0920  145.8040 C   0  0  0  0  0  1  0  0  0  0  0  0
  185.7370  179.1060  147.1750 C   0  0  0  0  0  1  0  0  0  0  0  0
  185.1270  178.5840  145.8870 C   0  0  0  0  0  0  0  0  0  0  0  0
  183.7520  178.8160  145.8960 O   0  0  0  0  0  1  0  0  0  0  0  0
  190.2690  174.8070  145.0380 C   0  0  0  0  0  2  0  0  0  0  0  0
  191.0530  175.0260  146.2050 O   0  0  0  0  0  0  0  0  0  0  0  0
  195.4770  174.9980  145.4750 C   0  0  0  0  0  3  0  0  0  0  0  0
  194.6510  173.9720  145.6740 C   0  0  0  0  0  3  0  0  0  0  0  0
  192.4480  175.1070  146.1890 C   0  0  0  0  0  0  0  0  0  0  0  0
  193.1790  174.0640  145.7490 C   0  0  0  0  0  3  0  0  0  0  0  0
  194.1820  176.9070  146.3450 C   0  0  0  0  0  3  0  0  0  0  0  0
  193.0390  176.3450  146.7380 C   0  0  0  0  0  3  0  0  0  0  0  0
  195.0000  176.3860  145.2110 C   0  0  0  0  0  2  0  0  0  0  0  0
  1 12  1  0  0  0  0
  1  8  1  0  0  0  0
  2  8  2  0  0  0  0
  2 13  1  0  0  0  0
  3 16  1  0  0  0  0
  4  9  1  0  0  0  0
  4 26  1  1  0  0  0
  5 10  1  0  0  0  0
  5  6  2  0  0  0  0
  6  2  1  0  0  0  0
  7 13  1  6  0  0  0
  7 15  1  0  0  0  0
  7 14  1  0  0  0  0
  8  3  1  0  0  0  0
 10  1  2  0  0  0  0
 11 16  1  0  0  0  0
 12 11  1  0  0  0  0
 14 18  1  6  0  0  0
 14  9  1  0  0  0  0
 15  3  1  1  0  0  0
 15  4  1  0  0  0  0
 17 18  2  0  0  0  0
 19 18  1  0  0  0  0
 19 20  1  0  0  0  0
 20 21  1  0  0  0  0
 21 24  1  0  0  0  0
 22 24  1  0  0  0  0
 24 25  1  0  0  0  0
 24 23  1  0  0  0  0
 26 27  1  0  0  0  0
 28 29  2  0  0  0  0
 29 31  1  0  0  0  0
 30 27  1  0  0  0  0
 30 33  1  0  0  0  0
 31 30  2  0  0  0  0
 32 33  2  0  0  0  0
 34 28  1  0  0  0  0
 34 32  1  0  0  0  0
M  END
>  <MODEL>
3

>  <REMARK>
 VINA RESULT:      -7.1      2.963      6.258
  Name = 
  8 active torsions:
  status: ('A' for Active; 'I' for Inactive)
    1  A    between atoms: C_5  and  C_26
    2  A    between atoms: C_12  and  O_28
    3  A    between atoms: O_13  and  C_17
    4  A    between atoms: O_13  and  C_33
    5  A    between atoms: C_17  and  C_29
    6  A    between atoms: C_20  and  C_34
    7  A    between atoms: C_26  and  O_28
    8  A    between atoms: C_33  and  C_34
                            x       y       z     vdW  Elec       q    Type
                         _______ _______ _______ _____ _____    ______ ____

>  <TORSDO>
F 8

$$$$
=
 OpenBabel11052418543D

 34 38  0  0  1  0  0  0  0  0999 V2000
  185.7480  178.7050  144.9120 C   0  0  0  0  0  0  0  0  0  0  0  0
  186.9610  177.4100  146.5520 C   0  0  0  0  0  0  0  0  0  0  0  0
  187.7480  177.4400  144.1900 N   0  0  0  0  0  0  0  0  0  0  0  0
  189.5680  175.7510  143.5730 C   0  0  2  0  0  3  0  0  0  0  0  0
  185.0350  178.6360  147.1690 C   0  0  0  0  0  3  0  0  0  0  0  0
  186.0670  177.8150  147.4920 N   0  0  0  0  0  0  0  0  0  0  0  0
  188.6100  175.7610  145.7440 C   0  0  2  0  0  3  0  0  0  0  0  0
  186.8250  177.8600  145.2210 C   0  0  0  0  0  0  0  0  0  0  0  0
  190.3720  174.7740  144.4390 C   0  0  0  0  0  2  0  0  0  0  0  0
  184.8850  179.0790  145.8920 N   0  0  0  0  0  0  0  0  0  0  0  0
  186.3190  178.4430  142.4800 C   0  0  0  0  0  2  0  0  0  0  0  0
  185.6020  179.2860  143.5350 C   0  0  0  0  0  2  0  0  0  0  0  0
  188.1220  176.5410  146.9590 C   0  0  0  0  0  2  0  0  0  0  0  0
  189.8410  174.8790  145.8760 C   0  0  1  0  0  3  0  0  0  0  0  0
  188.9370  176.6850  144.6020 C   0  0  2  0  0  3  0  0  0  0  0  0
  187.7520  178.1640  142.9210 C   0  0  0  0  0  2  0  0  0  0  0  0
  190.8830  175.2060  147.9950 O   0  0  0  0  0  0  0  0  0  0  0  0
  190.8860  175.4840  146.7660 C   0  0  0  0  0  0  0  0  0  0  0  0
  191.8240  176.3770  146.2400 O   0  0  0  0  0  0  0  0  0  0  0  0
  193.2090  176.3000  146.5530 C   0  0  0  0  0  2  0  0  0  0  0  0
  194.0420  176.9560  145.4520 C   0  0  0  0  0  2  0  0  0  0  0  0
  193.5470  176.1780  143.1600 C   0  0  0  0  0  1  0  0  0  0  0  0
  195.8900  176.2470  143.9190 C   0  0  0  0  0  1  0  0  0  0  0  0
  194.4600  175.9800  144.3510 C   0  0  0  0  0  0  0  0  0  0  0  0
  194.3450  174.6620  144.7930 O   0  0  0  0  0  1  0  0  0  0  0  0
  188.5260  174.9490  142.7980 C   0  0  0  0  0  2  0  0  0  0  0  0
  188.9840  174.7090  141.4730 O   0  0  0  0  0  0  0  0  0  0  0  0
  191.3830  171.2250  139.9850 C   0  0  0  0  0  3  0  0  0  0  0  0
  190.8470  172.2320  139.2980 C   0  0  0  0  0  3  0  0  0  0  0  0
  189.5460  173.4960  141.0620 C   0  0  0  0  0  0  0  0  0  0  0  0
  190.2060  173.4230  139.8890 C   0  0  0  0  0  3  0  0  0  0  0  0
  190.1330  171.2990  142.1090 C   0  0  0  0  0  3  0  0  0  0  0  0
  189.3080  172.3320  141.9400 C   0  0  0  0  0  3  0  0  0  0  0  0
  191.4800  171.2180  141.4740 C   0  0  0  0  0  2  0  0  0  0  0  0
  1  8  2  0  0  0  0
  1 10  1  0  0  0  0
  2 13  1  0  0  0  0
  2  6  2  0  0  0  0
  3  8  1  0  0  0  0
  4 26  1  1  0  0  0
  4  9  1  0  0  0  0
  4 15  1  0  0  0  0
  5  6  1  0  0  0  0
  7 14  1  0  0  0  0
  7 13  1  1  0  0  0
  8  2  1  0  0  0  0
  9 14  1  0  0  0  0
 10  5  2  0  0  0  0
 11 16  1  0  0  0  0
 11 12  1  0  0  0  0
 12  1  1  0  0  0  0
 14 18  1  1  0  0  0
 15  3  1  6  0  0  0
 15  7  1  0  0  0  0
 16  3  1  0  0  0  0
 18 17  2  0  0  0  0
 19 20  1  0  0  0  0
 19 18  1  0  0  0  0
 21 20  1  0  0  0  0
 22 24  1  0  0  0  0
 23 24  1  0  0  0  0
 24 25  1  0  0  0  0
 24 21  1  0  0  0  0
 27 26  1  0  0  0  0
 28 34  1  0  0  0  0
 29 31  1  0  0  0  0
 29 28  2  0  0  0  0
 30 27  1  0  0  0  0
 30 33  1  0  0  0  0
 31 30  2  0  0  0  0
 33 32  2  0  0  0  0
 34 32  1  0  0  0  0
M  END
>  <MODEL>
4

>  <REMARK>
 VINA RESULT:      -6.9      1.681      5.101
  Name = 
  8 active torsions:
  status: ('A' for Active; 'I' for Inactive)
    1  A    between atoms: C_5  and  C_26
    2  A    between atoms: C_12  and  O_28
    3  A    between atoms: O_13  and  C_17
    4  A    between atoms: O_13  and  C_33
    5  A    between atoms: C_17  and  C_29
    6  A    between atoms: C_20  and  C_34
    7  A    between atoms: C_26  and  O_28
    8  A    between atoms: C_33  and  C_34
                            x       y       z     vdW  Elec       q    Type
                         _______ _______ _______ _____ _____    ______ ____

>  <TORSDO>
F 8

$$$$
=
 OpenBabel11052418543D

 34 38  0  0  1  0  0  0  0  0999 V2000
  185.0660  178.2610  145.3840 C   0  0  0  0  0  0  0  0  0  0  0  0
  185.6430  177.5850  143.1370 C   0  0  0  0  0  0  0  0  0  0  0  0
  187.0870  176.8770  145.0370 N   0  0  0  0  0  0  0  0  0  0  0  0
  189.3340  175.8150  144.4290 C   0  0  2  0  0  3  0  0  0  0  0  0
  183.7300  178.9170  143.5420 C   0  0  0  0  0  3  0  0  0  0  0  0
  184.5500  178.2540  142.6850 N   0  0  0  0  0  0  0  0  0  0  0  0
  187.9010  176.6700  142.7420 C   0  0  2  0  0  3  0  0  0  0  0  0
  185.9250  177.5660  144.5200 C   0  0  0  0  0  0  0  0  0  0  0  0
  189.9240  175.4140  143.0720 C   0  0  0  0  0  2  0  0  0  0  0  0
  183.9860  178.9110  144.8770 N   0  0  0  0  0  0  0  0  0  0  0  0
  186.7080  177.8610  147.2420 C   0  0  0  0  0  2  0  0  0  0  0  0
  185.2650  178.2030  146.8710 C   0  0  0  0  0  2  0  0  0  0  0  0
  186.4990  176.8200  142.1620 C   0  0  0  0  0  2  0  0  0  0  0  0
  188.9310  175.8480  141.9840 C   0  0  1  0  0  3  0  0  0  0  0  0
  187.8590  176.0440  144.1090 C   0  0  2  0  0  3  0  0  0  0  0  0
  187.1660  176.6260  146.4750 C   0  0  0  0  0  2  0  0  0  0  0  0
  188.0230  173.6440  142.0360 O   0  0  0  0  0  0  0  0  0  0  0  0
  188.3290  174.6410  141.3280 C   0  0  0  0  0  0  0  0  0  0  0  0
  188.1490  174.6130  139.9420 O   0  0  0  0  0  0  0  0  0  0  0  0
  188.5010  173.4840  139.1510 C   0  0  0  0  0  2  0  0  0  0  0  0
  189.9770  173.5500  138.7570 C   0  0  0  0  0  2  0  0  0  0  0  0
  191.8310  171.9370  138.4990 C   0  0  0  0  0  1  0  0  0  0  0  0
  191.6090  173.1730  140.6190 C   0  0  0  0  0  1  0  0  0  0  0  0
  190.8410  172.5190  139.4850 C   0  0  0  0  0  0  0  0  0  0  0  0
  190.0520  171.4860  139.9920 O   0  0  0  0  0  1  0  0  0  0  0  0
  190.0330  177.0900  144.8910 C   0  0  0  0  0  2  0  0  0  0  0  0
  190.9860  176.7830  145.9020 O   0  0  0  0  0  0  0  0  0  0  0  0
  195.1770  175.2670  145.4140 C   0  0  0  0  0  3  0  0  0  0  0  0
  194.5660  175.7100  146.5110 C   0  0  0  0  0  3  0  0  0  0  0  0
  192.3300  176.5060  145.6330 C   0  0  0  0  0  0  0  0  0  0  0  0
  193.1310  176.0420  146.6130 C   0  0  0  0  0  3  0  0  0  0  0  0
  193.7640  176.1710  143.6080 C   0  0  0  0  0  3  0  0  0  0  0  0
  192.8030  176.8170  144.2690 C   0  0  0  0  0  3  0  0  0  0  0  0
  194.4530  174.9630  144.1460 C   0  0  0  0  0  2  0  0  0  0  0  0
  1 12  1  0  0  0  0
  2  8  1  0  0  0  0
  3 16  1  0  0  0  0
  4 26  1  6  0  0  0
  5 10  2  0  0  0  0
  6  2  2  0  0  0  0
  6  5  1  0  0  0  0
  7 13  1  6  0  0  0
  7 15  1  0  0  0  0
  8  3  1  0  0  0  0
  8  1  2  0  0  0  0
  9  4  1  0  0  0  0
 10  1  1  0  0  0  0
 12 11  1  0  0  0  0
 13  2  1  0  0  0  0
 14 18  1  1  0  0  0
 14  7  1  0  0  0  0
 14  9  1  0  0  0  0
 15  4  1  0  0  0  0
 15  3  1  1  0  0  0
 16 11  1  0  0  0  0
 18 17  2  0  0  0  0
 19 18  1  0  0  0  0
 20 19  1  0  0  0  0
 21 20  1  0  0  0  0
 21 24  1  0  0  0  0
 22 24  1  0  0  0  0
 24 25  1  0  0  0  0
 24 23  1  0  0  0  0
 26 27  1  0  0  0  0
 28 29  2  0  0  0  0
 29 31  1  0  0  0  0
 30 27  1  0  0  0  0
 30 31  2  0  0  0  0
 32 34  1  0  0  0  0
 32 33  2  0  0  0  0
 33 30  1  0  0  0  0
 34 28  1  0  0  0  0
M  END
>  <MODEL>
5

>  <REMARK>
 VINA RESULT:      -6.8      1.294      1.692
  Name = 
  8 active torsions:
  status: ('A' for Active; 'I' for Inactive)
    1  A    between atoms: C_5  and  C_26
    2  A    between atoms: C_12  and  O_28
    3  A    between atoms: O_13  and  C_17
    4  A    between atoms: O_13  and  C_33
    5  A    between atoms: C_17  and  C_29
    6  A    between atoms: C_20  and  C_34
    7  A    between atoms: C_26  and  O_28
    8  A    between atoms: C_33  and  C_34
                            x       y       z     vdW  Elec       q    Type
                         _______ _______ _______ _____ _____    ______ ____

>  <TORSDO>
F 8

$$$$
=
 OpenBabel11052418543D

 34 38  0  0  1  0  0  0  0  0999 V2000
  190.8180  173.3700  140.3180 C   0  0  0  0  0  0  0  0  0  0  0  0
  192.2160  174.7230  141.7510 C   0  0  0  0  0  0  0  0  0  0  0  0
  189.8100  174.4240  142.3170 N   0  0  0  0  0  0  0  0  0  0  0  0
  188.8800  175.9200  144.1720 C   0  0  2  0  0  3  0  0  0  0  0  0
  193.1090  173.6940  139.8180 C   0  0  0  0  0  3  0  0  0  0  0  0
  193.2630  174.4690  140.9230 N   0  0  0  0  0  0  0  0  0  0  0  0
  191.1150  176.1750  143.4170 C   0  0  2  0  0  3  0  0  0  0  0  0
  190.9520  174.1640  141.4680 C   0  0  0  0  0  0  0  0  0  0  0  0
  189.5760  176.9140  145.1090 C   0  0  0  0  0  2  0  0  0  0  0  0
  191.9000  173.1480  139.5270 N   0  0  0  0  0  0  0  0  0  0  0  0
  188.3330  173.3680  140.6820 C   0  0  0  0  0  2  0  0  0  0  0  0
  189.5210  172.6770  140.0130 C   0  0  0  0  0  2  0  0  0  0  0  0
  192.4370  175.5450  142.9940 C   0  0  0  0  0  2  0  0  0  0  0  0
  191.0560  176.9790  144.7060 C   0  0  1  0  0  3  0  0  0  0  0  0
  190.0450  175.1300  143.5820 C   0  0  2  0  0  3  0  0  0  0  0  0
  188.6210  173.5880  142.1620 C   0  0  0  0  0  2  0  0  0  0  0  0
  191.3990  175.5610  146.5910 O   0  0  0  0  0  0  0  0  0  0  0  0
  191.9090  176.3870  145.7880 C   0  0  0  0  0  0  0  0  0  0  0  0
  193.2440  176.7800  145.9230 O   0  0  0  0  0  0  0  0  0  0  0  0
  194.2370  175.9280  146.4810 C   0  0  0  0  0  2  0  0  0  0  0  0
  195.2930  175.5830  145.4310 C   0  0  0  0  0  2  0  0  0  0  0  0
  196.5730  173.5190  145.8840 C   0  0  0  0  0  1  0  0  0  0  0  0
  194.1290  173.3730  145.6090 C   0  0  0  0  0  1  0  0  0  0  0  0
  195.3840  174.0850  145.1380 C   0  0  0  0  0  0  0  0  0  0  0  0
  195.5610  173.8610  143.7720 O   0  0  0  0  0  1  0  0  0  0  0  0
  188.1220  176.7170  143.1150 C   0  0  0  0  0  2  0  0  0  0  0  0
  186.7210  176.5370  143.2820 O   0  0  0  0  0  0  0  0  0  0  0  0
  184.8120  178.3850  146.8940 C   0  0  0  0  0  3  0  0  0  0  0  0
  184.8560  177.1050  146.5290 C   0  0  0  0  0  3  0  0  0  0  0  0
  185.9720  177.2000  144.2590 C   0  0  0  0  0  0  0  0  0  0  0  0
  185.6440  176.5670  145.4030 C   0  0  0  0  0  3  0  0  0  0  0  0
  185.3360  179.5630  144.7930 C   0  0  0  0  0  3  0  0  0  0  0  0
  185.5230  178.5680  143.9260 C   0  0  0  0  0  3  0  0  0  0  0  0
  185.6390  179.4450  146.2480 C   0  0  0  0  0  2  0  0  0  0  0  0
  1  8  1  0  0  0  0
  2 13  1  0  0  0  0
  4 26  1  6  0  0  0
  4  9  1  0  0  0  0
  5  6  2  0  0  0  0
  6  2  1  0  0  0  0
  7 13  1  1  0  0  0
  7 15  1  0  0  0  0
  7 14  1  0  0  0  0
  8  2  2  0  0  0  0
  8  3  1  0  0  0  0
 10  5  1  0  0  0  0
 10  1  2  0  0  0  0
 11 16  1  0  0  0  0
 12  1  1  0  0  0  0
 12 11  1  0  0  0  0
 14  9  1  0  0  0  0
 14 18  1  1  0  0  0
 15  3  1  6  0  0  0
 15  4  1  0  0  0  0
 16  3  1  0  0  0  0
 18 19  1  0  0  0  0
 18 17  2  0  0  0  0
 19 20  1  0  0  0  0
 21 20  1  0  0  0  0
 24 21  1  0  0  0  0
 24 23  1  0  0  0  0
 24 22  1  0  0  0  0
 25 24  1  0  0  0  0
 26 27  1  0  0  0  0
 27 30  1  0  0  0  0
 29 28  2  0  0  0  0
 30 31  2  0  0  0  0
 31 29  1  0  0  0  0
 32 34  1  0  0  0  0
 33 30  1  0  0  0  0
 33 32  2  0  0  0  0
 34 28  1  0  0  0  0
M  END
>  <MODEL>
6

>  <REMARK>
 VINA RESULT:      -6.7      2.844      7.296
  Name = 
  8 active torsions:
  status: ('A' for Active; 'I' for Inactive)
    1  A    between atoms: C_5  and  C_26
    2  A    between atoms: C_12  and  O_28
    3  A    between atoms: O_13  and  C_17
    4  A    between atoms: O_13  and  C_33
    5  A    between atoms: C_17  and  C_29
    6  A    between atoms: C_20  and  C_34
    7  A    between atoms: C_26  and  O_28
    8  A    between atoms: C_33  and  C_34
                            x       y       z     vdW  Elec       q    Type
                         _______ _______ _______ _____ _____    ______ ____

>  <TORSDO>
F 8

$$$$
=
 OpenBabel11052418543D

 34 38  0  0  1  0  0  0  0  0999 V2000
  191.0990  172.6410  141.5190 C   0  0  0  0  0  0  0  0  0  0  0  0
  192.4440  174.5750  142.0550 C   0  0  0  0  0  0  0  0  0  0  0  0
  190.9340  173.6160  143.7870 N   0  0  0  0  0  0  0  0  0  0  0  0
  190.6020  175.0080  145.9080 C   0  0  2  0  0  3  0  0  0  0  0  0
  192.5430  173.5960  139.9040 C   0  0  0  0  0  3  0  0  0  0  0  0
  192.9450  174.5420  140.7930 N   0  0  0  0  0  0  0  0  0  0  0  0
  191.8980  175.8410  144.1030 C   0  0  2  0  0  3  0  0  0  0  0  0
  191.5010  173.6050  142.4570 C   0  0  0  0  0  0  0  0  0  0  0  0
  191.2710  176.3060  146.3770 C   0  0  0  0  0  2  0  0  0  0  0  0
  191.6340  172.6540  140.2710 N   0  0  0  0  0  0  0  0  0  0  0  0
  189.3190  171.9040  143.1310 C   0  0  0  0  0  2  0  0  0  0  0  0
  190.1660  171.5320  141.9140 C   0  0  0  0  0  2  0  0  0  0  0  0
  192.9530  175.6070  143.0280 C   0  0  0  0  0  2  0  0  0  0  0  0
  192.2150  176.7740  145.2600 C   0  0  1  0  0  3  0  0  0  0  0  0
  191.5050  174.5490  144.7660 C   0  0  2  0  0  3  0  0  0  0  0  0
  190.2120  172.4320  144.2480 C   0  0  0  0  0  2  0  0  0  0  0  0
  194.4460  177.5930  145.4450 O   0  0  0  0  0  0  0  0  0  0  0  0
  193.6410  176.6620  145.7120 C   0  0  0  0  0  0  0  0  0  0  0  0
  194.0740  175.5170  146.3870 O   0  0  0  0  0  0  0  0  0  0  0  0
  195.3400  174.9180  146.1360 C   0  0  0  0  0  2  0  0  0  0  0  0
  195.1750  173.6620  145.2800 C   0  0  0  0  0  2  0  0  0  0  0  0
  196.6410  175.0050  143.8130 C   0  0  0  0  0  1  0  0  0  0  0  0
  197.3430  172.7290  144.4440 C   0  0  0  0  0  1  0  0  0  0  0  0
  196.1500  173.6030  144.1030 C   0  0  0  0  0  0  0  0  0  0  0  0
  195.5160  173.1030  142.9650 O   0  0  0  0  0  1  0  0  0  0  0  0
  189.1920  175.3470  145.4350 C   0  0  0  0  0  2  0  0  0  0  0  0
  188.7090  176.4930  146.1260 O   0  0  0  0  0  0  0  0  0  0  0  0
  184.6510  178.3950  146.2550 C   0  0  0  0  0  3  0  0  0  0  0  0
  185.0860  177.3000  146.8750 C   0  0  0  0  0  3  0  0  0  0  0  0
  187.4240  177.0130  145.9480 C   0  0  0  0  0  0  0  0  0  0  0  0
  186.4870  176.8340  146.9000 C   0  0  0  0  0  3  0  0  0  0  0  0
  186.3150  178.6940  144.4600 C   0  0  0  0  0  3  0  0  0  0  0  0
  187.1600  177.6820  144.6580 C   0  0  0  0  0  3  0  0  0  0  0  0
  185.5610  179.3550  145.5650 C   0  0  0  0  0  2  0  0  0  0  0  0
  1 12  1  0  0  0  0
  1  8  1  0  0  0  0
  2  8  2  0  0  0  0
  2 13  1  0  0  0  0
  3 16  1  0  0  0  0
  4 26  1  6  0  0  0
  4  9  1  0  0  0  0
  5 10  1  0  0  0  0
  5  6  2  0  0  0  0
  6  2  1  0  0  0  0
  7 13  1  6  0  0  0
  7 15  1  0  0  0  0
  7 14  1  0  0  0  0
  8  3  1  0  0  0  0
 10  1  2  0  0  0  0
 11 16  1  0  0  0  0
 12 11  1  0  0  0  0
 14 18  1  1  0  0  0
 14  9  1  0  0  0  0
 15  3  1  6  0  0  0
 15  4  1  0  0  0  0
 17 18  2  0  0  0  0
 18 19  1  0  0  0  0
 20 19  1  0  0  0  0
 21 20  1  0  0  0  0
 22 24  1  0  0  0  0
 24 23  1  0  0  0  0
 24 21  1  0  0  0  0
 25 24  1  0  0  0  0
 26 27  1  0  0  0  0
 28 29  2  0  0  0  0
 29 31  1  0  0  0  0
 30 27  1  0  0  0  0
 30 31  2  0  0  0  0
 32 33  2  0  0  0  0
 32 34  1  0  0  0  0
 33 30  1  0  0  0  0
 34 28  1  0  0  0  0
M  END
>  <MODEL>
7

>  <REMARK>
 VINA RESULT:      -6.6      3.250      7.250
  Name = 
  8 active torsions:
  status: ('A' for Active; 'I' for Inactive)
    1  A    between atoms: C_5  and  C_26
    2  A    between atoms: C_12  and  O_28
    3  A    between atoms: O_13  and  C_17
    4  A    between atoms: O_13  and  C_33
    5  A    between atoms: C_17  and  C_29
    6  A    between atoms: C_20  and  C_34
    7  A    between atoms: C_26  and  O_28
    8  A    between atoms: C_33  and  C_34
                            x       y       z     vdW  Elec       q    Type
                         _______ _______ _______ _____ _____    ______ ____

>  <TORSDO>
F 8

$$$$
=
 OpenBabel11052418543D

 34 38  0  0  1  0  0  0  0  0999 V2000
  194.3470  174.3200  145.5820 C   0  0  0  0  0  0  0  0  0  0  0  0
  192.9360  172.8450  144.2900 C   0  0  0  0  0  0  0  0  0  0  0  0
  192.2430  175.2120  144.6320 N   0  0  0  0  0  0  0  0  0  0  0  0
  189.8590  175.8160  143.9300 C   0  0  2  0  0  3  0  0  0  0  0  0
  194.9560  172.0590  145.2360 C   0  0  0  0  0  3  0  0  0  0  0  0
  193.8320  171.8470  144.5030 N   0  0  0  0  0  0  0  0  0  0  0  0
  190.6290  173.5750  143.7990 C   0  0  2  0  0  3  0  0  0  0  0  0
  193.1810  174.1280  144.8260 C   0  0  0  0  0  0  0  0  0  0  0  0
  188.7830  174.9960  143.2070 C   0  0  0  0  0  2  0  0  0  0  0  0
  195.2090  173.2860  145.7620 N   0  0  0  0  0  0  0  0  0  0  0  0
  193.4780  176.5850  146.2330 C   0  0  0  0  0  2  0  0  0  0  0  0
  194.7050  175.6830  146.1030 C   0  0  0  0  0  2  0  0  0  0  0  0
  191.7280  172.5850  143.4290 C   0  0  0  0  0  2  0  0  0  0  0  0
  189.3360  173.5790  143.0010 C   0  0  1  0  0  3  0  0  0  0  0  0
  191.1250  174.9930  143.7080 C   0  0  2  0  0  3  0  0  0  0  0  0
  192.6800  176.5740  144.9340 C   0  0  0  0  0  2  0  0  0  0  0  0
  189.7170  174.3020  140.7630 O   0  0  0  0  0  0  0  0  0  0  0  0
  189.5640  173.3240  141.5410 C   0  0  0  0  0  0  0  0  0  0  0  0
  189.5650  172.0150  141.0490 O   0  0  0  0  0  0  0  0  0  0  0  0
  190.4600  171.5850  140.0310 C   0  0  0  0  0  2  0  0  0  0  0  0
  189.6830  171.1390  138.7930 C   0  0  0  0  0  2  0  0  0  0  0  0
  190.9990  172.9610  137.7660 C   0  0  0  0  0  1  0  0  0  0  0  0
  189.6890  171.4660  136.3100 C   0  0  0  0  0  1  0  0  0  0  0  0
  189.7170  172.1630  137.6580 C   0  0  0  0  0  0  0  0  0  0  0  0
  188.6340  173.0370  137.7520 O   0  0  0  0  0  1  0  0  0  0  0  0
  189.4740  175.9060  145.4040 C   0  0  0  0  0  2  0  0  0  0  0  0
  188.8580  177.1600  145.6700 O   0  0  0  0  0  0  0  0  0  0  0  0
  184.4660  177.9340  146.1350 C   0  0  0  0  0  3  0  0  0  0  0  0
  185.1790  176.8770  146.5200 C   0  0  0  0  0  3  0  0  0  0  0  0
  187.4780  177.3720  145.5860 C   0  0  0  0  0  0  0  0  0  0  0  0
  186.6500  176.7760  146.4670 C   0  0  0  0  0  3  0  0  0  0  0  0
  185.9360  178.9960  144.4650 C   0  0  0  0  0  3  0  0  0  0  0  0
  187.0100  178.2050  144.4600 C   0  0  0  0  0  3  0  0  0  0  0  0
  185.0870  179.2090  145.6730 C   0  0  0  0  0  2  0  0  0  0  0  0
  1 10  1  0  0  0  0
  1 12  1  0  0  0  0
  2  6  2  0  0  0  0
  2  8  1  0  0  0  0
  3  8  1  0  0  0  0
  3 16  1  0  0  0  0
  4 26  1  1  0  0  0
  5 10  2  0  0  0  0
  6  5  1  0  0  0  0
  7 13  1  6  0  0  0
  8  1  2  0  0  0  0
  9  4  1  0  0  0  0
 12 11  1  0  0  0  0
 13  2  1  0  0  0  0
 14 18  1  6  0  0  0
 14  9  1  0  0  0  0
 14  7  1  0  0  0  0
 15  7  1  0  0  0  0
 15  4  1  0  0  0  0
 15  3  1  1  0  0  0
 16 11  1  0  0  0  0
 17 18  2  0  0  0  0
 19 18  1  0  0  0  0
 20 19  1  0  0  0  0
 21 20  1  0  0  0  0
 23 24  1  0  0  0  0
 24 25  1  0  0  0  0
 24 22  1  0  0  0  0
 24 21  1  0  0  0  0
 26 27  1  0  0  0  0
 28 29  2  0  0  0  0
 30 27  1  0  0  0  0
 30 31  2  0  0  0  0
 31 29  1  0  0  0  0
 32 34  1  0  0  0  0
 33 32  2  0  0  0  0
 33 30  1  0  0  0  0
 34 28  1  0  0  0  0
M  END
>  <MODEL>
8

>  <REMARK>
 VINA RESULT:      -6.5      3.147      7.015
  Name = 
  8 active torsions:
  status: ('A' for Active; 'I' for Inactive)
    1  A    between atoms: C_5  and  C_26
    2  A    between atoms: C_12  and  O_28
    3  A    between atoms: O_13  and  C_17
    4  A    between atoms: O_13  and  C_33
    5  A    between atoms: C_17  and  C_29
    6  A    between atoms: C_20  and  C_34
    7  A    between atoms: C_26  and  O_28
    8  A    between atoms: C_33  and  C_34
                            x       y       z     vdW  Elec       q    Type
                         _______ _______ _______ _____ _____    ______ ____

>  <TORSDO>
F 8

$$$$
=
 OpenBabel11052418543D

 34 38  0  0  1  0  0  0  0  0999 V2000
  193.0660  173.8270  145.2610 C   0  0  0  0  0  0  0  0  0  0  0  0
  191.5560  172.6860  143.7580 C   0  0  0  0  0  0  0  0  0  0  0  0
  191.1500  175.0780  144.3180 N   0  0  0  0  0  0  0  0  0  0  0  0
  188.9060  176.0590  143.5790 C   0  0  2  0  0  3  0  0  0  0  0  0
  193.4020  171.5500  144.7050 C   0  0  0  0  0  3  0  0  0  0  0  0
  192.3040  171.5620  143.9040 N   0  0  0  0  0  0  0  0  0  0  0  0
  189.3920  173.7600  143.2460 C   0  0  2  0  0  3  0  0  0  0  0  0
  191.9300  173.8660  144.4370 C   0  0  0  0  0  0  0  0  0  0  0  0
  187.7790  175.4640  142.7260 C   0  0  0  0  0  2  0  0  0  0  0  0
  193.7780  172.6750  145.3690 N   0  0  0  0  0  0  0  0  0  0  0  0
  192.4550  176.1110  146.1080 C   0  0  0  0  0  2  0  0  0  0  0  0
  193.5630  175.0710  145.9380 C   0  0  0  0  0  2  0  0  0  0  0  0
  190.3750  172.6740  142.8220 C   0  0  0  0  0  2  0  0  0  0  0  0
  188.1580  174.0130  142.3960 C   0  0  1  0  0  3  0  0  0  0  0  0
  190.0690  175.1020  143.3270 C   0  0  2  0  0  3  0  0  0  0  0  0
  191.7390  176.3330  144.7810 C   0  0  0  0  0  2  0  0  0  0  0  0
  188.6000  174.9150  140.2350 O   0  0  0  0  0  0  0  0  0  0  0  0
  188.4350  173.8760  140.9290 C   0  0  0  0  0  0  0  0  0  0  0  0
  188.4700  172.6100  140.3370 O   0  0  0  0  0  0  0  0  0  0  0  0
  188.9760  172.3970  139.0240 C   0  0  0  0  0  2  0  0  0  0  0  0
  190.4770  172.1120  139.0730 C   0  0  0  0  0  2  0  0  0  0  0  0
  189.6920  170.0470  137.9660 C   0  0  0  0  0  1  0  0  0  0  0  0
  192.0990  170.5720  137.9470 C   0  0  0  0  0  1  0  0  0  0  0  0
  190.8240  170.6550  138.7670 C   0  0  0  0  0  0  0  0  0  0  0  0
  190.9820  169.9280  139.9470 O   0  0  0  0  0  1  0  0  0  0  0  0
  188.4520  176.0530  145.0350 C   0  0  0  0  0  2  0  0  0  0  0  0
  188.3210  177.3870  145.5090 O   0  0  0  0  0  0  0  0  0  0  0  0
  184.1540  179.0380  145.4080 C   0  0  0  0  0  3  0  0  0  0  0  0
  185.1440  179.2000  144.5330 C   0  0  0  0  0  3  0  0  0  0  0  0
  187.0910  178.0350  145.6530 C   0  0  0  0  0  0  0  0  0  0  0  0
  186.4370  178.4890  144.5650 C   0  0  0  0  0  3  0  0  0  0  0  0
  185.3430  178.2780  147.4290 C   0  0  0  0  0  3  0  0  0  0  0  0
  186.6160  178.2410  147.0370 C   0  0  0  0  0  3  0  0  0  0  0  0
  184.1970  178.0300  146.5070 C   0  0  0  0  0  2  0  0  0  0  0  0
  1 10  1  0  0  0  0
  1 12  1  0  0  0  0
  2  6  2  0  0  0  0
  2  8  1  0  0  0  0
  3  8  1  0  0  0  0
  3 16  1  0  0  0  0
  4 26  1  1  0  0  0
  5 10  2  0  0  0  0
  6  5  1  0  0  0  0
  7 13  1  6  0  0  0
  7 15  1  0  0  0  0
  8  1  2  0  0  0  0
  9  4  1  0  0  0  0
 12 11  1  0  0  0  0
 13  2  1  0  0  0  0
 14 18  1  6  0  0  0
 14  9  1  0  0  0  0
 14  7  1  0  0  0  0
 15  4  1  0  0  0  0
 15  3  1  1  0  0  0
 16 11  1  0  0  0  0
 17 18  2  0  0  0  0
 19 18  1  0  0  0  0
 20 21  1  0  0  0  0
 20 19  1  0  0  0  0
 22 24  1  0  0  0  0
 23 24  1  0  0  0  0
 24 21  1  0  0  0  0
 24 25  1  0  0  0  0
 26 27  1  0  0  0  0
 27 30  1  0  0  0  0
 28 34  1  0  0  0  0
 29 31  1  0  0  0  0
 29 28  2  0  0  0  0
 30 33  1  0  0  0  0
 31 30  2  0  0  0  0
 33 32  2  0  0  0  0
 34 32  1  0  0  0  0
M  END
>  <MODEL>
9

>  <REMARK>
 VINA RESULT:      -6.4      2.832      6.674
  Name = 
  8 active torsions:
  status: ('A' for Active; 'I' for Inactive)
    1  A    between atoms: C_5  and  C_26
    2  A    between atoms: C_12  and  O_28
    3  A    between atoms: O_13  and  C_17
    4  A    between atoms: O_13  and  C_33
    5  A    between atoms: C_17  and  C_29
    6  A    between atoms: C_20  and  C_34
    7  A    between atoms: C_26  and  O_28
    8  A    between atoms: C_33  and  C_34
                            x       y       z     vdW  Elec       q    Type
                         _______ _______ _______ _____ _____    ______ ____

>  <TORSDO>
F 8

$$$$
