=
 OpenBabel11052418323D

 27 31  0  0  1  0  0  0  0  0999 V2000
  188.8980  175.2920  143.3310 C   0  0  2  0  0  3  0  0  0  0  0  0
  187.7060  175.7050  143.9710 O   0  0  0  0  0  0  0  0  0  0  0  0
  189.5190  176.6160  145.1290 C   0  0  2  0  0  0  0  0  0  0  0  0
  191.9680  175.2150  145.3830 N   0  0  0  0  0  0  0  0  0  0  0  0
  190.0070  177.9770  145.5690 C   0  0  0  0  0  2  0  0  0  0  0  0
  192.8550  174.2090  145.7870 N   0  0  0  0  0  1  0  0  0  0  0  0
  190.1040  176.0440  143.8720 C   0  0  1  0  0  3  0  0  0  0  0  0
  188.0540  176.2260  145.2350 C   0  0  1  0  0  3  0  0  0  0  0  0
  191.8150  176.4080  146.2020 C   0  0  0  0  0  2  0  0  0  0  0  0
  191.5380  174.1960  143.3300 O   0  0  0  0  0  0  0  0  0  0  0  0
  191.2260  175.0850  144.1670 C   0  0  0  0  0  0  0  0  0  0  0  0
  190.3390  176.7410  146.4100 C   0  0  2  0  0  3  0  0  0  0  0  0
  185.5260  178.9960  144.6220 C   0  0  0  0  0  3  0  0  0  0  0  0
  184.7650  178.9780  145.9200 C   0  0  0  0  0  2  0  0  0  0  0  0
  185.8940  176.8400  146.3760 C   0  0  0  0  0  3  0  0  0  0  0  0
  187.0990  177.3760  145.6300 C   0  0  2  0  0  3  0  0  0  0  0  0
  184.7950  177.5950  146.5130 C   0  0  0  0  0  3  0  0  0  0  0  0
  186.6330  178.2480  144.4660 C   0  0  0  0  0  0  0  0  0  0  0  0
  186.7450  178.4460  141.9940 C   0  0  0  0  0  1  0  0  0  0  0  0
  187.3570  178.2860  143.2670 O   0  0  0  0  0  0  0  0  0  0  0  0
  188.7890  175.3790  141.8030 C   0  0  0  0  0  2  0  0  0  0  0  0
  190.0660  171.4240  141.0560 C   0  0  0  0  0  2  0  0  0  0  0  0
  188.7370  174.0450  141.0480 C   0  0  1  0  0  3  0  0  0  0  0  0
  189.9960  173.7730  140.2570 C   0  0  0  0  0  3  0  0  0  0  0  0
  190.6150  172.5840  140.2760 C   0  0  0  0  0  3  0  0  0  0  0  0
  189.3420  171.9160  142.3020 C   0  0  0  0  0  2  0  0  0  0  0  0
  188.2200  172.8660  141.8900 C   0  0  0  0  0  2  0  0  0  0  0  0
  1 21  1  6  0  0  0
  1  7  1  0  0  0  0
  1  2  1  0  0  0  0
  3  8  1  0  0  0  0
  3  5  1  6  0  0  0
  3 12  1  0  0  0  0
  4  6  1  0  0  0  0
  4  9  1  0  0  0  0
  7 11  1  1  0  0  0
  7  3  1  0  0  0  0
  8  2  1  6  0  0  0
  8 16  1  0  0  0  0
  9 12  1  0  0  0  0
 10 11  2  0  0  0  0
 11  4  1  0  0  0  0
 12  5  1  6  0  0  0
 13 14  1  0  0  0  0
 14 17  1  0  0  0  0
 15 17  2  0  0  0  0
 16 15  1  6  0  0  0
 18 13  2  0  0  0  0
 18 16  1  0  0  0  0
 19 20  1  0  0  0  0
 20 18  1  0  0  0  0
 22 26  1  0  0  0  0
 23 21  1  1  0  0  0
 23 27  1  0  0  0  0
 24 25  2  0  0  0  0
 24 23  1  0  0  0  0
 25 22  1  0  0  0  0
 27 26  1  0  0  0  0
M  END
>  <MODEL>
1

>  <REMARK>
 VINA RESULT:      -7.0      0.000      0.000
  Name = 
  4 active torsions:
  status: ('A' for Active; 'I' for Inactive)
    1  A    between atoms: C_1  and  C_15
    2  A    between atoms: C_9  and  C_15
    3  A    between atoms: C_14  and  C_19
    4  A    between atoms: C_17  and  O_21
                            x       y       z     vdW  Elec       q    Type
                         _______ _______ _______ _____ _____    ______ ____

>  <TORSDO>
F 4

$$$$
=
 OpenBabel11052418323D

 27 31  0  0  1  0  0  0  0  0999 V2000
  189.8760  177.2610  142.7930 C   0  0  2  0  0  3  0  0  0  0  0  0
  188.6680  177.8530  142.3550 O   0  0  0  0  0  0  0  0  0  0  0  0
  188.5880  175.5680  141.8730 C   0  0  2  0  0  0  0  0  0  0  0  0
  190.9130  174.1290  141.1320 N   0  0  0  0  0  0  0  0  0  0  0  0
  187.6890  174.3870  142.1560 C   0  0  0  0  0  2  0  0  0  0  0  0
  192.0140  173.7470  140.3540 N   0  0  0  0  0  1  0  0  0  0  0  0
  189.7970  175.7430  142.7430 C   0  0  1  0  0  3  0  0  0  0  0  0
  188.0180  176.9290  141.5100 C   0  0  1  0  0  3  0  0  0  0  0  0
  189.6420  173.4390  140.9660 C   0  0  0  0  0  2  0  0  0  0  0  0
  192.1740  175.5980  142.4330 O   0  0  0  0  0  0  0  0  0  0  0  0
  191.0340  175.1780  142.0970 C   0  0  0  0  0  0  0  0  0  0  0  0
  188.4920  174.4360  140.8530 C   0  0  2  0  0  3  0  0  0  0  0  0
  184.7650  178.1660  143.0350 C   0  0  0  0  0  3  0  0  0  0  0  0
  183.8610  178.1410  141.8330 C   0  0  0  0  0  2  0  0  0  0  0  0
  185.9020  177.8420  140.4930 C   0  0  0  0  0  3  0  0  0  0  0  0
  186.4830  177.0520  141.6490 C   0  0  2  0  0  3  0  0  0  0  0  0
  184.6670  178.3540  140.5800 C   0  0  0  0  0  3  0  0  0  0  0  0
  186.0070  177.6540  142.9690 C   0  0  0  0  0  0  0  0  0  0  0  0
  186.4420  178.1710  145.3580 C   0  0  0  0  0  1  0  0  0  0  0  0
  186.8400  177.6530  144.0950 O   0  0  0  0  0  0  0  0  0  0  0  0
  190.3030  177.7810  144.1720 C   0  0  0  0  0  2  0  0  0  0  0  0
  191.3440  176.5340  148.0700 C   0  0  0  0  0  2  0  0  0  0  0  0
  190.4390  176.7300  145.2810 C   0  0  1  0  0  3  0  0  0  0  0  0
  191.8800  176.4520  145.6480 C   0  0  0  0  0  3  0  0  0  0  0  0
  192.2980  176.3830  146.9200 C   0  0  0  0  0  3  0  0  0  0  0  0
  190.2090  177.4800  147.7010 C   0  0  0  0  0  2  0  0  0  0  0  0
  189.4850  176.9420  146.4690 C   0  0  0  0  0  2  0  0  0  0  0  0
  1 21  1  1  0  0  0
  2  1  1  0  0  0  0
  3  5  1  1  0  0  0
  3  7  1  0  0  0  0
  4 11  1  0  0  0  0
  6  4  1  0  0  0  0
  7 11  1  6  0  0  0
  7  1  1  0  0  0  0
  8 16  1  0  0  0  0
  8  3  1  0  0  0  0
  8  2  1  1  0  0  0
  9  4  1  0  0  0  0
 11 10  2  0  0  0  0
 12  9  1  1  0  0  0
 12  3  1  0  0  0  0
 12  5  1  0  0  0  0
 14 13  1  0  0  0  0
 15 17  2  0  0  0  0
 16 15  1  6  0  0  0
 16 18  1  0  0  0  0
 17 14  1  0  0  0  0
 18 13  2  0  0  0  0
 18 20  1  0  0  0  0
 20 19  1  0  0  0  0
 23 21  1  6  0  0  0
 23 24  1  0  0  0  0
 23 27  1  0  0  0  0
 24 25  2  0  0  0  0
 25 22  1  0  0  0  0
 26 22  1  0  0  0  0
 27 26  1  0  0  0  0
M  END
>  <MODEL>
2

>  <REMARK>
 VINA RESULT:      -7.0      1.997      4.929
  Name = 
  4 active torsions:
  status: ('A' for Active; 'I' for Inactive)
    1  A    between atoms: C_1  and  C_15
    2  A    between atoms: C_9  and  C_15
    3  A    between atoms: C_14  and  C_19
    4  A    between atoms: C_17  and  O_21
                            x       y       z     vdW  Elec       q    Type
                         _______ _______ _______ _____ _____    ______ ____

>  <TORSDO>
F 4

$$$$
=
 OpenBabel11052418323D

 27 31  0  0  1  0  0  0  0  0999 V2000
  188.7040  175.8210  144.7690 C   0  0  2  0  0  3  0  0  0  0  0  0
  189.6510  175.4930  145.7670 O   0  0  0  0  0  0  0  0  0  0  0  0
  190.5980  175.0520  143.6770 C   0  0  2  0  0  0  0  0  0  0  0  0
  189.0330  174.1110  141.5110 N   0  0  0  0  0  0  0  0  0  0  0  0
  191.8330  175.4360  142.8950 C   0  0  0  0  0  2  0  0  0  0  0  0
  188.2240  173.2380  140.7740 N   0  0  0  0  0  1  0  0  0  0  0  0
  189.3310  175.8000  143.3840 C   0  0  1  0  0  3  0  0  0  0  0  0
  190.6680  174.7260  145.1600 C   0  0  1  0  0  3  0  0  0  0  0  0
  190.4760  174.0770  141.3310 C   0  0  0  0  0  2  0  0  0  0  0  0
  187.2090  175.2650  142.3960 O   0  0  0  0  0  0  0  0  0  0  0  0
  188.4500  175.0470  142.4240 C   0  0  0  0  0  0  0  0  0  0  0  0
  191.1930  174.0610  142.6790 C   0  0  2  0  0  3  0  0  0  0  0  0
  194.4050  174.3200  145.7110 C   0  0  0  0  0  3  0  0  0  0  0  0
  194.7690  175.6920  146.2080 C   0  0  0  0  0  2  0  0  0  0  0  0
  192.5340  176.3910  145.4570 C   0  0  0  0  0  3  0  0  0  0  0  0
  192.0340  175.0100  145.8270 C   0  0  2  0  0  3  0  0  0  0  0  0
  193.8220  176.7130  145.6370 C   0  0  0  0  0  3  0  0  0  0  0  0
  193.1170  173.9770  145.5270 C   0  0  0  0  0  0  0  0  0  0  0  0
  193.7410  171.7020  144.7520 C   0  0  0  0  0  1  0  0  0  0  0  0
  192.7770  172.6900  145.0890 O   0  0  0  0  0  0  0  0  0  0  0  0
  187.9900  177.1460  145.0690 C   0  0  0  0  0  2  0  0  0  0  0  0
  184.1260  178.7320  145.6950 C   0  0  0  0  0  2  0  0  0  0  0  0
  186.4680  177.1550  144.8780 C   0  0  1  0  0  3  0  0  0  0  0  0
  185.7170  176.8840  146.1620 C   0  0  0  0  0  3  0  0  0  0  0  0
  184.6610  177.6150  146.5460 C   0  0  0  0  0  3  0  0  0  0  0  0
  185.2530  179.3900  144.9100 C   0  0  0  0  0  2  0  0  0  0  0  0
  185.9460  178.3390  144.0460 C   0  0  0  0  0  2  0  0  0  0  0  0
  1 21  1  1  0  0  0
  1  2  1  0  0  0  0
  3  5  1  6  0  0  0
  3  8  1  0  0  0  0
  4 11  1  0  0  0  0
  6  4  1  0  0  0  0
  7 11  1  6  0  0  0
  7  3  1  0  0  0  0
  7  1  1  0  0  0  0
  8  2  1  1  0  0  0
  8 16  1  0  0  0  0
  9  4  1  0  0  0  0
 10 11  2  0  0  0  0
 12  9  1  6  0  0  0
 12  5  1  0  0  0  0
 12  3  1  0  0  0  0
 13 14  1  0  0  0  0
 15 17  2  0  0  0  0
 16 15  1  6  0  0  0
 17 14  1  0  0  0  0
 18 13  2  0  0  0  0
 18 16  1  0  0  0  0
 19 20  1  0  0  0  0
 20 18  1  0  0  0  0
 22 25  1  0  0  0  0
 23 21  1  1  0  0  0
 23 24  1  0  0  0  0
 24 25  2  0  0  0  0
 26 22  1  0  0  0  0
 27 23  1  0  0  0  0
 27 26  1  0  0  0  0
M  END
>  <MODEL>
3

>  <REMARK>
 VINA RESULT:      -7.0      2.342      6.759
  Name = 
  4 active torsions:
  status: ('A' for Active; 'I' for Inactive)
    1  A    between atoms: C_1  and  C_15
    2  A    between atoms: C_9  and  C_15
    3  A    between atoms: C_14  and  C_19
    4  A    between atoms: C_17  and  O_21
                            x       y       z     vdW  Elec       q    Type
                         _______ _______ _______ _____ _____    ______ ____

>  <TORSDO>
F 4

$$$$
=
 OpenBabel11052418323D

 27 31  0  0  1  0  0  0  0  0999 V2000
  188.8160  176.2170  144.3930 C   0  0  2  0  0  3  0  0  0  0  0  0
  189.9230  176.0910  145.2650 O   0  0  0  0  0  0  0  0  0  0  0  0
  190.5050  175.1760  143.1960 C   0  0  2  0  0  0  0  0  0  0  0  0
  188.6050  173.8250  141.5870 N   0  0  0  0  0  0  0  0  0  0  0  0
  191.5850  175.3460  142.1510 C   0  0  0  0  0  2  0  0  0  0  0  0
  187.6920  172.8330  141.2080 N   0  0  0  0  0  1  0  0  0  0  0  0
  189.1980  175.8750  142.9620 C   0  0  1  0  0  3  0  0  0  0  0  0
  190.8300  175.1820  144.6800 C   0  0  1  0  0  3  0  0  0  0  0  0
  189.9970  173.7130  141.1780 C   0  0  0  0  0  2  0  0  0  0  0  0
  186.9450  175.1940  142.4890 O   0  0  0  0  0  0  0  0  0  0  0  0
  188.1750  174.9530  142.3550 C   0  0  0  0  0  0  0  0  0  0  0  0
  190.9330  173.9750  142.3560 C   0  0  2  0  0  3  0  0  0  0  0  0
  193.6860  176.2350  146.9540 C   0  0  0  0  0  3  0  0  0  0  0  0
  194.8570  175.6110  146.2450 C   0  0  0  0  0  2  0  0  0  0  0  0
  193.1990  174.3640  144.9240 C   0  0  0  0  0  3  0  0  0  0  0  0
  192.2860  175.5690  145.0280 C   0  0  2  0  0  3  0  0  0  0  0  0
  194.4110  174.3850  145.4960 C   0  0  0  0  0  3  0  0  0  0  0  0
  192.4630  176.2270  146.3940 C   0  0  0  0  0  0  0  0  0  0  0  0
  191.3700  177.1320  148.4320 C   0  0  0  0  0  1  0  0  0  0  0  0
  191.3780  176.8310  147.0420 O   0  0  0  0  0  0  0  0  0  0  0  0
  188.1480  177.5930  144.5090 C   0  0  0  0  0  2  0  0  0  0  0  0
  184.5100  178.2530  146.5480 C   0  0  0  0  0  2  0  0  0  0  0  0
  186.6170  177.6000  144.6080 C   0  0  1  0  0  3  0  0  0  0  0  0
  186.0930  176.5910  145.6050 C   0  0  0  0  0  3  0  0  0  0  0  0
  185.1460  176.8940  146.5040 C   0  0  0  0  0  3  0  0  0  0  0  0
  185.5040  179.3210  146.1140 C   0  0  0  0  0  2  0  0  0  0  0  0
  185.9990  179.0050  144.7050 C   0  0  0  0  0  2  0  0  0  0  0  0
  1 21  1  6  0  0  0
  1  2  1  0  0  0  0
  3  5  1  6  0  0  0
  3  8  1  0  0  0  0
  4 11  1  0  0  0  0
  5 12  1  0  0  0  0
  6  4  1  0  0  0  0
  7 11  1  1  0  0  0
  7  3  1  0  0  0  0
  7  1  1  0  0  0  0
  8 16  1  0  0  0  0
  8  2  1  1  0  0  0
  9  4  1  0  0  0  0
 11 10  2  0  0  0  0
 12  9  1  6  0  0  0
 12  3  1  0  0  0  0
 14 13  1  0  0  0  0
 15 17  2  0  0  0  0
 16 15  1  1  0  0  0
 16 18  1  0  0  0  0
 17 14  1  0  0  0  0
 18 13  2  0  0  0  0
 18 20  1  0  0  0  0
 20 19  1  0  0  0  0
 23 21  1  1  0  0  0
 23 27  1  0  0  0  0
 23 24  1  0  0  0  0
 24 25  2  0  0  0  0
 25 22  1  0  0  0  0
 26 22  1  0  0  0  0
 27 26  1  0  0  0  0
M  END
>  <MODEL>
4

>  <REMARK>
 VINA RESULT:      -6.8      2.415      6.588
  Name = 
  4 active torsions:
  status: ('A' for Active; 'I' for Inactive)
    1  A    between atoms: C_1  and  C_15
    2  A    between atoms: C_9  and  C_15
    3  A    between atoms: C_14  and  C_19
    4  A    between atoms: C_17  and  O_21
                            x       y       z     vdW  Elec       q    Type
                         _______ _______ _______ _____ _____    ______ ____

>  <TORSDO>
F 4

$$$$
=
 OpenBabel11052418323D

 27 31  0  0  1  0  0  0  0  0999 V2000
  187.0580  177.2090  144.7040 C   0  0  2  0  0  3  0  0  0  0  0  0
  187.9230  176.1630  144.3040 O   0  0  0  0  0  0  0  0  0  0  0  0
  187.1100  177.2220  142.3870 C   0  0  2  0  0  0  0  0  0  0  0  0
  184.4850  178.2820  142.2810 N   0  0  0  0  0  0  0  0  0  0  0  0
  187.6620  177.8960  141.1520 C   0  0  0  0  0  2  0  0  0  0  0  0
  183.0850  178.2910  142.2730 N   0  0  0  0  0  1  0  0  0  0  0  0
  186.6890  178.1000  143.5270 C   0  0  1  0  0  3  0  0  0  0  0  0
  187.7180  175.9380  142.9270 C   0  0  1  0  0  3  0  0  0  0  0  0
  185.2090  178.2150  141.0200 C   0  0  0  0  0  2  0  0  0  0  0  0
  184.6080  178.6770  144.5760 O   0  0  0  0  0  0  0  0  0  0  0  0
  185.2070  178.3580  143.5140 C   0  0  0  0  0  0  0  0  0  0  0  0
  186.3170  177.1660  141.0830 C   0  0  2  0  0  3  0  0  0  0  0  0
  191.4860  175.6430  142.5420 C   0  0  0  0  0  3  0  0  0  0  0  0
  191.5940  174.3420  141.7940 C   0  0  0  0  0  2  0  0  0  0  0  0
  189.2220  174.0020  142.3480 C   0  0  0  0  0  3  0  0  0  0  0  0
  189.0350  175.5020  142.2460 C   0  0  2  0  0  3  0  0  0  0  0  0
  190.4270  173.4550  142.1350 C   0  0  0  0  0  3  0  0  0  0  0  0
  190.2860  176.2090  142.7630 C   0  0  0  0  0  0  0  0  0  0  0  0
  191.2690  178.3500  143.5490 C   0  0  0  0  0  1  0  0  0  0  0  0
  190.1880  177.4330  143.4370 O   0  0  0  0  0  0  0  0  0  0  0  0
  187.6290  178.0050  145.8850 C   0  0  0  0  0  2  0  0  0  0  0  0
  190.3700  175.1280  147.3150 C   0  0  0  0  0  2  0  0  0  0  0  0
  188.2960  177.1850  146.9970 C   0  0  1  0  0  3  0  0  0  0  0  0
  187.9930  175.7070  146.8930 C   0  0  0  0  0  3  0  0  0  0  0  0
  188.9420  174.7680  147.0180 C   0  0  0  0  0  3  0  0  0  0  0  0
  190.7200  176.4750  146.6960 C   0  0  0  0  0  2  0  0  0  0  0  0
  189.7720  177.5410  147.2420 C   0  0  0  0  0  2  0  0  0  0  0  0
  1 21  1  1  0  0  0
  2  1  1  0  0  0  0
  3  5  1  6  0  0  0
  3  8  1  0  0  0  0
  3  7  1  0  0  0  0
  4 11  1  0  0  0  0
  6  4  1  0  0  0  0
  7 11  1  6  0  0  0
  7  1  1  0  0  0  0
  8  2  1  1  0  0  0
  9  4  1  0  0  0  0
 11 10  2  0  0  0  0
 12  9  1  1  0  0  0
 12  5  1  0  0  0  0
 12  3  1  0  0  0  0
 13 18  2  0  0  0  0
 14 17  1  0  0  0  0
 14 13  1  0  0  0  0
 16 15  1  1  0  0  0
 16 18  1  0  0  0  0
 16  8  1  0  0  0  0
 17 15  2  0  0  0  0
 18 20  1  0  0  0  0
 20 19  1  0  0  0  0
 23 21  1  6  0  0  0
 23 27  1  0  0  0  0
 24 23  1  0  0  0  0
 24 25  2  0  0  0  0
 25 22  1  0  0  0  0
 26 27  1  0  0  0  0
 26 22  1  0  0  0  0
M  END
>  <MODEL>
5

>  <REMARK>
 VINA RESULT:      -6.7      3.074      6.492
  Name = 
  4 active torsions:
  status: ('A' for Active; 'I' for Inactive)
    1  A    between atoms: C_1  and  C_15
    2  A    between atoms: C_9  and  C_15
    3  A    between atoms: C_14  and  C_19
    4  A    between atoms: C_17  and  O_21
                            x       y       z     vdW  Elec       q    Type
                         _______ _______ _______ _____ _____    ______ ____

>  <TORSDO>
F 4

$$$$
=
 OpenBabel11052418323D

 27 31  0  0  1  0  0  0  0  0999 V2000
  189.9060  176.6130  144.4890 C   0  0  2  0  0  3  0  0  0  0  0  0
  189.1270  177.7770  144.6830 O   0  0  0  0  0  0  0  0  0  0  0  0
  187.8370  176.2120  143.5240 C   0  0  2  0  0  0  0  0  0  0  0  0
  188.9980  174.4370  141.6460 N   0  0  0  0  0  0  0  0  0  0  0  0
  186.5020  175.5200  143.6720 C   0  0  0  0  0  2  0  0  0  0  0  0
  189.6500  174.0240  140.4770 N   0  0  0  0  0  1  0  0  0  0  0  0
  189.0590  175.4620  143.9670 C   0  0  1  0  0  3  0  0  0  0  0  0
  188.0030  177.6900  143.8350 C   0  0  1  0  0  3  0  0  0  0  0  0
  187.5440  174.4890  141.6760 C   0  0  0  0  0  2  0  0  0  0  0  0
  190.9740  174.5020  142.8840 O   0  0  0  0  0  0  0  0  0  0  0  0
  189.7490  174.7900  142.8120 C   0  0  0  0  0  0  0  0  0  0  0  0
  187.0590  175.8070  142.2750 C   0  0  2  0  0  3  0  0  0  0  0  0
  184.4000  178.8780  144.0330 C   0  0  0  0  0  3  0  0  0  0  0  0
  184.1570  178.8010  145.5160 C   0  0  0  0  0  2  0  0  0  0  0  0
  186.2540  177.5210  145.6390 C   0  0  0  0  0  3  0  0  0  0  0  0
  186.7740  178.3610  144.4900 C   0  0  2  0  0  3  0  0  0  0  0  0
  185.0210  177.7290  146.1220 C   0  0  0  0  0  3  0  0  0  0  0  0
  185.6300  178.6760  143.5290 C   0  0  0  0  0  0  0  0  0  0  0  0
  184.8920  178.4260  141.1710 C   0  0  0  0  0  1  0  0  0  0  0  0
  185.8620  178.7740  142.1510 O   0  0  0  0  0  0  0  0  0  0  0  0
  190.6960  176.2350  145.7490 C   0  0  0  0  0  2  0  0  0  0  0  0
  194.8600  176.0030  145.0850 C   0  0  0  0  0  2  0  0  0  0  0  0
  192.1280  176.7770  145.8410 C   0  0  1  0  0  3  0  0  0  0  0  0
  193.0110  175.9420  146.7400 C   0  0  0  0  0  3  0  0  0  0  0  0
  194.2500  175.5710  146.3880 C   0  0  0  0  0  3  0  0  0  0  0  0
  193.7850  176.1480  144.0170 C   0  0  0  0  0  2  0  0  0  0  0  0
  192.7430  177.1610  144.4840 C   0  0  0  0  0  2  0  0  0  0  0  0
  1  2  1  0  0  0  0
  1 21  1  1  0  0  0
  3  5  1  1  0  0  0
  3  8  1  0  0  0  0
  3  7  1  0  0  0  0
  4  9  1  0  0  0  0
  4 11  1  0  0  0  0
  6  4  1  0  0  0  0
  7 11  1  6  0  0  0
  7  1  1  0  0  0  0
  8 16  1  0  0  0  0
  8  2  1  1  0  0  0
 11 10  2  0  0  0  0
 12  9  1  1  0  0  0
 12  3  1  0  0  0  0
 12  5  1  0  0  0  0
 13 14  1  0  0  0  0
 14 17  1  0  0  0  0
 15 17  2  0  0  0  0
 16 15  1  1  0  0  0
 18 13  2  0  0  0  0
 18 16  1  0  0  0  0
 19 20  1  0  0  0  0
 20 18  1  0  0  0  0
 22 25  1  0  0  0  0
 23 21  1  6  0  0  0
 23 24  1  0  0  0  0
 25 24  2  0  0  0  0
 26 27  1  0  0  0  0
 26 22  1  0  0  0  0
 27 23  1  0  0  0  0
M  END
>  <MODEL>
6

>  <REMARK>
 VINA RESULT:      -6.7      2.258      4.393
  Name = 
  4 active torsions:
  status: ('A' for Active; 'I' for Inactive)
    1  A    between atoms: C_1  and  C_15
    2  A    between atoms: C_9  and  C_15
    3  A    between atoms: C_14  and  C_19
    4  A    between atoms: C_17  and  O_21
                            x       y       z     vdW  Elec       q    Type
                         _______ _______ _______ _____ _____    ______ ____

>  <TORSDO>
F 4

$$$$
=
 OpenBabel11052418323D

 27 31  0  0  1  0  0  0  0  0999 V2000
  190.0970  176.1640  144.0310 C   0  0  2  0  0  3  0  0  0  0  0  0
  189.1380  177.2020  144.0880 O   0  0  0  0  0  0  0  0  0  0  0  0
  188.3500  175.5470  142.6400 C   0  0  2  0  0  0  0  0  0  0  0  0
  190.1120  174.0510  141.0020 N   0  0  0  0  0  0  0  0  0  0  0  0
  187.1240  174.6770  142.4820 C   0  0  0  0  0  2  0  0  0  0  0  0
  191.0420  173.7950  139.9870 N   0  0  0  0  0  1  0  0  0  0  0  0
  189.5470  174.9430  143.3110 C   0  0  1  0  0  3  0  0  0  0  0  0
  188.2370  177.0150  143.0190 C   0  0  1  0  0  3  0  0  0  0  0  0
  188.6900  173.9080  140.7250 C   0  0  0  0  0  2  0  0  0  0  0  0
  191.7610  174.3080  142.6310 O   0  0  0  0  0  0  0  0  0  0  0  0
  190.5490  174.4340  142.3090 C   0  0  0  0  0  0  0  0  0  0  0  0
  187.9110  175.1140  141.2430 C   0  0  2  0  0  3  0  0  0  0  0  0
  185.4460  177.9590  145.4180 C   0  0  0  0  0  3  0  0  0  0  0  0
  184.6780  178.9470  144.5840 C   0  0  0  0  0  2  0  0  0  0  0  0
  186.6120  178.9380  143.0640 C   0  0  0  0  0  3  0  0  0  0  0  0
  186.8170  177.4790  143.4170 C   0  0  2  0  0  3  0  0  0  0  0  0
  185.6040  179.6290  143.6130 C   0  0  0  0  0  3  0  0  0  0  0  0
  186.4590  177.2530  144.8840 C   0  0  0  0  0  0  0  0  0  0  0  0
  187.3410  176.4380  147.0570 C   0  0  0  0  0  1  0  0  0  0  0  0
  187.1580  176.3130  145.6530 O   0  0  0  0  0  0  0  0  0  0  0  0
  190.6560  175.8240  145.4190 C   0  0  0  0  0  2  0  0  0  0  0  0
  194.8640  176.1480  145.2640 C   0  0  0  0  0  2  0  0  0  0  0  0
  191.9930  176.4790  145.7920 C   0  0  1  0  0  3  0  0  0  0  0  0
  192.8710  175.5760  146.6280 C   0  0  0  0  0  3  0  0  0  0  0  0
  194.1770  175.4080  146.3760 C   0  0  0  0  0  3  0  0  0  0  0  0
  193.9000  176.3920  144.1110 C   0  0  0  0  0  2  0  0  0  0  0  0
  192.6970  177.1830  144.6200 C   0  0  0  0  0  2  0  0  0  0  0  0
  1  2  1  0  0  0  0
  1 21  1  1  0  0  0
  3  5  1  1  0  0  0
  3  8  1  0  0  0  0
  3  7  1  0  0  0  0
  4 11  1  0  0  0  0
  6  4  1  0  0  0  0
  7 11  1  6  0  0  0
  7  1  1  0  0  0  0
  8 16  1  0  0  0  0
  8  2  1  1  0  0  0
  9  4  1  0  0  0  0
 11 10  2  0  0  0  0
 12  9  1  1  0  0  0
 12  5  1  0  0  0  0
 12  3  1  0  0  0  0
 14 13  1  0  0  0  0
 15 17  2  0  0  0  0
 16 15  1  1  0  0  0
 16 18  1  0  0  0  0
 17 14  1  0  0  0  0
 18 13  2  0  0  0  0
 18 20  1  0  0  0  0
 20 19  1  0  0  0  0
 22 25  1  0  0  0  0
 23 21  1  6  0  0  0
 23 24  1  0  0  0  0
 25 24  2  0  0  0  0
 26 27  1  0  0  0  0
 26 22  1  0  0  0  0
 27 23  1  0  0  0  0
M  END
>  <MODEL>
7

>  <REMARK>
 VINA RESULT:      -6.7      2.133      4.700
  Name = 
  4 active torsions:
  status: ('A' for Active; 'I' for Inactive)
    1  A    between atoms: C_1  and  C_15
    2  A    between atoms: C_9  and  C_15
    3  A    between atoms: C_14  and  C_19
    4  A    between atoms: C_17  and  O_21
                            x       y       z     vdW  Elec       q    Type
                         _______ _______ _______ _____ _____    ______ ____

>  <TORSDO>
F 4

$$$$
=
 OpenBabel11052418323D

 27 31  0  0  1  0  0  0  0  0999 V2000
  189.0130  174.6130  143.5250 C   0  0  2  0  0  3  0  0  0  0  0  0
  188.0120  175.5050  143.9760 O   0  0  0  0  0  0  0  0  0  0  0  0
  190.0280  176.6760  143.8190 C   0  0  2  0  0  0  0  0  0  0  0  0
  192.5100  175.4340  144.3860 N   0  0  0  0  0  0  0  0  0  0  0  0
  190.5610  177.9150  143.1380 C   0  0  0  0  0  2  0  0  0  0  0  0
  193.5080  174.8080  145.1430 N   0  0  0  0  0  1  0  0  0  0  0  0
  190.2890  175.3550  143.1580 C   0  0  1  0  0  3  0  0  0  0  0  0
  188.6550  176.6590  144.4720 C   0  0  1  0  0  3  0  0  0  0  0  0
  192.5290  176.8800  144.2290 C   0  0  0  0  0  2  0  0  0  0  0  0
  191.6020  173.4100  143.6640 O   0  0  0  0  0  0  0  0  0  0  0  0
  191.4840  174.6620  143.7540 C   0  0  0  0  0  0  0  0  0  0  0  0
  191.1460  177.4750  144.4830 C   0  0  2  0  0  3  0  0  0  0  0  0
  185.9410  178.7090  142.7790 C   0  0  0  0  0  3  0  0  0  0  0  0
  185.5560  179.6440  143.8920 C   0  0  0  0  0  2  0  0  0  0  0  0
  186.8550  178.1720  145.3740 C   0  0  0  0  0  3  0  0  0  0  0  0
  187.7930  177.9160  144.2120 C   0  0  2  0  0  3  0  0  0  0  0  0
  185.8020  178.9860  145.2230 C   0  0  0  0  0  3  0  0  0  0  0  0
  186.9970  177.8860  142.9090 C   0  0  0  0  0  0  0  0  0  0  0  0
  187.0660  177.2950  140.4990 C   0  0  0  0  0  1  0  0  0  0  0  0
  187.3710  177.0340  141.8620 O   0  0  0  0  0  0  0  0  0  0  0  0
  188.5100  173.7150  142.3870 C   0  0  0  0  0  2  0  0  0  0  0  0
  189.4860  172.3060  138.5270 C   0  0  0  0  0  2  0  0  0  0  0  0
  189.3400  173.7240  141.0970 C   0  0  1  0  0  3  0  0  0  0  0  0
  190.1480  172.4590  140.9150 C   0  0  0  0  0  3  0  0  0  0  0  0
  190.1990  171.8000  139.7480 C   0  0  0  0  0  3  0  0  0  0  0  0
  188.2120  173.0420  138.9210 C   0  0  0  0  0  2  0  0  0  0  0  0
  188.5660  174.1970  139.8540 C   0  0  0  0  0  2  0  0  0  0  0  0
  1 21  1  6  0  0  0
  1  2  1  0  0  0  0
  3  5  1  6  0  0  0
  3  8  1  0  0  0  0
  3 12  1  0  0  0  0
  4  6  1  0  0  0  0
  7  1  1  0  0  0  0
  7 11  1  1  0  0  0
  7  3  1  0  0  0  0
  8  2  1  6  0  0  0
  9  4  1  0  0  0  0
  9 12  1  0  0  0  0
 10 11  2  0  0  0  0
 11  4  1  0  0  0  0
 12  5  1  6  0  0  0
 13 18  2  0  0  0  0
 13 14  1  0  0  0  0
 14 17  1  0  0  0  0
 16  8  1  0  0  0  0
 16 15  1  1  0  0  0
 17 15  2  0  0  0  0
 18 16  1  0  0  0  0
 19 20  1  0  0  0  0
 20 18  1  0  0  0  0
 22 26  1  0  0  0  0
 22 25  1  0  0  0  0
 23 21  1  1  0  0  0
 24 23  1  0  0  0  0
 25 24  2  0  0  0  0
 26 27  1  0  0  0  0
 27 23  1  0  0  0  0
M  END
>  <MODEL>
8

>  <REMARK>
 VINA RESULT:      -6.6      1.313      1.810
  Name = 
  4 active torsions:
  status: ('A' for Active; 'I' for Inactive)
    1  A    between atoms: C_1  and  C_15
    2  A    between atoms: C_9  and  C_15
    3  A    between atoms: C_14  and  C_19
    4  A    between atoms: C_17  and  O_21
                            x       y       z     vdW  Elec       q    Type
                         _______ _______ _______ _____ _____    ______ ____

>  <TORSDO>
F 4

$$$$
=
 OpenBabel11052418323D

 27 31  0  0  1  0  0  0  0  0999 V2000
  187.5700  176.9410  143.3480 C   0  0  2  0  0  3  0  0  0  0  0  0
  188.9190  177.0310  143.7650 O   0  0  0  0  0  0  0  0  0  0  0  0
  187.5690  176.8650  145.6650 C   0  0  2  0  0  0  0  0  0  0  0  0
  184.9890  178.0330  145.7550 N   0  0  0  0  0  0  0  0  0  0  0  0
  187.4460  175.9840  146.8870 C   0  0  0  0  0  2  0  0  0  0  0  0
  184.0180  179.0410  145.7640 N   0  0  0  0  0  1  0  0  0  0  0  0
  186.6560  176.5780  144.5090 C   0  0  1  0  0  3  0  0  0  0  0  0
  188.9240  177.3170  145.1460 C   0  0  1  0  0  3  0  0  0  0  0  0
  185.5220  177.5380  147.0160 C   0  0  0  0  0  2  0  0  0  0  0  0
  184.8160  177.7020  143.4530 O   0  0  0  0  0  0  0  0  0  0  0  0
  185.4470  177.4740  144.5200 C   0  0  0  0  0  0  0  0  0  0  0  0
  187.0460  177.4600  146.9700 C   0  0  2  0  0  3  0  0  0  0  0  0
  192.6080  176.5760  145.7080 C   0  0  0  0  0  3  0  0  0  0  0  0
  192.6170  176.2860  147.1840 C   0  0  0  0  0  2  0  0  0  0  0  0
  190.3400  177.2160  147.2270 C   0  0  0  0  0  3  0  0  0  0  0  0
  190.1400  176.6540  145.8340 C   0  0  2  0  0  3  0  0  0  0  0  0
  191.5070  177.0410  147.8630 C   0  0  0  0  0  3  0  0  0  0  0  0
  191.4470  176.7510  145.0510 C   0  0  0  0  0  0  0  0  0  0  0  0
  192.3330  176.3670  142.7630 C   0  0  0  0  0  1  0  0  0  0  0  0
  191.4380  176.9950  143.6720 O   0  0  0  0  0  0  0  0  0  0  0  0
  187.4010  175.9950  142.1520 C   0  0  0  0  0  2  0  0  0  0  0  0
  189.2350  172.2970  141.2580 C   0  0  0  0  0  2  0  0  0  0  0  0
  188.6100  175.1150  141.8060 C   0  0  1  0  0  3  0  0  0  0  0  0
  188.9500  174.1330  142.9040 C   0  0  0  0  0  3  0  0  0  0  0  0
  189.2150  172.8420  142.6580 C   0  0  0  0  0  3  0  0  0  0  0  0
  188.2360  173.0410  140.3830 C   0  0  0  0  0  2  0  0  0  0  0  0
  188.5750  174.5290  140.3840 C   0  0  0  0  0  2  0  0  0  0  0  0
  1 21  1  6  0  0  0
  1  2  1  0  0  0  0
  1  7  1  0  0  0  0
  3  5  1  1  0  0  0
  3 12  1  0  0  0  0
  4  6  1  0  0  0  0
  4  9  1  0  0  0  0
  7 11  1  1  0  0  0
  7  3  1  0  0  0  0
  8  2  1  6  0  0  0
  8  3  1  0  0  0  0
  8 16  1  0  0  0  0
 10 11  2  0  0  0  0
 11  4  1  0  0  0  0
 12  5  1  1  0  0  0
 12  9  1  0  0  0  0
 13 14  1  0  0  0  0
 14 17  1  0  0  0  0
 15 17  2  0  0  0  0
 16 15  1  1  0  0  0
 18 13  2  0  0  0  0
 18 16  1  0  0  0  0
 19 20  1  0  0  0  0
 20 18  1  0  0  0  0
 22 25  1  0  0  0  0
 23 21  1  1  0  0  0
 23 24  1  0  0  0  0
 25 24  2  0  0  0  0
 26 27  1  0  0  0  0
 26 22  1  0  0  0  0
 27 23  1  0  0  0  0
M  END
>  <MODEL>
9

>  <REMARK>
 VINA RESULT:      -6.6      2.653      4.965
  Name = 
  4 active torsions:
  status: ('A' for Active; 'I' for Inactive)
    1  A    between atoms: C_1  and  C_15
    2  A    between atoms: C_9  and  C_15
    3  A    between atoms: C_14  and  C_19
    4  A    between atoms: C_17  and  O_21
                            x       y       z     vdW  Elec       q    Type
                         _______ _______ _______ _____ _____    ______ ____

>  <TORSDO>
F 4

$$$$
