=
 OpenBabel11052419513D

 55 56  0  0  1  0  0  0  0  0999 V2000
  191.5540  174.1090  140.9740 O   0  0  0  0  0  0  0  0  0  0  0  0
  191.2350  172.1500  139.7320 N   0  0  0  0  0  0  0  0  0  0  0  0
  191.7810  172.8740  140.8570 C   0  0  0  0  0  0  0  0  0  0  0  0
  190.0840  172.7210  139.0100 C   0  0  2  0  0  3  0  0  0  0  0  0
  190.5090  173.8980  138.1350 C   0  0  0  0  0  1  0  0  0  0  0  0
  187.7610  172.3530  139.4990 O   0  0  0  0  0  1  0  0  0  0  0  0
  188.8870  173.0660  139.9120 C   0  0  2  0  0  3  0  0  0  0  0  0
  188.5720  174.5600  139.9360 C   0  0  0  0  0  2  0  0  0  0  0  0
  188.0600  174.9720  141.3060 C   0  0  0  0  0  2  0  0  0  0  0  0
  189.1650  175.6530  142.0990 C   0  0  0  0  0  2  0  0  0  0  0  0
  189.2520  175.0700  143.5080 C   0  0  1  0  0  3  0  0  0  0  0  0
  191.3970  176.3490  143.5620 C   0  0  0  0  0  3  0  0  0  0  0  0
  193.0680  175.9790  145.2880 C   0  0  0  0  0  0  0  0  0  0  0  0
  191.0040  174.6960  145.2890 C   0  0  0  0  0  3  0  0  0  0  0  0
  192.2430  175.0000  145.8610 C   0  0  0  0  0  3  0  0  0  0  0  0
  192.6360  176.6510  144.1350 C   0  0  0  0  0  3  0  0  0  0  0  0
  190.5770  175.3720  144.1360 C   0  0  0  0  0  0  0  0  0  0  0  0
  194.3390  176.2870  145.8780 N   0  0  0  0  0  0  0  0  0  0  0  0
  195.2810  175.3240  146.0120 O   0  0  0  0  0  1  0  0  0  0  0  0
  194.6230  177.5860  146.3220 N   0  0  0  0  0  1  0  0  0  0  0  0
  188.1320  176.8160  144.6440 N   0  0  0  0  0  0  0  0  0  0  0  0
  188.1750  175.5830  144.3400 N   0  0  0  0  0  0  0  0  0  0  0  0
  187.1530  177.2170  146.8410 C   0  0  0  0  0  3  0  0  0  0  0  0
  184.9930  178.5680  145.6880 C   0  0  0  0  0  0  0  0  0  0  0  0
  185.9990  178.0370  144.8760 C   0  0  0  0  0  3  0  0  0  0  0  0
  186.1460  177.7500  147.6530 C   0  0  0  0  0  3  0  0  0  0  0  0
  187.0840  177.3590  145.4510 C   0  0  0  0  0  0  0  0  0  0  0  0
  183.9480  179.2240  145.1290 F   0  0  0  0  0  0  0  0  0  0  0  0
  185.0680  178.4250  147.0770 C   0  0  0  0  0  3  0  0  0  0  0  0
  191.8110  170.8650  139.3290 C   0  0  0  0  0  2  0  0  0  0  0  0
  191.1470  168.5700  138.5960 C   0  0  0  0  0  1  0  0  0  0  0  0
  190.8240  170.0480  138.5080 C   0  0  0  0  0  2  0  0  0  0  0  0
  192.6070  172.2080  141.9280 C   0  0  2  0  0  3  0  0  0  0  0  0
  190.4170  171.7420  142.8220 O   0  0  0  0  0  1  0  0  0  0  0  0
  191.7640  171.3800  142.9030 C   0  0  1  0  0  3  0  0  0  0  0  0
  190.8600  169.2410  141.9910 O   0  0  0  0  0  0  0  0  0  0  0  0
  191.8970  169.9180  142.6150 C   0  0  0  0  0  0  0  0  0  0  0  0
  192.9430  169.2960  142.9420 O   0  0  0  0  0  1  0  0  0  0  0  0
  193.4910  173.2190  142.6650 C   0  0  0  0  0  2  0  0  0  0  0  0
  194.9910  172.9470  142.5020 C   0  0  2  0  0  0  0  0  0  0  0  0
  194.9530  175.3330  141.8800 O   0  0  0  0  0  1  0  0  0  0  0  0
  195.5500  174.0960  141.6130 C   0  0  2  0  0  3  0  0  0  0  0  0
  195.5460  173.7950  140.1050 C   0  0  1  0  0  3  0  0  0  0  0  0
  194.5650  174.6650  139.3340 C   0  0  0  0  0  1  0  0  0  0  0  0
  197.8130  173.0970  139.8650 O   0  0  0  0  0  1  0  0  0  0  0  0
  196.9220  173.9220  139.5340 C   0  0  0  0  0  0  0  0  0  0  0  0
  197.2330  174.9610  138.6650 O   0  0  0  0  0  0  0  0  0  0  0  0
  195.0910  171.5800  141.7860 C   0  0  0  0  0  2  0  0  0  0  0  0
  196.2750  170.8980  142.0750 O   0  0  0  0  0  0  0  0  0  0  0  0
  196.5020  170.1020  140.9540 C   0  0  0  0  0  2  0  0  0  0  0  0
  195.3160  170.1970  140.0190 C   0  0  0  0  0  1  0  0  0  0  0  0
  195.5530  172.9340  143.8100 O   0  0  0  0  0  0  0  0  0  0  0  0
  194.8000  172.1360  144.6870 C   0  0  0  0  0  2  0  0  0  0  0  0
  195.7160  171.4820  145.7050 C   0  0  0  0  0  2  0  0  0  0  0  0
  197.1520  171.9010  145.4630 C   0  0  0  0  0  1  0  0  0  0  0  0
  2  3  1  0  0  0  0
  3  1  2  0  0  0  0
  3 33  1  0  0  0  0
  4  5  1  1  0  0  0
  4  2  1  0  0  0  0
  4  7  1  0  0  0  0
  7  6  1  6  0  0  0
  7  8  1  0  0  0  0
  8  9  1  0  0  0  0
  9 10  1  0  0  0  0
 11 10  1  6  0  0  0
 11 17  1  0  0  0  0
 11 22  1  0  0  0  0
 12 16  2  0  0  0  0
 12 17  1  0  0  0  0
 13 15  2  0  0  0  0
 13 18  1  0  0  0  0
 14 15  1  0  0  0  0
 16 13  1  0  0  0  0
 17 14  2  0  0  0  0
 18 19  1  0  0  0  0
 18 20  1  0  0  0  0
 21 27  1  0  0  0  0
 22 21  2  0  0  0  0
 23 26  1  0  0  0  0
 24 29  1  0  0  0  0
 25 27  1  0  0  0  0
 25 24  2  0  0  0  0
 27 23  2  0  0  0  0
 28 24  1  0  0  0  0
 29 26  2  0  0  0  0
 30  2  1  0  0  0  0
 32 31  1  0  0  0  0
 32 30  1  0  0  0  0
 33 39  1  1  0  0  0
 33 35  1  0  0  0  0
 35 34  1  6  0  0  0
 36 37  2  0  0  0  0
 37 35  1  0  0  0  0
 37 38  1  0  0  0  0
 40 48  1  6  0  0  0
 40 39  1  0  0  0  0
 40 52  1  0  0  0  0
 42 41  1  6  0  0  0
 42 40  1  0  0  0  0
 43 44  1  6  0  0  0
 43 42  1  0  0  0  0
 46 45  1  0  0  0  0
 46 43  1  0  0  0  0
 47 46  2  0  0  0  0
 48 49  1  0  0  0  0
 50 49  1  0  0  0  0
 51 50  1  0  0  0  0
 52 53  1  0  0  0  0
 53 54  1  0  0  0  0
 55 54  1  0  0  0  0
M  END
>  <MODEL>
1

>  <REMARK>
 VINA RESULT:      -4.9      0.000      0.000
  Name = 
  26 active torsions:
  status: ('A' for Active; 'I' for Inactive)
    1  A    between atoms: C_1  and  C_30
    2  A    between atoms: N_2  and  C_44
    3  A    between atoms: C_6  and  C_8
    4  A    between atoms: C_6  and  O_20
    5  A    between atoms: C_6  and  C_38
    6  A    between atoms: C_6  and  C_46
    7  A    between atoms: C_7  and  C_8
    8  A    between atoms: C_7  and  C_23
    9  A    between atoms: C_7  and  C_43
   10  A    between atoms: N_10  and  C_32
   11  A    between atoms: C_11  and  C_29
   12  A    between atoms: C_11  and  C_38
   13  A    between atoms: C_12  and  O_14
   14  A    between atoms: O_14  and  C_46
   15  A    between atoms: C_16  and  N_17
   16  A    between atoms: C_16  and  C_26
   17  A    between atoms: N_17  and  C_37
   18  A    between atoms: C_19  and  C_45
   19  A    between atoms: C_19  and  C_49
   20  A    between atoms: O_20  and  C_30
   21  A    between atoms: C_26  and  C_45
   22  A    between atoms: N_28  and  C_33
   23  A    between atoms: C_33  and  C_49
   24  A    between atoms: C_33  and  C_52
   25  A    between atoms: C_35  and  C_43
   26  A    between atoms: C_37  and  C_40
                            x       y       z     vdW  Elec       q    Type
                         _______ _______ _______ _____ _____    ______ ____

>  <TORSDO>
F 26

$$$$
=
 OpenBabel11052419513D

 55 56  0  0  1  0  0  0  0  0999 V2000
  192.7020  175.9160  142.2390 O   0  0  0  0  0  0  0  0  0  0  0  0
  190.7120  175.5840  143.4270 N   0  0  0  0  0  0  0  0  0  0  0  0
  192.1420  175.4530  143.2700 C   0  0  0  0  0  0  0  0  0  0  0  0
  190.0030  176.6160  142.6500 C   0  0  2  0  0  3  0  0  0  0  0  0
  189.9120  177.9270  143.4260 C   0  0  0  0  0  1  0  0  0  0  0  0
  188.8190  175.2310  141.0830 O   0  0  0  0  0  1  0  0  0  0  0  0
  188.6370  176.1620  142.1070 C   0  0  2  0  0  3  0  0  0  0  0  0
  187.7820  177.3230  141.6040 C   0  0  0  0  0  2  0  0  0  0  0  0
  186.3550  176.8630  141.3590 C   0  0  0  0  0  2  0  0  0  0  0  0
  185.5280  177.9980  140.7760 C   0  0  0  0  0  2  0  0  0  0  0  0
  184.6590  178.6390  141.8570 C   0  0  1  0  0  3  0  0  0  0  0  0
  182.2540  178.9340  142.4650 C   0  0  0  0  0  3  0  0  0  0  0  0
  180.4610  178.2020  140.9960 C   0  0  0  0  0  0  0  0  0  0  0  0
  182.7810  177.8810  140.3480 C   0  0  0  0  0  3  0  0  0  0  0  0
  181.4160  177.7450  140.0760 C   0  0  0  0  0  3  0  0  0  0  0  0
  180.8900  178.7970  142.1920 C   0  0  0  0  0  3  0  0  0  0  0  0
  183.2040  178.4770  141.5460 C   0  0  0  0  0  0  0  0  0  0  0  0
  179.0620  178.0620  140.7130 N   0  0  0  0  0  0  0  0  0  0  0  0
  178.2760  177.3050  141.5160 O   0  0  0  0  0  1  0  0  0  0  0  0
  178.4890  178.7040  139.6080 N   0  0  0  0  0  1  0  0  0  0  0  0
  185.6070  178.7380  144.0220 N   0  0  0  0  0  0  0  0  0  0  0  0
  184.9600  178.0660  143.1590 N   0  0  0  0  0  0  0  0  0  0  0  0
  185.3290  178.7960  146.4440 C   0  0  0  0  0  3  0  0  0  0  0  0
  187.0550  176.6160  146.7440 C   0  0  0  0  0  0  0  0  0  0  0  0
  186.7790  177.1180  145.4690 C   0  0  0  0  0  3  0  0  0  0  0  0
  185.6050  178.2910  147.7190 C   0  0  0  0  0  3  0  0  0  0  0  0
  185.9130  178.2120  145.3150 C   0  0  0  0  0  0  0  0  0  0  0  0
  187.8890  175.5580  146.8880 F   0  0  0  0  0  0  0  0  0  0  0  0
  186.4660  177.2020  147.8690 C   0  0  0  0  0  3  0  0  0  0  0  0
  189.9870  174.7110  144.3530 C   0  0  0  0  0  2  0  0  0  0  0  0
  189.6110  172.3130  144.9470 C   0  0  0  0  0  1  0  0  0  0  0  0
  189.9020  173.2870  143.8230 C   0  0  0  0  0  2  0  0  0  0  0  0
  193.0170  174.7960  144.3070 C   0  0  2  0  0  3  0  0  0  0  0  0
  192.6490  174.5770  146.6800 O   0  0  0  0  0  1  0  0  0  0  0  0
  192.9530  175.4930  145.6700 C   0  0  1  0  0  3  0  0  0  0  0  0
  194.4590  177.4810  145.6080 O   0  0  0  0  0  0  0  0  0  0  0  0
  194.2510  176.1630  145.9890 C   0  0  0  0  0  0  0  0  0  0  0  0
  195.1600  175.5380  146.5980 O   0  0  0  0  0  1  0  0  0  0  0  0
  194.4600  174.6520  143.8150 C   0  0  0  0  0  2  0  0  0  0  0  0
  194.8690  173.1980  143.5510 C   0  0  2  0  0  0  0  0  0  0  0  0
  196.5520  174.5600  142.3700 O   0  0  0  0  0  1  0  0  0  0  0  0
  196.0990  173.2550  142.5990 C   0  0  2  0  0  3  0  0  0  0  0  0
  195.9170  172.4940  141.2750 C   0  0  1  0  0  3  0  0  0  0  0  0
  196.0660  173.3900  140.0550 C   0  0  0  0  0  1  0  0  0  0  0  0
  197.2970  170.9650  140.0740 O   0  0  0  0  0  0  0  0  0  0  0  0
  196.8590  171.3360  141.1940 C   0  0  0  0  0  0  0  0  0  0  0  0
  197.2310  170.6470  142.3430 O   0  0  0  0  0  1  0  0  0  0  0  0
  193.6520  172.5400  142.8600 C   0  0  0  0  0  2  0  0  0  0  0  0
  193.6750  171.1460  142.9250 O   0  0  0  0  0  0  0  0  0  0  0  0
  192.7100  170.8250  143.8780 C   0  0  0  0  0  2  0  0  0  0  0  0
  192.7270  169.3320  144.1310 C   0  0  0  0  0  1  0  0  0  0  0  0
  195.1740  172.6190  144.8150 O   0  0  0  0  0  0  0  0  0  0  0  0
  196.5200  172.8220  145.1640 C   0  0  0  0  0  2  0  0  0  0  0  0
  196.9880  171.7120  146.0860 C   0  0  0  0  0  2  0  0  0  0  0  0
  196.2260  170.4340  145.7970 C   0  0  0  0  0  1  0  0  0  0  0  0
  1  3  2  0  0  0  0
  2 30  1  0  0  0  0
  3  2  1  0  0  0  0
  3 33  1  0  0  0  0
  4  5  1  1  0  0  0
  4  2  1  0  0  0  0
  7  6  1  6  0  0  0
  7  4  1  0  0  0  0
  8  7  1  0  0  0  0
  9  8  1  0  0  0  0
 10  9  1  0  0  0  0
 11 10  1  6  0  0  0
 11 22  1  0  0  0  0
 13 16  2  0  0  0  0
 14 17  1  0  0  0  0
 15 14  2  0  0  0  0
 15 13  1  0  0  0  0
 16 12  1  0  0  0  0
 17 11  1  0  0  0  0
 17 12  2  0  0  0  0
 18 13  1  0  0  0  0
 18 19  1  0  0  0  0
 20 18  1  0  0  0  0
 21 27  1  0  0  0  0
 22 21  2  0  0  0  0
 23 26  1  0  0  0  0
 24 28  1  0  0  0  0
 24 29  1  0  0  0  0
 25 24  2  0  0  0  0
 26 29  2  0  0  0  0
 27 25  1  0  0  0  0
 27 23  2  0  0  0  0
 32 30  1  0  0  0  0
 32 31  1  0  0  0  0
 33 39  1  6  0  0  0
 33 35  1  0  0  0  0
 35 37  1  0  0  0  0
 35 34  1  1  0  0  0
 36 37  2  0  0  0  0
 37 38  1  0  0  0  0
 40 48  1  6  0  0  0
 40 39  1  0  0  0  0
 40 52  1  0  0  0  0
 42 41  1  6  0  0  0
 42 40  1  0  0  0  0
 43 44  1  6  0  0  0
 43 42  1  0  0  0  0
 45 46  2  0  0  0  0
 46 43  1  0  0  0  0
 46 47  1  0  0  0  0
 48 49  1  0  0  0  0
 49 50  1  0  0  0  0
 50 51  1  0  0  0  0
 52 53  1  0  0  0  0
 53 54  1  0  0  0  0
 55 54  1  0  0  0  0
M  END
>  <MODEL>
2

>  <REMARK>
 VINA RESULT:      -4.8      3.609      6.721
  Name = 
  26 active torsions:
  status: ('A' for Active; 'I' for Inactive)
    1  A    between atoms: C_1  and  C_30
    2  A    between atoms: N_2  and  C_44
    3  A    between atoms: C_6  and  C_8
    4  A    between atoms: C_6  and  O_20
    5  A    between atoms: C_6  and  C_38
    6  A    between atoms: C_6  and  C_46
    7  A    between atoms: C_7  and  C_8
    8  A    between atoms: C_7  and  C_23
    9  A    between atoms: C_7  and  C_43
   10  A    between atoms: N_10  and  C_32
   11  A    between atoms: C_11  and  C_29
   12  A    between atoms: C_11  and  C_38
   13  A    between atoms: C_12  and  O_14
   14  A    between atoms: O_14  and  C_46
   15  A    between atoms: C_16  and  N_17
   16  A    between atoms: C_16  and  C_26
   17  A    between atoms: N_17  and  C_37
   18  A    between atoms: C_19  and  C_45
   19  A    between atoms: C_19  and  C_49
   20  A    between atoms: O_20  and  C_30
   21  A    between atoms: C_26  and  C_45
   22  A    between atoms: N_28  and  C_33
   23  A    between atoms: C_33  and  C_49
   24  A    between atoms: C_33  and  C_52
   25  A    between atoms: C_35  and  C_43
   26  A    between atoms: C_37  and  C_40
                            x       y       z     vdW  Elec       q    Type
                         _______ _______ _______ _____ _____    ______ ____

>  <TORSDO>
F 26

$$$$
=
 OpenBabel11052419513D

 55 56  0  0  1  0  0  0  0  0999 V2000
  192.2660  177.1100  142.4450 O   0  0  0  0  0  0  0  0  0  0  0  0
  190.5560  175.5340  142.7070 N   0  0  0  0  0  0  0  0  0  0  0  0
  191.9500  175.9030  142.6260 C   0  0  0  0  0  0  0  0  0  0  0  0
  189.5620  176.5730  143.0310 C   0  0  2  0  0  3  0  0  0  0  0  0
  188.6170  176.1090  144.1350 C   0  0  0  0  0  1  0  0  0  0  0  0
  188.8850  178.5140  141.7870 O   0  0  0  0  0  1  0  0  0  0  0  0
  188.8080  177.1210  141.8080 C   0  0  2  0  0  3  0  0  0  0  0  0
  187.3460  176.6840  141.7670 C   0  0  0  0  0  2  0  0  0  0  0  0
  186.4870  177.7630  141.1280 C   0  0  0  0  0  2  0  0  0  0  0  0
  185.0130  177.4580  141.3400 C   0  0  0  0  0  2  0  0  0  0  0  0
  184.2950  178.6660  141.9400 C   0  0  1  0  0  3  0  0  0  0  0  0
  181.9490  179.0980  142.6800 C   0  0  0  0  0  3  0  0  0  0  0  0
  180.0380  178.4610  141.3200 C   0  0  0  0  0  0  0  0  0  0  0  0
  182.2950  178.0060  140.5460 C   0  0  0  0  0  3  0  0  0  0  0  0
  180.9120  177.9460  140.3520 C   0  0  0  0  0  3  0  0  0  0  0  0
  180.5660  179.0370  142.4850 C   0  0  0  0  0  3  0  0  0  0  0  0
  182.8180  178.5840  141.7130 C   0  0  0  0  0  0  0  0  0  0  0  0
  178.6190  178.3970  141.1180 N   0  0  0  0  0  0  0  0  0  0  0  0
  177.8020  179.2920  141.7230 O   0  0  0  0  0  1  0  0  0  0  0  0
  178.0580  177.4130  140.2930 N   0  0  0  0  0  1  0  0  0  0  0  0
  185.1050  177.7970  143.9860 N   0  0  0  0  0  0  0  0  0  0  0  0
  184.5780  178.7710  143.3630 N   0  0  0  0  0  0  0  0  0  0  0  0
  185.4920  176.6800  146.1190 C   0  0  0  0  0  3  0  0  0  0  0  0
  185.9280  179.1370  147.3820 C   0  0  0  0  0  0  0  0  0  0  0  0
  185.6250  179.0970  146.0180 C   0  0  0  0  0  3  0  0  0  0  0  0
  185.7970  176.7210  147.4830 C   0  0  0  0  0  3  0  0  0  0  0  0
  185.4060  177.8660  145.3810 C   0  0  0  0  0  0  0  0  0  0  0  0
  186.1410  180.3260  147.9930 F   0  0  0  0  0  0  0  0  0  0  0  0
  186.0150  177.9480  148.1140 C   0  0  0  0  0  3  0  0  0  0  0  0
  190.1430  174.1460  142.4820 C   0  0  0  0  0  2  0  0  0  0  0  0
  188.6930  172.7620  140.9900 C   0  0  0  0  0  1  0  0  0  0  0  0
  189.6460  173.9390  141.0590 C   0  0  0  0  0  2  0  0  0  0  0  0
  193.0660  174.9000  142.7700 C   0  0  2  0  0  3  0  0  0  0  0  0
  192.6450  174.6210  140.4130 O   0  0  0  0  0  1  0  0  0  0  0  0
  193.5770  174.3770  141.4250 C   0  0  1  0  0  3  0  0  0  0  0  0
  195.0640  175.5140  139.7760 O   0  0  0  0  0  0  0  0  0  0  0  0
  194.8760  175.0220  141.0590 C   0  0  0  0  0  0  0  0  0  0  0  0
  195.8030  175.1160  141.9070 O   0  0  0  0  0  1  0  0  0  0  0  0
  192.6730  173.7540  143.7080 C   0  0  0  0  0  2  0  0  0  0  0  0
  193.5550  173.6630  144.9580 C   0  0  2  0  0  0  0  0  0  0  0  0
  195.0180  171.9330  145.9340 O   0  0  0  0  0  1  0  0  0  0  0  0
  193.8720  172.1520  145.1610 C   0  0  2  0  0  3  0  0  0  0  0  0
  193.9170  171.3300  143.8620 C   0  0  1  0  0  3  0  0  0  0  0  0
  195.3250  170.8860  143.4950 C   0  0  0  0  0  1  0  0  0  0  0  0
  191.9260  170.1490  143.2900 O   0  0  0  0  0  0  0  0  0  0  0  0
  193.0000  170.1520  143.9470 C   0  0  0  0  0  0  0  0  0  0  0  0
  193.3090  169.0740  144.7670 O   0  0  0  0  0  1  0  0  0  0  0  0
  192.6960  174.2190  146.1180 C   0  0  0  0  0  2  0  0  0  0  0  0
  191.3460  174.3440  145.7840 O   0  0  0  0  0  0  0  0  0  0  0  0
  190.7800  175.0190  146.8650 C   0  0  0  0  0  2  0  0  0  0  0  0
  191.7640  176.0420  147.3910 C   0  0  0  0  0  1  0  0  0  0  0  0
  194.7180  174.4420  144.7020 O   0  0  0  0  0  0  0  0  0  0  0  0
  194.8900  175.4460  145.6700 C   0  0  0  0  0  2  0  0  0  0  0  0
  194.6360  176.8080  145.0530 C   0  0  0  0  0  2  0  0  0  0  0  0
  195.0010  177.9040  146.0340 C   0  0  0  0  0  1  0  0  0  0  0  0
  1  3  2  0  0  0  0
  2  4  1  0  0  0  0
  3  2  1  0  0  0  0
  3 33  1  0  0  0  0
  4  5  1  1  0  0  0
  7  6  1  1  0  0  0
  7  4  1  0  0  0  0
  8  7  1  0  0  0  0
  9 10  1  0  0  0  0
  9  8  1  0  0  0  0
 11 10  1  1  0  0  0
 11 22  1  0  0  0  0
 13 16  2  0  0  0  0
 14 17  1  0  0  0  0
 15 14  2  0  0  0  0
 15 13  1  0  0  0  0
 16 12  1  0  0  0  0
 17 11  1  0  0  0  0
 17 12  2  0  0  0  0
 18 13  1  0  0  0  0
 18 19  1  0  0  0  0
 20 18  1  0  0  0  0
 21 27  1  0  0  0  0
 22 21  2  0  0  0  0
 23 26  1  0  0  0  0
 24 28  1  0  0  0  0
 24 29  1  0  0  0  0
 25 24  2  0  0  0  0
 26 29  2  0  0  0  0
 27 25  1  0  0  0  0
 27 23  2  0  0  0  0
 30  2  1  0  0  0  0
 31 32  1  0  0  0  0
 32 30  1  0  0  0  0
 33 39  1  1  0  0  0
 35 34  1  6  0  0  0
 35 33  1  0  0  0  0
 36 37  2  0  0  0  0
 37 35  1  0  0  0  0
 37 38  1  0  0  0  0
 40 39  1  6  0  0  0
 40 42  1  0  0  0  0
 40 48  1  0  0  0  0
 42 41  1  6  0  0  0
 43 44  1  1  0  0  0
 43 46  1  0  0  0  0
 43 42  1  0  0  0  0
 45 46  2  0  0  0  0
 46 47  1  0  0  0  0
 49 48  1  0  0  0  0
 49 50  1  0  0  0  0
 50 51  1  0  0  0  0
 52 40  1  0  0  0  0
 52 53  1  0  0  0  0
 54 53  1  0  0  0  0
 54 55  1  0  0  0  0
M  END
>  <MODEL>
3

>  <REMARK>
 VINA RESULT:      -4.7      3.820      7.358
  Name = 
  26 active torsions:
  status: ('A' for Active; 'I' for Inactive)
    1  A    between atoms: C_1  and  C_30
    2  A    between atoms: N_2  and  C_44
    3  A    between atoms: C_6  and  C_8
    4  A    between atoms: C_6  and  O_20
    5  A    between atoms: C_6  and  C_38
    6  A    between atoms: C_6  and  C_46
    7  A    between atoms: C_7  and  C_8
    8  A    between atoms: C_7  and  C_23
    9  A    between atoms: C_7  and  C_43
   10  A    between atoms: N_10  and  C_32
   11  A    between atoms: C_11  and  C_29
   12  A    between atoms: C_11  and  C_38
   13  A    between atoms: C_12  and  O_14
   14  A    between atoms: O_14  and  C_46
   15  A    between atoms: C_16  and  N_17
   16  A    between atoms: C_16  and  C_26
   17  A    between atoms: N_17  and  C_37
   18  A    between atoms: C_19  and  C_45
   19  A    between atoms: C_19  and  C_49
   20  A    between atoms: O_20  and  C_30
   21  A    between atoms: C_26  and  C_45
   22  A    between atoms: N_28  and  C_33
   23  A    between atoms: C_33  and  C_49
   24  A    between atoms: C_33  and  C_52
   25  A    between atoms: C_35  and  C_43
   26  A    between atoms: C_37  and  C_40
                            x       y       z     vdW  Elec       q    Type
                         _______ _______ _______ _____ _____    ______ ____

>  <TORSDO>
F 26

$$$$
=
 OpenBabel11052419513D

 55 56  0  0  1  0  0  0  0  0999 V2000
  191.6370  176.2950  143.3640 O   0  0  0  0  0  0  0  0  0  0  0  0
  189.7870  175.1050  142.5640 N   0  0  0  0  0  0  0  0  0  0  0  0
  191.1420  175.1760  143.0600 C   0  0  0  0  0  0  0  0  0  0  0  0
  188.8690  176.2240  142.8400 C   0  0  2  0  0  3  0  0  0  0  0  0
  187.6730  175.7660  143.6700 C   0  0  0  0  0  1  0  0  0  0  0  0
  188.5860  178.3790  141.8150 O   0  0  0  0  0  1  0  0  0  0  0  0
  188.4450  177.0090  141.5870 C   0  0  2  0  0  3  0  0  0  0  0  0
  187.0150  176.7030  141.1500 C   0  0  0  0  0  2  0  0  0  0  0  0
  186.3290  177.9660  140.6570 C   0  0  0  0  0  2  0  0  0  0  0  0
  184.8300  177.7380  140.5320 C   0  0  0  0  0  2  0  0  0  0  0  0
  184.0740  178.5560  141.5780 C   0  0  1  0  0  3  0  0  0  0  0  0
  181.7370  179.1260  142.2490 C   0  0  0  0  0  3  0  0  0  0  0  0
  179.8160  178.4030  140.9470 C   0  0  0  0  0  0  0  0  0  0  0  0
  182.0640  177.8100  140.2420 C   0  0  0  0  0  3  0  0  0  0  0  0
  180.6810  177.7680  140.0440 C   0  0  0  0  0  3  0  0  0  0  0  0
  180.3540  179.0820  142.0510 C   0  0  0  0  0  3  0  0  0  0  0  0
  182.5960  178.4910  141.3470 C   0  0  0  0  0  0  0  0  0  0  0  0
  178.3970  178.3570  140.7410 N   0  0  0  0  0  0  0  0  0  0  0  0
  177.7200  179.4790  140.3980 O   0  0  0  0  0  1  0  0  0  0  0  0
  177.6920  177.1550  140.8910 N   0  0  0  0  0  1  0  0  0  0  0  0
  185.1670  178.7690  143.6640 N   0  0  0  0  0  0  0  0  0  0  0  0
  184.3940  178.0910  142.9180 N   0  0  0  0  0  0  0  0  0  0  0  0
  184.4690  177.9830  145.8650 C   0  0  0  0  0  3  0  0  0  0  0  0
  187.1280  177.8640  146.7210 C   0  0  0  0  0  0  0  0  0  0  0  0
  186.8310  178.2880  145.4230 C   0  0  0  0  0  3  0  0  0  0  0  0
  184.7680  177.5580  147.1630 C   0  0  0  0  0  3  0  0  0  0  0  0
  185.4970  178.3490  144.9900 C   0  0  0  0  0  0  0  0  0  0  0  0
  188.4170  177.8040  147.1350 F   0  0  0  0  0  0  0  0  0  0  0  0
  186.0960  177.4970  147.5910 C   0  0  0  0  0  3  0  0  0  0  0  0
  189.3360  173.9320  141.8110 C   0  0  0  0  0  2  0  0  0  0  0  0
  188.6350  173.9840  139.4130 C   0  0  0  0  0  1  0  0  0  0  0  0
  189.8130  173.9830  140.3670 C   0  0  0  0  0  2  0  0  0  0  0  0
  192.0020  173.9530  143.2550 C   0  0  2  0  0  3  0  0  0  0  0  0
  192.8530  174.2410  145.4920 O   0  0  0  0  0  1  0  0  0  0  0  0
  192.0100  173.4540  144.7030 C   0  0  1  0  0  3  0  0  0  0  0  0
  190.2510  174.5220  146.1130 O   0  0  0  0  0  1  0  0  0  0  0  0
  190.6320  173.4770  145.2850 C   0  0  0  0  0  0  0  0  0  0  0  0
  189.8160  172.5510  145.0320 O   0  0  0  0  0  0  0  0  0  0  0  0
  193.4220  174.1750  142.7270 C   0  0  0  0  0  2  0  0  0  0  0  0
  193.8800  173.0930  141.7420 C   0  0  2  0  0  0  0  0  0  0  0  0
  193.6960  175.1480  140.3910 O   0  0  0  0  0  1  0  0  0  0  0  0
  194.1060  173.8100  140.3780 C   0  0  2  0  0  3  0  0  0  0  0  0
  193.5250  173.0660  139.1630 C   0  0  1  0  0  3  0  0  0  0  0  0
  192.8100  173.9930  138.1930 C   0  0  0  0  0  1  0  0  0  0  0  0
  194.6080  171.0330  138.5500 O   0  0  0  0  0  1  0  0  0  0  0  0
  194.5900  172.2880  138.4590 C   0  0  0  0  0  0  0  0  0  0  0  0
  195.5770  172.9420  137.7300 O   0  0  0  0  0  0  0  0  0  0  0  0
  192.7120  172.0820  141.6610 C   0  0  0  0  0  2  0  0  0  0  0  0
  193.0780  170.7930  142.0530 O   0  0  0  0  0  0  0  0  0  0  0  0
  191.9880  170.3270  142.7840 C   0  0  0  0  0  2  0  0  0  0  0  0
  190.7770  170.2330  141.8810 C   0  0  0  0  0  1  0  0  0  0  0  0
  195.0720  172.5270  142.2740 O   0  0  0  0  0  0  0  0  0  0  0  0
  195.4810  173.1910  143.4430 C   0  0  0  0  0  2  0  0  0  0  0  0
  195.7120  172.1850  144.5550 C   0  0  0  0  0  2  0  0  0  0  0  0
  196.9510  171.3600  144.2670 C   0  0  0  0  0  1  0  0  0  0  0  0
  2  4  1  0  0  0  0
  2  3  1  0  0  0  0
  3 33  1  0  0  0  0
  3  1  2  0  0  0  0
  4  5  1  6  0  0  0
  7  6  1  1  0  0  0
  7  4  1  0  0  0  0
  8  7  1  0  0  0  0
  9  8  1  0  0  0  0
 10  9  1  0  0  0  0
 11 10  1  6  0  0  0
 11 22  1  0  0  0  0
 13 16  2  0  0  0  0
 14 17  1  0  0  0  0
 15 14  2  0  0  0  0
 15 13  1  0  0  0  0
 16 12  1  0  0  0  0
 17 11  1  0  0  0  0
 17 12  2  0  0  0  0
 18 20  1  0  0  0  0
 18 13  1  0  0  0  0
 19 18  1  0  0  0  0
 21 27  1  0  0  0  0
 22 21  2  0  0  0  0
 23 26  1  0  0  0  0
 24 28  1  0  0  0  0
 24 29  1  0  0  0  0
 25 24  2  0  0  0  0
 26 29  2  0  0  0  0
 27 25  1  0  0  0  0
 27 23  2  0  0  0  0
 30  2  1  0  0  0  0
 31 32  1  0  0  0  0
 32 30  1  0  0  0  0
 33 39  1  1  0  0  0
 33 35  1  0  0  0  0
 35 37  1  0  0  0  0
 35 34  1  1  0  0  0
 37 36  1  0  0  0  0
 38 37  2  0  0  0  0
 40 48  1  6  0  0  0
 40 52  1  0  0  0  0
 40 39  1  0  0  0  0
 42 41  1  1  0  0  0
 42 40  1  0  0  0  0
 43 44  1  6  0  0  0
 43 42  1  0  0  0  0
 46 45  1  0  0  0  0
 46 43  1  0  0  0  0
 47 46  2  0  0  0  0
 48 49  1  0  0  0  0
 49 50  1  0  0  0  0
 51 50  1  0  0  0  0
 52 53  1  0  0  0  0
 53 54  1  0  0  0  0
 55 54  1  0  0  0  0
M  END
>  <MODEL>
4

>  <REMARK>
 VINA RESULT:      -4.7      3.984      6.701
  Name = 
  26 active torsions:
  status: ('A' for Active; 'I' for Inactive)
    1  A    between atoms: C_1  and  C_30
    2  A    between atoms: N_2  and  C_44
    3  A    between atoms: C_6  and  C_8
    4  A    between atoms: C_6  and  O_20
    5  A    between atoms: C_6  and  C_38
    6  A    between atoms: C_6  and  C_46
    7  A    between atoms: C_7  and  C_8
    8  A    between atoms: C_7  and  C_23
    9  A    between atoms: C_7  and  C_43
   10  A    between atoms: N_10  and  C_32
   11  A    between atoms: C_11  and  C_29
   12  A    between atoms: C_11  and  C_38
   13  A    between atoms: C_12  and  O_14
   14  A    between atoms: O_14  and  C_46
   15  A    between atoms: C_16  and  N_17
   16  A    between atoms: C_16  and  C_26
   17  A    between atoms: N_17  and  C_37
   18  A    between atoms: C_19  and  C_45
   19  A    between atoms: C_19  and  C_49
   20  A    between atoms: O_20  and  C_30
   21  A    between atoms: C_26  and  C_45
   22  A    between atoms: N_28  and  C_33
   23  A    between atoms: C_33  and  C_49
   24  A    between atoms: C_33  and  C_52
   25  A    between atoms: C_35  and  C_43
   26  A    between atoms: C_37  and  C_40
                            x       y       z     vdW  Elec       q    Type
                         _______ _______ _______ _____ _____    ______ ____

>  <TORSDO>
F 26

$$$$
=
 OpenBabel11052419513D

 55 56  0  0  1  0  0  0  0  0999 V2000
  192.6800  173.0690  141.0690 O   0  0  0  0  0  0  0  0  0  0  0  0
  191.6500  171.2910  139.9500 N   0  0  0  0  0  0  0  0  0  0  0  0
  192.6280  171.8260  140.8680 C   0  0  0  0  0  0  0  0  0  0  0  0
  190.4650  172.1030  139.6200 C   0  0  2  0  0  3  0  0  0  0  0  0
  190.7950  173.1610  138.5710 C   0  0  0  0  0  1  0  0  0  0  0  0
  189.4560  171.6870  141.7610 O   0  0  0  0  0  1  0  0  0  0  0  0
  189.7530  172.6990  140.8470 C   0  0  2  0  0  3  0  0  0  0  0  0
  188.4790  173.4570  140.4840 C   0  0  0  0  0  2  0  0  0  0  0  0
  188.5040  174.8540  141.0810 C   0  0  0  0  0  2  0  0  0  0  0  0
  188.5450  174.7780  142.5990 C   0  0  0  0  0  2  0  0  0  0  0  0
  189.1660  176.0460  143.1830 C   0  0  1  0  0  3  0  0  0  0  0  0
  188.1620  176.6200  145.3970 C   0  0  0  0  0  3  0  0  0  0  0  0
  186.3310  178.2060  145.6030 C   0  0  0  0  0  0  0  0  0  0  0  0
  187.2590  177.6860  143.4190 C   0  0  0  0  0  3  0  0  0  0  0  0
  186.3440  178.3840  144.2120 C   0  0  0  0  0  3  0  0  0  0  0  0
  187.2460  177.3190  146.1900 C   0  0  0  0  0  3  0  0  0  0  0  0
  188.1720  176.8010  144.0110 C   0  0  0  0  0  0  0  0  0  0  0  0
  185.3910  178.9240  146.4140 N   0  0  0  0  0  0  0  0  0  0  0  0
  184.1150  179.0940  145.9930 O   0  0  0  0  0  1  0  0  0  0  0  0
  185.7760  179.4580  147.6510 N   0  0  0  0  0  1  0  0  0  0  0  0
  191.4300  176.3440  143.7990 N   0  0  0  0  0  0  0  0  0  0  0  0
  190.3370  175.7210  143.9800 N   0  0  0  0  0  0  0  0  0  0  0  0
  192.7160  176.5930  145.8560 C   0  0  0  0  0  3  0  0  0  0  0  0
  194.7540  174.9720  144.8370 C   0  0  0  0  0  0  0  0  0  0  0  0
  193.6240  175.2450  144.0600 C   0  0  0  0  0  3  0  0  0  0  0  0
  193.8460  176.3180  146.6320 C   0  0  0  0  0  3  0  0  0  0  0  0
  192.6000  176.0590  144.5690 C   0  0  0  0  0  0  0  0  0  0  0  0
  195.7390  174.1840  144.3440 F   0  0  0  0  0  0  0  0  0  0  0  0
  194.8640  175.5070  146.1240 C   0  0  0  0  0  3  0  0  0  0  0  0
  191.8310  169.9580  139.3700 C   0  0  0  0  0  2  0  0  0  0  0  0
  190.6040  168.7990  137.5260 C   0  0  0  0  0  1  0  0  0  0  0  0
  190.5020  169.3590  138.9310 C   0  0  0  0  0  2  0  0  0  0  0  0
  193.5940  170.9510  141.6270 C   0  0  2  0  0  3  0  0  0  0  0  0
  193.5360  168.9120  142.9110 O   0  0  0  0  0  1  0  0  0  0  0  0
  192.9230  170.1570  142.7520 C   0  0  1  0  0  3  0  0  0  0  0  0
  192.2290  172.0540  144.2150 O   0  0  0  0  0  0  0  0  0  0  0  0
  192.9860  170.9040  144.0460 C   0  0  0  0  0  0  0  0  0  0  0  0
  193.7260  170.4990  144.9810 O   0  0  0  0  0  1  0  0  0  0  0  0
  194.7930  171.7540  142.1420 C   0  0  0  0  0  2  0  0  0  0  0  0
  196.0300  171.6410  141.2430 C   0  0  2  0  0  0  0  0  0  0  0  0
  197.9180  170.0630  141.4100 O   0  0  0  0  0  1  0  0  0  0  0  0
  197.1460  170.9940  142.1140 C   0  0  2  0  0  3  0  0  0  0  0  0
  196.6540  170.4070  143.4480 C   0  0  1  0  0  3  0  0  0  0  0  0
  196.8390  168.9000  143.5310 C   0  0  0  0  0  1  0  0  0  0  0  0
  197.9350  172.1660  144.4220 O   0  0  0  0  0  0  0  0  0  0  0  0
  197.3210  171.0830  144.6030 C   0  0  0  0  0  0  0  0  0  0  0  0
  197.2920  170.5090  145.8690 O   0  0  0  0  0  1  0  0  0  0  0  0
  196.3930  173.0910  140.8470 C   0  0  0  0  0  2  0  0  0  0  0  0
  195.4620  174.0290  141.2990 O   0  0  0  0  0  0  0  0  0  0  0  0
  195.6860  175.1530  140.5060 C   0  0  0  0  0  2  0  0  0  0  0  0
  196.0920  176.3170  141.3840 C   0  0  0  0  0  1  0  0  0  0  0  0
  195.6600  170.8350  140.1300 O   0  0  0  0  0  0  0  0  0  0  0  0
  196.6350  170.8720  139.1190 C   0  0  0  0  0  2  0  0  0  0  0  0
  195.9720  171.0710  137.7690 C   0  0  0  0  0  2  0  0  0  0  0  0
  194.6290  171.7530  137.9400 C   0  0  0  0  0  1  0  0  0  0  0  0
  2  3  1  0  0  0  0
  3  1  2  0  0  0  0
  3 33  1  0  0  0  0
  4  5  1  6  0  0  0
  4  2  1  0  0  0  0
  4  7  1  0  0  0  0
  7  6  1  1  0  0  0
  8  7  1  0  0  0  0
  8  9  1  0  0  0  0
  9 10  1  0  0  0  0
 11 10  1  1  0  0  0
 11 22  1  0  0  0  0
 11 17  1  0  0  0  0
 12 16  1  0  0  0  0
 13 16  2  0  0  0  0
 13 18  1  0  0  0  0
 14 17  1  0  0  0  0
 14 15  2  0  0  0  0
 15 13  1  0  0  0  0
 17 12  2  0  0  0  0
 18 20  1  0  0  0  0
 19 18  1  0  0  0  0
 21 22  2  0  0  0  0
 21 27  1  0  0  0  0
 23 26  1  0  0  0  0
 24 29  1  0  0  0  0
 25 27  1  0  0  0  0
 25 24  2  0  0  0  0
 27 23  2  0  0  0  0
 28 24  1  0  0  0  0
 29 26  2  0  0  0  0
 30  2  1  0  0  0  0
 31 32  1  0  0  0  0
 32 30  1  0  0  0  0
 33 39  1  1  0  0  0
 33 35  1  0  0  0  0
 35 34  1  1  0  0  0
 35 37  1  0  0  0  0
 37 36  2  0  0  0  0
 37 38  1  0  0  0  0
 40 48  1  6  0  0  0
 40 42  1  0  0  0  0
 40 39  1  0  0  0  0
 42 41  1  6  0  0  0
 42 43  1  0  0  0  0
 43 44  1  6  0  0  0
 43 46  1  0  0  0  0
 45 46  2  0  0  0  0
 46 47  1  0  0  0  0
 48 49  1  0  0  0  0
 50 49  1  0  0  0  0
 50 51  1  0  0  0  0
 52 40  1  0  0  0  0
 53 52  1  0  0  0  0
 54 55  1  0  0  0  0
 54 53  1  0  0  0  0
M  END
>  <MODEL>
5

>  <REMARK>
 VINA RESULT:      -4.3      2.877      5.529
  Name = 
  26 active torsions:
  status: ('A' for Active; 'I' for Inactive)
    1  A    between atoms: C_1  and  C_30
    2  A    between atoms: N_2  and  C_44
    3  A    between atoms: C_6  and  C_8
    4  A    between atoms: C_6  and  O_20
    5  A    between atoms: C_6  and  C_38
    6  A    between atoms: C_6  and  C_46
    7  A    between atoms: C_7  and  C_8
    8  A    between atoms: C_7  and  C_23
    9  A    between atoms: C_7  and  C_43
   10  A    between atoms: N_10  and  C_32
   11  A    between atoms: C_11  and  C_29
   12  A    between atoms: C_11  and  C_38
   13  A    between atoms: C_12  and  O_14
   14  A    between atoms: O_14  and  C_46
   15  A    between atoms: C_16  and  N_17
   16  A    between atoms: C_16  and  C_26
   17  A    between atoms: N_17  and  C_37
   18  A    between atoms: C_19  and  C_45
   19  A    between atoms: C_19  and  C_49
   20  A    between atoms: O_20  and  C_30
   21  A    between atoms: C_26  and  C_45
   22  A    between atoms: N_28  and  C_33
   23  A    between atoms: C_33  and  C_49
   24  A    between atoms: C_33  and  C_52
   25  A    between atoms: C_35  and  C_43
   26  A    between atoms: C_37  and  C_40
                            x       y       z     vdW  Elec       q    Type
                         _______ _______ _______ _____ _____    ______ ____

>  <TORSDO>
F 26

$$$$
=
 OpenBabel11052419513D

 55 56  0  0  1  0  0  0  0  0999 V2000
  192.2790  174.2850  140.6450 O   0  0  0  0  0  0  0  0  0  0  0  0
  191.9750  172.3980  139.2940 N   0  0  0  0  0  0  0  0  0  0  0  0
  192.7000  173.1500  140.2910 C   0  0  0  0  0  0  0  0  0  0  0  0
  190.5610  172.7290  139.0410 C   0  0  2  0  0  3  0  0  0  0  0  0
  190.4270  173.7650  137.9290 C   0  0  0  0  0  1  0  0  0  0  0  0
  189.1840  171.9890  140.8660 O   0  0  0  0  0  1  0  0  0  0  0  0
  189.7750  173.1210  140.3040 C   0  0  2  0  0  3  0  0  0  0  0  0
  188.7100  174.1810  140.0350 C   0  0  0  0  0  2  0  0  0  0  0  0
  188.1610  174.7250  141.3430 C   0  0  0  0  0  2  0  0  0  0  0  0
  189.2370  175.5040  142.0830 C   0  0  0  0  0  2  0  0  0  0  0  0
  189.3650  175.0070  143.5220 C   0  0  1  0  0  3  0  0  0  0  0  0
  191.0670  174.8530  145.3440 C   0  0  0  0  0  3  0  0  0  0  0  0
  193.1680  176.0710  145.2420 C   0  0  0  0  0  0  0  0  0  0  0  0
  191.5520  176.2680  143.4390 C   0  0  0  0  0  3  0  0  0  0  0  0
  192.7850  176.6060  144.0030 C   0  0  0  0  0  3  0  0  0  0  0  0
  192.3000  175.1920  145.9080 C   0  0  0  0  0  3  0  0  0  0  0  0
  190.6880  175.3890  144.1090 C   0  0  0  0  0  0  0  0  0  0  0  0
  194.4350  176.4190  145.8180 N   0  0  0  0  0  0  0  0  0  0  0  0
  195.2450  175.4570  146.3190 O   0  0  0  0  0  1  0  0  0  0  0  0
  194.8520  177.7560  145.8710 N   0  0  0  0  0  1  0  0  0  0  0  0
  188.0450  176.7800  144.3650 N   0  0  0  0  0  0  0  0  0  0  0  0
  188.2840  175.5320  144.3410 N   0  0  0  0  0  0  0  0  0  0  0  0
  187.0850  177.3020  146.5450 C   0  0  0  0  0  3  0  0  0  0  0  0
  184.8410  178.4540  145.3360 C   0  0  0  0  0  0  0  0  0  0  0  0
  185.8590  177.9110  144.5460 C   0  0  0  0  0  3  0  0  0  0  0  0
  186.0670  177.8470  147.3330 C   0  0  0  0  0  3  0  0  0  0  0  0
  186.9860  177.3320  145.1490 C   0  0  0  0  0  0  0  0  0  0  0  0
  183.7560  179.0130  144.7500 F   0  0  0  0  0  0  0  0  0  0  0  0
  184.9460  178.4230  146.7300 C   0  0  0  0  0  3  0  0  0  0  0  0
  192.6350  171.3170  138.5580 C   0  0  0  0  0  2  0  0  0  0  0  0
  191.5750  169.0650  138.7860 C   0  0  0  0  0  1  0  0  0  0  0  0
  191.6210  170.3440  137.9740 C   0  0  0  0  0  2  0  0  0  0  0  0
  193.9470  172.6260  140.9570 C   0  0  2  0  0  3  0  0  0  0  0  0
  193.7020  173.2790  143.2650 O   0  0  0  0  0  1  0  0  0  0  0  0
  193.7090  172.1790  142.4030 C   0  0  1  0  0  3  0  0  0  0  0  0
  191.3720  172.0100  143.2580 O   0  0  0  0  0  1  0  0  0  0  0  0
  192.4100  171.4480  142.5300 C   0  0  0  0  0  0  0  0  0  0  0  0
  192.2550  170.3230  141.9840 O   0  0  0  0  0  0  0  0  0  0  0  0
  195.1000  173.6300  140.8590 C   0  0  0  0  0  2  0  0  0  0  0  0
  196.2150  173.1830  139.9060 C   0  0  2  0  0  0  0  0  0  0  0  0
  195.1740  175.1110  138.7730 O   0  0  0  0  0  1  0  0  0  0  0  0
  196.0450  174.0270  138.6090 C   0  0  2  0  0  3  0  0  0  0  0  0
  195.6800  173.2090  137.3590 C   0  0  1  0  0  3  0  0  0  0  0  0
  194.4080  173.7000  136.6850 C   0  0  0  0  0  1  0  0  0  0  0  0
  197.9150  173.7150  136.7020 O   0  0  0  0  0  1  0  0  0  0  0  0
  196.8150  173.1900  136.3870 C   0  0  0  0  0  0  0  0  0  0  0  0
  196.6570  172.6240  135.1270 O   0  0  0  0  0  0  0  0  0  0  0  0
  195.9590  171.6820  139.6390 C   0  0  0  0  0  2  0  0  0  0  0  0
  196.8610  170.8480  140.3040 O   0  0  0  0  0  0  0  0  0  0  0  0
  196.6670  169.5940  139.7270 C   0  0  0  0  0  2  0  0  0  0  0  0
  197.9410  169.1530  139.0390 C   0  0  0  0  0  1  0  0  0  0  0  0
  197.4490  173.4300  140.5700 O   0  0  0  0  0  0  0  0  0  0  0  0
  197.2550  174.1030  141.7880 C   0  0  0  0  0  2  0  0  0  0  0  0
  197.8190  173.2790  142.9300 C   0  0  0  0  0  2  0  0  0  0  0  0
  197.9040  174.1170  144.1900 C   0  0  0  0  0  1  0  0  0  0  0  0
  2  3  1  0  0  0  0
  3  1  2  0  0  0  0
  3 33  1  0  0  0  0
  4  5  1  6  0  0  0
  4  2  1  0  0  0  0
  4  7  1  0  0  0  0
  7  6  1  6  0  0  0
  8  7  1  0  0  0  0
  8  9  1  0  0  0  0
  9 10  1  0  0  0  0
 11 10  1  6  0  0  0
 11 17  1  0  0  0  0
 11 22  1  0  0  0  0
 12 16  1  0  0  0  0
 13 18  1  0  0  0  0
 13 16  2  0  0  0  0
 14 15  2  0  0  0  0
 14 17  1  0  0  0  0
 15 13  1  0  0  0  0
 17 12  2  0  0  0  0
 18 20  1  0  0  0  0
 18 19  1  0  0  0  0
 21 27  1  0  0  0  0
 22 21  2  0  0  0  0
 23 26  1  0  0  0  0
 24 29  1  0  0  0  0
 25 27  1  0  0  0  0
 25 24  2  0  0  0  0
 27 23  2  0  0  0  0
 28 24  1  0  0  0  0
 29 26  2  0  0  0  0
 30  2  1  0  0  0  0
 32 30  1  0  0  0  0
 32 31  1  0  0  0  0
 33 39  1  1  0  0  0
 33 35  1  0  0  0  0
 35 37  1  0  0  0  0
 35 34  1  1  0  0  0
 37 36  1  0  0  0  0
 38 37  2  0  0  0  0
 40 48  1  6  0  0  0
 40 52  1  0  0  0  0
 40 39  1  0  0  0  0
 42 41  1  1  0  0  0
 42 40  1  0  0  0  0
 43 44  1  6  0  0  0
 43 42  1  0  0  0  0
 46 45  1  0  0  0  0
 46 43  1  0  0  0  0
 47 46  2  0  0  0  0
 48 49  1  0  0  0  0
 50 49  1  0  0  0  0
 51 50  1  0  0  0  0
 52 53  1  0  0  0  0
 53 54  1  0  0  0  0
 54 55  1  0  0  0  0
M  END
>  <MODEL>
6

>  <REMARK>
 VINA RESULT:      -4.2      1.446      2.066
  Name = 
  26 active torsions:
  status: ('A' for Active; 'I' for Inactive)
    1  A    between atoms: C_1  and  C_30
    2  A    between atoms: N_2  and  C_44
    3  A    between atoms: C_6  and  C_8
    4  A    between atoms: C_6  and  O_20
    5  A    between atoms: C_6  and  C_38
    6  A    between atoms: C_6  and  C_46
    7  A    between atoms: C_7  and  C_8
    8  A    between atoms: C_7  and  C_23
    9  A    between atoms: C_7  and  C_43
   10  A    between atoms: N_10  and  C_32
   11  A    between atoms: C_11  and  C_29
   12  A    between atoms: C_11  and  C_38
   13  A    between atoms: C_12  and  O_14
   14  A    between atoms: O_14  and  C_46
   15  A    between atoms: C_16  and  N_17
   16  A    between atoms: C_16  and  C_26
   17  A    between atoms: N_17  and  C_37
   18  A    between atoms: C_19  and  C_45
   19  A    between atoms: C_19  and  C_49
   20  A    between atoms: O_20  and  C_30
   21  A    between atoms: C_26  and  C_45
   22  A    between atoms: N_28  and  C_33
   23  A    between atoms: C_33  and  C_49
   24  A    between atoms: C_33  and  C_52
   25  A    between atoms: C_35  and  C_43
   26  A    between atoms: C_37  and  C_40
                            x       y       z     vdW  Elec       q    Type
                         _______ _______ _______ _____ _____    ______ ____

>  <TORSDO>
F 26

$$$$
=
 OpenBabel11052419513D

 55 56  0  0  1  0  0  0  0  0999 V2000
  193.4420  172.7860  141.0610 O   0  0  0  0  0  0  0  0  0  0  0  0
  191.1750  172.9330  140.4960 N   0  0  0  0  0  0  0  0  0  0  0  0
  192.4930  172.3610  140.3470 C   0  0  0  0  0  0  0  0  0  0  0  0
  190.8470  173.6480  141.7430 C   0  0  2  0  0  3  0  0  0  0  0  0
  191.9420  174.6440  142.1130 C   0  0  0  0  0  1  0  0  0  0  0  0
  189.1460  172.3150  142.7940 O   0  0  0  0  0  1  0  0  0  0  0  0
  190.4750  172.7240  142.9150 C   0  0  2  0  0  3  0  0  0  0  0  0
  190.6920  173.3770  144.2780 C   0  0  0  0  0  2  0  0  0  0  0  0
  189.4070  174.0250  144.7660 C   0  0  0  0  0  2  0  0  0  0  0  0
  189.3880  174.0770  146.2860 C   0  0  0  0  0  2  0  0  0  0  0  0
  189.7630  175.4730  146.7800 C   0  0  1  0  0  3  0  0  0  0  0  0
  191.3220  176.8200  145.3670 C   0  0  0  0  0  3  0  0  0  0  0  0
  193.7350  176.5720  145.5260 C   0  0  0  0  0  0  0  0  0  0  0  0
  192.2730  175.2270  146.9250 C   0  0  0  0  0  3  0  0  0  0  0  0
  193.5580  175.5910  146.5130 C   0  0  0  0  0  3  0  0  0  0  0  0
  192.6080  177.1830  144.9560 C   0  0  0  0  0  3  0  0  0  0  0  0
  191.1500  175.8420  146.3520 C   0  0  0  0  0  0  0  0  0  0  0  0
  195.0550  176.9430  145.1060 N   0  0  0  0  0  0  0  0  0  0  0  0
  195.8360  176.0570  144.4430 O   0  0  0  0  0  1  0  0  0  0  0  0
  195.5550  178.2250  145.3730 N   0  0  0  0  0  1  0  0  0  0  0  0
  187.5620  176.2720  146.4460 N   0  0  0  0  0  0  0  0  0  0  0  0
  188.8100  176.4590  146.2960 N   0  0  0  0  0  0  0  0  0  0  0  0
  185.5950  177.6510  146.8710 C   0  0  0  0  0  3  0  0  0  0  0  0
  185.6890  178.6720  144.2700 C   0  0  0  0  0  0  0  0  0  0  0  0
  186.6390  177.7360  144.6870 C   0  0  0  0  0  3  0  0  0  0  0  0
  184.6460  178.5880  146.4530 C   0  0  0  0  0  3  0  0  0  0  0  0
  186.5960  177.2220  145.9920 C   0  0  0  0  0  0  0  0  0  0  0  0
  185.7350  179.1690  143.0100 F   0  0  0  0  0  0  0  0  0  0  0  0
  184.6930  179.0990  145.1540 C   0  0  0  0  0  3  0  0  0  0  0  0
  190.1810  172.7900  139.4290 C   0  0  0  0  0  2  0  0  0  0  0  0
  188.2600  173.9130  138.2910 C   0  0  0  0  0  1  0  0  0  0  0  0
  189.0630  173.8120  139.5730 C   0  0  0  0  0  2  0  0  0  0  0  0
  192.7910  171.2470  139.3760 C   0  0  2  0  0  3  0  0  0  0  0  0
  194.2030  169.6840  140.5480 O   0  0  0  0  0  1  0  0  0  0  0  0
  192.9110  169.8800  140.0560 C   0  0  1  0  0  3  0  0  0  0  0  0
  190.5930  169.5230  140.9050 O   0  0  0  0  0  0  0  0  0  0  0  0
  191.9330  169.7540  141.1800 C   0  0  0  0  0  0  0  0  0  0  0  0
  192.3170  169.8620  142.3750 O   0  0  0  0  0  1  0  0  0  0  0  0
  194.0220  171.5620  138.5200 C   0  0  0  0  0  2  0  0  0  0  0  0
  193.7640  171.4320  137.0150 C   0  0  2  0  0  0  0  0  0  0  0  0
  194.8390  172.6610  135.1670 O   0  0  0  0  0  1  0  0  0  0  0  0
  194.1620  172.7990  136.3830 C   0  0  2  0  0  3  0  0  0  0  0  0
  194.9180  173.7440  137.3320 C   0  0  1  0  0  3  0  0  0  0  0  0
  196.3340  174.0390  136.8640 C   0  0  0  0  0  1  0  0  0  0  0  0
  193.6620  175.2720  138.6640 O   0  0  0  0  0  1  0  0  0  0  0  0
  194.1560  175.0140  137.5350 C   0  0  0  0  0  0  0  0  0  0  0  0
  193.9630  175.8980  136.4800 O   0  0  0  0  0  0  0  0  0  0  0  0
  192.2470  171.1660  136.8730 C   0  0  0  0  0  2  0  0  0  0  0  0
  191.8340  171.0600  135.5430 O   0  0  0  0  0  0  0  0  0  0  0  0
  190.5080  171.4890  135.5540 C   0  0  0  0  0  2  0  0  0  0  0  0
  190.4680  173.0010  135.6080 C   0  0  0  0  0  1  0  0  0  0  0  0
  194.5660  170.3530  136.5490 O   0  0  0  0  0  0  0  0  0  0  0  0
  195.5900  170.0410  137.4600 C   0  0  0  0  0  2  0  0  0  0  0  0
  196.9440  170.2900  136.8210 C   0  0  0  0  0  2  0  0  0  0  0  0
  197.8850  170.9310  137.8210 C   0  0  0  0  0  1  0  0  0  0  0  0
  2  4  1  0  0  0  0
  3  2  1  0  0  0  0
  3  1  2  0  0  0  0
  4  5  1  1  0  0  0
  4  7  1  0  0  0  0
  7  6  1  6  0  0  0
  7  8  1  0  0  0  0
  8  9  1  0  0  0  0
  9 10  1  0  0  0  0
 11 10  1  6  0  0  0
 12 17  1  0  0  0  0
 13 15  2  0  0  0  0
 15 14  1  0  0  0  0
 16 12  2  0  0  0  0
 16 13  1  0  0  0  0
 17 11  1  0  0  0  0
 17 14  2  0  0  0  0
 18 20  1  0  0  0  0
 18 13  1  0  0  0  0
 19 18  1  0  0  0  0
 22 21  2  0  0  0  0
 22 11  1  0  0  0  0
 24 25  2  0  0  0  0
 24 29  1  0  0  0  0
 25 27  1  0  0  0  0
 26 23  1  0  0  0  0
 27 21  1  0  0  0  0
 27 23  2  0  0  0  0
 28 24  1  0  0  0  0
 29 26  2  0  0  0  0
 30 32  1  0  0  0  0
 30  2  1  0  0  0  0
 31 32  1  0  0  0  0
 33 39  1  1  0  0  0
 33 35  1  0  0  0  0
 33  3  1  0  0  0  0
 35 34  1  1  0  0  0
 35 37  1  0  0  0  0
 36 37  2  0  0  0  0
 37 38  1  0  0  0  0
 40 48  1  6  0  0  0
 40 39  1  0  0  0  0
 42 41  1  6  0  0  0
 42 40  1  0  0  0  0
 42 43  1  0  0  0  0
 43 44  1  6  0  0  0
 43 46  1  0  0  0  0
 46 45  1  0  0  0  0
 47 46  2  0  0  0  0
 49 50  1  0  0  0  0
 49 48  1  0  0  0  0
 50 51  1  0  0  0  0
 52 40  1  0  0  0  0
 52 53  1  0  0  0  0
 54 53  1  0  0  0  0
 54 55  1  0  0  0  0
M  END
>  <MODEL>
7

>  <REMARK>
 VINA RESULT:      -4.1      2.370      4.210
  Name = 
  26 active torsions:
  status: ('A' for Active; 'I' for Inactive)
    1  A    between atoms: C_1  and  C_30
    2  A    between atoms: N_2  and  C_44
    3  A    between atoms: C_6  and  C_8
    4  A    between atoms: C_6  and  O_20
    5  A    between atoms: C_6  and  C_38
    6  A    between atoms: C_6  and  C_46
    7  A    between atoms: C_7  and  C_8
    8  A    between atoms: C_7  and  C_23
    9  A    between atoms: C_7  and  C_43
   10  A    between atoms: N_10  and  C_32
   11  A    between atoms: C_11  and  C_29
   12  A    between atoms: C_11  and  C_38
   13  A    between atoms: C_12  and  O_14
   14  A    between atoms: O_14  and  C_46
   15  A    between atoms: C_16  and  N_17
   16  A    between atoms: C_16  and  C_26
   17  A    between atoms: N_17  and  C_37
   18  A    between atoms: C_19  and  C_45
   19  A    between atoms: C_19  and  C_49
   20  A    between atoms: O_20  and  C_30
   21  A    between atoms: C_26  and  C_45
   22  A    between atoms: N_28  and  C_33
   23  A    between atoms: C_33  and  C_49
   24  A    between atoms: C_33  and  C_52
   25  A    between atoms: C_35  and  C_43
   26  A    between atoms: C_37  and  C_40
                            x       y       z     vdW  Elec       q    Type
                         _______ _______ _______ _____ _____    ______ ____

>  <TORSDO>
F 26

$$$$
=
 OpenBabel11052419513D

 55 56  0  0  1  0  0  0  0  0999 V2000
  191.0640  176.3860  143.4400 O   0  0  0  0  0  0  0  0  0  0  0  0
  189.7830  174.9660  142.0900 N   0  0  0  0  0  0  0  0  0  0  0  0
  190.9680  175.2720  142.8570 C   0  0  0  0  0  0  0  0  0  0  0  0
  188.5470  175.7240  142.3580 C   0  0  2  0  0  3  0  0  0  0  0  0
  187.3320  174.8010  142.4040 C   0  0  0  0  0  1  0  0  0  0  0  0
  188.8570  178.0800  142.0060 O   0  0  0  0  0  1  0  0  0  0  0  0
  188.3340  176.9260  141.4220 C   0  0  2  0  0  3  0  0  0  0  0  0
  186.8660  177.1470  141.0650 C   0  0  0  0  0  2  0  0  0  0  0  0
  186.3920  178.4940  141.5820 C   0  0  0  0  0  2  0  0  0  0  0  0
  184.9060  178.6710  141.3070 C   0  0  0  0  0  2  0  0  0  0  0  0
  184.0760  177.8780  142.3150 C   0  0  1  0  0  3  0  0  0  0  0  0
  185.2480  176.9600  144.3210 C   0  0  0  0  0  3  0  0  0  0  0  0
  185.6430  178.3080  146.3050 C   0  0  0  0  0  0  0  0  0  0  0  0
  184.4910  179.2600  144.3880 C   0  0  0  0  0  3  0  0  0  0  0  0
  185.0050  179.3910  145.6820 C   0  0  0  0  0  3  0  0  0  0  0  0
  185.7610  177.0920  145.6150 C   0  0  0  0  0  3  0  0  0  0  0  0
  184.6120  178.0410  143.7030 C   0  0  0  0  0  0  0  0  0  0  0  0
  186.1680  178.4460  147.6320 N   0  0  0  0  0  0  0  0  0  0  0  0
  186.5070  177.3490  148.3500 O   0  0  0  0  0  1  0  0  0  0  0  0
  186.3400  179.7140  148.2040 N   0  0  0  0  0  1  0  0  0  0  0  0
  181.9920  178.0900  141.2160 N   0  0  0  0  0  0  0  0  0  0  0  0
  182.6830  178.2900  142.2640 N   0  0  0  0  0  0  0  0  0  0  0  0
  179.7120  177.9740  142.0740 C   0  0  0  0  0  3  0  0  0  0  0  0
  178.8190  179.7140  140.0750 C   0  0  0  0  0  0  0  0  0  0  0  0
  180.1660  179.3450  140.1290 C   0  0  0  0  0  3  0  0  0  0  0  0
  178.3650  178.3440  142.0190 C   0  0  0  0  0  3  0  0  0  0  0  0
  180.6180  178.4730  141.1320 C   0  0  0  0  0  0  0  0  0  0  0  0
  178.3870  180.5580  139.1080 F   0  0  0  0  0  0  0  0  0  0  0  0
  177.9180  179.2140  141.0210 C   0  0  0  0  0  3  0  0  0  0  0  0
  189.8100  173.9120  141.0730 C   0  0  0  0  0  2  0  0  0  0  0  0
  191.0610  173.0580  139.0850 C   0  0  0  0  0  1  0  0  0  0  0  0
  190.7280  174.2810  139.9170 C   0  0  0  0  0  2  0  0  0  0  0  0
  192.1080  174.2980  143.0130 C   0  0  2  0  0  3  0  0  0  0  0  0
  191.8640  174.3980  145.4090 O   0  0  0  0  0  1  0  0  0  0  0  0
  192.0570  173.5260  144.3350 C   0  0  1  0  0  3  0  0  0  0  0  0
  189.7260  172.8270  144.8810 O   0  0  0  0  0  1  0  0  0  0  0  0
  190.9560  172.5140  144.3210 C   0  0  0  0  0  0  0  0  0  0  0  0
  191.1390  171.3780  143.8080 O   0  0  0  0  0  0  0  0  0  0  0  0
  193.4640  174.9840  142.8120 C   0  0  0  0  0  2  0  0  0  0  0  0
  194.6210  173.9960  142.6200 C   0  0  2  0  0  0  0  0  0  0  0  0
  196.9740  173.8070  143.3320 O   0  0  0  0  0  1  0  0  0  0  0  0
  195.7660  174.4760  143.5590 C   0  0  2  0  0  3  0  0  0  0  0  0
  195.4070  174.4750  145.0550 C   0  0  1  0  0  3  0  0  0  0  0  0
  196.4860  173.8420  145.9190 C   0  0  0  0  0  1  0  0  0  0  0  0
  195.4700  176.8490  144.8450 O   0  0  0  0  0  0  0  0  0  0  0  0
  195.0990  175.8590  145.5280 C   0  0  0  0  0  0  0  0  0  0  0  0
  194.4320  176.0620  146.7310 O   0  0  0  0  0  1  0  0  0  0  0  0
  195.0260  174.1130  141.1320 C   0  0  0  0  0  2  0  0  0  0  0  0
  194.2460  173.3180  140.2900 O   0  0  0  0  0  0  0  0  0  0  0  0
  194.7870  173.5170  139.0210 C   0  0  0  0  0  2  0  0  0  0  0  0
  194.4920  174.9300  138.5630 C   0  0  0  0  0  1  0  0  0  0  0  0
  194.1260  172.7070  142.9640 O   0  0  0  0  0  0  0  0  0  0  0  0
  195.1270  171.7270  142.8650 C   0  0  0  0  0  2  0  0  0  0  0  0
  195.0940  170.8280  144.0870 C   0  0  0  0  0  2  0  0  0  0  0  0
  196.1340  169.7330  143.9600 C   0  0  0  0  0  1  0  0  0  0  0  0
  2  4  1  0  0  0  0
  2  3  1  0  0  0  0
  3 33  1  0  0  0  0
  3  1  2  0  0  0  0
  4  5  1  6  0  0  0
  7  6  1  1  0  0  0
  7  4  1  0  0  0  0
  8  7  1  0  0  0  0
  8  9  1  0  0  0  0
 10  9  1  0  0  0  0
 11 10  1  6  0  0  0
 11 17  1  0  0  0  0
 12 16  1  0  0  0  0
 13 18  1  0  0  0  0
 14 15  2  0  0  0  0
 15 13  1  0  0  0  0
 16 13  2  0  0  0  0
 17 12  2  0  0  0  0
 17 14  1  0  0  0  0
 18 20  1  0  0  0  0
 18 19  1  0  0  0  0
 21 22  2  0  0  0  0
 22 11  1  0  0  0  0
 24 25  2  0  0  0  0
 24 29  1  0  0  0  0
 25 27  1  0  0  0  0
 26 23  1  0  0  0  0
 27 21  1  0  0  0  0
 27 23  2  0  0  0  0
 28 24  1  0  0  0  0
 29 26  2  0  0  0  0
 30  2  1  0  0  0  0
 31 32  1  0  0  0  0
 32 30  1  0  0  0  0
 33 39  1  1  0  0  0
 33 35  1  0  0  0  0
 35 34  1  1  0  0  0
 37 35  1  0  0  0  0
 37 36  1  0  0  0  0
 38 37  2  0  0  0  0
 40 48  1  6  0  0  0
 40 39  1  0  0  0  0
 40 52  1  0  0  0  0
 40 42  1  0  0  0  0
 42 41  1  1  0  0  0
 42 43  1  0  0  0  0
 43 46  1  0  0  0  0
 43 44  1  1  0  0  0
 45 46  2  0  0  0  0
 46 47  1  0  0  0  0
 49 48  1  0  0  0  0
 50 49  1  0  0  0  0
 51 50  1  0  0  0  0
 53 52  1  0  0  0  0
 53 54  1  0  0  0  0
 55 54  1  0  0  0  0
M  END
>  <MODEL>
8

>  <REMARK>
 VINA RESULT:      -4.1      3.829      5.838
  Name = 
  26 active torsions:
  status: ('A' for Active; 'I' for Inactive)
    1  A    between atoms: C_1  and  C_30
    2  A    between atoms: N_2  and  C_44
    3  A    between atoms: C_6  and  C_8
    4  A    between atoms: C_6  and  O_20
    5  A    between atoms: C_6  and  C_38
    6  A    between atoms: C_6  and  C_46
    7  A    between atoms: C_7  and  C_8
    8  A    between atoms: C_7  and  C_23
    9  A    between atoms: C_7  and  C_43
   10  A    between atoms: N_10  and  C_32
   11  A    between atoms: C_11  and  C_29
   12  A    between atoms: C_11  and  C_38
   13  A    between atoms: C_12  and  O_14
   14  A    between atoms: O_14  and  C_46
   15  A    between atoms: C_16  and  N_17
   16  A    between atoms: C_16  and  C_26
   17  A    between atoms: N_17  and  C_37
   18  A    between atoms: C_19  and  C_45
   19  A    between atoms: C_19  and  C_49
   20  A    between atoms: O_20  and  C_30
   21  A    between atoms: C_26  and  C_45
   22  A    between atoms: N_28  and  C_33
   23  A    between atoms: C_33  and  C_49
   24  A    between atoms: C_33  and  C_52
   25  A    between atoms: C_35  and  C_43
   26  A    between atoms: C_37  and  C_40
                            x       y       z     vdW  Elec       q    Type
                         _______ _______ _______ _____ _____    ______ ____

>  <TORSDO>
F 26

$$$$
=
 OpenBabel11052419513D

 55 56  0  0  1  0  0  0  0  0999 V2000
  191.4780  173.9260  140.1220 O   0  0  0  0  0  0  0  0  0  0  0  0
  190.6040  172.4380  141.7030 N   0  0  0  0  0  0  0  0  0  0  0  0
  191.7030  173.1400  141.0820 C   0  0  0  0  0  0  0  0  0  0  0  0
  189.2370  172.9640  141.5350 C   0  0  2  0  0  3  0  0  0  0  0  0
  188.7450  172.7780  140.1020 C   0  0  0  0  0  1  0  0  0  0  0  0
  189.1840  174.4520  143.4210 O   0  0  0  0  0  1  0  0  0  0  0  0
  189.0570  174.4090  142.0320 C   0  0  2  0  0  3  0  0  0  0  0  0
  187.7220  175.0180  141.6150 C   0  0  0  0  0  2  0  0  0  0  0  0
  187.8730  176.5100  141.3700 C   0  0  0  0  0  2  0  0  0  0  0  0
  186.6600  177.0480  140.6260 C   0  0  0  0  0  2  0  0  0  0  0  0
  186.0900  178.2720  141.3430 C   0  0  1  0  0  3  0  0  0  0  0  0
  183.8840  178.6520  142.4510 C   0  0  0  0  0  3  0  0  0  0  0  0
  181.7830  178.2870  141.2840 C   0  0  0  0  0  0  0  0  0  0  0  0
  183.8960  177.8930  140.1500 C   0  0  0  0  0  3  0  0  0  0  0  0
  182.4980  177.9040  140.1400 C   0  0  0  0  0  3  0  0  0  0  0  0
  182.4860  178.6610  142.4390 C   0  0  0  0  0  3  0  0  0  0  0  0
  184.5940  178.2690  141.3080 C   0  0  0  0  0  0  0  0  0  0  0  0
  180.3490  178.2970  141.2690 N   0  0  0  0  0  0  0  0  0  0  0  0
  179.6790  178.4570  140.1030 O   0  0  0  0  0  1  0  0  0  0  0  0
  179.6220  178.1410  142.4570 N   0  0  0  0  0  1  0  0  0  0  0  0
  186.0430  177.5660  143.6000 N   0  0  0  0  0  0  0  0  0  0  0  0
  186.5600  178.3220  142.7180 N   0  0  0  0  0  0  0  0  0  0  0  0
  187.8240  177.2990  145.2440 C   0  0  0  0  0  3  0  0  0  0  0  0
  186.0590  177.9000  147.3280 C   0  0  0  0  0  0  0  0  0  0  0  0
  185.6010  177.8820  146.0070 C   0  0  0  0  0  3  0  0  0  0  0  0
  188.2820  177.3180  146.5650 C   0  0  0  0  0  3  0  0  0  0  0  0
  186.4840  177.5810  144.9590 C   0  0  0  0  0  0  0  0  0  0  0  0
  185.2040  178.1930  148.3370 F   0  0  0  0  0  0  0  0  0  0  0  0
  187.4000  177.6190  147.6060 C   0  0  0  0  0  3  0  0  0  0  0  0
  190.8500  171.2300  142.4950 C   0  0  0  0  0  2  0  0  0  0  0  0
  191.4680  168.8130  142.3440 C   0  0  0  0  0  1  0  0  0  0  0  0
  190.8260  169.9820  141.6240 C   0  0  0  0  0  2  0  0  0  0  0  0
  193.1290  172.9930  141.5480 C   0  0  2  0  0  3  0  0  0  0  0  0
  193.1350  171.4200  139.7210 O   0  0  0  0  0  1  0  0  0  0  0  0
  193.8970  171.9090  140.7860 C   0  0  1  0  0  3  0  0  0  0  0  0
  196.3860  172.0520  140.8480 O   0  0  0  0  0  1  0  0  0  0  0  0
  195.1910  172.4400  140.2590 C   0  0  0  0  0  0  0  0  0  0  0  0
  195.2040  173.2440  139.2890 O   0  0  0  0  0  0  0  0  0  0  0  0
  193.2040  172.7790  143.0630 C   0  0  0  0  0  2  0  0  0  0  0  0
  193.8910  173.9310  143.8050 C   0  0  2  0  0  0  0  0  0  0  0  0
  192.5000  175.9670  143.8620 O   0  0  0  0  0  1  0  0  0  0  0  0
  192.7560  174.7450  144.4940 C   0  0  2  0  0  3  0  0  0  0  0  0
  192.9370  174.9350  146.0100 C   0  0  1  0  0  3  0  0  0  0  0  0
  193.8040  176.1370  146.3530 C   0  0  0  0  0  1  0  0  0  0  0  0
  191.5060  175.6950  147.7590 O   0  0  0  0  0  1  0  0  0  0  0  0
  191.6120  175.0310  146.6950 C   0  0  0  0  0  0  0  0  0  0  0  0
  190.5030  174.3680  146.1820 O   0  0  0  0  0  0  0  0  0  0  0  0
  194.6010  174.7660  142.7140 C   0  0  0  0  0  2  0  0  0  0  0  0
  195.8640  175.2150  143.1070 O   0  0  0  0  0  0  0  0  0  0  0  0
  196.5540  175.4030  141.9110 C   0  0  0  0  0  2  0  0  0  0  0  0
  196.2390  176.7760  141.3570 C   0  0  0  0  0  1  0  0  0  0  0  0
  194.7940  173.3440  144.7350 O   0  0  0  0  0  0  0  0  0  0  0  0
  195.2680  172.1020  144.2810 C   0  0  0  0  0  2  0  0  0  0  0  0
  195.6540  171.2320  145.4630 C   0  0  0  0  0  2  0  0  0  0  0  0
  194.5530  170.2340  145.7610 C   0  0  0  0  0  1  0  0  0  0  0  0
  1  3  2  0  0  0  0
  2 30  1  0  0  0  0
  3 33  1  0  0  0  0
  3  2  1  0  0  0  0
  4  5  1  6  0  0  0
  4  2  1  0  0  0  0
  4  7  1  0  0  0  0
  7  6  1  1  0  0  0
  8  7  1  0  0  0  0
  9  8  1  0  0  0  0
 10  9  1  0  0  0  0
 11 10  1  1  0  0  0
 11 22  1  0  0  0  0
 13 16  2  0  0  0  0
 14 17  1  0  0  0  0
 15 14  2  0  0  0  0
 15 13  1  0  0  0  0
 16 12  1  0  0  0  0
 17 11  1  0  0  0  0
 17 12  2  0  0  0  0
 18 13  1  0  0  0  0
 18 20  1  0  0  0  0
 19 18  1  0  0  0  0
 21 27  1  0  0  0  0
 22 21  2  0  0  0  0
 23 26  1  0  0  0  0
 24 29  1  0  0  0  0
 24 28  1  0  0  0  0
 25 24  2  0  0  0  0
 26 29  2  0  0  0  0
 27 23  2  0  0  0  0
 27 25  1  0  0  0  0
 32 31  1  0  0  0  0
 32 30  1  0  0  0  0
 33 39  1  1  0  0  0
 35 34  1  6  0  0  0
 35 33  1  0  0  0  0
 37 35  1  0  0  0  0
 37 36  1  0  0  0  0
 38 37  2  0  0  0  0
 39 40  1  0  0  0  0
 40 48  1  6  0  0  0
 40 42  1  0  0  0  0
 40 52  1  0  0  0  0
 42 41  1  6  0  0  0
 42 43  1  0  0  0  0
 43 44  1  6  0  0  0
 43 46  1  0  0  0  0
 46 45  1  0  0  0  0
 47 46  2  0  0  0  0
 48 49  1  0  0  0  0
 50 49  1  0  0  0  0
 51 50  1  0  0  0  0
 53 52  1  0  0  0  0
 53 54  1  0  0  0  0
 54 55  1  0  0  0  0
M  END
>  <MODEL>
9

>  <REMARK>
 VINA RESULT:      -4.1      3.214      6.303
  Name = 
  26 active torsions:
  status: ('A' for Active; 'I' for Inactive)
    1  A    between atoms: C_1  and  C_30
    2  A    between atoms: N_2  and  C_44
    3  A    between atoms: C_6  and  C_8
    4  A    between atoms: C_6  and  O_20
    5  A    between atoms: C_6  and  C_38
    6  A    between atoms: C_6  and  C_46
    7  A    between atoms: C_7  and  C_8
    8  A    between atoms: C_7  and  C_23
    9  A    between atoms: C_7  and  C_43
   10  A    between atoms: N_10  and  C_32
   11  A    between atoms: C_11  and  C_29
   12  A    between atoms: C_11  and  C_38
   13  A    between atoms: C_12  and  O_14
   14  A    between atoms: O_14  and  C_46
   15  A    between atoms: C_16  and  N_17
   16  A    between atoms: C_16  and  C_26
   17  A    between atoms: N_17  and  C_37
   18  A    between atoms: C_19  and  C_45
   19  A    between atoms: C_19  and  C_49
   20  A    between atoms: O_20  and  C_30
   21  A    between atoms: C_26  and  C_45
   22  A    between atoms: N_28  and  C_33
   23  A    between atoms: C_33  and  C_49
   24  A    between atoms: C_33  and  C_52
   25  A    between atoms: C_35  and  C_43
   26  A    between atoms: C_37  and  C_40
                            x       y       z     vdW  Elec       q    Type
                         _______ _______ _______ _____ _____    ______ ____

>  <TORSDO>
F 26

$$$$
