=
 OpenBabel11052419163D

 32 37  0  0  1  0  0  0  0  0999 V2000
  189.1140  176.8440  143.8090 C   0  0  2  0  0  3  0  0  0  0  0  0
  190.1050  174.5010  143.3330 C   0  0  2  0  0  3  0  0  0  0  0  0
  189.8260  177.9320  143.0210 C   0  0  0  0  0  2  0  0  0  0  0  0
  190.0570  175.6940  144.2590 C   0  0  1  0  0  3  0  0  0  0  0  0
  191.4800  174.3630  142.9200 N   0  0  2  0  0  0  0  0  0  0  0  0
  189.0440  172.0610  139.2150 C   0  0  0  0  0  3  0  0  0  0  0  0
  189.2310  174.4780  142.1330 C   0  0  0  0  0  0  0  0  0  0  0  0
  191.0600  171.6110  140.4890 C   0  0  0  0  0  3  0  0  0  0  0  0
  190.7470  172.6550  141.3630 C   0  0  0  0  0  0  0  0  0  0  0  0
  191.4680  176.0190  144.5850 N   0  0  2  0  0  0  0  0  0  0  0  0
  191.6590  172.9610  142.5450 C   0  0  0  0  0  2  0  0  0  0  0  0
  191.9900  177.1380  143.7740 C   0  0  0  0  0  2  0  0  0  0  0  0
  188.1870  175.3050  142.0400 C   0  0  0  0  0  3  0  0  0  0  0  0
  187.9750  176.3250  143.0350 N   0  0  0  0  0  0  0  0  0  0  0  0
  189.5520  173.4020  141.1680 C   0  0  0  0  0  0  0  0  0  0  0  0
  192.1440  174.7750  144.1440 C   0  0  2  0  0  3  0  0  0  0  0  0
  191.0670  178.3400  143.7730 C   0  0  0  0  0  2  0  0  0  0  0  0
  190.2120  171.3150  139.4200 C   0  0  0  0  0  3  0  0  0  0  0  0
  188.7130  173.1020  140.0870 C   0  0  0  0  0  3  0  0  0  0  0  0
  184.8270  177.8530  144.4370 C   0  0  0  0  0  0  0  0  0  0  0  0
  184.2290  178.1010  145.6250 F   0  0  0  0  0  0  0  0  0  0  0  0
  186.0180  177.3430  141.9580 C   0  0  0  0  0  3  0  0  0  0  0  0
  184.1760  178.2210  143.2590 C   0  0  0  0  0  3  0  0  0  0  0  0
  186.6920  176.9670  143.1310 C   0  0  0  0  0  0  0  0  0  0  0  0
  186.0860  177.2310  144.3840 C   0  0  0  0  0  0  0  0  0  0  0  0
  186.7780  176.8960  145.6670 C   0  0  0  0  0  1  0  0  0  0  0  0
  184.7730  177.9720  142.0210 C   0  0  0  0  0  0  0  0  0  0  0  0
  182.2950  178.1780  141.2340 C   0  0  0  0  0  1  0  0  0  0  0  0
  183.9390  178.4410  140.5120 S   0  0  0  0  0  0  0  0  0  0  0  0
  194.4140  174.7380  144.9780 N   0  0  0  0  0  0  0  0  0  0  0  0
  193.6360  174.8930  143.9750 C   0  0  0  0  0  3  0  0  0  0  0  0
  195.8350  174.8530  144.8090 C   0  0  0  0  0  1  0  0  0  0  0  0
  1  3  1  6  0  0  0
  1  4  1  0  0  0  0
  2  7  1  6  0  0  0
  2  4  1  0  0  0  0
  3 17  1  0  0  0  0
  4 10  1  0  0  0  0
  5  2  1  0  0  0  0
  5 16  1  0  0  0  0
  6 18  2  0  0  0  0
  6 19  1  0  0  0  0
  8  9  2  0  0  0  0
  9 11  1  0  0  0  0
 11  5  1  0  0  0  0
 12 10  1  0  0  0  0
 13  7  2  0  0  0  0
 13 14  1  0  0  0  0
 14 24  1  0  0  0  0
 14  1  1  0  0  0  0
 15  9  1  0  0  0  0
 15  7  1  0  0  0  0
 16 10  1  0  0  0  0
 17 12  1  0  0  0  0
 18  8  1  0  0  0  0
 19 15  2  0  0  0  0
 20 21  1  0  0  0  0
 22 27  2  0  0  0  0
 22 24  1  0  0  0  0
 23 20  2  0  0  0  0
 24 25  2  0  0  0  0
 25 20  1  0  0  0  0
 25 26  1  0  0  0  0
 27 23  1  0  0  0  0
 29 28  1  0  0  0  0
 29 27  1  0  0  0  0
 31 16  1  0  0  0  0
 31 30  2  0  0  0  0
 32 30  1  0  0  0  0
M  END
>  <MODEL>
1

>  <REMARK>
 VINA RESULT:      -8.1      0.000      0.000
  Name = 
  3 active torsions:
  status: ('A' for Active; 'I' for Inactive)
    1  A    between atoms: S_15  and  C_26
    2  A    between atoms: C_18  and  C_29
    3  A    between atoms: C_20  and  N_27
                            x       y       z     vdW  Elec       q    Type
                         _______ _______ _______ _____ _____    ______ ____

>  <TORSDO>
F 3

$$$$
=
 OpenBabel11052419163D

 32 37  0  0  1  0  0  0  0  0999 V2000
  189.9040  176.6040  144.2580 C   0  0  2  0  0  3  0  0  0  0  0  0
  190.7010  174.4630  143.0410 C   0  0  2  0  0  3  0  0  0  0  0  0
  190.2000  177.8580  143.4520 C   0  0  0  0  0  2  0  0  0  0  0  0
  190.9880  175.5010  144.1000 C   0  0  1  0  0  3  0  0  0  0  0  0
  191.7970  174.5240  142.1050 N   0  0  2  0  0  0  0  0  0  0  0  0
  188.1570  172.5390  139.3180 C   0  0  0  0  0  3  0  0  0  0  0  0
  189.4190  174.5240  142.2950 C   0  0  0  0  0  0  0  0  0  0  0  0
  190.5300  172.1170  139.6030 C   0  0  0  0  0  3  0  0  0  0  0  0
  190.5590  172.9890  140.6940 C   0  0  0  0  0  0  0  0  0  0  0  0
  192.3990  175.9170  143.8980 N   0  0  2  0  0  0  0  0  0  0  0  0
  191.8590  173.2140  141.4570 C   0  0  0  0  0  2  0  0  0  0  0  0
  192.5100  177.1870  143.1500 C   0  0  0  0  0  2  0  0  0  0  0  0
  188.3980  175.2460  142.7600 C   0  0  0  0  0  3  0  0  0  0  0  0
  188.5690  176.0890  143.9170 N   0  0  0  0  0  0  0  0  0  0  0  0
  189.3610  173.6330  141.1130 C   0  0  0  0  0  0  0  0  0  0  0  0
  192.8830  174.8230  143.0220 C   0  0  2  0  0  3  0  0  0  0  0  0
  191.6230  178.2780  143.7160 C   0  0  0  0  0  2  0  0  0  0  0  0
  189.3330  171.8930  138.9190 C   0  0  0  0  0  3  0  0  0  0  0  0
  188.1690  173.4070  140.4130 C   0  0  0  0  0  3  0  0  0  0  0  0
  186.1020  176.8740  146.6560 C   0  0  0  0  0  0  0  0  0  0  0  0
  185.9270  176.6890  147.9850 F   0  0  0  0  0  0  0  0  0  0  0  0
  186.4130  177.2630  143.9040 C   0  0  0  0  0  3  0  0  0  0  0  0
  185.1230  177.5540  145.9300 C   0  0  0  0  0  3  0  0  0  0  0  0
  187.4110  176.5780  144.6150 C   0  0  0  0  0  0  0  0  0  0  0  0
  187.2510  176.3870  146.0100 C   0  0  0  0  0  0  0  0  0  0  0  0
  188.3030  175.7080  146.8270 C   0  0  0  0  0  1  0  0  0  0  0  0
  185.2810  177.7540  144.5570 C   0  0  0  0  0  0  0  0  0  0  0  0
  184.7670  178.1690  142.0340 C   0  0  0  0  0  1  0  0  0  0  0  0
  184.0270  178.6220  143.6270 S   0  0  0  0  0  0  0  0  0  0  0  0
  195.2950  174.9230  142.8900 N   0  0  0  0  0  0  0  0  0  0  0  0
  194.1750  175.1120  142.3040 C   0  0  0  0  0  3  0  0  0  0  0  0
  196.5230  175.2020  142.2000 C   0  0  0  0  0  1  0  0  0  0  0  0
  1  3  1  6  0  0  0
  2  7  1  6  0  0  0
  2  4  1  0  0  0  0
  3 17  1  0  0  0  0
  4  1  1  0  0  0  0
  5 16  1  0  0  0  0
  5  2  1  0  0  0  0
  6 19  1  0  0  0  0
  7 13  2  0  0  0  0
  8  9  2  0  0  0  0
  9 15  1  0  0  0  0
  9 11  1  0  0  0  0
 10  4  1  0  0  0  0
 11  5  1  0  0  0  0
 12 17  1  0  0  0  0
 12 10  1  0  0  0  0
 13 14  1  0  0  0  0
 14  1  1  0  0  0  0
 14 24  1  0  0  0  0
 15  7  1  0  0  0  0
 16 10  1  0  0  0  0
 18  6  2  0  0  0  0
 18  8  1  0  0  0  0
 19 15  2  0  0  0  0
 20 21  1  0  0  0  0
 22 27  2  0  0  0  0
 22 24  1  0  0  0  0
 23 20  2  0  0  0  0
 24 25  2  0  0  0  0
 25 20  1  0  0  0  0
 25 26  1  0  0  0  0
 27 23  1  0  0  0  0
 28 29  1  0  0  0  0
 29 27  1  0  0  0  0
 31 30  2  0  0  0  0
 31 16  1  0  0  0  0
 32 30  1  0  0  0  0
M  END
>  <MODEL>
2

>  <REMARK>
 VINA RESULT:      -8.0      1.382      1.745
  Name = 
  3 active torsions:
  status: ('A' for Active; 'I' for Inactive)
    1  A    between atoms: S_15  and  C_26
    2  A    between atoms: C_18  and  C_29
    3  A    between atoms: C_20  and  N_27
                            x       y       z     vdW  Elec       q    Type
                         _______ _______ _______ _____ _____    ______ ____

>  <TORSDO>
F 3

$$$$
=
 OpenBabel11052419163D

 32 37  0  0  1  0  0  0  0  0999 V2000
  190.5390  175.9570  144.8110 C   0  0  2  0  0  3  0  0  0  0  0  0
  190.8910  173.7610  143.4860 C   0  0  2  0  0  3  0  0  0  0  0  0
  191.2160  177.1390  144.1370 C   0  0  0  0  0  2  0  0  0  0  0  0
  191.3240  174.6250  144.6480 C   0  0  1  0  0  3  0  0  0  0  0  0
  192.0530  173.5960  142.6490 N   0  0  2  0  0  0  0  0  0  0  0  0
  188.3210  172.7800  139.4290 C   0  0  0  0  0  3  0  0  0  0  0  0
  189.7430  174.1920  142.6500 C   0  0  0  0  0  0  0  0  0  0  0  0
  190.4740  171.7480  139.8630 C   0  0  0  0  0  3  0  0  0  0  0  0
  190.6140  172.5170  141.0220 C   0  0  0  0  0  0  0  0  0  0  0  0
  192.8070  174.6770  144.5920 N   0  0  2  0  0  0  0  0  0  0  0  0
  191.8480  172.3550  141.9010 C   0  0  0  0  0  2  0  0  0  0  0  0
  193.3030  175.9190  143.9630 C   0  0  0  0  0  2  0  0  0  0  0  0
  188.8950  175.1220  143.0920 C   0  0  0  0  0  3  0  0  0  0  0  0
  189.1580  175.8220  144.3240 N   0  0  0  0  0  0  0  0  0  0  0  0
  189.5800  173.4190  141.3970 C   0  0  0  0  0  0  0  0  0  0  0  0
  193.0850  173.5500  143.6690 C   0  0  2  0  0  3  0  0  0  0  0  0
  192.6670  177.1650  144.5460 C   0  0  0  0  0  2  0  0  0  0  0  0
  189.3320  171.8790  139.0710 C   0  0  0  0  0  3  0  0  0  0  0  0
  188.4430  173.5480  140.5900 C   0  0  0  0  0  3  0  0  0  0  0  0
  186.6820  177.0150  146.9040 C   0  0  0  0  0  0  0  0  0  0  0  0
  186.3100  176.7720  148.1810 F   0  0  0  0  0  0  0  0  0  0  0  0
  187.4050  177.5390  144.2530 C   0  0  0  0  0  3  0  0  0  0  0  0
  186.0090  177.9980  146.1760 C   0  0  0  0  0  3  0  0  0  0  0  0
  188.0970  176.5490  144.9680 C   0  0  0  0  0  0  0  0  0  0  0  0
  187.7290  176.2890  146.3110 C   0  0  0  0  0  0  0  0  0  0  0  0
  188.4610  175.2800  147.1360 C   0  0  0  0  0  1  0  0  0  0  0  0
  186.3740  178.2640  144.8540 C   0  0  0  0  0  0  0  0  0  0  0  0
  184.3410  178.3250  143.2220 C   0  0  0  0  0  1  0  0  0  0  0  0
  185.5120  179.5210  143.9210 S   0  0  0  0  0  0  0  0  0  0  0  0
  195.3580  172.7360  143.5300 N   0  0  0  0  0  0  0  0  0  0  0  0
  194.4710  173.5420  143.0820 C   0  0  0  0  0  3  0  0  0  0  0  0
  196.6780  172.7350  142.9660 C   0  0  0  0  0  1  0  0  0  0  0  0
  1  3  1  6  0  0  0
  2  7  1  6  0  0  0
  2  4  1  0  0  0  0
  3 17  1  0  0  0  0
  4  1  1  0  0  0  0
  5  2  1  0  0  0  0
  5 16  1  0  0  0  0
  6 19  1  0  0  0  0
  7 13  2  0  0  0  0
  8  9  2  0  0  0  0
  9 15  1  0  0  0  0
  9 11  1  0  0  0  0
 10  4  1  0  0  0  0
 11  5  1  0  0  0  0
 12 17  1  0  0  0  0
 12 10  1  0  0  0  0
 13 14  1  0  0  0  0
 14  1  1  0  0  0  0
 14 24  1  0  0  0  0
 15  7  1  0  0  0  0
 16 10  1  0  0  0  0
 18  6  2  0  0  0  0
 18  8  1  0  0  0  0
 19 15  2  0  0  0  0
 20 21  1  0  0  0  0
 22 27  2  0  0  0  0
 22 24  1  0  0  0  0
 23 20  2  0  0  0  0
 24 25  2  0  0  0  0
 25 20  1  0  0  0  0
 25 26  1  0  0  0  0
 27 23  1  0  0  0  0
 28 29  1  0  0  0  0
 29 27  1  0  0  0  0
 31 30  2  0  0  0  0
 31 16  1  0  0  0  0
 32 30  1  0  0  0  0
M  END
>  <MODEL>
3

>  <REMARK>
 VINA RESULT:      -8.0      1.631      2.182
  Name = 
  3 active torsions:
  status: ('A' for Active; 'I' for Inactive)
    1  A    between atoms: S_15  and  C_26
    2  A    between atoms: C_18  and  C_29
    3  A    between atoms: C_20  and  N_27
                            x       y       z     vdW  Elec       q    Type
                         _______ _______ _______ _____ _____    ______ ____

>  <TORSDO>
F 3

$$$$
=
 OpenBabel11052419163D

 32 37  0  0  1  0  0  0  0  0999 V2000
  189.3970  177.1110  144.3630 C   0  0  2  0  0  3  0  0  0  0  0  0
  190.4610  174.7650  144.6210 C   0  0  2  0  0  3  0  0  0  0  0  0
  190.0910  177.9330  143.2890 C   0  0  0  0  0  2  0  0  0  0  0  0
  190.3650  176.1790  145.1450 C   0  0  1  0  0  3  0  0  0  0  0  0
  191.8450  174.5530  144.2780 N   0  0  2  0  0  0  0  0  0  0  0  0
  189.5320  171.1680  141.4220 C   0  0  0  0  0  3  0  0  0  0  0  0
  189.6060  174.3560  143.4780 C   0  0  0  0  0  0  0  0  0  0  0  0
  191.5400  171.1850  142.7850 C   0  0  0  0  0  3  0  0  0  0  0  0
  191.1840  172.4340  143.3030 C   0  0  0  0  0  0  0  0  0  0  0  0
  191.7610  176.6320  145.3670 N   0  0  2  0  0  0  0  0  0  0  0  0
  192.0690  173.1090  144.3430 C   0  0  0  0  0  2  0  0  0  0  0  0
  192.2640  177.4710  144.2600 C   0  0  0  0  0  2  0  0  0  0  0  0
  188.5410  175.0830  143.1340 C   0  0  0  0  0  3  0  0  0  0  0  0
  188.2850  176.3490  143.7740 N   0  0  0  0  0  0  0  0  0  0  0  0
  189.9720  173.0490  142.8830 C   0  0  0  0  0  0  0  0  0  0  0  0
  192.4780  175.3350  145.3250 C   0  0  2  0  0  3  0  0  0  0  0  0
  191.3080  178.5880  143.8910 C   0  0  0  0  0  2  0  0  0  0  0  0
  190.7160  170.5560  141.8490 C   0  0  0  0  0  3  0  0  0  0  0  0
  189.1580  172.4120  141.9380 C   0  0  0  0  0  3  0  0  0  0  0  0
  184.9200  177.7970  144.6590 C   0  0  0  0  0  0  0  0  0  0  0  0
  184.1450  178.0470  145.7390 F   0  0  0  0  0  0  0  0  0  0  0  0
  186.4800  177.2810  142.3960 C   0  0  0  0  0  3  0  0  0  0  0  0
  184.4400  178.1210  143.3890 C   0  0  0  0  0  3  0  0  0  0  0  0
  186.9830  176.9490  143.6640 C   0  0  0  0  0  0  0  0  0  0  0  0
  186.1910  177.2150  144.8070 C   0  0  0  0  0  0  0  0  0  0  0  0
  186.6940  176.9280  146.1860 C   0  0  0  0  0  1  0  0  0  0  0  0
  185.2220  177.8690  142.2590 C   0  0  0  0  0  0  0  0  0  0  0  0
  182.8790  178.2720  141.1860 C   0  0  0  0  0  1  0  0  0  0  0  0
  184.6070  178.2830  140.6330 S   0  0  0  0  0  0  0  0  0  0  0  0
  194.7560  174.6490  145.7590 N   0  0  0  0  0  0  0  0  0  0  0  0
  193.9690  175.4420  145.1380 C   0  0  0  0  0  3  0  0  0  0  0  0
  196.1760  174.7580  145.5760 C   0  0  0  0  0  1  0  0  0  0  0  0
  1  3  1  6  0  0  0
  1  4  1  0  0  0  0
  2  7  1  6  0  0  0
  2  4  1  0  0  0  0
  3 17  1  0  0  0  0
  4 10  1  0  0  0  0
  5 11  1  0  0  0  0
  5  2  1  0  0  0  0
  5 16  1  0  0  0  0
  6 18  2  0  0  0  0
  6 19  1  0  0  0  0
  8  9  2  0  0  0  0
  9 11  1  0  0  0  0
 12 10  1  0  0  0  0
 13  7  2  0  0  0  0
 13 14  1  0  0  0  0
 14  1  1  0  0  0  0
 15  9  1  0  0  0  0
 15  7  1  0  0  0  0
 16 10  1  0  0  0  0
 17 12  1  0  0  0  0
 18  8  1  0  0  0  0
 19 15  2  0  0  0  0
 20 25  1  0  0  0  0
 20 21  1  0  0  0  0
 22 24  1  0  0  0  0
 23 20  2  0  0  0  0
 24 14  1  0  0  0  0
 24 25  2  0  0  0  0
 25 26  1  0  0  0  0
 27 22  2  0  0  0  0
 27 23  1  0  0  0  0
 29 28  1  0  0  0  0
 29 27  1  0  0  0  0
 31 16  1  0  0  0  0
 31 30  2  0  0  0  0
 32 30  1  0  0  0  0
M  END
>  <MODEL>
4

>  <REMARK>
 VINA RESULT:      -7.9      1.123      1.273
  Name = 
  3 active torsions:
  status: ('A' for Active; 'I' for Inactive)
    1  A    between atoms: S_15  and  C_26
    2  A    between atoms: C_18  and  C_29
    3  A    between atoms: C_20  and  N_27
                            x       y       z     vdW  Elec       q    Type
                         _______ _______ _______ _____ _____    ______ ____

>  <TORSDO>
F 3

$$$$
=
 OpenBabel11052419163D

 32 37  0  0  1  0  0  0  0  0999 V2000
  189.0440  176.9870  143.7860 C   0  0  2  0  0  3  0  0  0  0  0  0
  189.9400  174.5810  143.4560 C   0  0  2  0  0  3  0  0  0  0  0  0
  189.8820  178.0120  143.0390 C   0  0  0  0  0  2  0  0  0  0  0  0
  189.8780  175.8010  144.3460 C   0  0  1  0  0  3  0  0  0  0  0  0
  191.3360  174.3580  143.1700 N   0  0  2  0  0  0  0  0  0  0  0  0
  189.1060  172.0850  139.3200 C   0  0  0  0  0  3  0  0  0  0  0  0
  189.1730  174.5710  142.1850 C   0  0  0  0  0  0  0  0  0  0  0  0
  190.9750  171.5630  140.7780 C   0  0  0  0  0  3  0  0  0  0  0  0
  190.6460  172.6480  141.5960 C   0  0  0  0  0  0  0  0  0  0  0  0
  191.2720  176.0590  144.7870 N   0  0  2  0  0  0  0  0  0  0  0  0
  191.4680  172.9380  142.8450 C   0  0  0  0  0  2  0  0  0  0  0  0
  191.9250  177.1250  143.9990 C   0  0  0  0  0  2  0  0  0  0  0  0
  188.1900  175.4500  141.9800 C   0  0  0  0  0  3  0  0  0  0  0  0
  187.9500  176.5090  142.9270 N   0  0  0  0  0  0  0  0  0  0  0  0
  189.5160  173.4520  141.2770 C   0  0  0  0  0  0  0  0  0  0  0  0
  191.9130  174.7690  144.4380 C   0  0  2  0  0  3  0  0  0  0  0  0
  191.0740  178.3750  143.8880 C   0  0  0  0  0  2  0  0  0  0  0  0
  190.2070  171.2840  139.6450 C   0  0  0  0  0  3  0  0  0  0  0  0
  188.7590  173.1670  140.1340 C   0  0  0  0  0  3  0  0  0  0  0  0
  184.8730  178.2940  141.6790 C   0  0  0  0  0  0  0  0  0  0  0  0
  184.2830  178.6650  140.5200 F   0  0  0  0  0  0  0  0  0  0  0  0
  186.0670  177.5610  144.1000 C   0  0  0  0  0  3  0  0  0  0  0  0
  184.2590  178.6190  142.8900 C   0  0  0  0  0  3  0  0  0  0  0  0
  186.7010  177.2210  142.8940 C   0  0  0  0  0  0  0  0  0  0  0  0
  186.0910  177.5920  141.6710 C   0  0  0  0  0  0  0  0  0  0  0  0
  186.6950  177.2150  140.3560 C   0  0  0  0  0  1  0  0  0  0  0  0
  184.8520  178.2470  144.0990 C   0  0  0  0  0  0  0  0  0  0  0  0
  184.8210  177.2610  146.5130 C   0  0  0  0  0  1  0  0  0  0  0  0
  184.0660  178.6660  145.6480 S   0  0  0  0  0  0  0  0  0  0  0  0
  194.0960  174.6420  145.4710 N   0  0  0  0  0  0  0  0  0  0  0  0
  193.4180  174.8010  144.3980 C   0  0  0  0  0  3  0  0  0  0  0  0
  195.5310  174.6750  145.4250 C   0  0  0  0  0  1  0  0  0  0  0  0
  1  3  1  6  0  0  0
  1  4  1  0  0  0  0
  2  7  1  6  0  0  0
  2  4  1  0  0  0  0
  3 17  1  0  0  0  0
  4 10  1  0  0  0  0
  5  2  1  0  0  0  0
  5 16  1  0  0  0  0
  6 18  2  0  0  0  0
  6 19  1  0  0  0  0
  8  9  2  0  0  0  0
  9 11  1  0  0  0  0
 11  5  1  0  0  0  0
 12 10  1  0  0  0  0
 13  7  2  0  0  0  0
 13 14  1  0  0  0  0
 14  1  1  0  0  0  0
 15  9  1  0  0  0  0
 15  7  1  0  0  0  0
 16 10  1  0  0  0  0
 17 12  1  0  0  0  0
 18  8  1  0  0  0  0
 19 15  2  0  0  0  0
 20 23  1  0  0  0  0
 21 20  1  0  0  0  0
 23 27  2  0  0  0  0
 24 14  1  0  0  0  0
 24 22  2  0  0  0  0
 25 20  2  0  0  0  0
 25 24  1  0  0  0  0
 26 25  1  0  0  0  0
 27 22  1  0  0  0  0
 27 29  1  0  0  0  0
 29 28  1  0  0  0  0
 31 16  1  0  0  0  0
 31 30  2  0  0  0  0
 32 30  1  0  0  0  0
M  END
>  <MODEL>
5

>  <REMARK>
 VINA RESULT:      -7.8      1.440      2.114
  Name = 
  3 active torsions:
  status: ('A' for Active; 'I' for Inactive)
    1  A    between atoms: S_15  and  C_26
    2  A    between atoms: C_18  and  C_29
    3  A    between atoms: C_20  and  N_27
                            x       y       z     vdW  Elec       q    Type
                         _______ _______ _______ _____ _____    ______ ____

>  <TORSDO>
F 3

$$$$
=
 OpenBabel11052419163D

 32 37  0  0  1  0  0  0  0  0999 V2000
  189.0050  174.9190  143.1520 C   0  0  2  0  0  3  0  0  0  0  0  0
  191.4080  175.4980  142.3840 C   0  0  2  0  0  3  0  0  0  0  0  0
  188.9430  173.5720  143.8540 C   0  0  0  0  0  2  0  0  0  0  0  0
  190.0480  174.9640  142.0000 C   0  0  1  0  0  3  0  0  0  0  0  0
  192.3520  174.4460  142.0970 N   0  0  2  0  0  0  0  0  0  0  0  0
  194.7850  177.1160  145.5480 C   0  0  0  0  0  3  0  0  0  0  0  0
  191.6300  175.9890  143.7680 C   0  0  0  0  0  0  0  0  0  0  0  0
  195.3960  176.0410  143.4600 C   0  0  0  0  0  3  0  0  0  0  0  0
  194.0470  175.7950  143.1880 C   0  0  0  0  0  0  0  0  0  0  0  0
  190.2970  173.7260  141.2190 N   0  0  2  0  0  0  0  0  0  0  0  0
  193.6460  175.0990  141.8930 C   0  0  0  0  0  2  0  0  0  0  0  0
  190.1360  172.5040  142.0340 C   0  0  0  0  0  2  0  0  0  0  0  0
  190.5950  176.2780  144.5580 C   0  0  0  0  0  3  0  0  0  0  0  0
  189.2490  175.9880  144.1330 N   0  0  0  0  0  0  0  0  0  0  0  0
  193.0520  176.2340  144.1050 C   0  0  0  0  0  0  0  0  0  0  0  0
  191.7370  173.8860  140.9070 C   0  0  2  0  0  3  0  0  0  0  0  0
  188.8360  172.4880  142.8130 C   0  0  0  0  0  2  0  0  0  0  0  0
  195.7620  176.7000  144.6360 C   0  0  0  0  0  3  0  0  0  0  0  0
  193.4320  176.8850  145.2850 C   0  0  0  0  0  3  0  0  0  0  0  0
  186.7080  176.8930  146.7650 C   0  0  0  0  0  0  0  0  0  0  0  0
  186.3640  176.5740  148.0340 F   0  0  0  0  0  0  0  0  0  0  0  0
  187.3730  177.5710  144.1340 C   0  0  0  0  0  3  0  0  0  0  0  0
  185.9590  177.8500  146.0780 C   0  0  0  0  0  3  0  0  0  0  0  0
  188.1420  176.6080  144.8080 C   0  0  0  0  0  0  0  0  0  0  0  0
  187.8030  176.2710  146.1410 C   0  0  0  0  0  0  0  0  0  0  0  0
  188.6140  175.2880  146.9240 C   0  0  0  0  0  1  0  0  0  0  0  0
  186.2950  178.1940  144.7670 C   0  0  0  0  0  0  0  0  0  0  0  0
  184.6030  178.1780  142.7820 C   0  0  0  0  0  1  0  0  0  0  0  0
  185.3360  179.4170  143.8860 S   0  0  0  0  0  0  0  0  0  0  0  0
  192.5140  172.3640  139.1960 N   0  0  0  0  0  0  0  0  0  0  0  0
  192.4260  172.6300  140.4440 C   0  0  0  0  0  3  0  0  0  0  0  0
  193.1710  171.1630  138.7620 C   0  0  0  0  0  1  0  0  0  0  0  0
  1  3  1  1  0  0  0
  1 14  1  0  0  0  0
  2  7  1  1  0  0  0
  4  2  1  0  0  0  0
  4  1  1  0  0  0  0
  5  2  1  0  0  0  0
  7 15  1  0  0  0  0
  7 13  2  0  0  0  0
  8 18  1  0  0  0  0
  9  8  2  0  0  0  0
  9 15  1  0  0  0  0
 10  4  1  0  0  0  0
 10 12  1  0  0  0  0
 11  5  1  0  0  0  0
 11  9  1  0  0  0  0
 12 17  1  0  0  0  0
 14 13  1  0  0  0  0
 14 24  1  0  0  0  0
 15 19  2  0  0  0  0
 16 10  1  0  0  0  0
 16  5  1  0  0  0  0
 17  3  1  0  0  0  0
 18  6  2  0  0  0  0
 19  6  1  0  0  0  0
 20 21  1  0  0  0  0
 22 27  2  0  0  0  0
 22 24  1  0  0  0  0
 23 20  2  0  0  0  0
 24 25  2  0  0  0  0
 25 20  1  0  0  0  0
 25 26  1  0  0  0  0
 27 23  1  0  0  0  0
 28 29  1  0  0  0  0
 29 27  1  0  0  0  0
 30 31  2  0  0  0  0
 31 16  1  0  0  0  0
 32 30  1  0  0  0  0
M  END
>  <MODEL>
6

>  <REMARK>
 VINA RESULT:      -7.8      1.994      4.773
  Name = 
  3 active torsions:
  status: ('A' for Active; 'I' for Inactive)
    1  A    between atoms: S_15  and  C_26
    2  A    between atoms: C_18  and  C_29
    3  A    between atoms: C_20  and  N_27
                            x       y       z     vdW  Elec       q    Type
                         _______ _______ _______ _____ _____    ______ ____

>  <TORSDO>
F 3

$$$$
=
 OpenBabel11052419163D

 32 37  0  0  1  0  0  0  0  0999 V2000
  191.1280  175.3060  145.4820 C   0  0  2  0  0  3  0  0  0  0  0  0
  189.8660  176.1320  143.3780 C   0  0  2  0  0  3  0  0  0  0  0  0
  190.2790  174.3610  146.3170 C   0  0  0  0  0  2  0  0  0  0  0  0
  190.3020  176.4290  144.7940 C   0  0  1  0  0  3  0  0  0  0  0  0
  188.4260  176.2000  143.3740 N   0  0  2  0  0  0  0  0  0  0  0  0
  189.3450  173.2820  139.4230 C   0  0  0  0  0  3  0  0  0  0  0  0
  190.2980  174.8640  142.7370 C   0  0  0  0  0  0  0  0  0  0  0  0
  187.8270  175.1170  139.8900 C   0  0  0  0  0  3  0  0  0  0  0  0
  188.4850  175.3590  141.1000 C   0  0  0  0  0  0  0  0  0  0  0  0
  189.1020  176.9560  145.4920 N   0  0  2  0  0  0  0  0  0  0  0  0
  188.0320  176.5040  141.9980 C   0  0  0  0  0  2  0  0  0  0  0  0
  188.4270  175.9250  146.3090 C   0  0  0  0  0  2  0  0  0  0  0  0
  191.3120  174.1600  143.2440 C   0  0  0  0  0  3  0  0  0  0  0  0
  191.9110  174.5440  144.4970 N   0  0  0  0  0  0  0  0  0  0  0  0
  189.6020  174.5580  141.4660 C   0  0  0  0  0  0  0  0  0  0  0  0
  188.2300  177.2700  144.3350 C   0  0  2  0  0  3  0  0  0  0  0  0
  189.3860  175.1780  147.2140 C   0  0  0  0  0  2  0  0  0  0  0  0
  188.2570  174.0830  139.0560 C   0  0  0  0  0  3  0  0  0  0  0  0
  190.0180  173.5180  140.6250 C   0  0  0  0  0  3  0  0  0  0  0  0
  195.5860  174.2940  145.2970 C   0  0  0  0  0  0  0  0  0  0  0  0
  196.6910  175.0710  145.3740 F   0  0  0  0  0  0  0  0  0  0  0  0
  193.3320  172.6450  145.1310 C   0  0  0  0  0  3  0  0  0  0  0  0
  195.6960  172.9280  145.5670 C   0  0  0  0  0  3  0  0  0  0  0  0
  193.1990  174.0160  144.8590 C   0  0  0  0  0  0  0  0  0  0  0  0
  194.3430  174.8470  144.9470 C   0  0  0  0  0  0  0  0  0  0  0  0
  194.2510  176.3220  144.7150 C   0  0  0  0  0  1  0  0  0  0  0  0
  194.5690  172.1060  145.4900 C   0  0  0  0  0  0  0  0  0  0  0  0
  196.4820  170.4820  146.1990 C   0  0  0  0  0  1  0  0  0  0  0  0
  194.7100  170.3580  145.8330 S   0  0  0  0  0  0  0  0  0  0  0  0
  186.2570  178.6410  144.6130 N   0  0  0  0  0  0  0  0  0  0  0  0
  186.7770  177.4740  144.6750 C   0  0  0  0  0  3  0  0  0  0  0  0
  184.8710  178.8280  144.9410 C   0  0  0  0  0  1  0  0  0  0  0  0
  1  3  1  6  0  0  0
  2  7  1  1  0  0  0
  2  4  1  0  0  0  0
  3 17  1  0  0  0  0
  4  1  1  0  0  0  0
  4 10  1  0  0  0  0
  5  2  1  0  0  0  0
  5 16  1  0  0  0  0
  6 19  1  0  0  0  0
  7 13  2  0  0  0  0
  8  9  2  0  0  0  0
  9 15  1  0  0  0  0
  9 11  1  0  0  0  0
 10 12  1  0  0  0  0
 11  5  1  0  0  0  0
 12 17  1  0  0  0  0
 13 14  1  0  0  0  0
 14 24  1  0  0  0  0
 14  1  1  0  0  0  0
 15  7  1  0  0  0  0
 16 31  1  0  0  0  0
 16 10  1  0  0  0  0
 18  6  2  0  0  0  0
 18  8  1  0  0  0  0
 19 15  2  0  0  0  0
 20 21  1  0  0  0  0
 20 23  1  0  0  0  0
 22 27  1  0  0  0  0
 24 25  1  0  0  0  0
 24 22  2  0  0  0  0
 25 20  2  0  0  0  0
 26 25  1  0  0  0  0
 27 23  2  0  0  0  0
 27 29  1  0  0  0  0
 29 28  1  0  0  0  0
 30 31  2  0  0  0  0
 30 32  1  0  0  0  0
M  END
>  <MODEL>
7

>  <REMARK>
 VINA RESULT:      -7.6      3.891      7.659
  Name = 
  3 active torsions:
  status: ('A' for Active; 'I' for Inactive)
    1  A    between atoms: S_15  and  C_26
    2  A    between atoms: C_18  and  C_29
    3  A    between atoms: C_20  and  N_27
                            x       y       z     vdW  Elec       q    Type
                         _______ _______ _______ _____ _____    ______ ____

>  <TORSDO>
F 3

$$$$
=
 OpenBabel11052419163D

 32 37  0  0  1  0  0  0  0  0999 V2000
  189.1000  174.9800  142.4820 C   0  0  2  0  0  3  0  0  0  0  0  0
  191.6870  175.0270  142.3970 C   0  0  2  0  0  3  0  0  0  0  0  0
  188.5760  173.6830  143.0770 C   0  0  0  0  0  2  0  0  0  0  0  0
  190.3970  174.7930  141.6460 C   0  0  1  0  0  3  0  0  0  0  0  0
  192.4340  173.7960  142.3140 N   0  0  2  0  0  0  0  0  0  0  0  0
  194.3630  175.9140  146.4070 C   0  0  0  0  0  3  0  0  0  0  0  0
  191.6310  175.4700  143.8130 C   0  0  0  0  0  0  0  0  0  0  0  0
  195.2690  174.7170  144.5000 C   0  0  0  0  0  3  0  0  0  0  0  0
  194.0200  174.7610  143.8740 C   0  0  0  0  0  0  0  0  0  0  0  0
  190.5810  173.5240  140.8970 N   0  0  2  0  0  0  0  0  0  0  0  0
  193.8410  174.1570  142.4860 C   0  0  0  0  0  2  0  0  0  0  0  0
  189.9600  172.3710  141.5810 C   0  0  0  0  0  2  0  0  0  0  0  0
  190.5070  175.9800  144.3200 C   0  0  0  0  0  3  0  0  0  0  0  0
  189.2920  175.9800  143.5440 N   0  0  0  0  0  0  0  0  0  0  0  0
  192.9310  175.4090  144.5200 C   0  0  0  0  0  0  0  0  0  0  0  0
  192.0540  173.3710  140.9790 C   0  0  2  0  0  3  0  0  0  0  0  0
  188.5260  172.6380  141.9920 C   0  0  0  0  0  2  0  0  0  0  0  0
  195.4390  175.2910  145.7620 C   0  0  0  0  0  3  0  0  0  0  0  0
  193.1110  175.9740  145.7890 C   0  0  0  0  0  3  0  0  0  0  0  0
  186.5790  178.5950  143.4730 C   0  0  0  0  0  0  0  0  0  0  0  0
  186.0450  179.5190  142.6420 F   0  0  0  0  0  0  0  0  0  0  0  0
  187.6660  176.7110  145.2310 C   0  0  0  0  0  3  0  0  0  0  0  0
  186.0620  178.4620  144.7630 C   0  0  0  0  0  3  0  0  0  0  0  0
  188.1990  176.8270  143.9370 C   0  0  0  0  0  0  0  0  0  0  0  0
  187.6430  177.7800  143.0500 C   0  0  0  0  0  0  0  0  0  0  0  0
  188.1380  177.9150  141.6450 C   0  0  0  0  0  1  0  0  0  0  0  0
  186.6010  177.5160  145.6390 C   0  0  0  0  0  0  0  0  0  0  0  0
  184.4450  178.2900  146.8860 C   0  0  0  0  0  1  0  0  0  0  0  0
  185.9410  177.3460  147.2900 S   0  0  0  0  0  0  0  0  0  0  0  0
  192.8520  171.6810  139.4440 N   0  0  0  0  0  0  0  0  0  0  0  0
  192.5650  171.9930  140.6500 C   0  0  0  0  0  3  0  0  0  0  0  0
  193.3370  170.3650  139.1380 C   0  0  0  0  0  1  0  0  0  0  0  0
  1  3  1  1  0  0  0
  1 14  1  0  0  0  0
  2  7  1  1  0  0  0
  4  2  1  0  0  0  0
  4  1  1  0  0  0  0
  5  2  1  0  0  0  0
  5 11  1  0  0  0  0
  7 13  2  0  0  0  0
  7 15  1  0  0  0  0
  8 18  1  0  0  0  0
  9  8  2  0  0  0  0
  9 15  1  0  0  0  0
 10 16  1  0  0  0  0
 10 12  1  0  0  0  0
 10  4  1  0  0  0  0
 11  9  1  0  0  0  0
 12 17  1  0  0  0  0
 14 24  1  0  0  0  0
 14 13  1  0  0  0  0
 15 19  2  0  0  0  0
 16  5  1  0  0  0  0
 17  3  1  0  0  0  0
 18  6  2  0  0  0  0
 19  6  1  0  0  0  0
 20 23  1  0  0  0  0
 21 20  1  0  0  0  0
 22 27  1  0  0  0  0
 23 27  2  0  0  0  0
 24 22  2  0  0  0  0
 25 20  2  0  0  0  0
 25 24  1  0  0  0  0
 26 25  1  0  0  0  0
 27 29  1  0  0  0  0
 28 29  1  0  0  0  0
 30 31  2  0  0  0  0
 31 16  1  0  0  0  0
 32 30  1  0  0  0  0
M  END
>  <MODEL>
8

>  <REMARK>
 VINA RESULT:      -7.6      2.340      4.981
  Name = 
  3 active torsions:
  status: ('A' for Active; 'I' for Inactive)
    1  A    between atoms: S_15  and  C_26
    2  A    between atoms: C_18  and  C_29
    3  A    between atoms: C_20  and  N_27
                            x       y       z     vdW  Elec       q    Type
                         _______ _______ _______ _____ _____    ______ ____

>  <TORSDO>
F 3

$$$$
=
 OpenBabel11052419163D

 32 37  0  0  1  0  0  0  0  0999 V2000
  190.7660  175.8190  145.1320 C   0  0  2  0  0  3  0  0  0  0  0  0
  191.1860  173.4020  144.3060 C   0  0  2  0  0  3  0  0  0  0  0  0
  191.7380  176.8080  144.5100 C   0  0  0  0  0  2  0  0  0  0  0  0
  191.3960  174.4240  145.4000 C   0  0  1  0  0  3  0  0  0  0  0  0
  192.5000  173.0020  143.8670 N   0  0  2  0  0  0  0  0  0  0  0  0
  189.6930  171.9150  139.8790 C   0  0  0  0  0  3  0  0  0  0  0  0
  190.3650  173.7650  143.1230 C   0  0  0  0  0  0  0  0  0  0  0  0
  191.5080  170.8150  141.0570 C   0  0  0  0  0  3  0  0  0  0  0  0
  191.4260  171.7650  142.0790 C   0  0  0  0  0  0  0  0  0  0  0  0
  192.8350  174.3510  145.7600 N   0  0  2  0  0  0  0  0  0  0  0  0
  192.3520  171.6680  143.2860 C   0  0  0  0  0  2  0  0  0  0  0  0
  193.6300  175.4200  145.1200 C   0  0  0  0  0  2  0  0  0  0  0  0
  189.5510  174.8210  143.1620 C   0  0  0  0  0  3  0  0  0  0  0  0
  189.5590  175.7060  144.2990 N   0  0  0  0  0  0  0  0  0  0  0  0
  190.4490  172.7960  142.0060 C   0  0  0  0  0  0  0  0  0  0  0  0
  193.2080  173.0600  145.1340 C   0  0  2  0  0  3  0  0  0  0  0  0
  193.0190  176.7940  145.3050 C   0  0  0  0  0  2  0  0  0  0  0  0
  190.6440  170.8910  139.9620 C   0  0  0  0  0  3  0  0  0  0  0  0
  189.5940  172.8670  140.8990 C   0  0  0  0  0  3  0  0  0  0  0  0
  186.9440  178.3550  143.7030 C   0  0  0  0  0  0  0  0  0  0  0  0
  186.5110  179.1920  142.7320 F   0  0  0  0  0  0  0  0  0  0  0  0
  187.8170  176.6550  145.7460 C   0  0  0  0  0  3  0  0  0  0  0  0
  186.3150  178.3770  144.9490 C   0  0  0  0  0  3  0  0  0  0  0  0
  188.4630  176.6150  144.4990 C   0  0  0  0  0  0  0  0  0  0  0  0
  188.0140  177.4750  143.4670 C   0  0  0  0  0  0  0  0  0  0  0  0
  188.6320  177.4430  142.1050 C   0  0  0  0  0  1  0  0  0  0  0  0
  186.7470  177.5230  145.9670 C   0  0  0  0  0  0  0  0  0  0  0  0
  184.4320  178.2960  146.8880 C   0  0  0  0  0  1  0  0  0  0  0  0
  185.9430  177.5520  147.5620 S   0  0  0  0  0  0  0  0  0  0  0  0
  195.3090  172.0260  145.7380 N   0  0  0  0  0  0  0  0  0  0  0  0
  194.6890  172.8420  144.9720 C   0  0  0  0  0  3  0  0  0  0  0  0
  196.7220  171.8240  145.5790 C   0  0  0  0  0  1  0  0  0  0  0  0
  1  3  1  6  0  0  0
  1  4  1  0  0  0  0
  2  7  1  6  0  0  0
  2  4  1  0  0  0  0
  3 17  1  0  0  0  0
  4 10  1  0  0  0  0
  5  2  1  0  0  0  0
  5 16  1  0  0  0  0
  6 18  2  0  0  0  0
  6 19  1  0  0  0  0
  7 13  2  0  0  0  0
  8  9  2  0  0  0  0
  9 11  1  0  0  0  0
 11  5  1  0  0  0  0
 12 17  1  0  0  0  0
 12 10  1  0  0  0  0
 13 14  1  0  0  0  0
 14 24  1  0  0  0  0
 14  1  1  0  0  0  0
 15  9  1  0  0  0  0
 15  7  1  0  0  0  0
 16 10  1  0  0  0  0
 18  8  1  0  0  0  0
 19 15  2  0  0  0  0
 20 23  1  0  0  0  0
 21 20  1  0  0  0  0
 22 27  1  0  0  0  0
 23 27  2  0  0  0  0
 24 22  2  0  0  0  0
 25 20  2  0  0  0  0
 25 24  1  0  0  0  0
 26 25  1  0  0  0  0
 27 29  1  0  0  0  0
 28 29  1  0  0  0  0
 31 16  1  0  0  0  0
 31 30  2  0  0  0  0
 32 30  1  0  0  0  0
M  END
>  <MODEL>
9

>  <REMARK>
 VINA RESULT:      -7.5      2.299      2.962
  Name = 
  3 active torsions:
  status: ('A' for Active; 'I' for Inactive)
    1  A    between atoms: S_15  and  C_26
    2  A    between atoms: C_18  and  C_29
    3  A    between atoms: C_20  and  N_27
                            x       y       z     vdW  Elec       q    Type
                         _______ _______ _______ _____ _____    ______ ____

>  <TORSDO>
F 3

$$$$
