=
 OpenBabel11052420373D

 34 38  0  0  1  0  0  0  0  0999 V2000
  191.3790  176.2310  143.4830 C   0  0  1  0  0  0  0  0  0  0  0  0
  194.9140  175.8140  146.6520 O   0  0  0  0  0  0  0  0  0  0  0  0
  191.8890  175.6140  145.7090 C   0  0  1  0  0  3  0  0  0  0  0  0
  191.1330  175.6100  142.2430 O   0  0  0  0  0  1  0  0  0  0  0  0
  190.9510  175.3700  144.6080 N   0  0  2  0  0  0  0  0  0  0  0  0
  194.3510  175.6520  145.5360 C   0  0  0  0  0  0  0  0  0  0  0  0
  194.8960  174.7710  144.5470 N   0  0  0  0  0  0  0  0  0  0  0  0
  194.0930  174.4120  143.5100 O   0  0  0  0  0  0  0  0  0  0  0  0
  193.0920  176.3900  145.1980 C   0  0  1  0  0  3  0  0  0  0  0  0
  193.8070  175.6100  142.8330 C   0  0  0  0  0  2  0  0  0  0  0  0
  192.8780  176.5140  143.6850 C   0  0  1  0  0  3  0  0  0  0  0  0
  196.2390  174.2090  144.6690 C   0  0  0  0  0  3  0  0  0  0  0  0
  196.7290  173.7270  143.3150 C   0  0  0  0  0  2  0  0  0  0  0  0
  197.2250  175.0420  143.8690 C   0  0  0  0  0  2  0  0  0  0  0  0
  190.0830  173.1510  145.1540 C   0  0  0  0  0  2  0  0  0  0  0  0
  191.0460  173.9440  144.2840 C   0  0  0  0  0  3  0  0  0  0  0  0
  189.7190  173.4620  143.7210 C   0  0  0  0  0  2  0  0  0  0  0  0
  191.2040  176.3360  146.8660 C   0  0  0  0  0  2  0  0  0  0  0  0
  190.5770  175.4290  147.7230 O   0  0  0  0  0  1  0  0  0  0  0  0
  190.6320  177.4340  143.5640 O   0  0  0  0  0  0  0  0  0  0  0  0
  189.2560  177.1690  143.4110 C   0  0  2  0  0  3  0  0  0  0  0  0
  188.6080  178.1660  142.0310 S   0  0  0  0  0  0  0  0  0  0  0  0
  187.5060  176.8410  141.4290 C   0  0  1  0  0  3  0  0  0  0  0  0
  188.2860  174.7260  140.3760 C   0  0  0  0  0  2  0  0  0  0  0  0
  188.1580  175.4860  141.4630 C   0  0  0  0  0  3  0  0  0  0  0  0
  186.1330  176.8720  142.1020 C   0  0  0  0  0  2  0  0  0  0  0  0
  184.4150  178.5260  142.1570 O   0  0  0  0  0  0  0  0  0  0  0  0
  184.6020  178.1730  143.5040 C   0  0  1  0  0  3  0  0  0  0  0  0
  185.7360  178.2660  142.5620 C   0  0  1  0  0  3  0  0  0  0  0  0
  184.0850  179.0940  145.6330 O   0  0  0  0  0  1  0  0  0  0  0  0
  184.5440  179.4220  144.3580 C   0  0  0  0  0  2  0  0  0  0  0  0
  188.5210  177.5460  144.6860 C   0  0  0  0  0  2  0  0  0  0  0  0
  186.7620  176.7940  146.2520 C   0  0  0  0  0  1  0  0  0  0  0  0
  187.8010  176.3370  145.2510 C   0  0  0  0  0  2  0  0  0  0  0  0
  1  4  1  6  0  0  0
  1 20  1  0  0  0  0
  1 11  1  0  0  0  0
  1  5  1  0  0  0  0
  3 18  1  1  0  0  0
  5 16  1  6  0  0  0
  5  3  1  0  0  0  0
  6  2  2  0  0  0  0
  7 12  1  0  0  0  0
  7  6  1  0  0  0  0
  8  7  1  0  0  0  0
  9  6  1  6  0  0  0
  9  3  1  0  0  0  0
 10  8  1  0  0  0  0
 11 10  1  6  0  0  0
 11  9  1  0  0  0  0
 13 14  1  0  0  0  0
 13 12  1  0  0  0  0
 14 12  1  0  0  0  0
 16 15  1  0  0  0  0
 17 16  1  0  0  0  0
 17 15  1  0  0  0  0
 18 19  1  0  0  0  0
 21 20  1  0  0  0  0
 21 32  1  1  0  0  0
 22 21  1  0  0  0  0
 23 25  1  1  0  0  0
 23 22  1  0  0  0  0
 23 26  1  0  0  0  0
 24 25  2  0  0  0  0
 27 29  1  0  0  0  0
 27 28  1  0  0  0  0
 28 31  1  1  0  0  0
 29 26  1  6  0  0  0
 29 28  1  0  0  0  0
 31 30  1  0  0  0  0
 32 34  1  0  0  0  0
 34 33  1  0  0  0  0
M  END
>  <MODEL>
1

>  <REMARK>
 VINA RESULT:      -6.0      0.000      0.000
  Name = 
  13 active torsions:
  status: ('A' for Active; 'I' for Inactive)
    1  A    between atoms: C_1  and  O_8
    2  A    between atoms: C_3  and  N_25
    3  A    between atoms: C_5  and  C_19
    4  A    between atoms: S_6  and  C_18
    5  A    between atoms: S_6  and  C_28
    6  A    between atoms: O_8  and  C_18
    7  A    between atoms: C_11  and  C_21
    8  A    between atoms: C_12  and  N_20
    9  A    between atoms: C_16  and  C_28
   10  A    between atoms: C_18  and  C_30
   11  A    between atoms: C_26  and  C_28
   12  A    between atoms: C_26  and  C_29
   13  A    between atoms: C_30  and  C_31
                            x       y       z     vdW  Elec       q    Type
                         _______ _______ _______ _____ _____    ______ ____

>  <TORSDO>
F 13

$$$$
=
 OpenBabel11052420373D

 34 38  0  0  1  0  0  0  0  0999 V2000
  190.2460  176.3560  144.0070 C   0  0  1  0  0  0  0  0  0  0  0  0
  194.1760  176.0360  146.6840 O   0  0  0  0  0  0  0  0  0  0  0  0
  191.1840  175.3100  145.9100 C   0  0  1  0  0  3  0  0  0  0  0  0
  189.9870  176.0570  142.6550 O   0  0  0  0  0  1  0  0  0  0  0  0
  190.1890  175.1380  144.8450 N   0  0  2  0  0  0  0  0  0  0  0  0
  193.5210  176.0430  145.6070 C   0  0  0  0  0  0  0  0  0  0  0  0
  194.1190  175.6440  144.3680 N   0  0  0  0  0  0  0  0  0  0  0  0
  193.2890  175.3850  143.3220 O   0  0  0  0  0  0  0  0  0  0  0  0
  192.0900  176.4850  145.5840 C   0  0  1  0  0  3  0  0  0  0  0  0
  192.6410  176.6020  143.0540 C   0  0  0  0  0  2  0  0  0  0  0  0
  191.6500  176.9590  144.1930 C   0  0  1  0  0  3  0  0  0  0  0  0
  195.5590  175.4460  144.2340 C   0  0  0  0  0  3  0  0  0  0  0  0
  195.9100  175.1100  142.7950 C   0  0  0  0  0  2  0  0  0  0  0  0
  196.1470  176.5070  143.3190 C   0  0  0  0  0  2  0  0  0  0  0  0
  189.9830  172.7040  144.7760 C   0  0  0  0  0  2  0  0  0  0  0  0
  190.5710  173.9330  144.1030 C   0  0  0  0  0  3  0  0  0  0  0  0
  189.3270  173.2690  143.5380 C   0  0  0  0  0  2  0  0  0  0  0  0
  190.5120  175.4790  147.2690 C   0  0  0  0  0  2  0  0  0  0  0  0
  190.7890  176.7340  147.8140 O   0  0  0  0  0  1  0  0  0  0  0  0
  189.2550  177.2480  144.4900 O   0  0  0  0  0  0  0  0  0  0  0  0
  188.0030  176.9480  143.9190 C   0  0  2  0  0  3  0  0  0  0  0  0
  187.4130  178.3950  142.9820 S   0  0  0  0  0  0  0  0  0  0  0  0
  185.6530  178.0570  143.3270 C   0  0  1  0  0  3  0  0  0  0  0  0
  184.2580  179.1250  145.0890 C   0  0  0  0  0  2  0  0  0  0  0  0
  184.9510  179.2290  143.9560 C   0  0  0  0  0  3  0  0  0  0  0  0
  184.9180  177.4880  142.1130 C   0  0  0  0  0  2  0  0  0  0  0  0
  183.7370  178.0800  140.1260 O   0  0  0  0  0  0  0  0  0  0  0  0
  182.7300  177.9000  141.0910 C   0  0  1  0  0  3  0  0  0  0  0  0
  184.0300  178.5160  141.4300 C   0  0  1  0  0  3  0  0  0  0  0  0
  180.9490  179.1060  142.1010 O   0  0  0  0  0  1  0  0  0  0  0  0
  181.6830  178.9800  140.9220 C   0  0  0  0  0  2  0  0  0  0  0  0
  187.0050  176.6280  145.0190 C   0  0  0  0  0  2  0  0  0  0  0  0
  186.3730  177.1040  147.3610 C   0  0  0  0  0  1  0  0  0  0  0  0
  187.4900  177.1820  146.3430 C   0  0  0  0  0  2  0  0  0  0  0  0
  1  4  1  6  0  0  0
  1 11  1  0  0  0  0
  1 20  1  0  0  0  0
  1  5  1  0  0  0  0
  3 18  1  1  0  0  0
  5 16  1  6  0  0  0
  5  3  1  0  0  0  0
  6  2  2  0  0  0  0
  7  6  1  0  0  0  0
  8  7  1  0  0  0  0
  9  6  1  6  0  0  0
  9  3  1  0  0  0  0
 10  8  1  0  0  0  0
 11 10  1  6  0  0  0
 11  9  1  0  0  0  0
 12  7  1  0  0  0  0
 13 14  1  0  0  0  0
 13 12  1  0  0  0  0
 14 12  1  0  0  0  0
 16 15  1  0  0  0  0
 17 16  1  0  0  0  0
 17 15  1  0  0  0  0
 18 19  1  0  0  0  0
 21 20  1  0  0  0  0
 21 32  1  1  0  0  0
 22 23  1  0  0  0  0
 22 21  1  0  0  0  0
 23 26  1  6  0  0  0
 23 25  1  0  0  0  0
 25 24  2  0  0  0  0
 27 28  1  0  0  0  0
 27 29  1  0  0  0  0
 28 31  1  6  0  0  0
 28 29  1  0  0  0  0
 29 26  1  1  0  0  0
 31 30  1  0  0  0  0
 32 34  1  0  0  0  0
 34 33  1  0  0  0  0
M  END
>  <MODEL>
2

>  <REMARK>
 VINA RESULT:      -5.9      1.649      2.429
  Name = 
  13 active torsions:
  status: ('A' for Active; 'I' for Inactive)
    1  A    between atoms: C_1  and  O_8
    2  A    between atoms: C_3  and  N_25
    3  A    between atoms: C_5  and  C_19
    4  A    between atoms: S_6  and  C_18
    5  A    between atoms: S_6  and  C_28
    6  A    between atoms: O_8  and  C_18
    7  A    between atoms: C_11  and  C_21
    8  A    between atoms: C_12  and  N_20
    9  A    between atoms: C_16  and  C_28
   10  A    between atoms: C_18  and  C_30
   11  A    between atoms: C_26  and  C_28
   12  A    between atoms: C_26  and  C_29
   13  A    between atoms: C_30  and  C_31
                            x       y       z     vdW  Elec       q    Type
                         _______ _______ _______ _____ _____    ______ ____

>  <TORSDO>
F 13

$$$$
=
 OpenBabel11052420373D

 34 38  0  0  1  0  0  0  0  0999 V2000
  190.8640  176.6160  145.1820 C   0  0  1  0  0  0  0  0  0  0  0  0
  186.5290  178.2350  144.0390 O   0  0  0  0  0  0  0  0  0  0  0  0
  189.1150  176.4460  143.5970 C   0  0  1  0  0  3  0  0  0  0  0  0
  191.3530  175.9080  146.2970 O   0  0  0  0  0  1  0  0  0  0  0  0
  190.2240  175.7040  144.2080 N   0  0  2  0  0  0  0  0  0  0  0  0
  187.4090  177.7570  144.8060 C   0  0  0  0  0  0  0  0  0  0  0  0
  187.0720  177.2520  146.1030 N   0  0  0  0  0  0  0  0  0  0  0  0
  187.9960  176.4850  146.7410 O   0  0  0  0  0  0  0  0  0  0  0  0
  188.8470  177.7150  144.3900 C   0  0  1  0  0  3  0  0  0  0  0  0
  189.1020  177.3290  146.9390 C   0  0  0  0  0  2  0  0  0  0  0  0
  189.7980  177.6480  145.5900 C   0  0  1  0  0  3  0  0  0  0  0  0
  185.7600  177.4800  146.7040 C   0  0  0  0  0  3  0  0  0  0  0  0
  185.8990  177.6790  148.2030 C   0  0  0  0  0  2  0  0  0  0  0  0
  185.6980  178.8750  147.3020 C   0  0  0  0  0  2  0  0  0  0  0  0
  189.5260  173.3890  143.8470 C   0  0  0  0  0  2  0  0  0  0  0  0
  189.6360  174.5250  144.8510 C   0  0  0  0  0  3  0  0  0  0  0  0
  190.6490  173.3930  144.8570 C   0  0  0  0  0  2  0  0  0  0  0  0
  189.3980  176.7500  142.1290 C   0  0  0  0  0  2  0  0  0  0  0  0
  189.2450  178.1120  141.8590 O   0  0  0  0  0  1  0  0  0  0  0  0
  191.9430  177.2530  144.5170 O   0  0  0  0  0  0  0  0  0  0  0  0
  192.9550  176.3200  144.2170 C   0  0  2  0  0  3  0  0  0  0  0  0
  194.4920  176.8160  145.0610 S   0  0  0  0  0  0  0  0  0  0  0  0
  195.4110  175.3340  144.5240 C   0  0  1  0  0  3  0  0  0  0  0  0
  196.8830  176.7440  143.0970 C   0  0  0  0  0  2  0  0  0  0  0  0
  196.7230  175.6710  143.8720 C   0  0  0  0  0  3  0  0  0  0  0  0
  195.5350  174.2890  145.6330 C   0  0  0  0  0  2  0  0  0  0  0  0
  195.1810  172.3670  144.2640 O   0  0  0  0  0  0  0  0  0  0  0  0
  195.5010  171.8410  145.5280 C   0  0  1  0  0  3  0  0  0  0  0  0
  194.6770  173.0590  145.3800 C   0  0  1  0  0  3  0  0  0  0  0  0
  195.3700  169.6130  146.3420 O   0  0  0  0  0  1  0  0  0  0  0  0
  194.6070  170.6530  145.8120 C   0  0  0  0  0  2  0  0  0  0  0  0
  193.1960  176.2960  142.7170 C   0  0  0  0  0  2  0  0  0  0  0  0
  193.9430  174.4750  141.2220 C   0  0  0  0  0  1  0  0  0  0  0  0
  192.8420  174.9350  142.1520 C   0  0  0  0  0  2  0  0  0  0  0  0
  1 11  1  0  0  0  0
  1  4  1  1  0  0  0
  2  6  2  0  0  0  0
  3 18  1  6  0  0  0
  3  5  1  0  0  0  0
  3  9  1  0  0  0  0
  5 16  1  1  0  0  0
  5  1  1  0  0  0  0
  6  7  1  0  0  0  0
  7 12  1  0  0  0  0
  7  8  1  0  0  0  0
  8 10  1  0  0  0  0
  9  6  1  1  0  0  0
  9 11  1  0  0  0  0
 11 10  1  1  0  0  0
 12 14  1  0  0  0  0
 12 13  1  0  0  0  0
 14 13  1  0  0  0  0
 15 16  1  0  0  0  0
 15 17  1  0  0  0  0
 16 17  1  0  0  0  0
 19 18  1  0  0  0  0
 20  1  1  0  0  0  0
 21 32  1  6  0  0  0
 21 20  1  0  0  0  0
 21 22  1  0  0  0  0
 23 25  1  1  0  0  0
 23 22  1  0  0  0  0
 23 26  1  0  0  0  0
 24 25  2  0  0  0  0
 27 29  1  0  0  0  0
 27 28  1  0  0  0  0
 28 31  1  6  0  0  0
 29 28  1  0  0  0  0
 29 26  1  1  0  0  0
 31 30  1  0  0  0  0
 33 34  1  0  0  0  0
 34 32  1  0  0  0  0
M  END
>  <MODEL>
3

>  <REMARK>
 VINA RESULT:      -5.8      2.464      8.181
  Name = 
  13 active torsions:
  status: ('A' for Active; 'I' for Inactive)
    1  A    between atoms: C_1  and  O_8
    2  A    between atoms: C_3  and  N_25
    3  A    between atoms: C_5  and  C_19
    4  A    between atoms: S_6  and  C_18
    5  A    between atoms: S_6  and  C_28
    6  A    between atoms: O_8  and  C_18
    7  A    between atoms: C_11  and  C_21
    8  A    between atoms: C_12  and  N_20
    9  A    between atoms: C_16  and  C_28
   10  A    between atoms: C_18  and  C_30
   11  A    between atoms: C_26  and  C_28
   12  A    between atoms: C_26  and  C_29
   13  A    between atoms: C_30  and  C_31
                            x       y       z     vdW  Elec       q    Type
                         _______ _______ _______ _____ _____    ______ ____

>  <TORSDO>
F 13

$$$$
=
 OpenBabel11052420373D

 34 38  0  0  1  0  0  0  0  0999 V2000
  189.1520  175.5720  144.5150 C   0  0  1  0  0  0  0  0  0  0  0  0
  187.0240  178.3620  147.7410 O   0  0  0  0  0  0  0  0  0  0  0  0
  189.5360  177.2200  146.1680 C   0  0  1  0  0  3  0  0  0  0  0  0
  189.0470  175.4840  143.1130 O   0  0  0  0  0  1  0  0  0  0  0  0
  190.0630  176.6670  144.9160 N   0  0  2  0  0  0  0  0  0  0  0  0
  187.1880  177.8450  146.6030 C   0  0  0  0  0  0  0  0  0  0  0  0
  186.4730  178.3230  145.4570 N   0  0  0  0  0  0  0  0  0  0  0  0
  186.9140  177.9350  144.2310 O   0  0  0  0  0  0  0  0  0  0  0  0
  188.1290  176.6960  146.4110 C   0  0  1  0  0  3  0  0  0  0  0  0
  186.7700  176.5380  144.2110 C   0  0  0  0  0  2  0  0  0  0  0  0
  187.7900  175.8660  145.1670 C   0  0  1  0  0  3  0  0  0  0  0  0
  185.3530  179.2520  145.5790 C   0  0  0  0  0  3  0  0  0  0  0  0
  184.3020  178.9450  144.5250 C   0  0  0  0  0  2  0  0  0  0  0  0
  184.0890  178.4960  145.9510 C   0  0  0  0  0  2  0  0  0  0  0  0
  191.4340  178.4480  143.9540 C   0  0  0  0  0  2  0  0  0  0  0  0
  190.0760  177.7650  143.9450 C   0  0  0  0  0  3  0  0  0  0  0  0
  191.0920  177.4680  142.8560 C   0  0  0  0  0  2  0  0  0  0  0  0
  190.4610  176.9090  147.3410 C   0  0  0  0  0  2  0  0  0  0  0  0
  191.7010  176.4470  146.8940 O   0  0  0  0  0  1  0  0  0  0  0  0
  189.6960  174.3640  145.0230 O   0  0  0  0  0  0  0  0  0  0  0  0
  190.5180  173.7500  144.0580 C   0  0  2  0  0  3  0  0  0  0  0  0
  189.8720  172.0850  143.6970 S   0  0  0  0  0  0  0  0  0  0  0  0
  190.8120  171.9240  142.1400 C   0  0  1  0  0  3  0  0  0  0  0  0
  191.4080  169.5100  142.0440 C   0  0  0  0  0  2  0  0  0  0  0  0
  190.7240  170.5430  141.5520 C   0  0  0  0  0  3  0  0  0  0  0  0
  190.4800  173.0330  141.1400 C   0  0  0  0  0  2  0  0  0  0  0  0
  188.1650  173.0080  140.5630 O   0  0  0  0  0  0  0  0  0  0  0  0
  188.7640  173.8050  139.5720 C   0  0  1  0  0  3  0  0  0  0  0  0
  189.4380  172.6090  140.1180 C   0  0  1  0  0  3  0  0  0  0  0  0
  188.2690  174.5720  137.3780 O   0  0  0  0  0  1  0  0  0  0  0  0
  188.1470  173.4740  138.2290 C   0  0  0  0  0  2  0  0  0  0  0  0
  191.9330  173.6300  144.5970 C   0  0  0  0  0  2  0  0  0  0  0  0
  194.0610  174.8820  144.7120 C   0  0  0  0  0  1  0  0  0  0  0  0
  192.8600  174.5670  143.8480 C   0  0  0  0  0  2  0  0  0  0  0  0
  1  4  1  6  0  0  0
  1  5  1  0  0  0  0
  1 20  1  0  0  0  0
  1 11  1  0  0  0  0
  3  9  1  0  0  0  0
  3 18  1  1  0  0  0
  5 16  1  6  0  0  0
  5  3  1  0  0  0  0
  6  2  2  0  0  0  0
  7 12  1  0  0  0  0
  7  6  1  0  0  0  0
  8  7  1  0  0  0  0
  9  6  1  6  0  0  0
 10  8  1  0  0  0  0
 11 10  1  6  0  0  0
 11  9  1  0  0  0  0
 12 14  1  0  0  0  0
 13 12  1  0  0  0  0
 13 14  1  0  0  0  0
 16 15  1  0  0  0  0
 17 16  1  0  0  0  0
 17 15  1  0  0  0  0
 19 18  1  0  0  0  0
 21 32  1  1  0  0  0
 21 20  1  0  0  0  0
 22 21  1  0  0  0  0
 23 26  1  6  0  0  0
 23 22  1  0  0  0  0
 25 24  2  0  0  0  0
 25 23  1  0  0  0  0
 28 31  1  6  0  0  0
 28 29  1  0  0  0  0
 28 27  1  0  0  0  0
 29 27  1  0  0  0  0
 29 26  1  1  0  0  0
 30 31  1  0  0  0  0
 34 32  1  0  0  0  0
 34 33  1  0  0  0  0
M  END
>  <MODEL>
4

>  <REMARK>
 VINA RESULT:      -5.8      2.778      6.987
  Name = 
  13 active torsions:
  status: ('A' for Active; 'I' for Inactive)
    1  A    between atoms: C_1  and  O_8
    2  A    between atoms: C_3  and  N_25
    3  A    between atoms: C_5  and  C_19
    4  A    between atoms: S_6  and  C_18
    5  A    between atoms: S_6  and  C_28
    6  A    between atoms: O_8  and  C_18
    7  A    between atoms: C_11  and  C_21
    8  A    between atoms: C_12  and  N_20
    9  A    between atoms: C_16  and  C_28
   10  A    between atoms: C_18  and  C_30
   11  A    between atoms: C_26  and  C_28
   12  A    between atoms: C_26  and  C_29
   13  A    between atoms: C_30  and  C_31
                            x       y       z     vdW  Elec       q    Type
                         _______ _______ _______ _____ _____    ______ ____

>  <TORSDO>
F 13

$$$$
=
 OpenBabel11052420373D

 34 38  0  0  1  0  0  0  0  0999 V2000
  191.6980  174.8350  143.5620 C   0  0  1  0  0  0  0  0  0  0  0  0
  194.2720  171.5210  145.8240 O   0  0  0  0  0  0  0  0  0  0  0  0
  192.0520  172.5050  143.7770 C   0  0  1  0  0  3  0  0  0  0  0  0
  192.0490  175.8820  142.6880 O   0  0  0  0  0  1  0  0  0  0  0  0
  191.6070  173.5440  142.8430 N   0  0  2  0  0  0  0  0  0  0  0  0
  194.0930  172.5800  145.1630 C   0  0  0  0  0  0  0  0  0  0  0  0
  195.1920  173.2860  144.5750 N   0  0  0  0  0  0  0  0  0  0  0  0
  194.9070  174.2280  143.6360 O   0  0  0  0  0  0  0  0  0  0  0  0
  192.7190  173.1480  144.9830 C   0  0  1  0  0  3  0  0  0  0  0  0
  194.1500  175.2010  144.3090 C   0  0  0  0  0  2  0  0  0  0  0  0
  192.7460  174.6500  144.6740 C   0  0  1  0  0  3  0  0  0  0  0  0
  196.5790  172.9670  144.9040 C   0  0  0  0  0  3  0  0  0  0  0  0
  197.4310  174.2230  144.8480 C   0  0  0  0  0  2  0  0  0  0  0  0
  196.9850  173.6770  146.1840 C   0  0  0  0  0  2  0  0  0  0  0  0
  192.1170  172.3270  140.7860 C   0  0  0  0  0  2  0  0  0  0  0  0
  192.5080  173.4860  141.6880 C   0  0  0  0  0  3  0  0  0  0  0  0
  191.7180  173.7350  140.4150 C   0  0  0  0  0  2  0  0  0  0  0  0
  190.8940  171.6030  144.1910 C   0  0  0  0  0  2  0  0  0  0  0  0
  189.8170  171.7320  143.3110 O   0  0  0  0  0  1  0  0  0  0  0  0
  190.4210  175.0960  144.1230 O   0  0  0  0  0  0  0  0  0  0  0  0
  189.8950  176.2970  143.6060 C   0  0  2  0  0  3  0  0  0  0  0  0
  189.7620  177.5170  144.9530 S   0  0  0  0  0  0  0  0  0  0  0  0
  189.6470  176.2470  146.2580 C   0  0  1  0  0  3  0  0  0  0  0  0
  191.2320  175.4250  147.9920 C   0  0  0  0  0  2  0  0  0  0  0  0
  190.6630  176.4450  147.3490 C   0  0  0  0  0  3  0  0  0  0  0  0
  188.2200  176.0730  146.7810 C   0  0  0  0  0  2  0  0  0  0  0  0
  186.1880  176.7180  145.7110 O   0  0  0  0  0  0  0  0  0  0  0  0
  185.9990  177.0690  147.0600 C   0  0  1  0  0  3  0  0  0  0  0  0
  187.3080  177.2260  146.3920 C   0  0  1  0  0  3  0  0  0  0  0  0
  184.0690  178.3270  146.4810 O   0  0  0  0  0  1  0  0  0  0  0  0
  185.3000  178.4100  147.1310 C   0  0  0  0  0  2  0  0  0  0  0  0
  188.5130  176.0400  143.0290 C   0  0  0  0  0  2  0  0  0  0  0  0
  188.1670  174.1090  141.5240 C   0  0  0  0  0  1  0  0  0  0  0  0
  188.6270  175.5490  141.5990 C   0  0  0  0  0  2  0  0  0  0  0  0
  1  4  1  6  0  0  0
  1 20  1  0  0  0  0
  1 11  1  0  0  0  0
  3 18  1  1  0  0  0
  3  9  1  0  0  0  0
  5 16  1  6  0  0  0
  5  1  1  0  0  0  0
  5  3  1  0  0  0  0
  6  2  2  0  0  0  0
  7 12  1  0  0  0  0
  7  6  1  0  0  0  0
  8 10  1  0  0  0  0
  8  7  1  0  0  0  0
  9  6  1  6  0  0  0
 11 10  1  6  0  0  0
 11  9  1  0  0  0  0
 12 14  1  0  0  0  0
 13 12  1  0  0  0  0
 13 14  1  0  0  0  0
 15 16  1  0  0  0  0
 17 15  1  0  0  0  0
 17 16  1  0  0  0  0
 19 18  1  0  0  0  0
 21 32  1  1  0  0  0
 21 20  1  0  0  0  0
 21 22  1  0  0  0  0
 22 23  1  0  0  0  0
 23 26  1  1  0  0  0
 23 25  1  0  0  0  0
 25 24  2  0  0  0  0
 27 29  1  0  0  0  0
 27 28  1  0  0  0  0
 28 31  1  6  0  0  0
 29 26  1  1  0  0  0
 29 28  1  0  0  0  0
 30 31  1  0  0  0  0
 33 34  1  0  0  0  0
 34 32  1  0  0  0  0
M  END
>  <MODEL>
5

>  <REMARK>
 VINA RESULT:      -5.8      2.179      3.808
  Name = 
  13 active torsions:
  status: ('A' for Active; 'I' for Inactive)
    1  A    between atoms: C_1  and  O_8
    2  A    between atoms: C_3  and  N_25
    3  A    between atoms: C_5  and  C_19
    4  A    between atoms: S_6  and  C_18
    5  A    between atoms: S_6  and  C_28
    6  A    between atoms: O_8  and  C_18
    7  A    between atoms: C_11  and  C_21
    8  A    between atoms: C_12  and  N_20
    9  A    between atoms: C_16  and  C_28
   10  A    between atoms: C_18  and  C_30
   11  A    between atoms: C_26  and  C_28
   12  A    between atoms: C_26  and  C_29
   13  A    between atoms: C_30  and  C_31
                            x       y       z     vdW  Elec       q    Type
                         _______ _______ _______ _____ _____    ______ ____

>  <TORSDO>
F 13

$$$$
=
 OpenBabel11052420373D

 34 38  0  0  1  0  0  0  0  0999 V2000
  192.9320  174.4190  143.6070 C   0  0  1  0  0  0  0  0  0  0  0  0
  196.9640  176.9500  143.3880 O   0  0  0  0  0  0  0  0  0  0  0  0
  194.8500  175.0710  144.8300 C   0  0  1  0  0  3  0  0  0  0  0  0
  192.4670  173.3030  142.8850 O   0  0  0  0  0  1  0  0  0  0  0  0
  193.8470  174.0090  144.6960 N   0  0  2  0  0  0  0  0  0  0  0  0
  196.1150  176.1120  142.9840 C   0  0  0  0  0  0  0  0  0  0  0  0
  196.3930  175.2400  141.8810 N   0  0  0  0  0  0  0  0  0  0  0  0
  195.5710  174.1730  141.6980 O   0  0  0  0  0  0  0  0  0  0  0  0
  194.7700  176.0080  143.6360 C   0  0  1  0  0  3  0  0  0  0  0  0
  194.3060  174.7230  141.4340 C   0  0  0  0  0  2  0  0  0  0  0  0
  193.7190  175.3870  142.7080 C   0  0  1  0  0  3  0  0  0  0  0  0
  197.5570  175.4340  141.0200 C   0  0  0  0  0  3  0  0  0  0  0  0
  197.6290  174.3270  139.9830 C   0  0  0  0  0  2  0  0  0  0  0  0
  197.1080  175.6890  139.5910 C   0  0  0  0  0  2  0  0  0  0  0  0
  195.1510  172.1730  145.6460 C   0  0  0  0  0  2  0  0  0  0  0  0
  194.5780  172.7790  144.3760 C   0  0  0  0  0  3  0  0  0  0  0  0
  193.8940  171.5950  145.0390 C   0  0  0  0  0  2  0  0  0  0  0  0
  194.6840  175.8230  146.1470 C   0  0  0  0  0  2  0  0  0  0  0  0
  194.2680  177.1380  145.9250 O   0  0  0  0  0  1  0  0  0  0  0  0
  191.8320  175.0830  144.2080 O   0  0  0  0  0  0  0  0  0  0  0  0
  190.6200  174.6190  143.6610 C   0  0  2  0  0  3  0  0  0  0  0  0
  189.8710  175.9470  142.6630 S   0  0  0  0  0  0  0  0  0  0  0  0
  189.3560  176.9200  144.1180 C   0  0  1  0  0  3  0  0  0  0  0  0
  191.2110  178.4900  143.5870 C   0  0  0  0  0  2  0  0  0  0  0  0
  190.3400  178.0020  144.4690 C   0  0  0  0  0  3  0  0  0  0  0  0
  187.9150  177.4210  144.0060 C   0  0  0  0  0  2  0  0  0  0  0  0
  187.2610  177.7010  146.2840 O   0  0  0  0  0  0  0  0  0  0  0  0
  186.0990  177.9930  145.5480 C   0  0  1  0  0  3  0  0  0  0  0  0
  187.0300  176.9210  145.1360 C   0  0  1  0  0  3  0  0  0  0  0  0
  184.1320  178.4010  146.8160 O   0  0  0  0  0  1  0  0  0  0  0  0
  184.9030  177.3860  146.2500 C   0  0  0  0  0  2  0  0  0  0  0  0
  189.6670  174.2420  144.7830 C   0  0  0  0  0  2  0  0  0  0  0  0
  189.3030  174.7240  147.1800 C   0  0  0  0  0  1  0  0  0  0  0  0
  190.3450  174.4160  146.1270 C   0  0  0  0  0  2  0  0  0  0  0  0
  1  4  1  6  0  0  0
  1 20  1  0  0  0  0
  1  5  1  0  0  0  0
  3 18  1  1  0  0  0
  5 16  1  6  0  0  0
  5  3  1  0  0  0  0
  6  2  2  0  0  0  0
  7  6  1  0  0  0  0
  8  7  1  0  0  0  0
  9  6  1  6  0  0  0
  9  3  1  0  0  0  0
 10  8  1  0  0  0  0
 11 10  1  6  0  0  0
 11  1  1  0  0  0  0
 11  9  1  0  0  0  0
 12  7  1  0  0  0  0
 13 12  1  0  0  0  0
 14 13  1  0  0  0  0
 14 12  1  0  0  0  0
 16 17  1  0  0  0  0
 16 15  1  0  0  0  0
 17 15  1  0  0  0  0
 19 18  1  0  0  0  0
 21 20  1  0  0  0  0
 21 32  1  1  0  0  0
 22 21  1  0  0  0  0
 22 23  1  0  0  0  0
 23 26  1  6  0  0  0
 23 25  1  0  0  0  0
 24 25  2  0  0  0  0
 28 31  1  1  0  0  0
 28 27  1  0  0  0  0
 29 26  1  6  0  0  0
 29 28  1  0  0  0  0
 29 27  1  0  0  0  0
 31 30  1  0  0  0  0
 32 34  1  0  0  0  0
 34 33  1  0  0  0  0
M  END
>  <MODEL>
6

>  <REMARK>
 VINA RESULT:      -5.7      2.273      3.472
  Name = 
  13 active torsions:
  status: ('A' for Active; 'I' for Inactive)
    1  A    between atoms: C_1  and  O_8
    2  A    between atoms: C_3  and  N_25
    3  A    between atoms: C_5  and  C_19
    4  A    between atoms: S_6  and  C_18
    5  A    between atoms: S_6  and  C_28
    6  A    between atoms: O_8  and  C_18
    7  A    between atoms: C_11  and  C_21
    8  A    between atoms: C_12  and  N_20
    9  A    between atoms: C_16  and  C_28
   10  A    between atoms: C_18  and  C_30
   11  A    between atoms: C_26  and  C_28
   12  A    between atoms: C_26  and  C_29
   13  A    between atoms: C_30  and  C_31
                            x       y       z     vdW  Elec       q    Type
                         _______ _______ _______ _____ _____    ______ ____

>  <TORSDO>
F 13

$$$$
=
 OpenBabel11052420373D

 34 38  0  0  1  0  0  0  0  0999 V2000
  189.0540  175.6630  144.2210 C   0  0  1  0  0  0  0  0  0  0  0  0
  186.9800  178.2220  147.6660 O   0  0  0  0  0  0  0  0  0  0  0  0
  189.4740  177.1090  146.0460 C   0  0  1  0  0  3  0  0  0  0  0  0
  188.9870  175.7250  142.8160 O   0  0  0  0  0  1  0  0  0  0  0  0
  190.0090  176.6590  144.7560 N   0  0  2  0  0  0  0  0  0  0  0  0
  187.1510  177.8160  146.4850 C   0  0  0  0  0  0  0  0  0  0  0  0
  186.4960  178.4470  145.3780 N   0  0  0  0  0  0  0  0  0  0  0  0
  186.9540  178.1630  144.1290 O   0  0  0  0  0  0  0  0  0  0  0  0
  188.0350  176.6420  146.1980 C   0  0  1  0  0  3  0  0  0  0  0  0
  186.7360  176.7860  143.9610 C   0  0  0  0  0  2  0  0  0  0  0  0
  187.6900  175.9640  144.8670 C   0  0  1  0  0  3  0  0  0  0  0  0
  185.4240  179.4200  145.5680 C   0  0  0  0  0  3  0  0  0  0  0  0
  184.5020  179.4250  144.3610 C   0  0  0  0  0  2  0  0  0  0  0  0
  184.0820  178.7100  145.6240 C   0  0  0  0  0  2  0  0  0  0  0  0
  191.4690  178.5010  144.0860 C   0  0  0  0  0  2  0  0  0  0  0  0
  190.1090  177.8480  143.9050 C   0  0  0  0  0  3  0  0  0  0  0  0
  191.2040  177.6420  142.8720 C   0  0  0  0  0  2  0  0  0  0  0  0
  190.3460  176.6280  147.2020 C   0  0  0  0  0  2  0  0  0  0  0  0
  189.9700  175.3490  147.6170 O   0  0  0  0  0  1  0  0  0  0  0  0
  189.5170  174.3810  144.6140 O   0  0  0  0  0  0  0  0  0  0  0  0
  190.7590  174.1010  144.0110 C   0  0  2  0  0  3  0  0  0  0  0  0
  190.5270  172.8170  142.7390 S   0  0  0  0  0  0  0  0  0  0  0  0
  192.2410  172.9430  142.1240 C   0  0  1  0  0  3  0  0  0  0  0  0
  192.0650  171.9740  139.8390 C   0  0  0  0  0  2  0  0  0  0  0  0
  192.5570  171.9120  141.0760 C   0  0  0  0  0  3  0  0  0  0  0  0
  192.6080  174.3680  141.7040 C   0  0  0  0  0  2  0  0  0  0  0  0
  194.4040  175.7030  140.8780 O   0  0  0  0  0  0  0  0  0  0  0  0
  194.3810  175.9650  142.2590 C   0  0  1  0  0  3  0  0  0  0  0  0
  194.1070  174.6160  141.7200 C   0  0  1  0  0  3  0  0  0  0  0  0
  195.8420  176.8010  143.9360 O   0  0  0  0  0  1  0  0  0  0  0  0
  195.8020  176.0280  142.7760 C   0  0  0  0  0  2  0  0  0  0  0  0
  191.7310  173.5910  145.0620 C   0  0  0  0  0  2  0  0  0  0  0  0
  194.1340  173.8890  145.5620 C   0  0  0  0  0  1  0  0  0  0  0  0
  192.8300  174.6090  145.2950 C   0  0  0  0  0  2  0  0  0  0  0  0
  1  4  1  6  0  0  0
  1 20  1  0  0  0  0
  1  5  1  0  0  0  0
  1 11  1  0  0  0  0
  3  9  1  0  0  0  0
  3 18  1  1  0  0  0
  5 16  1  6  0  0  0
  5  3  1  0  0  0  0
  6  2  2  0  0  0  0
  7 12  1  0  0  0  0
  7  6  1  0  0  0  0
  8  7  1  0  0  0  0
  9  6  1  6  0  0  0
 10  8  1  0  0  0  0
 11 10  1  6  0  0  0
 11  9  1  0  0  0  0
 12 14  1  0  0  0  0
 13 12  1  0  0  0  0
 13 14  1  0  0  0  0
 16 15  1  0  0  0  0
 17 16  1  0  0  0  0
 17 15  1  0  0  0  0
 18 19  1  0  0  0  0
 21 20  1  0  0  0  0
 21 32  1  1  0  0  0
 22 21  1  0  0  0  0
 23 25  1  6  0  0  0
 23 22  1  0  0  0  0
 24 25  2  0  0  0  0
 26 23  1  0  0  0  0
 27 29  1  0  0  0  0
 27 28  1  0  0  0  0
 28 31  1  1  0  0  0
 29 26  1  6  0  0  0
 29 28  1  0  0  0  0
 31 30  1  0  0  0  0
 32 34  1  0  0  0  0
 34 33  1  0  0  0  0
M  END
>  <MODEL>
7

>  <REMARK>
 VINA RESULT:      -5.5      2.498      7.459
  Name = 
  13 active torsions:
  status: ('A' for Active; 'I' for Inactive)
    1  A    between atoms: C_1  and  O_8
    2  A    between atoms: C_3  and  N_25
    3  A    between atoms: C_5  and  C_19
    4  A    between atoms: S_6  and  C_18
    5  A    between atoms: S_6  and  C_28
    6  A    between atoms: O_8  and  C_18
    7  A    between atoms: C_11  and  C_21
    8  A    between atoms: C_12  and  N_20
    9  A    between atoms: C_16  and  C_28
   10  A    between atoms: C_18  and  C_30
   11  A    between atoms: C_26  and  C_28
   12  A    between atoms: C_26  and  C_29
   13  A    between atoms: C_30  and  C_31
                            x       y       z     vdW  Elec       q    Type
                         _______ _______ _______ _____ _____    ______ ____

>  <TORSDO>
F 13

$$$$
=
 OpenBabel11052420373D

 34 38  0  0  1  0  0  0  0  0999 V2000
  190.9670  175.4310  144.2780 C   0  0  1  0  0  0  0  0  0  0  0  0
  195.5750  174.2370  144.0550 O   0  0  0  0  0  0  0  0  0  0  0  0
  193.0780  175.7570  145.2940 C   0  0  1  0  0  3  0  0  0  0  0  0
  189.7960  174.6770  144.4900 O   0  0  0  0  0  1  0  0  0  0  0  0
  191.6350  175.7530  145.5590 N   0  0  2  0  0  0  0  0  0  0  0  0
  194.3340  174.0170  144.0760 C   0  0  0  0  0  0  0  0  0  0  0  0
  193.8150  172.6890  144.2220 N   0  0  0  0  0  0  0  0  0  0  0  0
  192.5000  172.5580  144.5400 O   0  0  0  0  0  0  0  0  0  0  0  0
  193.3540  175.1400  143.9320 C   0  0  1  0  0  3  0  0  0  0  0  0
  191.8000  173.1210  143.4600 C   0  0  0  0  0  2  0  0  0  0  0  0
  191.9890  174.6600  143.4250 C   0  0  1  0  0  3  0  0  0  0  0  0
  194.6690  171.5100  144.1090 C   0  0  0  0  0  3  0  0  0  0  0  0
  194.1570  170.4050  145.0160 C   0  0  0  0  0  2  0  0  0  0  0  0
  193.8770  170.3490  143.5330 C   0  0  0  0  0  2  0  0  0  0  0  0
  191.4470  175.3630  147.9640 C   0  0  0  0  0  2  0  0  0  0  0  0
  191.3990  174.7310  146.5830 C   0  0  0  0  0  3  0  0  0  0  0  0
  190.1140  175.0470  147.3280 C   0  0  0  0  0  2  0  0  0  0  0  0
  193.6530  177.1660  145.3990 C   0  0  0  0  0  2  0  0  0  0  0  0
  194.5620  177.2610  146.4550 O   0  0  0  0  0  1  0  0  0  0  0  0
  190.6290  176.6610  143.6580 O   0  0  0  0  0  0  0  0  0  0  0  0
  189.2340  176.8550  143.6790 C   0  0  2  0  0  3  0  0  0  0  0  0
  188.7530  177.8800  142.2510 S   0  0  0  0  0  0  0  0  0  0  0  0
  187.6290  176.6160  141.5650 C   0  0  1  0  0  3  0  0  0  0  0  0
  188.7500  174.5210  140.8250 C   0  0  0  0  0  2  0  0  0  0  0  0
  188.1330  175.2150  141.7810 C   0  0  0  0  0  3  0  0  0  0  0  0
  186.1810  176.8160  142.0130 C   0  0  0  0  0  2  0  0  0  0  0  0
  184.6730  178.6650  142.0470 O   0  0  0  0  0  0  0  0  0  0  0  0
  184.7050  178.2160  143.3790 C   0  0  1  0  0  3  0  0  0  0  0  0
  185.9160  178.2210  142.5320 C   0  0  1  0  0  3  0  0  0  0  0  0
  184.2330  179.0420  145.5560 O   0  0  0  0  0  1  0  0  0  0  0  0
  184.7270  179.4130  144.3050 C   0  0  0  0  0  2  0  0  0  0  0  0
  188.8390  177.5710  144.9600 C   0  0  0  0  0  2  0  0  0  0  0  0
  187.2920  177.5430  146.8880 C   0  0  0  0  0  1  0  0  0  0  0  0
  187.5380  177.0060  145.4950 C   0  0  0  0  0  2  0  0  0  0  0  0
  1  4  1  1  0  0  0
  1  5  1  0  0  0  0
  2  6  2  0  0  0  0
  3 18  1  6  0  0  0
  3  5  1  0  0  0  0
  5 16  1  1  0  0  0
  6  7  1  0  0  0  0
  7  8  1  0  0  0  0
  9  6  1  1  0  0  0
  9  3  1  0  0  0  0
 10  8  1  0  0  0  0
 11 10  1  1  0  0  0
 11  9  1  0  0  0  0
 11  1  1  0  0  0  0
 12  7  1  0  0  0  0
 12 13  1  0  0  0  0
 14 12  1  0  0  0  0
 14 13  1  0  0  0  0
 16 17  1  0  0  0  0
 16 15  1  0  0  0  0
 17 15  1  0  0  0  0
 18 19  1  0  0  0  0
 20 21  1  0  0  0  0
 20  1  1  0  0  0  0
 21 32  1  1  0  0  0
 22 21  1  0  0  0  0
 23 25  1  1  0  0  0
 23 26  1  0  0  0  0
 23 22  1  0  0  0  0
 24 25  2  0  0  0  0
 27 29  1  0  0  0  0
 27 28  1  0  0  0  0
 28 31  1  1  0  0  0
 29 26  1  6  0  0  0
 29 28  1  0  0  0  0
 31 30  1  0  0  0  0
 32 34  1  0  0  0  0
 34 33  1  0  0  0  0
M  END
>  <MODEL>
8

>  <REMARK>
 VINA RESULT:      -5.5      1.702      2.373
  Name = 
  13 active torsions:
  status: ('A' for Active; 'I' for Inactive)
    1  A    between atoms: C_1  and  O_8
    2  A    between atoms: C_3  and  N_25
    3  A    between atoms: C_5  and  C_19
    4  A    between atoms: S_6  and  C_18
    5  A    between atoms: S_6  and  C_28
    6  A    between atoms: O_8  and  C_18
    7  A    between atoms: C_11  and  C_21
    8  A    between atoms: C_12  and  N_20
    9  A    between atoms: C_16  and  C_28
   10  A    between atoms: C_18  and  C_30
   11  A    between atoms: C_26  and  C_28
   12  A    between atoms: C_26  and  C_29
   13  A    between atoms: C_30  and  C_31
                            x       y       z     vdW  Elec       q    Type
                         _______ _______ _______ _____ _____    ______ ____

>  <TORSDO>
F 13

$$$$
=
 OpenBabel11052420373D

 34 38  0  0  1  0  0  0  0  0999 V2000
  192.8340  175.6110  143.3640 C   0  0  1  0  0  0  0  0  0  0  0  0
  197.5440  176.3320  143.2720 O   0  0  0  0  0  0  0  0  0  0  0  0
  194.8230  175.4250  144.6320 C   0  0  1  0  0  3  0  0  0  0  0  0
  191.9810  174.7850  142.6070 O   0  0  0  0  0  1  0  0  0  0  0  0
  193.4840  174.8520  144.4560 N   0  0  2  0  0  0  0  0  0  0  0  0
  196.4410  175.9080  142.8340 C   0  0  0  0  0  0  0  0  0  0  0  0
  196.3770  175.0170  141.7130 N   0  0  0  0  0  0  0  0  0  0  0  0
  195.2030  174.3690  141.4900 O   0  0  0  0  0  0  0  0  0  0  0  0
  195.1510  176.3370  143.4620 C   0  0  1  0  0  3  0  0  0  0  0  0
  194.2680  175.3810  141.2210 C   0  0  0  0  0  2  0  0  0  0  0  0
  193.9630  176.2020  142.5020 C   0  0  1  0  0  3  0  0  0  0  0  0
  197.5420  174.7470  140.8750 C   0  0  0  0  0  3  0  0  0  0  0  0
  197.1010  174.2190  139.5210 C   0  0  0  0  0  2  0  0  0  0  0  0
  197.5320  175.6600  139.6610 C   0  0  0  0  0  2  0  0  0  0  0  0
  193.8190  172.6160  145.3860 C   0  0  0  0  0  2  0  0  0  0  0  0
  193.6720  173.4390  144.1160 C   0  0  0  0  0  3  0  0  0  0  0  0
  192.5020  172.6280  144.6450 C   0  0  0  0  0  2  0  0  0  0  0  0
  194.9370  176.1580  145.9650 C   0  0  0  0  0  2  0  0  0  0  0  0
  194.8230  177.5390  145.7910 O   0  0  0  0  0  1  0  0  0  0  0  0
  192.0740  176.6480  143.9650 O   0  0  0  0  0  0  0  0  0  0  0  0
  190.7780  176.1920  144.2730 C   0  0  2  0  0  3  0  0  0  0  0  0
  189.5590  177.2300  143.4020 S   0  0  0  0  0  0  0  0  0  0  0  0
  188.1940  176.0410  143.6380 C   0  0  1  0  0  3  0  0  0  0  0  0
  187.0140  177.9050  144.7880 C   0  0  0  0  0  2  0  0  0  0  0  0
  187.0310  176.6360  144.3820 C   0  0  0  0  0  3  0  0  0  0  0  0
  187.7920  175.3470  142.3360 C   0  0  0  0  0  2  0  0  0  0  0  0
  187.6420  173.0210  141.8270 O   0  0  0  0  0  0  0  0  0  0  0  0
  188.3100  173.5780  140.7220 C   0  0  1  0  0  3  0  0  0  0  0  0
  188.5560  174.0540  142.1000 C   0  0  1  0  0  3  0  0  0  0  0  0
  189.0320  171.9310  139.1700 O   0  0  0  0  0  1  0  0  0  0  0  0
  189.4270  172.6480  140.2980 C   0  0  0  0  0  2  0  0  0  0  0  0
  190.5430  176.2970  145.7700 C   0  0  0  0  0  2  0  0  0  0  0  0
  189.1080  174.9060  147.2250 C   0  0  0  0  0  1  0  0  0  0  0  0
  190.3550  174.9180  146.3690 C   0  0  0  0  0  2  0  0  0  0  0  0
  1  4  1  6  0  0  0
  1 20  1  0  0  0  0
  1  5  1  0  0  0  0
  3 18  1  1  0  0  0
  5 16  1  6  0  0  0
  5  3  1  0  0  0  0
  6  2  2  0  0  0  0
  7  6  1  0  0  0  0
  8  7  1  0  0  0  0
  9  6  1  6  0  0  0
  9  3  1  0  0  0  0
 10  8  1  0  0  0  0
 11 10  1  6  0  0  0
 11  1  1  0  0  0  0
 11  9  1  0  0  0  0
 12  7  1  0  0  0  0
 13 14  1  0  0  0  0
 13 12  1  0  0  0  0
 14 12  1  0  0  0  0
 16 17  1  0  0  0  0
 16 15  1  0  0  0  0
 17 15  1  0  0  0  0
 19 18  1  0  0  0  0
 20 21  1  0  0  0  0
 21 32  1  1  0  0  0
 22 23  1  0  0  0  0
 22 21  1  0  0  0  0
 23 26  1  6  0  0  0
 23 25  1  0  0  0  0
 25 24  2  0  0  0  0
 27 29  1  0  0  0  0
 28 31  1  1  0  0  0
 28 27  1  0  0  0  0
 28 29  1  0  0  0  0
 29 26  1  6  0  0  0
 30 31  1  0  0  0  0
 32 34  1  0  0  0  0
 34 33  1  0  0  0  0
M  END
>  <MODEL>
9

>  <REMARK>
 VINA RESULT:      -5.4      2.583      4.215
  Name = 
  13 active torsions:
  status: ('A' for Active; 'I' for Inactive)
    1  A    between atoms: C_1  and  O_8
    2  A    between atoms: C_3  and  N_25
    3  A    between atoms: C_5  and  C_19
    4  A    between atoms: S_6  and  C_18
    5  A    between atoms: S_6  and  C_28
    6  A    between atoms: O_8  and  C_18
    7  A    between atoms: C_11  and  C_21
    8  A    between atoms: C_12  and  N_20
    9  A    between atoms: C_16  and  C_28
   10  A    between atoms: C_18  and  C_30
   11  A    between atoms: C_26  and  C_28
   12  A    between atoms: C_26  and  C_29
   13  A    between atoms: C_30  and  C_31
                            x       y       z     vdW  Elec       q    Type
                         _______ _______ _______ _____ _____    ______ ____

>  <TORSDO>
F 13

$$$$
