=
 OpenBabel11052420283D

 34 37  0  0  1  0  0  0  0  0999 V2000
  194.6330  173.1960  144.0080 N   0  0  0  0  0  0  0  0  0  0  0  0
  195.8410  170.4800  146.3670 C   0  0  0  0  0  3  0  0  0  0  0  0
  196.9820  172.5070  145.7290 C   0  0  0  0  0  2  0  0  0  0  0  0
  196.2160  174.9960  143.1820 C   0  0  0  0  0  3  0  0  0  0  0  0
  197.4950  175.3020  143.5080 N   0  0  0  0  0  0  0  0  0  0  0  0
  196.9520  173.5970  144.7090 C   0  0  0  0  0  0  0  0  0  0  0  0
  195.8690  173.9090  143.9520 C   0  0  1  0  0  3  0  0  0  0  0  0
  197.9410  174.4610  144.4360 N   0  0  0  0  0  0  0  0  0  0  0  0
  195.7530  171.6240  145.6700 C   0  0  0  0  0  0  0  0  0  0  0  0
  193.4550  171.4320  144.9760 O   0  0  0  0  0  0  0  0  0  0  0  0
  194.5480  172.0530  144.8810 C   0  0  0  0  0  0  0  0  0  0  0  0
  194.8130  169.3990  146.5100 C   0  0  2  0  0  3  0  0  0  0  0  0
  194.5870  169.0890  147.8400 F   0  0  0  0  0  0  0  0  0  0  0  0
  195.1760  168.1680  145.6920 C   0  0  0  0  0  2  0  0  0  0  0  0
  194.5440  168.2320  144.3450 C   0  0  0  0  0  0  0  0  0  0  0  0
  193.1610  168.1900  144.2230 O   0  0  0  0  0  1  0  0  0  0  0  0
  195.2640  168.2920  143.3140 O   0  0  0  0  0  0  0  0  0  0  0  0
  193.5180  173.5700  143.1440 C   0  0  0  0  0  2  0  0  0  0  0  0
  192.5850  174.4750  143.8720 C   0  0  0  0  0  0  0  0  0  0  0  0
  192.9700  175.6300  144.1960 O   0  0  0  0  0  0  0  0  0  0  0  0
  191.2540  174.0270  144.1560 N   0  0  0  0  0  2  0  0  0  0  0  0
  188.8830  175.2080  146.7810 C   0  0  0  0  0  3  0  0  0  0  0  0
  189.4990  175.7800  144.1070 C   0  0  0  0  0  3  0  0  0  0  0  0
  186.4670  177.9120  146.0360 C   0  0  0  0  0  0  0  0  0  0  0  0
  187.1640  176.9200  146.7350 C   0  0  0  0  0  3  0  0  0  0  0  0
  188.1780  176.2030  146.1000 C   0  0  0  0  0  0  0  0  0  0  0  0
  187.7980  177.4580  144.0920 N   0  0  0  0  0  0  0  0  0  0  0  0
  188.4860  176.4910  144.7550 C   0  0  0  0  0  0  0  0  0  0  0  0
  186.8060  178.1670  144.7000 C   0  0  0  0  0  3  0  0  0  0  0  0
  190.2110  174.7800  144.7890 C   0  0  0  0  0  0  0  0  0  0  0  0
  189.8960  174.5010  146.1250 C   0  0  0  0  0  3  0  0  0  0  0  0
  185.3940  178.6800  146.6890 C   0  0  0  0  0  0  0  0  0  0  0  0
  184.1080  178.6740  146.1600 O   0  0  0  0  0  0  0  0  0  0  0  0
  185.6300  179.3460  147.7320 O   0  0  0  0  0  1  0  0  0  0  0  0
  1 11  1  0  0  0  0
  2 12  1  0  0  0  0
  4  5  2  0  0  0  0
  5  8  1  0  0  0  0
  6  3  1  0  0  0  0
  7  4  1  1  0  0  0
  7  1  1  0  0  0  0
  7  6  1  0  0  0  0
  8  6  2  0  0  0  0
  9  3  1  0  0  0  0
  9  2  2  0  0  0  0
 11 10  2  0  0  0  0
 11  9  1  0  0  0  0
 12 13  1  1  0  0  0
 14 12  1  0  0  0  0
 15 14  1  0  0  0  0
 16 15  1  0  0  0  0
 17 15  2  0  0  0  0
 18 19  1  0  0  0  0
 18  1  1  0  0  0  0
 19 21  1  0  0  0  0
 19 20  2  0  0  0  0
 21 30  1  0  0  0  0
 23 28  2  0  0  0  0
 23 30  1  0  0  0  0
 24 32  1  0  0  0  0
 24 25  2  0  0  0  0
 26 25  1  0  0  0  0
 26 22  2  0  0  0  0
 27 29  2  0  0  0  0
 27 28  1  0  0  0  0
 28 26  1  0  0  0  0
 29 24  1  0  0  0  0
 30 31  2  0  0  0  0
 31 22  1  0  0  0  0
 32 34  1  0  0  0  0
 33 32  2  0  0  0  0
M  END
>  <MODEL>
1

>  <REMARK>
 VINA RESULT:      -7.2      0.000      0.000
  Name = 
  7 active torsions:
  status: ('A' for Active; 'I' for Inactive)
    1  A    between atoms: N_1  and  C_9
    2  A    between atoms: C_2  and  C_23
    3  A    between atoms: C_3  and  C_27
    4  A    between atoms: C_7  and  C_11
    5  A    between atoms: C_8  and  C_9
    6  A    between atoms: N_18  and  C_30
    7  A    between atoms: C_23  and  C_27
                            x       y       z     vdW  Elec       q    Type
                         _______ _______ _______ _____ _____    ______ ____

>  <TORSDO>
F 7

$$$$
=
 OpenBabel11052420283D

 34 37  0  0  1  0  0  0  0  0999 V2000
  193.3920  172.3100  143.7660 N   0  0  0  0  0  0  0  0  0  0  0  0
  195.8990  174.9200  144.9080 C   0  0  0  0  0  3  0  0  0  0  0  0
  195.8940  172.5560  145.3900 C   0  0  0  0  0  2  0  0  0  0  0  0
  193.3880  169.9850  144.7780 C   0  0  0  0  0  3  0  0  0  0  0  0
  194.2290  169.3670  145.6410 N   0  0  0  0  0  2  0  0  0  0  0  0
  195.0090  171.3540  145.3470 C   0  0  0  0  0  0  0  0  0  0  0  0
  193.8880  171.2530  144.5880 C   0  0  0  0  0  0  0  0  0  0  0  0
  195.2140  170.1910  145.9840 N   0  0  0  0  0  0  0  0  0  0  0  0
  195.2870  173.7470  144.6780 C   0  0  0  0  0  0  0  0  0  0  0  0
  193.6950  174.5030  143.0370 O   0  0  0  0  0  0  0  0  0  0  0  0
  194.0930  173.5690  143.7830 C   0  0  0  0  0  0  0  0  0  0  0  0
  195.5490  176.2720  144.3660 C   0  0  2  0  0  3  0  0  0  0  0  0
  196.6500  176.8890  143.7960 F   0  0  0  0  0  0  0  0  0  0  0  0
  194.8890  177.1470  145.4220 C   0  0  0  0  0  2  0  0  0  0  0  0
  193.4500  176.7940  145.5660 C   0  0  0  0  0  0  0  0  0  0  0  0
  192.5360  177.1890  144.5970 O   0  0  0  0  0  0  0  0  0  0  0  0
  193.0550  176.1630  146.5820 O   0  0  0  0  0  1  0  0  0  0  0  0
  192.1630  172.1400  142.9970 C   0  0  0  0  0  2  0  0  0  0  0  0
  191.0090  172.7210  143.7380 C   0  0  0  0  0  0  0  0  0  0  0  0
  190.3070  171.9760  144.4720 O   0  0  0  0  0  0  0  0  0  0  0  0
  190.7440  174.1250  143.6320 N   0  0  0  0  0  2  0  0  0  0  0  0
  188.7960  175.6500  146.4230 C   0  0  0  0  0  3  0  0  0  0  0  0
  188.6710  175.4890  143.6270 C   0  0  0  0  0  3  0  0  0  0  0  0
  185.7300  177.6000  145.7140 C   0  0  0  0  0  0  0  0  0  0  0  0
  186.7670  176.9810  146.4220 C   0  0  0  0  0  3  0  0  0  0  0  0
  187.7540  176.2740  145.7340 C   0  0  0  0  0  0  0  0  0  0  0  0
  186.6740  176.8010  143.6590 N   0  0  0  0  0  0  0  0  0  0  0  0
  187.6900  176.1940  144.3280 C   0  0  0  0  0  0  0  0  0  0  0  0
  185.7050  177.4950  144.3160 C   0  0  0  0  0  3  0  0  0  0  0  0
  189.7210  174.8600  144.3170 C   0  0  0  0  0  0  0  0  0  0  0  0
  189.7740  174.9460  145.7140 C   0  0  0  0  0  3  0  0  0  0  0  0
  184.6800  178.3500  146.4220 C   0  0  0  0  0  0  0  0  0  0  0  0
  183.6170  178.9020  145.7150 O   0  0  0  0  0  0  0  0  0  0  0  0
  184.7330  178.4970  147.6720 O   0  0  0  0  0  1  0  0  0  0  0  0
  1 11  1  0  0  0  0
  1  7  1  0  0  0  0
  4  5  1  0  0  0  0
  5  8  1  0  0  0  0
  6  3  1  0  0  0  0
  6  8  2  0  0  0  0
  7  4  2  0  0  0  0
  7  6  1  0  0  0  0
  9  2  2  0  0  0  0
  9  3  1  0  0  0  0
 10 11  2  0  0  0  0
 11  9  1  0  0  0  0
 12 13  1  1  0  0  0
 12  2  1  0  0  0  0
 12 14  1  0  0  0  0
 14 15  1  0  0  0  0
 15 17  1  0  0  0  0
 16 15  2  0  0  0  0
 18 19  1  0  0  0  0
 18  1  1  0  0  0  0
 19 20  2  0  0  0  0
 21 19  1  0  0  0  0
 21 30  1  0  0  0  0
 23 30  2  0  0  0  0
 23 28  1  0  0  0  0
 24 25  1  0  0  0  0
 24 32  1  0  0  0  0
 26 25  2  0  0  0  0
 26 22  1  0  0  0  0
 27 29  1  0  0  0  0
 27 28  2  0  0  0  0
 28 26  1  0  0  0  0
 29 24  2  0  0  0  0
 30 31  1  0  0  0  0
 31 22  2  0  0  0  0
 32 34  1  0  0  0  0
 33 32  2  0  0  0  0
M  END
>  <MODEL>
2

>  <REMARK>
 VINA RESULT:      -7.2      2.739      4.452
  Name = 
  7 active torsions:
  status: ('A' for Active; 'I' for Inactive)
    1  A    between atoms: N_1  and  C_9
    2  A    between atoms: C_2  and  C_23
    3  A    between atoms: C_3  and  C_27
    4  A    between atoms: C_7  and  C_11
    5  A    between atoms: C_8  and  C_9
    6  A    between atoms: N_18  and  C_30
    7  A    between atoms: C_23  and  C_27
                            x       y       z     vdW  Elec       q    Type
                         _______ _______ _______ _____ _____    ______ ____

>  <TORSDO>
F 7

$$$$
=
 OpenBabel11052420283D

 34 37  0  0  1  0  0  0  0  0999 V2000
  192.9590  172.4760  143.1060 N   0  0  0  0  0  0  0  0  0  0  0  0
  195.3650  174.7470  144.9630 C   0  0  0  0  0  3  0  0  0  0  0  0
  195.1330  172.3550  145.1590 C   0  0  0  0  0  2  0  0  0  0  0  0
  192.6330  170.0660  143.8240 C   0  0  0  0  0  3  0  0  0  0  0  0
  193.2640  169.2970  144.7440 N   0  0  0  0  0  2  0  0  0  0  0  0
  194.2000  171.2370  144.8240 C   0  0  0  0  0  0  0  0  0  0  0  0
  193.2340  171.3040  143.8730 C   0  0  0  0  0  0  0  0  0  0  0  0
  194.2170  170.0010  145.3470 N   0  0  0  0  0  0  0  0  0  0  0  0
  194.7380  173.6570  144.4950 C   0  0  0  0  0  0  0  0  0  0  0  0
  193.5190  174.7020  142.7000 O   0  0  0  0  0  0  0  0  0  0  0  0
  193.7180  173.6670  143.3910 C   0  0  0  0  0  0  0  0  0  0  0  0
  195.2000  176.1720  144.5280 C   0  0  2  0  0  3  0  0  0  0  0  0
  196.3950  176.7030  144.0730 F   0  0  0  0  0  0  0  0  0  0  0  0
  194.5790  177.0250  145.6240 C   0  0  0  0  0  2  0  0  0  0  0  0
  193.1060  176.8130  145.6790 C   0  0  0  0  0  0  0  0  0  0  0  0
  192.5230  176.2710  146.8170 O   0  0  0  0  0  1  0  0  0  0  0  0
  192.3920  177.0950  144.6810 O   0  0  0  0  0  0  0  0  0  0  0  0
  191.8840  172.4830  142.1180 C   0  0  0  0  0  2  0  0  0  0  0  0
  190.6340  173.0220  142.7250 C   0  0  0  0  0  0  0  0  0  0  0  0
  189.9400  172.2810  143.4710 O   0  0  0  0  0  0  0  0  0  0  0  0
  190.2670  174.3850  142.4790 N   0  0  0  0  0  2  0  0  0  0  0  0
  186.8520  175.8570  142.7490 C   0  0  0  0  0  3  0  0  0  0  0  0
  189.1780  175.6680  144.3010 C   0  0  0  0  0  3  0  0  0  0  0  0
  185.8450  177.6920  145.8020 C   0  0  0  0  0  0  0  0  0  0  0  0
  185.7850  177.1160  144.5280 C   0  0  0  0  0  3  0  0  0  0  0  0
  186.8920  176.4380  144.0180 C   0  0  0  0  0  0  0  0  0  0  0  0
  188.1010  176.9110  146.0350 N   0  0  0  0  0  0  0  0  0  0  0  0
  188.0610  176.3440  144.8000 C   0  0  0  0  0  0  0  0  0  0  0  0
  187.0270  177.5750  146.5460 C   0  0  0  0  0  3  0  0  0  0  0  0
  189.1400  175.0830  143.0250 C   0  0  0  0  0  0  0  0  0  0  0  0
  187.9730  175.1830  142.2570 C   0  0  0  0  0  3  0  0  0  0  0  0
  184.6870  178.4120  146.3570 C   0  0  0  0  0  0  0  0  0  0  0  0
  183.7040  178.9150  145.5110 O   0  0  0  0  0  0  0  0  0  0  0  0
  184.5740  178.5780  147.6000 O   0  0  0  0  0  1  0  0  0  0  0  0
  1 11  1  0  0  0  0
  1  7  1  0  0  0  0
  4  7  2  0  0  0  0
  4  5  1  0  0  0  0
  5  8  1  0  0  0  0
  6  3  1  0  0  0  0
  6  8  2  0  0  0  0
  7  6  1  0  0  0  0
  9  2  2  0  0  0  0
  9  3  1  0  0  0  0
 10 11  2  0  0  0  0
 11  9  1  0  0  0  0
 12 13  1  1  0  0  0
 12  2  1  0  0  0  0
 12 14  1  0  0  0  0
 14 15  1  0  0  0  0
 15 16  1  0  0  0  0
 17 15  2  0  0  0  0
 18 19  1  0  0  0  0
 18  1  1  0  0  0  0
 19 20  2  0  0  0  0
 21 19  1  0  0  0  0
 21 30  1  0  0  0  0
 22 26  1  0  0  0  0
 23 28  1  0  0  0  0
 24 32  1  0  0  0  0
 24 29  1  0  0  0  0
 25 24  2  0  0  0  0
 26 25  1  0  0  0  0
 26 28  2  0  0  0  0
 27 29  2  0  0  0  0
 28 27  1  0  0  0  0
 30 23  2  0  0  0  0
 31 22  2  0  0  0  0
 31 30  1  0  0  0  0
 32 34  1  0  0  0  0
 33 32  2  0  0  0  0
M  END
>  <MODEL>
3

>  <REMARK>
 VINA RESULT:      -7.1      3.001      4.723
  Name = 
  7 active torsions:
  status: ('A' for Active; 'I' for Inactive)
    1  A    between atoms: N_1  and  C_9
    2  A    between atoms: C_2  and  C_23
    3  A    between atoms: C_3  and  C_27
    4  A    between atoms: C_7  and  C_11
    5  A    between atoms: C_8  and  C_9
    6  A    between atoms: N_18  and  C_30
    7  A    between atoms: C_23  and  C_27
                            x       y       z     vdW  Elec       q    Type
                         _______ _______ _______ _____ _____    ______ ____

>  <TORSDO>
F 7

$$$$
=
 OpenBabel11052420283D

 34 37  0  0  1  0  0  0  0  0999 V2000
  194.2380  174.3350  143.4180 N   0  0  0  0  0  0  0  0  0  0  0  0
  193.0160  173.7390  139.8750 C   0  0  0  0  0  3  0  0  0  0  0  0
  194.8880  175.0800  140.5930 C   0  0  0  0  0  2  0  0  0  0  0  0
  195.9570  176.1320  143.9120 C   0  0  0  0  0  3  0  0  0  0  0  0
  196.6920  176.9350  143.1060 N   0  0  0  0  0  2  0  0  0  0  0  0
  195.4730  175.7200  141.8090 C   0  0  0  0  0  0  0  0  0  0  0  0
  195.1810  175.3530  143.0830 C   0  0  0  0  0  0  0  0  0  0  0  0
  196.4050  176.6850  141.8320 N   0  0  0  0  0  0  0  0  0  0  0  0
  193.7530  174.1340  140.9250 C   0  0  0  0  0  0  0  0  0  0  0  0
  192.7120  172.7680  142.6130 O   0  0  0  0  0  0  0  0  0  0  0  0
  193.5210  173.6960  142.3440 C   0  0  0  0  0  0  0  0  0  0  0  0
  191.8310  172.8210  139.8640 C   0  0  2  0  0  3  0  0  0  0  0  0
  192.0890  171.6740  139.1320 F   0  0  0  0  0  0  0  0  0  0  0  0
  190.5740  173.5310  139.3860 C   0  0  0  0  0  2  0  0  0  0  0  0
  189.6170  173.7110  140.5130 C   0  0  0  0  0  0  0  0  0  0  0  0
  188.3590  173.1220  140.4580 O   0  0  0  0  0  0  0  0  0  0  0  0
  189.9350  174.4210  141.5030 O   0  0  0  0  0  1  0  0  0  0  0  0
  193.9540  174.0130  144.8130 C   0  0  0  0  0  2  0  0  0  0  0  0
  192.8180  174.8380  145.3090 C   0  0  0  0  0  0  0  0  0  0  0  0
  193.0450  175.9850  145.7790 O   0  0  0  0  0  0  0  0  0  0  0  0
  191.4830  174.3270  145.2050 N   0  0  0  0  0  2  0  0  0  0  0  0
  188.4930  175.3260  147.1980 C   0  0  0  0  0  3  0  0  0  0  0  0
  189.6740  175.9590  144.7360 C   0  0  0  0  0  3  0  0  0  0  0  0
  186.1410  177.8680  145.8920 C   0  0  0  0  0  0  0  0  0  0  0  0
  186.7210  176.9180  146.7410 C   0  0  0  0  0  3  0  0  0  0  0  0
  187.9010  176.2760  146.3640 C   0  0  0  0  0  0  0  0  0  0  0  0
  187.9140  177.5200  144.3140 N   0  0  0  0  0  0  0  0  0  0  0  0
  188.4930  176.5960  145.1260 C   0  0  0  0  0  0  0  0  0  0  0  0
  186.7640  178.1550  144.6690 C   0  0  0  0  0  3  0  0  0  0  0  0
  190.2730  175.0030  145.5730 C   0  0  0  0  0  0  0  0  0  0  0  0
  189.6760  174.6930  146.8010 C   0  0  0  0  0  3  0  0  0  0  0  0
  184.8970  178.5560  146.2720 C   0  0  0  0  0  0  0  0  0  0  0  0
  184.4630  178.5390  147.5930 O   0  0  0  0  0  1  0  0  0  0  0  0
  184.2150  179.1660  145.4060 O   0  0  0  0  0  0  0  0  0  0  0  0
  1 18  1  0  0  0  0
  2  9  2  0  0  0  0
  3  9  1  0  0  0  0
  3  6  1  0  0  0  0
  5  4  1  0  0  0  0
  6  8  2  0  0  0  0
  6  7  1  0  0  0  0
  7  1  1  0  0  0  0
  7  4  2  0  0  0  0
  8  5  1  0  0  0  0
  9 11  1  0  0  0  0
 11 10  2  0  0  0  0
 11  1  1  0  0  0  0
 12 13  1  6  0  0  0
 12  2  1  0  0  0  0
 14 12  1  0  0  0  0
 14 15  1  0  0  0  0
 15 17  1  0  0  0  0
 16 15  2  0  0  0  0
 18 19  1  0  0  0  0
 19 20  2  0  0  0  0
 21 19  1  0  0  0  0
 21 30  1  0  0  0  0
 23 28  2  0  0  0  0
 23 30  1  0  0  0  0
 24 32  1  0  0  0  0
 24 25  2  0  0  0  0
 26 25  1  0  0  0  0
 26 22  2  0  0  0  0
 27 29  2  0  0  0  0
 27 28  1  0  0  0  0
 28 26  1  0  0  0  0
 29 24  1  0  0  0  0
 30 31  2  0  0  0  0
 31 22  1  0  0  0  0
 32 33  1  0  0  0  0
 34 32  2  0  0  0  0
M  END
>  <MODEL>
4

>  <REMARK>
 VINA RESULT:      -7.1      3.103      4.385
  Name = 
  7 active torsions:
  status: ('A' for Active; 'I' for Inactive)
    1  A    between atoms: N_1  and  C_9
    2  A    between atoms: C_2  and  C_23
    3  A    between atoms: C_3  and  C_27
    4  A    between atoms: C_7  and  C_11
    5  A    between atoms: C_8  and  C_9
    6  A    between atoms: N_18  and  C_30
    7  A    between atoms: C_23  and  C_27
                            x       y       z     vdW  Elec       q    Type
                         _______ _______ _______ _____ _____    ______ ____

>  <TORSDO>
F 7

$$$$
=
 OpenBabel11052420283D

 34 37  0  0  1  0  0  0  0  0999 V2000
  188.7490  177.7390  143.8150 N   0  0  0  0  0  0  0  0  0  0  0  0
  185.9240  176.7930  146.1660 C   0  0  0  0  0  3  0  0  0  0  0  0
  185.9810  176.6020  143.7620 C   0  0  0  0  0  2  0  0  0  0  0  0
  188.3730  177.8390  141.3100 C   0  0  0  0  0  3  0  0  0  0  0  0
  187.3180  177.4920  140.5330 N   0  0  0  0  0  0  0  0  0  0  0  0
  186.7410  177.0750  142.5670 C   0  0  0  0  0  0  0  0  0  0  0  0
  188.0050  177.5690  142.6090 C   0  0  1  0  0  3  0  0  0  0  0  0
  186.3310  177.0250  141.2910 N   0  0  0  0  0  0  0  0  0  0  0  0
  186.6740  176.9470  145.0630 C   0  0  0  0  0  0  0  0  0  0  0  0
  188.7530  177.5200  146.1360 O   0  0  0  0  0  0  0  0  0  0  0  0
  188.1030  177.4140  145.0620 C   0  0  0  0  0  0  0  0  0  0  0  0
  186.3060  177.0500  147.5930 C   0  0  2  0  0  3  0  0  0  0  0  0
  186.0890  175.9330  148.3820 F   0  0  0  0  0  0  0  0  0  0  0  0
  185.6080  178.2830  148.1470 C   0  0  0  0  0  2  0  0  0  0  0  0
  186.5860  179.3890  148.3460 C   0  0  0  0  0  0  0  0  0  0  0  0
  187.8820  179.1060  148.7570 O   0  0  0  0  0  1  0  0  0  0  0  0
  186.2290  180.5840  148.1710 O   0  0  0  0  0  0  0  0  0  0  0  0
  190.0950  178.3030  143.7870 C   0  0  0  0  0  2  0  0  0  0  0  0
  191.1080  177.2110  143.7970 C   0  0  0  0  0  0  0  0  0  0  0  0
  191.3470  176.5780  142.7350 O   0  0  0  0  0  0  0  0  0  0  0  0
  191.8210  176.9290  145.0080 N   0  0  0  0  0  2  0  0  0  0  0  0
  195.2180  175.5090  145.5970 C   0  0  0  0  0  3  0  0  0  0  0  0
  192.6160  174.5820  145.1220 C   0  0  0  0  0  3  0  0  0  0  0  0
  195.7290  171.8430  145.6390 C   0  0  0  0  0  0  0  0  0  0  0  0
  195.9990  173.2140  145.7060 C   0  0  0  0  0  3  0  0  0  0  0  0
  194.9670  174.1370  145.5340 C   0  0  0  0  0  0  0  0  0  0  0  0
  193.4160  172.3320  145.2340 N   0  0  0  0  0  0  0  0  0  0  0  0
  193.6590  173.6690  145.2960 C   0  0  0  0  0  0  0  0  0  0  0  0
  194.4130  171.4210  145.4000 C   0  0  0  0  0  3  0  0  0  0  0  0
  192.8650  175.9630  145.1850 C   0  0  0  0  0  0  0  0  0  0  0  0
  194.1690  176.4160  145.4220 C   0  0  0  0  0  3  0  0  0  0  0  0
  196.8050  170.8540  145.8170 C   0  0  0  0  0  0  0  0  0  0  0  0
  197.9020  170.8520  144.9610 O   0  0  0  0  0  0  0  0  0  0  0  0
  196.7440  170.0030  146.7430 O   0  0  0  0  0  1  0  0  0  0  0  0
  1 11  1  0  0  0  0
  2 12  1  0  0  0  0
  3  9  1  0  0  0  0
  5  8  1  0  0  0  0
  5  4  2  0  0  0  0
  6  7  1  0  0  0  0
  6  3  1  0  0  0  0
  7  4  1  6  0  0  0
  7  1  1  0  0  0  0
  8  6  2  0  0  0  0
  9  2  2  0  0  0  0
 11  9  1  0  0  0  0
 11 10  2  0  0  0  0
 12 14  1  0  0  0  0
 12 13  1  1  0  0  0
 14 15  1  0  0  0  0
 15 16  1  0  0  0  0
 17 15  2  0  0  0  0
 18 19  1  0  0  0  0
 18  1  1  0  0  0  0
 19 21  1  0  0  0  0
 20 19  2  0  0  0  0
 21 30  1  0  0  0  0
 23 30  2  0  0  0  0
 23 28  1  0  0  0  0
 24 25  1  0  0  0  0
 24 32  1  0  0  0  0
 26 22  1  0  0  0  0
 26 25  2  0  0  0  0
 27 28  2  0  0  0  0
 27 29  1  0  0  0  0
 28 26  1  0  0  0  0
 29 24  2  0  0  0  0
 30 31  1  0  0  0  0
 31 22  2  0  0  0  0
 32 34  1  0  0  0  0
 33 32  2  0  0  0  0
M  END
>  <MODEL>
5

>  <REMARK>
 VINA RESULT:      -7.0      3.203     10.089
  Name = 
  7 active torsions:
  status: ('A' for Active; 'I' for Inactive)
    1  A    between atoms: N_1  and  C_9
    2  A    between atoms: C_2  and  C_23
    3  A    between atoms: C_3  and  C_27
    4  A    between atoms: C_7  and  C_11
    5  A    between atoms: C_8  and  C_9
    6  A    between atoms: N_18  and  C_30
    7  A    between atoms: C_23  and  C_27
                            x       y       z     vdW  Elec       q    Type
                         _______ _______ _______ _____ _____    ______ ____

>  <TORSDO>
F 7

$$$$
=
 OpenBabel11052420283D

 34 37  0  0  1  0  0  0  0  0999 V2000
  188.5540  177.4010  145.0640 N   0  0  0  0  0  0  0  0  0  0  0  0
  187.1260  175.5900  142.0510 C   0  0  0  0  0  3  0  0  0  0  0  0
  185.9560  176.3450  144.0200 C   0  0  0  0  0  2  0  0  0  0  0  0
  187.1820  177.6870  147.1770 C   0  0  0  0  0  3  0  0  0  0  0  0
  185.8890  177.4070  147.4670 N   0  0  0  0  0  2  0  0  0  0  0  0
  186.1960  176.8160  145.4180 C   0  0  0  0  0  0  0  0  0  0  0  0
  187.3770  177.3120  145.8660 C   0  0  0  0  0  0  0  0  0  0  0  0
  185.2880  176.8850  146.4030 N   0  0  0  0  0  0  0  0  0  0  0  0
  187.2330  176.2550  143.2120 C   0  0  0  0  0  0  0  0  0  0  0  0
  189.5130  176.9950  142.9780 O   0  0  0  0  0  0  0  0  0  0  0  0
  188.4970  176.8910  143.7170 C   0  0  0  0  0  0  0  0  0  0  0  0
  188.1920  175.3220  141.0320 C   0  0  2  0  0  3  0  0  0  0  0  0
  187.7690  175.6620  139.7580 F   0  0  0  0  0  0  0  0  0  0  0  0
  188.6880  173.8850  141.1030 C   0  0  0  0  0  2  0  0  0  0  0  0
  189.9020  173.7950  141.9620 C   0  0  0  0  0  0  0  0  0  0  0  0
  189.7840  173.4300  143.2970 O   0  0  0  0  0  1  0  0  0  0  0  0
  191.0320  174.0800  141.4860 O   0  0  0  0  0  0  0  0  0  0  0  0
  189.7980  177.9210  145.6230 C   0  0  0  0  0  2  0  0  0  0  0  0
  190.7350  176.8020  145.9180 C   0  0  0  0  0  0  0  0  0  0  0  0
  190.3730  175.8800  146.6960 O   0  0  0  0  0  0  0  0  0  0  0  0
  192.0180  176.7740  145.2780 N   0  0  0  0  0  2  0  0  0  0  0  0
  195.3150  175.1500  145.9080 C   0  0  0  0  0  3  0  0  0  0  0  0
  192.7280  174.4010  145.1320 C   0  0  0  0  0  3  0  0  0  0  0  0
  195.7050  171.4920  145.4940 C   0  0  0  0  0  0  0  0  0  0  0  0
  196.0130  172.8310  145.7620 C   0  0  0  0  0  3  0  0  0  0  0  0
  195.0260  173.8100  145.6450 C   0  0  0  0  0  0  0  0  0  0  0  0
  193.4460  172.1260  144.9960 N   0  0  0  0  0  0  0  0  0  0  0  0
  193.7250  173.4310  145.2540 C   0  0  0  0  0  0  0  0  0  0  0  0
  194.3990  171.1600  145.1080 C   0  0  0  0  0  3  0  0  0  0  0  0
  193.0150  175.7510  145.3960 C   0  0  0  0  0  0  0  0  0  0  0  0
  194.3100  176.1150  145.7830 C   0  0  0  0  0  3  0  0  0  0  0  0
  196.7330  170.4460  145.6120 C   0  0  0  0  0  0  0  0  0  0  0  0
  197.6290  170.2240  144.5710 O   0  0  0  0  0  0  0  0  0  0  0  0
  196.8120  169.7440  146.6550 O   0  0  0  0  0  1  0  0  0  0  0  0
  1 18  1  0  0  0  0
  1  7  1  0  0  0  0
  2  9  2  0  0  0  0
  3  6  1  0  0  0  0
  4  5  1  0  0  0  0
  6  7  1  0  0  0  0
  6  8  2  0  0  0  0
  7  4  2  0  0  0  0
  8  5  1  0  0  0  0
  9 11  1  0  0  0  0
  9  3  1  0  0  0  0
 10 11  2  0  0  0  0
 11  1  1  0  0  0  0
 12 13  1  6  0  0  0
 12 14  1  0  0  0  0
 12  2  1  0  0  0  0
 14 15  1  0  0  0  0
 15 16  1  0  0  0  0
 17 15  2  0  0  0  0
 18 19  1  0  0  0  0
 19 20  2  0  0  0  0
 21 30  1  0  0  0  0
 21 19  1  0  0  0  0
 23 28  2  0  0  0  0
 23 30  1  0  0  0  0
 24 32  1  0  0  0  0
 24 25  2  0  0  0  0
 26 25  1  0  0  0  0
 26 22  2  0  0  0  0
 27 29  2  0  0  0  0
 27 28  1  0  0  0  0
 28 26  1  0  0  0  0
 29 24  1  0  0  0  0
 30 31  2  0  0  0  0
 31 22  1  0  0  0  0
 32 34  1  0  0  0  0
 33 32  2  0  0  0  0
M  END
>  <MODEL>
6

>  <REMARK>
 VINA RESULT:      -7.0      3.609      9.390
  Name = 
  7 active torsions:
  status: ('A' for Active; 'I' for Inactive)
    1  A    between atoms: N_1  and  C_9
    2  A    between atoms: C_2  and  C_23
    3  A    between atoms: C_3  and  C_27
    4  A    between atoms: C_7  and  C_11
    5  A    between atoms: C_8  and  C_9
    6  A    between atoms: N_18  and  C_30
    7  A    between atoms: C_23  and  C_27
                            x       y       z     vdW  Elec       q    Type
                         _______ _______ _______ _____ _____    ______ ____

>  <TORSDO>
F 7

$$$$
=
 OpenBabel11052420283D

 34 37  0  0  1  0  0  0  0  0999 V2000
  194.2440  174.1500  144.3160 N   0  0  0  0  0  0  0  0  0  0  0  0
  193.1770  172.4570  141.0920 C   0  0  0  0  0  3  0  0  0  0  0  0
  194.8900  174.1280  141.3940 C   0  0  0  0  0  2  0  0  0  0  0  0
  195.7660  176.1780  144.2750 C   0  0  0  0  0  3  0  0  0  0  0  0
  196.4390  176.7910  143.2710 N   0  0  0  0  0  0  0  0  0  0  0  0
  195.3780  175.1410  142.3770 C   0  0  0  0  0  0  0  0  0  0  0  0
  195.0910  175.1220  143.7030 C   0  0  1  0  0  3  0  0  0  0  0  0
  196.2100  176.1630  142.1220 N   0  0  0  0  0  0  0  0  0  0  0  0
  193.8450  173.2050  141.9840 C   0  0  0  0  0  0  0  0  0  0  0  0
  192.9000  172.2730  143.9940 O   0  0  0  0  0  0  0  0  0  0  0  0
  193.6210  173.1640  143.4700 C   0  0  0  0  0  0  0  0  0  0  0  0
  192.0890  171.4580  141.3460 C   0  0  2  0  0  3  0  0  0  0  0  0
  192.3910  170.2290  140.7820 F   0  0  0  0  0  0  0  0  0  0  0  0
  190.7330  171.9760  140.8900 C   0  0  0  0  0  2  0  0  0  0  0  0
  190.0310  172.6570  142.0140 C   0  0  0  0  0  0  0  0  0  0  0  0
  189.2590  171.9170  142.9010 O   0  0  0  0  0  1  0  0  0  0  0  0
  190.1120  173.9060  142.1420 O   0  0  0  0  0  0  0  0  0  0  0  0
  193.9570  174.2080  145.7460 C   0  0  0  0  0  2  0  0  0  0  0  0
  192.7650  175.0640  145.9960 C   0  0  0  0  0  0  0  0  0  0  0  0
  192.9250  176.2480  146.3930 O   0  0  0  0  0  0  0  0  0  0  0  0
  191.4570  174.5360  145.7400 N   0  0  0  0  0  2  0  0  0  0  0  0
  188.2030  175.6660  147.1680 C   0  0  0  0  0  3  0  0  0  0  0  0
  189.7530  176.1200  144.8780 C   0  0  0  0  0  3  0  0  0  0  0  0
  186.0980  178.0930  145.3290 C   0  0  0  0  0  0  0  0  0  0  0  0
  186.5340  177.2120  146.3260 C   0  0  0  0  0  3  0  0  0  0  0  0
  187.7520  176.5490  146.1840 C   0  0  0  0  0  0  0  0  0  0  0  0
  188.0910  177.6360  144.0740 N   0  0  0  0  0  0  0  0  0  0  0  0
  188.5310  176.7780  145.0320 C   0  0  0  0  0  0  0  0  0  0  0  0
  186.9040  178.2910  144.1990 C   0  0  0  0  0  3  0  0  0  0  0  0
  190.2100  175.2310  145.8660 C   0  0  0  0  0  0  0  0  0  0  0  0
  189.4280  175.0110  147.0060 C   0  0  0  0  0  3  0  0  0  0  0  0
  184.8140  178.8010  145.4600 C   0  0  0  0  0  0  0  0  0  0  0  0
  184.4150  179.7120  144.4880 O   0  0  0  0  0  0  0  0  0  0  0  0
  184.0670  178.5900  146.4510 O   0  0  0  0  0  1  0  0  0  0  0  0
  1 18  1  0  0  0  0
  2 12  1  0  0  0  0
  2  9  2  0  0  0  0
  3  9  1  0  0  0  0
  3  6  1  0  0  0  0
  5  4  2  0  0  0  0
  6  7  1  0  0  0  0
  7  4  1  1  0  0  0
  7  1  1  0  0  0  0
  8  6  2  0  0  0  0
  8  5  1  0  0  0  0
  9 11  1  0  0  0  0
 11 10  2  0  0  0  0
 11  1  1  0  0  0  0
 12 13  1  6  0  0  0
 14 12  1  0  0  0  0
 14 15  1  0  0  0  0
 15 17  2  0  0  0  0
 15 16  1  0  0  0  0
 18 19  1  0  0  0  0
 19 20  2  0  0  0  0
 21 30  1  0  0  0  0
 21 19  1  0  0  0  0
 23 28  2  0  0  0  0
 23 30  1  0  0  0  0
 24 32  1  0  0  0  0
 24 25  2  0  0  0  0
 26 25  1  0  0  0  0
 26 22  2  0  0  0  0
 27 29  2  0  0  0  0
 27 28  1  0  0  0  0
 28 26  1  0  0  0  0
 29 24  1  0  0  0  0
 30 31  2  0  0  0  0
 31 22  1  0  0  0  0
 32 34  1  0  0  0  0
 33 32  2  0  0  0  0
M  END
>  <MODEL>
7

>  <REMARK>
 VINA RESULT:      -7.0      2.817      3.621
  Name = 
  7 active torsions:
  status: ('A' for Active; 'I' for Inactive)
    1  A    between atoms: N_1  and  C_9
    2  A    between atoms: C_2  and  C_23
    3  A    between atoms: C_3  and  C_27
    4  A    between atoms: C_7  and  C_11
    5  A    between atoms: C_8  and  C_9
    6  A    between atoms: N_18  and  C_30
    7  A    between atoms: C_23  and  C_27
                            x       y       z     vdW  Elec       q    Type
                         _______ _______ _______ _____ _____    ______ ____

>  <TORSDO>
F 7

$$$$
=
 OpenBabel11052420283D

 34 37  0  0  1  0  0  0  0  0999 V2000
  191.6940  176.0810  144.2670 N   0  0  0  0  0  0  0  0  0  0  0  0
  193.9910  173.5540  145.9210 C   0  0  0  0  0  3  0  0  0  0  0  0
  192.1320  174.7350  146.9040 C   0  0  0  0  0  2  0  0  0  0  0  0
  190.1020  177.4880  145.6510 C   0  0  0  0  0  3  0  0  0  0  0  0
  189.7740  177.4640  146.9650 N   0  0  0  0  0  2  0  0  0  0  0  0
  191.2330  175.9060  146.6720 C   0  0  0  0  0  0  0  0  0  0  0  0
  191.0310  176.4890  145.4640 C   0  0  0  0  0  0  0  0  0  0  0  0
  190.4540  176.5050  147.5850 N   0  0  0  0  0  0  0  0  0  0  0  0
  192.9820  174.4100  145.6940 C   0  0  0  0  0  0  0  0  0  0  0  0
  193.2350  174.6190  143.3080 O   0  0  0  0  0  0  0  0  0  0  0  0
  192.6670  175.0220  144.3580 C   0  0  0  0  0  0  0  0  0  0  0  0
  195.0060  173.0360  144.9480 C   0  0  2  0  0  3  0  0  0  0  0  0
  195.0790  171.6530  144.9800 F   0  0  0  0  0  0  0  0  0  0  0  0
  196.3670  173.6820  145.1600 C   0  0  0  0  0  2  0  0  0  0  0  0
  196.6410  174.6830  144.0910 C   0  0  0  0  0  0  0  0  0  0  0  0
  197.2330  174.2840  142.9000 O   0  0  0  0  0  0  0  0  0  0  0  0
  196.3650  175.8970  144.2800 O   0  0  0  0  0  1  0  0  0  0  0  0
  191.4470  176.7740  143.0060 C   0  0  0  0  0  2  0  0  0  0  0  0
  190.0180  176.6300  142.6130 C   0  0  0  0  0  0  0  0  0  0  0  0
  189.4800  175.4910  142.6410 O   0  0  0  0  0  0  0  0  0  0  0  0
  189.2700  177.7970  142.2480 N   0  0  0  0  0  2  0  0  0  0  0  0
  186.1540  177.5880  140.2110 C   0  0  0  0  0  3  0  0  0  0  0  0
  186.8980  178.2150  142.8400 C   0  0  0  0  0  3  0  0  0  0  0  0
  182.8710  178.3620  141.7350 C   0  0  0  0  0  0  0  0  0  0  0  0
  183.8330  177.9990  140.7860 C   0  0  0  0  0  3  0  0  0  0  0  0
  185.1800  177.9470  141.1450 C   0  0  0  0  0  0  0  0  0  0  0  0
  184.6030  178.6150  143.3750 N   0  0  0  0  0  0  0  0  0  0  0  0
  185.5520  178.2630  142.4670 C   0  0  0  0  0  0  0  0  0  0  0  0
  183.2850  178.6690  143.0390 C   0  0  0  0  0  3  0  0  0  0  0  0
  187.8800  177.8540  141.9030 C   0  0  0  0  0  0  0  0  0  0  0  0
  187.4990  177.5420  140.5920 C   0  0  0  0  0  3  0  0  0  0  0  0
  181.4450  178.4230  141.3750 C   0  0  0  0  0  0  0  0  0  0  0  0
  180.5360  179.0510  142.2200 O   0  0  0  0  0  1  0  0  0  0  0  0
  181.0350  177.9100  140.3010 O   0  0  0  0  0  0  0  0  0  0  0  0
  1 11  1  0  0  0  0
  1  7  1  0  0  0  0
  4  5  1  0  0  0  0
  5  8  1  0  0  0  0
  6  3  1  0  0  0  0
  6  8  2  0  0  0  0
  7  4  2  0  0  0  0
  7  6  1  0  0  0  0
  9  2  2  0  0  0  0
  9  3  1  0  0  0  0
 10 11  2  0  0  0  0
 11  9  1  0  0  0  0
 12 13  1  1  0  0  0
 12 14  1  0  0  0  0
 12  2  1  0  0  0  0
 15 17  1  0  0  0  0
 15 14  1  0  0  0  0
 16 15  2  0  0  0  0
 18  1  1  0  0  0  0
 19 20  2  0  0  0  0
 19 18  1  0  0  0  0
 21 19  1  0  0  0  0
 22 31  2  0  0  0  0
 22 26  1  0  0  0  0
 24 29  1  0  0  0  0
 25 26  1  0  0  0  0
 25 24  2  0  0  0  0
 26 28  2  0  0  0  0
 28 23  1  0  0  0  0
 28 27  1  0  0  0  0
 29 27  2  0  0  0  0
 30 21  1  0  0  0  0
 30 23  2  0  0  0  0
 31 30  1  0  0  0  0
 32 24  1  0  0  0  0
 32 33  1  0  0  0  0
 34 32  2  0  0  0  0
M  END
>  <MODEL>
8

>  <REMARK>
 VINA RESULT:      -6.8      3.660      5.714
  Name = 
  7 active torsions:
  status: ('A' for Active; 'I' for Inactive)
    1  A    between atoms: N_1  and  C_9
    2  A    between atoms: C_2  and  C_23
    3  A    between atoms: C_3  and  C_27
    4  A    between atoms: C_7  and  C_11
    5  A    between atoms: C_8  and  C_9
    6  A    between atoms: N_18  and  C_30
    7  A    between atoms: C_23  and  C_27
                            x       y       z     vdW  Elec       q    Type
                         _______ _______ _______ _____ _____    ______ ____

>  <TORSDO>
F 7

$$$$
=
 OpenBabel11052420283D

 34 37  0  0  1  0  0  0  0  0999 V2000
  190.0600  176.0930  143.8500 N   0  0  0  0  0  0  0  0  0  0  0  0
  189.9020  172.3360  143.3410 C   0  0  0  0  0  3  0  0  0  0  0  0
  189.8560  173.5540  145.4220 C   0  0  0  0  0  2  0  0  0  0  0  0
  190.4310  177.0750  146.1580 C   0  0  0  0  0  3  0  0  0  0  0  0
  190.4840  176.5120  147.3890 N   0  0  0  0  0  2  0  0  0  0  0  0
  190.1410  174.9030  145.9970 C   0  0  0  0  0  0  0  0  0  0  0  0
  190.2090  176.0470  145.2690 C   0  0  0  0  0  0  0  0  0  0  0  0
  190.3040  175.1980  147.2950 N   0  0  0  0  0  0  0  0  0  0  0  0
  189.8820  173.5530  143.9080 C   0  0  0  0  0  0  0  0  0  0  0  0
  189.7030  174.8690  141.8990 O   0  0  0  0  0  0  0  0  0  0  0  0
  189.8760  174.8490  143.1470 C   0  0  0  0  0  0  0  0  0  0  0  0
  189.9350  171.9920  141.8820 C   0  0  2  0  0  3  0  0  0  0  0  0
  188.6900  172.1490  141.2980 F   0  0  0  0  0  0  0  0  0  0  0  0
  190.5020  170.6000  141.6470 C   0  0  0  0  0  2  0  0  0  0  0  0
  190.9770  170.4610  140.2420 C   0  0  0  0  0  0  0  0  0  0  0  0
  191.9530  171.3180  139.7500 O   0  0  0  0  0  1  0  0  0  0  0  0
  190.4720  169.5870  139.4900 O   0  0  0  0  0  0  0  0  0  0  0  0
  190.1720  177.3580  143.1310 C   0  0  0  0  0  2  0  0  0  0  0  0
  188.8190  177.8570  142.7560 C   0  0  0  0  0  0  0  0  0  0  0  0
  188.6630  178.4550  141.6580 O   0  0  0  0  0  0  0  0  0  0  0  0
  187.7140  177.6100  143.6340 N   0  0  0  0  0  2  0  0  0  0  0  0
  184.2620  178.8610  144.2890 C   0  0  0  0  0  3  0  0  0  0  0  0
  185.7230  177.7690  142.1610 C   0  0  0  0  0  3  0  0  0  0  0  0
  181.7170  178.8140  141.6020 C   0  0  0  0  0  0  0  0  0  0  0  0
  182.3130  179.0140  142.8520 C   0  0  0  0  0  3  0  0  0  0  0  0
  183.6500  178.6690  143.0490 C   0  0  0  0  0  0  0  0  0  0  0  0
  183.7860  177.9310  140.7710 N   0  0  0  0  0  0  0  0  0  0  0  0
  184.3840  178.1200  141.9780 C   0  0  0  0  0  0  0  0  0  0  0  0
  182.4830  178.2650  140.5640 C   0  0  0  0  0  3  0  0  0  0  0  0
  186.3420  177.9610  143.4070 C   0  0  0  0  0  0  0  0  0  0  0  0
  185.6040  178.5080  144.4640 C   0  0  0  0  0  3  0  0  0  0  0  0
  180.3070  179.1720  141.3760 C   0  0  0  0  0  0  0  0  0  0  0  0
  179.9250  179.7980  140.1940 O   0  0  0  0  0  0  0  0  0  0  0  0
  179.4350  178.9150  142.2480 O   0  0  0  0  0  1  0  0  0  0  0  0
  1  7  1  0  0  0  0
  2  9  2  0  0  0  0
  3  6  1  0  0  0  0
  4  5  1  0  0  0  0
  6  8  2  0  0  0  0
  7  6  1  0  0  0  0
  7  4  2  0  0  0  0
  8  5  1  0  0  0  0
  9  3  1  0  0  0  0
 10 11  2  0  0  0  0
 11  1  1  0  0  0  0
 11  9  1  0  0  0  0
 12 13  1  1  0  0  0
 12  2  1  0  0  0  0
 14 12  1  0  0  0  0
 15 14  1  0  0  0  0
 16 15  1  0  0  0  0
 17 15  2  0  0  0  0
 18  1  1  0  0  0  0
 19 18  1  0  0  0  0
 19 21  1  0  0  0  0
 20 19  2  0  0  0  0
 22 31  1  0  0  0  0
 23 30  1  0  0  0  0
 24 25  2  0  0  0  0
 25 26  1  0  0  0  0
 26 22  2  0  0  0  0
 27 28  1  0  0  0  0
 28 23  2  0  0  0  0
 28 26  1  0  0  0  0
 29 27  2  0  0  0  0
 29 24  1  0  0  0  0
 30 21  1  0  0  0  0
 30 31  2  0  0  0  0
 32 24  1  0  0  0  0
 32 34  1  0  0  0  0
 33 32  2  0  0  0  0
M  END
>  <MODEL>
9

>  <REMARK>
 VINA RESULT:      -6.6      5.136      6.467
  Name = 
  7 active torsions:
  status: ('A' for Active; 'I' for Inactive)
    1  A    between atoms: N_1  and  C_9
    2  A    between atoms: C_2  and  C_23
    3  A    between atoms: C_3  and  C_27
    4  A    between atoms: C_7  and  C_11
    5  A    between atoms: C_8  and  C_9
    6  A    between atoms: N_18  and  C_30
    7  A    between atoms: C_23  and  C_27
                            x       y       z     vdW  Elec       q    Type
                         _______ _______ _______ _____ _____    ______ ____

>  <TORSDO>
F 7

$$$$
