=
 OpenBabel11052418093D

 28 32  0  0  0  0  0  0  0  0999 V2000
  189.3480  173.8590  142.9040 N   0  0  0  0  0  0  0  0  0  0  0  0
  187.1930  177.0650  146.1020 C   0  0  0  0  0  3  0  0  0  0  0  0
  187.0950  176.8890  139.9390 C   0  0  0  0  0  1  0  0  0  0  0  0
  186.0440  178.6100  144.6170 C   0  0  0  0  0  0  0  0  0  0  0  0
  187.3260  176.7620  143.6760 C   0  0  0  0  0  0  0  0  0  0  0  0
  185.9130  178.9080  147.0160 C   0  0  0  0  0  0  0  0  0  0  0  0
  186.8620  177.4690  144.8000 C   0  0  0  0  0  0  0  0  0  0  0  0
  186.1640  178.3210  142.2170 C   0  0  0  0  0  3  0  0  0  0  0  0
  185.5760  179.3210  145.7240 C   0  0  0  0  0  3  0  0  0  0  0  0
  188.2290  175.3680  141.4840 C   0  0  0  0  0  0  0  0  0  0  0  0
  188.1120  175.6640  143.8170 N   0  0  0  0  0  0  0  0  0  0  0  0
  185.7030  179.0280  143.3290 C   0  0  0  0  0  3  0  0  0  0  0  0
  189.4610  173.5600  140.5900 C   0  0  0  0  0  3  0  0  0  0  0  0
  187.4400  176.4750  141.2990 N   0  0  0  0  0  0  0  0  0  0  0  0
  188.6850  174.6570  140.4160 N   0  0  0  0  0  0  0  0  0  0  0  0
  185.4570  179.5990  148.0890 F   0  0  0  0  0  0  0  0  0  0  0  0
  186.7190  177.7820  147.2050 C   0  0  0  0  0  3  0  0  0  0  0  0
  186.9780  177.1850  142.3760 C   0  0  0  0  0  0  0  0  0  0  0  0
  189.7830  173.1710  141.8470 N   0  0  0  0  0  0  0  0  0  0  0  0
  188.5620  174.9670  142.7390 C   0  0  0  0  0  0  0  0  0  0  0  0
  189.7100  173.3860  144.2370 C   0  0  0  0  0  2  0  0  0  0  0  0
  190.7930  174.2360  144.8130 C   0  0  0  0  0  0  0  0  0  0  0  0
  192.8430  175.7840  145.9190 C   0  0  0  0  0  0  0  0  0  0  0  0
  191.9790  174.4390  144.1000 C   0  0  0  0  0  3  0  0  0  0  0  0
  190.6360  174.7990  146.0840 C   0  0  0  0  0  3  0  0  0  0  0  0
  191.6600  175.5750  146.6360 C   0  0  0  0  0  3  0  0  0  0  0  0
  194.1250  176.7550  146.6110 Cl  0  0  0  0  0  0  0  0  0  0  0  0
  193.0030  175.2160  144.6520 C   0  0  0  0  0  3  0  0  0  0  0  0
  1 21  1  0  0  0  0
  2 17  1  0  0  0  0
  3 14  1  0  0  0  0
  4  7  1  0  0  0  0
  4  9  2  0  0  0  0
  5 11  1  0  0  0  0
  5  7  1  0  0  0  0
  6 17  2  0  0  0  0
  6 16  1  0  0  0  0
  7  2  2  0  0  0  0
  8 18  1  0  0  0  0
  8 12  2  0  0  0  0
  9  6  1  0  0  0  0
 10 20  1  0  0  0  0
 12  4  1  0  0  0  0
 13 19  2  0  0  0  0
 14 10  1  0  0  0  0
 14 18  1  0  0  0  0
 15 13  1  0  0  0  0
 15 10  2  0  0  0  0
 18  5  2  0  0  0  0
 19  1  1  0  0  0  0
 20  1  1  0  0  0  0
 20 11  2  0  0  0  0
 21 22  1  0  0  0  0
 22 25  1  0  0  0  0
 23 27  1  0  0  0  0
 23 26  1  0  0  0  0
 24 28  1  0  0  0  0
 24 22  2  0  0  0  0
 25 26  2  0  0  0  0
 28 23  2  0  0  0  0
M  END
>  <MODEL>
1

>  <REMARK>
 VINA RESULT:      -8.5      0.000      0.000
  Name = 
  2 active torsions:
  status: ('A' for Active; 'I' for Inactive)
    1  A    between atoms: N_1  and  C_2
    2  A    between atoms: C_2  and  C_3
                            x       y       z     vdW  Elec       q    Type
                         _______ _______ _______ _____ _____    ______ ____

>  <TORSDO>
F 2

$$$$
=
 OpenBabel11052418093D

 28 32  0  0  0  0  0  0  0  0999 V2000
  190.8700  174.4770  143.9930 N   0  0  0  0  0  0  0  0  0  0  0  0
  187.2210  176.8300  146.5030 C   0  0  0  0  0  3  0  0  0  0  0  0
  187.8090  175.6400  140.4810 C   0  0  0  0  0  1  0  0  0  0  0  0
  185.6580  177.4270  144.7390 C   0  0  0  0  0  0  0  0  0  0  0  0
  187.7090  176.2340  144.1790 C   0  0  0  0  0  0  0  0  0  0  0  0
  185.1770  178.0150  147.0370 C   0  0  0  0  0  0  0  0  0  0  0  0
  186.8740  176.8260  145.1440 C   0  0  0  0  0  0  0  0  0  0  0  0
  186.1260  176.8420  142.4370 C   0  0  0  0  0  3  0  0  0  0  0  0
  184.8190  178.0180  145.6870 C   0  0  0  0  0  3  0  0  0  0  0  0
  189.3430  175.0670  142.3000 C   0  0  0  0  0  0  0  0  0  0  0  0
  188.8810  175.6490  144.5340 N   0  0  0  0  0  0  0  0  0  0  0  0
  185.2940  177.4320  143.3900 C   0  0  0  0  0  3  0  0  0  0  0  0
  191.3280  173.8940  141.7770 C   0  0  0  0  0  3  0  0  0  0  0  0
  188.1680  175.6520  141.8990 N   0  0  0  0  0  0  0  0  0  0  0  0
  190.1680  174.4770  141.3900 N   0  0  0  0  0  0  0  0  0  0  0  0
  184.3610  178.5880  147.9550 F   0  0  0  0  0  0  0  0  0  0  0  0
  186.3750  177.4220  147.4450 C   0  0  0  0  0  3  0  0  0  0  0  0
  187.3370  176.2390  142.8170 C   0  0  0  0  0  0  0  0  0  0  0  0
  191.6650  173.9010  143.0890 N   0  0  0  0  0  0  0  0  0  0  0  0
  189.6960  175.0670  143.6110 C   0  0  0  0  0  0  0  0  0  0  0  0
  191.2730  174.4410  145.3950 C   0  0  0  0  0  2  0  0  0  0  0  0
  192.7520  174.2820  145.5070 C   0  0  0  0  0  0  0  0  0  0  0  0
  195.5200  173.9790  145.7730 C   0  0  0  0  0  0  0  0  0  0  0  0
  193.3310  173.0130  145.3990 C   0  0  0  0  0  3  0  0  0  0  0  0
  193.5570  175.3980  145.7580 C   0  0  0  0  0  3  0  0  0  0  0  0
  194.9410  175.2470  145.8880 C   0  0  0  0  0  3  0  0  0  0  0  0
  197.2520  173.7910  145.9360 Cl  0  0  0  0  0  0  0  0  0  0  0  0
  194.7160  172.8620  145.5290 C   0  0  0  0  0  3  0  0  0  0  0  0
  1 21  1  0  0  0  0
  2 17  1  0  0  0  0
  3 14  1  0  0  0  0
  4  7  1  0  0  0  0
  4  9  2  0  0  0  0
  5 11  1  0  0  0  0
  5  7  1  0  0  0  0
  6 17  2  0  0  0  0
  6 16  1  0  0  0  0
  7  2  2  0  0  0  0
  8 18  1  0  0  0  0
  8 12  2  0  0  0  0
  9  6  1  0  0  0  0
 10 20  1  0  0  0  0
 12  4  1  0  0  0  0
 13 19  2  0  0  0  0
 14 10  1  0  0  0  0
 14 18  1  0  0  0  0
 15 13  1  0  0  0  0
 15 10  2  0  0  0  0
 18  5  2  0  0  0  0
 19  1  1  0  0  0  0
 20  1  1  0  0  0  0
 20 11  2  0  0  0  0
 21 22  1  0  0  0  0
 22 25  1  0  0  0  0
 23 26  1  0  0  0  0
 23 27  1  0  0  0  0
 24 22  2  0  0  0  0
 24 28  1  0  0  0  0
 25 26  2  0  0  0  0
 28 23  2  0  0  0  0
M  END
>  <MODEL>
2

>  <REMARK>
 VINA RESULT:      -8.1      1.766      2.035
  Name = 
  2 active torsions:
  status: ('A' for Active; 'I' for Inactive)
    1  A    between atoms: N_1  and  C_2
    2  A    between atoms: C_2  and  C_3
                            x       y       z     vdW  Elec       q    Type
                         _______ _______ _______ _____ _____    ______ ____

>  <TORSDO>
F 2

$$$$
=
 OpenBabel11052418093D

 28 32  0  0  0  0  0  0  0  0999 V2000
  189.8650  173.0390  143.7300 N   0  0  0  0  0  0  0  0  0  0  0  0
  187.2540  177.2570  144.4620 C   0  0  0  0  0  3  0  0  0  0  0  0
  188.5780  174.2260  139.2590 C   0  0  0  0  0  1  0  0  0  0  0  0
  186.5920  177.8750  142.2060 C   0  0  0  0  0  0  0  0  0  0  0  0
  187.9250  175.8660  142.5630 C   0  0  0  0  0  0  0  0  0  0  0  0
  185.9280  179.2500  144.0850 C   0  0  0  0  0  0  0  0  0  0  0  0
  187.2630  176.9920  143.0850 C   0  0  0  0  0  0  0  0  0  0  0  0
  187.2460  176.5080  140.3190 C   0  0  0  0  0  3  0  0  0  0  0  0
  185.9300  178.9970  142.7110 C   0  0  0  0  0  3  0  0  0  0  0  0
  189.2140  173.6570  141.5520 C   0  0  0  0  0  0  0  0  0  0  0  0
  188.5790  175.0000  143.3780 N   0  0  0  0  0  0  0  0  0  0  0  0
  186.5890  177.6270  140.8310 C   0  0  0  0  0  3  0  0  0  0  0  0
  190.4920  171.7020  141.9190 C   0  0  0  0  0  3  0  0  0  0  0  0
  188.5690  174.5100  140.6930 N   0  0  0  0  0  0  0  0  0  0  0  0
  189.8560  172.5530  141.0770 N   0  0  0  0  0  0  0  0  0  0  0  0
  185.2840  180.3380  144.5720 F   0  0  0  0  0  0  0  0  0  0  0  0
  186.5880  178.3820  144.9600 C   0  0  0  0  0  3  0  0  0  0  0  0
  187.9190  175.6170  141.1740 C   0  0  0  0  0  0  0  0  0  0  0  0
  190.4850  171.9600  143.2490 N   0  0  0  0  0  0  0  0  0  0  0  0
  189.2180  173.9030  142.8880 C   0  0  0  0  0  0  0  0  0  0  0  0
  189.8740  173.2600  145.1720 C   0  0  0  0  0  2  0  0  0  0  0  0
  190.9760  174.1920  145.5490 C   0  0  0  0  0  0  0  0  0  0  0  0
  193.0390  175.9630  146.2040 C   0  0  0  0  0  0  0  0  0  0  0  0
  190.6810  175.4110  146.1700 C   0  0  0  0  0  3  0  0  0  0  0  0
  192.3020  173.8640  145.2470 C   0  0  0  0  0  3  0  0  0  0  0  0
  193.3340  174.7490  145.5770 C   0  0  0  0  0  3  0  0  0  0  0  0
  194.3310  177.0710  146.6160 Cl  0  0  0  0  0  0  0  0  0  0  0  0
  191.7130  176.2960  146.5000 C   0  0  0  0  0  3  0  0  0  0  0  0
  1 21  1  0  0  0  0
  2 17  1  0  0  0  0
  3 14  1  0  0  0  0
  4  9  2  0  0  0  0
  4  7  1  0  0  0  0
  5  7  1  0  0  0  0
  5 11  1  0  0  0  0
  6 16  1  0  0  0  0
  6 17  2  0  0  0  0
  7  2  2  0  0  0  0
  8 12  2  0  0  0  0
  8 18  1  0  0  0  0
  9  6  1  0  0  0  0
 10 20  1  0  0  0  0
 12  4  1  0  0  0  0
 13 19  2  0  0  0  0
 14 18  1  0  0  0  0
 14 10  1  0  0  0  0
 15 10  2  0  0  0  0
 15 13  1  0  0  0  0
 18  5  2  0  0  0  0
 19  1  1  0  0  0  0
 20 11  2  0  0  0  0
 20  1  1  0  0  0  0
 21 22  1  0  0  0  0
 22 24  1  0  0  0  0
 23 28  1  0  0  0  0
 23 27  1  0  0  0  0
 24 28  2  0  0  0  0
 25 22  2  0  0  0  0
 25 26  1  0  0  0  0
 26 23  2  0  0  0  0
M  END
>  <MODEL>
3

>  <REMARK>
 VINA RESULT:      -8.0      1.319      2.211
  Name = 
  2 active torsions:
  status: ('A' for Active; 'I' for Inactive)
    1  A    between atoms: N_1  and  C_2
    2  A    between atoms: C_2  and  C_3
                            x       y       z     vdW  Elec       q    Type
                         _______ _______ _______ _____ _____    ______ ____

>  <TORSDO>
F 2

$$$$
=
 OpenBabel11052418093D

 28 32  0  0  0  0  0  0  0  0999 V2000
  190.1420  176.8650  144.7060 N   0  0  0  0  0  0  0  0  0  0  0  0
  186.1130  177.7450  141.8540 C   0  0  0  0  0  3  0  0  0  0  0  0
  186.8640  178.1840  147.9580 C   0  0  0  0  0  1  0  0  0  0  0  0
  184.4390  178.4150  143.4850 C   0  0  0  0  0  0  0  0  0  0  0  0
  186.6830  177.8290  144.2330 C   0  0  0  0  0  0  0  0  0  0  0  0
  183.8760  178.3320  141.1310 C   0  0  0  0  0  0  0  0  0  0  0  0
  185.7560  177.9920  143.1880 C   0  0  0  0  0  0  0  0  0  0  0  0
  184.9900  178.5060  145.8390 C   0  0  0  0  0  3  0  0  0  0  0  0
  183.5080  178.5820  142.4560 C   0  0  0  0  0  3  0  0  0  0  0  0
  188.5050  177.5170  146.2690 C   0  0  0  0  0  0  0  0  0  0  0  0
  187.9540  177.4240  143.9820 N   0  0  0  0  0  0  0  0  0  0  0  0
  184.0650  178.6670  144.8070 C   0  0  0  0  0  3  0  0  0  0  0  0
  190.6920  176.9620  146.9750 C   0  0  0  0  0  3  0  0  0  0  0  0
  187.2280  177.9230  146.5660 N   0  0  0  0  0  0  0  0  0  0  0  0
  189.4280  177.3590  147.2590 N   0  0  0  0  0  0  0  0  0  0  0  0
  182.9710  178.4960  140.1360 F   0  0  0  0  0  0  0  0  0  0  0  0
  185.1750  177.9150  140.8300 C   0  0  0  0  0  3  0  0  0  0  0  0
  186.3040  178.0860  145.5670 C   0  0  0  0  0  0  0  0  0  0  0  0
  191.0350  176.7200  145.6870 N   0  0  0  0  0  0  0  0  0  0  0  0
  188.8640  177.2680  144.9830 C   0  0  0  0  0  0  0  0  0  0  0  0
  190.5690  176.6090  143.3340 C   0  0  0  0  0  2  0  0  0  0  0  0
  190.5340  175.1460  143.0440 C   0  0  0  0  0  0  0  0  0  0  0  0
  190.4790  172.4140  142.4470 C   0  0  0  0  0  0  0  0  0  0  0  0
  191.6950  174.3760  143.1800 C   0  0  0  0  0  3  0  0  0  0  0  0
  189.3490  174.5500  142.6010 C   0  0  0  0  0  3  0  0  0  0  0  0
  189.3210  173.1840  142.3050 C   0  0  0  0  0  3  0  0  0  0  0  0
  190.4440  170.7030  142.0760 Cl  0  0  0  0  0  0  0  0  0  0  0  0
  191.6670  173.0090  142.8840 C   0  0  0  0  0  3  0  0  0  0  0  0
  1 20  1  0  0  0  0
  1 19  1  0  0  0  0
  2  7  1  0  0  0  0
  4 12  1  0  0  0  0
  5 18  2  0  0  0  0
  6  9  2  0  0  0  0
  7  4  2  0  0  0  0
  7  5  1  0  0  0  0
  9  4  1  0  0  0  0
 10 14  1  0  0  0  0
 10 15  2  0  0  0  0
 11  5  1  0  0  0  0
 11 20  2  0  0  0  0
 12  8  2  0  0  0  0
 13 15  1  0  0  0  0
 14  3  1  0  0  0  0
 16  6  1  0  0  0  0
 17  6  1  0  0  0  0
 17  2  2  0  0  0  0
 18  8  1  0  0  0  0
 18 14  1  0  0  0  0
 19 13  2  0  0  0  0
 20 10  1  0  0  0  0
 21  1  1  0  0  0  0
 22 24  1  0  0  0  0
 22 21  1  0  0  0  0
 23 28  1  0  0  0  0
 25 22  2  0  0  0  0
 26 23  2  0  0  0  0
 26 25  1  0  0  0  0
 27 23  1  0  0  0  0
 28 24  2  0  0  0  0
M  END
>  <MODEL>
4

>  <REMARK>
 VINA RESULT:      -7.7      3.059      4.951
  Name = 
  2 active torsions:
  status: ('A' for Active; 'I' for Inactive)
    1  A    between atoms: N_1  and  C_2
    2  A    between atoms: C_2  and  C_3
                            x       y       z     vdW  Elec       q    Type
                         _______ _______ _______ _____ _____    ______ ____

>  <TORSDO>
F 2

$$$$
=
 OpenBabel11052418093D

 28 32  0  0  0  0  0  0  0  0999 V2000
  187.5800  176.5430  146.7560 N   0  0  0  0  0  0  0  0  0  0  0  0
  188.9620  173.9970  142.6630 C   0  0  0  0  0  3  0  0  0  0  0  0
  185.7750  179.2450  143.2210 C   0  0  0  0  0  1  0  0  0  0  0  0
  188.0560  175.3520  140.8590 C   0  0  0  0  0  0  0  0  0  0  0  0
  187.7240  176.0460  143.1710 C   0  0  0  0  0  0  0  0  0  0  0  0
  189.2820  173.3250  140.3580 C   0  0  0  0  0  0  0  0  0  0  0  0
  188.2490  175.1290  142.2430 C   0  0  0  0  0  0  0  0  0  0  0  0
  186.8330  177.3820  141.3470 C   0  0  0  0  0  3  0  0  0  0  0  0
  188.5730  174.4490  139.9260 C   0  0  0  0  0  3  0  0  0  0  0  0
  186.7100  177.8400  144.9930 C   0  0  0  0  0  0  0  0  0  0  0  0
  187.8910  175.8630  144.5060 N   0  0  0  0  0  0  0  0  0  0  0  0
  187.3500  176.4740  140.4220 C   0  0  0  0  0  3  0  0  0  0  0  0
  186.4120  178.5080  147.2410 C   0  0  0  0  0  3  0  0  0  0  0  0
  186.5150  178.0600  143.6530 N   0  0  0  0  0  0  0  0  0  0  0  0
  186.2210  178.7160  145.9160 N   0  0  0  0  0  0  0  0  0  0  0  0
  189.7830  172.4510  139.4500 F   0  0  0  0  0  0  0  0  0  0  0  0
  189.4770  173.0990  141.7230 C   0  0  0  0  0  3  0  0  0  0  0  0
  187.0120  177.1810  142.7270 C   0  0  0  0  0  0  0  0  0  0  0  0
  187.0990  177.4130  147.6460 N   0  0  0  0  0  0  0  0  0  0  0  0
  187.3940  176.7460  145.4150 C   0  0  0  0  0  0  0  0  0  0  0  0
  188.3270  175.3890  147.2460 C   0  0  0  0  0  2  0  0  0  0  0  0
  189.7910  175.5950  147.0440 C   0  0  0  0  0  0  0  0  0  0  0  0
  192.5450  175.9490  146.7110 C   0  0  0  0  0  0  0  0  0  0  0  0
  190.5200  174.7050  146.2480 C   0  0  0  0  0  3  0  0  0  0  0  0
  190.4420  176.6560  147.6810 C   0  0  0  0  0  3  0  0  0  0  0  0
  191.8180  176.8350  147.5130 C   0  0  0  0  0  3  0  0  0  0  0  0
  194.2680  176.1730  146.5010 Cl  0  0  0  0  0  0  0  0  0  0  0  0
  191.8970  174.8840  146.0790 C   0  0  0  0  0  3  0  0  0  0  0  0
  1 21  1  0  0  0  0
  1 19  1  0  0  0  0
  3 14  1  0  0  0  0
  4  7  1  0  0  0  0
  5 11  1  0  0  0  0
  6 17  1  0  0  0  0
  7  2  1  0  0  0  0
  7  5  2  0  0  0  0
  8 18  2  0  0  0  0
  9  6  2  0  0  0  0
  9  4  1  0  0  0  0
 10 20  1  0  0  0  0
 10 15  2  0  0  0  0
 11 20  2  0  0  0  0
 12  4  2  0  0  0  0
 12  8  1  0  0  0  0
 13 19  2  0  0  0  0
 14 10  1  0  0  0  0
 15 13  1  0  0  0  0
 16  6  1  0  0  0  0
 17  2  2  0  0  0  0
 18  5  1  0  0  0  0
 18 14  1  0  0  0  0
 20  1  1  0  0  0  0
 22 21  1  0  0  0  0
 22 25  1  0  0  0  0
 23 26  1  0  0  0  0
 24 22  2  0  0  0  0
 26 25  2  0  0  0  0
 27 23  1  0  0  0  0
 28 24  1  0  0  0  0
 28 23  2  0  0  0  0
M  END
>  <MODEL>
5

>  <REMARK>
 VINA RESULT:      -7.5      2.840      5.218
  Name = 
  2 active torsions:
  status: ('A' for Active; 'I' for Inactive)
    1  A    between atoms: N_1  and  C_2
    2  A    between atoms: C_2  and  C_3
                            x       y       z     vdW  Elec       q    Type
                         _______ _______ _______ _____ _____    ______ ____

>  <TORSDO>
F 2

$$$$
=
 OpenBabel11052418093D

 28 32  0  0  0  0  0  0  0  0999 V2000
  189.2840  175.1890  143.3300 N   0  0  0  0  0  0  0  0  0  0  0  0
  193.8490  174.7070  145.3480 C   0  0  0  0  0  3  0  0  0  0  0  0
  190.4850  170.7140  142.0680 C   0  0  0  0  0  1  0  0  0  0  0  0
  194.4760  172.4440  144.7190 C   0  0  0  0  0  0  0  0  0  0  0  0
  192.3090  173.3280  144.0370 C   0  0  0  0  0  0  0  0  0  0  0  0
  195.9980  173.8100  146.0150 C   0  0  0  0  0  0  0  0  0  0  0  0
  193.5360  173.5020  144.7020 C   0  0  0  0  0  0  0  0  0  0  0  0
  192.9650  171.0700  143.4210 C   0  0  0  0  0  3  0  0  0  0  0  0
  195.6990  172.6040  145.3740 C   0  0  0  0  0  3  0  0  0  0  0  0
  189.9110  172.9990  142.7320 C   0  0  0  0  0  0  0  0  0  0  0  0
  191.3860  174.3220  144.0020 N   0  0  0  0  0  0  0  0  0  0  0  0
  194.1830  171.2370  144.0800 C   0  0  0  0  0  3  0  0  0  0  0  0
  187.8200  173.8780  142.0640 C   0  0  0  0  0  3  0  0  0  0  0  0
  190.8150  171.9670  142.7480 N   0  0  0  0  0  0  0  0  0  0  0  0
  188.7170  172.8630  142.0890 N   0  0  0  0  0  0  0  0  0  0  0  0
  197.1860  173.9620  146.6490 F   0  0  0  0  0  0  0  0  0  0  0  0
  195.0760  174.8600  146.0010 C   0  0  0  0  0  3  0  0  0  0  0  0
  192.0170  172.1080  143.3910 C   0  0  0  0  0  0  0  0  0  0  0  0
  188.1220  175.0410  142.6910 N   0  0  0  0  0  0  0  0  0  0  0  0
  190.1970  174.1700  143.3570 C   0  0  0  0  0  0  0  0  0  0  0  0
  189.5650  176.4680  143.9730 C   0  0  0  0  0  2  0  0  0  0  0  0
  188.3920  176.9120  144.7820 C   0  0  0  0  0  0  0  0  0  0  0  0
  186.2260  177.7780  146.3250 C   0  0  0  0  0  0  0  0  0  0  0  0
  187.5860  177.9630  144.3300 C   0  0  0  0  0  3  0  0  0  0  0  0
  188.1190  176.3010  146.0100 C   0  0  0  0  0  3  0  0  0  0  0  0
  187.0350  176.7320  146.7810 C   0  0  0  0  0  3  0  0  0  0  0  0
  184.8690  178.3180  147.2900 Cl  0  0  0  0  0  0  0  0  0  0  0  0
  186.5010  178.3940  145.1010 C   0  0  0  0  0  3  0  0  0  0  0  0
  1 20  1  0  0  0  0
  1 21  1  0  0  0  0
  2 17  1  0  0  0  0
  3 14  1  0  0  0  0
  4  9  2  0  0  0  0
  5  7  1  0  0  0  0
  6 16  1  0  0  0  0
  7  4  1  0  0  0  0
  7  2  2  0  0  0  0
  8 12  2  0  0  0  0
  9  6  1  0  0  0  0
 10 14  1  0  0  0  0
 10 20  1  0  0  0  0
 11  5  1  0  0  0  0
 12  4  1  0  0  0  0
 13 15  1  0  0  0  0
 13 19  2  0  0  0  0
 14 18  1  0  0  0  0
 15 10  2  0  0  0  0
 17  6  2  0  0  0  0
 18  8  1  0  0  0  0
 18  5  2  0  0  0  0
 19  1  1  0  0  0  0
 20 11  2  0  0  0  0
 21 22  1  0  0  0  0
 22 25  1  0  0  0  0
 23 26  1  0  0  0  0
 23 27  1  0  0  0  0
 24 22  2  0  0  0  0
 24 28  1  0  0  0  0
 25 26  2  0  0  0  0
 28 23  2  0  0  0  0
M  END
>  <MODEL>
6

>  <REMARK>
 VINA RESULT:      -7.4      3.713      7.267
  Name = 
  2 active torsions:
  status: ('A' for Active; 'I' for Inactive)
    1  A    between atoms: N_1  and  C_2
    2  A    between atoms: C_2  and  C_3
                            x       y       z     vdW  Elec       q    Type
                         _______ _______ _______ _____ _____    ______ ____

>  <TORSDO>
F 2

$$$$
=
 OpenBabel11052418093D

 28 32  0  0  0  0  0  0  0  0999 V2000
  188.6440  174.3690  141.6100 N   0  0  0  0  0  0  0  0  0  0  0  0
  187.3760  176.7580  145.8330 C   0  0  0  0  0  3  0  0  0  0  0  0
  185.8620  177.9220  139.9700 C   0  0  0  0  0  1  0  0  0  0  0  0
  185.9640  178.5640  145.0220 C   0  0  0  0  0  0  0  0  0  0  0  0
  186.9400  176.9920  143.4350 C   0  0  0  0  0  0  0  0  0  0  0  0
  186.3960  178.3310  147.3930 C   0  0  0  0  0  0  0  0  0  0  0  0
  186.7670  177.4280  144.7610 C   0  0  0  0  0  0  0  0  0  0  0  0
  185.5220  178.8060  142.6550 C   0  0  0  0  0  3  0  0  0  0  0  0
  185.7840  179.0080  146.3340 C   0  0  0  0  0  3  0  0  0  0  0  0
  187.2740  176.1260  140.8470 C   0  0  0  0  0  0  0  0  0  0  0  0
  187.7040  175.9070  143.1510 N   0  0  0  0  0  0  0  0  0  0  0  0
  185.3490  179.2440  143.9680 C   0  0  0  0  0  3  0  0  0  0  0  0
  188.2140  174.5820  139.3230 C   0  0  0  0  0  3  0  0  0  0  0  0
  186.4980  177.2300  141.0910 N   0  0  0  0  0  0  0  0  0  0  0  0
  187.4520  175.6740  139.5740 N   0  0  0  0  0  0  0  0  0  0  0  0
  186.2180  178.7630  148.6650 F   0  0  0  0  0  0  0  0  0  0  0  0
  187.1890  177.2080  147.1440 C   0  0  0  0  0  3  0  0  0  0  0  0
  186.3160  177.6800  142.3730 C   0  0  0  0  0  0  0  0  0  0  0  0
  188.8040  173.9360  140.3580 N   0  0  0  0  0  0  0  0  0  0  0  0
  187.8740  175.4690  141.8730 C   0  0  0  0  0  0  0  0  0  0  0  0
  189.2870  173.6260  142.6890 C   0  0  0  0  0  2  0  0  0  0  0  0
  190.7540  173.8970  142.7040 C   0  0  0  0  0  0  0  0  0  0  0  0
  193.5020  174.4160  142.6780 C   0  0  0  0  0  0  0  0  0  0  0  0
  191.2260  175.1870  142.9750 C   0  0  0  0  0  3  0  0  0  0  0  0
  191.6580  172.8700  142.4120 C   0  0  0  0  0  3  0  0  0  0  0  0
  193.0320  173.1290  142.4010 C   0  0  0  0  0  3  0  0  0  0  0  0
  195.2230  174.7400  142.6650 Cl  0  0  0  0  0  0  0  0  0  0  0  0
  192.6000  175.4460  142.9650 C   0  0  0  0  0  3  0  0  0  0  0  0
  1 20  1  0  0  0  0
  1 21  1  0  0  0  0
  2 17  1  0  0  0  0
  3 14  1  0  0  0  0
  4  9  2  0  0  0  0
  5  7  1  0  0  0  0
  6 16  1  0  0  0  0
  7  4  1  0  0  0  0
  7  2  2  0  0  0  0
  8 12  2  0  0  0  0
  9  6  1  0  0  0  0
 10 14  1  0  0  0  0
 10 20  1  0  0  0  0
 11  5  1  0  0  0  0
 12  4  1  0  0  0  0
 13 15  1  0  0  0  0
 13 19  2  0  0  0  0
 14 18  1  0  0  0  0
 15 10  2  0  0  0  0
 17  6  2  0  0  0  0
 18  8  1  0  0  0  0
 18  5  2  0  0  0  0
 19  1  1  0  0  0  0
 20 11  2  0  0  0  0
 21 22  1  0  0  0  0
 22 24  1  0  0  0  0
 23 28  1  0  0  0  0
 25 22  2  0  0  0  0
 26 25  1  0  0  0  0
 26 23  2  0  0  0  0
 27 23  1  0  0  0  0
 28 24  2  0  0  0  0
M  END
>  <MODEL>
7

>  <REMARK>
 VINA RESULT:      -7.3      1.762      2.055
  Name = 
  2 active torsions:
  status: ('A' for Active; 'I' for Inactive)
    1  A    between atoms: N_1  and  C_2
    2  A    between atoms: C_2  and  C_3
                            x       y       z     vdW  Elec       q    Type
                         _______ _______ _______ _____ _____    ______ ____

>  <TORSDO>
F 2

$$$$
=
 OpenBabel11052418093D

 28 32  0  0  0  0  0  0  0  0999 V2000
  190.1520  176.7570  145.1890 N   0  0  0  0  0  0  0  0  0  0  0  0
  186.4280  177.5570  141.9260 C   0  0  0  0  0  3  0  0  0  0  0  0
  186.6250  178.3330  148.0400 C   0  0  0  0  0  1  0  0  0  0  0  0
  184.6290  178.3570  143.3540 C   0  0  0  0  0  0  0  0  0  0  0  0
  186.7790  177.7660  144.3400 C   0  0  0  0  0  0  0  0  0  0  0  0
  184.2840  178.1490  140.9660 C   0  0  0  0  0  0  0  0  0  0  0  0
  185.9570  177.8880  143.2050 C   0  0  0  0  0  0  0  0  0  0  0  0
  184.9630  178.5720  145.7410 C   0  0  0  0  0  3  0  0  0  0  0  0
  183.8020  178.4840  142.2350 C   0  0  0  0  0  3  0  0  0  0  0  0
  188.3960  177.5340  146.5520 C   0  0  0  0  0  0  0  0  0  0  0  0
  188.0560  177.3200  144.2330 N   0  0  0  0  0  0  0  0  0  0  0  0
  184.1430  178.6930  144.6180 C   0  0  0  0  0  3  0  0  0  0  0  0
  190.4930  176.9740  147.4900 C   0  0  0  0  0  3  0  0  0  0  0  0
  187.1090  177.9840  146.7050 N   0  0  0  0  0  0  0  0  0  0  0  0
  189.2190  177.4140  147.6320 N   0  0  0  0  0  0  0  0  0  0  0  0
  183.4800  178.2740  139.8820 F   0  0  0  0  0  0  0  0  0  0  0  0
  185.5940  177.6870  140.8110 C   0  0  0  0  0  3  0  0  0  0  0  0
  186.2850  178.1090  145.6170 C   0  0  0  0  0  0  0  0  0  0  0  0
  190.9460  176.6500  146.2550 N   0  0  0  0  0  0  0  0  0  0  0  0
  188.8650  177.2030  145.3210 C   0  0  0  0  0  0  0  0  0  0  0  0
  190.6970  176.4130  143.8790 C   0  0  0  0  0  2  0  0  0  0  0  0
  192.0750  175.8580  144.0200 C   0  0  0  0  0  0  0  0  0  0  0  0
  194.6540  174.8220  144.3380 C   0  0  0  0  0  0  0  0  0  0  0  0
  192.2690  174.4740  144.1000 C   0  0  0  0  0  3  0  0  0  0  0  0
  193.1710  176.7230  144.1080 C   0  0  0  0  0  3  0  0  0  0  0  0
  194.4600  176.2060  144.2650 C   0  0  0  0  0  3  0  0  0  0  0  0
  196.2680  174.1750  144.5340 Cl  0  0  0  0  0  0  0  0  0  0  0  0
  193.5590  173.9560  144.2570 C   0  0  0  0  0  3  0  0  0  0  0  0
  1 20  1  0  0  0  0
  1 19  1  0  0  0  0
  2  7  1  0  0  0  0
  4 12  1  0  0  0  0
  5 18  2  0  0  0  0
  6  9  2  0  0  0  0
  7  4  2  0  0  0  0
  7  5  1  0  0  0  0
  9  4  1  0  0  0  0
 10 14  1  0  0  0  0
 10 15  2  0  0  0  0
 11  5  1  0  0  0  0
 11 20  2  0  0  0  0
 12  8  2  0  0  0  0
 13 15  1  0  0  0  0
 14  3  1  0  0  0  0
 16  6  1  0  0  0  0
 17  6  1  0  0  0  0
 17  2  2  0  0  0  0
 18  8  1  0  0  0  0
 18 14  1  0  0  0  0
 19 13  2  0  0  0  0
 20 10  1  0  0  0  0
 21 22  1  0  0  0  0
 21  1  1  0  0  0  0
 22 24  2  0  0  0  0
 22 25  1  0  0  0  0
 23 27  1  0  0  0  0
 24 28  1  0  0  0  0
 25 26  2  0  0  0  0
 26 23  1  0  0  0  0
 28 23  2  0  0  0  0
M  END
>  <MODEL>
8

>  <REMARK>
 VINA RESULT:      -7.3      2.932      4.659
  Name = 
  2 active torsions:
  status: ('A' for Active; 'I' for Inactive)
    1  A    between atoms: N_1  and  C_2
    2  A    between atoms: C_2  and  C_3
                            x       y       z     vdW  Elec       q    Type
                         _______ _______ _______ _____ _____    ______ ____

>  <TORSDO>
F 2

$$$$
=
 OpenBabel11052418093D

 28 32  0  0  0  0  0  0  0  0999 V2000
  189.9670  175.8310  146.7020 N   0  0  0  0  0  0  0  0  0  0  0  0
  188.7980  173.7210  142.3060 C   0  0  0  0  0  3  0  0  0  0  0  0
  194.1420  176.0270  144.3390 C   0  0  0  0  0  1  0  0  0  0  0  0
  190.9030  173.8110  141.0930 C   0  0  0  0  0  0  0  0  0  0  0  0
  190.7780  174.7030  143.3580 C   0  0  0  0  0  0  0  0  0  0  0  0
  188.9430  172.8400  140.0540 C   0  0  0  0  0  0  0  0  0  0  0  0
  190.1530  174.0810  142.2620 C   0  0  0  0  0  0  0  0  0  0  0  0
  192.8690  174.7750  142.1210 C   0  0  0  0  0  3  0  0  0  0  0  0
  190.2940  173.1930  139.9970 C   0  0  0  0  0  3  0  0  0  0  0  0
  191.9960  175.9090  145.5090 C   0  0  0  0  0  0  0  0  0  0  0  0
  190.0870  174.9760  144.4940 N   0  0  0  0  0  0  0  0  0  0  0  0
  192.2530  174.1610  141.0310 C   0  0  0  0  0  3  0  0  0  0  0  0
  191.8610  176.7530  147.7130 C   0  0  0  0  0  3  0  0  0  0  0  0
  192.7290  175.6540  144.3770 N   0  0  0  0  0  0  0  0  0  0  0  0
  192.5760  176.5010  146.5900 N   0  0  0  0  0  0  0  0  0  0  0  0
  188.3560  172.2400  138.9900 F   0  0  0  0  0  0  0  0  0  0  0  0
  188.1960  173.1030  141.2050 C   0  0  0  0  0  3  0  0  0  0  0  0
  192.1440  175.0530  143.2930 C   0  0  0  0  0  0  0  0  0  0  0  0
  190.5520  176.4080  147.7530 N   0  0  0  0  0  0  0  0  0  0  0  0
  190.6810  175.5710  145.5640 C   0  0  0  0  0  0  0  0  0  0  0  0
  188.5580  175.4640  146.8060 C   0  0  0  0  0  2  0  0  0  0  0  0
  187.6950  176.5610  146.2780 C   0  0  0  0  0  0  0  0  0  0  0  0
  186.0350  178.5830  145.2890 C   0  0  0  0  0  0  0  0  0  0  0  0
  187.0440  177.4280  147.1630 C   0  0  0  0  0  3  0  0  0  0  0  0
  187.5080  176.7010  144.8990 C   0  0  0  0  0  3  0  0  0  0  0  0
  186.6800  177.7130  144.4040 C   0  0  0  0  0  3  0  0  0  0  0  0
  184.9980  179.8500  144.6700 Cl  0  0  0  0  0  0  0  0  0  0  0  0
  186.2160  178.4410  146.6680 C   0  0  0  0  0  3  0  0  0  0  0  0
  1 21  1  0  0  0  0
  1 19  1  0  0  0  0
  3 14  1  0  0  0  0
  4  7  1  0  0  0  0
  5 11  1  0  0  0  0
  6 17  1  0  0  0  0
  7  2  1  0  0  0  0
  7  5  2  0  0  0  0
  8 18  2  0  0  0  0
  9  6  2  0  0  0  0
  9  4  1  0  0  0  0
 10 20  1  0  0  0  0
 10 15  2  0  0  0  0
 11 20  2  0  0  0  0
 12  4  2  0  0  0  0
 12  8  1  0  0  0  0
 13 19  2  0  0  0  0
 14 10  1  0  0  0  0
 15 13  1  0  0  0  0
 16  6  1  0  0  0  0
 17  2  2  0  0  0  0
 18  5  1  0  0  0  0
 18 14  1  0  0  0  0
 20  1  1  0  0  0  0
 22 21  1  0  0  0  0
 22 24  1  0  0  0  0
 23 28  1  0  0  0  0
 25 22  2  0  0  0  0
 26 25  1  0  0  0  0
 26 23  2  0  0  0  0
 27 23  1  0  0  0  0
 28 24  2  0  0  0  0
M  END
>  <MODEL>
9

>  <REMARK>
 VINA RESULT:      -7.3      3.625      6.978
  Name = 
  2 active torsions:
  status: ('A' for Active; 'I' for Inactive)
    1  A    between atoms: N_1  and  C_2
    2  A    between atoms: C_2  and  C_3
                            x       y       z     vdW  Elec       q    Type
                         _______ _______ _______ _____ _____    ______ ____

>  <TORSDO>
F 2

$$$$
