=
 OpenBabel11052420353D

 34 40  0  0  1  0  0  0  0  0999 V2000
  192.4560  174.9200  145.3370 C   0  0  2  0  0  0  0  0  0  0  0  0
  192.0340  174.7630  141.7960 C   0  0  0  0  0  3  0  0  0  0  0  0
  193.9370  174.9790  143.4580 N   0  0  0  0  0  0  0  0  0  0  0  0
  191.8110  176.1380  146.0000 C   0  0  2  0  0  3  0  0  0  0  0  0
  192.0080  174.8370  146.7800 C   0  0  0  0  0  2  0  0  0  0  0  0
  193.8840  175.1830  144.9150 C   0  0  2  0  0  3  0  0  0  0  0  0
  190.9340  174.2190  141.2730 C   0  0  0  0  0  3  0  0  0  0  0  0
  190.1430  173.1040  141.8470 C   0  0  0  0  0  0  0  0  0  0  0  0
  189.9820  172.8840  143.1630 C   0  0  0  0  0  3  0  0  0  0  0  0
  192.6870  174.2680  143.0550 C   0  0  1  0  0  3  0  0  0  0  0  0
  190.6270  173.5840  144.2880 C   0  0  0  0  0  3  0  0  0  0  0  0
  191.7620  174.2780  144.2080 C   0  0  0  0  0  0  0  0  0  0  0  0
  187.3370  177.9500  145.7990 C   0  0  0  0  0  2  0  0  0  0  0  0
  190.1310  177.6190  144.9580 C   0  0  1  0  0  3  0  0  0  0  0  0
  186.9270  177.2840  142.0850 C   0  0  0  0  0  0  0  0  0  0  0  0
  186.6300  177.5430  143.4340 C   0  0  0  0  0  3  0  0  0  0  0  0
  187.6580  177.6460  144.3760 C   0  0  0  0  0  0  0  0  0  0  0  0
  190.3330  176.2990  145.6710 C   0  0  2  0  0  3  0  0  0  0  0  0
  189.2910  177.2500  142.6290 C   0  0  0  0  0  3  0  0  0  0  0  0
  188.9970  177.5020  143.9730 C   0  0  0  0  0  0  0  0  0  0  0  0
  188.2620  177.1410  141.6900 C   0  0  0  0  0  3  0  0  0  0  0  0
  189.7400  177.4650  146.4400 C   0  0  2  0  0  3  0  0  0  0  0  0
  188.2620  177.1550  146.7110 C   0  0  0  0  0  2  0  0  0  0  0  0
  185.9190  177.1820  141.1210 O   0  0  0  0  0  0  0  0  0  0  0  0
  183.7870  178.2620  140.9420 C   0  0  0  0  0  1  0  0  0  0  0  0
  185.2550  178.3170  140.5830 C   0  0  0  0  0  2  0  0  0  0  0  0
  189.2750  172.3240  140.9060 C   0  0  0  0  0  3  0  0  0  0  0  0
  189.5160  172.7680  139.4720 C   0  0  0  0  0  2  0  0  0  0  0  0
  190.1240  171.4770  139.9710 C   0  0  0  0  0  2  0  0  0  0  0  0
  194.7560  172.7830  145.4780 C   0  0  0  0  0  1  0  0  0  0  0  0
  194.8580  174.2680  145.6060 C   0  0  0  0  0  0  0  0  0  0  0  0
  195.7630  174.7520  146.2660 O   0  0  0  0  0  0  0  0  0  0  0  0
  194.0510  176.3140  142.8730 C   0  0  0  0  0  2  0  0  0  0  0  0
  195.2060  176.3830  142.0950 O   0  0  0  0  0  1  0  0  0  0  0  0
  1  4  1  0  0  0  0
  1  5  1  1  0  0  0
  3  6  1  0  0  0  0
  4  5  1  1  0  0  0
  6  1  1  0  0  0  0
  6 31  1  1  0  0  0
  7  2  2  0  0  0  0
  7  8  1  0  0  0  0
  8  9  2  0  0  0  0
  9 11  1  0  0  0  0
 10  2  1  6  0  0  0
 10  3  1  0  0  0  0
 10 12  1  0  0  0  0
 12 11  2  0  0  0  0
 12  1  1  0  0  0  0
 13 23  1  0  0  0  0
 14 20  1  6  0  0  0
 14 18  1  0  0  0  0
 14 22  1  0  0  0  0
 15 16  1  0  0  0  0
 16 17  2  0  0  0  0
 17 13  1  0  0  0  0
 18  4  1  1  0  0  0
 18 22  1  0  0  0  0
 19 20  2  0  0  0  0
 20 17  1  0  0  0  0
 21 15  2  0  0  0  0
 21 19  1  0  0  0  0
 22 23  1  6  0  0  0
 24 15  1  0  0  0  0
 26 25  1  0  0  0  0
 26 24  1  0  0  0  0
 27  8  1  0  0  0  0
 28 29  1  0  0  0  0
 28 27  1  0  0  0  0
 29 27  1  0  0  0  0
 30 31  1  0  0  0  0
 31 32  2  0  0  0  0
 33  3  1  0  0  0  0
 34 33  1  0  0  0  0
M  END
>  <MODEL>
1

>  <REMARK>
 VINA RESULT:      -7.3      0.000      0.000
  Name = 
  6 active torsions:
  status: ('A' for Active; 'I' for Inactive)
    1  A    between atoms: C_3  and  C_25
    2  A    between atoms: N_5  and  C_19
    3  A    between atoms: C_7  and  O_11
    4  A    between atoms: C_8  and  C_18
    5  A    between atoms: O_11  and  C_21
    6  A    between atoms: C_12  and  C_20
                            x       y       z     vdW  Elec       q    Type
                         _______ _______ _______ _____ _____    ______ ____

>  <TORSDO>
F 6

$$$$
=
 OpenBabel11052420353D

 34 40  0  0  1  0  0  0  0  0999 V2000
  193.7770  173.4610  144.3980 C   0  0  2  0  0  0  0  0  0  0  0  0
  192.1700  174.6570  141.4430 C   0  0  0  0  0  3  0  0  0  0  0  0
  194.4870  173.9140  142.1580 N   0  0  0  0  0  0  0  0  0  0  0  0
  193.7990  174.4580  145.5580 C   0  0  2  0  0  3  0  0  0  0  0  0
  193.8350  172.9520  145.8220 C   0  0  0  0  0  2  0  0  0  0  0  0
  194.9890  173.5910  143.5040 C   0  0  2  0  0  3  0  0  0  0  0  0
  190.8490  174.5460  141.3050 C   0  0  0  0  0  3  0  0  0  0  0  0
  189.9920  173.4650  141.8490 C   0  0  0  0  0  0  0  0  0  0  0  0
  190.2200  172.8240  143.0080 C   0  0  0  0  0  3  0  0  0  0  0  0
  193.0200  173.6350  142.1430 C   0  0  1  0  0  3  0  0  0  0  0  0
  191.3860  172.9460  143.9000 C   0  0  0  0  0  3  0  0  0  0  0  0
  192.5840  173.4020  143.5370 C   0  0  0  0  0  0  0  0  0  0  0  0
  190.3140  177.0990  147.6110 C   0  0  0  0  0  2  0  0  0  0  0  0
  192.3720  176.4740  145.6120 C   0  0  1  0  0  3  0  0  0  0  0  0
  188.3910  177.5980  144.3760 C   0  0  0  0  0  0  0  0  0  0  0  0
  188.7010  177.5210  145.7450 C   0  0  0  0  0  3  0  0  0  0  0  0
  189.9840  177.1500  146.1580 C   0  0  0  0  0  0  0  0  0  0  0  0
  192.4220  174.9940  145.9260 C   0  0  2  0  0  3  0  0  0  0  0  0
  190.6660  176.9470  143.8410 C   0  0  0  0  0  3  0  0  0  0  0  0
  190.9750  176.8630  145.2030 C   0  0  0  0  0  0  0  0  0  0  0  0
  189.3820  177.3110  143.4300 C   0  0  0  0  0  3  0  0  0  0  0  0
  192.5260  175.9900  147.0660 C   0  0  2  0  0  3  0  0  0  0  0  0
  191.2300  175.9140  147.8840 C   0  0  0  0  0  2  0  0  0  0  0  0
  187.1190  177.9720  143.9350 O   0  0  0  0  0  0  0  0  0  0  0  0
  185.4980  179.7370  143.9820 C   0  0  0  0  0  1  0  0  0  0  0  0
  186.1840  178.6420  144.7690 C   0  0  0  0  0  2  0  0  0  0  0  0
  188.6650  173.2450  141.1880 C   0  0  0  0  0  3  0  0  0  0  0  0
  188.5360  174.1190  139.9510 C   0  0  0  0  0  2  0  0  0  0  0  0
  188.8470  172.6470  139.8010 C   0  0  0  0  0  2  0  0  0  0  0  0
  197.1580  172.2580  144.0990 C   0  0  0  0  0  1  0  0  0  0  0  0
  195.8060  172.3280  143.4670 C   0  0  0  0  0  0  0  0  0  0  0  0
  195.3440  171.3360  142.9280 O   0  0  0  0  0  0  0  0  0  0  0  0
  194.8050  175.3250  141.9430 C   0  0  0  0  0  2  0  0  0  0  0  0
  195.8270  175.7070  142.8090 O   0  0  0  0  0  1  0  0  0  0  0  0
  1  4  1  0  0  0  0
  1  5  1  1  0  0  0
  3  6  1  0  0  0  0
  4  5  1  1  0  0  0
  6 31  1  6  0  0  0
  6  1  1  0  0  0  0
  7  2  2  0  0  0  0
  7  8  1  0  0  0  0
  8  9  2  0  0  0  0
  9 11  1  0  0  0  0
 10  2  1  1  0  0  0
 10  3  1  0  0  0  0
 10 12  1  0  0  0  0
 12 11  2  0  0  0  0
 12  1  1  0  0  0  0
 13 23  1  0  0  0  0
 14 20  1  1  0  0  0
 14 18  1  0  0  0  0
 14 22  1  0  0  0  0
 15 16  1  0  0  0  0
 16 17  2  0  0  0  0
 17 13  1  0  0  0  0
 18  4  1  6  0  0  0
 18 22  1  0  0  0  0
 19 20  2  0  0  0  0
 20 17  1  0  0  0  0
 21 19  1  0  0  0  0
 21 15  2  0  0  0  0
 22 23  1  1  0  0  0
 24 15  1  0  0  0  0
 24 26  1  0  0  0  0
 25 26  1  0  0  0  0
 27  8  1  0  0  0  0
 28 27  1  0  0  0  0
 29 28  1  0  0  0  0
 29 27  1  0  0  0  0
 31 30  1  0  0  0  0
 32 31  2  0  0  0  0
 33  3  1  0  0  0  0
 33 34  1  0  0  0  0
M  END
>  <MODEL>
2

>  <REMARK>
 VINA RESULT:      -7.0      1.668      2.513
  Name = 
  6 active torsions:
  status: ('A' for Active; 'I' for Inactive)
    1  A    between atoms: C_3  and  C_25
    2  A    between atoms: N_5  and  C_19
    3  A    between atoms: C_7  and  O_11
    4  A    between atoms: C_8  and  C_18
    5  A    between atoms: O_11  and  C_21
    6  A    between atoms: C_12  and  C_20
                            x       y       z     vdW  Elec       q    Type
                         _______ _______ _______ _____ _____    ______ ____

>  <TORSDO>
F 6

$$$$
=
 OpenBabel11052420353D

 34 40  0  0  1  0  0  0  0  0999 V2000
  190.6270  176.4200  144.0220 C   0  0  2  0  0  0  0  0  0  0  0  0
  189.9430  173.0530  144.9920 C   0  0  0  0  0  3  0  0  0  0  0  0
  188.8930  175.3450  145.2740 N   0  0  0  0  0  0  0  0  0  0  0  0
  191.9180  176.9990  144.6050 C   0  0  2  0  0  3  0  0  0  0  0  0
  191.3600  177.5140  143.2770 C   0  0  0  0  0  2  0  0  0  0  0  0
  189.4310  176.6670  144.9130 C   0  0  2  0  0  3  0  0  0  0  0  0
  190.4740  172.0370  144.3120 C   0  0  0  0  0  3  0  0  0  0  0  0
  190.7800  172.0090  142.8610 C   0  0  0  0  0  0  0  0  0  0  0  0
  191.1730  173.0770  142.1460 C   0  0  0  0  0  3  0  0  0  0  0  0
  189.5060  174.3410  144.3530 C   0  0  1  0  0  3  0  0  0  0  0  0
  191.2610  174.4820  142.5830 C   0  0  0  0  0  3  0  0  0  0  0  0
  190.6060  175.0030  143.6190 C   0  0  0  0  0  0  0  0  0  0  0  0
  196.4350  175.2940  144.7580 C   0  0  0  0  0  2  0  0  0  0  0  0
  193.6470  175.5660  145.6350 C   0  0  1  0  0  3  0  0  0  0  0  0
  195.3610  171.6600  144.9760 C   0  0  0  0  0  0  0  0  0  0  0  0
  196.1410  172.8100  144.7590 C   0  0  0  0  0  3  0  0  0  0  0  0
  195.5940  174.0810  144.9610 C   0  0  0  0  0  0  0  0  0  0  0  0
  193.1480  176.1450  144.3290 C   0  0  2  0  0  3  0  0  0  0  0  0
  193.4920  173.0680  145.6150 C   0  0  0  0  0  3  0  0  0  0  0  0
  194.2630  174.2130  145.3940 C   0  0  0  0  0  0  0  0  0  0  0  0
  194.0370  171.7980  145.4070 C   0  0  0  0  0  3  0  0  0  0  0  0
  194.3760  176.7540  144.9790 C   0  0  2  0  0  3  0  0  0  0  0  0
  195.5970  176.3950  144.1220 C   0  0  0  0  0  2  0  0  0  0  0  0
  195.8830  170.3770  144.7870 O   0  0  0  0  0  0  0  0  0  0  0  0
  196.6120  169.5390  146.9100 C   0  0  0  0  0  1  0  0  0  0  0  0
  197.0160  169.8980  145.4980 C   0  0  0  0  0  2  0  0  0  0  0  0
  190.8910  170.6630  142.2100 C   0  0  0  0  0  3  0  0  0  0  0  0
  191.9980  170.6680  141.1680 C   0  0  0  0  0  2  0  0  0  0  0  0
  192.2390  170.0280  142.5170 C   0  0  0  0  0  2  0  0  0  0  0  0
  188.1360  177.3860  142.7580 C   0  0  0  0  0  1  0  0  0  0  0  0
  188.3750  177.4920  144.2300 C   0  0  0  0  0  0  0  0  0  0  0  0
  187.6840  178.2450  144.8960 O   0  0  0  0  0  0  0  0  0  0  0  0
  189.2580  175.1360  146.6740 C   0  0  0  0  0  2  0  0  0  0  0  0
  189.6080  176.3560  147.2490 O   0  0  0  0  0  1  0  0  0  0  0  0
  1  5  1  6  0  0  0
  1  4  1  0  0  0  0
  1  6  1  0  0  0  0
  3 33  1  0  0  0  0
  4  5  1  6  0  0  0
  6 31  1  6  0  0  0
  6  3  1  0  0  0  0
  7  2  2  0  0  0  0
  8  7  1  0  0  0  0
  9 11  1  0  0  0  0
  9  8  2  0  0  0  0
 10  2  1  1  0  0  0
 10  3  1  0  0  0  0
 11 12  2  0  0  0  0
 12  1  1  0  0  0  0
 12 10  1  0  0  0  0
 13 17  1  0  0  0  0
 14 20  1  6  0  0  0
 15 21  1  0  0  0  0
 16 17  1  0  0  0  0
 16 15  2  0  0  0  0
 17 20  2  0  0  0  0
 18  4  1  1  0  0  0
 18 22  1  0  0  0  0
 18 14  1  0  0  0  0
 20 19  1  0  0  0  0
 21 19  2  0  0  0  0
 22 23  1  6  0  0  0
 22 14  1  0  0  0  0
 23 13  1  0  0  0  0
 24 15  1  0  0  0  0
 24 26  1  0  0  0  0
 26 25  1  0  0  0  0
 27 29  1  0  0  0  0
 27  8  1  0  0  0  0
 28 27  1  0  0  0  0
 28 29  1  0  0  0  0
 30 31  1  0  0  0  0
 31 32  2  0  0  0  0
 33 34  1  0  0  0  0
M  END
>  <MODEL>
3

>  <REMARK>
 VINA RESULT:      -6.7      2.543      7.288
  Name = 
  6 active torsions:
  status: ('A' for Active; 'I' for Inactive)
    1  A    between atoms: C_3  and  C_25
    2  A    between atoms: N_5  and  C_19
    3  A    between atoms: C_7  and  O_11
    4  A    between atoms: C_8  and  C_18
    5  A    between atoms: O_11  and  C_21
    6  A    between atoms: C_12  and  C_20
                            x       y       z     vdW  Elec       q    Type
                         _______ _______ _______ _____ _____    ______ ____

>  <TORSDO>
F 6

$$$$
=
 OpenBabel11052420353D

 34 40  0  0  1  0  0  0  0  0999 V2000
  190.4740  174.4130  144.9850 C   0  0  2  0  0  0  0  0  0  0  0  0
  193.4230  176.3950  145.3260 C   0  0  0  0  0  3  0  0  0  0  0  0
  190.9630  176.5630  145.9170 N   0  0  0  0  0  0  0  0  0  0  0  0
  190.0530  174.1440  143.5390 C   0  0  2  0  0  3  0  0  0  0  0  0
  189.6890  173.1620  144.6550 C   0  0  0  0  0  2  0  0  0  0  0  0
  189.8510  175.6720  145.5430 C   0  0  2  0  0  3  0  0  0  0  0  0
  194.6270  175.8220  145.2880 C   0  0  0  0  0  3  0  0  0  0  0  0
  194.9710  174.4610  145.7640 C   0  0  0  0  0  0  0  0  0  0  0  0
  194.1410  173.4040  145.7110 C   0  0  0  0  0  3  0  0  0  0  0  0
  192.2120  175.7450  145.9310 C   0  0  1  0  0  3  0  0  0  0  0  0
  192.7230  173.3810  145.3120 C   0  0  0  0  0  3  0  0  0  0  0  0
  191.9100  174.4360  145.3110 C   0  0  0  0  0  0  0  0  0  0  0  0
  192.5120  172.5280  139.7090 C   0  0  0  0  0  2  0  0  0  0  0  0
  191.5650  174.5390  141.6260 C   0  0  1  0  0  3  0  0  0  0  0  0
  195.7760  174.1570  140.7570 C   0  0  0  0  0  0  0  0  0  0  0  0
  194.8530  173.3060  140.1250 C   0  0  0  0  0  3  0  0  0  0  0  0
  193.4880  173.4140  140.4050 C   0  0  0  0  0  0  0  0  0  0  0  0
  191.1570  173.5370  142.6860 C   0  0  2  0  0  3  0  0  0  0  0  0
  193.9490  175.2360  141.9350 C   0  0  0  0  0  3  0  0  0  0  0  0
  193.0300  174.3850  141.3120 C   0  0  0  0  0  0  0  0  0  0  0  0
  195.3150  175.1220  141.6600 C   0  0  0  0  0  3  0  0  0  0  0  0
  190.6780  173.3340  141.2610 C   0  0  2  0  0  3  0  0  0  0  0  0
  191.4130  172.1180  140.6800 C   0  0  0  0  0  2  0  0  0  0  0  0
  197.1460  174.0750  140.4930 O   0  0  0  0  0  0  0  0  0  0  0  0
  197.9010  175.5010  138.7210 C   0  0  0  0  0  1  0  0  0  0  0  0
  197.9410  175.2170  140.2060 C   0  0  0  0  0  2  0  0  0  0  0  0
  196.4080  174.1940  146.0960 C   0  0  0  0  0  3  0  0  0  0  0  0
  196.7640  172.7480  145.7900 C   0  0  0  0  0  2  0  0  0  0  0  0
  197.1930  173.8440  144.8420 C   0  0  0  0  0  2  0  0  0  0  0  0
  187.6400  176.0400  146.8890 C   0  0  0  0  0  1  0  0  0  0  0  0
  188.9790  175.3950  146.7370 C   0  0  0  0  0  0  0  0  0  0  0  0
  189.3660  174.6100  147.5860 O   0  0  0  0  0  0  0  0  0  0  0  0
  190.9820  177.6210  144.9090 C   0  0  0  0  0  2  0  0  0  0  0  0
  189.6780  177.8960  144.5000 O   0  0  0  0  0  1  0  0  0  0  0  0
  1  5  1  1  0  0  0
  1 12  1  0  0  0  0
  1  6  1  0  0  0  0
  3 10  1  0  0  0  0
  4  5  1  1  0  0  0
  4  1  1  0  0  0  0
  6  3  1  0  0  0  0
  6 31  1  1  0  0  0
  7  2  2  0  0  0  0
  7  8  1  0  0  0  0
  8 27  1  0  0  0  0
  9  8  2  0  0  0  0
 10  2  1  6  0  0  0
 11  9  1  0  0  0  0
 12 11  2  0  0  0  0
 12 10  1  0  0  0  0
 13 17  1  0  0  0  0
 13 23  1  0  0  0  0
 14 20  1  6  0  0  0
 14 18  1  0  0  0  0
 15 21  1  0  0  0  0
 16 17  1  0  0  0  0
 16 15  2  0  0  0  0
 17 20  2  0  0  0  0
 18  4  1  1  0  0  0
 20 19  1  0  0  0  0
 21 19  2  0  0  0  0
 22 23  1  6  0  0  0
 22 14  1  0  0  0  0
 22 18  1  0  0  0  0
 24 15  1  0  0  0  0
 25 26  1  0  0  0  0
 26 24  1  0  0  0  0
 28 27  1  0  0  0  0
 29 28  1  0  0  0  0
 29 27  1  0  0  0  0
 31 30  1  0  0  0  0
 31 32  2  0  0  0  0
 33  3  1  0  0  0  0
 34 33  1  0  0  0  0
M  END
>  <MODEL>
4

>  <REMARK>
 VINA RESULT:      -6.5      3.007      7.238
  Name = 
  6 active torsions:
  status: ('A' for Active; 'I' for Inactive)
    1  A    between atoms: C_3  and  C_25
    2  A    between atoms: N_5  and  C_19
    3  A    between atoms: C_7  and  O_11
    4  A    between atoms: C_8  and  C_18
    5  A    between atoms: O_11  and  C_21
    6  A    between atoms: C_12  and  C_20
                            x       y       z     vdW  Elec       q    Type
                         _______ _______ _______ _____ _____    ______ ____

>  <TORSDO>
F 6

$$$$
=
 OpenBabel11052420353D

 34 40  0  0  1  0  0  0  0  0999 V2000
  191.6630  176.5230  145.7840 C   0  0  2  0  0  0  0  0  0  0  0  0
  188.4330  175.7780  144.4590 C   0  0  0  0  0  3  0  0  0  0  0  0
  189.5240  176.0240  146.7360 N   0  0  0  0  0  0  0  0  0  0  0  0
  192.7440  175.4980  145.4360 C   0  0  2  0  0  3  0  0  0  0  0  0
  193.1110  176.9570  145.7140 C   0  0  0  0  0  2  0  0  0  0  0  0
  190.9480  176.1910  147.0740 C   0  0  2  0  0  3  0  0  0  0  0  0
  188.1110  176.1520  143.2210 C   0  0  0  0  0  3  0  0  0  0  0  0
  188.5960  177.3590  142.5090 C   0  0  0  0  0  0  0  0  0  0  0  0
  189.8160  177.8990  142.6710 C   0  0  0  0  0  3  0  0  0  0  0  0
  189.3150  176.5860  145.3680 C   0  0  1  0  0  3  0  0  0  0  0  0
  190.8590  177.5170  143.6400 C   0  0  0  0  0  3  0  0  0  0  0  0
  190.6430  176.8480  144.7720 C   0  0  0  0  0  0  0  0  0  0  0  0
  194.0740  173.5080  141.2400 C   0  0  0  0  0  2  0  0  0  0  0  0
  192.4410  173.8070  143.6620 C   0  0  1  0  0  3  0  0  0  0  0  0
  190.5720  173.5570  139.7790 C   0  0  0  0  0  0  0  0  0  0  0  0
  191.9720  173.5050  139.8830 C   0  0  0  0  0  3  0  0  0  0  0  0
  192.5900  173.5930  141.1340 C   0  0  0  0  0  0  0  0  0  0  0  0
  192.8720  175.2300  143.9430 C   0  0  2  0  0  3  0  0  0  0  0  0
  190.4160  173.7670  142.1910 C   0  0  0  0  0  3  0  0  0  0  0  0
  191.8100  173.7230  142.2970 C   0  0  0  0  0  0  0  0  0  0  0  0
  189.8000  173.6850  140.9390 C   0  0  0  0  0  3  0  0  0  0  0  0
  193.9350  174.1810  143.6800 C   0  0  2  0  0  3  0  0  0  0  0  0
  194.5650  174.4740  142.3110 C   0  0  0  0  0  2  0  0  0  0  0  0
  189.9270  173.4660  138.5420 O   0  0  0  0  0  0  0  0  0  0  0  0
  187.9270  174.5820  137.8350 C   0  0  0  0  0  1  0  0  0  0  0  0
  188.5190  173.3190  138.4200 C   0  0  0  0  0  2  0  0  0  0  0  0
  187.7660  177.8610  141.3670 C   0  0  0  0  0  3  0  0  0  0  0  0
  186.4540  177.0960  141.2880 C   0  0  0  0  0  2  0  0  0  0  0  0
  186.4770  178.4890  141.8740 C   0  0  0  0  0  2  0  0  0  0  0  0
  190.0920  178.3440  148.2860 C   0  0  0  0  0  1  0  0  0  0  0  0
  191.1140  177.2690  148.1100 C   0  0  0  0  0  0  0  0  0  0  0  0
  192.0950  177.2500  148.8360 O   0  0  0  0  0  0  0  0  0  0  0  0
  189.2640  174.5880  146.8100 C   0  0  0  0  0  2  0  0  0  0  0  0
  188.5820  174.3010  147.9920 O   0  0  0  0  0  1  0  0  0  0  0  0
  1  5  1  1  0  0  0
  1  6  1  0  0  0  0
  3 33  1  0  0  0  0
  3  6  1  0  0  0  0
  4  5  1  6  0  0  0
  4  1  1  0  0  0  0
  6 31  1  1  0  0  0
  7  2  2  0  0  0  0
  8  9  2  0  0  0  0
  8  7  1  0  0  0  0
  9 11  1  0  0  0  0
 10  2  1  6  0  0  0
 10  3  1  0  0  0  0
 11 12  2  0  0  0  0
 12 10  1  0  0  0  0
 12  1  1  0  0  0  0
 13 23  1  0  0  0  0
 14 20  1  6  0  0  0
 14 22  1  0  0  0  0
 14 18  1  0  0  0  0
 15 16  2  0  0  0  0
 15 21  1  0  0  0  0
 16 17  1  0  0  0  0
 17 13  1  0  0  0  0
 17 20  2  0  0  0  0
 18  4  1  1  0  0  0
 19 20  1  0  0  0  0
 21 19  2  0  0  0  0
 22 23  1  6  0  0  0
 22 18  1  0  0  0  0
 24 15  1  0  0  0  0
 25 26  1  0  0  0  0
 26 24  1  0  0  0  0
 27 29  1  0  0  0  0
 27  8  1  0  0  0  0
 28 27  1  0  0  0  0
 28 29  1  0  0  0  0
 31 30  1  0  0  0  0
 31 32  2  0  0  0  0
 33 34  1  0  0  0  0
M  END
>  <MODEL>
5

>  <REMARK>
 VINA RESULT:      -6.4      2.541      5.662
  Name = 
  6 active torsions:
  status: ('A' for Active; 'I' for Inactive)
    1  A    between atoms: C_3  and  C_25
    2  A    between atoms: N_5  and  C_19
    3  A    between atoms: C_7  and  O_11
    4  A    between atoms: C_8  and  C_18
    5  A    between atoms: O_11  and  C_21
    6  A    between atoms: C_12  and  C_20
                            x       y       z     vdW  Elec       q    Type
                         _______ _______ _______ _____ _____    ______ ____

>  <TORSDO>
F 6

$$$$
=
 OpenBabel11052420353D

 34 40  0  0  1  0  0  0  0  0999 V2000
  190.2510  175.9080  146.2030 C   0  0  2  0  0  0  0  0  0  0  0  0
  192.7150  174.2690  144.2060 C   0  0  0  0  0  3  0  0  0  0  0  0
  192.6440  175.8720  146.1700 N   0  0  0  0  0  0  0  0  0  0  0  0
  189.3650  176.8920  145.4370 C   0  0  2  0  0  3  0  0  0  0  0  0
  188.8500  176.1930  146.6970 C   0  0  0  0  0  2  0  0  0  0  0  0
  191.4900  176.5660  146.7660 C   0  0  2  0  0  3  0  0  0  0  0  0
  192.4060  173.1610  143.5310 C   0  0  0  0  0  3  0  0  0  0  0  0
  191.4280  172.1240  143.9380 C   0  0  0  0  0  0  0  0  0  0  0  0
  190.3020  172.3700  144.6310 C   0  0  0  0  0  3  0  0  0  0  0  0
  192.1420  174.6080  145.5530 C   0  0  1  0  0  3  0  0  0  0  0  0
  189.8630  173.6420  145.2310 C   0  0  0  0  0  3  0  0  0  0  0  0
  190.6650  174.6610  145.5360 C   0  0  0  0  0  0  0  0  0  0  0  0
  187.0250  176.4680  141.2320 C   0  0  0  0  0  2  0  0  0  0  0  0
  189.3700  176.7940  142.9680 C   0  0  1  0  0  3  0  0  0  0  0  0
  189.3260  173.7610  139.8970 C   0  0  0  0  0  0  0  0  0  0  0  0
  188.2060  174.5920  140.0730 C   0  0  0  0  0  3  0  0  0  0  0  0
  188.2050  175.5720  141.0700 C   0  0  0  0  0  0  0  0  0  0  0  0
  188.6870  176.2810  144.2180 C   0  0  2  0  0  3  0  0  0  0  0  0
  190.4480  174.9160  141.7120 C   0  0  0  0  0  3  0  0  0  0  0  0
  189.3320  175.7390  141.8940 C   0  0  0  0  0  0  0  0  0  0  0  0
  190.4450  173.9320  140.7200 C   0  0  0  0  0  3  0  0  0  0  0  0
  188.0010  177.3550  143.3960 C   0  0  2  0  0  3  0  0  0  0  0  0
  186.7800  176.7250  142.7130 C   0  0  0  0  0  2  0  0  0  0  0  0
  189.3570  172.7770  138.9050 O   0  0  0  0  0  0  0  0  0  0  0  0
  189.9760  174.1650  137.0520 C   0  0  0  0  0  1  0  0  0  0  0  0
  189.0740  173.0540  137.5400 C   0  0  0  0  0  2  0  0  0  0  0  0
  191.5820  170.7610  143.3330 C   0  0  0  0  0  3  0  0  0  0  0  0
  190.5750  170.5610  142.2120 C   0  0  0  0  0  2  0  0  0  0  0  0
  192.0180  170.8650  141.8790 C   0  0  0  0  0  2  0  0  0  0  0  0
  191.5670  177.7080  149.1160 C   0  0  0  0  0  1  0  0  0  0  0  0
  191.5480  176.4790  148.2660 C   0  0  0  0  0  0  0  0  0  0  0  0
  191.5560  175.3820  148.8000 O   0  0  0  0  0  0  0  0  0  0  0  0
  193.2070  176.8020  145.1930 C   0  0  0  0  0  2  0  0  0  0  0  0
  194.4300  177.2820  145.6610 O   0  0  0  0  0  1  0  0  0  0  0  0
  1  5  1  1  0  0  0
  1  6  1  0  0  0  0
  3  6  1  0  0  0  0
  4  1  1  0  0  0  0
  4  5  1  1  0  0  0
  6 31  1  1  0  0  0
  7  8  1  0  0  0  0
  7  2  2  0  0  0  0
  8  9  2  0  0  0  0
  9 11  1  0  0  0  0
 10  2  1  6  0  0  0
 10  3  1  0  0  0  0
 11 12  2  0  0  0  0
 12 10  1  0  0  0  0
 12  1  1  0  0  0  0
 13 23  1  0  0  0  0
 14 20  1  6  0  0  0
 14 22  1  0  0  0  0
 14 18  1  0  0  0  0
 15 16  2  0  0  0  0
 15 21  1  0  0  0  0
 16 17  1  0  0  0  0
 17 13  1  0  0  0  0
 17 20  2  0  0  0  0
 18  4  1  1  0  0  0
 19 20  1  0  0  0  0
 21 19  2  0  0  0  0
 22 23  1  6  0  0  0
 22 18  1  0  0  0  0
 24 15  1  0  0  0  0
 25 26  1  0  0  0  0
 26 24  1  0  0  0  0
 27  8  1  0  0  0  0
 28 27  1  0  0  0  0
 29 28  1  0  0  0  0
 29 27  1  0  0  0  0
 31 32  2  0  0  0  0
 31 30  1  0  0  0  0
 33 34  1  0  0  0  0
 33  3  1  0  0  0  0
M  END
>  <MODEL>
6

>  <REMARK>
 VINA RESULT:      -6.2      2.203      4.007
  Name = 
  6 active torsions:
  status: ('A' for Active; 'I' for Inactive)
    1  A    between atoms: C_3  and  C_25
    2  A    between atoms: N_5  and  C_19
    3  A    between atoms: C_7  and  O_11
    4  A    between atoms: C_8  and  C_18
    5  A    between atoms: O_11  and  C_21
    6  A    between atoms: C_12  and  C_20
                            x       y       z     vdW  Elec       q    Type
                         _______ _______ _______ _____ _____    ______ ____

>  <TORSDO>
F 6

$$$$
=
 OpenBabel11052420353D

 34 40  0  0  1  0  0  0  0  0999 V2000
  189.5530  175.7860  145.9060 C   0  0  2  0  0  0  0  0  0  0  0  0
  189.9780  176.3920  142.4140 C   0  0  0  0  0  3  0  0  0  0  0  0
  191.4080  176.3640  144.5080 N   0  0  0  0  0  0  0  0  0  0  0  0
  188.6300  176.7780  146.6160 C   0  0  2  0  0  3  0  0  0  0  0  0
  188.8000  175.3520  147.1450 C   0  0  0  0  0  2  0  0  0  0  0  0
  190.9970  176.2340  145.9160 C   0  0  2  0  0  3  0  0  0  0  0  0
  189.1030  175.9040  141.5350 C   0  0  0  0  0  3  0  0  0  0  0  0
  188.3420  174.6370  141.6590 C   0  0  0  0  0  0  0  0  0  0  0  0
  187.9110  174.1190  142.8220 C   0  0  0  0  0  3  0  0  0  0  0  0
  190.3800  175.6760  143.6720 C   0  0  1  0  0  3  0  0  0  0  0  0
  188.1910  174.5940  144.1880 C   0  0  0  0  0  3  0  0  0  0  0  0
  189.2200  175.3650  144.5350 C   0  0  0  0  0  0  0  0  0  0  0  0
  184.1860  178.3630  145.5770 C   0  0  0  0  0  2  0  0  0  0  0  0
  187.1160  178.2990  145.3930 C   0  0  1  0  0  3  0  0  0  0  0  0
  184.6960  178.1990  141.8200 C   0  0  0  0  0  0  0  0  0  0  0  0
  184.0770  178.2520  143.0800 C   0  0  0  0  0  3  0  0  0  0  0  0
  184.8490  178.2770  144.2450 C   0  0  0  0  0  0  0  0  0  0  0  0
  187.2590  176.9050  145.9660 C   0  0  2  0  0  3  0  0  0  0  0  0
  186.8670  178.2140  142.9030 C   0  0  0  0  0  3  0  0  0  0  0  0
  186.2520  178.2600  144.1590 C   0  0  0  0  0  0  0  0  0  0  0  0
  186.0930  178.1830  141.7400 C   0  0  0  0  0  3  0  0  0  0  0  0
  186.4100  177.9200  146.7090 C   0  0  2  0  0  3  0  0  0  0  0  0
  184.9400  177.4980  146.5790 C   0  0  0  0  0  2  0  0  0  0  0  0
  183.9490  178.1790  140.6380 O   0  0  0  0  0  0  0  0  0  0  0  0
  181.6220  177.9140  141.1490 C   0  0  0  0  0  1  0  0  0  0  0  0
  182.6760  178.8010  140.5250 C   0  0  0  0  0  2  0  0  0  0  0  0
  187.8150  174.0280  140.3940 C   0  0  0  0  0  3  0  0  0  0  0  0
  188.8340  174.1660  139.2740 C   0  0  0  0  0  2  0  0  0  0  0  0
  188.6650  172.8380  139.9770 C   0  0  0  0  0  2  0  0  0  0  0  0
  192.7250  174.2720  145.8820 C   0  0  0  0  0  1  0  0  0  0  0  0
  191.8900  175.2590  146.6320 C   0  0  0  0  0  0  0  0  0  0  0  0
  191.9500  175.2900  147.8510 O   0  0  0  0  0  0  0  0  0  0  0  0
  191.4900  177.8000  144.2490 C   0  0  0  0  0  2  0  0  0  0  0  0
  192.1640  178.0170  143.0470 O   0  0  0  0  0  1  0  0  0  0  0  0
  1  6  1  0  0  0  0
  1  4  1  0  0  0  0
  1  5  1  1  0  0  0
  3  6  1  0  0  0  0
  4  5  1  1  0  0  0
  6 31  1  6  0  0  0
  7  8  1  0  0  0  0
  7  2  2  0  0  0  0
  8  9  2  0  0  0  0
  9 11  1  0  0  0  0
 10  2  1  6  0  0  0
 10  3  1  0  0  0  0
 10 12  1  0  0  0  0
 11 12  2  0  0  0  0
 12  1  1  0  0  0  0
 13 23  1  0  0  0  0
 14 20  1  6  0  0  0
 14 18  1  0  0  0  0
 14 22  1  0  0  0  0
 15 16  1  0  0  0  0
 16 17  2  0  0  0  0
 17 13  1  0  0  0  0
 18  4  1  1  0  0  0
 18 22  1  0  0  0  0
 19 20  2  0  0  0  0
 20 17  1  0  0  0  0
 21 15  2  0  0  0  0
 21 19  1  0  0  0  0
 22 23  1  6  0  0  0
 24 15  1  0  0  0  0
 26 24  1  0  0  0  0
 26 25  1  0  0  0  0
 27  8  1  0  0  0  0
 28 29  1  0  0  0  0
 28 27  1  0  0  0  0
 29 27  1  0  0  0  0
 30 31  1  0  0  0  0
 31 32  2  0  0  0  0
 33  3  1  0  0  0  0
 34 33  1  0  0  0  0
M  END
>  <MODEL>
7

>  <REMARK>
 VINA RESULT:      -6.2      2.028      2.868
  Name = 
  6 active torsions:
  status: ('A' for Active; 'I' for Inactive)
    1  A    between atoms: C_3  and  C_25
    2  A    between atoms: N_5  and  C_19
    3  A    between atoms: C_7  and  O_11
    4  A    between atoms: C_8  and  C_18
    5  A    between atoms: O_11  and  C_21
    6  A    between atoms: C_12  and  C_20
                            x       y       z     vdW  Elec       q    Type
                         _______ _______ _______ _____ _____    ______ ____

>  <TORSDO>
F 6

$$$$
=
 OpenBabel11052420353D

 34 40  0  0  1  0  0  0  0  0999 V2000
  190.6730  175.0650  145.1620 C   0  0  2  0  0  0  0  0  0  0  0  0
  193.8560  176.3790  144.2180 C   0  0  0  0  0  3  0  0  0  0  0  0
  191.5970  177.2640  144.9580 N   0  0  0  0  0  0  0  0  0  0  0  0
  189.9490  174.2980  144.0540 C   0  0  2  0  0  3  0  0  0  0  0  0
  189.6890  173.9760  145.5270 C   0  0  0  0  0  2  0  0  0  0  0  0
  190.3310  176.5380  145.1600 C   0  0  2  0  0  3  0  0  0  0  0  0
  194.9480  175.6190  144.3010 C   0  0  0  0  0  3  0  0  0  0  0  0
  195.2050  174.5490  145.2960 C   0  0  0  0  0  0  0  0  0  0  0  0
  194.2560  173.7580  145.8240 C   0  0  0  0  0  3  0  0  0  0  0  0
  192.7130  176.3000  145.1910 C   0  0  1  0  0  3  0  0  0  0  0  0
  192.7960  173.8470  145.6500 C   0  0  0  0  0  3  0  0  0  0  0  0
  192.1360  174.9400  145.2690 C   0  0  0  0  0  0  0  0  0  0  0  0
  191.4210  170.7890  141.0770 C   0  0  0  0  0  2  0  0  0  0  0  0
  191.1350  173.5560  142.0180 C   0  0  1  0  0  3  0  0  0  0  0  0
  195.0210  171.9870  140.9840 C   0  0  0  0  0  0  0  0  0  0  0  0
  193.8860  171.1640  140.8790 C   0  0  0  0  0  3  0  0  0  0  0  0
  192.6230  171.6580  141.2190 C   0  0  0  0  0  0  0  0  0  0  0  0
  190.7830  173.1810  143.4420 C   0  0  2  0  0  3  0  0  0  0  0  0
  193.6120  173.8050  141.7540 C   0  0  0  0  0  3  0  0  0  0  0  0
  192.4820  172.9860  141.6570 C   0  0  0  0  0  0  0  0  0  0  0  0
  194.8740  173.3090  141.4200 C   0  0  0  0  0  3  0  0  0  0  0  0
  190.0310  172.5190  142.3020 C   0  0  2  0  0  3  0  0  0  0  0  0
  190.4650  171.0490  142.2350 C   0  0  0  0  0  2  0  0  0  0  0  0
  196.2950  171.5220  140.6450 O   0  0  0  0  0  0  0  0  0  0  0  0
  197.0860  170.1730  142.4620 C   0  0  0  0  0  1  0  0  0  0  0  0
  196.7520  170.2200  140.9870 C   0  0  0  0  0  2  0  0  0  0  0  0
  196.6350  174.1700  145.5400 C   0  0  0  0  0  3  0  0  0  0  0  0
  196.7590  172.6690  145.7430 C   0  0  0  0  0  2  0  0  0  0  0  0
  197.1540  173.2820  144.4190 C   0  0  0  0  0  2  0  0  0  0  0  0
  188.2060  177.1950  146.5320 C   0  0  0  0  0  1  0  0  0  0  0  0
  189.6800  176.9720  146.4440 C   0  0  0  0  0  0  0  0  0  0  0  0
  190.3700  177.1230  147.4400 O   0  0  0  0  0  0  0  0  0  0  0  0
  191.5520  177.7680  143.5860 C   0  0  0  0  0  2  0  0  0  0  0  0
  190.2230  177.9170  143.1900 O   0  0  0  0  0  1  0  0  0  0  0  0
  1 12  1  0  0  0  0
  1  5  1  1  0  0  0
  2  7  2  0  0  0  0
  3  6  1  0  0  0  0
  3 10  1  0  0  0  0
  4  1  1  0  0  0  0
  4  5  1  1  0  0  0
  6  1  1  0  0  0  0
  6 31  1  1  0  0  0
  7  8  1  0  0  0  0
  8 27  1  0  0  0  0
  8  9  2  0  0  0  0
 10  2  1  6  0  0  0
 10 12  1  0  0  0  0
 11  9  1  0  0  0  0
 12 11  2  0  0  0  0
 13 17  1  0  0  0  0
 13 23  1  0  0  0  0
 14 20  1  6  0  0  0
 14 22  1  0  0  0  0
 14 18  1  0  0  0  0
 15 21  1  0  0  0  0
 16 15  2  0  0  0  0
 16 17  1  0  0  0  0
 17 20  2  0  0  0  0
 18  4  1  1  0  0  0
 20 19  1  0  0  0  0
 21 19  2  0  0  0  0
 22 23  1  6  0  0  0
 22 18  1  0  0  0  0
 24 15  1  0  0  0  0
 24 26  1  0  0  0  0
 26 25  1  0  0  0  0
 27 28  1  0  0  0  0
 29 27  1  0  0  0  0
 29 28  1  0  0  0  0
 31 30  1  0  0  0  0
 31 32  2  0  0  0  0
 33  3  1  0  0  0  0
 34 33  1  0  0  0  0
M  END
>  <MODEL>
8

>  <REMARK>
 VINA RESULT:      -6.0      2.959      7.268
  Name = 
  6 active torsions:
  status: ('A' for Active; 'I' for Inactive)
    1  A    between atoms: C_3  and  C_25
    2  A    between atoms: N_5  and  C_19
    3  A    between atoms: C_7  and  O_11
    4  A    between atoms: C_8  and  C_18
    5  A    between atoms: O_11  and  C_21
    6  A    between atoms: C_12  and  C_20
                            x       y       z     vdW  Elec       q    Type
                         _______ _______ _______ _____ _____    ______ ____

>  <TORSDO>
F 6

$$$$
=
 OpenBabel11052420353D

 34 40  0  0  1  0  0  0  0  0999 V2000
  188.1060  175.3250  142.7530 C   0  0  2  0  0  0  0  0  0  0  0  0
  190.5950  177.3270  144.3470 C   0  0  0  0  0  3  0  0  0  0  0  0
  188.4010  177.6720  143.1220 N   0  0  0  0  0  0  0  0  0  0  0  0
  188.6020  174.5470  141.5330 C   0  0  2  0  0  3  0  0  0  0  0  0
  187.4240  174.0320  142.3620 C   0  0  0  0  0  2  0  0  0  0  0  0
  187.5800  176.6950  142.3870 C   0  0  2  0  0  3  0  0  0  0  0  0
  191.4030  176.7920  145.2630 C   0  0  0  0  0  3  0  0  0  0  0  0
  191.0660  175.6990  146.2060 C   0  0  0  0  0  0  0  0  0  0  0  0
  190.2260  174.6870  145.9290 C   0  0  0  0  0  3  0  0  0  0  0  0
  189.1570  176.9270  144.1730 C   0  0  1  0  0  3  0  0  0  0  0  0
  189.3840  174.5050  144.7330 C   0  0  0  0  0  3  0  0  0  0  0  0
  189.0060  175.4800  143.9080 C   0  0  0  0  0  0  0  0  0  0  0  0
  192.4370  171.6840  140.8760 C   0  0  0  0  0  2  0  0  0  0  0  0
  191.0070  174.2410  141.0550 C   0  0  1  0  0  3  0  0  0  0  0  0
  194.6480  173.6100  143.2850 C   0  0  0  0  0  0  0  0  0  0  0  0
  194.1380  172.5800  142.4760 C   0  0  0  0  0  3  0  0  0  0  0  0
  192.9550  172.7690  141.7550 C   0  0  0  0  0  0  0  0  0  0  0  0
  189.8240  173.6840  141.8170 C   0  0  2  0  0  3  0  0  0  0  0  0
  192.7880  175.0230  142.6300 C   0  0  0  0  0  3  0  0  0  0  0  0
  192.2760  173.9980  141.8280 C   0  0  0  0  0  0  0  0  0  0  0  0
  193.9670  174.8310  143.3550 C   0  0  0  0  0  3  0  0  0  0  0  0
  190.2820  172.9770  140.5550 C   0  0  2  0  0  3  0  0  0  0  0  0
  190.9170  171.6400  140.9610 C   0  0  0  0  0  2  0  0  0  0  0  0
  195.8310  173.4500  144.0130 O   0  0  0  0  0  0  0  0  0  0  0  0
  196.8130  172.9360  146.1380 C   0  0  0  0  0  1  0  0  0  0  0  0
  196.0100  172.4130  144.9670 C   0  0  0  0  0  2  0  0  0  0  0  0
  191.8970  175.5850  147.4490 C   0  0  0  0  0  3  0  0  0  0  0  0
  192.8240  176.7840  147.5790 C   0  0  0  0  0  2  0  0  0  0  0  0
  191.5690  176.7100  148.4190 C   0  0  0  0  0  2  0  0  0  0  0  0
  185.1670  177.5190  141.8080 C   0  0  0  0  0  1  0  0  0  0  0  0
  186.1280  176.8600  142.7440 C   0  0  0  0  0  0  0  0  0  0  0  0
  185.7240  176.4270  143.8100 O   0  0  0  0  0  0  0  0  0  0  0  0
  189.2690  178.2940  142.1240 C   0  0  0  0  0  2  0  0  0  0  0  0
  188.5190  178.6160  140.9930 O   0  0  0  0  0  1  0  0  0  0  0  0
  1  5  1  1  0  0  0
  1 12  1  0  0  0  0
  2  7  2  0  0  0  0
  3 10  1  0  0  0  0
  4  5  1  1  0  0  0
  4  1  1  0  0  0  0
  6 31  1  1  0  0  0
  6  1  1  0  0  0  0
  6  3  1  0  0  0  0
  7  8  1  0  0  0  0
  8 27  1  0  0  0  0
  9  8  2  0  0  0  0
 10  2  1  6  0  0  0
 11  9  1  0  0  0  0
 12 10  1  0  0  0  0
 12 11  2  0  0  0  0
 13 23  1  0  0  0  0
 13 17  1  0  0  0  0
 14 18  1  0  0  0  0
 14 20  1  1  0  0  0
 15 21  1  0  0  0  0
 15 24  1  0  0  0  0
 16 15  2  0  0  0  0
 17 20  2  0  0  0  0
 17 16  1  0  0  0  0
 18  4  1  6  0  0  0
 19 21  2  0  0  0  0
 20 19  1  0  0  0  0
 22 23  1  1  0  0  0
 22 14  1  0  0  0  0
 22 18  1  0  0  0  0
 24 26  1  0  0  0  0
 26 25  1  0  0  0  0
 27 28  1  0  0  0  0
 27 29  1  0  0  0  0
 28 29  1  0  0  0  0
 30 31  1  0  0  0  0
 31 32  2  0  0  0  0
 33  3  1  0  0  0  0
 34 33  1  0  0  0  0
M  END
>  <MODEL>
9

>  <REMARK>
 VINA RESULT:      -6.0      2.041      7.737
  Name = 
  6 active torsions:
  status: ('A' for Active; 'I' for Inactive)
    1  A    between atoms: C_3  and  C_25
    2  A    between atoms: N_5  and  C_19
    3  A    between atoms: C_7  and  O_11
    4  A    between atoms: C_8  and  C_18
    5  A    between atoms: O_11  and  C_21
    6  A    between atoms: C_12  and  C_20
                            x       y       z     vdW  Elec       q    Type
                         _______ _______ _______ _____ _____    ______ ____

>  <TORSDO>
F 6

$$$$
