=
 OpenBabel11052418183D

 27 30  0  0  1  0  0  0  0  0999 V2000
  187.4580  177.0080  142.7770 C   0  0  0  0  0  3  0  0  0  0  0  0
  188.8470  176.8430  144.8410 C   0  0  0  0  0  0  0  0  0  0  0  0
  189.7690  175.1080  143.3440 C   0  0  0  0  0  3  0  0  0  0  0  0
  192.9480  176.4120  146.6980 S   0  0  0  0  0  0  0  0  0  0  0  0
  195.0740  175.9470  144.9200 C   0  0  0  0  0  1  0  0  0  0  0  0
  189.0080  176.9920  146.3170 C   0  0  0  0  0  3  0  0  0  0  0  0
  192.6110  176.1500  144.2160 C   0  0  0  0  0  0  0  0  0  0  0  0
  192.8630  175.9650  142.7570 C   0  0  0  0  0  1  0  0  0  0  0  0
  191.3360  176.3630  144.7680 C   0  0  0  0  0  0  0  0  0  0  0  0
  187.6610  177.1280  144.2450 C   0  0  0  0  0  0  0  0  0  0  0  0
  193.6200  176.1430  145.1770 C   0  0  0  0  0  0  0  0  0  0  0  0
  191.3680  176.5320  146.1410 C   0  0  0  0  0  0  0  0  0  0  0  0
  187.9830  176.0910  141.9490 C   0  0  0  0  0  0  0  0  0  0  0  0
  190.0420  176.4230  143.9950 C   0  0  2  0  0  3  0  0  0  0  0  0
  190.1810  176.8410  146.9320 C   0  0  0  0  0  3  0  0  0  0  0  0
  188.8300  174.9600  142.4080 C   0  0  0  0  0  0  0  0  0  0  0  0
  184.2760  178.6120  146.3560 N   0  0  0  0  0  0  0  0  0  0  0  0
  186.4970  177.6460  145.0090 C   0  0  0  0  0  0  0  0  0  0  0  0
  185.7660  176.8120  145.8670 C   0  0  0  0  0  3  0  0  0  0  0  0
  184.6530  177.3190  146.5410 C   0  0  0  0  0  3  0  0  0  0  0  0
  184.9560  179.4380  145.5180 C   0  0  0  0  0  3  0  0  0  0  0  0
  186.0740  178.9680  144.8270 C   0  0  0  0  0  3  0  0  0  0  0  0
  187.5580  176.1490  140.5190 C   0  0  0  0  0  2  0  0  0  0  0  0
  187.0160  177.4030  140.2340 O   0  0  0  0  0  1  0  0  0  0  0  0
  188.7020  173.6220  141.7560 C   0  0  0  0  0  2  0  0  0  0  0  0
  189.0310  172.5170  142.7440 C   0  0  0  0  0  2  0  0  0  0  0  0
  189.8200  171.5540  142.1180 O   0  0  0  0  0  1  0  0  0  0  0  0
  1 10  1  0  0  0  0
  2  6  1  0  0  0  0
  5 11  1  0  0  0  0
  6 15  2  0  0  0  0
  7  9  1  0  0  0  0
  7 11  2  0  0  0  0
  8  7  1  0  0  0  0
  9 12  2  0  0  0  0
 10  2  2  0  0  0  0
 10 18  1  0  0  0  0
 11  4  1  0  0  0  0
 12  4  1  0  0  0  0
 12 15  1  0  0  0  0
 13 16  1  0  0  0  0
 13  1  2  0  0  0  0
 14  3  1  1  0  0  0
 14  9  1  0  0  0  0
 14  2  1  0  0  0  0
 16  3  2  0  0  0  0
 17 20  1  0  0  0  0
 18 19  1  0  0  0  0
 19 20  2  0  0  0  0
 21 17  2  0  0  0  0
 22 18  2  0  0  0  0
 22 21  1  0  0  0  0
 23 13  1  0  0  0  0
 24 23  1  0  0  0  0
 25 16  1  0  0  0  0
 25 26  1  0  0  0  0
 27 26  1  0  0  0  0
M  END
>  <MODEL>
1

>  <REMARK>
 VINA RESULT:      -7.5      0.000      0.000
  Name = 
  4 active torsions:
  status: ('A' for Active; 'I' for Inactive)
    1  A    between atoms: C_9  and  C_15
    2  A    between atoms: C_10  and  C_20
    3  A    between atoms: C_18  and  C_22
    4  A    between atoms: C_20  and  C_26
                            x       y       z     vdW  Elec       q    Type
                         _______ _______ _______ _____ _____    ______ ____

>  <TORSDO>
F 4

$$$$
=
 OpenBabel11052418183D

 27 30  0  0  1  0  0  0  0  0999 V2000
  188.8390  176.5470  146.4140 C   0  0  0  0  0  3  0  0  0  0  0  0
  188.1450  175.8230  144.1310 C   0  0  0  0  0  0  0  0  0  0  0  0
  190.6120  175.7070  144.0860 C   0  0  0  0  0  3  0  0  0  0  0  0
  188.6540  172.9390  140.6850 S   0  0  0  0  0  0  0  0  0  0  0  0
  190.7720  171.1050  140.9030 C   0  0  0  0  0  1  0  0  0  0  0  0
  187.1860  175.8620  142.9890 C   0  0  0  0  0  3  0  0  0  0  0  0
  190.2540  172.9360  142.6300 C   0  0  0  0  0  0  0  0  0  0  0  0
  191.3640  172.5750  143.5600 C   0  0  0  0  0  1  0  0  0  0  0  0
  189.3470  173.9830  142.8670 C   0  0  1  0  0  3  0  0  0  0  0  0
  187.9190  176.5640  145.2470 C   0  0  0  0  0  0  0  0  0  0  0  0
  189.9990  172.2600  141.4390 C   0  0  0  0  0  0  0  0  0  0  0  0
  188.3940  174.1010  141.8690 C   0  0  0  0  0  0  0  0  0  0  0  0
  190.1770  176.4480  146.4020 C   0  0  0  0  0  0  0  0  0  0  0  0
  189.3550  174.9020  144.0630 C   0  0  0  0  0  0  0  0  0  0  0  0
  187.2990  175.0650  141.9260 C   0  0  0  0  0  3  0  0  0  0  0  0
  190.9860  176.4100  145.1550 C   0  0  0  0  0  0  0  0  0  0  0  0
  184.4470  178.9650  145.7990 N   0  0  0  0  0  0  0  0  0  0  0  0
  186.6980  177.3950  145.4090 C   0  0  0  0  0  0  0  0  0  0  0  0
  186.5940  178.6540  144.8010 C   0  0  0  0  0  3  0  0  0  0  0  0
  185.4490  179.4270  145.0060 C   0  0  0  0  0  3  0  0  0  0  0  0
  184.5270  177.7550  146.4130 C   0  0  0  0  0  3  0  0  0  0  0  0
  185.6560  176.9520  146.2330 C   0  0  0  0  0  3  0  0  0  0  0  0
  190.8740  176.5300  147.7200 C   0  0  0  0  0  2  0  0  0  0  0  0
  191.3240  175.2650  148.0990 O   0  0  0  0  0  1  0  0  0  0  0  0
  192.3070  177.1060  145.1040 C   0  0  0  0  0  2  0  0  0  0  0  0
  193.4400  176.0960  145.1210 C   0  0  0  0  0  2  0  0  0  0  0  0
  194.1450  176.2090  146.3170 O   0  0  0  0  0  1  0  0  0  0  0  0
  2 10  1  0  0  0  0
  3 16  1  0  0  0  0
  4 11  1  0  0  0  0
  4 12  1  0  0  0  0
  5 11  1  0  0  0  0
  6  2  2  0  0  0  0
  7  9  1  0  0  0  0
  7  8  1  0  0  0  0
  9 12  1  1  0  0  0
  9 14  1  0  0  0  0
 10 18  1  0  0  0  0
 10  1  2  0  0  0  0
 11  7  2  0  0  0  0
 12 15  2  0  0  0  0
 13  1  1  0  0  0  0
 13 23  1  0  0  0  0
 14  3  2  0  0  0  0
 14  2  1  0  0  0  0
 15  6  1  0  0  0  0
 16 13  2  0  0  0  0
 17 21  1  0  0  0  0
 18 22  1  0  0  0  0
 19 20  1  0  0  0  0
 19 18  2  0  0  0  0
 20 17  2  0  0  0  0
 22 21  2  0  0  0  0
 23 24  1  0  0  0  0
 25 26  1  0  0  0  0
 25 16  1  0  0  0  0
 26 27  1  0  0  0  0
M  END
>  <MODEL>
2

>  <REMARK>
 VINA RESULT:      -7.4      2.926      4.959
  Name = 
  4 active torsions:
  status: ('A' for Active; 'I' for Inactive)
    1  A    between atoms: C_9  and  C_15
    2  A    between atoms: C_10  and  C_20
    3  A    between atoms: C_18  and  C_22
    4  A    between atoms: C_20  and  C_26
                            x       y       z     vdW  Elec       q    Type
                         _______ _______ _______ _____ _____    ______ ____

>  <TORSDO>
F 4

$$$$
=
 OpenBabel11052418183D

 27 30  0  0  1  0  0  0  0  0999 V2000
  187.8370  175.8550  142.9790 C   0  0  0  0  0  3  0  0  0  0  0  0
  189.1980  176.3250  145.0150 C   0  0  0  0  0  0  0  0  0  0  0  0
  190.0710  174.1710  144.1800 C   0  0  0  0  0  3  0  0  0  0  0  0
  193.2600  176.3920  147.0010 S   0  0  0  0  0  0  0  0  0  0  0  0
  195.3860  175.3090  145.5170 C   0  0  0  0  0  1  0  0  0  0  0  0
  189.3480  176.9390  146.3660 C   0  0  0  0  0  3  0  0  0  0  0  0
  192.9400  175.3500  144.7310 C   0  0  0  0  0  0  0  0  0  0  0  0
  193.2010  174.6940  143.4160 C   0  0  0  0  0  1  0  0  0  0  0  0
  191.6680  175.7700  145.1550 C   0  0  0  0  0  0  0  0  0  0  0  0
  188.0290  176.4390  144.3320 C   0  0  0  0  0  0  0  0  0  0  0  0
  193.9380  175.6230  145.6640 C   0  0  0  0  0  0  0  0  0  0  0  0
  191.6920  176.3740  146.4010 C   0  0  0  0  0  0  0  0  0  0  0  0
  188.3370  174.7040  142.5040 C   0  0  0  0  0  0  0  0  0  0  0  0
  190.3850  175.6170  144.3770 C   0  0  2  0  0  3  0  0  0  0  0  0
  190.5080  176.9600  147.0230 C   0  0  0  0  0  3  0  0  0  0  0  0
  189.1380  173.7570  143.3230 C   0  0  0  0  0  0  0  0  0  0  0  0
  184.6840  178.6450  145.7680 N   0  0  0  0  0  0  0  0  0  0  0  0
  186.8770  177.2120  144.8620 C   0  0  0  0  0  0  0  0  0  0  0  0
  185.9870  176.6440  145.7850 C   0  0  0  0  0  3  0  0  0  0  0  0
  184.8920  177.3850  146.2340 C   0  0  0  0  0  3  0  0  0  0  0  0
  185.5210  179.2150  144.8610 C   0  0  0  0  0  3  0  0  0  0  0  0
  186.6280  178.5070  144.3890 C   0  0  0  0  0  3  0  0  0  0  0  0
  187.9300  174.3080  141.1230 C   0  0  0  0  0  2  0  0  0  0  0  0
  189.0290  174.3730  140.2660 O   0  0  0  0  0  1  0  0  0  0  0  0
  188.9680  172.2840  143.1360 C   0  0  0  0  0  2  0  0  0  0  0  0
  190.2990  171.6340  142.8070 C   0  0  0  0  0  2  0  0  0  0  0  0
  190.5150  171.6880  141.4320 O   0  0  0  0  0  1  0  0  0  0  0  0
  1 10  1  0  0  0  0
  2  6  1  0  0  0  0
  5 11  1  0  0  0  0
  6 15  2  0  0  0  0
  7  9  1  0  0  0  0
  7 11  2  0  0  0  0
  8  7  1  0  0  0  0
  9 12  2  0  0  0  0
 10 18  1  0  0  0  0
 10  2  2  0  0  0  0
 11  4  1  0  0  0  0
 12  4  1  0  0  0  0
 12 15  1  0  0  0  0
 13  1  2  0  0  0  0
 13 16  1  0  0  0  0
 14  3  1  1  0  0  0
 14  2  1  0  0  0  0
 14  9  1  0  0  0  0
 16  3  2  0  0  0  0
 17 20  1  0  0  0  0
 18 19  1  0  0  0  0
 19 20  2  0  0  0  0
 21 17  2  0  0  0  0
 22 21  1  0  0  0  0
 22 18  2  0  0  0  0
 23 13  1  0  0  0  0
 24 23  1  0  0  0  0
 25 16  1  0  0  0  0
 26 25  1  0  0  0  0
 27 26  1  0  0  0  0
M  END
>  <MODEL>
3

>  <REMARK>
 VINA RESULT:      -7.1      1.131      1.257
  Name = 
  4 active torsions:
  status: ('A' for Active; 'I' for Inactive)
    1  A    between atoms: C_9  and  C_15
    2  A    between atoms: C_10  and  C_20
    3  A    between atoms: C_18  and  C_22
    4  A    between atoms: C_20  and  C_26
                            x       y       z     vdW  Elec       q    Type
                         _______ _______ _______ _____ _____    ______ ____

>  <TORSDO>
F 4

$$$$
=
 OpenBabel11052418183D

 27 30  0  0  1  0  0  0  0  0999 V2000
  190.0740  177.4820  146.3280 C   0  0  0  0  0  3  0  0  0  0  0  0
  189.5160  176.5620  144.0780 C   0  0  0  0  0  0  0  0  0  0  0  0
  187.3210  176.9330  145.1490 C   0  0  0  0  0  3  0  0  0  0  0  0
  186.9440  176.7670  140.3640 S   0  0  0  0  0  0  0  0  0  0  0  0
  184.8120  178.5970  140.4290 C   0  0  0  0  0  1  0  0  0  0  0  0
  189.8540  175.7130  142.8990 C   0  0  0  0  0  3  0  0  0  0  0  0
  186.4100  178.1610  142.3930 C   0  0  0  0  0  0  0  0  0  0  0  0
  185.7790  179.1510  143.3150 C   0  0  0  0  0  1  0  0  0  0  0  0
  187.5240  177.3740  142.7360 C   0  0  1  0  0  3  0  0  0  0  0  0
  190.3620  176.6390  145.1380 C   0  0  0  0  0  0  0  0  0  0  0  0
  185.9630  177.9270  141.0950 C   0  0  0  0  0  0  0  0  0  0  0  0
  187.9370  176.5520  141.7010 C   0  0  0  0  0  0  0  0  0  0  0  0
  188.8810  177.7190  146.8950 C   0  0  0  0  0  0  0  0  0  0  0  0
  188.2380  177.3910  144.0640 C   0  0  0  0  0  0  0  0  0  0  0  0
  189.1170  175.6980  141.7880 C   0  0  0  0  0  3  0  0  0  0  0  0
  187.6150  177.0870  146.4400 C   0  0  0  0  0  0  0  0  0  0  0  0
  194.1420  174.6850  145.2560 N   0  0  0  0  0  0  0  0  0  0  0  0
  191.6710  175.9370  145.1560 C   0  0  0  0  0  0  0  0  0  0  0  0
  191.8020  174.6650  145.7310 C   0  0  0  0  0  3  0  0  0  0  0  0
  193.0550  174.0490  145.7670 C   0  0  0  0  0  3  0  0  0  0  0  0
  194.0470  175.9250  144.7060 C   0  0  0  0  0  3  0  0  0  0  0  0
  192.8120  176.5740  144.6510 C   0  0  0  0  0  3  0  0  0  0  0  0
  188.8750  178.5500  148.1360 C   0  0  0  0  0  2  0  0  0  0  0  0
  190.1690  178.6470  148.6490 O   0  0  0  0  0  1  0  0  0  0  0  0
  186.5860  176.6770  147.4420 C   0  0  0  0  0  2  0  0  0  0  0  0
  185.2580  177.3500  147.1440 C   0  0  0  0  0  2  0  0  0  0  0  0
  185.3210  178.6900  147.5220 O   0  0  0  0  0  1  0  0  0  0  0  0
  1 13  1  0  0  0  0
  2 10  1  0  0  0  0
  3 16  1  0  0  0  0
  4 11  1  0  0  0  0
  4 12  1  0  0  0  0
  5 11  1  0  0  0  0
  6  2  2  0  0  0  0
  7  9  1  0  0  0  0
  7  8  1  0  0  0  0
  9 12  1  6  0  0  0
  9 14  1  0  0  0  0
 10 18  1  0  0  0  0
 10  1  2  0  0  0  0
 11  7  2  0  0  0  0
 12 15  2  0  0  0  0
 13 23  1  0  0  0  0
 14  2  1  0  0  0  0
 14  3  2  0  0  0  0
 15  6  1  0  0  0  0
 16 13  2  0  0  0  0
 16 25  1  0  0  0  0
 17 20  1  0  0  0  0
 18 19  1  0  0  0  0
 19 20  2  0  0  0  0
 21 17  2  0  0  0  0
 22 21  1  0  0  0  0
 22 18  2  0  0  0  0
 23 24  1  0  0  0  0
 26 25  1  0  0  0  0
 26 27  1  0  0  0  0
M  END
>  <MODEL>
4

>  <REMARK>
 VINA RESULT:      -6.8      3.769      7.067
  Name = 
  4 active torsions:
  status: ('A' for Active; 'I' for Inactive)
    1  A    between atoms: C_9  and  C_15
    2  A    between atoms: C_10  and  C_20
    3  A    between atoms: C_18  and  C_22
    4  A    between atoms: C_20  and  C_26
                            x       y       z     vdW  Elec       q    Type
                         _______ _______ _______ _____ _____    ______ ____

>  <TORSDO>
F 4

$$$$
=
 OpenBabel11052418183D

 27 30  0  0  1  0  0  0  0  0999 V2000
  189.9410  174.9670  142.9750 C   0  0  0  0  0  3  0  0  0  0  0  0
  189.7450  176.3550  145.0380 C   0  0  0  0  0  0  0  0  0  0  0  0
  188.0950  177.3340  143.4820 C   0  0  0  0  0  3  0  0  0  0  0  0
  187.0780  178.4250  148.0470 S   0  0  0  0  0  0  0  0  0  0  0  0
  184.3260  178.4240  147.4750 C   0  0  0  0  0  1  0  0  0  0  0  0
  190.3430  176.9500  146.2670 C   0  0  0  0  0  3  0  0  0  0  0  0
  186.1270  177.4210  145.9420 C   0  0  0  0  0  0  0  0  0  0  0  0
  185.1760  176.9490  144.8930 C   0  0  0  0  0  1  0  0  0  0  0  0
  187.5190  177.2370  145.8730 C   0  0  0  0  0  0  0  0  0  0  0  0
  190.4970  175.5910  144.2040 C   0  0  0  0  0  0  0  0  0  0  0  0
  185.7260  178.0810  147.1010 C   0  0  0  0  0  0  0  0  0  0  0  0
  188.1800  177.7410  146.9800 C   0  0  0  0  0  0  0  0  0  0  0  0
  189.0180  175.4750  142.1440 C   0  0  0  0  0  0  0  0  0  0  0  0
  188.2640  176.5630  144.7480 C   0  0  2  0  0  3  0  0  0  0  0  0
  189.6200  177.6050  147.1760 C   0  0  0  0  0  3  0  0  0  0  0  0
  188.4370  176.8340  142.2940 C   0  0  0  0  0  0  0  0  0  0  0  0
  194.5690  174.7350  145.1000 N   0  0  0  0  0  0  0  0  0  0  0  0
  191.9170  175.2670  144.4970 C   0  0  0  0  0  0  0  0  0  0  0  0
  192.2580  174.1760  145.3090 C   0  0  0  0  0  3  0  0  0  0  0  0
  193.6000  173.9220  145.5970 C   0  0  0  0  0  3  0  0  0  0  0  0
  194.2680  175.8090  144.3230 C   0  0  0  0  0  3  0  0  0  0  0  0
  192.9370  176.0960  144.0120 C   0  0  0  0  0  3  0  0  0  0  0  0
  188.6840  174.6700  140.9310 C   0  0  0  0  0  2  0  0  0  0  0  0
  188.0580  173.4810  141.3080 O   0  0  0  0  0  1  0  0  0  0  0  0
  188.1400  177.6550  141.0820 C   0  0  0  0  0  2  0  0  0  0  0  0
  186.6410  177.7620  140.8690 C   0  0  0  0  0  2  0  0  0  0  0  0
  186.3390  177.4810  139.5370 O   0  0  0  0  0  1  0  0  0  0  0  0
  1 10  1  0  0  0  0
  2  6  1  0  0  0  0
  6 15  2  0  0  0  0
  7 11  2  0  0  0  0
  8  7  1  0  0  0  0
  9  7  1  0  0  0  0
  9 12  2  0  0  0  0
 10 18  1  0  0  0  0
 10  2  2  0  0  0  0
 11  5  1  0  0  0  0
 11  4  1  0  0  0  0
 12 15  1  0  0  0  0
 12  4  1  0  0  0  0
 13 16  1  0  0  0  0
 13  1  2  0  0  0  0
 14  3  1  6  0  0  0
 14  2  1  0  0  0  0
 14  9  1  0  0  0  0
 16  3  2  0  0  0  0
 17 20  1  0  0  0  0
 18 19  1  0  0  0  0
 19 20  2  0  0  0  0
 21 17  2  0  0  0  0
 22 21  1  0  0  0  0
 22 18  2  0  0  0  0
 23 24  1  0  0  0  0
 23 13  1  0  0  0  0
 25 16  1  0  0  0  0
 26 25  1  0  0  0  0
 27 26  1  0  0  0  0
M  END
>  <MODEL>
5

>  <REMARK>
 VINA RESULT:      -6.5      2.779      6.103
  Name = 
  4 active torsions:
  status: ('A' for Active; 'I' for Inactive)
    1  A    between atoms: C_9  and  C_15
    2  A    between atoms: C_10  and  C_20
    3  A    between atoms: C_18  and  C_22
    4  A    between atoms: C_20  and  C_26
                            x       y       z     vdW  Elec       q    Type
                         _______ _______ _______ _____ _____    ______ ____

>  <TORSDO>
F 4

$$$$
=
 OpenBabel11052418183D

 27 30  0  0  1  0  0  0  0  0999 V2000
  188.9960  176.6240  145.9860 C   0  0  0  0  0  3  0  0  0  0  0  0
  188.5490  175.5110  143.8000 C   0  0  0  0  0  0  0  0  0  0  0  0
  190.9890  175.2930  144.1090 C   0  0  0  0  0  3  0  0  0  0  0  0
  189.3010  172.0120  141.0360 S   0  0  0  0  0  0  0  0  0  0  0  0
  191.2550  170.1710  141.8660 C   0  0  0  0  0  1  0  0  0  0  0  0
  187.7440  175.3710  142.5520 C   0  0  0  0  0  3  0  0  0  0  0  0
  190.6420  172.3130  143.1460 C   0  0  0  0  0  0  0  0  0  0  0  0
  191.6020  172.0900  144.2670 C   0  0  0  0  0  1  0  0  0  0  0  0
  189.7800  173.4200  143.0640 C   0  0  1  0  0  3  0  0  0  0  0  0
  188.2320  176.4560  144.7220 C   0  0  0  0  0  0  0  0  0  0  0  0
  190.4960  171.4350  142.0740 C   0  0  0  0  0  0  0  0  0  0  0  0
  188.9690  173.3860  141.9430 C   0  0  0  0  0  0  0  0  0  0  0  0
  190.3160  176.4720  146.1720 C   0  0  0  0  0  0  0  0  0  0  0  0
  189.6970  174.5470  144.0640 C   0  0  0  0  0  0  0  0  0  0  0  0
  187.9390  174.3850  141.6760 C   0  0  0  0  0  3  0  0  0  0  0  0
  191.2710  176.1690  145.0740 C   0  0  0  0  0  0  0  0  0  0  0  0
  184.8400  178.9730  144.1940 N   0  0  0  0  0  0  0  0  0  0  0  0
  187.0560  177.3500  144.5660 C   0  0  0  0  0  0  0  0  0  0  0  0
  185.9100  177.1820  145.3560 C   0  0  0  0  0  3  0  0  0  0  0  0
  184.8060  178.0140  145.1570 C   0  0  0  0  0  3  0  0  0  0  0  0
  185.9310  179.1470  143.4020 C   0  0  0  0  0  3  0  0  0  0  0  0
  187.0550  178.3360  143.5710 C   0  0  0  0  0  3  0  0  0  0  0  0
  190.8460  176.7730  147.5350 C   0  0  0  0  0  2  0  0  0  0  0  0
  190.2430  177.9270  148.0360 O   0  0  0  0  0  1  0  0  0  0  0  0
  192.6290  176.7910  145.0760 C   0  0  0  0  0  2  0  0  0  0  0  0
  193.5000  176.1650  144.0020 C   0  0  0  0  0  2  0  0  0  0  0  0
  194.8060  176.0460  144.4730 O   0  0  0  0  0  1  0  0  0  0  0  0
  1 13  1  0  0  0  0
  2 14  1  0  0  0  0
  2 10  1  0  0  0  0
  3 16  1  0  0  0  0
  4 12  1  0  0  0  0
  4 11  1  0  0  0  0
  5 11  1  0  0  0  0
  6  2  2  0  0  0  0
  7  8  1  0  0  0  0
  9 12  1  1  0  0  0
  9  7  1  0  0  0  0
  9 14  1  0  0  0  0
 10  1  2  0  0  0  0
 11  7  2  0  0  0  0
 13 23  1  0  0  0  0
 14  3  2  0  0  0  0
 15 12  2  0  0  0  0
 15  6  1  0  0  0  0
 16 25  1  0  0  0  0
 16 13  2  0  0  0  0
 17 20  1  0  0  0  0
 18 10  1  0  0  0  0
 18 19  1  0  0  0  0
 20 19  2  0  0  0  0
 21 22  1  0  0  0  0
 21 17  2  0  0  0  0
 22 18  2  0  0  0  0
 23 24  1  0  0  0  0
 26 27  1  0  0  0  0
 26 25  1  0  0  0  0
M  END
>  <MODEL>
6

>  <REMARK>
 VINA RESULT:      -6.4      2.975      4.861
  Name = 
  4 active torsions:
  status: ('A' for Active; 'I' for Inactive)
    1  A    between atoms: C_9  and  C_15
    2  A    between atoms: C_10  and  C_20
    3  A    between atoms: C_18  and  C_22
    4  A    between atoms: C_20  and  C_26
                            x       y       z     vdW  Elec       q    Type
                         _______ _______ _______ _____ _____    ______ ____

>  <TORSDO>
F 4

$$$$
=
 OpenBabel11052418183D

 27 30  0  0  1  0  0  0  0  0999 V2000
  186.1660  176.7240  144.7190 C   0  0  0  0  0  3  0  0  0  0  0  0
  188.4340  177.2380  143.8160 C   0  0  1  0  0  3  0  0  0  0  0  0
  188.6540  177.5800  146.2530 C   0  0  0  0  0  3  0  0  0  0  0  0
  192.9180  176.7940  144.1900 S   0  0  0  0  0  0  0  0  0  0  0  0
  193.8510  175.5170  146.5130 C   0  0  0  0  0  1  0  0  0  0  0  0
  189.3170  177.7220  142.7170 C   0  0  0  0  0  3  0  0  0  0  0  0
  191.3780  176.0140  146.0230 C   0  0  0  0  0  0  0  0  0  0  0  0
  190.8570  175.4020  147.2810 C   0  0  0  0  0  1  0  0  0  0  0  0
  190.5590  176.5990  145.0420 C   0  0  0  0  0  0  0  0  0  0  0  0
  187.0850  177.2110  143.6570 C   0  0  0  0  0  0  0  0  0  0  0  0
  192.7310  176.0540  145.6920 C   0  0  0  0  0  0  0  0  0  0  0  0
  191.2790  177.0730  143.9590 C   0  0  0  0  0  0  0  0  0  0  0  0
  186.2960  176.8730  146.0470 C   0  0  0  0  0  0  0  0  0  0  0  0
  189.0570  176.7160  145.1040 C   0  0  0  0  0  0  0  0  0  0  0  0
  190.6470  177.6560  142.7780 C   0  0  0  0  0  3  0  0  0  0  0  0
  187.3930  177.6480  146.6830 C   0  0  0  0  0  0  0  0  0  0  0  0
  185.1880  178.2530  139.9920 N   0  0  0  0  0  0  0  0  0  0  0  0
  186.4330  177.6050  142.3820 C   0  0  0  0  0  0  0  0  0  0  0  0
  185.2310  178.3280  142.3780 C   0  0  0  0  0  3  0  0  0  0  0  0
  184.6230  178.6490  141.1620 C   0  0  0  0  0  3  0  0  0  0  0  0
  186.3440  177.5380  139.9660 C   0  0  0  0  0  3  0  0  0  0  0  0
  186.9830  177.1970  141.1610 C   0  0  0  0  0  3  0  0  0  0  0  0
  185.1870  176.3480  146.8980 C   0  0  0  0  0  2  0  0  0  0  0  0
  184.0660  177.1710  146.7790 O   0  0  0  0  0  1  0  0  0  0  0  0
  187.1150  178.4720  147.8970 C   0  0  0  0  0  2  0  0  0  0  0  0
  186.0920  179.5490  147.5840 C   0  0  0  0  0  2  0  0  0  0  0  0
  186.3170  180.6550  148.4020 O   0  0  0  0  0  1  0  0  0  0  0  0
  1 13  1  0  0  0  0
  2  6  1  6  0  0  0
  2 14  1  0  0  0  0
  3 16  1  0  0  0  0
  4 11  1  0  0  0  0
  6 15  2  0  0  0  0
  7  8  1  0  0  0  0
  9 14  1  0  0  0  0
  9  7  1  0  0  0  0
 10  2  1  0  0  0  0
 10  1  2  0  0  0  0
 11  7  2  0  0  0  0
 11  5  1  0  0  0  0
 12  4  1  0  0  0  0
 12  9  2  0  0  0  0
 13 16  2  0  0  0  0
 13 23  1  0  0  0  0
 14  3  2  0  0  0  0
 15 12  1  0  0  0  0
 16 25  1  0  0  0  0
 17 20  1  0  0  0  0
 18 10  1  0  0  0  0
 19 18  1  0  0  0  0
 20 19  2  0  0  0  0
 21 17  2  0  0  0  0
 21 22  1  0  0  0  0
 22 18  2  0  0  0  0
 24 23  1  0  0  0  0
 26 25  1  0  0  0  0
 26 27  1  0  0  0  0
M  END
>  <MODEL>
7

>  <REMARK>
 VINA RESULT:      -6.4      3.199      5.010
  Name = 
  4 active torsions:
  status: ('A' for Active; 'I' for Inactive)
    1  A    between atoms: C_9  and  C_15
    2  A    between atoms: C_10  and  C_20
    3  A    between atoms: C_18  and  C_22
    4  A    between atoms: C_20  and  C_26
                            x       y       z     vdW  Elec       q    Type
                         _______ _______ _______ _____ _____    ______ ____

>  <TORSDO>
F 4

$$$$
=
 OpenBabel11052418183D

 27 30  0  0  1  0  0  0  0  0999 V2000
  186.5710  176.6670  144.5830 C   0  0  0  0  0  3  0  0  0  0  0  0
  187.6910  175.6400  142.6060 C   0  0  1  0  0  3  0  0  0  0  0  0
  189.4580  175.7360  144.3280 C   0  0  0  0  0  3  0  0  0  0  0  0
  190.4480  172.4510  140.9680 S   0  0  0  0  0  0  0  0  0  0  0  0
  191.7560  170.8450  142.8670 C   0  0  0  0  0  1  0  0  0  0  0  0
  187.8260  175.4690  141.1310 C   0  0  0  0  0  3  0  0  0  0  0  0
  190.1950  172.8020  143.4490 C   0  0  0  0  0  0  0  0  0  0  0  0
  190.3120  172.6430  144.9290 C   0  0  0  0  0  1  0  0  0  0  0  0
  189.4050  173.7850  142.8290 C   0  0  0  0  0  0  0  0  0  0  0  0
  186.7510  176.4750  143.1200 C   0  0  0  0  0  0  0  0  0  0  0  0
  190.8510  171.9800  142.5350 C   0  0  0  0  0  0  0  0  0  0  0  0
  189.4440  173.7090  141.4470 C   0  0  0  0  0  0  0  0  0  0  0  0
  187.5210  176.6850  145.5310 C   0  0  0  0  0  0  0  0  0  0  0  0
  188.5770  174.8260  143.5400 C   0  0  0  0  0  0  0  0  0  0  0  0
  188.6480  174.5740  140.5810 C   0  0  0  0  0  3  0  0  0  0  0  0
  188.9740  176.5820  145.2390 C   0  0  0  0  0  0  0  0  0  0  0  0
  184.0140  178.6540  140.6970 N   0  0  0  0  0  0  0  0  0  0  0  0
  185.7900  177.2080  142.2580 C   0  0  0  0  0  0  0  0  0  0  0  0
  186.1160  177.5480  140.9370 C   0  0  0  0  0  3  0  0  0  0  0  0
  185.2050  178.2720  140.1650 C   0  0  0  0  0  3  0  0  0  0  0  0
  183.6780  178.3530  141.9790 C   0  0  0  0  0  3  0  0  0  0  0  0
  184.5620  177.6300  142.7830 C   0  0  0  0  0  3  0  0  0  0  0  0
  187.0770  176.9710  146.9280 C   0  0  0  0  0  2  0  0  0  0  0  0
  185.7000  176.7780  147.0380 O   0  0  0  0  0  1  0  0  0  0  0  0
  189.9520  177.3810  146.0360 C   0  0  0  0  0  2  0  0  0  0  0  0
  190.8930  176.4630  146.7960 C   0  0  0  0  0  2  0  0  0  0  0  0
  191.1170  176.9790  148.0710 O   0  0  0  0  0  1  0  0  0  0  0  0
  1 13  1  0  0  0  0
  2  6  1  6  0  0  0
  2 10  1  0  0  0  0
  2 14  1  0  0  0  0
  3 16  1  0  0  0  0
  4 12  1  0  0  0  0
  4 11  1  0  0  0  0
  7  8  1  0  0  0  0
  9  7  1  0  0  0  0
  9 14  1  0  0  0  0
 10  1  2  0  0  0  0
 11  5  1  0  0  0  0
 11  7  2  0  0  0  0
 12  9  2  0  0  0  0
 13 23  1  0  0  0  0
 14  3  2  0  0  0  0
 15  6  2  0  0  0  0
 15 12  1  0  0  0  0
 16 13  2  0  0  0  0
 16 25  1  0  0  0  0
 17 21  1  0  0  0  0
 18 22  1  0  0  0  0
 18 10  1  0  0  0  0
 19 18  2  0  0  0  0
 20 17  2  0  0  0  0
 20 19  1  0  0  0  0
 21 22  2  0  0  0  0
 23 24  1  0  0  0  0
 25 26  1  0  0  0  0
 26 27  1  0  0  0  0
M  END
>  <MODEL>
8

>  <REMARK>
 VINA RESULT:      -6.4      3.334      5.078
  Name = 
  4 active torsions:
  status: ('A' for Active; 'I' for Inactive)
    1  A    between atoms: C_9  and  C_15
    2  A    between atoms: C_10  and  C_20
    3  A    between atoms: C_18  and  C_22
    4  A    between atoms: C_20  and  C_26
                            x       y       z     vdW  Elec       q    Type
                         _______ _______ _______ _____ _____    ______ ____

>  <TORSDO>
F 4

$$$$
=
 OpenBabel11052418183D

 27 30  0  0  1  0  0  0  0  0999 V2000
  188.8240  175.2940  144.7170 C   0  0  0  0  0  3  0  0  0  0  0  0
  188.8370  174.6510  142.3080 C   0  0  0  0  0  0  0  0  0  0  0  0
  191.0610  173.9660  143.1350 C   0  0  0  0  0  3  0  0  0  0  0  0
  189.8520  171.5810  139.1470 S   0  0  0  0  0  0  0  0  0  0  0  0
  191.2690  169.3180  140.0230 C   0  0  0  0  0  1  0  0  0  0  0  0
  188.3820  174.8610  140.9030 C   0  0  0  0  0  3  0  0  0  0  0  0
  190.6120  171.2920  141.5300 C   0  0  0  0  0  0  0  0  0  0  0  0
  191.2040  170.7250  142.7770 C   0  0  0  0  0  1  0  0  0  0  0  0
  189.9480  172.5300  141.4740 C   0  0  1  0  0  3  0  0  0  0  0  0
  188.4080  175.4720  143.3010 C   0  0  0  0  0  0  0  0  0  0  0  0
  190.6470  170.6430  140.2980 C   0  0  0  0  0  0  0  0  0  0  0  0
  189.4660  172.8220  140.2100 C   0  0  0  0  0  0  0  0  0  0  0  0
  190.0180  174.8870  145.1760 C   0  0  0  0  0  0  0  0  0  0  0  0
  189.7440  173.4730  142.6340 C   0  0  0  0  0  0  0  0  0  0  0  0
  188.6770  174.0150  139.9160 C   0  0  0  0  0  3  0  0  0  0  0  0
  191.1840  174.6090  144.2970 C   0  0  0  0  0  0  0  0  0  0  0  0
  185.6220  178.6320  142.6890 N   0  0  0  0  0  0  0  0  0  0  0  0
  187.4370  176.5690  143.0560 C   0  0  0  0  0  0  0  0  0  0  0  0
  187.8510  177.7930  142.5110 C   0  0  0  0  0  3  0  0  0  0  0  0
  186.9200  178.8180  142.3300 C   0  0  0  0  0  3  0  0  0  0  0  0
  185.1960  177.4610  143.2330 C   0  0  0  0  0  3  0  0  0  0  0  0
  186.0960  176.4120  143.4310 C   0  0  0  0  0  3  0  0  0  0  0  0
  190.2000  174.8620  146.6580 C   0  0  0  0  0  2  0  0  0  0  0  0
  188.9960  174.5340  147.2800 O   0  0  0  0  0  1  0  0  0  0  0  0
  192.5590  174.9780  144.7470 C   0  0  0  0  0  2  0  0  0  0  0  0
  193.0060  176.2680  144.0840 C   0  0  0  0  0  2  0  0  0  0  0  0
  193.3570  177.1960  145.0630 O   0  0  0  0  0  1  0  0  0  0  0  0
  1 13  1  0  0  0  0
  2 14  1  0  0  0  0
  2 10  1  0  0  0  0
  3 16  1  0  0  0  0
  4 12  1  0  0  0  0
  4 11  1  0  0  0  0
  5 11  1  0  0  0  0
  6  2  2  0  0  0  0
  7  8  1  0  0  0  0
  9 12  1  1  0  0  0
  9  7  1  0  0  0  0
  9 14  1  0  0  0  0
 10  1  2  0  0  0  0
 11  7  2  0  0  0  0
 13 23  1  0  0  0  0
 14  3  2  0  0  0  0
 15 12  2  0  0  0  0
 15  6  1  0  0  0  0
 16 25  1  0  0  0  0
 16 13  2  0  0  0  0
 17 21  1  0  0  0  0
 18 10  1  0  0  0  0
 18 22  1  0  0  0  0
 19 18  2  0  0  0  0
 20 19  1  0  0  0  0
 20 17  2  0  0  0  0
 21 22  2  0  0  0  0
 23 24  1  0  0  0  0
 26 25  1  0  0  0  0
 26 27  1  0  0  0  0
M  END
>  <MODEL>
9

>  <REMARK>
 VINA RESULT:      -6.1      3.264      5.564
  Name = 
  4 active torsions:
  status: ('A' for Active; 'I' for Inactive)
    1  A    between atoms: C_9  and  C_15
    2  A    between atoms: C_10  and  C_20
    3  A    between atoms: C_18  and  C_22
    4  A    between atoms: C_20  and  C_26
                            x       y       z     vdW  Elec       q    Type
                         _______ _______ _______ _____ _____    ______ ____

>  <TORSDO>
F 4

$$$$
