=
 OpenBabel11052419503D

 55 59  0  0  1  0  0  0  0  0999 V2000
  185.3920  177.8660  142.0680 C   0  0  0  0  0  2  0  0  0  0  0  0
  187.5470  176.3430  141.0040 C   0  0  0  0  0  0  0  0  0  0  0  0
  187.8030  176.9230  142.3690 C   0  0  2  0  0  3  0  0  0  0  0  0
  185.9020  178.2160  140.6780 C   0  0  0  0  0  2  0  0  0  0  0  0
  186.5600  177.5600  143.0240 C   0  0  0  0  0  2  0  0  0  0  0  0
  188.2280  175.3060  140.6310 N   0  0  0  0  0  0  0  0  0  0  0  0
  186.5550  176.9820  140.0630 C   0  0  0  0  0  2  0  0  0  0  0  0
  188.0560  174.7440  139.3880 O   0  0  0  0  0  0  0  0  0  0  0  0
  188.5680  173.4520  139.1110 C   0  0  0  0  0  2  0  0  0  0  0  0
  189.5490  173.5440  137.9990 C   0  0  0  0  0  0  0  0  0  0  0  0
  189.1900  173.2380  136.8300 O   0  0  0  0  0  0  0  0  0  0  0  0
  190.8570  173.9500  138.2690 O   0  0  0  0  0  0  0  0  0  0  0  0
  191.9270  171.4140  138.7330 O   0  0  0  0  0  1  0  0  0  0  0  0
  192.2140  172.9210  138.0180 P   0  0  1  0  0  0  0  0  0  0  0  0
  192.4190  172.7270  136.5320 O   0  0  0  0  0  0  0  0  0  0  0  0
  196.7570  173.9960  139.8010 C   0  0  0  0  0  2  0  0  0  0  0  0
  193.6980  173.6860  138.7580 C   0  0  1  0  0  0  0  0  0  0  0  0
  196.5540  175.0890  137.4780 C   0  0  0  0  0  2  0  0  0  0  0  0
  195.1400  171.7810  138.3070 O   0  0  0  0  0  1  0  0  0  0  0  0
  194.9530  173.1420  138.0420 C   0  0  2  0  0  3  0  0  0  0  0  0
  194.6290  173.8450  141.1010 C   0  0  0  0  0  3  0  0  0  0  0  0
  197.3190  173.7770  137.3350 C   0  0  0  0  0  2  0  0  0  0  0  0
  195.7730  174.7340  140.7010 C   0  0  1  0  0  3  0  0  0  0  0  0
  196.2300  173.9150  138.3750 C   0  0  0  0  0  0  0  0  0  0  0  0
  193.6110  175.0680  138.5710 O   0  0  0  0  0  1  0  0  0  0  0  0
  193.7120  173.3810  140.2370 C   0  0  0  0  0  3  0  0  0  0  0  0
  196.4780  175.2580  141.9100 C   0  0  0  0  0  0  0  0  0  0  0  0
  196.5810  176.6620  142.1390 N   0  0  0  0  0  1  0  0  0  0  0  0
  196.9660  174.4510  142.7480 O   0  0  0  0  0  0  0  0  0  0  0  0
  188.9350  177.9340  142.2860 C   0  0  0  0  0  2  0  0  0  0  0  0
  190.2090  177.2870  142.5980 N   0  0  0  0  0  2  0  0  0  0  0  0
  190.1490  176.6380  143.9140 C   0  0  1  0  0  3  0  0  0  0  0  0
  191.1950  175.5190  144.0660 C   0  0  1  0  0  3  0  0  0  0  0  0
  190.9150  173.7770  142.3010 C   0  0  0  0  0  3  0  0  0  0  0  0
  189.7090  171.7140  142.6830 C   0  0  0  0  0  3  0  0  0  0  0  0
  189.9170  173.3410  144.4670 C   0  0  0  0  0  0  0  0  0  0  0  0
  189.4480  172.1100  143.9960 C   0  0  0  0  0  3  0  0  0  0  0  0
  190.4400  172.5470  141.8360 C   0  0  0  0  0  3  0  0  0  0  0  0
  190.6610  174.1840  143.6150 C   0  0  0  0  0  0  0  0  0  0  0  0
  189.6380  173.7170  145.7760 O   0  0  0  0  0  1  0  0  0  0  0  0
  192.4870  175.8710  143.3280 C   0  0  0  0  0  2  0  0  0  0  0  0
  193.6860  175.8360  144.2660 C   0  0  0  0  0  2  0  0  0  0  0  0
  193.7450  174.5800  144.9320 O   0  0  0  0  0  0  0  0  0  0  0  0
  194.9210  174.1170  145.5270 C   0  0  0  0  0  0  0  0  0  0  0  0
  195.2920  172.6830  145.3890 C   0  0  0  0  0  1  0  0  0  0  0  0
  195.6680  174.8950  146.1790 O   0  0  0  0  0  0  0  0  0  0  0  0
  190.2310  177.6620  145.0500 C   0  0  0  0  0  2  0  0  0  0  0  0
  189.7420  177.0640  146.3600 C   0  0  0  0  0  2  0  0  0  0  0  0
  188.2430  176.7970  146.2940 C   0  0  0  0  0  2  0  0  0  0  0  0
  187.4980  177.7210  147.2490 C   0  0  0  0  0  2  0  0  0  0  0  0
  184.5710  178.2230  146.3510 C   0  0  0  0  0  0  0  0  0  0  0  0
  183.6220  178.8040  145.6970 N   0  0  0  0  0  2  0  0  0  0  0  0
  185.4530  177.0480  146.1130 C   0  0  0  0  0  2  0  0  0  0  0  0
  186.0390  177.3020  147.3940 C   0  0  2  0  0  3  0  0  0  0  0  0
  185.2260  178.4420  147.6220 O   0  0  0  0  0  0  0  0  0  0  0  0
  1  5  1  0  0  0  0
  2  3  1  0  0  0  0
  3 30  1  6  0  0  0
  3  5  1  0  0  0  0
  4  1  1  0  0  0  0
  6  2  2  0  0  0  0
  7  4  1  0  0  0  0
  7  2  1  0  0  0  0
  8  6  1  0  0  0  0
  9  8  1  0  0  0  0
 10 12  1  0  0  0  0
 10  9  1  0  0  0  0
 11 10  2  0  0  0  0
 14 15  2  6  0  0  0
 14 12  1  0  0  0  0
 14 13  1  0  0  0  0
 14 17  1  0  0  0  0
 16 23  1  0  0  0  0
 17 25  1  6  0  0  0
 17 26  1  0  0  0  0
 18 24  1  0  0  0  0
 20 19  1  1  0  0  0
 20 24  1  0  0  0  0
 20 17  1  0  0  0  0
 22 18  1  0  0  0  0
 22 24  1  0  0  0  0
 23 21  1  0  0  0  0
 23 27  1  1  0  0  0
 24 16  1  0  0  0  0
 26 21  2  0  0  0  0
 27 28  1  0  0  0  0
 27 29  2  0  0  0  0
 30 31  1  0  0  0  0
 31 32  1  0  0  0  0
 32 33  1  0  0  0  0
 32 47  1  1  0  0  0
 33 41  1  6  0  0  0
 34 39  1  0  0  0  0
 35 37  2  0  0  0  0
 36 40  1  0  0  0  0
 37 36  1  0  0  0  0
 38 34  2  0  0  0  0
 38 35  1  0  0  0  0
 39 33  1  0  0  0  0
 39 36  2  0  0  0  0
 41 42  1  0  0  0  0
 42 43  1  0  0  0  0
 43 44  1  0  0  0  0
 44 46  2  0  0  0  0
 45 44  1  0  0  0  0
 47 48  1  0  0  0  0
 49 48  1  0  0  0  0
 49 50  1  0  0  0  0
 51 55  1  0  0  0  0
 52 51  2  0  0  0  0
 53 51  1  0  0  0  0
 53 54  1  0  0  0  0
 54 50  1  6  0  0  0
 54 55  1  0  0  0  0
M  END
>  <MODEL>
1

>  <REMARK>
 VINA RESULT:      -6.4      0.000      0.000
  Name = 
  21 active torsions:
  status: ('A' for Active; 'I' for Inactive)
    1  A    between atoms: C_1  and  C_29
    2  A    between atoms: C_2  and  N_28
    3  A    between atoms: C_2  and  C_31
    4  A    between atoms: C_4  and  O_40
    5  A    between atoms: C_6  and  P_20
    6  A    between atoms: C_8  and  O_22
    7  A    between atoms: C_8  and  C_35
    8  A    between atoms: C_13  and  C_48
    9  A    between atoms: C_13  and  C_52
   10  A    between atoms: C_19  and  O_40
   11  A    between atoms: C_19  and  C_45
   12  A    between atoms: P_20  and  O_22
   13  A    between atoms: C_26  and  C_49
   14  A    between atoms: N_28  and  C_33
   15  A    between atoms: C_33  and  C_34
   16  A    between atoms: C_33  and  C_49
   17  A    between atoms: C_34  and  C_52
   18  A    between atoms: C_35  and  O_51
   19  A    between atoms: C_39  and  C_48
   20  A    between atoms: C_45  and  C_49
   21  A    between atoms: O_51  and  N_54
                            x       y       z     vdW  Elec       q    Type
                         _______ _______ _______ _____ _____    ______ ____

>  <TORSDO>
F 21

$$$$
=
 OpenBabel11052419503D

 55 59  0  0  1  0  0  0  0  0999 V2000
  189.8910  172.4140  143.7520 C   0  0  0  0  0  2  0  0  0  0  0  0
  190.5670  173.5050  141.2120 C   0  0  0  0  0  0  0  0  0  0  0  0
  189.8730  174.4630  142.1410 C   0  0  2  0  0  3  0  0  0  0  0  0
  189.4420  171.6660  142.5050 C   0  0  0  0  0  2  0  0  0  0  0  0
  189.7050  173.9340  143.5800 C   0  0  0  0  0  2  0  0  0  0  0  0
  191.2990  173.9840  140.2570 N   0  0  0  0  0  0  0  0  0  0  0  0
  190.3780  172.0140  141.3520 C   0  0  0  0  0  2  0  0  0  0  0  0
  191.9400  173.1610  139.3620 O   0  0  0  0  0  0  0  0  0  0  0  0
  193.3210  172.8790  139.5120 C   0  0  0  0  0  2  0  0  0  0  0  0
  194.1090  174.0760  139.1150 C   0  0  0  0  0  0  0  0  0  0  0  0
  193.6920  174.8100  138.1790 O   0  0  0  0  0  0  0  0  0  0  0  0
  195.3070  174.3580  139.7740 O   0  0  0  0  0  0  0  0  0  0  0  0
  196.8730  176.2780  141.0610 O   0  0  0  0  0  1  0  0  0  0  0  0
  195.3960  175.4510  141.1000 P   0  0  1  0  0  0  0  0  0  0  0  0
  194.2700  176.4550  140.9900 O   0  0  0  0  0  0  0  0  0  0  0  0
  195.7420  173.6860  145.7630 C   0  0  0  0  0  2  0  0  0  0  0  0
  195.2490  174.5200  142.6640 C   0  0  1  0  0  0  0  0  0  0  0  0
  193.5530  175.0320  145.6000 C   0  0  0  0  0  2  0  0  0  0  0  0
  196.6860  176.0240  143.9200 O   0  0  0  0  0  1  0  0  0  0  0  0
  195.3920  175.4990  143.8480 C   0  0  2  0  0  3  0  0  0  0  0  0
  196.4450  172.5310  143.6620 C   0  0  0  0  0  3  0  0  0  0  0  0
  194.6190  175.9120  146.2430 C   0  0  0  0  0  2  0  0  0  0  0  0
  195.5530  172.4650  144.8710 C   0  0  1  0  0  3  0  0  0  0  0  0
  195.0030  174.8900  145.1960 C   0  0  0  0  0  0  0  0  0  0  0  0
  193.9850  173.9240  142.6950 O   0  0  0  0  0  1  0  0  0  0  0  0
  196.3080  173.4430  142.6870 C   0  0  0  0  0  3  0  0  0  0  0  0
  195.8150  171.2170  145.6480 C   0  0  0  0  0  0  0  0  0  0  0  0
  194.8190  170.2000  145.7450 N   0  0  0  0  0  1  0  0  0  0  0  0
  196.9350  171.0480  146.2040 O   0  0  0  0  0  0  0  0  0  0  0  0
  188.5230  174.8480  141.5580 C   0  0  0  0  0  2  0  0  0  0  0  0
  188.2930  176.2820  141.7270 N   0  0  0  0  0  2  0  0  0  0  0  0
  187.2830  176.5240  142.7640 C   0  0  1  0  0  3  0  0  0  0  0  0
  187.6810  177.6630  143.7190 C   0  0  1  0  0  3  0  0  0  0  0  0
  186.5900  176.7850  145.7840 C   0  0  0  0  0  3  0  0  0  0  0  0
  184.8940  178.0190  146.9910 C   0  0  0  0  0  3  0  0  0  0  0  0
  185.8840  178.9640  144.9920 C   0  0  0  0  0  0  0  0  0  0  0  0
  184.9900  179.0580  146.0630 C   0  0  0  0  0  3  0  0  0  0  0  0
  185.6910  176.8830  146.8510 C   0  0  0  0  0  3  0  0  0  0  0  0
  186.6960  177.8200  144.8500 C   0  0  0  0  0  0  0  0  0  0  0  0
  185.9580  180.0090  144.0770 O   0  0  0  0  0  1  0  0  0  0  0  0
  189.1000  177.4640  144.2510 C   0  0  0  0  0  2  0  0  0  0  0  0
  189.2170  177.9240  145.6970 C   0  0  0  0  0  2  0  0  0  0  0  0
  190.4240  177.4310  146.2680 O   0  0  0  0  0  0  0  0  0  0  0  0
  190.4350  176.3310  147.1280 C   0  0  0  0  0  0  0  0  0  0  0  0
  191.3670  176.3210  148.2880 C   0  0  0  0  0  1  0  0  0  0  0  0
  189.6710  175.3470  146.9330 O   0  0  0  0  0  0  0  0  0  0  0  0
  185.8930  176.7400  142.1550 C   0  0  0  0  0  2  0  0  0  0  0  0
  185.9230  177.8370  141.1020 C   0  0  0  0  0  2  0  0  0  0  0  0
  184.5080  178.3030  140.7830 C   0  0  0  0  0  2  0  0  0  0  0  0
  183.6600  178.3250  142.0490 C   0  0  0  0  0  2  0  0  0  0  0  0
  180.9660  179.3210  140.8770 C   0  0  0  0  0  0  0  0  0  0  0  0
  180.1600  180.1680  140.3300 N   0  0  0  0  0  2  0  0  0  0  0  0
  181.8910  178.2680  140.3780 C   0  0  0  0  0  2  0  0  0  0  0  0
  182.2060  177.9790  141.7440 C   0  0  2  0  0  3  0  0  0  0  0  0
  181.3520  179.0000  142.2340 O   0  0  0  0  0  0  0  0  0  0  0  0
  2  7  1  0  0  0  0
  2  3  1  0  0  0  0
  3 30  1  6  0  0  0
  3  5  1  0  0  0  0
  4  1  1  0  0  0  0
  5  1  1  0  0  0  0
  6  2  2  0  0  0  0
  7  4  1  0  0  0  0
  8  9  1  0  0  0  0
  8  6  1  0  0  0  0
 10  9  1  0  0  0  0
 10 12  1  0  0  0  0
 11 10  2  0  0  0  0
 12 14  1  0  0  0  0
 13 14  1  0  0  0  0
 14 15  2  6  0  0  0
 14 17  1  0  0  0  0
 17 26  1  0  0  0  0
 17 25  1  1  0  0  0
 17 20  1  0  0  0  0
 18 22  1  0  0  0  0
 20 19  1  1  0  0  0
 20 24  1  0  0  0  0
 21 23  1  0  0  0  0
 23 27  1  1  0  0  0
 23 16  1  0  0  0  0
 24 18  1  0  0  0  0
 24 16  1  0  0  0  0
 24 22  1  0  0  0  0
 26 21  2  0  0  0  0
 27 28  1  0  0  0  0
 27 29  2  0  0  0  0
 30 31  1  0  0  0  0
 31 32  1  0  0  0  0
 32 47  1  6  0  0  0
 32 33  1  0  0  0  0
 33 41  1  1  0  0  0
 33 39  1  0  0  0  0
 34 38  1  0  0  0  0
 36 37  2  0  0  0  0
 37 35  1  0  0  0  0
 38 35  2  0  0  0  0
 39 36  1  0  0  0  0
 39 34  2  0  0  0  0
 40 36  1  0  0  0  0
 41 42  1  0  0  0  0
 42 43  1  0  0  0  0
 43 44  1  0  0  0  0
 44 45  1  0  0  0  0
 46 44  2  0  0  0  0
 48 47  1  0  0  0  0
 49 48  1  0  0  0  0
 49 50  1  0  0  0  0
 51 55  1  0  0  0  0
 52 51  2  0  0  0  0
 53 51  1  0  0  0  0
 53 54  1  0  0  0  0
 54 50  1  6  0  0  0
 54 55  1  0  0  0  0
M  END
>  <MODEL>
2

>  <REMARK>
 VINA RESULT:      -6.3      2.637      5.979
  Name = 
  21 active torsions:
  status: ('A' for Active; 'I' for Inactive)
    1  A    between atoms: C_1  and  C_29
    2  A    between atoms: C_2  and  N_28
    3  A    between atoms: C_2  and  C_31
    4  A    between atoms: C_4  and  O_40
    5  A    between atoms: C_6  and  P_20
    6  A    between atoms: C_8  and  O_22
    7  A    between atoms: C_8  and  C_35
    8  A    between atoms: C_13  and  C_48
    9  A    between atoms: C_13  and  C_52
   10  A    between atoms: C_19  and  O_40
   11  A    between atoms: C_19  and  C_45
   12  A    between atoms: P_20  and  O_22
   13  A    between atoms: C_26  and  C_49
   14  A    between atoms: N_28  and  C_33
   15  A    between atoms: C_33  and  C_34
   16  A    between atoms: C_33  and  C_49
   17  A    between atoms: C_34  and  C_52
   18  A    between atoms: C_35  and  O_51
   19  A    between atoms: C_39  and  C_48
   20  A    between atoms: C_45  and  C_49
   21  A    between atoms: O_51  and  N_54
                            x       y       z     vdW  Elec       q    Type
                         _______ _______ _______ _____ _____    ______ ____

>  <TORSDO>
F 21

$$$$
=
 OpenBabel11052419503D

 55 59  0  0  1  0  0  0  0  0999 V2000
  190.9070  172.8600  144.1940 C   0  0  0  0  0  2  0  0  0  0  0  0
  190.0470  172.8350  141.4820 C   0  0  0  0  0  0  0  0  0  0  0  0
  190.0880  174.2010  142.1140 C   0  0  2  0  0  3  0  0  0  0  0  0
  189.7690  171.9270  143.8100 C   0  0  0  0  0  2  0  0  0  0  0  0
  190.7560  174.2290  143.5050 C   0  0  0  0  0  2  0  0  0  0  0  0
  190.1150  172.7460  140.1920 N   0  0  0  0  0  0  0  0  0  0  0  0
  189.8780  171.5950  142.3240 C   0  0  0  0  0  2  0  0  0  0  0  0
  190.0600  171.5300  139.5530 O   0  0  0  0  0  0  0  0  0  0  0  0
  191.0020  171.2080  138.5450 C   0  0  0  0  0  2  0  0  0  0  0  0
  192.3630  171.5780  139.0130 C   0  0  0  0  0  0  0  0  0  0  0  0
  193.0640  172.3640  138.3210 O   0  0  0  0  0  0  0  0  0  0  0  0
  192.8510  171.0350  140.2040 O   0  0  0  0  0  0  0  0  0  0  0  0
  194.9560  169.9410  141.6760 O   0  0  0  0  0  1  0  0  0  0  0  0
  194.4790  171.2520  140.7170 P   0  0  1  0  0  0  0  0  0  0  0  0
  195.3770  171.3200  139.5020 O   0  0  0  0  0  0  0  0  0  0  0  0
  195.9640  175.2540  143.3170 C   0  0  0  0  0  2  0  0  0  0  0  0
  194.6110  172.8000  141.6760 C   0  0  1  0  0  0  0  0  0  0  0  0
  195.4960  176.0220  140.9040 C   0  0  0  0  0  2  0  0  0  0  0  0
  197.0400  172.7770  141.7480 O   0  0  0  0  0  1  0  0  0  0  0  0
  195.9320  173.5090  141.3090 C   0  0  2  0  0  3  0  0  0  0  0  0
  194.5360  173.3740  144.1350 C   0  0  0  0  0  3  0  0  0  0  0  0
  196.9980  175.8120  141.0660 C   0  0  0  0  0  2  0  0  0  0  0  0
  194.6130  174.8570  143.9020 C   0  0  1  0  0  3  0  0  0  0  0  0
  196.0200  174.9450  141.8270 C   0  0  0  0  0  0  0  0  0  0  0  0
  193.5280  173.6140  141.3320 O   0  0  0  0  0  1  0  0  0  0  0  0
  194.5360  172.4660  143.1470 C   0  0  0  0  0  3  0  0  0  0  0  0
  194.3670  175.6020  145.1720 C   0  0  0  0  0  0  0  0  0  0  0  0
  194.3630  177.0280  145.1890 N   0  0  0  0  0  1  0  0  0  0  0  0
  194.1350  174.9650  146.2360 O   0  0  0  0  0  0  0  0  0  0  0  0
  188.6800  174.7670  142.1920 C   0  0  0  0  0  2  0  0  0  0  0  0
  188.4410  175.3380  143.5170 N   0  0  0  0  0  2  0  0  0  0  0  0
  188.0230  176.7410  143.4060 C   0  0  1  0  0  3  0  0  0  0  0  0
  188.0640  177.4760  144.7570 C   0  0  1  0  0  3  0  0  0  0  0  0
  186.1880  176.7810  146.2490 C   0  0  0  0  0  3  0  0  0  0  0  0
  184.1240  178.0330  146.4220 C   0  0  0  0  0  3  0  0  0  0  0  0
  185.8810  178.7960  144.9360 C   0  0  0  0  0  0  0  0  0  0  0  0
  184.6070  178.9560  145.4920 C   0  0  0  0  0  3  0  0  0  0  0  0
  184.9120  176.9450  146.7980 C   0  0  0  0  0  3  0  0  0  0  0  0
  186.6830  177.7010  145.3190 C   0  0  0  0  0  0  0  0  0  0  0  0
  186.3370  179.7250  144.0080 O   0  0  0  0  0  1  0  0  0  0  0  0
  188.9500  176.7360  145.7590 C   0  0  0  0  0  2  0  0  0  0  0  0
  190.2850  177.4440  145.9440 C   0  0  0  0  0  2  0  0  0  0  0  0
  191.2410  176.5440  146.4930 O   0  0  0  0  0  0  0  0  0  0  0  0
  191.3470  176.3320  147.8700 C   0  0  0  0  0  0  0  0  0  0  0  0
  191.4440  177.5030  148.7820 C   0  0  0  0  0  1  0  0  0  0  0  0
  191.3650  175.1660  148.3470 O   0  0  0  0  0  0  0  0  0  0  0  0
  188.8150  177.4800  142.3220 C   0  0  0  0  0  2  0  0  0  0  0  0
  187.8980  178.3360  141.4630 C   0  0  0  0  0  2  0  0  0  0  0  0
  186.9430  177.4540  140.6680 C   0  0  0  0  0  2  0  0  0  0  0  0
  185.6540  177.2310  141.4490 C   0  0  0  0  0  2  0  0  0  0  0  0
  182.7760  178.2270  140.8530 C   0  0  0  0  0  0  0  0  0  0  0  0
  181.5300  178.1100  140.5380 N   0  0  0  0  0  2  0  0  0  0  0  0
  183.5470  178.2470  142.1260 C   0  0  0  0  0  2  0  0  0  0  0  0
  184.7280  178.4390  141.3400 C   0  0  2  0  0  3  0  0  0  0  0  0
  184.0110  178.3910  140.1170 O   0  0  0  0  0  0  0  0  0  0  0  0
  2  3  1  0  0  0  0
  2  7  1  0  0  0  0
  3 30  1  1  0  0  0
  3  5  1  0  0  0  0
  4  1  1  0  0  0  0
  5  1  1  0  0  0  0
  6  2  2  0  0  0  0
  7  4  1  0  0  0  0
  8  6  1  0  0  0  0
  9 10  1  0  0  0  0
  9  8  1  0  0  0  0
 10 12  1  0  0  0  0
 11 10  2  0  0  0  0
 12 14  1  0  0  0  0
 14 15  2  6  0  0  0
 14 13  1  0  0  0  0
 14 17  1  0  0  0  0
 16 23  1  0  0  0  0
 17 25  1  6  0  0  0
 17 26  1  0  0  0  0
 18 22  1  0  0  0  0
 18 24  1  0  0  0  0
 20 17  1  0  0  0  0
 20 19  1  1  0  0  0
 20 24  1  0  0  0  0
 22 24  1  0  0  0  0
 23 21  1  0  0  0  0
 23 27  1  1  0  0  0
 24 16  1  0  0  0  0
 26 21  2  0  0  0  0
 27 28  1  0  0  0  0
 27 29  2  0  0  0  0
 30 31  1  0  0  0  0
 32 47  1  6  0  0  0
 32 31  1  0  0  0  0
 32 33  1  0  0  0  0
 33 39  1  0  0  0  0
 33 41  1  1  0  0  0
 34 38  1  0  0  0  0
 35 38  2  0  0  0  0
 36 39  1  0  0  0  0
 36 37  2  0  0  0  0
 37 35  1  0  0  0  0
 39 34  2  0  0  0  0
 40 36  1  0  0  0  0
 41 42  1  0  0  0  0
 42 43  1  0  0  0  0
 43 44  1  0  0  0  0
 44 46  2  0  0  0  0
 44 45  1  0  0  0  0
 48 47  1  0  0  0  0
 49 50  1  0  0  0  0
 49 48  1  0  0  0  0
 51 53  1  0  0  0  0
 52 51  2  0  0  0  0
 54 50  1  6  0  0  0
 54 53  1  0  0  0  0
 55 51  1  0  0  0  0
 55 54  1  0  0  0  0
M  END
>  <MODEL>
3

>  <REMARK>
 VINA RESULT:      -6.2      2.267      5.112
  Name = 
  21 active torsions:
  status: ('A' for Active; 'I' for Inactive)
    1  A    between atoms: C_1  and  C_29
    2  A    between atoms: C_2  and  N_28
    3  A    between atoms: C_2  and  C_31
    4  A    between atoms: C_4  and  O_40
    5  A    between atoms: C_6  and  P_20
    6  A    between atoms: C_8  and  O_22
    7  A    between atoms: C_8  and  C_35
    8  A    between atoms: C_13  and  C_48
    9  A    between atoms: C_13  and  C_52
   10  A    between atoms: C_19  and  O_40
   11  A    between atoms: C_19  and  C_45
   12  A    between atoms: P_20  and  O_22
   13  A    between atoms: C_26  and  C_49
   14  A    between atoms: N_28  and  C_33
   15  A    between atoms: C_33  and  C_34
   16  A    between atoms: C_33  and  C_49
   17  A    between atoms: C_34  and  C_52
   18  A    between atoms: C_35  and  O_51
   19  A    between atoms: C_39  and  C_48
   20  A    between atoms: C_45  and  C_49
   21  A    between atoms: O_51  and  N_54
                            x       y       z     vdW  Elec       q    Type
                         _______ _______ _______ _____ _____    ______ ____

>  <TORSDO>
F 21

$$$$
=
 OpenBabel11052419503D

 55 59  0  0  1  0  0  0  0  0999 V2000
  188.8930  173.2300  141.5420 C   0  0  0  0  0  2  0  0  0  0  0  0
  190.9980  173.5820  143.4240 C   0  0  0  0  0  0  0  0  0  0  0  0
  191.4490  173.4740  141.9920 C   0  0  2  0  0  3  0  0  0  0  0  0
  188.9630  172.2800  142.7280 C   0  0  0  0  0  2  0  0  0  0  0  0
  190.2970  173.5000  140.9670 C   0  0  0  0  0  2  0  0  0  0  0  0
  191.7730  174.1730  144.2770 N   0  0  0  0  0  0  0  0  0  0  0  0
  189.6950  172.9690  143.8750 C   0  0  0  0  0  2  0  0  0  0  0  0
  191.4280  174.2840  145.6030 O   0  0  0  0  0  0  0  0  0  0  0  0
  192.2210  175.0570  146.4860 C   0  0  0  0  0  2  0  0  0  0  0  0
  191.4690  176.2800  146.8740 C   0  0  0  0  0  0  0  0  0  0  0  0
  191.7120  176.8310  147.9810 O   0  0  0  0  0  0  0  0  0  0  0  0
  190.4950  176.7880  146.0130 O   0  0  0  0  0  0  0  0  0  0  0  0
  188.3600  175.2130  146.8840 O   0  0  0  0  0  0  0  0  0  0  0  0
  188.8190  176.7710  146.4040 P   0  0  1  0  0  0  0  0  0  0  0  0
  188.5670  177.7290  147.5470 O   0  0  0  0  0  1  0  0  0  0  0  0
  185.3030  177.6530  142.9630 C   0  0  0  0  0  2  0  0  0  0  0  0
  187.8510  177.2780  144.9410 C   0  0  1  0  0  0  0  0  0  0  0  0
  185.6490  179.8270  144.2990 C   0  0  0  0  0  2  0  0  0  0  0  0
  185.7350  176.4640  145.8190 O   0  0  0  0  0  1  0  0  0  0  0  0
  186.4090  177.6100  145.3820 C   0  0  2  0  0  3  0  0  0  0  0  0
  187.3360  176.2240  142.7040 C   0  0  0  0  0  3  0  0  0  0  0  0
  184.4190  179.1100  144.8450 C   0  0  0  0  0  2  0  0  0  0  0  0
  186.5950  177.4260  142.1870 C   0  0  1  0  0  3  0  0  0  0  0  0
  185.5870  178.3160  144.3030 C   0  0  0  0  0  0  0  0  0  0  0  0
  188.4520  178.4170  144.3990 O   0  0  0  0  0  1  0  0  0  0  0  0
  187.8900  176.1620  143.9250 C   0  0  0  0  0  3  0  0  0  0  0  0
  186.2980  177.2740  140.7310 C   0  0  0  0  0  0  0  0  0  0  0  0
  185.1500  177.8940  140.1560 N   0  0  0  0  0  1  0  0  0  0  0  0
  187.0820  176.6110  139.9980 O   0  0  0  0  0  0  0  0  0  0  0  0
  192.2850  172.2160  141.8170 C   0  0  0  0  0  2  0  0  0  0  0  0
  193.6840  172.5730  141.5800 N   0  0  0  0  0  2  0  0  0  0  0  0
  193.8750  173.0140  140.1930 C   0  0  1  0  0  3  0  0  0  0  0  0
  194.7330  174.2880  140.0950 C   0  0  1  0  0  3  0  0  0  0  0  0
  193.6410  175.1800  138.0360 C   0  0  0  0  0  3  0  0  0  0  0  0
  194.8870  175.7640  136.0450 C   0  0  0  0  0  3  0  0  0  0  0  0
  196.0480  174.9010  137.9890 C   0  0  0  0  0  0  0  0  0  0  0  0
  196.0720  175.3850  136.6770 C   0  0  0  0  0  3  0  0  0  0  0  0
  193.6710  175.6600  136.7230 C   0  0  0  0  0  3  0  0  0  0  0  0
  194.8220  174.7990  138.6790 C   0  0  0  0  0  0  0  0  0  0  0  0
  197.2410  174.5230  138.5950 O   0  0  0  0  0  1  0  0  0  0  0  0
  194.2140  175.3750  141.0380 C   0  0  0  0  0  2  0  0  0  0  0  0
  195.2710  176.4410  141.2860 C   0  0  0  0  0  2  0  0  0  0  0  0
  196.0860  176.0700  142.3920 O   0  0  0  0  0  0  0  0  0  0  0  0
  195.5350  175.6060  143.5890 C   0  0  0  0  0  0  0  0  0  0  0  0
  195.0570  176.5860  144.6010 C   0  0  0  0  0  1  0  0  0  0  0  0
  195.4400  174.3710  143.8230 O   0  0  0  0  0  0  0  0  0  0  0  0
  194.4190  171.8840  139.3130 C   0  0  0  0  0  2  0  0  0  0  0  0
  193.2860  171.1090  138.6590 C   0  0  0  0  0  2  0  0  0  0  0  0
  192.2130  172.0660  138.1530 C   0  0  0  0  0  2  0  0  0  0  0  0
  191.7220  171.6310  136.7780 C   0  0  0  0  0  2  0  0  0  0  0  0
  188.9810  172.9090  137.4730 C   0  0  0  0  0  0  0  0  0  0  0  0
  188.1870  173.8190  137.9270 N   0  0  0  0  0  2  0  0  0  0  0  0
  189.5760  172.5920  136.1460 C   0  0  0  0  0  2  0  0  0  0  0  0
  190.2050  171.4640  136.7630 C   0  0  2  0  0  3  0  0  0  0  0  0
  189.6710  171.7710  138.0400 O   0  0  0  0  0  0  0  0  0  0  0  0
  1  4  1  0  0  0  0
  2  7  1  0  0  0  0
  2  6  2  0  0  0  0
  3 30  1  1  0  0  0
  3  2  1  0  0  0  0
  4  7  1  0  0  0  0
  5  1  1  0  0  0  0
  5  3  1  0  0  0  0
  6  8  1  0  0  0  0
  8  9  1  0  0  0  0
  9 10  1  0  0  0  0
 10 11  2  0  0  0  0
 12 14  1  0  0  0  0
 12 10  1  0  0  0  0
 14 13  2  1  0  0  0
 14 15  1  0  0  0  0
 16 24  1  0  0  0  0
 17 25  1  6  0  0  0
 17 20  1  0  0  0  0
 17 14  1  0  0  0  0
 18 24  1  0  0  0  0
 18 22  1  0  0  0  0
 20 19  1  6  0  0  0
 21 26  2  0  0  0  0
 23 27  1  6  0  0  0
 23 21  1  0  0  0  0
 23 16  1  0  0  0  0
 24 22  1  0  0  0  0
 24 20  1  0  0  0  0
 26 17  1  0  0  0  0
 28 27  1  0  0  0  0
 29 27  2  0  0  0  0
 31 30  1  0  0  0  0
 32 47  1  6  0  0  0
 32 31  1  0  0  0  0
 33 32  1  0  0  0  0
 33 41  1  1  0  0  0
 34 39  1  0  0  0  0
 35 37  2  0  0  0  0
 35 38  1  0  0  0  0
 36 40  1  0  0  0  0
 36 39  2  0  0  0  0
 37 36  1  0  0  0  0
 38 34  2  0  0  0  0
 39 33  1  0  0  0  0
 41 42  1  0  0  0  0
 42 43  1  0  0  0  0
 43 44  1  0  0  0  0
 44 46  2  0  0  0  0
 44 45  1  0  0  0  0
 48 47  1  0  0  0  0
 49 48  1  0  0  0  0
 50 49  1  0  0  0  0
 51 52  2  0  0  0  0
 51 55  1  0  0  0  0
 53 54  1  0  0  0  0
 53 51  1  0  0  0  0
 54 50  1  1  0  0  0
 54 55  1  0  0  0  0
M  END
>  <MODEL>
4

>  <REMARK>
 VINA RESULT:      -5.9      2.642      9.217
  Name = 
  21 active torsions:
  status: ('A' for Active; 'I' for Inactive)
    1  A    between atoms: C_1  and  C_29
    2  A    between atoms: C_2  and  N_28
    3  A    between atoms: C_2  and  C_31
    4  A    between atoms: C_4  and  O_40
    5  A    between atoms: C_6  and  P_20
    6  A    between atoms: C_8  and  O_22
    7  A    between atoms: C_8  and  C_35
    8  A    between atoms: C_13  and  C_48
    9  A    between atoms: C_13  and  C_52
   10  A    between atoms: C_19  and  O_40
   11  A    between atoms: C_19  and  C_45
   12  A    between atoms: P_20  and  O_22
   13  A    between atoms: C_26  and  C_49
   14  A    between atoms: N_28  and  C_33
   15  A    between atoms: C_33  and  C_34
   16  A    between atoms: C_33  and  C_49
   17  A    between atoms: C_34  and  C_52
   18  A    between atoms: C_35  and  O_51
   19  A    between atoms: C_39  and  C_48
   20  A    between atoms: C_45  and  C_49
   21  A    between atoms: O_51  and  N_54
                            x       y       z     vdW  Elec       q    Type
                         _______ _______ _______ _____ _____    ______ ____

>  <TORSDO>
F 21

$$$$
=
 OpenBabel11052419503D

 55 59  0  0  1  0  0  0  0  0999 V2000
  190.9370  176.4910  147.5780 C   0  0  0  0  0  2  0  0  0  0  0  0
  192.7290  176.6720  145.3760 C   0  0  0  0  0  0  0  0  0  0  0  0
  191.3640  177.2510  145.1220 C   0  0  2  0  0  3  0  0  0  0  0  0
  191.6290  175.2200  147.1100 C   0  0  0  0  0  2  0  0  0  0  0  0
  190.4760  177.3430  146.3800 C   0  0  0  0  0  2  0  0  0  0  0  0
  193.7230  177.0840  144.6560 N   0  0  0  0  0  0  0  0  0  0  0  0
  192.9340  175.5930  146.4120 C   0  0  0  0  0  2  0  0  0  0  0  0
  194.9900  176.5760  144.8240 O   0  0  0  0  0  0  0  0  0  0  0  0
  195.8500  176.4160  143.7090 C   0  0  0  0  0  2  0  0  0  0  0  0
  196.8100  175.3160  143.9870 C   0  0  0  0  0  0  0  0  0  0  0  0
  197.9410  175.3270  143.4320 O   0  0  0  0  0  0  0  0  0  0  0  0
  196.4370  174.2800  144.8450 O   0  0  0  0  0  0  0  0  0  0  0  0
  196.9880  172.5000  142.7650 O   0  0  0  0  0  0  0  0  0  0  0  0
  196.3610  172.6390  144.3320 P   0  0  1  0  0  0  0  0  0  0  0  0
  197.1910  171.7890  145.2680 O   0  0  0  0  0  1  0  0  0  0  0  0
  191.8260  170.8030  143.3080 C   0  0  0  0  0  2  0  0  0  0  0  0
  194.6230  172.0770  144.3550 C   0  0  1  0  0  0  0  0  0  0  0  0
  193.1050  169.0170  144.6510 C   0  0  0  0  0  2  0  0  0  0  0  0
  194.6840  171.1690  142.1010 O   0  0  0  0  0  1  0  0  0  0  0  0
  194.4830  170.8380  143.4450 C   0  0  2  0  0  3  0  0  0  0  0  0
  192.4000  173.1700  143.8630 C   0  0  0  0  0  3  0  0  0  0  0  0
  193.1840  168.6610  143.1700 C   0  0  0  0  0  2  0  0  0  0  0  0
  191.5960  171.9660  144.2660 C   0  0  1  0  0  3  0  0  0  0  0  0
  193.1480  170.1090  143.6060 C   0  0  0  0  0  0  0  0  0  0  0  0
  194.2980  171.7350  145.6700 O   0  0  0  0  0  1  0  0  0  0  0  0
  193.7410  173.2160  143.9030 C   0  0  0  0  0  3  0  0  0  0  0  0
  190.1420  172.3010  144.3250 C   0  0  0  0  0  0  0  0  0  0  0  0
  189.1930  171.5520  143.5670 N   0  0  0  0  0  1  0  0  0  0  0  0
  189.7450  173.2380  145.0700 O   0  0  0  0  0  0  0  0  0  0  0  0
  190.6640  176.4470  144.0390 C   0  0  0  0  0  2  0  0  0  0  0  0
  189.4620  177.1490  143.5900 N   0  0  0  0  0  2  0  0  0  0  0  0
  188.2740  176.3060  143.7740 C   0  0  1  0  0  3  0  0  0  0  0  0
  186.9680  177.1200  143.7660 C   0  0  1  0  0  3  0  0  0  0  0  0
  185.7630  178.6730  145.3030 C   0  0  0  0  0  3  0  0  0  0  0  0
  185.7130  178.3570  147.7020 C   0  0  0  0  0  3  0  0  0  0  0  0
  186.9190  176.7900  146.3010 C   0  0  0  0  0  0  0  0  0  0  0  0
  186.4980  177.2110  147.5670 C   0  0  0  0  0  3  0  0  0  0  0  0
  185.3480  179.0900  146.5720 C   0  0  0  0  0  3  0  0  0  0  0  0
  186.5470  177.5240  145.1560 C   0  0  0  0  0  0  0  0  0  0  0  0
  187.7050  175.6480  146.1930 O   0  0  0  0  0  1  0  0  0  0  0  0
  187.0860  178.3400  142.8520 C   0  0  0  0  0  2  0  0  0  0  0  0
  186.1070  178.2550  141.6890 C   0  0  0  0  0  2  0  0  0  0  0  0
  184.9180  177.5910  142.1020 O   0  0  0  0  0  0  0  0  0  0  0  0
  183.6680  178.2100  142.0320 C   0  0  0  0  0  0  0  0  0  0  0  0
  182.9630  178.2840  140.7240 C   0  0  0  0  0  1  0  0  0  0  0  0
  183.1310  178.7070  143.0590 O   0  0  0  0  0  0  0  0  0  0  0  0
  188.2410  175.1530  142.7660 C   0  0  0  0  0  2  0  0  0  0  0  0
  187.8130  175.6410  141.3910 C   0  0  0  0  0  2  0  0  0  0  0  0
  188.5280  174.8500  140.3020 C   0  0  0  0  0  2  0  0  0  0  0  0
  188.5420  173.3660  140.6500 C   0  0  0  0  0  2  0  0  0  0  0  0
  191.3300  172.4050  139.6830 C   0  0  0  0  0  0  0  0  0  0  0  0
  192.6160  172.2980  139.7140 N   0  0  0  0  0  2  0  0  0  0  0  0
  190.1910  171.6230  140.2360 C   0  0  0  0  0  2  0  0  0  0  0  0
  189.3150  172.5640  139.6060 C   0  0  2  0  0  3  0  0  0  0  0  0
  190.3910  173.3380  139.0990 O   0  0  0  0  0  0  0  0  0  0  0  0
  2  7  1  0  0  0  0
  3 30  1  6  0  0  0
  3  2  1  0  0  0  0
  3  5  1  0  0  0  0
  4  1  1  0  0  0  0
  5  1  1  0  0  0  0
  6  8  1  0  0  0  0
  6  2  2  0  0  0  0
  7  4  1  0  0  0  0
  9 10  1  0  0  0  0
  9  8  1  0  0  0  0
 10 12  1  0  0  0  0
 11 10  2  0  0  0  0
 14 13  2  6  0  0  0
 14 17  1  0  0  0  0
 14 12  1  0  0  0  0
 14 15  1  0  0  0  0
 16 24  1  0  0  0  0
 16 23  1  0  0  0  0
 17 25  1  1  0  0  0
 20 19  1  6  0  0  0
 20 24  1  0  0  0  0
 20 17  1  0  0  0  0
 21 26  2  0  0  0  0
 21 23  1  0  0  0  0
 22 24  1  0  0  0  0
 22 18  1  0  0  0  0
 23 27  1  6  0  0  0
 24 18  1  0  0  0  0
 26 17  1  0  0  0  0
 27 29  2  0  0  0  0
 28 27  1  0  0  0  0
 31 32  1  0  0  0  0
 31 30  1  0  0  0  0
 32 47  1  6  0  0  0
 33 41  1  6  0  0  0
 33 32  1  0  0  0  0
 33 39  1  0  0  0  0
 34 38  1  0  0  0  0
 36 37  2  0  0  0  0
 37 35  1  0  0  0  0
 38 35  2  0  0  0  0
 39 34  2  0  0  0  0
 39 36  1  0  0  0  0
 40 36  1  0  0  0  0
 42 43  1  0  0  0  0
 42 41  1  0  0  0  0
 44 43  1  0  0  0  0
 44 46  2  0  0  0  0
 45 44  1  0  0  0  0
 48 47  1  0  0  0  0
 49 50  1  0  0  0  0
 49 48  1  0  0  0  0
 51 52  2  0  0  0  0
 51 53  1  0  0  0  0
 54 53  1  0  0  0  0
 54 50  1  1  0  0  0
 55 54  1  0  0  0  0
 55 51  1  0  0  0  0
M  END
>  <MODEL>
5

>  <REMARK>
 VINA RESULT:      -5.8      2.908      8.056
  Name = 
  21 active torsions:
  status: ('A' for Active; 'I' for Inactive)
    1  A    between atoms: C_1  and  C_29
    2  A    between atoms: C_2  and  N_28
    3  A    between atoms: C_2  and  C_31
    4  A    between atoms: C_4  and  O_40
    5  A    between atoms: C_6  and  P_20
    6  A    between atoms: C_8  and  O_22
    7  A    between atoms: C_8  and  C_35
    8  A    between atoms: C_13  and  C_48
    9  A    between atoms: C_13  and  C_52
   10  A    between atoms: C_19  and  O_40
   11  A    between atoms: C_19  and  C_45
   12  A    between atoms: P_20  and  O_22
   13  A    between atoms: C_26  and  C_49
   14  A    between atoms: N_28  and  C_33
   15  A    between atoms: C_33  and  C_34
   16  A    between atoms: C_33  and  C_49
   17  A    between atoms: C_34  and  C_52
   18  A    between atoms: C_35  and  O_51
   19  A    between atoms: C_39  and  C_48
   20  A    between atoms: C_45  and  C_49
   21  A    between atoms: O_51  and  N_54
                            x       y       z     vdW  Elec       q    Type
                         _______ _______ _______ _____ _____    ______ ____

>  <TORSDO>
F 21

$$$$
=
 OpenBabel11052419503D

 55 59  0  0  1  0  0  0  0  0999 V2000
  185.6920  177.3320  142.1180 C   0  0  0  0  0  2  0  0  0  0  0  0
  187.7560  175.7490  140.9630 C   0  0  0  0  0  0  0  0  0  0  0  0
  187.8440  175.9000  142.4580 C   0  0  2  0  0  3  0  0  0  0  0  0
  186.4910  177.9220  140.9650 C   0  0  0  0  0  2  0  0  0  0  0  0
  186.6110  176.5750  143.0950 C   0  0  0  0  0  2  0  0  0  0  0  0
  188.3320  174.7320  140.4060 N   0  0  0  0  0  0  0  0  0  0  0  0
  187.0560  176.7860  140.1190 C   0  0  0  0  0  2  0  0  0  0  0  0
  188.3070  174.5510  139.0440 O   0  0  0  0  0  0  0  0  0  0  0  0
  188.8780  173.3890  138.4660 C   0  0  0  0  0  2  0  0  0  0  0  0
  189.9890  173.7890  137.5630 C   0  0  0  0  0  0  0  0  0  0  0  0
  189.7630  173.9360  136.3320 O   0  0  0  0  0  0  0  0  0  0  0  0
  191.2680  173.9770  138.0890 O   0  0  0  0  0  0  0  0  0  0  0  0
  192.0120  171.2870  138.0420 O   0  0  0  0  0  1  0  0  0  0  0  0
  192.5560  172.8720  137.8030 P   0  0  1  0  0  0  0  0  0  0  0  0
  193.0240  173.0180  136.3720 O   0  0  0  0  0  0  0  0  0  0  0  0
  196.8510  173.0300  140.3550 C   0  0  0  0  0  2  0  0  0  0  0  0
  193.9310  173.2350  138.9490 C   0  0  1  0  0  0  0  0  0  0  0  0
  196.8670  174.9860  138.6800 C   0  0  0  0  0  2  0  0  0  0  0  0
  195.4640  171.6580  137.9140 O   0  0  0  0  0  1  0  0  0  0  0  0
  195.2700  173.0110  138.2140 C   0  0  2  0  0  3  0  0  0  0  0  0
  194.6000  172.3980  141.2360 C   0  0  0  0  0  3  0  0  0  0  0  0
  197.6800  173.8360  138.0940 C   0  0  0  0  0  2  0  0  0  0  0  0
  195.7560  173.3500  141.3650 C   0  0  1  0  0  3  0  0  0  0  0  0
  196.4820  173.5530  138.9730 C   0  0  0  0  0  0  0  0  0  0  0  0
  193.8260  174.5730  139.3390 O   0  0  0  0  0  1  0  0  0  0  0  0
  193.7940  172.3490  140.1640 C   0  0  0  0  0  3  0  0  0  0  0  0
  196.3120  173.3160  142.7510 C   0  0  0  0  0  0  0  0  0  0  0  0
  195.7470  172.4570  143.7390 N   0  0  0  0  0  1  0  0  0  0  0  0
  197.3070  174.0350  143.0440 O   0  0  0  0  0  0  0  0  0  0  0  0
  189.1080  176.6630  142.8180 C   0  0  0  0  0  2  0  0  0  0  0  0
  190.2770  175.7970  142.6660 N   0  0  0  0  0  2  0  0  0  0  0  0
  190.7460  175.3300  143.9770 C   0  0  1  0  0  3  0  0  0  0  0  0
  191.9510  174.3790  143.8660 C   0  0  1  0  0  3  0  0  0  0  0  0
  193.6720  174.7200  145.6410 C   0  0  0  0  0  3  0  0  0  0  0  0
  195.5840  176.1730  145.3440 C   0  0  0  0  0  3  0  0  0  0  0  0
  193.9690  175.9190  143.5550 C   0  0  0  0  0  0  0  0  0  0  0  0
  195.1450  176.4860  144.0560 C   0  0  0  0  0  3  0  0  0  0  0  0
  194.8470  175.2930  146.1370 C   0  0  0  0  0  3  0  0  0  0  0  0
  193.2240  175.0240  144.3510 C   0  0  0  0  0  0  0  0  0  0  0  0
  193.5490  176.2510  142.2720 O   0  0  0  0  0  1  0  0  0  0  0  0
  191.6850  173.0670  144.6050 C   0  0  0  0  0  2  0  0  0  0  0  0
  192.0740  171.8660  143.7530 C   0  0  0  0  0  2  0  0  0  0  0  0
  190.9070  171.1570  143.3520 O   0  0  0  0  0  0  0  0  0  0  0  0
  190.0560  171.6430  142.3570 C   0  0  0  0  0  0  0  0  0  0  0  0
  188.7730  172.2880  142.7450 C   0  0  0  0  0  1  0  0  0  0  0  0
  190.3590  171.5410  141.1370 O   0  0  0  0  0  0  0  0  0  0  0  0
  191.0210  176.5020  144.9250 C   0  0  0  0  0  2  0  0  0  0  0  0
  190.4510  176.2300  146.3090 C   0  0  0  0  0  2  0  0  0  0  0  0
  189.2050  175.3580  146.2050 C   0  0  0  0  0  2  0  0  0  0  0  0
  188.1940  175.7510  147.2750 C   0  0  0  0  0  2  0  0  0  0  0  0
  186.3510  178.2470  147.2610 C   0  0  0  0  0  0  0  0  0  0  0  0
  185.9410  179.4110  147.6390 N   0  0  0  0  0  2  0  0  0  0  0  0
  187.2830  177.7440  146.2150 C   0  0  0  0  0  2  0  0  0  0  0  0
  186.9700  176.4190  146.6570 C   0  0  2  0  0  3  0  0  0  0  0  0
  186.1030  176.8850  147.6790 O   0  0  0  0  0  0  0  0  0  0  0  0
  1  5  1  0  0  0  0
  2  3  1  0  0  0  0
  3 30  1  6  0  0  0
  3  5  1  0  0  0  0
  4  1  1  0  0  0  0
  6  2  2  0  0  0  0
  7  2  1  0  0  0  0
  7  4  1  0  0  0  0
  8  6  1  0  0  0  0
  9  8  1  0  0  0  0
 10 12  1  0  0  0  0
 10  9  1  0  0  0  0
 11 10  2  0  0  0  0
 14 15  2  6  0  0  0
 14 13  1  0  0  0  0
 14 12  1  0  0  0  0
 14 17  1  0  0  0  0
 16 23  1  0  0  0  0
 17 25  1  1  0  0  0
 17 26  1  0  0  0  0
 18 24  1  0  0  0  0
 20 19  1  1  0  0  0
 20 17  1  0  0  0  0
 20 24  1  0  0  0  0
 21 23  1  0  0  0  0
 22 18  1  0  0  0  0
 22 24  1  0  0  0  0
 23 27  1  1  0  0  0
 24 16  1  0  0  0  0
 26 21  2  0  0  0  0
 27 29  2  0  0  0  0
 27 28  1  0  0  0  0
 31 30  1  0  0  0  0
 31 32  1  0  0  0  0
 32 47  1  1  0  0  0
 33 32  1  0  0  0  0
 33 39  1  0  0  0  0
 33 41  1  1  0  0  0
 34 38  1  0  0  0  0
 35 38  2  0  0  0  0
 36 37  2  0  0  0  0
 36 39  1  0  0  0  0
 37 35  1  0  0  0  0
 39 34  2  0  0  0  0
 40 36  1  0  0  0  0
 42 41  1  0  0  0  0
 43 42  1  0  0  0  0
 44 45  1  0  0  0  0
 44 43  1  0  0  0  0
 46 44  2  0  0  0  0
 47 48  1  0  0  0  0
 49 48  1  0  0  0  0
 49 50  1  0  0  0  0
 51 52  2  0  0  0  0
 51 55  1  0  0  0  0
 53 54  1  0  0  0  0
 53 51  1  0  0  0  0
 54 50  1  1  0  0  0
 54 55  1  0  0  0  0
M  END
>  <MODEL>
6

>  <REMARK>
 VINA RESULT:      -5.8      1.581      3.120
  Name = 
  21 active torsions:
  status: ('A' for Active; 'I' for Inactive)
    1  A    between atoms: C_1  and  C_29
    2  A    between atoms: C_2  and  N_28
    3  A    between atoms: C_2  and  C_31
    4  A    between atoms: C_4  and  O_40
    5  A    between atoms: C_6  and  P_20
    6  A    between atoms: C_8  and  O_22
    7  A    between atoms: C_8  and  C_35
    8  A    between atoms: C_13  and  C_48
    9  A    between atoms: C_13  and  C_52
   10  A    between atoms: C_19  and  O_40
   11  A    between atoms: C_19  and  C_45
   12  A    between atoms: P_20  and  O_22
   13  A    between atoms: C_26  and  C_49
   14  A    between atoms: N_28  and  C_33
   15  A    between atoms: C_33  and  C_34
   16  A    between atoms: C_33  and  C_49
   17  A    between atoms: C_34  and  C_52
   18  A    between atoms: C_35  and  O_51
   19  A    between atoms: C_39  and  C_48
   20  A    between atoms: C_45  and  C_49
   21  A    between atoms: O_51  and  N_54
                            x       y       z     vdW  Elec       q    Type
                         _______ _______ _______ _____ _____    ______ ____

>  <TORSDO>
F 21

$$$$
=
 OpenBabel11052419503D

 55 59  0  0  1  0  0  0  0  0999 V2000
  186.0030  177.7550  143.3480 C   0  0  0  0  0  2  0  0  0  0  0  0
  188.7780  177.2610  142.9590 C   0  0  0  0  0  0  0  0  0  0  0  0
  187.8740  176.5780  141.9670 C   0  0  2  0  0  3  0  0  0  0  0  0
  186.8160  177.2520  144.5310 C   0  0  0  0  0  2  0  0  0  0  0  0
  186.3990  177.0210  142.0530 C   0  0  0  0  0  2  0  0  0  0  0  0
  190.0110  177.4790  142.6280 N   0  0  0  0  0  0  0  0  0  0  0  0
  188.2780  177.6400  144.3310 C   0  0  0  0  0  2  0  0  0  0  0  0
  190.8920  178.0770  143.4980 O   0  0  0  0  0  0  0  0  0  0  0  0
  191.7670  177.2880  144.2840 C   0  0  0  0  0  2  0  0  0  0  0  0
  192.5250  176.3680  143.3970 C   0  0  0  0  0  0  0  0  0  0  0  0
  192.8530  176.7510  142.2420 O   0  0  0  0  0  0  0  0  0  0  0  0
  192.8460  175.0870  143.8500 O   0  0  0  0  0  0  0  0  0  0  0  0
  195.5130  175.8500  144.1720 O   0  0  0  0  0  0  0  0  0  0  0  0
  194.3300  174.7350  144.6470 P   0  0  1  0  0  0  0  0  0  0  0  0
  194.1270  174.8450  146.1420 O   0  0  0  0  0  1  0  0  0  0  0  0
  196.7490  170.4060  144.0220 C   0  0  0  0  0  2  0  0  0  0  0  0
  194.8640  173.0430  144.2140 C   0  0  1  0  0  0  0  0  0  0  0  0
  195.0550  170.0830  145.9350 C   0  0  0  0  0  2  0  0  0  0  0  0
  196.9730  173.1940  145.4140 O   0  0  0  0  0  1  0  0  0  0  0  0
  195.7630  172.4950  145.3430 C   0  0  2  0  0  3  0  0  0  0  0  0
  196.0530  172.0110  142.2390 C   0  0  0  0  0  3  0  0  0  0  0  0
  196.4300  170.3450  146.5410 C   0  0  0  0  0  2  0  0  0  0  0  0
  195.9230  170.6060  142.7570 C   0  0  1  0  0  3  0  0  0  0  0  0
  196.0370  170.9940  145.2330 C   0  0  0  0  0  0  0  0  0  0  0  0
  193.7220  172.2480  144.0930 O   0  0  0  0  0  1  0  0  0  0  0  0
  195.5840  173.0890  142.8870 C   0  0  0  0  0  3  0  0  0  0  0  0
  196.3380  169.6210  141.7140 C   0  0  0  0  0  0  0  0  0  0  0  0
  195.4290  169.2210  140.6910 N   0  0  0  0  0  1  0  0  0  0  0  0
  197.5110  169.1570  141.7230 O   0  0  0  0  0  0  0  0  0  0  0  0
  187.9840  175.0710  142.1330 C   0  0  0  0  0  2  0  0  0  0  0  0
  188.8260  174.5110  141.0770 N   0  0  0  0  0  2  0  0  0  0  0  0
  189.0270  173.0720  141.2870 C   0  0  1  0  0  3  0  0  0  0  0  0
  190.4470  172.6140  140.9100 C   0  0  1  0  0  3  0  0  0  0  0  0
  189.7190  171.6160  138.7410 C   0  0  0  0  0  3  0  0  0  0  0  0
  190.3360  169.3770  138.0620 C   0  0  0  0  0  3  0  0  0  0  0  0
  191.0930  170.2460  140.1940 C   0  0  0  0  0  0  0  0  0  0  0  0
  191.0440  169.2120  139.2530 C   0  0  0  0  0  3  0  0  0  0  0  0
  189.6710  170.5770  137.8070 C   0  0  0  0  0  3  0  0  0  0  0  0
  190.4280  171.4630  139.9370 C   0  0  0  0  0  0  0  0  0  0  0  0
  191.8000  170.0550  141.3760 O   0  0  0  0  0  1  0  0  0  0  0  0
  191.2730  173.7800  140.3640 C   0  0  0  0  0  2  0  0  0  0  0  0
  192.7580  173.5770  140.6340 C   0  0  0  0  0  2  0  0  0  0  0  0
  193.4900  173.6740  139.4180 O   0  0  0  0  0  0  0  0  0  0  0  0
  194.2000  174.8280  139.0770 C   0  0  0  0  0  0  0  0  0  0  0  0
  194.2060  175.2890  137.6620 C   0  0  0  0  0  1  0  0  0  0  0  0
  194.8370  175.4800  139.9480 O   0  0  0  0  0  0  0  0  0  0  0  0
  188.6450  172.6530  142.7100 C   0  0  0  0  0  2  0  0  0  0  0  0
  189.8630  172.1670  143.4820 C   0  0  0  0  0  2  0  0  0  0  0  0
  189.7100  172.4850  144.9650 C   0  0  0  0  0  2  0  0  0  0  0  0
  189.6830  173.9920  145.1830 C   0  0  0  0  0  2  0  0  0  0  0  0
  190.1860  176.1850  147.3200 C   0  0  0  0  0  0  0  0  0  0  0  0
  190.5010  177.3610  147.7510 N   0  0  0  0  0  2  0  0  0  0  0  0
  188.9200  175.5070  146.9300 C   0  0  0  0  0  2  0  0  0  0  0  0
  189.6970  174.3330  146.6700 C   0  0  2  0  0  3  0  0  0  0  0  0
  190.9160  174.9760  147.0090 O   0  0  0  0  0  0  0  0  0  0  0  0
  1  4  1  0  0  0  0
  2  7  1  0  0  0  0
  3  5  1  0  0  0  0
  3 30  1  1  0  0  0
  3  2  1  0  0  0  0
  5  1  1  0  0  0  0
  6  2  2  0  0  0  0
  6  8  1  0  0  0  0
  7  4  1  0  0  0  0
  8  9  1  0  0  0  0
 10 12  1  0  0  0  0
 10  9  1  0  0  0  0
 11 10  2  0  0  0  0
 12 14  1  0  0  0  0
 14 13  2  6  0  0  0
 14 15  1  0  0  0  0
 16 24  1  0  0  0  0
 17 25  1  6  0  0  0
 17 14  1  0  0  0  0
 17 20  1  0  0  0  0
 18 22  1  0  0  0  0
 20 19  1  6  0  0  0
 21 23  1  0  0  0  0
 21 26  2  0  0  0  0
 23 27  1  6  0  0  0
 23 16  1  0  0  0  0
 24 20  1  0  0  0  0
 24 18  1  0  0  0  0
 24 22  1  0  0  0  0
 26 17  1  0  0  0  0
 27 29  2  0  0  0  0
 28 27  1  0  0  0  0
 31 32  1  0  0  0  0
 31 30  1  0  0  0  0
 32 47  1  1  0  0  0
 33 41  1  6  0  0  0
 33 32  1  0  0  0  0
 34 39  1  0  0  0  0
 35 37  2  0  0  0  0
 36 40  1  0  0  0  0
 37 36  1  0  0  0  0
 38 35  1  0  0  0  0
 38 34  2  0  0  0  0
 39 36  2  0  0  0  0
 39 33  1  0  0  0  0
 41 42  1  0  0  0  0
 43 42  1  0  0  0  0
 44 43  1  0  0  0  0
 44 46  2  0  0  0  0
 45 44  1  0  0  0  0
 47 48  1  0  0  0  0
 48 49  1  0  0  0  0
 49 50  1  0  0  0  0
 51 52  2  0  0  0  0
 53 51  1  0  0  0  0
 54 50  1  6  0  0  0
 54 53  1  0  0  0  0
 54 55  1  0  0  0  0
 55 51  1  0  0  0  0
M  END
>  <MODEL>
7

>  <REMARK>
 VINA RESULT:      -5.7      2.814      5.827
  Name = 
  21 active torsions:
  status: ('A' for Active; 'I' for Inactive)
    1  A    between atoms: C_1  and  C_29
    2  A    between atoms: C_2  and  N_28
    3  A    between atoms: C_2  and  C_31
    4  A    between atoms: C_4  and  O_40
    5  A    between atoms: C_6  and  P_20
    6  A    between atoms: C_8  and  O_22
    7  A    between atoms: C_8  and  C_35
    8  A    between atoms: C_13  and  C_48
    9  A    between atoms: C_13  and  C_52
   10  A    between atoms: C_19  and  O_40
   11  A    between atoms: C_19  and  C_45
   12  A    between atoms: P_20  and  O_22
   13  A    between atoms: C_26  and  C_49
   14  A    between atoms: N_28  and  C_33
   15  A    between atoms: C_33  and  C_34
   16  A    between atoms: C_33  and  C_49
   17  A    between atoms: C_34  and  C_52
   18  A    between atoms: C_35  and  O_51
   19  A    between atoms: C_39  and  C_48
   20  A    between atoms: C_45  and  C_49
   21  A    between atoms: O_51  and  N_54
                            x       y       z     vdW  Elec       q    Type
                         _______ _______ _______ _____ _____    ______ ____

>  <TORSDO>
F 21

$$$$
=
 OpenBabel11052419503D

 55 59  0  0  1  0  0  0  0  0999 V2000
  186.6980  175.8270  142.2730 C   0  0  0  0  0  2  0  0  0  0  0  0
  188.1130  174.6460  140.1060 C   0  0  0  0  0  0  0  0  0  0  0  0
  188.4070  174.0390  141.4510 C   0  0  2  0  0  3  0  0  0  0  0  0
  187.4900  176.7400  141.3490 C   0  0  0  0  0  2  0  0  0  0  0  0
  187.4820  174.5380  142.5810 C   0  0  0  0  0  2  0  0  0  0  0  0
  188.3270  173.9360  139.0440 N   0  0  0  0  0  0  0  0  0  0  0  0
  187.6280  176.0700  139.9860 C   0  0  0  0  0  2  0  0  0  0  0  0
  188.0990  174.4410  137.7860 O   0  0  0  0  0  0  0  0  0  0  0  0
  189.1210  174.4010  136.8040 C   0  0  0  0  0  2  0  0  0  0  0  0
  189.8380  173.1030  136.8980 C   0  0  0  0  0  0  0  0  0  0  0  0
  189.2570  172.0460  136.5320 O   0  0  0  0  0  0  0  0  0  0  0  0
  191.1380  173.0720  137.4070 O   0  0  0  0  0  0  0  0  0  0  0  0
  190.6060  171.5220  139.6670 O   0  0  0  0  0  1  0  0  0  0  0  0
  191.7060  171.7950  138.4100 P   0  0  1  0  0  0  0  0  0  0  0  0
  191.8270  170.5330  137.5840 O   0  0  0  0  0  0  0  0  0  0  0  0
  195.9470  172.1660  141.0280 C   0  0  0  0  0  2  0  0  0  0  0  0
  193.3350  172.2460  139.1010 C   0  0  1  0  0  0  0  0  0  0  0  0
  196.4910  170.9290  138.8360 C   0  0  0  0  0  2  0  0  0  0  0  0
  193.3600  170.4420  140.7300 O   0  0  0  0  0  1  0  0  0  0  0  0
  194.0310  170.9700  139.6220 C   0  0  2  0  0  3  0  0  0  0  0  0
  194.1230  173.8660  140.8710 C   0  0  0  0  0  3  0  0  0  0  0  0
  196.3220  169.8990  139.9480 C   0  0  0  0  0  2  0  0  0  0  0  0
  195.5810  173.5910  140.6280 C   0  0  1  0  0  3  0  0  0  0  0  0
  195.5090  171.1740  139.9600 C   0  0  0  0  0  0  0  0  0  0  0  0
  194.0970  172.8120  138.0750 O   0  0  0  0  0  1  0  0  0  0  0  0
  193.1310  173.2680  140.1930 C   0  0  0  0  0  3  0  0  0  0  0  0
  196.4310  174.5670  141.3730 C   0  0  0  0  0  0  0  0  0  0  0  0
  196.7590  175.8300  140.7980 N   0  0  0  0  0  1  0  0  0  0  0  0
  196.8440  174.2810  142.5300 O   0  0  0  0  0  0  0  0  0  0  0  0
  189.8630  174.2860  141.8120 C   0  0  0  0  0  2  0  0  0  0  0  0
  190.1200  173.8520  143.1850 N   0  0  0  0  0  2  0  0  0  0  0  0
  190.8390  174.8940  143.9290 C   0  0  1  0  0  3  0  0  0  0  0  0
  192.3310  174.5640  144.1100 C   0  0  1  0  0  3  0  0  0  0  0  0
  192.6010  175.5400  146.3910 C   0  0  0  0  0  3  0  0  0  0  0  0
  194.2140  177.2750  146.8860 C   0  0  0  0  0  3  0  0  0  0  0  0
  194.0310  176.4010  144.6330 C   0  0  0  0  0  0  0  0  0  0  0  0
  194.6280  177.2690  145.5530 C   0  0  0  0  0  3  0  0  0  0  0  0
  193.2000  176.4130  147.3050 C   0  0  0  0  0  3  0  0  0  0  0  0
  193.0100  175.5240  145.0540 C   0  0  0  0  0  0  0  0  0  0  0  0
  194.4570  176.4180  143.3100 O   0  0  0  0  0  1  0  0  0  0  0  0
  192.5230  173.1170  144.5680 C   0  0  0  0  0  2  0  0  0  0  0  0
  193.9800  172.6910  144.4540 C   0  0  0  0  0  2  0  0  0  0  0  0
  194.0640  171.4010  143.8610 O   0  0  0  0  0  0  0  0  0  0  0  0
  193.8000  170.2380  144.5880 C   0  0  0  0  0  0  0  0  0  0  0  0
  192.7480  169.3010  144.1090 C   0  0  0  0  0  1  0  0  0  0  0  0
  194.4360  169.9740  145.6440 O   0  0  0  0  0  0  0  0  0  0  0  0
  190.6250  176.2770  143.3070 C   0  0  0  0  0  2  0  0  0  0  0  0
  189.7740  177.1560  144.2110 C   0  0  0  0  0  2  0  0  0  0  0  0
  189.1220  176.3170  145.3030 C   0  0  0  0  0  2  0  0  0  0  0  0
  188.5090  177.2190  146.3680 C   0  0  0  0  0  2  0  0  0  0  0  0
  185.4670  177.7690  146.6320 C   0  0  0  0  0  0  0  0  0  0  0  0
  184.3790  178.4530  146.5140 N   0  0  0  0  0  2  0  0  0  0  0  0
  186.1860  176.7760  145.7890 C   0  0  0  0  0  2  0  0  0  0  0  0
  187.1600  176.6810  146.8340 C   0  0  2  0  0  3  0  0  0  0  0  0
  186.5020  177.6500  147.6350 O   0  0  0  0  0  0  0  0  0  0  0  0
  1  5  1  0  0  0  0
  2  3  1  0  0  0  0
  3 30  1  1  0  0  0
  3  5  1  0  0  0  0
  4  1  1  0  0  0  0
  6  2  2  0  0  0  0
  7  2  1  0  0  0  0
  7  4  1  0  0  0  0
  8  6  1  0  0  0  0
  9 10  1  0  0  0  0
  9  8  1  0  0  0  0
 10 12  1  0  0  0  0
 11 10  2  0  0  0  0
 12 14  1  0  0  0  0
 14 15  2  6  0  0  0
 14 17  1  0  0  0  0
 14 13  1  0  0  0  0
 17 25  1  6  0  0  0
 17 20  1  0  0  0  0
 17 26  1  0  0  0  0
 18 22  1  0  0  0  0
 18 24  1  0  0  0  0
 20 24  1  0  0  0  0
 20 19  1  1  0  0  0
 22 24  1  0  0  0  0
 23 21  1  0  0  0  0
 23 16  1  0  0  0  0
 23 27  1  1  0  0  0
 24 16  1  0  0  0  0
 26 21  2  0  0  0  0
 27 29  2  0  0  0  0
 28 27  1  0  0  0  0
 30 31  1  0  0  0  0
 31 32  1  0  0  0  0
 32 47  1  6  0  0  0
 32 33  1  0  0  0  0
 33 41  1  1  0  0  0
 33 39  1  0  0  0  0
 34 38  1  0  0  0  0
 35 38  2  0  0  0  0
 36 39  1  0  0  0  0
 36 37  2  0  0  0  0
 37 35  1  0  0  0  0
 39 34  2  0  0  0  0
 40 36  1  0  0  0  0
 42 41  1  0  0  0  0
 43 42  1  0  0  0  0
 43 44  1  0  0  0  0
 44 46  2  0  0  0  0
 45 44  1  0  0  0  0
 47 48  1  0  0  0  0
 48 49  1  0  0  0  0
 49 50  1  0  0  0  0
 51 55  1  0  0  0  0
 52 51  2  0  0  0  0
 53 51  1  0  0  0  0
 53 54  1  0  0  0  0
 54 50  1  6  0  0  0
 54 55  1  0  0  0  0
M  END
>  <MODEL>
8

>  <REMARK>
 VINA RESULT:      -5.5      2.043      3.232
  Name = 
  21 active torsions:
  status: ('A' for Active; 'I' for Inactive)
    1  A    between atoms: C_1  and  C_29
    2  A    between atoms: C_2  and  N_28
    3  A    between atoms: C_2  and  C_31
    4  A    between atoms: C_4  and  O_40
    5  A    between atoms: C_6  and  P_20
    6  A    between atoms: C_8  and  O_22
    7  A    between atoms: C_8  and  C_35
    8  A    between atoms: C_13  and  C_48
    9  A    between atoms: C_13  and  C_52
   10  A    between atoms: C_19  and  O_40
   11  A    between atoms: C_19  and  C_45
   12  A    between atoms: P_20  and  O_22
   13  A    between atoms: C_26  and  C_49
   14  A    between atoms: N_28  and  C_33
   15  A    between atoms: C_33  and  C_34
   16  A    between atoms: C_33  and  C_49
   17  A    between atoms: C_34  and  C_52
   18  A    between atoms: C_35  and  O_51
   19  A    between atoms: C_39  and  C_48
   20  A    between atoms: C_45  and  C_49
   21  A    between atoms: O_51  and  N_54
                            x       y       z     vdW  Elec       q    Type
                         _______ _______ _______ _____ _____    ______ ____

>  <TORSDO>
F 21

$$$$
=
 OpenBabel11052419503D

 55 59  0  0  1  0  0  0  0  0999 V2000
  193.1500  174.9000  141.1670 C   0  0  0  0  0  2  0  0  0  0  0  0
  192.9010  173.0270  143.2940 C   0  0  0  0  0  0  0  0  0  0  0  0
  191.6580  173.8300  143.0160 C   0  0  2  0  0  3  0  0  0  0  0  0
  194.1840  174.9380  142.2830 C   0  0  0  0  0  2  0  0  0  0  0  0
  191.7340  174.6820  141.7330 C   0  0  0  0  0  2  0  0  0  0  0  0
  192.7820  171.8850  143.8930 N   0  0  0  0  0  0  0  0  0  0  0  0
  194.2650  173.5590  142.9330 C   0  0  0  0  0  2  0  0  0  0  0  0
  193.8800  171.1150  144.1950 O   0  0  0  0  0  0  0  0  0  0  0  0
  194.3460  170.1410  143.2770 C   0  0  0  0  0  2  0  0  0  0  0  0
  193.2400  169.2000  142.9620 C   0  0  0  0  0  0  0  0  0  0  0  0
  192.6930  168.5530  143.8950 O   0  0  0  0  0  0  0  0  0  0  0  0
  192.8360  169.0330  141.6360 O   0  0  0  0  0  0  0  0  0  0  0  0
  190.4410  168.1700  140.4900 O   0  0  0  0  0  0  0  0  0  0  0  0
  191.2820  169.5170  141.0770 P   0  0  1  0  0  0  0  0  0  0  0  0
  190.5050  170.1140  142.2290 O   0  0  0  0  0  1  0  0  0  0  0  0
  192.2220  172.0090  136.8480 C   0  0  0  0  0  2  0  0  0  0  0  0
  191.4740  170.7540  139.7480 C   0  0  1  0  0  0  0  0  0  0  0  0
  189.6950  171.5190  136.9180 C   0  0  0  0  0  2  0  0  0  0  0  0
  192.2650  169.1490  138.1030 O   0  0  0  0  0  1  0  0  0  0  0  0
  191.2480  170.0670  138.3850 C   0  0  2  0  0  3  0  0  0  0  0  0
  193.3040  172.3590  139.0720 C   0  0  0  0  0  3  0  0  0  0  0  0
  190.3680  170.4800  136.0270 C   0  0  0  0  0  2  0  0  0  0  0  0
  192.4910  172.9950  137.9780 C   0  0  1  0  0  3  0  0  0  0  0  0
  191.1000  171.0500  137.2220 C   0  0  0  0  0  0  0  0  0  0  0  0
  190.5110  171.7480  139.9400 O   0  0  0  0  0  1  0  0  0  0  0  0
  192.8510  171.3660  139.8540 C   0  0  0  0  0  3  0  0  0  0  0  0
  193.1830  174.2070  137.4470 C   0  0  0  0  0  0  0  0  0  0  0  0
  192.4600  175.1890  136.7070 N   0  0  0  0  0  1  0  0  0  0  0  0
  194.4120  174.3770  137.6750 O   0  0  0  0  0  0  0  0  0  0  0  0
  191.3420  174.7080  144.2170 C   0  0  0  0  0  2  0  0  0  0  0  0
  189.8950  174.7940  144.4080 N   0  0  0  0  0  2  0  0  0  0  0  0
  189.4890  176.1830  144.6540 C   0  0  1  0  0  3  0  0  0  0  0  0
  189.3990  176.5120  146.1550 C   0  0  1  0  0  3  0  0  0  0  0  0
  186.9170  176.4320  145.9090 C   0  0  0  0  0  3  0  0  0  0  0  0
  185.4300  177.8410  147.1980 C   0  0  0  0  0  3  0  0  0  0  0  0
  187.8280  178.0050  147.5130 C   0  0  0  0  0  0  0  0  0  0  0  0
  186.5310  178.4170  147.8360 C   0  0  0  0  0  3  0  0  0  0  0  0
  185.6220  176.8520  146.2340 C   0  0  0  0  0  3  0  0  0  0  0  0
  188.0260  177.0000  146.5430 C   0  0  0  0  0  0  0  0  0  0  0  0
  188.9080  178.5980  148.1570 O   0  0  0  0  0  1  0  0  0  0  0  0
  189.8160  175.3130  147.0070 C   0  0  0  0  0  2  0  0  0  0  0  0
  191.0510  175.6300  147.8380 C   0  0  0  0  0  2  0  0  0  0  0  0
  191.8380  176.6170  147.1820 O   0  0  0  0  0  0  0  0  0  0  0  0
  193.0220  176.2910  146.5150 C   0  0  0  0  0  0  0  0  0  0  0  0
  193.4990  174.8820  146.5230 C   0  0  0  0  0  1  0  0  0  0  0  0
  193.6900  177.1730  145.9110 O   0  0  0  0  0  0  0  0  0  0  0  0
  190.3830  177.1720  143.8990 C   0  0  0  0  0  2  0  0  0  0  0  0
  189.6450  177.7810  142.7170 C   0  0  0  0  0  2  0  0  0  0  0  0
  188.2390  177.2040  142.6160 C   0  0  0  0  0  2  0  0  0  0  0  0
  187.6390  177.5070  141.2480 C   0  0  0  0  0  2  0  0  0  0  0  0
  184.8760  177.9780  142.5790 C   0  0  0  0  0  0  0  0  0  0  0  0
  184.0530  178.4690  143.4430 N   0  0  0  0  0  2  0  0  0  0  0  0
  185.3700  178.3910  141.2370 C   0  0  0  0  0  2  0  0  0  0  0  0
  186.1470  177.1880  141.2180 C   0  0  2  0  0  3  0  0  0  0  0  0
  185.7090  176.7980  142.5100 O   0  0  0  0  0  0  0  0  0  0  0  0
  1  5  1  0  0  0  0
  1  4  1  0  0  0  0
  2  6  2  0  0  0  0
  3  2  1  0  0  0  0
  3 30  1  1  0  0  0
  4  7  1  0  0  0  0
  5  3  1  0  0  0  0
  6  8  1  0  0  0  0
  7  2  1  0  0  0  0
  9  8  1  0  0  0  0
 10  9  1  0  0  0  0
 10 11  2  0  0  0  0
 12 10  1  0  0  0  0
 14 13  2  6  0  0  0
 14 12  1  0  0  0  0
 14 15  1  0  0  0  0
 16 24  1  0  0  0  0
 16 23  1  0  0  0  0
 17 26  1  0  0  0  0
 17 25  1  1  0  0  0
 17 14  1  0  0  0  0
 18 24  1  0  0  0  0
 20 19  1  6  0  0  0
 20 17  1  0  0  0  0
 21 26  2  0  0  0  0
 22 18  1  0  0  0  0
 22 24  1  0  0  0  0
 23 27  1  6  0  0  0
 23 21  1  0  0  0  0
 24 20  1  0  0  0  0
 27 29  2  0  0  0  0
 28 27  1  0  0  0  0
 30 31  1  0  0  0  0
 31 32  1  0  0  0  0
 32 47  1  6  0  0  0
 32 33  1  0  0  0  0
 33 39  1  0  0  0  0
 33 41  1  1  0  0  0
 34 38  2  0  0  0  0
 34 39  1  0  0  0  0
 35 37  2  0  0  0  0
 36 37  1  0  0  0  0
 36 40  1  0  0  0  0
 38 35  1  0  0  0  0
 39 36  2  0  0  0  0
 41 42  1  0  0  0  0
 43 42  1  0  0  0  0
 44 45  1  0  0  0  0
 44 43  1  0  0  0  0
 46 44  2  0  0  0  0
 48 47  1  0  0  0  0
 49 48  1  0  0  0  0
 50 49  1  0  0  0  0
 51 52  2  0  0  0  0
 53 51  1  0  0  0  0
 54 53  1  0  0  0  0
 54 50  1  1  0  0  0
 54 55  1  0  0  0  0
 55 51  1  0  0  0  0
M  END
>  <MODEL>
9

>  <REMARK>
 VINA RESULT:      -5.4      2.763      5.737
  Name = 
  21 active torsions:
  status: ('A' for Active; 'I' for Inactive)
    1  A    between atoms: C_1  and  C_29
    2  A    between atoms: C_2  and  N_28
    3  A    between atoms: C_2  and  C_31
    4  A    between atoms: C_4  and  O_40
    5  A    between atoms: C_6  and  P_20
    6  A    between atoms: C_8  and  O_22
    7  A    between atoms: C_8  and  C_35
    8  A    between atoms: C_13  and  C_48
    9  A    between atoms: C_13  and  C_52
   10  A    between atoms: C_19  and  O_40
   11  A    between atoms: C_19  and  C_45
   12  A    between atoms: P_20  and  O_22
   13  A    between atoms: C_26  and  C_49
   14  A    between atoms: N_28  and  C_33
   15  A    between atoms: C_33  and  C_34
   16  A    between atoms: C_33  and  C_49
   17  A    between atoms: C_34  and  C_52
   18  A    between atoms: C_35  and  O_51
   19  A    between atoms: C_39  and  C_48
   20  A    between atoms: C_45  and  C_49
   21  A    between atoms: O_51  and  N_54
                            x       y       z     vdW  Elec       q    Type
                         _______ _______ _______ _____ _____    ______ ____

>  <TORSDO>
F 21

$$$$
