=
 OpenBabel11052418333D

 27 31  0  0  0  0  0  0  0  0999 V2000
  188.2420  177.9310  143.1560 C   0  0  0  0  0  2  0  0  0  0  0  0
  189.2340  177.2100  145.3550 C   0  0  0  0  0  0  0  0  0  0  0  0
  190.8120  176.5710  143.3960 C   0  0  0  0  0  2  0  0  0  0  0  0
  189.2770  177.2430  146.7010 N   0  0  0  0  0  2  0  0  0  0  0  0
  189.1150  173.0040  140.4730 O   0  0  0  0  0  1  0  0  0  0  0  0
  188.9070  174.2140  141.1210 C   0  0  0  0  0  0  0  0  0  0  0  0
  188.0940  177.6610  144.5860 N   0  0  0  0  0  0  0  0  0  0  0  0
  191.2130  176.4070  145.9400 C   0  0  0  0  0  0  0  0  0  0  0  0
  188.4880  176.6560  142.4200 C   0  0  0  0  0  0  0  0  0  0  0  0
  190.4170  176.6910  144.8410 C   0  0  0  0  0  0  0  0  0  0  0  0
  189.9220  174.7670  141.9090 C   0  0  0  0  0  3  0  0  0  0  0  0
  190.4800  176.7550  147.0640 C   0  0  0  0  0  3  0  0  0  0  0  0
  187.6840  174.8770  140.9870 C   0  0  0  0  0  3  0  0  0  0  0  0
  187.4730  176.0960  141.6400 C   0  0  0  0  0  3  0  0  0  0  0  0
  189.7150  175.9860  142.5630 C   0  0  0  0  0  0  0  0  0  0  0  0
  192.7770  174.4670  145.7760 C   0  0  0  0  0  3  0  0  0  0  0  0
  195.1720  174.7520  145.9860 C   0  0  0  0  0  3  0  0  0  0  0  0
  194.9910  176.1230  146.1710 C   0  0  0  0  0  3  0  0  0  0  0  0
  193.7030  176.6670  146.1590 C   0  0  0  0  0  3  0  0  0  0  0  0
  192.5840  175.8450  145.9620 C   0  0  0  0  0  0  0  0  0  0  0  0
  194.0640  173.9220  145.7880 C   0  0  0  0  0  3  0  0  0  0  0  0
  184.2240  178.1480  146.2940 C   0  0  0  0  0  3  0  0  0  0  0  0
  186.7880  177.8270  145.1830 C   0  0  0  0  0  0  0  0  0  0  0  0
  186.1890  176.7880  145.9150 C   0  0  0  0  0  3  0  0  0  0  0  0
  184.9160  176.9480  146.4700 C   0  0  0  0  0  3  0  0  0  0  0  0
  184.8030  179.1870  145.5620 C   0  0  0  0  0  3  0  0  0  0  0  0
  186.0760  179.0260  145.0080 C   0  0  0  0  0  3  0  0  0  0  0  0
  1  7  1  0  0  0  0
  2  4  1  0  0  0  0
  3 10  1  0  0  0  0
  4 12  1  0  0  0  0
  5  6  1  0  0  0  0
  6 11  1  0  0  0  0
  7 23  1  0  0  0  0
  7  2  1  0  0  0  0
  8 20  1  0  0  0  0
  8 12  2  0  0  0  0
  9 15  1  0  0  0  0
  9  1  1  0  0  0  0
 10  2  2  0  0  0  0
 10  8  1  0  0  0  0
 11 15  2  0  0  0  0
 13  6  2  0  0  0  0
 13 14  1  0  0  0  0
 14  9  2  0  0  0  0
 15  3  1  0  0  0  0
 16 21  2  0  0  0  0
 16 20  1  0  0  0  0
 17 18  2  0  0  0  0
 19 18  1  0  0  0  0
 20 19  2  0  0  0  0
 21 17  1  0  0  0  0
 22 25  1  0  0  0  0
 23 24  1  0  0  0  0
 24 25  2  0  0  0  0
 26 22  2  0  0  0  0
 27 23  2  0  0  0  0
 27 26  1  0  0  0  0
M  END
>  <MODEL>
1

>  <REMARK>
 VINA RESULT:      -8.6      0.000      0.000
  Name = 
  2 active torsions:
  status: ('A' for Active; 'I' for Inactive)
    1  A    between atoms: C_9  and  N_15
    2  A    between atoms: C_14  and  C_17
                            x       y       z     vdW  Elec       q    Type
                         _______ _______ _______ _____ _____    ______ ____

>  <TORSDO>
F 2

$$$$
=
 OpenBabel11052418333D

 27 31  0  0  1  0  0  0  0  0999 V2000
  191.3440  176.2640  143.0870 C   0  0  0  0  0  2  0  0  0  0  0  0
  188.9170  175.6130  142.9330 C   0  0  0  0  0  0  0  0  0  0  0  0
  189.2130  177.6360  144.5320 C   0  0  0  0  0  2  0  0  0  0  0  0
  187.9050  174.9480  142.3420 N   0  0  0  0  0  0  0  0  0  0  0  0
  191.5060  176.5990  148.7520 O   0  0  0  0  0  1  0  0  0  0  0  0
  191.4700  176.5270  147.3660 C   0  0  0  0  0  0  0  0  0  0  0  0
  190.3120  175.2990  142.7080 N   0  0  0  0  0  0  0  0  0  0  0  0
  187.0440  176.5450  143.6590 C   0  0  0  0  0  0  0  0  0  0  0  0
  191.4040  176.3880  144.5730 C   0  0  0  0  0  0  0  0  0  0  0  0
  188.4250  176.6120  143.7650 C   0  0  1  0  0  3  0  0  0  0  0  0
  190.4000  177.0910  146.6660 C   0  0  0  0  0  3  0  0  0  0  0  0
  186.7610  175.5110  142.7800 C   0  0  0  0  0  3  0  0  0  0  0  0
  192.5030  175.8890  146.6730 C   0  0  0  0  0  3  0  0  0  0  0  0
  192.4680  175.8170  145.2760 C   0  0  0  0  0  3  0  0  0  0  0  0
  190.3610  177.0210  145.2690 C   0  0  0  0  0  0  0  0  0  0  0  0
  185.5210  177.0160  145.5810 C   0  0  0  0  0  3  0  0  0  0  0  0
  184.1090  178.9820  145.6250 C   0  0  0  0  0  3  0  0  0  0  0  0
  184.6070  179.3660  144.3780 C   0  0  0  0  0  3  0  0  0  0  0  0
  185.5620  178.5740  143.7330 C   0  0  0  0  0  3  0  0  0  0  0  0
  186.0280  177.3920  144.3270 C   0  0  0  0  0  0  0  0  0  0  0  0
  184.5660  177.8060  146.2270 C   0  0  0  0  0  3  0  0  0  0  0  0
  191.4840  171.5570  141.0490 C   0  0  0  0  0  3  0  0  0  0  0  0
  190.7270  174.0360  142.1420 C   0  0  0  0  0  0  0  0  0  0  0  0
  190.9720  173.9040  140.7650 C   0  0  0  0  0  3  0  0  0  0  0  0
  191.3510  172.6740  140.2210 C   0  0  0  0  0  3  0  0  0  0  0  0
  191.2370  171.6700  142.4190 C   0  0  0  0  0  3  0  0  0  0  0  0
  190.8580  172.9010  142.9620 C   0  0  0  0  0  3  0  0  0  0  0  0
  1  9  1  0  0  0  0
  2 10  1  0  0  0  0
  3 15  1  0  0  0  0
  4 12  1  0  0  0  0
  4  2  2  0  0  0  0
  6  5  1  0  0  0  0
  7  2  1  0  0  0  0
  7  1  1  0  0  0  0
  8 10  1  0  0  0  0
  8 20  1  0  0  0  0
  9 15  2  0  0  0  0
  9 14  1  0  0  0  0
 10  3  1  6  0  0  0
 11  6  2  0  0  0  0
 12  8  2  0  0  0  0
 13  6  1  0  0  0  0
 14 13  2  0  0  0  0
 15 11  1  0  0  0  0
 16 21  1  0  0  0  0
 17 21  2  0  0  0  0
 18 17  1  0  0  0  0
 19 20  1  0  0  0  0
 19 18  2  0  0  0  0
 20 16  2  0  0  0  0
 22 26  1  0  0  0  0
 23  7  1  0  0  0  0
 23 27  1  0  0  0  0
 24 23  2  0  0  0  0
 25 24  1  0  0  0  0
 25 22  2  0  0  0  0
 26 27  2  0  0  0  0
M  END
>  <MODEL>
2

>  <REMARK>
 VINA RESULT:      -8.2      2.566      7.335
  Name = 
  2 active torsions:
  status: ('A' for Active; 'I' for Inactive)
    1  A    between atoms: C_9  and  N_15
    2  A    between atoms: C_14  and  C_17
                            x       y       z     vdW  Elec       q    Type
                         _______ _______ _______ _____ _____    ______ ____

>  <TORSDO>
F 2

$$$$
=
 OpenBabel11052418333D

 27 31  0  0  0  0  0  0  0  0999 V2000
  188.9930  177.7690  143.9890 C   0  0  0  0  0  2  0  0  0  0  0  0
  189.9960  176.4860  145.9090 C   0  0  0  0  0  0  0  0  0  0  0  0
  191.4140  176.1570  143.7590 C   0  0  0  0  0  2  0  0  0  0  0  0
  190.1000  176.2120  147.2240 N   0  0  0  0  0  2  0  0  0  0  0  0
  189.2290  173.5080  140.2450 O   0  0  0  0  0  1  0  0  0  0  0  0
  189.1770  174.5560  141.1530 C   0  0  0  0  0  0  0  0  0  0  0  0
  188.8780  177.2010  145.3330 N   0  0  0  0  0  0  0  0  0  0  0  0
  191.9030  175.3920  146.1740 C   0  0  0  0  0  0  0  0  0  0  0  0
  189.0720  176.6740  142.9790 C   0  0  0  0  0  0  0  0  0  0  0  0
  191.0960  175.9880  145.2180 C   0  0  0  0  0  0  0  0  0  0  0  0
  190.2760  174.8220  141.9750 C   0  0  0  0  0  3  0  0  0  0  0  0
  191.2600  175.5460  147.3930 C   0  0  0  0  0  3  0  0  0  0  0  0
  188.0250  175.3420  141.2470 C   0  0  0  0  0  3  0  0  0  0  0  0
  187.9710  176.3990  142.1620 C   0  0  0  0  0  3  0  0  0  0  0  0
  190.2270  175.8780  142.8920 C   0  0  0  0  0  0  0  0  0  0  0  0
  194.4000  175.4320  146.1700 C   0  0  0  0  0  3  0  0  0  0  0  0
  195.6970  173.4580  145.6420 C   0  0  0  0  0  3  0  0  0  0  0  0
  194.5180  172.7350  145.4560 C   0  0  0  0  0  3  0  0  0  0  0  0
  193.2800  173.3610  145.6260 C   0  0  0  0  0  3  0  0  0  0  0  0
  193.2080  174.7150  145.9840 C   0  0  0  0  0  0  0  0  0  0  0  0
  195.6390  174.8090  145.9990 C   0  0  0  0  0  3  0  0  0  0  0  0
  185.1790  177.6920  147.3840 C   0  0  0  0  0  3  0  0  0  0  0  0
  187.6240  177.3490  146.0350 C   0  0  0  0  0  0  0  0  0  0  0  0
  186.4580  176.7100  145.5800 C   0  0  0  0  0  3  0  0  0  0  0  0
  185.2440  176.8770  146.2510 C   0  0  0  0  0  3  0  0  0  0  0  0
  186.3270  178.3410  147.8430 C   0  0  0  0  0  3  0  0  0  0  0  0
  187.5410  178.1730  147.1710 C   0  0  0  0  0  3  0  0  0  0  0  0
  1  7  1  0  0  0  0
  2  4  1  0  0  0  0
  3 10  1  0  0  0  0
  4 12  1  0  0  0  0
  5  6  1  0  0  0  0
  6 13  2  0  0  0  0
  6 11  1  0  0  0  0
  7  2  1  0  0  0  0
  7 23  1  0  0  0  0
  8 12  2  0  0  0  0
  9  1  1  0  0  0  0
 10  2  2  0  0  0  0
 10  8  1  0  0  0  0
 11 15  2  0  0  0  0
 13 14  1  0  0  0  0
 14  9  2  0  0  0  0
 15  9  1  0  0  0  0
 15  3  1  0  0  0  0
 17 21  2  0  0  0  0
 18 19  2  0  0  0  0
 18 17  1  0  0  0  0
 19 20  1  0  0  0  0
 20 16  2  0  0  0  0
 20  8  1  0  0  0  0
 21 16  1  0  0  0  0
 22 26  1  0  0  0  0
 23 27  1  0  0  0  0
 24 23  2  0  0  0  0
 24 25  1  0  0  0  0
 25 22  2  0  0  0  0
 27 26  2  0  0  0  0
M  END
>  <MODEL>
3

>  <REMARK>
 VINA RESULT:      -8.1      1.112      1.596
  Name = 
  2 active torsions:
  status: ('A' for Active; 'I' for Inactive)
    1  A    between atoms: C_9  and  N_15
    2  A    between atoms: C_14  and  C_17
                            x       y       z     vdW  Elec       q    Type
                         _______ _______ _______ _____ _____    ______ ____

>  <TORSDO>
F 2

$$$$
=
 OpenBabel11052418333D

 27 31  0  0  1  0  0  0  0  0999 V2000
  191.4360  176.1830  142.9900 C   0  0  0  0  0  2  0  0  0  0  0  0
  188.9880  175.6200  142.8100 C   0  0  0  0  0  0  0  0  0  0  0  0
  189.3420  177.6230  144.4230 C   0  0  0  0  0  2  0  0  0  0  0  0
  187.9590  174.9950  142.2050 N   0  0  0  0  0  0  0  0  0  0  0  0
  191.5560  176.4810  148.6580 O   0  0  0  0  0  1  0  0  0  0  0  0
  191.5310  176.4190  147.2720 C   0  0  0  0  0  0  0  0  0  0  0  0
  190.3730  175.2580  142.5960 N   0  0  0  0  0  0  0  0  0  0  0  0
  187.1430  176.6150  143.5230 C   0  0  0  0  0  0  0  0  0  0  0  0
  191.4860  176.2970  144.4770 C   0  0  0  0  0  0  0  0  0  0  0  0
  188.5240  176.6320  143.6430 C   0  0  1  0  0  3  0  0  0  0  0  0
  190.4880  177.0240  146.5650 C   0  0  0  0  0  3  0  0  0  0  0  0
  186.8320  175.5970  142.6360 C   0  0  0  0  0  3  0  0  0  0  0  0
  192.5470  175.7480  146.5850 C   0  0  0  0  0  3  0  0  0  0  0  0
  192.5230  175.6840  145.1880 C   0  0  0  0  0  3  0  0  0  0  0  0
  190.4590  176.9630  145.1680 C   0  0  0  0  0  0  0  0  0  0  0  0
  185.8380  178.7420  143.6250 C   0  0  0  0  0  3  0  0  0  0  0  0
  184.2680  179.1780  145.4140 C   0  0  0  0  0  3  0  0  0  0  0  0
  184.5710  177.9390  145.9810 C   0  0  0  0  0  3  0  0  0  0  0  0
  185.5080  177.1010  145.3700 C   0  0  0  0  0  3  0  0  0  0  0  0
  186.1510  177.4940  144.1870 C   0  0  0  0  0  0  0  0  0  0  0  0
  184.9020  179.5810  144.2350 C   0  0  0  0  0  3  0  0  0  0  0  0
  191.5350  171.5230  140.9150 C   0  0  0  0  0  3  0  0  0  0  0  0
  190.7490  173.9840  142.0270 C   0  0  0  0  0  0  0  0  0  0  0  0
  190.8230  172.8280  142.8230 C   0  0  0  0  0  3  0  0  0  0  0  0
  191.2100  171.6050  142.2710 C   0  0  0  0  0  3  0  0  0  0  0  0
  191.4740  172.6640  140.1130 C   0  0  0  0  0  3  0  0  0  0  0  0
  191.0870  173.8880  140.6660 C   0  0  0  0  0  3  0  0  0  0  0  0
  1  9  1  0  0  0  0
  2 10  1  0  0  0  0
  3 15  1  0  0  0  0
  4 12  1  0  0  0  0
  4  2  2  0  0  0  0
  6  5  1  0  0  0  0
  7  2  1  0  0  0  0
  7  1  1  0  0  0  0
  8 10  1  0  0  0  0
  8 20  1  0  0  0  0
  9 15  2  0  0  0  0
  9 14  1  0  0  0  0
 10  3  1  6  0  0  0
 11  6  2  0  0  0  0
 12  8  2  0  0  0  0
 13  6  1  0  0  0  0
 14 13  2  0  0  0  0
 15 11  1  0  0  0  0
 16 20  2  0  0  0  0
 16 21  1  0  0  0  0
 17 18  1  0  0  0  0
 19 18  2  0  0  0  0
 20 19  1  0  0  0  0
 21 17  2  0  0  0  0
 22 25  1  0  0  0  0
 23  7  1  0  0  0  0
 23 24  1  0  0  0  0
 25 24  2  0  0  0  0
 26 27  1  0  0  0  0
 26 22  2  0  0  0  0
 27 23  2  0  0  0  0
M  END
>  <MODEL>
4

>  <REMARK>
 VINA RESULT:      -8.1      2.574      7.327
  Name = 
  2 active torsions:
  status: ('A' for Active; 'I' for Inactive)
    1  A    between atoms: C_9  and  N_15
    2  A    between atoms: C_14  and  C_17
                            x       y       z     vdW  Elec       q    Type
                         _______ _______ _______ _____ _____    ______ ____

>  <TORSDO>
F 2

$$$$
=
 OpenBabel11052418333D

 27 31  0  0  0  0  0  0  0  0999 V2000
  190.9320  173.5400  144.1150 C   0  0  0  0  0  2  0  0  0  0  0  0
  190.4350  175.8040  145.0990 C   0  0  0  0  0  0  0  0  0  0  0  0
  188.2870  174.7710  144.0710 C   0  0  0  0  0  2  0  0  0  0  0  0
  190.7640  176.8560  145.8750 N   0  0  0  0  0  2  0  0  0  0  0  0
  188.3030  174.4590  139.1680 O   0  0  0  0  0  1  0  0  0  0  0  0
  188.9390  174.2250  140.3790 C   0  0  0  0  0  0  0  0  0  0  0  0
  191.3970  174.8250  144.6400 N   0  0  0  0  0  0  0  0  0  0  0  0
  188.5600  176.9220  145.4710 C   0  0  0  0  0  0  0  0  0  0  0  0
  190.2210  173.7470  142.8190 C   0  0  0  0  0  0  0  0  0  0  0  0
  189.0730  175.8100  144.8200 C   0  0  0  0  0  0  0  0  0  0  0  0
  188.3230  174.6030  141.5750 C   0  0  0  0  0  3  0  0  0  0  0  0
  189.6260  177.5410  146.1050 C   0  0  0  0  0  3  0  0  0  0  0  0
  190.1970  173.6150  140.4000 C   0  0  0  0  0  3  0  0  0  0  0  0
  190.8390  173.3790  141.6200 C   0  0  0  0  0  3  0  0  0  0  0  0
  188.9620  174.3690  142.7980 C   0  0  0  0  0  0  0  0  0  0  0  0
  186.2660  176.8500  146.4540 C   0  0  0  0  0  3  0  0  0  0  0  0
  184.4920  178.2780  145.6330 C   0  0  0  0  0  3  0  0  0  0  0  0
  185.3700  178.8280  144.6970 C   0  0  0  0  0  3  0  0  0  0  0  0
  186.6950  178.3880  144.6390 C   0  0  0  0  0  3  0  0  0  0  0  0
  187.1560  177.3950  145.5150 C   0  0  0  0  0  0  0  0  0  0  0  0
  184.9400  177.2890  146.5130 C   0  0  0  0  0  3  0  0  0  0  0  0
  195.5730  175.6520  144.6850 C   0  0  0  0  0  3  0  0  0  0  0  0
  192.8180  175.0860  144.6520 C   0  0  0  0  0  0  0  0  0  0  0  0
  193.6140  174.7090  145.7470 C   0  0  0  0  0  3  0  0  0  0  0  0
  194.9840  174.9870  145.7630 C   0  0  0  0  0  3  0  0  0  0  0  0
  194.7930  176.0410  143.5940 C   0  0  0  0  0  3  0  0  0  0  0  0
  193.4240  175.7630  143.5790 C   0  0  0  0  0  3  0  0  0  0  0  0
  1  7  1  0  0  0  0
  2  4  1  0  0  0  0
  3 10  1  0  0  0  0
  4 12  1  0  0  0  0
  5  6  1  0  0  0  0
  6 13  2  0  0  0  0
  6 11  1  0  0  0  0
  7 23  1  0  0  0  0
  7  2  1  0  0  0  0
  8 20  1  0  0  0  0
  8 12  2  0  0  0  0
  9  1  1  0  0  0  0
 10  2  2  0  0  0  0
 10  8  1  0  0  0  0
 11 15  2  0  0  0  0
 13 14  1  0  0  0  0
 14  9  2  0  0  0  0
 15  9  1  0  0  0  0
 15  3  1  0  0  0  0
 16 21  1  0  0  0  0
 17 21  2  0  0  0  0
 18 17  1  0  0  0  0
 19 18  2  0  0  0  0
 19 20  1  0  0  0  0
 20 16  2  0  0  0  0
 22 25  1  0  0  0  0
 23 24  1  0  0  0  0
 24 25  2  0  0  0  0
 26 22  2  0  0  0  0
 27 26  1  0  0  0  0
 27 23  2  0  0  0  0
M  END
>  <MODEL>
5

>  <REMARK>
 VINA RESULT:      -7.9      1.620      6.414
  Name = 
  2 active torsions:
  status: ('A' for Active; 'I' for Inactive)
    1  A    between atoms: C_9  and  N_15
    2  A    between atoms: C_14  and  C_17
                            x       y       z     vdW  Elec       q    Type
                         _______ _______ _______ _____ _____    ______ ____

>  <TORSDO>
F 2

$$$$
=
 OpenBabel11052418333D

 27 31  0  0  0  0  0  0  0  0999 V2000
  189.6490  173.6580  143.8580 C   0  0  0  0  0  2  0  0  0  0  0  0
  188.8600  176.0440  144.0210 C   0  0  0  0  0  0  0  0  0  0  0  0
  187.5100  174.7640  142.2090 C   0  0  0  0  0  2  0  0  0  0  0  0
  188.8000  177.2300  144.6580 N   0  0  0  0  0  2  0  0  0  0  0  0
  190.0820  173.5690  138.1970 O   0  0  0  0  0  1  0  0  0  0  0  0
  189.9700  173.5820  139.5810 C   0  0  0  0  0  0  0  0  0  0  0  0
  189.8520  175.0320  144.3170 N   0  0  0  0  0  0  0  0  0  0  0  0
  187.1480  177.1420  143.1450 C   0  0  0  0  0  0  0  0  0  0  0  0
  189.7420  173.6000  142.3690 C   0  0  0  0  0  0  0  0  0  0  0  0
  187.8520  175.9500  143.0670 C   0  0  0  0  0  0  0  0  0  0  0  0
  188.8430  174.1480  140.1840 C   0  0  0  0  0  3  0  0  0  0  0  0
  187.7590  177.9040  144.1290 C   0  0  0  0  0  3  0  0  0  0  0  0
  190.9840  173.0310  140.3690 C   0  0  0  0  0  3  0  0  0  0  0  0
  190.8720  173.0440  141.7630 C   0  0  0  0  0  3  0  0  0  0  0  0
  188.7260  174.1630  141.5780 C   0  0  0  0  0  0  0  0  0  0  0  0
  184.7330  177.7620  143.0010 C   0  0  0  0  0  3  0  0  0  0  0  0
  183.7080  178.3760  140.8960 C   0  0  0  0  0  3  0  0  0  0  0  0
  184.9290  178.1840  140.2470 C   0  0  0  0  0  3  0  0  0  0  0  0
  186.0520  177.7810  140.9750 C   0  0  0  0  0  3  0  0  0  0  0  0
  185.9660  177.5640  142.3580 C   0  0  0  0  0  0  0  0  0  0  0  0
  183.6090  178.1650  142.2740 C   0  0  0  0  0  3  0  0  0  0  0  0
  193.4200  176.0040  146.4280 C   0  0  0  0  0  3  0  0  0  0  0  0
  191.0670  175.3430  145.0340 C   0  0  0  0  0  0  0  0  0  0  0  0
  191.1950  175.0560  146.4040 C   0  0  0  0  0  3  0  0  0  0  0  0
  192.3640  175.3810  147.0960 C   0  0  0  0  0  3  0  0  0  0  0  0
  193.3060  176.3030  145.0680 C   0  0  0  0  0  3  0  0  0  0  0  0
  192.1360  175.9780  144.3770 C   0  0  0  0  0  3  0  0  0  0  0  0
  1  7  1  0  0  0  0
  2  7  1  0  0  0  0
  2  4  1  0  0  0  0
  3 10  1  0  0  0  0
  5  6  1  0  0  0  0
  6 11  2  0  0  0  0
  6 13  1  0  0  0  0
  7 23  1  0  0  0  0
  8 12  2  0  0  0  0
  9  1  1  0  0  0  0
 10  8  1  0  0  0  0
 10  2  2  0  0  0  0
 11 15  1  0  0  0  0
 12  4  1  0  0  0  0
 13 14  2  0  0  0  0
 14  9  1  0  0  0  0
 15  3  1  0  0  0  0
 15  9  2  0  0  0  0
 17 21  1  0  0  0  0
 18 17  2  0  0  0  0
 18 19  1  0  0  0  0
 19 20  2  0  0  0  0
 20 16  1  0  0  0  0
 20  8  1  0  0  0  0
 21 16  2  0  0  0  0
 22 25  1  0  0  0  0
 23 24  1  0  0  0  0
 24 25  2  0  0  0  0
 26 22  2  0  0  0  0
 27 23  2  0  0  0  0
 27 26  1  0  0  0  0
M  END
>  <MODEL>
6

>  <REMARK>
 VINA RESULT:      -7.8      2.124      6.614
  Name = 
  2 active torsions:
  status: ('A' for Active; 'I' for Inactive)
    1  A    between atoms: C_9  and  N_15
    2  A    between atoms: C_14  and  C_17
                            x       y       z     vdW  Elec       q    Type
                         _______ _______ _______ _____ _____    ______ ____

>  <TORSDO>
F 2

$$$$
=
 OpenBabel11052418333D

 27 31  0  0  1  0  0  0  0  0999 V2000
  185.9470  176.0890  144.5920 C   0  0  0  0  0  2  0  0  0  0  0  0
  188.1830  176.3670  143.4690 C   0  0  0  0  0  0  0  0  0  0  0  0
  188.4940  175.8750  145.9990 C   0  0  0  0  0  2  0  0  0  0  0  0
  188.9530  176.4410  142.3650 N   0  0  0  0  0  0  0  0  0  0  0  0
  187.0660  179.5060  148.9860 O   0  0  0  0  0  1  0  0  0  0  0  0
  186.7900  178.6620  147.9190 C   0  0  0  0  0  0  0  0  0  0  0  0
  186.7450  176.5280  143.4470 N   0  0  0  0  0  0  0  0  0  0  0  0
  190.2700  176.0350  144.1330 C   0  0  0  0  0  0  0  0  0  0  0  0
  186.2280  176.9580  145.7720 C   0  0  0  0  0  0  0  0  0  0  0  0
  188.9650  176.1200  144.5930 C   0  0  1  0  0  3  0  0  0  0  0  0
  187.7430  177.7280  147.5030 C   0  0  0  0  0  3  0  0  0  0  0  0
  190.2250  176.2400  142.7630 C   0  0  0  0  0  3  0  0  0  0  0  0
  185.5600  178.7500  147.2590 C   0  0  0  0  0  3  0  0  0  0  0  0
  185.2810  177.9000  146.1840 C   0  0  0  0  0  3  0  0  0  0  0  0
  187.4680  176.8760  146.4280 C   0  0  0  0  0  0  0  0  0  0  0  0
  192.2920  176.8470  145.3530 C   0  0  0  0  0  3  0  0  0  0  0  0
  193.8420  175.3100  146.3980 C   0  0  0  0  0  3  0  0  0  0  0  0
  193.0650  174.2340  145.9650 C   0  0  0  0  0  3  0  0  0  0  0  0
  191.9010  174.4650  145.2260 C   0  0  0  0  0  3  0  0  0  0  0  0
  191.5030  175.7730  144.9110 C   0  0  0  0  0  0  0  0  0  0  0  0
  193.4560  176.6180  146.0920 C   0  0  0  0  0  3  0  0  0  0  0  0
  184.7280  178.2910  140.1380 C   0  0  0  0  0  3  0  0  0  0  0  0
  186.0640  177.1440  142.3320 C   0  0  0  0  0  0  0  0  0  0  0  0
  184.7910  177.7180  142.4880 C   0  0  0  0  0  3  0  0  0  0  0  0
  184.1270  178.2910  141.3990 C   0  0  0  0  0  3  0  0  0  0  0  0
  185.9890  177.7170  139.9660 C   0  0  0  0  0  3  0  0  0  0  0  0
  186.6510  177.1440  141.0550 C   0  0  0  0  0  3  0  0  0  0  0  0
  1  9  1  0  0  0  0
  2 10  1  0  0  0  0
  3 15  1  0  0  0  0
  4 12  1  0  0  0  0
  4  2  2  0  0  0  0
  6  5  1  0  0  0  0
  7  2  1  0  0  0  0
  7  1  1  0  0  0  0
  8 10  1  0  0  0  0
  8 20  1  0  0  0  0
  9 14  2  0  0  0  0
  9 15  1  0  0  0  0
 10  3  1  6  0  0  0
 11  6  1  0  0  0  0
 12  8  2  0  0  0  0
 13  6  2  0  0  0  0
 14 13  1  0  0  0  0
 15 11  2  0  0  0  0
 16 21  1  0  0  0  0
 18 17  1  0  0  0  0
 19 18  2  0  0  0  0
 20 19  1  0  0  0  0
 20 16  2  0  0  0  0
 21 17  2  0  0  0  0
 22 25  1  0  0  0  0
 23 24  1  0  0  0  0
 23  7  1  0  0  0  0
 25 24  2  0  0  0  0
 26 22  2  0  0  0  0
 26 27  1  0  0  0  0
 27 23  2  0  0  0  0
M  END
>  <MODEL>
7

>  <REMARK>
 VINA RESULT:      -7.6      2.853      4.778
  Name = 
  2 active torsions:
  status: ('A' for Active; 'I' for Inactive)
    1  A    between atoms: C_9  and  N_15
    2  A    between atoms: C_14  and  C_17
                            x       y       z     vdW  Elec       q    Type
                         _______ _______ _______ _____ _____    ______ ____

>  <TORSDO>
F 2

$$$$
=
 OpenBabel11052418333D

 27 31  0  0  1  0  0  0  0  0999 V2000
  188.8650  175.0860  146.9290 C   0  0  0  0  0  2  0  0  0  0  0  0
  188.3560  175.6110  144.5200 C   0  0  0  0  0  0  0  0  0  0  0  0
  190.5990  174.3190  144.7120 C   0  0  0  0  0  2  0  0  0  0  0  0
  187.5090  176.0020  143.5470 N   0  0  0  0  0  0  0  0  0  0  0  0
  194.2580  176.8560  146.7900 O   0  0  0  0  0  1  0  0  0  0  0  0
  192.9430  176.4140  146.8280 C   0  0  0  0  0  0  0  0  0  0  0  0
  188.1050  175.8340  145.9280 N   0  0  0  0  0  0  0  0  0  0  0  0
  189.2730  174.9910  142.6030 C   0  0  0  0  0  0  0  0  0  0  0  0
  190.2940  175.5170  146.9100 C   0  0  0  0  0  0  0  0  0  0  0  0
  189.4700  174.9820  143.9750 C   0  0  1  0  0  3  0  0  0  0  0  0
  192.4430  175.6210  145.7900 C   0  0  0  0  0  3  0  0  0  0  0  0
  188.0630  175.6270  142.3760 C   0  0  0  0  0  3  0  0  0  0  0  0
  192.1190  176.7630  147.9020 C   0  0  0  0  0  3  0  0  0  0  0  0
  190.7940  176.3170  147.9410 C   0  0  0  0  0  3  0  0  0  0  0  0
  191.1180  175.1740  145.8250 C   0  0  0  0  0  0  0  0  0  0  0  0
  189.5850  173.7790  140.4420 C   0  0  0  0  0  3  0  0  0  0  0  0
  191.7880  173.3900  139.5160 C   0  0  0  0  0  3  0  0  0  0  0  0
  192.3610  174.0460  140.6070 C   0  0  0  0  0  3  0  0  0  0  0  0
  191.5460  174.5670  141.6150 C   0  0  0  0  0  3  0  0  0  0  0  0
  190.1510  174.4390  141.5440 C   0  0  0  0  0  0  0  0  0  0  0  0
  190.3990  173.2560  139.4320 C   0  0  0  0  0  3  0  0  0  0  0  0
  185.2330  178.6570  147.3120 C   0  0  0  0  0  3  0  0  0  0  0  0
  187.1380  176.8050  146.3860 C   0  0  0  0  0  0  0  0  0  0  0  0
  187.5210  177.8770  147.2100 C   0  0  0  0  0  3  0  0  0  0  0  0
  186.5760  178.7980  147.6690 C   0  0  0  0  0  3  0  0  0  0  0  0
  184.8350  177.5920  146.5000 C   0  0  0  0  0  3  0  0  0  0  0  0
  185.7810  176.6700  146.0430 C   0  0  0  0  0  3  0  0  0  0  0  0
  2  7  1  0  0  0  0
  3 15  1  0  0  0  0
  4  2  2  0  0  0  0
  5  6  1  0  0  0  0
  6 13  1  0  0  0  0
  7 23  1  0  0  0  0
  7  1  1  0  0  0  0
  8 10  1  0  0  0  0
  9  1  1  0  0  0  0
  9 14  1  0  0  0  0
 10  2  1  0  0  0  0
 10  3  1  1  0  0  0
 11 15  1  0  0  0  0
 11  6  2  0  0  0  0
 12  8  2  0  0  0  0
 12  4  1  0  0  0  0
 13 14  2  0  0  0  0
 15  9  2  0  0  0  0
 16 20  1  0  0  0  0
 17 18  2  0  0  0  0
 18 19  1  0  0  0  0
 20 19  2  0  0  0  0
 20  8  1  0  0  0  0
 21 17  1  0  0  0  0
 21 16  2  0  0  0  0
 22 25  1  0  0  0  0
 23 24  1  0  0  0  0
 24 25  2  0  0  0  0
 26 22  2  0  0  0  0
 27 23  2  0  0  0  0
 27 26  1  0  0  0  0
M  END
>  <MODEL>
8

>  <REMARK>
 VINA RESULT:      -7.4      2.462      5.077
  Name = 
  2 active torsions:
  status: ('A' for Active; 'I' for Inactive)
    1  A    between atoms: C_9  and  N_15
    2  A    between atoms: C_14  and  C_17
                            x       y       z     vdW  Elec       q    Type
                         _______ _______ _______ _____ _____    ______ ____

>  <TORSDO>
F 2

$$$$
=
 OpenBabel11052418333D

 27 31  0  0  1  0  0  0  0  0999 V2000
  193.3190  174.1210  144.9910 C   0  0  0  0  0  2  0  0  0  0  0  0
  191.9780  176.1800  144.4450 C   0  0  0  0  0  0  0  0  0  0  0  0
  190.4220  174.2830  145.2960 C   0  0  0  0  0  2  0  0  0  0  0  0
  191.8890  177.4960  144.1710 N   0  0  0  0  0  0  0  0  0  0  0  0
  189.9580  170.4770  142.2240 O   0  0  0  0  0  1  0  0  0  0  0  0
  190.7790  171.3620  142.9090 C   0  0  0  0  0  0  0  0  0  0  0  0
  193.2130  175.4310  144.3490 N   0  0  0  0  0  0  0  0  0  0  0  0
  189.8640  176.7490  144.7760 C   0  0  0  0  0  0  0  0  0  0  0  0
  192.4350  173.1390  144.2960 C   0  0  0  0  0  0  0  0  0  0  0  0
  190.7380  175.6740  144.8210 C   0  0  1  0  0  3  0  0  0  0  0  0
  190.2150  172.3460  143.7260 C   0  0  0  0  0  3  0  0  0  0  0  0
  190.6030  177.8490  144.3710 C   0  0  0  0  0  3  0  0  0  0  0  0
  192.1680  171.2690  142.7810 C   0  0  0  0  0  3  0  0  0  0  0  0
  192.9960  172.1600  143.4710 C   0  0  0  0  0  3  0  0  0  0  0  0
  191.0390  173.2400  144.4180 C   0  0  0  0  0  0  0  0  0  0  0  0
  187.4730  176.7090  144.0580 C   0  0  0  0  0  3  0  0  0  0  0  0
  185.6660  176.7980  145.6660 C   0  0  0  0  0  3  0  0  0  0  0  0
  186.5960  176.8590  146.7050 C   0  0  0  0  0  3  0  0  0  0  0  0
  187.9640  176.8450  146.4200 C   0  0  0  0  0  3  0  0  0  0  0  0
  188.4170  176.7700  145.0950 C   0  0  0  0  0  0  0  0  0  0  0  0
  186.1040  176.7230  144.3410 C   0  0  0  0  0  3  0  0  0  0  0  0
  196.5890  176.8400  142.1710 C   0  0  0  0  0  3  0  0  0  0  0  0
  194.3480  175.9250  143.6050 C   0  0  0  0  0  0  0  0  0  0  0  0
  194.3500  175.9260  142.2000 C   0  0  0  0  0  3  0  0  0  0  0  0
  195.4610  176.3830  141.4870 C   0  0  0  0  0  3  0  0  0  0  0  0
  196.6060  176.8380  143.5680 C   0  0  0  0  0  3  0  0  0  0  0  0
  195.4940  176.3800  144.2800 C   0  0  0  0  0  3  0  0  0  0  0  0
  2 10  1  0  0  0  0
  4 12  1  0  0  0  0
  4  2  2  0  0  0  0
  5  6  1  0  0  0  0
  6 11  1  0  0  0  0
  7  2  1  0  0  0  0
  7  1  1  0  0  0  0
  8 10  1  0  0  0  0
  8 20  1  0  0  0  0
  9 15  1  0  0  0  0
  9  1  1  0  0  0  0
 10  3  1  1  0  0  0
 11 15  2  0  0  0  0
 12  8  2  0  0  0  0
 13  6  2  0  0  0  0
 13 14  1  0  0  0  0
 14  9  2  0  0  0  0
 15  3  1  0  0  0  0
 16 21  2  0  0  0  0
 16 20  1  0  0  0  0
 17 18  2  0  0  0  0
 19 18  1  0  0  0  0
 20 19  2  0  0  0  0
 21 17  1  0  0  0  0
 22 26  1  0  0  0  0
 23 27  1  0  0  0  0
 23  7  1  0  0  0  0
 24 23  2  0  0  0  0
 25 22  2  0  0  0  0
 25 24  1  0  0  0  0
 26 27  2  0  0  0  0
M  END
>  <MODEL>
9

>  <REMARK>
 VINA RESULT:      -7.4      2.771      6.961
  Name = 
  2 active torsions:
  status: ('A' for Active; 'I' for Inactive)
    1  A    between atoms: C_9  and  N_15
    2  A    between atoms: C_14  and  C_17
                            x       y       z     vdW  Elec       q    Type
                         _______ _______ _______ _____ _____    ______ ____

>  <TORSDO>
F 2

$$$$
