=
 OpenBabel11052419043D

 32 37  0  0  1  0  0  0  0  0999 V2000
  189.3510  175.8010  142.9260 C   0  0  1  0  0  3  0  0  0  0  0  0
  187.4840  177.2350  143.5810 C   0  0  1  0  0  3  0  0  0  0  0  0
  188.5830  174.7130  142.1840 C   0  0  0  0  0  2  0  0  0  0  0  0
  188.6910  177.1760  142.7700 C   0  0  2  0  0  3  0  0  0  0  0  0
  185.3280  178.3150  143.3110 C   0  0  1  0  0  3  0  0  0  0  0  0
  186.6810  178.7170  148.2640 C   0  0  0  0  0  3  0  0  0  0  0  0
  187.9670  177.2960  145.0060 C   0  0  2  0  0  3  0  0  0  0  0  0
  184.7690  178.4550  146.8120 C   0  0  0  0  0  3  0  0  0  0  0  0
  185.5870  177.9310  145.8050 C   0  0  0  0  0  0  0  0  0  0  0  0
  188.1080  177.5780  141.4440 C   0  0  2  0  0  3  0  0  0  0  0  0
  184.9230  177.4830  144.5410 C   0  0  0  0  0  2  0  0  0  0  0  0
  187.0810  178.5170  141.7440 O   0  0  0  0  0  0  0  0  0  0  0  0
  187.4990  176.3890  140.6790 C   0  0  0  0  0  2  0  0  0  0  0  0
  188.5130  175.8920  145.3130 C   0  0  0  0  0  2  0  0  0  0  0  0
  189.5610  175.4440  144.3530 N   0  0  2  0  0  0  0  0  0  0  0  0
  186.9790  177.7920  146.0340 C   0  0  0  0  0  0  0  0  0  0  0  0
  186.7970  178.4160  143.0920 N   0  0  2  0  0  0  0  0  0  0  0  0
  188.3820  175.1440  140.7340 C   0  0  0  0  0  2  0  0  0  0  0  0
  185.3120  178.8490  148.0360 C   0  0  0  0  0  3  0  0  0  0  0  0
  187.5080  178.1940  147.2680 C   0  0  0  0  0  3  0  0  0  0  0  0
  192.7440  173.4040  144.9420 C   0  0  1  0  0  3  0  0  0  0  0  0
  194.1130  176.6960  145.5140 C   0  0  0  0  0  1  0  0  0  0  0  0
  193.0720  171.9400  144.7410 C   0  0  0  0  0  1  0  0  0  0  0  0
  192.3690  175.4770  146.8780 C   0  0  0  0  0  3  0  0  0  0  0  0
  190.9130  175.8420  144.7770 C   0  0  1  0  0  3  0  0  0  0  0  0
  194.0070  174.1530  145.3850 C   0  0  0  0  0  2  0  0  0  0  0  0
  191.1830  175.6330  146.2600 C   0  0  0  0  0  3  0  0  0  0  0  0
  192.1650  173.9400  143.7090 N   0  0  0  0  0  2  0  0  0  0  0  0
  191.9850  175.3920  143.7740 C   0  0  0  0  0  2  0  0  0  0  0  0
  193.7290  175.4110  146.2280 C   0  0  1  0  0  3  0  0  0  0  0  0
  184.5560  177.8300  142.1110 C   0  0  0  0  0  3  0  0  0  0  0  0
  183.3980  178.1720  141.9290 O   0  0  0  0  0  0  0  0  0  0  0  0
  1  3  1  1  0  0  0
  1 15  1  0  0  0  0
  2  7  1  0  0  0  0
  4  1  1  0  0  0  0
  4  2  1  0  0  0  0
  5 11  1  0  0  0  0
  7 14  1  0  0  0  0
  7 16  1  0  0  0  0
  8 19  2  0  0  0  0
  9 16  2  0  0  0  0
  9  8  1  0  0  0  0
 10 12  1  0  0  0  0
 10  4  1  0  0  0  0
 11  9  1  0  0  0  0
 12 17  1  0  0  0  0
 13 18  1  0  0  0  0
 13 10  1  0  0  0  0
 15 25  1  0  0  0  0
 15 14  1  0  0  0  0
 16 20  1  0  0  0  0
 17  5  1  0  0  0  0
 17  2  1  0  0  0  0
 18  3  1  0  0  0  0
 19  6  1  0  0  0  0
 20  6  2  0  0  0  0
 21 26  1  0  0  0  0
 22 30  1  0  0  0  0
 23 21  1  0  0  0  0
 25 27  1  0  0  0  0
 26 30  1  0  0  0  0
 27 24  2  0  0  0  0
 28 29  1  0  0  0  0
 28 21  1  0  0  0  0
 29 25  1  0  0  0  0
 30 24  1  0  0  0  0
 31  5  1  0  0  0  0
 32 31  2  0  0  0  0
M  END
>  <MODEL>
1

>  <REMARK>
 VINA RESULT:      -9.4      0.000      0.000
  Name = 
  2 active torsions:
  status: ('A' for Active; 'I' for Inactive)
    1  A    between atoms: C_6  and  C_13
    2  A    between atoms: C_16  and  N_27
                            x       y       z     vdW  Elec       q    Type
                         _______ _______ _______ _____ _____    ______ ____

>  <TORSDO>
F 2

$$$$
=
 OpenBabel11052419043D

 32 37  0  0  1  0  0  0  0  0999 V2000
  188.2010  175.5000  142.7070 C   0  0  1  0  0  3  0  0  0  0  0  0
  190.4790  174.7840  143.2290 C   0  0  1  0  0  3  0  0  0  0  0  0
  188.3890  175.8860  141.2440 C   0  0  0  0  0  2  0  0  0  0  0  0
  189.1010  174.3270  143.1100 C   0  0  2  0  0  3  0  0  0  0  0  0
  192.6330  173.7670  142.7720 C   0  0  1  0  0  3  0  0  0  0  0  0
  193.0870  176.5470  147.0840 C   0  0  0  0  0  3  0  0  0  0  0  0
  190.5090  175.6270  144.4770 C   0  0  2  0  0  3  0  0  0  0  0  0
  194.3010  175.8410  145.1190 C   0  0  0  0  0  3  0  0  0  0  0  0
  193.0990  175.6240  144.4360 C   0  0  0  0  0  0  0  0  0  0  0  0
  189.3100  173.1840  142.1570 C   0  0  2  0  0  3  0  0  0  0  0  0
  193.1860  175.1840  143.0090 C   0  0  0  0  0  2  0  0  0  0  0  0
  190.5820  172.6360  142.4860 O   0  0  0  0  0  0  0  0  0  0  0  0
  189.3200  173.6340  140.6850 C   0  0  0  0  0  2  0  0  0  0  0  0
  189.7540  176.9170  144.1180 C   0  0  0  0  0  2  0  0  0  0  0  0
  188.3760  176.6700  143.6060 N   0  0  2  0  0  0  0  0  0  0  0  0
  191.8660  175.8790  145.0890 C   0  0  0  0  0  0  0  0  0  0  0  0
  191.2480  173.5550  143.2740 N   0  0  2  0  0  0  0  0  0  0  0  0
  188.2170  174.6440  140.3740 C   0  0  0  0  0  2  0  0  0  0  0  0
  194.2970  176.2980  146.4370 C   0  0  0  0  0  3  0  0  0  0  0  0
  191.8810  176.3350  146.4140 C   0  0  0  0  0  3  0  0  0  0  0  0
  185.7410  179.2030  144.7380 C   0  0  1  0  0  3  0  0  0  0  0  0
  184.8950  176.5160  146.9960 C   0  0  0  0  0  1  0  0  0  0  0  0
  185.3090  180.5450  144.1860 C   0  0  0  0  0  1  0  0  0  0  0  0
  187.0260  177.8720  146.9220 C   0  0  0  0  0  3  0  0  0  0  0  0
  187.3790  176.6260  144.6880 C   0  0  1  0  0  3  0  0  0  0  0  0
  184.8440  178.8270  145.9240 C   0  0  0  0  0  2  0  0  0  0  0  0
  187.8050  177.3570  145.9520 C   0  0  0  0  0  3  0  0  0  0  0  0
  185.7150  178.2090  143.6640 N   0  0  0  0  0  2  0  0  0  0  0  0
  185.9540  176.8540  144.1640 C   0  0  0  0  0  2  0  0  0  0  0  0
  185.5170  177.9000  146.9530 C   0  0  1  0  0  3  0  0  0  0  0  0
  192.8300  173.3960  141.3250 C   0  0  0  0  0  3  0  0  0  0  0  0
  192.8590  174.2530  140.4550 O   0  0  0  0  0  0  0  0  0  0  0  0
  1  3  1  6  0  0  0
  1  4  1  0  0  0  0
  1 15  1  0  0  0  0
  2 17  1  0  0  0  0
  2  7  1  0  0  0  0
  4  2  1  0  0  0  0
  5 11  1  0  0  0  0
  5 17  1  0  0  0  0
  7 16  1  0  0  0  0
  8 19  2  0  0  0  0
  9 16  2  0  0  0  0
  9  8  1  0  0  0  0
 10 12  1  0  0  0  0
 10  4  1  0  0  0  0
 11  9  1  0  0  0  0
 12 17  1  0  0  0  0
 13 10  1  0  0  0  0
 14  7  1  0  0  0  0
 15 14  1  0  0  0  0
 15 25  1  0  0  0  0
 16 20  1  0  0  0  0
 18 13  1  0  0  0  0
 18  3  1  0  0  0  0
 19  6  1  0  0  0  0
 20  6  2  0  0  0  0
 21 26  1  0  0  0  0
 23 21  1  0  0  0  0
 24 30  1  0  0  0  0
 25 27  1  0  0  0  0
 26 30  1  0  0  0  0
 27 24  2  0  0  0  0
 28 29  1  0  0  0  0
 28 21  1  0  0  0  0
 29 25  1  0  0  0  0
 30 22  1  0  0  0  0
 31  5  1  0  0  0  0
 32 31  2  0  0  0  0
M  END
>  <MODEL>
2

>  <REMARK>
 VINA RESULT:      -8.2      2.453      6.873
  Name = 
  2 active torsions:
  status: ('A' for Active; 'I' for Inactive)
    1  A    between atoms: C_6  and  C_13
    2  A    between atoms: C_16  and  N_27
                            x       y       z     vdW  Elec       q    Type
                         _______ _______ _______ _____ _____    ______ ____

>  <TORSDO>
F 2

$$$$
=
 OpenBabel11052419043D

 32 37  0  0  1  0  0  0  0  0999 V2000
  190.4930  176.3200  145.5090 C   0  0  1  0  0  3  0  0  0  0  0  0
  191.9680  174.7050  144.4190 C   0  0  1  0  0  3  0  0  0  0  0  0
  190.7760  175.9740  146.9670 C   0  0  0  0  0  2  0  0  0  0  0  0
  191.7290  176.1270  144.6240 C   0  0  2  0  0  3  0  0  0  0  0  0
  193.9680  173.3540  144.1770 C   0  0  1  0  0  3  0  0  0  0  0  0
  190.4350  171.5390  140.8980 C   0  0  0  0  0  3  0  0  0  0  0  0
  190.8670  174.2480  143.4990 C   0  0  2  0  0  3  0  0  0  0  0  0
  192.2610  170.8560  142.3230 C   0  0  0  0  0  3  0  0  0  0  0  0
  192.1060  172.0090  143.1000 C   0  0  0  0  0  0  0  0  0  0  0  0
  193.0850  176.5250  145.1370 C   0  0  2  0  0  3  0  0  0  0  0  0
  192.9990  172.1640  144.2910 C   0  0  0  0  0  2  0  0  0  0  0  0
  194.0150  175.6980  144.4470 O   0  0  0  0  0  0  0  0  0  0  0  0
  193.2350  176.3010  146.6520 C   0  0  0  0  0  2  0  0  0  0  0  0
  189.5890  174.2570  144.3540 C   0  0  0  0  0  2  0  0  0  0  0  0
  189.3160  175.5760  144.9910 N   0  0  2  0  0  0  0  0  0  0  0  0
  191.0910  172.9430  142.7730 C   0  0  0  0  0  0  0  0  0  0  0  0
  193.3120  174.6560  143.8750 N   0  0  2  0  0  0  0  0  0  0  0  0
  192.0030  176.7520  147.4350 C   0  0  0  0  0  2  0  0  0  0  0  0
  191.4320  170.6210  141.2260 C   0  0  0  0  0  3  0  0  0  0  0  0
  190.2690  172.6930  141.6660 C   0  0  0  0  0  3  0  0  0  0  0  0
  185.8130  177.0490  145.4450 C   0  0  1  0  0  3  0  0  0  0  0  0
  186.6670  178.6640  142.3300 C   0  0  0  0  0  1  0  0  0  0  0  0
  184.8250  177.0030  146.5900 C   0  0  0  0  0  1  0  0  0  0  0  0
  186.3310  176.1970  142.7620 C   0  0  0  0  0  3  0  0  0  0  0  0
  188.5050  176.4540  144.1320 C   0  0  1  0  0  3  0  0  0  0  0  0
  185.2600  177.9460  144.3300 C   0  0  0  0  0  2  0  0  0  0  0  0
  187.4700  175.7160  143.2950 C   0  0  0  0  0  3  0  0  0  0  0  0
  187.1130  177.4970  145.9470 N   0  0  0  0  0  2  0  0  0  0  0  0
  188.0690  177.7310  144.8630 C   0  0  0  0  0  2  0  0  0  0  0  0
  185.7720  177.5900  142.9230 C   0  0  1  0  0  3  0  0  0  0  0  0
  194.8630  173.3790  145.3890 C   0  0  0  0  0  3  0  0  0  0  0  0
  195.5320  172.4040  145.6950 O   0  0  0  0  0  0  0  0  0  0  0  0
  1  3  1  1  0  0  0
  2  4  1  0  0  0  0
  3 18  1  0  0  0  0
  4 10  1  0  0  0  0
  4  1  1  0  0  0  0
  5 11  1  0  0  0  0
  5 31  1  0  0  0  0
  6 19  2  0  0  0  0
  6 20  1  0  0  0  0
  7 14  1  0  0  0  0
  7  2  1  0  0  0  0
  8  9  2  0  0  0  0
  9 11  1  0  0  0  0
 10 13  1  0  0  0  0
 12 10  1  0  0  0  0
 13 18  1  0  0  0  0
 14 15  1  0  0  0  0
 15  1  1  0  0  0  0
 16  9  1  0  0  0  0
 16  7  1  0  0  0  0
 17  5  1  0  0  0  0
 17  2  1  0  0  0  0
 17 12  1  0  0  0  0
 19  8  1  0  0  0  0
 20 16  2  0  0  0  0
 21 28  1  0  0  0  0
 21 23  1  0  0  0  0
 22 30  1  0  0  0  0
 24 30  1  0  0  0  0
 24 27  2  0  0  0  0
 25 29  1  0  0  0  0
 25 15  1  0  0  0  0
 26 21  1  0  0  0  0
 27 25  1  0  0  0  0
 29 28  1  0  0  0  0
 30 26  1  0  0  0  0
 31 32  2  0  0  0  0
M  END
>  <MODEL>
3

>  <REMARK>
 VINA RESULT:      -8.1      3.013      8.054
  Name = 
  2 active torsions:
  status: ('A' for Active; 'I' for Inactive)
    1  A    between atoms: C_6  and  C_13
    2  A    between atoms: C_16  and  N_27
                            x       y       z     vdW  Elec       q    Type
                         _______ _______ _______ _____ _____    ______ ____

>  <TORSDO>
F 2

$$$$
=
 OpenBabel11052419043D

 32 37  0  0  1  0  0  0  0  0999 V2000
  188.9160  176.9700  146.2870 C   0  0  1  0  0  3  0  0  0  0  0  0
  186.9620  177.2210  144.8400 C   0  0  1  0  0  3  0  0  0  0  0  0
  188.8370  178.2910  147.0450 C   0  0  0  0  0  2  0  0  0  0  0  0
  187.5260  176.4340  145.9270 C   0  0  2  0  0  3  0  0  0  0  0  0
  184.7140  177.9310  144.2700 C   0  0  1  0  0  3  0  0  0  0  0  0
  187.1300  176.6860  139.8950 C   0  0  0  0  0  3  0  0  0  0  0  0
  187.7560  176.8370  143.6200 C   0  0  2  0  0  3  0  0  0  0  0  0
  185.4930  178.2020  140.8180 C   0  0  0  0  0  3  0  0  0  0  0  0
  186.0250  178.0200  142.0990 C   0  0  0  0  0  0  0  0  0  0  0  0
  186.4010  176.5510  146.9170 C   0  0  2  0  0  3  0  0  0  0  0  0
  185.4170  178.8070  143.2170 C   0  0  0  0  0  2  0  0  0  0  0  0
  185.2080  176.5810  146.1400 O   0  0  0  0  0  0  0  0  0  0  0  0
  186.4860  177.8340  147.7620 C   0  0  0  0  0  2  0  0  0  0  0  0
  189.1410  177.4740  143.8160 C   0  0  0  0  0  2  0  0  0  0  0  0
  189.7960  177.0780  145.0950 N   0  0  2  0  0  0  0  0  0  0  0  0
  187.1350  177.1580  142.2820 C   0  0  0  0  0  0  0  0  0  0  0  0
  185.5610  176.8440  144.8310 N   0  0  2  0  0  0  0  0  0  0  0  0
  187.9060  178.1240  148.2430 C   0  0  0  0  0  2  0  0  0  0  0  0
  186.0400  177.5380  139.7210 C   0  0  0  0  0  3  0  0  0  0  0  0
  187.6710  176.4960  141.1680 C   0  0  0  0  0  3  0  0  0  0  0  0
  193.4710  176.3480  145.8760 C   0  0  1  0  0  3  0  0  0  0  0  0
  192.4690  173.0220  144.8890 C   0  0  0  0  0  1  0  0  0  0  0  0
  194.5660  177.1790  146.5080 C   0  0  0  0  0  1  0  0  0  0  0  0
  192.5700  175.1040  143.4600 C   0  0  0  0  0  3  0  0  0  0  0  0
  190.6010  175.8540  144.9540 C   0  0  1  0  0  3  0  0  0  0  0  0
  193.9960  174.9320  145.6070 C   0  0  0  0  0  2  0  0  0  0  0  0
  191.4500  175.8140  143.6910 C   0  0  0  0  0  3  0  0  0  0  0  0
  192.2920  176.3640  146.7440 N   0  0  0  0  0  2  0  0  0  0  0  0
  191.2550  175.4400  146.2800 C   0  0  0  0  0  2  0  0  0  0  0  0
  193.2970  174.2130  144.4380 C   0  0  1  0  0  3  0  0  0  0  0  0
  184.0800  178.8210  145.3080 C   0  0  0  0  0  3  0  0  0  0  0  0
  184.6750  179.7910  145.7510 O   0  0  0  0  0  0  0  0  0  0  0  0
  1  3  1  6  0  0  0
  2  4  1  0  0  0  0
  3 18  1  0  0  0  0
  4  1  1  0  0  0  0
  4 10  1  0  0  0  0
  5 17  1  0  0  0  0
  5 31  1  0  0  0  0
  6 20  1  0  0  0  0
  7 14  1  0  0  0  0
  7  2  1  0  0  0  0
  8  9  2  0  0  0  0
  9 16  1  0  0  0  0
  9 11  1  0  0  0  0
 10 13  1  0  0  0  0
 11  5  1  0  0  0  0
 12 10  1  0  0  0  0
 13 18  1  0  0  0  0
 14 15  1  0  0  0  0
 15  1  1  0  0  0  0
 16  7  1  0  0  0  0
 17  2  1  0  0  0  0
 17 12  1  0  0  0  0
 19  6  2  0  0  0  0
 19  8  1  0  0  0  0
 20 16  2  0  0  0  0
 21 23  1  0  0  0  0
 21 28  1  0  0  0  0
 24 27  2  0  0  0  0
 24 30  1  0  0  0  0
 25 15  1  0  0  0  0
 25 29  1  0  0  0  0
 26 21  1  0  0  0  0
 27 25  1  0  0  0  0
 29 28  1  0  0  0  0
 30 22  1  0  0  0  0
 30 26  1  0  0  0  0
 31 32  2  0  0  0  0
M  END
>  <MODEL>
4

>  <REMARK>
 VINA RESULT:      -8.0      1.821      4.513
  Name = 
  2 active torsions:
  status: ('A' for Active; 'I' for Inactive)
    1  A    between atoms: C_6  and  C_13
    2  A    between atoms: C_16  and  N_27
                            x       y       z     vdW  Elec       q    Type
                         _______ _______ _______ _____ _____    ______ ____

>  <TORSDO>
F 2

$$$$
=
 OpenBabel11052419043D

 32 37  0  0  1  0  0  0  0  0999 V2000
  190.4210  176.1880  144.3300 C   0  0  1  0  0  3  0  0  0  0  0  0
  191.2850  174.8610  142.4690 C   0  0  1  0  0  3  0  0  0  0  0  0
  191.1200  175.4820  145.4870 C   0  0  0  0  0  2  0  0  0  0  0  0
  191.2790  176.1920  143.0600 C   0  0  2  0  0  3  0  0  0  0  0  0
  192.9440  173.5640  141.2640 C   0  0  1  0  0  3  0  0  0  0  0  0
  188.3710  172.7140  139.0530 C   0  0  0  0  0  3  0  0  0  0  0  0
  189.9040  174.6750  141.8970 C   0  0  2  0  0  3  0  0  0  0  0  0
  190.4740  171.6510  139.5810 C   0  0  0  0  0  3  0  0  0  0  0  0
  190.7020  172.5770  140.6050 C   0  0  0  0  0  0  0  0  0  0  0  0
  192.7620  176.4160  143.1600 C   0  0  2  0  0  3  0  0  0  0  0  0
  191.9410  172.4070  141.4260 C   0  0  0  0  0  2  0  0  0  0  0  0
  193.3270  175.7640  142.0280 O   0  0  0  0  0  0  0  0  0  0  0  0
  193.3670  175.8160  144.4420 C   0  0  0  0  0  2  0  0  0  0  0  0
  188.9780  174.5020  143.1120 C   0  0  0  0  0  2  0  0  0  0  0  0
  189.0680  175.6270  144.0860 N   0  0  2  0  0  0  0  0  0  0  0  0
  189.7420  173.5890  140.8620 C   0  0  0  0  0  0  0  0  0  0  0  0
  192.3690  174.9160  141.5060 N   0  0  2  0  0  0  0  0  0  0  0  0
  192.5080  176.0870  145.6760 C   0  0  0  0  0  2  0  0  0  0  0  0
  189.3160  171.7190  138.8060 C   0  0  0  0  0  3  0  0  0  0  0  0
  188.5860  173.6430  140.0720 C   0  0  0  0  0  3  0  0  0  0  0  0
  186.3550  177.3170  146.1900 C   0  0  1  0  0  3  0  0  0  0  0  0
  186.0750  179.3610  143.2260 C   0  0  0  0  0  1  0  0  0  0  0  0
  185.9410  177.1660  147.6380 C   0  0  0  0  0  1  0  0  0  0  0  0
  185.5650  176.8980  143.4710 C   0  0  0  0  0  3  0  0  0  0  0  0
  188.1230  176.7110  143.7750 C   0  0  1  0  0  3  0  0  0  0  0  0
  185.5370  178.4410  145.5410 C   0  0  0  0  0  2  0  0  0  0  0  0
  186.7310  176.2280  143.3940 C   0  0  0  0  0  3  0  0  0  0  0  0
  187.7990  177.5490  146.1230 N   0  0  0  0  0  2  0  0  0  0  0  0
  188.2390  177.8780  144.7660 C   0  0  0  0  0  2  0  0  0  0  0  0
  185.3520  178.2870  144.0200 C   0  0  1  0  0  3  0  0  0  0  0  0
  194.1790  173.2630  142.0740 C   0  0  0  0  0  3  0  0  0  0  0  0
  194.1060  172.6450  143.1250 O   0  0  0  0  0  0  0  0  0  0  0  0
  1  3  1  1  0  0  0
  2  4  1  0  0  0  0
  3 18  1  0  0  0  0
  4 10  1  0  0  0  0
  4  1  1  0  0  0  0
  5 11  1  0  0  0  0
  5 17  1  0  0  0  0
  5 31  1  0  0  0  0
  6 20  1  0  0  0  0
  7  2  1  0  0  0  0
  7 14  1  0  0  0  0
  8  9  2  0  0  0  0
  9 16  1  0  0  0  0
  9 11  1  0  0  0  0
 10 13  1  0  0  0  0
 12 10  1  0  0  0  0
 13 18  1  0  0  0  0
 14 15  1  0  0  0  0
 15  1  1  0  0  0  0
 16  7  1  0  0  0  0
 17 12  1  0  0  0  0
 17  2  1  0  0  0  0
 19  6  2  0  0  0  0
 19  8  1  0  0  0  0
 20 16  2  0  0  0  0
 21 23  1  0  0  0  0
 22 30  1  0  0  0  0
 24 30  1  0  0  0  0
 25 15  1  0  0  0  0
 25 29  1  0  0  0  0
 26 21  1  0  0  0  0
 27 24  2  0  0  0  0
 27 25  1  0  0  0  0
 28 21  1  0  0  0  0
 29 28  1  0  0  0  0
 30 26  1  0  0  0  0
 31 32  2  0  0  0  0
M  END
>  <MODEL>
5

>  <REMARK>
 VINA RESULT:      -7.9      2.903      7.672
  Name = 
  2 active torsions:
  status: ('A' for Active; 'I' for Inactive)
    1  A    between atoms: C_6  and  C_13
    2  A    between atoms: C_16  and  N_27
                            x       y       z     vdW  Elec       q    Type
                         _______ _______ _______ _____ _____    ______ ____

>  <TORSDO>
F 2

$$$$
=
 OpenBabel11052419043D

 32 37  0  0  1  0  0  0  0  0999 V2000
  189.5820  176.6160  145.4230 C   0  0  1  0  0  3  0  0  0  0  0  0
  187.4420  177.0800  144.3390 C   0  0  1  0  0  3  0  0  0  0  0  0
  189.7590  177.9180  146.1970 C   0  0  0  0  0  2  0  0  0  0  0  0
  188.1070  176.2170  145.3050 C   0  0  2  0  0  3  0  0  0  0  0  0
  185.2060  178.0070  144.1730 C   0  0  1  0  0  3  0  0  0  0  0  0
  186.7090  176.6580  139.4340 C   0  0  0  0  0  3  0  0  0  0  0  0
  187.9760  176.6570  142.9960 C   0  0  2  0  0  3  0  0  0  0  0  0
  185.4040  178.2930  140.6420 C   0  0  0  0  0  3  0  0  0  0  0  0
  186.1280  178.0310  141.8090 C   0  0  0  0  0  0  0  0  0  0  0  0
  187.1840  176.4110  146.4750 C   0  0  2  0  0  3  0  0  0  0  0  0
  185.7970  178.8420  143.0230 C   0  0  0  0  0  2  0  0  0  0  0  0
  185.8840  176.5690  145.9170 O   0  0  0  0  0  0  0  0  0  0  0  0
  187.5330  177.6590  147.3050 C   0  0  0  0  0  2  0  0  0  0  0  0
  189.4270  177.1600  142.9560 C   0  0  0  0  0  2  0  0  0  0  0  0
  190.2510  176.6730  144.0980 N   0  0  2  0  0  0  0  0  0  0  0  0
  187.1670  177.0670  141.7880 C   0  0  0  0  0  0  0  0  0  0  0  0
  186.0310  176.8330  144.5690 N   0  0  2  0  0  0  0  0  0  0  0  0
  189.0360  177.8060  147.5360 C   0  0  0  0  0  2  0  0  0  0  0  0
  185.6900  177.6100  139.4590 C   0  0  0  0  0  3  0  0  0  0  0  0
  187.4390  176.3880  140.5930 C   0  0  0  0  0  3  0  0  0  0  0  0
  193.9400  175.6640  143.9480 C   0  0  1  0  0  3  0  0  0  0  0  0
  192.4780  172.4100  143.3900 C   0  0  0  0  0  1  0  0  0  0  0  0
  195.2180  176.4170  144.2450 C   0  0  0  0  0  1  0  0  0  0  0  0
  192.3610  174.4450  141.8960 C   0  0  0  0  0  3  0  0  0  0  0  0
  190.9020  175.3850  143.8080 C   0  0  1  0  0  3  0  0  0  0  0  0
  194.2740  174.2050  143.6140 C   0  0  0  0  0  2  0  0  0  0  0  0
  191.3920  175.2490  142.3740 C   0  0  0  0  0  3  0  0  0  0  0  0
  193.0280  175.7960  145.0870 N   0  0  0  0  0  2  0  0  0  0  0  0
  191.8430  174.9480  144.9400 C   0  0  0  0  0  2  0  0  0  0  0  0
  193.2470  173.5200  142.6930 C   0  0  1  0  0  3  0  0  0  0  0  0
  184.8460  178.9230  145.3130 C   0  0  0  0  0  3  0  0  0  0  0  0
  183.7040  178.9710  145.7440 O   0  0  0  0  0  0  0  0  0  0  0  0
  1  3  1  6  0  0  0
  2 17  1  0  0  0  0
  2  4  1  0  0  0  0
  3 18  1  0  0  0  0
  4  1  1  0  0  0  0
  4 10  1  0  0  0  0
  5 17  1  0  0  0  0
  5 31  1  0  0  0  0
  6 19  2  0  0  0  0
  6 20  1  0  0  0  0
  7  2  1  0  0  0  0
  8  9  2  0  0  0  0
  9 11  1  0  0  0  0
 10 13  1  0  0  0  0
 11  5  1  0  0  0  0
 12 10  1  0  0  0  0
 13 18  1  0  0  0  0
 14  7  1  0  0  0  0
 14 15  1  0  0  0  0
 15  1  1  0  0  0  0
 16  9  1  0  0  0  0
 16  7  1  0  0  0  0
 17 12  1  0  0  0  0
 19  8  1  0  0  0  0
 20 16  2  0  0  0  0
 21 23  1  0  0  0  0
 21 28  1  0  0  0  0
 24 27  2  0  0  0  0
 24 30  1  0  0  0  0
 25 15  1  0  0  0  0
 25 29  1  0  0  0  0
 26 21  1  0  0  0  0
 27 25  1  0  0  0  0
 29 28  1  0  0  0  0
 30 22  1  0  0  0  0
 30 26  1  0  0  0  0
 31 32  2  0  0  0  0
M  END
>  <MODEL>
6

>  <REMARK>
 VINA RESULT:      -7.9      1.859      4.510
  Name = 
  2 active torsions:
  status: ('A' for Active; 'I' for Inactive)
    1  A    between atoms: C_6  and  C_13
    2  A    between atoms: C_16  and  N_27
                            x       y       z     vdW  Elec       q    Type
                         _______ _______ _______ _____ _____    ______ ____

>  <TORSDO>
F 2

$$$$
=
 OpenBabel11052419043D

 32 37  0  0  1  0  0  0  0  0999 V2000
  188.8670  174.3420  142.5980 C   0  0  1  0  0  3  0  0  0  0  0  0
  191.0260  173.8140  143.6130 C   0  0  1  0  0  3  0  0  0  0  0  0
  189.2330  174.1720  141.1280 C   0  0  0  0  0  2  0  0  0  0  0  0
  189.6440  173.3730  143.4970 C   0  0  2  0  0  3  0  0  0  0  0  0
  193.1490  172.6560  143.8120 C   0  0  1  0  0  3  0  0  0  0  0  0
  193.3150  176.7880  146.8820 C   0  0  0  0  0  3  0  0  0  0  0  0
  190.9760  175.0470  144.4760 C   0  0  2  0  0  3  0  0  0  0  0  0
  194.6840  175.3990  145.4580 C   0  0  0  0  0  3  0  0  0  0  0  0
  193.5500  174.9770  144.7550 C   0  0  0  0  0  0  0  0  0  0  0  0
  189.8810  171.9600  143.0430 C   0  0  2  0  0  3  0  0  0  0  0  0
  193.7620  174.0520  143.5980 C   0  0  0  0  0  2  0  0  0  0  0  0
  191.0730  171.5400  143.6970 O   0  0  0  0  0  0  0  0  0  0  0  0
  190.0750  171.8510  141.5200 C   0  0  0  0  0  2  0  0  0  0  0  0
  190.3470  176.1380  143.5950 C   0  0  0  0  0  2  0  0  0  0  0  0
  189.0180  175.7520  143.0390 N   0  0  2  0  0  0  0  0  0  0  0  0
  192.2740  175.4740  145.1190 C   0  0  0  0  0  0  0  0  0  0  0  0
  191.7070  172.6670  144.1830 N   0  0  2  0  0  0  0  0  0  0  0  0
  189.0770  172.7050  140.7400 C   0  0  0  0  0  2  0  0  0  0  0  0
  194.5690  176.2990  146.5180 C   0  0  0  0  0  3  0  0  0  0  0  0
  192.1760  176.3750  146.1880 C   0  0  0  0  0  3  0  0  0  0  0  0
  185.9320  177.9500  142.4980 C   0  0  1  0  0  3  0  0  0  0  0  0
  185.2000  176.8250  145.8500 C   0  0  0  0  0  1  0  0  0  0  0  0
  185.3880  178.6650  141.2810 C   0  0  0  0  0  1  0  0  0  0  0  0
  187.1110  178.2900  145.0840 C   0  0  0  0  0  3  0  0  0  0  0  0
  187.9110  176.1200  143.9350 C   0  0  1  0  0  3  0  0  0  0  0  0
  184.9570  178.1210  143.6700 C   0  0  0  0  0  2  0  0  0  0  0  0
  188.0690  177.4860  144.5870 C   0  0  0  0  0  3  0  0  0  0  0  0
  186.1800  176.5460  142.1620 N   0  0  0  0  0  2  0  0  0  0  0  0
  186.5430  175.7560  143.3390 C   0  0  0  0  0  2  0  0  0  0  0  0
  185.6210  178.0490  145.0570 C   0  0  1  0  0  3  0  0  0  0  0  0
  193.4750  171.7870  142.6250 C   0  0  0  0  0  3  0  0  0  0  0  0
  193.7390  172.2800  141.5390 O   0  0  0  0  0  0  0  0  0  0  0  0
  1  3  1  6  0  0  0
  1 15  1  0  0  0  0
  1  4  1  0  0  0  0
  2 17  1  0  0  0  0
  2  7  1  0  0  0  0
  4  2  1  0  0  0  0
  5 17  1  0  0  0  0
  7 16  1  0  0  0  0
  8 19  2  0  0  0  0
  9 16  2  0  0  0  0
  9  8  1  0  0  0  0
 10  4  1  0  0  0  0
 10 12  1  0  0  0  0
 11  5  1  0  0  0  0
 11  9  1  0  0  0  0
 12 17  1  0  0  0  0
 13 10  1  0  0  0  0
 14  7  1  0  0  0  0
 15 14  1  0  0  0  0
 15 25  1  0  0  0  0
 16 20  1  0  0  0  0
 18  3  1  0  0  0  0
 18 13  1  0  0  0  0
 19  6  1  0  0  0  0
 20  6  2  0  0  0  0
 21 26  1  0  0  0  0
 23 21  1  0  0  0  0
 25 27  1  0  0  0  0
 26 30  1  0  0  0  0
 27 24  2  0  0  0  0
 28 21  1  0  0  0  0
 28 29  1  0  0  0  0
 29 25  1  0  0  0  0
 30 24  1  0  0  0  0
 30 22  1  0  0  0  0
 31  5  1  0  0  0  0
 32 31  2  0  0  0  0
M  END
>  <MODEL>
7

>  <REMARK>
 VINA RESULT:      -7.9      2.819      7.242
  Name = 
  2 active torsions:
  status: ('A' for Active; 'I' for Inactive)
    1  A    between atoms: C_6  and  C_13
    2  A    between atoms: C_16  and  N_27
                            x       y       z     vdW  Elec       q    Type
                         _______ _______ _______ _____ _____    ______ ____

>  <TORSDO>
F 2

$$$$
=
 OpenBabel11052419043D

 32 37  0  0  1  0  0  0  0  0999 V2000
  191.6180  175.8700  145.2090 C   0  0  1  0  0  3  0  0  0  0  0  0
  192.8580  173.8970  144.4730 C   0  0  1  0  0  3  0  0  0  0  0  0
  191.9490  175.8330  146.6970 C   0  0  0  0  0  2  0  0  0  0  0  0
  192.7760  175.3450  144.3520 C   0  0  2  0  0  3  0  0  0  0  0  0
  194.6950  172.3130  144.4820 C   0  0  1  0  0  3  0  0  0  0  0  0
  190.8130  170.2080  141.8300 C   0  0  0  0  0  3  0  0  0  0  0  0
  191.6650  173.3690  143.7200 C   0  0  2  0  0  3  0  0  0  0  0  0
  192.6410  169.6650  143.3130 C   0  0  0  0  0  3  0  0  0  0  0  0
  192.6480  170.9740  143.8070 C   0  0  0  0  0  0  0  0  0  0  0  0
  194.1920  175.6960  144.7140 C   0  0  2  0  0  3  0  0  0  0  0  0
  193.6190  171.2940  144.9000 C   0  0  0  0  0  2  0  0  0  0  0  0
  194.9930  174.6370  144.2030 O   0  0  0  0  0  0  0  0  0  0  0  0
  194.4060  175.8050  146.2340 C   0  0  0  0  0  2  0  0  0  0  0  0
  190.4470  173.7120  144.5920 C   0  0  0  0  0  2  0  0  0  0  0  0
  190.3450  175.1640  144.9160 N   0  0  2  0  0  0  0  0  0  0  0  0
  191.7150  171.9180  143.3070 C   0  0  0  0  0  0  0  0  0  0  0  0
  194.1570  173.5770  143.9100 N   0  0  2  0  0  0  0  0  0  0  0  0
  193.2730  176.5550  146.9320 C   0  0  0  0  0  2  0  0  0  0  0  0
  191.7310  169.2830  142.3280 C   0  0  0  0  0  3  0  0  0  0  0  0
  190.8090  171.5170  142.3160 C   0  0  0  0  0  3  0  0  0  0  0  0
  186.8560  176.7330  145.0170 C   0  0  1  0  0  3  0  0  0  0  0  0
  187.8380  177.8400  141.7240 C   0  0  0  0  0  1  0  0  0  0  0  0
  185.8310  176.8760  146.1210 C   0  0  0  0  0  1  0  0  0  0  0  0
  187.4450  175.4720  142.5160 C   0  0  0  0  0  3  0  0  0  0  0  0
  189.5780  175.9090  143.9050 C   0  0  1  0  0  3  0  0  0  0  0  0
  186.3550  177.4560  143.7600 C   0  0  0  0  0  2  0  0  0  0  0  0
  188.5580  175.0650  143.1560 C   0  0  0  0  0  3  0  0  0  0  0  0
  188.1470  177.2360  145.4900 N   0  0  0  0  0  2  0  0  0  0  0  0
  189.1410  177.2890  144.4170 C   0  0  0  0  0  2  0  0  0  0  0  0
  186.9060  176.8800  142.4420 C   0  0  1  0  0  3  0  0  0  0  0  0
  195.6570  172.5110  145.6250 C   0  0  0  0  0  3  0  0  0  0  0  0
  196.7930  172.0650  145.5740 O   0  0  0  0  0  0  0  0  0  0  0  0
  1  3  1  1  0  0  0
  3 18  1  0  0  0  0
  4  2  1  0  0  0  0
  4 10  1  0  0  0  0
  4  1  1  0  0  0  0
  5 11  1  0  0  0  0
  5 31  1  0  0  0  0
  6 20  2  0  0  0  0
  6 19  1  0  0  0  0
  7  2  1  0  0  0  0
  7 14  1  0  0  0  0
  8  9  1  0  0  0  0
  9 11  1  0  0  0  0
 10 13  1  0  0  0  0
 12 10  1  0  0  0  0
 13 18  1  0  0  0  0
 14 15  1  0  0  0  0
 15  1  1  0  0  0  0
 16  7  1  0  0  0  0
 16  9  2  0  0  0  0
 17 12  1  0  0  0  0
 17  2  1  0  0  0  0
 17  5  1  0  0  0  0
 19  8  2  0  0  0  0
 20 16  1  0  0  0  0
 21 28  1  0  0  0  0
 21 23  1  0  0  0  0
 22 30  1  0  0  0  0
 24 27  2  0  0  0  0
 25 29  1  0  0  0  0
 25 15  1  0  0  0  0
 26 21  1  0  0  0  0
 27 25  1  0  0  0  0
 29 28  1  0  0  0  0
 30 24  1  0  0  0  0
 30 26  1  0  0  0  0
 32 31  2  0  0  0  0
M  END
>  <MODEL>
8

>  <REMARK>
 VINA RESULT:      -7.8      3.244      8.387
  Name = 
  2 active torsions:
  status: ('A' for Active; 'I' for Inactive)
    1  A    between atoms: C_6  and  C_13
    2  A    between atoms: C_16  and  N_27
                            x       y       z     vdW  Elec       q    Type
                         _______ _______ _______ _____ _____    ______ ____

>  <TORSDO>
F 2

$$$$
=
 OpenBabel11052419043D

 32 37  0  0  1  0  0  0  0  0999 V2000
  191.3000  174.9940  144.8880 C   0  0  1  0  0  3  0  0  0  0  0  0
  189.0940  176.0440  144.9510 C   0  0  1  0  0  3  0  0  0  0  0  0
  192.0710  175.9800  145.7590 C   0  0  0  0  0  2  0  0  0  0  0  0
  189.8410  174.8550  145.3350 C   0  0  2  0  0  3  0  0  0  0  0  0
  187.2640  177.2780  145.9580 C   0  0  1  0  0  3  0  0  0  0  0  0
  186.4770  177.1660  140.8680 C   0  0  0  0  0  3  0  0  0  0  0  0
  188.9570  175.9580  143.4540 C   0  0  2  0  0  3  0  0  0  0  0  0
  186.1720  178.5450  142.8280 C   0  0  0  0  0  3  0  0  0  0  0  0
  187.1970  177.8580  143.4880 C   0  0  0  0  0  0  0  0  0  0  0  0
  189.5080  174.8270  146.8010 C   0  0  2  0  0  3  0  0  0  0  0  0
  187.5610  178.3200  144.8640 C   0  0  0  0  0  2  0  0  0  0  0  0
  188.1760  175.3180  146.9020 O   0  0  0  0  0  0  0  0  0  0  0  0
  190.4420  175.7200  147.6380 C   0  0  0  0  0  2  0  0  0  0  0  0
  190.3600  176.2460  142.8970 C   0  0  0  0  0  2  0  0  0  0  0  0
  191.4090  175.3400  143.4470 N   0  0  2  0  0  0  0  0  0  0  0  0
  187.8790  176.8070  142.8240 C   0  0  0  0  0  0  0  0  0  0  0  0
  187.8610  175.9370  145.7090 N   0  0  2  0  0  0  0  0  0  0  0  0
  191.9060  175.5850  147.2240 C   0  0  0  0  0  2  0  0  0  0  0  0
  185.8120  178.2010  141.5250 C   0  0  0  0  0  3  0  0  0  0  0  0
  187.5020  176.4730  141.5170 C   0  0  0  0  0  3  0  0  0  0  0  0
  193.6690  174.5130  140.4720 C   0  0  1  0  0  3  0  0  0  0  0  0
  192.1560  171.2630  140.9060 C   0  0  0  0  0  1  0  0  0  0  0  0
  194.7610  175.2910  139.7700 C   0  0  0  0  0  1  0  0  0  0  0  0
  191.0360  173.4210  140.2150 C   0  0  0  0  0  3  0  0  0  0  0  0
  191.5630  174.1140  142.6470 C   0  0  1  0  0  3  0  0  0  0  0  0
  193.5750  173.1070  139.8650 C   0  0  0  0  0  2  0  0  0  0  0  0
  190.7960  174.1330  141.3330 C   0  0  0  0  0  3  0  0  0  0  0  0
  193.9370  174.4980  141.9110 N   0  0  0  0  0  2  0  0  0  0  0  0
  193.0150  173.6160  142.6310 C   0  0  0  0  0  2  0  0  0  0  0  0
  192.1800  172.4650  139.9780 C   0  0  1  0  0  3  0  0  0  0  0  0
  187.6000  177.8650  147.3040 C   0  0  0  0  0  3  0  0  0  0  0  0
  186.7640  178.4800  147.9470 O   0  0  0  0  0  0  0  0  0  0  0  0
  1  4  1  0  0  0  0
  1  3  1  1  0  0  0
  2  4  1  0  0  0  0
  2 17  1  0  0  0  0
  3 18  1  0  0  0  0
  4 10  1  0  0  0  0
  5 31  1  0  0  0  0
  6 20  2  0  0  0  0
  6 19  1  0  0  0  0
  7  2  1  0  0  0  0
  8  9  1  0  0  0  0
  9 11  1  0  0  0  0
 10 12  1  0  0  0  0
 10 13  1  0  0  0  0
 11  5  1  0  0  0  0
 14 15  1  0  0  0  0
 14  7  1  0  0  0  0
 15  1  1  0  0  0  0
 16  7  1  0  0  0  0
 16  9  2  0  0  0  0
 17  5  1  0  0  0  0
 17 12  1  0  0  0  0
 18 13  1  0  0  0  0
 19  8  2  0  0  0  0
 20 16  1  0  0  0  0
 21 28  1  0  0  0  0
 23 21  1  0  0  0  0
 24 27  2  0  0  0  0
 25 15  1  0  0  0  0
 26 30  1  0  0  0  0
 26 21  1  0  0  0  0
 27 25  1  0  0  0  0
 28 29  1  0  0  0  0
 29 25  1  0  0  0  0
 30 24  1  0  0  0  0
 30 22  1  0  0  0  0
 31 32  2  0  0  0  0
M  END
>  <MODEL>
9

>  <REMARK>
 VINA RESULT:      -7.6      2.720      5.147
  Name = 
  2 active torsions:
  status: ('A' for Active; 'I' for Inactive)
    1  A    between atoms: C_6  and  C_13
    2  A    between atoms: C_16  and  N_27
                            x       y       z     vdW  Elec       q    Type
                         _______ _______ _______ _____ _____    ______ ____

>  <TORSDO>
F 2

$$$$
