=
 OpenBabel11052419573D

 37 41  0  0  1  0  0  0  0  0999 V2000
  193.2900  176.1600  142.5520 C   0  0  1  0  0  0  0  0  0  0  0  0
  190.7300  175.3230  144.5510 C   0  0  2  0  0  3  0  0  0  0  0  0
  191.2170  175.1340  141.7220 O   0  0  0  0  0  0  0  0  0  0  0  0
  190.7990  176.7610  145.0570 C   0  0  0  0  0  2  0  0  0  0  0  0
  192.0600  174.7320  144.0430 C   0  0  2  0  0  3  0  0  0  0  0  0
  189.4800  177.1750  145.7370 C   0  0  1  0  0  3  0  0  0  0  0  0
  188.9640  175.2210  141.3500 O   0  0  0  0  0  0  0  0  0  0  0  0
  193.1900  175.2780  144.8060 N   0  0  2  0  0  0  0  0  0  0  0  0
  192.5870  177.3640  142.4880 O   0  0  0  0  0  1  0  0  0  0  0  0
  187.2940  175.1960  143.4900 O   0  0  0  0  0  0  0  0  0  0  0  0
  189.9050  175.1810  142.1870 C   0  0  0  0  0  0  0  0  0  0  0  0
  194.0190  176.0570  143.8790 C   0  0  0  0  0  2  0  0  0  0  0  0
  189.6330  175.2150  143.5960 N   0  0  0  0  0  0  0  0  0  0  0  0
  192.3550  174.9790  142.5700 C   0  0  2  0  0  3  0  0  0  0  0  0
  188.2280  176.3220  145.4050 C   0  0  2  0  0  3  0  0  0  0  0  0
  194.2650  176.0620  141.3970 C   0  0  0  0  0  1  0  0  0  0  0  0
  188.3350  175.5680  144.0980 C   0  0  0  0  0  0  0  0  0  0  0  0
  195.4400  174.4970  145.3120 N   0  0  0  0  0  2  0  0  0  0  0  0
  195.8540  172.0800  145.8450 C   0  0  0  0  0  2  0  0  0  0  0  0
  196.3660  173.4650  145.6320 C   0  0  0  0  0  0  0  0  0  0  0  0
  197.6280  173.7210  145.7150 N   0  0  0  0  0  2  0  0  0  0  0  0
  195.3500  171.6880  143.5630 F   0  0  0  0  0  0  0  0  0  0  0  0
  193.6540  172.8480  144.7480 C   0  0  0  0  0  2  0  0  0  0  0  0
  194.7600  171.7710  144.8140 C   0  0  2  0  0  0  0  0  0  0  0  0
  194.0060  174.2050  145.3850 C   0  0  2  0  0  3  0  0  0  0  0  0
  194.1320  170.4550  145.1590 C   0  0  0  0  0  0  0  0  0  0  0  0
  193.1640  170.0120  144.4860 O   0  0  0  0  0  0  0  0  0  0  0  0
  194.6240  169.7060  146.2220 O   0  0  0  0  0  1  0  0  0  0  0  0
  185.9470  176.7530  146.3420 C   0  0  0  0  0  3  0  0  0  0  0  0
  186.9820  177.1530  145.4890 C   0  0  0  0  0  0  0  0  0  0  0  0
  186.8380  178.3210  144.7240 C   0  0  0  0  0  3  0  0  0  0  0  0
  185.5260  180.2640  144.0400 N   0  0  0  0  0  1  0  0  0  0  0  0
  184.6380  178.6760  145.6700 C   0  0  0  0  0  3  0  0  0  0  0  0
  185.6680  179.0800  144.8150 C   0  0  0  0  0  0  0  0  0  0  0  0
  184.7780  177.5140  146.4330 C   0  0  0  0  0  3  0  0  0  0  0  0
  189.6650  177.3400  147.2450 C   0  0  0  0  0  2  0  0  0  0  0  0
  190.9900  176.7650  147.7230 C   0  0  0  0  0  1  0  0  0  0  0  0
  1 16  1  6  0  0  0
  1 14  1  0  0  0  0
  1 12  1  0  0  0  0
  2  4  1  6  0  0  0
  3 11  1  0  0  0  0
  3 14  1  0  0  0  0
  4  6  1  0  0  0  0
  5  2  1  0  0  0  0
  5  8  1  0  0  0  0
  6 36  1  0  0  0  0
  7 11  2  0  0  0  0
  8 25  1  0  0  0  0
  9  1  1  0  0  0  0
 10 17  2  0  0  0  0
 11 13  1  0  0  0  0
 12  8  1  0  0  0  0
 13 17  1  0  0  0  0
 13  2  1  0  0  0  0
 14  5  1  0  0  0  0
 15 30  1  0  0  0  0
 15  6  1  0  0  0  0
 17 15  1  0  0  0  0
 18 25  1  0  0  0  0
 18 20  1  0  0  0  0
 20 21  2  0  0  0  0
 20 19  1  0  0  0  0
 22 24  1  0  0  0  0
 23 24  1  0  0  0  0
 23 25  1  0  0  0  0
 24 26  1  0  0  0  0
 24 19  1  0  0  0  0
 26 28  1  0  0  0  0
 27 26  2  0  0  0  0
 29 35  1  0  0  0  0
 30 29  2  0  0  0  0
 31 34  2  0  0  0  0
 31 30  1  0  0  0  0
 32 34  1  0  0  0  0
 33 35  2  0  0  0  0
 34 33  1  0  0  0  0
 36 37  1  0  0  0  0
M  END
>  <MODEL>
1

>  <REMARK>
 VINA RESULT:      -8.4      0.000      0.000
  Name = 
  4 active torsions:
  status: ('A' for Active; 'I' for Inactive)
    1  A    between atoms: C_6  and  C_31
    2  A    between atoms: C_7  and  C_14
    3  A    between atoms: C_11  and  C_33
    4  A    between atoms: N_20  and  C_36
                            x       y       z     vdW  Elec       q    Type
                         _______ _______ _______ _____ _____    ______ ____

>  <TORSDO>
F 4

$$$$
=
 OpenBabel11052419573D

 37 41  0  0  1  0  0  0  0  0999 V2000
  189.8870  176.7910  143.5850 C   0  0  1  0  0  0  0  0  0  0  0  0
  188.6410  174.1500  141.9350 C   0  0  2  0  0  3  0  0  0  0  0  0
  190.1500  174.4750  144.3630 O   0  0  0  0  0  0  0  0  0  0  0  0
  189.3740  174.7040  140.7170 C   0  0  0  0  0  2  0  0  0  0  0  0
  188.1960  175.1950  142.9770 C   0  0  2  0  0  3  0  0  0  0  0  0
  189.5770  173.6140  139.6470 C   0  0  1  0  0  3  0  0  0  0  0  0
  190.9960  172.3690  144.0940 O   0  0  0  0  0  0  0  0  0  0  0  0
  187.8490  176.4620  142.3190 N   0  0  2  0  0  0  0  0  0  0  0  0
  190.9920  176.5250  142.7730 O   0  0  0  0  0  1  0  0  0  0  0  0
  190.0460  170.8390  142.0620 O   0  0  0  0  0  0  0  0  0  0  0  0
  190.2140  173.2650  143.6770 C   0  0  0  0  0  0  0  0  0  0  0  0
  188.8040  177.4780  142.7750 C   0  0  0  0  0  2  0  0  0  0  0  0
  189.4240  173.0550  142.4960 N   0  0  0  0  0  0  0  0  0  0  0  0
  189.2280  175.5180  144.0490 C   0  0  2  0  0  3  0  0  0  0  0  0
  189.4570  172.1420  140.1210 C   0  0  2  0  0  3  0  0  0  0  0  0
  190.2990  177.6490  144.7630 C   0  0  0  0  0  1  0  0  0  0  0  0
  189.6890  171.9600  141.6050 C   0  0  0  0  0  0  0  0  0  0  0  0
  185.7600  177.4320  141.5300 N   0  0  0  0  0  2  0  0  0  0  0  0
  184.0980  178.3660  143.1620 C   0  0  0  0  0  2  0  0  0  0  0  0
  184.5170  178.0870  141.7580 C   0  0  0  0  0  0  0  0  0  0  0  0
  183.7790  178.4520  140.7640 N   0  0  0  0  0  2  0  0  0  0  0  0
  185.7020  180.0720  143.5260 F   0  0  0  0  0  0  0  0  0  0  0  0
  186.5270  177.8740  143.8630 C   0  0  0  0  0  2  0  0  0  0  0  0
  185.3130  178.8220  143.9810 C   0  0  2  0  0  0  0  0  0  0  0  0
  186.4920  176.8910  142.6770 C   0  0  2  0  0  3  0  0  0  0  0  0
  184.9140  178.9170  145.4220 C   0  0  0  0  0  0  0  0  0  0  0  0
  183.7000  178.8680  145.7550 O   0  0  0  0  0  0  0  0  0  0  0  0
  185.8880  179.0480  146.4070 O   0  0  0  0  0  1  0  0  0  0  0  0
  189.7320  170.2210  138.5390 C   0  0  0  0  0  3  0  0  0  0  0  0
  190.3240  171.2440  139.2890 C   0  0  0  0  0  0  0  0  0  0  0  0
  191.7170  171.4130  139.2550 C   0  0  0  0  0  3  0  0  0  0  0  0
  193.9180  170.7380  138.4400 N   0  0  0  0  0  1  0  0  0  0  0  0
  191.9100  169.5440  137.7270 C   0  0  0  0  0  3  0  0  0  0  0  0
  192.5070  170.5640  138.4750 C   0  0  0  0  0  0  0  0  0  0  0  0
  190.5230  169.3740  137.7600 C   0  0  0  0  0  3  0  0  0  0  0  0
  188.7120  173.8810  138.4170 C   0  0  0  0  0  2  0  0  0  0  0  0
  189.5430  173.9820  137.1470 C   0  0  0  0  0  1  0  0  0  0  0  0
  1 14  1  0  0  0  0
  1 16  1  1  0  0  0
  2  4  1  6  0  0  0
  2 13  1  0  0  0  0
  2  5  1  0  0  0  0
  5 14  1  0  0  0  0
  6 15  1  0  0  0  0
  6  4  1  0  0  0  0
  8 25  1  0  0  0  0
  8 12  1  0  0  0  0
  8  5  1  0  0  0  0
  9  1  1  0  0  0  0
 11  7  2  0  0  0  0
 11  3  1  0  0  0  0
 12  1  1  0  0  0  0
 13 11  1  0  0  0  0
 14  3  1  0  0  0  0
 15 17  1  0  0  0  0
 17 10  2  0  0  0  0
 17 13  1  0  0  0  0
 18 20  1  0  0  0  0
 18 25  1  0  0  0  0
 19 24  1  0  0  0  0
 20 19  1  0  0  0  0
 21 20  2  0  0  0  0
 22 24  1  0  0  0  0
 23 24  1  0  0  0  0
 24 26  1  0  0  0  0
 25 23  1  0  0  0  0
 26 27  2  0  0  0  0
 26 28  1  0  0  0  0
 29 30  1  0  0  0  0
 30 15  1  0  0  0  0
 31 30  2  0  0  0  0
 32 34  1  0  0  0  0
 33 35  1  0  0  0  0
 33 34  2  0  0  0  0
 34 31  1  0  0  0  0
 35 29  2  0  0  0  0
 36  6  1  0  0  0  0
 37 36  1  0  0  0  0
M  END
>  <MODEL>
2

>  <REMARK>
 VINA RESULT:      -8.4      4.410      9.394
  Name = 
  4 active torsions:
  status: ('A' for Active; 'I' for Inactive)
    1  A    between atoms: C_6  and  C_31
    2  A    between atoms: C_7  and  C_14
    3  A    between atoms: C_11  and  C_33
    4  A    between atoms: N_20  and  C_36
                            x       y       z     vdW  Elec       q    Type
                         _______ _______ _______ _____ _____    ______ ____

>  <TORSDO>
F 4

$$$$
=
 OpenBabel11052419573D

 37 41  0  0  1  0  0  0  0  0999 V2000
  192.4770  173.1220  144.5900 C   0  0  1  0  0  0  0  0  0  0  0  0
  191.0080  176.1310  144.4050 C   0  0  2  0  0  3  0  0  0  0  0  0
  192.1140  174.5610  146.5480 O   0  0  0  0  0  0  0  0  0  0  0  0
  189.8730  175.4110  143.6830 C   0  0  0  0  0  2  0  0  0  0  0  0
  192.4050  175.4990  144.2470 C   0  0  2  0  0  3  0  0  0  0  0  0
  188.5740  176.2390  143.7250 C   0  0  1  0  0  3  0  0  0  0  0  0
  190.7080  175.6100  148.0130 O   0  0  0  0  0  0  0  0  0  0  0  0
  192.5410  174.8770  142.9230 N   0  0  2  0  0  0  0  0  0  0  0  0
  191.1570  172.7110  144.7880 O   0  0  0  0  0  1  0  0  0  0  0  0
  189.1720  177.6540  147.1000 O   0  0  0  0  0  0  0  0  0  0  0  0
  191.1400  175.5150  146.8330 C   0  0  0  0  0  0  0  0  0  0  0  0
  192.7070  173.4330  143.1230 C   0  0  0  0  0  2  0  0  0  0  0  0
  190.6160  176.3530  145.7920 N   0  0  0  0  0  0  0  0  0  0  0  0
  192.7520  174.4330  145.2770 C   0  0  2  0  0  3  0  0  0  0  0  0
  188.4880  177.3450  144.8100 C   0  0  2  0  0  3  0  0  0  0  0  0
  193.4350  172.0490  145.0650 C   0  0  0  0  0  1  0  0  0  0  0  0
  189.4150  177.1190  145.9830 C   0  0  0  0  0  0  0  0  0  0  0  0
  193.7000  175.0520  140.7890 N   0  0  0  0  0  2  0  0  0  0  0  0
  196.1200  175.7070  140.7080 C   0  0  0  0  0  2  0  0  0  0  0  0
  194.8680  175.2930  140.0130 C   0  0  0  0  0  0  0  0  0  0  0  0
  194.8470  175.1330  138.7320 N   0  0  0  0  0  2  0  0  0  0  0  0
  196.5300  173.5880  141.6870 F   0  0  0  0  0  0  0  0  0  0  0  0
  195.0150  174.9460  142.9060 C   0  0  0  0  0  2  0  0  0  0  0  0
  196.2730  174.9100  142.0110 C   0  0  2  0  0  0  0  0  0  0  0  0
  193.7160  175.3950  142.2120 C   0  0  2  0  0  3  0  0  0  0  0  0
  197.4300  175.4680  142.7830 C   0  0  0  0  0  0  0  0  0  0  0  0
  197.9410  176.5740  142.4620 O   0  0  0  0  0  0  0  0  0  0  0  0
  197.9410  174.7710  143.8730 O   0  0  0  0  0  1  0  0  0  0  0  0
  186.5070  176.7280  146.2100 C   0  0  0  0  0  3  0  0  0  0  0  0
  187.0650  177.5610  145.2350 C   0  0  0  0  0  0  0  0  0  0  0  0
  186.2880  178.5830  144.6670 C   0  0  0  0  0  3  0  0  0  0  0  0
  184.1800  179.8040  144.4990 N   0  0  0  0  0  1  0  0  0  0  0  0
  184.4110  177.9310  146.0500 C   0  0  0  0  0  3  0  0  0  0  0  0
  184.9640  178.7670  145.0750 C   0  0  0  0  0  0  0  0  0  0  0  0
  185.1830  176.9130  146.6170 C   0  0  0  0  0  3  0  0  0  0  0  0
  188.2200  176.7790  142.3410 C   0  0  0  0  0  2  0  0  0  0  0  0
  188.9300  178.0910  142.0420 C   0  0  0  0  0  1  0  0  0  0  0  0
  1  9  1  0  0  0  0
  1 16  1  1  0  0  0
  1 14  1  0  0  0  0
  2  4  1  1  0  0  0
  2 13  1  0  0  0  0
  3 11  1  0  0  0  0
  4  6  1  0  0  0  0
  5  2  1  0  0  0  0
  5 14  1  0  0  0  0
  6 15  1  0  0  0  0
  8 12  1  0  0  0  0
  8  5  1  0  0  0  0
 11  7  2  0  0  0  0
 12  1  1  0  0  0  0
 13 17  1  0  0  0  0
 13 11  1  0  0  0  0
 14  3  1  0  0  0  0
 15 30  1  0  0  0  0
 15 17  1  0  0  0  0
 17 10  2  0  0  0  0
 18 25  1  0  0  0  0
 19 24  1  0  0  0  0
 20 19  1  0  0  0  0
 20 18  1  0  0  0  0
 21 20  2  0  0  0  0
 22 24  1  0  0  0  0
 24 26  1  0  0  0  0
 24 23  1  0  0  0  0
 25 23  1  0  0  0  0
 25  8  1  0  0  0  0
 26 28  1  0  0  0  0
 27 26  2  0  0  0  0
 29 35  1  0  0  0  0
 30 29  2  0  0  0  0
 31 34  2  0  0  0  0
 31 30  1  0  0  0  0
 32 34  1  0  0  0  0
 33 35  2  0  0  0  0
 34 33  1  0  0  0  0
 36  6  1  0  0  0  0
 37 36  1  0  0  0  0
M  END
>  <MODEL>
3

>  <REMARK>
 VINA RESULT:      -8.3      2.824      4.262
  Name = 
  4 active torsions:
  status: ('A' for Active; 'I' for Inactive)
    1  A    between atoms: C_6  and  C_31
    2  A    between atoms: C_7  and  C_14
    3  A    between atoms: C_11  and  C_33
    4  A    between atoms: N_20  and  C_36
                            x       y       z     vdW  Elec       q    Type
                         _______ _______ _______ _____ _____    ______ ____

>  <TORSDO>
F 4

$$$$
=
 OpenBabel11052419573D

 37 41  0  0  1  0  0  0  0  0999 V2000
  188.7140  173.4300  141.6500 C   0  0  1  0  0  0  0  0  0  0  0  0
  191.3120  175.0220  143.0520 C   0  0  2  0  0  3  0  0  0  0  0  0
  190.8990  173.6640  140.5500 O   0  0  0  0  0  0  0  0  0  0  0  0
  191.0810  174.1090  144.2530 C   0  0  0  0  0  2  0  0  0  0  0  0
  190.0620  175.3390  142.2080 C   0  0  2  0  0  3  0  0  0  0  0  0
  192.3360  174.0350  145.1440 C   0  0  1  0  0  3  0  0  0  0  0  0
  193.1370  173.2090  140.4520 O   0  0  0  0  0  0  0  0  0  0  0  0
  188.8660  175.3940  143.0590 N   0  0  2  0  0  0  0  0  0  0  0  0
  189.2860  172.3370  142.3040 O   0  0  0  0  0  1  0  0  0  0  0  0
  194.7610  174.2740  142.3480 O   0  0  0  0  0  0  0  0  0  0  0  0
  192.1900  173.7760  141.0600 C   0  0  0  0  0  0  0  0  0  0  0  0
  187.9760  174.3020  142.6480 C   0  0  0  0  0  2  0  0  0  0  0  0
  192.4310  174.5010  142.2760 N   0  0  0  0  0  0  0  0  0  0  0  0
  189.7690  174.3480  141.0900 C   0  0  2  0  0  3  0  0  0  0  0  0
  193.6780  174.4630  144.4930 C   0  0  2  0  0  3  0  0  0  0  0  0
  187.7760  172.9540  140.5600 C   0  0  0  0  0  1  0  0  0  0  0  0
  193.6750  174.3800  142.9830 C   0  0  0  0  0  0  0  0  0  0  0  0
  187.6910  177.2100  144.1770 N   0  0  0  0  0  2  0  0  0  0  0  0
  186.2360  178.7770  142.8660 C   0  0  0  0  0  2  0  0  0  0  0  0
  186.8050  178.3220  144.1680 C   0  0  0  0  0  0  0  0  0  0  0  0
  186.4830  178.9120  145.2700 N   0  0  0  0  0  2  0  0  0  0  0  0
  184.7940  176.9140  142.6030 F   0  0  0  0  0  0  0  0  0  0  0  0
  187.0190  176.5340  141.8720 C   0  0  0  0  0  2  0  0  0  0  0  0
  185.8690  177.5570  142.0100 C   0  0  2  0  0  0  0  0  0  0  0  0
  188.1580  176.6690  142.8990 C   0  0  2  0  0  3  0  0  0  0  0  0
  185.4770  178.0290  140.6430 C   0  0  0  0  0  0  0  0  0  0  0  0
  186.2360  177.8370  139.6570 O   0  0  0  0  0  0  0  0  0  0  0  0
  184.2600  178.6750  140.4530 O   0  0  0  0  0  1  0  0  0  0  0  0
  195.9120  174.4380  145.6230 C   0  0  0  0  0  3  0  0  0  0  0  0
  194.8270  173.7190  145.1080 C   0  0  0  0  0  0  0  0  0  0  0  0
  194.8300  172.3170  145.1710 C   0  0  0  0  0  3  0  0  0  0  0  0
  195.9120  170.2230  145.8100 N   0  0  0  0  0  1  0  0  0  0  0  0
  196.9920  172.3660  146.2590 C   0  0  0  0  0  3  0  0  0  0  0  0
  195.9110  171.6430  145.7460 C   0  0  0  0  0  0  0  0  0  0  0  0
  196.9920  173.7630  146.1970 C   0  0  0  0  0  3  0  0  0  0  0  0
  192.1080  174.7400  146.4790 C   0  0  0  0  0  2  0  0  0  0  0  0
  192.5690  176.1900  146.4440 C   0  0  0  0  0  1  0  0  0  0  0  0
  1 16  1  6  0  0  0
  1  9  1  0  0  0  0
  1 12  1  0  0  0  0
  2  4  1  1  0  0  0
  3 11  1  0  0  0  0
  3 14  1  0  0  0  0
  4  6  1  0  0  0  0
  5  2  1  0  0  0  0
  5  8  1  0  0  0  0
  6 36  1  0  0  0  0
  7 11  2  0  0  0  0
 10 17  2  0  0  0  0
 11 13  1  0  0  0  0
 12  8  1  0  0  0  0
 13 17  1  0  0  0  0
 13  2  1  0  0  0  0
 14  1  1  0  0  0  0
 14  5  1  0  0  0  0
 15 30  1  0  0  0  0
 15  6  1  0  0  0  0
 17 15  1  0  0  0  0
 19 20  1  0  0  0  0
 20 18  1  0  0  0  0
 20 21  2  0  0  0  0
 23 24  1  0  0  0  0
 23 25  1  0  0  0  0
 24 22  1  0  0  0  0
 24 19  1  0  0  0  0
 25  8  1  0  0  0  0
 25 18  1  0  0  0  0
 26 24  1  0  0  0  0
 27 26  2  0  0  0  0
 28 26  1  0  0  0  0
 29 35  1  0  0  0  0
 30 31  1  0  0  0  0
 30 29  2  0  0  0  0
 31 34  2  0  0  0  0
 34 32  1  0  0  0  0
 34 33  1  0  0  0  0
 35 33  2  0  0  0  0
 37 36  1  0  0  0  0
M  END
>  <MODEL>
4

>  <REMARK>
 VINA RESULT:      -8.0      3.205      8.671
  Name = 
  4 active torsions:
  status: ('A' for Active; 'I' for Inactive)
    1  A    between atoms: C_6  and  C_31
    2  A    between atoms: C_7  and  C_14
    3  A    between atoms: C_11  and  C_33
    4  A    between atoms: N_20  and  C_36
                            x       y       z     vdW  Elec       q    Type
                         _______ _______ _______ _____ _____    ______ ____

>  <TORSDO>
F 4

$$$$
=
 OpenBabel11052419573D

 37 41  0  0  1  0  0  0  0  0999 V2000
  191.0960  172.3900  141.1770 C   0  0  1  0  0  0  0  0  0  0  0  0
  191.0370  174.7100  143.5990 C   0  0  2  0  0  3  0  0  0  0  0  0
  190.6410  171.8610  143.5330 O   0  0  0  0  0  0  0  0  0  0  0  0
  190.0460  175.4540  142.7100 C   0  0  0  0  0  2  0  0  0  0  0  0
  192.0510  173.8140  142.8610 C   0  0  2  0  0  3  0  0  0  0  0  0
  189.2300  176.4780  143.5230 C   0  0  1  0  0  3  0  0  0  0  0  0
  189.3180  172.0230  145.3900 O   0  0  0  0  0  0  0  0  0  0  0  0
  192.3980  174.3960  141.5570 N   0  0  2  0  0  0  0  0  0  0  0  0
  189.7400  172.7170  141.1060 O   0  0  0  0  0  1  0  0  0  0  0  0
  189.0930  174.4360  146.6150 O   0  0  0  0  0  0  0  0  0  0  0  0
  190.0660  172.6060  144.5600 C   0  0  0  0  0  0  0  0  0  0  0  0
  191.9250  173.4750  140.5170 C   0  0  0  0  0  2  0  0  0  0  0  0
  190.2980  174.0200  144.6500 N   0  0  0  0  0  0  0  0  0  0  0  0
  191.5850  172.3880  142.6020 C   0  0  2  0  0  3  0  0  0  0  0  0
  189.1930  176.2750  145.0600 C   0  0  2  0  0  3  0  0  0  0  0  0
  191.3450  171.0500  140.5170 C   0  0  0  0  0  1  0  0  0  0  0  0
  189.4910  174.8560  145.4940 C   0  0  0  0  0  0  0  0  0  0  0  0
  194.5140  173.3220  141.0110 N   0  0  0  0  0  2  0  0  0  0  0  0
  196.6870  174.3890  141.6710 C   0  0  0  0  0  2  0  0  0  0  0  0
  195.9350  173.2630  141.0450 C   0  0  0  0  0  0  0  0  0  0  0  0
  196.5590  172.2420  140.5630 N   0  0  0  0  0  2  0  0  0  0  0  0
  196.0530  173.8580  143.8920 F   0  0  0  0  0  0  0  0  0  0  0  0
  194.4550  175.1500  142.7080 C   0  0  0  0  0  2  0  0  0  0  0  0
  195.9540  174.8570  142.9370 C   0  0  2  0  0  0  0  0  0  0  0  0
  193.8500  174.5620  141.4200 C   0  0  2  0  0  3  0  0  0  0  0  0
  196.6180  176.1010  143.4440 C   0  0  0  0  0  0  0  0  0  0  0  0
  197.8090  176.3650  143.1320 O   0  0  0  0  0  0  0  0  0  0  0  0
  195.9130  176.9820  144.2580 O   0  0  0  0  0  1  0  0  0  0  0  0
  186.6940  176.4160  145.0450 C   0  0  0  0  0  3  0  0  0  0  0  0
  187.9060  176.7930  145.6330 C   0  0  0  0  0  0  0  0  0  0  0  0
  187.9020  177.6500  146.7450 C   0  0  0  0  0  3  0  0  0  0  0  0
  186.6910  178.9900  148.3880 N   0  0  0  0  0  1  0  0  0  0  0  0
  185.4840  177.7430  146.6700 C   0  0  0  0  0  3  0  0  0  0  0  0
  186.6930  178.1230  147.2610 C   0  0  0  0  0  0  0  0  0  0  0  0
  185.4850  176.8900  145.5630 C   0  0  0  0  0  3  0  0  0  0  0  0
  189.6160  177.9090  143.1530 C   0  0  0  0  0  2  0  0  0  0  0  0
  190.8810  178.3600  143.8660 C   0  0  0  0  0  1  0  0  0  0  0  0
  1 16  1  6  0  0  0
  1 14  1  0  0  0  0
  2  4  1  6  0  0  0
  2 13  1  0  0  0  0
  3 11  1  0  0  0  0
  4  6  1  0  0  0  0
  5  2  1  0  0  0  0
  6 15  1  0  0  0  0
  8  5  1  0  0  0  0
  9  1  1  0  0  0  0
 11 13  1  0  0  0  0
 11  7  2  0  0  0  0
 12  1  1  0  0  0  0
 12  8  1  0  0  0  0
 13 17  1  0  0  0  0
 14  5  1  0  0  0  0
 14  3  1  0  0  0  0
 15 17  1  0  0  0  0
 15 30  1  0  0  0  0
 17 10  2  0  0  0  0
 18 20  1  0  0  0  0
 18 25  1  0  0  0  0
 19 24  1  0  0  0  0
 20 19  1  0  0  0  0
 21 20  2  0  0  0  0
 23 24  1  0  0  0  0
 24 26  1  0  0  0  0
 24 22  1  0  0  0  0
 25  8  1  0  0  0  0
 25 23  1  0  0  0  0
 26 28  1  0  0  0  0
 27 26  2  0  0  0  0
 29 35  2  0  0  0  0
 29 30  1  0  0  0  0
 30 31  2  0  0  0  0
 31 34  1  0  0  0  0
 33 34  2  0  0  0  0
 34 32  1  0  0  0  0
 35 33  1  0  0  0  0
 36  6  1  0  0  0  0
 36 37  1  0  0  0  0
M  END
>  <MODEL>
5

>  <REMARK>
 VINA RESULT:      -8.0      2.851      4.034
  Name = 
  4 active torsions:
  status: ('A' for Active; 'I' for Inactive)
    1  A    between atoms: C_6  and  C_31
    2  A    between atoms: C_7  and  C_14
    3  A    between atoms: C_11  and  C_33
    4  A    between atoms: N_20  and  C_36
                            x       y       z     vdW  Elec       q    Type
                         _______ _______ _______ _____ _____    ______ ____

>  <TORSDO>
F 4

$$$$
=
 OpenBabel11052419573D

 37 41  0  0  1  0  0  0  0  0999 V2000
  192.1020  172.5330  144.0780 C   0  0  1  0  0  0  0  0  0  0  0  0
  190.5380  175.2850  142.9690 C   0  0  2  0  0  3  0  0  0  0  0  0
  192.6260  174.7930  144.8860 O   0  0  0  0  0  0  0  0  0  0  0  0
  189.2440  174.5570  143.3210 C   0  0  0  0  0  2  0  0  0  0  0  0
  191.7270  174.3810  142.5890 C   0  0  2  0  0  3  0  0  0  0  0  0
  188.0730  175.5470  143.4710 C   0  0  1  0  0  3  0  0  0  0  0  0
  192.0260  176.6990  145.9960 O   0  0  0  0  0  0  0  0  0  0  0  0
  191.2550  173.1720  141.9020 N   0  0  2  0  0  0  0  0  0  0  0  0
  191.0650  172.5610  145.0130 O   0  0  0  0  0  1  0  0  0  0  0  0
  190.1160  178.2890  144.9040 O   0  0  0  0  0  0  0  0  0  0  0  0
  191.8490  175.9430  145.0040 C   0  0  0  0  0  0  0  0  0  0  0  0
  191.5860  172.0190  142.7480 C   0  0  0  0  0  2  0  0  0  0  0  0
  190.8400  176.2420  144.0270 N   0  0  0  0  0  0  0  0  0  0  0  0
  192.5890  173.9220  143.7570 C   0  0  2  0  0  3  0  0  0  0  0  0
  188.4440  177.0350  143.7040 C   0  0  2  0  0  3  0  0  0  0  0  0
  193.2360  171.6650  144.5830 C   0  0  0  0  0  1  0  0  0  0  0  0
  189.8310  177.2330  144.2750 C   0  0  0  0  0  0  0  0  0  0  0  0
  192.7310  174.1710  140.2430 N   0  0  0  0  0  2  0  0  0  0  0  0
  192.8040  173.2710  137.9020 C   0  0  0  0  0  2  0  0  0  0  0  0
  193.2560  174.2600  138.9230 C   0  0  0  0  0  0  0  0  0  0  0  0
  194.0910  175.1940  138.6130 N   0  0  0  0  0  2  0  0  0  0  0  0
  190.6190  174.1660  137.6930 F   0  0  0  0  0  0  0  0  0  0  0  0
  190.8850  172.6610  139.5080 C   0  0  0  0  0  2  0  0  0  0  0  0
  191.2990  173.0160  138.0630 C   0  0  2  0  0  0  0  0  0  0  0  0
  191.9140  173.0090  140.6000 C   0  0  2  0  0  3  0  0  0  0  0  0
  190.9030  171.8890  137.1580 C   0  0  0  0  0  0  0  0  0  0  0  0
  190.2420  170.9130  137.6020 O   0  0  0  0  0  1  0  0  0  0  0  0
  191.2530  171.9210  135.8120 O   0  0  0  0  0  0  0  0  0  0  0  0
  186.6150  178.7310  143.9140 C   0  0  0  0  0  3  0  0  0  0  0  0
  187.3860  177.7270  144.5110 C   0  0  0  0  0  0  0  0  0  0  0  0
  187.1600  177.3830  145.8530 C   0  0  0  0  0  3  0  0  0  0  0  0
  185.9420  177.6900  147.9470 N   0  0  0  0  0  1  0  0  0  0  0  0
  185.4030  179.0430  145.9870 C   0  0  0  0  0  3  0  0  0  0  0  0
  186.1700  178.0410  146.5880 C   0  0  0  0  0  0  0  0  0  0  0  0
  185.6260  179.3880  144.6510 C   0  0  0  0  0  3  0  0  0  0  0  0
  187.0690  175.3900  142.3300 C   0  0  0  0  0  2  0  0  0  0  0  0
  187.4230  176.2610  141.1340 C   0  0  0  0  0  1  0  0  0  0  0  0
  1 16  1  1  0  0  0
  1  9  1  0  0  0  0
  2  4  1  1  0  0  0
  2 13  1  0  0  0  0
  3 11  1  0  0  0  0
  4  6  1  0  0  0  0
  5  2  1  0  0  0  0
  5 14  1  0  0  0  0
  6 15  1  0  0  0  0
  8  5  1  0  0  0  0
  8 12  1  0  0  0  0
 11  7  2  0  0  0  0
 12  1  1  0  0  0  0
 13 17  1  0  0  0  0
 13 11  1  0  0  0  0
 14  1  1  0  0  0  0
 14  3  1  0  0  0  0
 15 17  1  0  0  0  0
 15 30  1  0  0  0  0
 17 10  2  0  0  0  0
 18 25  1  0  0  0  0
 19 24  1  0  0  0  0
 19 20  1  0  0  0  0
 20 18  1  0  0  0  0
 21 20  2  0  0  0  0
 22 24  1  0  0  0  0
 23 25  1  0  0  0  0
 24 23  1  0  0  0  0
 25  8  1  0  0  0  0
 26 27  1  0  0  0  0
 26 24  1  0  0  0  0
 28 26  2  0  0  0  0
 29 30  2  0  0  0  0
 29 35  1  0  0  0  0
 30 31  1  0  0  0  0
 31 34  2  0  0  0  0
 33 34  1  0  0  0  0
 34 32  1  0  0  0  0
 35 33  2  0  0  0  0
 36  6  1  0  0  0  0
 37 36  1  0  0  0  0
M  END
>  <MODEL>
6

>  <REMARK>
 VINA RESULT:      -7.8      3.469      5.317
  Name = 
  4 active torsions:
  status: ('A' for Active; 'I' for Inactive)
    1  A    between atoms: C_6  and  C_31
    2  A    between atoms: C_7  and  C_14
    3  A    between atoms: C_11  and  C_33
    4  A    between atoms: N_20  and  C_36
                            x       y       z     vdW  Elec       q    Type
                         _______ _______ _______ _____ _____    ______ ____

>  <TORSDO>
F 4

$$$$
=
 OpenBabel11052419573D

 37 41  0  0  1  0  0  0  0  0999 V2000
  187.6540  176.7160  141.4960 C   0  0  1  0  0  0  0  0  0  0  0  0
  189.3770  176.4610  144.3620 C   0  0  2  0  0  3  0  0  0  0  0  0
  189.6810  178.0230  141.9650 O   0  0  0  0  0  0  0  0  0  0  0  0
  189.4020  174.9600  144.0850 C   0  0  0  0  0  2  0  0  0  0  0  0
  188.1660  177.2230  143.7880 C   0  0  2  0  0  3  0  0  0  0  0  0
  190.5260  174.2670  144.8800 C   0  0  1  0  0  3  0  0  0  0  0  0
  191.9310  178.1360  142.3510 O   0  0  0  0  0  0  0  0  0  0  0  0
  186.9710  176.3690  143.7930 N   0  0  2  0  0  0  0  0  0  0  0  0
  188.5330  175.7020  141.1090 O   0  0  0  0  0  1  0  0  0  0  0  0
  192.9040  177.1040  144.6650 O   0  0  0  0  0  0  0  0  0  0  0  0
  190.7990  177.7550  142.7520 C   0  0  0  0  0  0  0  0  0  0  0  0
  186.5740  176.1490  142.3980 C   0  0  0  0  0  2  0  0  0  0  0  0
  190.6650  177.0300  143.9840 N   0  0  0  0  0  0  0  0  0  0  0  0
  188.3410  177.7360  142.3650 C   0  0  2  0  0  3  0  0  0  0  0  0
  191.6650  175.1760  145.4110 C   0  0  2  0  0  3  0  0  0  0  0  0
  187.0410  177.3700  140.2750 C   0  0  0  0  0  1  0  0  0  0  0  0
  191.8090  176.4770  144.6530 C   0  0  0  0  0  0  0  0  0  0  0  0
  184.9470  177.7080  143.5970 N   0  0  0  0  0  2  0  0  0  0  0  0
  183.9880  178.8620  145.6080 C   0  0  0  0  0  2  0  0  0  0  0  0
  183.9490  178.5600  144.1480 C   0  0  0  0  0  0  0  0  0  0  0  0
  183.0400  179.0780  143.3920 N   0  0  0  0  0  2  0  0  0  0  0  0
  185.9020  180.2550  145.4840 F   0  0  0  0  0  0  0  0  0  0  0  0
  186.3920  177.9380  145.6180 C   0  0  0  0  0  2  0  0  0  0  0  0
  185.4420  179.0770  146.0510 C   0  0  2  0  0  0  0  0  0  0  0  0
  185.8620  177.0140  144.5050 C   0  0  2  0  0  3  0  0  0  0  0  0
  185.4780  179.1930  147.5440 C   0  0  0  0  0  0  0  0  0  0  0  0
  184.8360  178.3850  148.2650 O   0  0  0  0  0  1  0  0  0  0  0  0
  186.2360  180.1920  148.1460 O   0  0  0  0  0  0  0  0  0  0  0  0
  194.0850  175.0390  146.0360 C   0  0  0  0  0  3  0  0  0  0  0  0
  192.9550  174.4140  145.4970 C   0  0  0  0  0  0  0  0  0  0  0  0
  193.0440  173.0890  145.0440 C   0  0  0  0  0  3  0  0  0  0  0  0
  194.3430  171.0550  144.6720 N   0  0  0  0  0  1  0  0  0  0  0  0
  195.3820  173.0270  145.6700 C   0  0  0  0  0  3  0  0  0  0  0  0
  194.2560  172.3980  145.1310 C   0  0  0  0  0  0  0  0  0  0  0  0
  195.2960  174.3470  146.1220 C   0  0  0  0  0  3  0  0  0  0  0  0
  189.9530  173.3790  145.9820 C   0  0  0  0  0  2  0  0  0  0  0  0
  189.2490  174.1900  147.0600 C   0  0  0  0  0  1  0  0  0  0  0  0
  1 16  1  6  0  0  0
  1 14  1  0  0  0  0
  1 12  1  0  0  0  0
  2  4  1  6  0  0  0
  3 14  1  0  0  0  0
  3 11  1  0  0  0  0
  4  6  1  0  0  0  0
  5  8  1  0  0  0  0
  5  2  1  0  0  0  0
  6 15  1  0  0  0  0
  6 36  1  0  0  0  0
  7 11  2  0  0  0  0
  8 25  1  0  0  0  0
  9  1  1  0  0  0  0
 11 13  1  0  0  0  0
 12  8  1  0  0  0  0
 13  2  1  0  0  0  0
 13 17  1  0  0  0  0
 14  5  1  0  0  0  0
 15 30  1  0  0  0  0
 17 10  2  0  0  0  0
 17 15  1  0  0  0  0
 18 20  1  0  0  0  0
 18 25  1  0  0  0  0
 19 24  1  0  0  0  0
 20 19  1  0  0  0  0
 21 20  2  0  0  0  0
 22 24  1  0  0  0  0
 23 24  1  0  0  0  0
 24 26  1  0  0  0  0
 25 23  1  0  0  0  0
 26 28  2  0  0  0  0
 26 27  1  0  0  0  0
 29 35  1  0  0  0  0
 30 29  2  0  0  0  0
 31 34  2  0  0  0  0
 31 30  1  0  0  0  0
 32 34  1  0  0  0  0
 33 35  2  0  0  0  0
 34 33  1  0  0  0  0
 36 37  1  0  0  0  0
M  END
>  <MODEL>
7

>  <REMARK>
 VINA RESULT:      -7.7      3.425      8.744
  Name = 
  4 active torsions:
  status: ('A' for Active; 'I' for Inactive)
    1  A    between atoms: C_6  and  C_31
    2  A    between atoms: C_7  and  C_14
    3  A    between atoms: C_11  and  C_33
    4  A    between atoms: N_20  and  C_36
                            x       y       z     vdW  Elec       q    Type
                         _______ _______ _______ _____ _____    ______ ____

>  <TORSDO>
F 4

$$$$
=
 OpenBabel11052419573D

 37 41  0  0  1  0  0  0  0  0999 V2000
  188.9890  172.7420  140.6740 C   0  0  1  0  0  0  0  0  0  0  0  0
  190.9410  174.5960  142.6750 C   0  0  2  0  0  3  0  0  0  0  0  0
  191.1250  173.7140  139.9430 O   0  0  0  0  0  0  0  0  0  0  0  0
  190.8530  173.4300  143.6570 C   0  0  0  0  0  2  0  0  0  0  0  0
  189.7320  174.7660  141.7340 C   0  0  2  0  0  3  0  0  0  0  0  0
  192.0000  173.4820  144.6850 C   0  0  1  0  0  3  0  0  0  0  0  0
  193.4030  173.8420  140.0760 O   0  0  0  0  0  0  0  0  0  0  0  0
  188.4940  174.3560  142.4100 N   0  0  2  0  0  0  0  0  0  0  0  0
  189.7690  171.7100  141.2020 O   0  0  0  0  0  1  0  0  0  0  0  0
  194.5140  174.8610  142.3340 O   0  0  0  0  0  0  0  0  0  0  0  0
  192.2900  174.0290  140.6370 C   0  0  0  0  0  0  0  0  0  0  0  0
  187.9630  173.1890  141.6970 C   0  0  0  0  0  2  0  0  0  0  0  0
  192.2230  174.5290  141.9820 N   0  0  0  0  0  0  0  0  0  0  0  0
  189.8110  173.9810  140.4330 C   0  0  2  0  0  3  0  0  0  0  0  0
  193.2340  174.3440  144.3100 C   0  0  2  0  0  3  0  0  0  0  0  0
  188.3110  172.2840  139.4000 C   0  0  0  0  0  1  0  0  0  0  0  0
  193.3870  174.5710  142.8220 C   0  0  0  0  0  0  0  0  0  0  0  0
  187.4250  176.0860  141.0700 N   0  0  0  0  0  2  0  0  0  0  0  0
  186.1180  177.9210  142.1750 C   0  0  0  0  0  2  0  0  0  0  0  0
  186.6630  177.2800  140.9420 C   0  0  0  0  0  0  0  0  0  0  0  0
  186.4660  177.8100  139.7820 N   0  0  0  0  0  2  0  0  0  0  0  0
  188.2190  178.6830  142.9630 F   0  0  0  0  0  0  0  0  0  0  0  0
  187.7280  176.4300  143.5220 C   0  0  0  0  0  2  0  0  0  0  0  0
  187.1620  177.8500  143.2970 C   0  0  2  0  0  0  0  0  0  0  0  0
  187.4920  175.4280  142.3770 C   0  0  2  0  0  3  0  0  0  0  0  0
  186.5330  178.3260  144.5710 C   0  0  0  0  0  0  0  0  0  0  0  0
  185.9240  179.4270  144.6110 O   0  0  0  0  0  0  0  0  0  0  0  0
  186.6090  177.5450  145.7190 O   0  0  0  0  0  1  0  0  0  0  0  0
  195.3920  174.6670  145.5360 C   0  0  0  0  0  3  0  0  0  0  0  0
  194.4780  173.7920  144.9380 C   0  0  0  0  0  0  0  0  0  0  0  0
  194.7410  172.4120  144.9330 C   0  0  0  0  0  3  0  0  0  0  0  0
  196.1700  170.5200  145.5170 N   0  0  0  0  0  1  0  0  0  0  0  0
  196.8160  172.7980  146.1190 C   0  0  0  0  0  3  0  0  0  0  0  0
  195.9070  171.9180  145.5230 C   0  0  0  0  0  0  0  0  0  0  0  0
  196.5580  174.1710  146.1250 C   0  0  0  0  0  3  0  0  0  0  0  0
  191.4760  173.8260  146.0780 C   0  0  0  0  0  2  0  0  0  0  0  0
  191.6670  175.2980  146.4110 C   0  0  0  0  0  1  0  0  0  0  0  0
  1 16  1  6  0  0  0
  1  9  1  0  0  0  0
  1 12  1  0  0  0  0
  2  4  1  6  0  0  0
  3 14  1  0  0  0  0
  3 11  1  0  0  0  0
  4  6  1  0  0  0  0
  5  8  1  0  0  0  0
  5  2  1  0  0  0  0
  6 36  1  0  0  0  0
  7 11  2  0  0  0  0
 10 17  2  0  0  0  0
 11 13  1  0  0  0  0
 12  8  1  0  0  0  0
 13  2  1  0  0  0  0
 13 17  1  0  0  0  0
 14  1  1  0  0  0  0
 14  5  1  0  0  0  0
 15  6  1  0  0  0  0
 15 30  1  0  0  0  0
 17 15  1  0  0  0  0
 18 25  1  0  0  0  0
 19 24  1  0  0  0  0
 20 18  1  0  0  0  0
 20 19  1  0  0  0  0
 21 20  2  0  0  0  0
 22 24  1  0  0  0  0
 24 23  1  0  0  0  0
 24 26  1  0  0  0  0
 25  8  1  0  0  0  0
 25 23  1  0  0  0  0
 26 27  2  0  0  0  0
 26 28  1  0  0  0  0
 29 35  1  0  0  0  0
 30 29  2  0  0  0  0
 31 30  1  0  0  0  0
 31 34  2  0  0  0  0
 32 34  1  0  0  0  0
 33 35  2  0  0  0  0
 34 33  1  0  0  0  0
 36 37  1  0  0  0  0
M  END
>  <MODEL>
8

>  <REMARK>
 VINA RESULT:      -7.6      3.071      8.431
  Name = 
  4 active torsions:
  status: ('A' for Active; 'I' for Inactive)
    1  A    between atoms: C_6  and  C_31
    2  A    between atoms: C_7  and  C_14
    3  A    between atoms: C_11  and  C_33
    4  A    between atoms: N_20  and  C_36
                            x       y       z     vdW  Elec       q    Type
                         _______ _______ _______ _____ _____    ______ ____

>  <TORSDO>
F 4

$$$$
=
 OpenBabel11052419573D

 37 41  0  0  1  0  0  0  0  0999 V2000
  189.9980  171.9140  142.1830 C   0  0  1  0  0  0  0  0  0  0  0  0
  189.4090  175.2150  142.1060 C   0  0  2  0  0  3  0  0  0  0  0  0
  191.1150  173.5130  143.6770 O   0  0  0  0  0  0  0  0  0  0  0  0
  187.9350  174.8440  142.2420 C   0  0  0  0  0  2  0  0  0  0  0  0
  190.2970  174.1680  141.4060 C   0  0  2  0  0  3  0  0  0  0  0  0
  187.1060  176.0380  142.7530 C   0  0  1  0  0  3  0  0  0  0  0  0
  191.0360  175.0380  145.3770 O   0  0  0  0  0  0  0  0  0  0  0  0
  189.5340  173.4550  140.3730 N   0  0  2  0  0  0  0  0  0  0  0  0
  188.9540  171.9510  143.1090 O   0  0  0  0  0  1  0  0  0  0  0  0
  189.7700  177.4000  144.9430 O   0  0  0  0  0  0  0  0  0  0  0  0
  190.7110  174.7400  144.1970 C   0  0  0  0  0  0  0  0  0  0  0  0
  189.4460  172.0470  140.7760 C   0  0  0  0  0  2  0  0  0  0  0  0
  189.9090  175.6340  143.4100 N   0  0  0  0  0  0  0  0  0  0  0  0
  190.8980  173.1130  142.3240 C   0  0  2  0  0  3  0  0  0  0  0  0
  187.8880  177.1800  143.4530 C   0  0  2  0  0  3  0  0  0  0  0  0
  190.7820  170.6270  142.3300 C   0  0  0  0  0  1  0  0  0  0  0  0
  189.2270  176.7480  144.0090 C   0  0  0  0  0  0  0  0  0  0  0  0
  189.3600  174.1570  138.0480 N   0  0  0  0  0  2  0  0  0  0  0  0
  190.9590  173.2710  136.3310 C   0  0  0  0  0  2  0  0  0  0  0  0
  189.7800  174.1100  136.6900 C   0  0  0  0  0  0  0  0  0  0  0  0
  189.1370  174.7660  135.7830 N   0  0  0  0  0  2  0  0  0  0  0  0
  189.8480  171.2010  136.6420 F   0  0  0  0  0  0  0  0  0  0  0  0
  190.7170  172.1480  138.6350 C   0  0  0  0  0  2  0  0  0  0  0  0
  190.9110  171.9530  137.1160 C   0  0  2  0  0  0  0  0  0  0  0  0
  190.2040  173.5340  139.0700 C   0  0  2  0  0  3  0  0  0  0  0  0
  192.1910  171.2090  136.8850 C   0  0  0  0  0  0  0  0  0  0  0  0
  193.2570  171.8300  136.6330 O   0  0  0  0  0  0  0  0  0  0  0  0
  192.2120  169.8200  136.9600 O   0  0  0  0  0  1  0  0  0  0  0  0
  186.3690  179.0440  144.1470 C   0  0  0  0  0  3  0  0  0  0  0  0
  187.0300  177.8580  144.4810 C   0  0  0  0  0  0  0  0  0  0  0  0
  186.8860  177.3210  145.7700 C   0  0  0  0  0  3  0  0  0  0  0  0
  185.9370  177.4230  148.0180 N   0  0  0  0  0  1  0  0  0  0  0  0
  185.4240  179.1540  146.3740 C   0  0  0  0  0  3  0  0  0  0  0  0
  186.0840  177.9690  146.7140 C   0  0  0  0  0  0  0  0  0  0  0  0
  185.5670  179.6910  145.0920 C   0  0  0  0  0  3  0  0  0  0  0  0
  186.1830  176.5760  141.6610 C   0  0  0  0  0  2  0  0  0  0  0  0
  186.8990  177.5510  140.7380 C   0  0  0  0  0  1  0  0  0  0  0  0
  1 14  1  0  0  0  0
  1 16  1  1  0  0  0
  1  9  1  0  0  0  0
  2  4  1  1  0  0  0
  2 13  1  0  0  0  0
  3 11  1  0  0  0  0
  4  6  1  0  0  0  0
  5  2  1  0  0  0  0
  5 14  1  0  0  0  0
  6 15  1  0  0  0  0
  8 12  1  0  0  0  0
  8  5  1  0  0  0  0
 11  7  2  0  0  0  0
 12  1  1  0  0  0  0
 13 17  1  0  0  0  0
 13 11  1  0  0  0  0
 14  3  1  0  0  0  0
 15 17  1  0  0  0  0
 15 30  1  0  0  0  0
 17 10  2  0  0  0  0
 18 25  1  0  0  0  0
 19 20  1  0  0  0  0
 19 24  1  0  0  0  0
 20 18  1  0  0  0  0
 21 20  2  0  0  0  0
 22 24  1  0  0  0  0
 23 25  1  0  0  0  0
 24 23  1  0  0  0  0
 25  8  1  0  0  0  0
 26 28  1  0  0  0  0
 26 24  1  0  0  0  0
 27 26  2  0  0  0  0
 29 30  2  0  0  0  0
 29 35  1  0  0  0  0
 30 31  1  0  0  0  0
 31 34  2  0  0  0  0
 33 34  1  0  0  0  0
 34 32  1  0  0  0  0
 35 33  2  0  0  0  0
 36  6  1  0  0  0  0
 37 36  1  0  0  0  0
M  END
>  <MODEL>
9

>  <REMARK>
 VINA RESULT:      -7.5      4.138      6.271
  Name = 
  4 active torsions:
  status: ('A' for Active; 'I' for Inactive)
    1  A    between atoms: C_6  and  C_31
    2  A    between atoms: C_7  and  C_14
    3  A    between atoms: C_11  and  C_33
    4  A    between atoms: N_20  and  C_36
                            x       y       z     vdW  Elec       q    Type
                         _______ _______ _______ _____ _____    ______ ____

>  <TORSDO>
F 4

$$$$
