=
 OpenBabel11052419193D

 32 35  0  0  0  0  0  0  0  0999 V2000
  188.2780  177.8710  144.1990 N   0  0  0  0  0  0  0  0  0  0  0  0
  187.2160  178.0040  144.9810 N   0  0  0  0  0  0  0  0  0  0  0  0
  189.2130  177.1630  144.8690 C   0  0  0  0  0  0  0  0  0  0  0  0
  188.7200  176.8470  146.1300 C   0  0  0  0  0  0  0  0  0  0  0  0
  186.4990  177.3160  147.3090 C   0  0  0  0  0  1  0  0  0  0  0  0
  186.0280  178.7030  144.5730 C   0  0  0  0  0  0  0  0  0  0  0  0
  185.0650  178.8550  145.3710 O   0  0  0  0  0  0  0  0  0  0  0  0
  187.4530  177.3920  146.1620 C   0  0  0  0  0  0  0  0  0  0  0  0
  190.5330  176.8260  144.2940 C   0  0  0  0  0  0  0  0  0  0  0  0
  190.6520  176.2750  143.0100 C   0  0  0  0  0  3  0  0  0  0  0  0
  195.3440  176.1100  144.9100 C   0  0  0  0  0  2  0  0  0  0  0  0
  191.6930  177.0500  145.0510 C   0  0  0  0  0  3  0  0  0  0  0  0
  194.3150  175.8410  142.7250 O   0  0  0  0  0  0  0  0  0  0  0  0
  193.0590  176.1810  143.2420 C   0  0  0  0  0  0  0  0  0  0  0  0
  191.9080  175.9530  142.4850 C   0  0  0  0  0  3  0  0  0  0  0  0
  192.9510  176.7230  144.5360 C   0  0  0  0  0  0  0  0  0  0  0  0
  195.5240  176.2030  143.3940 C   0  0  0  0  0  2  0  0  0  0  0  0
  194.1840  177.0080  145.3410 C   0  0  0  0  0  2  0  0  0  0  0  0
  185.9040  179.2190  143.1770 C   0  0  0  0  0  2  0  0  0  0  0  0
  185.3780  178.1810  142.3050 N   0  0  0  0  0  0  0  0  0  0  0  0
  186.2330  177.6010  141.3140 C   0  0  0  0  0  0  0  0  0  0  0  0
  186.7690  177.6040  140.0230 C   0  0  0  0  0  2  0  0  0  0  0  0
  187.1810  176.5940  140.8950 C   0  0  0  0  0  0  0  0  0  0  0  0
  187.9400  175.4640  141.1660 O   0  0  0  0  0  1  0  0  0  0  0  0
  181.6970  178.1940  141.6740 O   0  0  0  0  0  1  0  0  0  0  0  0
  184.0080  177.8750  142.3720 N   0  0  0  0  0  2  0  0  0  0  0  0
  183.4230  178.6010  140.2270 O   0  0  0  0  0  0  0  0  0  0  0  0
  183.0520  178.2610  141.3800 C   0  0  0  0  0  0  0  0  0  0  0  0
  189.3730  176.0560  147.2190 C   0  0  0  0  0  2  0  0  0  0  0  0
  189.1600  174.5590  147.0230 C   0  0  0  0  0  2  0  0  0  0  0  0
  189.7560  173.2170  145.0030 C   0  0  0  0  0  1  0  0  0  0  0  0
  190.2950  173.9210  146.2340 C   0  0  0  0  0  2  0  0  0  0  0  0
  1  3  2  0  0  0  0
  1  2  1  0  0  0  0
  2  8  1  0  0  0  0
  3  4  1  0  0  0  0
  4  8  2  0  0  0  0
  4 29  1  0  0  0  0
  6  2  1  0  0  0  0
  6  7  2  0  0  0  0
  8  5  1  0  0  0  0
  9  3  1  0  0  0  0
  9 12  1  0  0  0  0
 10  9  2  0  0  0  0
 11 18  1  0  0  0  0
 13 14  1  0  0  0  0
 13 17  1  0  0  0  0
 14 16  1  0  0  0  0
 15 10  1  0  0  0  0
 15 14  2  0  0  0  0
 16 12  2  0  0  0  0
 16 18  1  0  0  0  0
 17 11  1  0  0  0  0
 19  6  1  0  0  0  0
 20 26  1  0  0  0  0
 20 19  1  0  0  0  0
 21 20  1  0  0  0  0
 22 23  1  0  0  0  0
 22 21  1  0  0  0  0
 23 24  1  0  0  0  0
 23 21  2  0  0  0  0
 27 28  2  0  0  0  0
 28 25  1  0  0  0  0
 28 26  1  0  0  0  0
 30 29  1  0  0  0  0
 31 32  1  0  0  0  0
 32 30  1  0  0  0  0
M  END
>  <MODEL>
1

>  <REMARK>
 VINA RESULT:      -7.5      0.000      0.000
  Name = 
  8 active torsions:
  status: ('A' for Active; 'I' for Inactive)
    1  A    between atoms: C_2  and  C_5
    2  A    between atoms: C_3  and  N_20
    3  A    between atoms: C_13  and  C_18
    4  A    between atoms: C_13  and  C_29
    5  A    between atoms: C_14  and  C_18
    6  A    between atoms: N_15  and  N_20
    7  A    between atoms: C_16  and  N_20
    8  A    between atoms: C_16  and  C_24
                            x       y       z     vdW  Elec       q    Type
                         _______ _______ _______ _____ _____    ______ ____

>  <TORSDO>
F 8

$$$$
=
 OpenBabel11052419193D

 32 35  0  0  0  0  0  0  0  0999 V2000
  190.7010  176.7900  143.6630 N   0  0  0  0  0  0  0  0  0  0  0  0
  191.6220  176.0310  143.0870 N   0  0  0  0  0  0  0  0  0  0  0  0
  189.5000  176.4790  143.1290 C   0  0  0  0  0  0  0  0  0  0  0  0
  189.6770  175.4870  142.1710 C   0  0  0  0  0  0  0  0  0  0  0  0
  191.7290  174.2210  141.3200 C   0  0  0  0  0  1  0  0  0  0  0  0
  193.0170  176.1000  143.4280 C   0  0  0  0  0  0  0  0  0  0  0  0
  193.8650  175.4000  142.8140 O   0  0  0  0  0  0  0  0  0  0  0  0
  191.0310  175.2270  142.1760 C   0  0  0  0  0  0  0  0  0  0  0  0
  188.2420  177.1380  143.5400 C   0  0  0  0  0  0  0  0  0  0  0  0
  187.5880  178.0540  142.7020 C   0  0  0  0  0  3  0  0  0  0  0  0
  185.0210  178.2600  147.0630 C   0  0  0  0  0  2  0  0  0  0  0  0
  187.6920  176.8540  144.7990 C   0  0  0  0  0  3  0  0  0  0  0  0
  184.6870  179.0250  144.7810 O   0  0  0  0  0  0  0  0  0  0  0  0
  185.8610  178.3870  144.3640 C   0  0  0  0  0  0  0  0  0  0  0  0
  186.4040  178.6770  143.1100 C   0  0  0  0  0  3  0  0  0  0  0  0
  186.5140  177.4790  145.2170 C   0  0  0  0  0  0  0  0  0  0  0  0
  184.0110  178.6420  145.9800 C   0  0  0  0  0  2  0  0  0  0  0  0
  185.9170  177.1310  146.5490 C   0  0  0  0  0  2  0  0  0  0  0  0
  193.4720  176.9750  144.5510 C   0  0  0  0  0  2  0  0  0  0  0  0
  193.7040  176.1750  145.7440 N   0  0  0  0  0  0  0  0  0  0  0  0
  192.6320  175.9780  146.6710 C   0  0  0  0  0  0  0  0  0  0  0  0
  191.5910  175.1900  147.1730 C   0  0  0  0  0  2  0  0  0  0  0  0
  191.8200  176.4270  147.7800 C   0  0  0  0  0  0  0  0  0  0  0  0
  191.5080  177.3820  148.7380 O   0  0  0  0  0  1  0  0  0  0  0  0
  196.6390  173.9830  146.4700 O   0  0  0  0  0  1  0  0  0  0  0  0
  195.0100  175.7360  146.0170 N   0  0  0  0  0  2  0  0  0  0  0  0
  194.7800  173.5540  145.2060 O   0  0  0  0  0  0  0  0  0  0  0  0
  195.4410  174.3780  145.8890 C   0  0  0  0  0  0  0  0  0  0  0  0
  188.6440  174.8020  141.3320 C   0  0  0  0  0  2  0  0  0  0  0  0
  187.8860  173.7500  142.1350 C   0  0  0  0  0  2  0  0  0  0  0  0
  189.2320  172.1120  143.4560 C   0  0  0  0  0  1  0  0  0  0  0  0
  188.5910  172.4000  142.1120 C   0  0  0  0  0  2  0  0  0  0  0  0
  2  6  1  0  0  0  0
  2  1  1  0  0  0  0
  3  9  1  0  0  0  0
  3  1  2  0  0  0  0
  4  8  2  0  0  0  0
  4  3  1  0  0  0  0
  5  8  1  0  0  0  0
  6 19  1  0  0  0  0
  7  6  2  0  0  0  0
  8  2  1  0  0  0  0
  9 12  1  0  0  0  0
 10 15  1  0  0  0  0
 10  9  2  0  0  0  0
 12 16  2  0  0  0  0
 13 17  1  0  0  0  0
 14 13  1  0  0  0  0
 14 16  1  0  0  0  0
 15 14  2  0  0  0  0
 16 18  1  0  0  0  0
 17 11  1  0  0  0  0
 18 11  1  0  0  0  0
 19 20  1  0  0  0  0
 20 26  1  0  0  0  0
 20 21  1  0  0  0  0
 21 22  1  0  0  0  0
 21 23  2  0  0  0  0
 22 23  1  0  0  0  0
 23 24  1  0  0  0  0
 27 28  2  0  0  0  0
 28 26  1  0  0  0  0
 28 25  1  0  0  0  0
 29 30  1  0  0  0  0
 29  4  1  0  0  0  0
 32 30  1  0  0  0  0
 32 31  1  0  0  0  0
M  END
>  <MODEL>
2

>  <REMARK>
 VINA RESULT:      -7.3      2.923      8.350
  Name = 
  8 active torsions:
  status: ('A' for Active; 'I' for Inactive)
    1  A    between atoms: C_2  and  C_5
    2  A    between atoms: C_3  and  N_20
    3  A    between atoms: C_13  and  C_18
    4  A    between atoms: C_13  and  C_29
    5  A    between atoms: C_14  and  C_18
    6  A    between atoms: N_15  and  N_20
    7  A    between atoms: C_16  and  N_20
    8  A    between atoms: C_16  and  C_24
                            x       y       z     vdW  Elec       q    Type
                         _______ _______ _______ _____ _____    ______ ____

>  <TORSDO>
F 8

$$$$
=
 OpenBabel11052419193D

 32 35  0  0  0  0  0  0  0  0999 V2000
  191.0470  176.5650  144.1210 N   0  0  0  0  0  0  0  0  0  0  0  0
  191.9540  176.0140  143.3280 N   0  0  0  0  0  0  0  0  0  0  0  0
  189.8220  176.2080  143.6780 C   0  0  0  0  0  0  0  0  0  0  0  0
  189.9670  175.4060  142.5510 C   0  0  0  0  0  0  0  0  0  0  0  0
  192.0040  174.5290  141.2780 C   0  0  0  0  0  1  0  0  0  0  0  0
  193.3680  176.1850  143.5200 C   0  0  0  0  0  0  0  0  0  0  0  0
  194.1930  175.6910  142.7070 O   0  0  0  0  0  0  0  0  0  0  0  0
  191.3300  175.3020  142.3640 C   0  0  0  0  0  0  0  0  0  0  0  0
  188.5700  176.6480  144.3300 C   0  0  0  0  0  0  0  0  0  0  0  0
  188.1650  176.1230  145.5660 C   0  0  0  0  0  3  0  0  0  0  0  0
  184.2710  178.9910  144.0610 C   0  0  0  0  0  2  0  0  0  0  0  0
  187.7610  177.6040  143.6970 C   0  0  0  0  0  3  0  0  0  0  0  0
  184.9690  177.9030  146.1190 O   0  0  0  0  0  0  0  0  0  0  0  0
  186.1730  177.4970  145.5300 C   0  0  0  0  0  0  0  0  0  0  0  0
  186.9720  176.5430  146.1640 C   0  0  0  0  0  3  0  0  0  0  0  0
  186.5630  178.0220  144.2850 C   0  0  0  0  0  0  0  0  0  0  0  0
  184.2040  178.9880  145.5890 C   0  0  0  0  0  2  0  0  0  0  0  0
  185.7320  179.0760  143.6150 C   0  0  0  0  0  2  0  0  0  0  0  0
  193.8780  176.9180  144.7190 C   0  0  0  0  0  2  0  0  0  0  0  0
  194.0130  176.0040  145.8420 N   0  0  0  0  0  0  0  0  0  0  0  0
  192.8860  175.7750  146.6940 C   0  0  0  0  0  0  0  0  0  0  0  0
  191.8770  174.9320  147.1710 C   0  0  0  0  0  2  0  0  0  0  0  0
  191.9470  176.2240  147.6970 C   0  0  0  0  0  0  0  0  0  0  0  0
  191.4740  177.2100  148.5510 O   0  0  0  0  0  1  0  0  0  0  0  0
  196.8270  173.6200  146.4320 O   0  0  0  0  0  1  0  0  0  0  0  0
  195.2840  175.4810  146.1360 N   0  0  0  0  0  2  0  0  0  0  0  0
  195.0570  173.4540  144.9890 O   0  0  0  0  0  0  0  0  0  0  0  0
  195.6870  174.1420  145.8350 C   0  0  0  0  0  0  0  0  0  0  0  0
  188.9050  174.7500  141.7270 C   0  0  0  0  0  2  0  0  0  0  0  0
  188.2700  173.5790  142.4700 C   0  0  0  0  0  2  0  0  0  0  0  0
  189.5900  172.2690  144.1370 C   0  0  0  0  0  1  0  0  0  0  0  0
  189.2510  172.4310  142.6670 C   0  0  0  0  0  2  0  0  0  0  0  0
  2  6  1  0  0  0  0
  2  1  1  0  0  0  0
  3  1  2  0  0  0  0
  3  9  1  0  0  0  0
  4  3  1  0  0  0  0
  5  8  1  0  0  0  0
  6 19  1  0  0  0  0
  7  6  2  0  0  0  0
  8  4  2  0  0  0  0
  8  2  1  0  0  0  0
  9 10  1  0  0  0  0
 10 15  2  0  0  0  0
 11 17  1  0  0  0  0
 12 16  1  0  0  0  0
 12  9  2  0  0  0  0
 14 13  1  0  0  0  0
 14 15  1  0  0  0  0
 16 14  2  0  0  0  0
 17 13  1  0  0  0  0
 18 11  1  0  0  0  0
 18 16  1  0  0  0  0
 19 20  1  0  0  0  0
 20 26  1  0  0  0  0
 20 21  1  0  0  0  0
 21 22  1  0  0  0  0
 21 23  2  0  0  0  0
 22 23  1  0  0  0  0
 23 24  1  0  0  0  0
 27 28  2  0  0  0  0
 28 26  1  0  0  0  0
 28 25  1  0  0  0  0
 29 30  1  0  0  0  0
 29  4  1  0  0  0  0
 30 32  1  0  0  0  0
 32 31  1  0  0  0  0
M  END
>  <MODEL>
3

>  <REMARK>
 VINA RESULT:      -7.1      3.092      8.454
  Name = 
  8 active torsions:
  status: ('A' for Active; 'I' for Inactive)
    1  A    between atoms: C_2  and  C_5
    2  A    between atoms: C_3  and  N_20
    3  A    between atoms: C_13  and  C_18
    4  A    between atoms: C_13  and  C_29
    5  A    between atoms: C_14  and  C_18
    6  A    between atoms: N_15  and  N_20
    7  A    between atoms: C_16  and  N_20
    8  A    between atoms: C_16  and  C_24
                            x       y       z     vdW  Elec       q    Type
                         _______ _______ _______ _____ _____    ______ ____

>  <TORSDO>
F 8

$$$$
=
 OpenBabel11052419193D

 32 35  0  0  0  0  0  0  0  0999 V2000
  191.2210  176.4940  144.3660 N   0  0  0  0  0  0  0  0  0  0  0  0
  192.0160  175.9600  143.4500 N   0  0  0  0  0  0  0  0  0  0  0  0
  189.9540  176.0980  144.1120 C   0  0  0  0  0  0  0  0  0  0  0  0
  189.9540  175.2890  142.9810 C   0  0  0  0  0  0  0  0  0  0  0  0
  191.8050  174.4560  141.4250 C   0  0  0  0  0  1  0  0  0  0  0  0
  193.4380  176.1720  143.4300 C   0  0  0  0  0  0  0  0  0  0  0  0
  194.1470  175.6920  142.5060 O   0  0  0  0  0  0  0  0  0  0  0  0
  191.2770  175.2210  142.5940 C   0  0  0  0  0  0  0  0  0  0  0  0
  188.8010  176.5110  144.9400 C   0  0  0  0  0  0  0  0  0  0  0  0
  188.5280  175.8970  146.1720 C   0  0  0  0  0  3  0  0  0  0  0  0
  184.5700  178.9520  145.3630 C   0  0  0  0  0  2  0  0  0  0  0  0
  187.9510  177.5290  144.4820 C   0  0  0  0  0  3  0  0  0  0  0  0
  185.4720  177.6920  147.2340 O   0  0  0  0  0  0  0  0  0  0  0  0
  186.5860  177.3090  146.4770 C   0  0  0  0  0  0  0  0  0  0  0  0
  187.4260  176.2930  146.9370 C   0  0  0  0  0  3  0  0  0  0  0  0
  186.8430  177.9230  145.2380 C   0  0  0  0  0  0  0  0  0  0  0  0
  184.6820  178.8290  146.8830 C   0  0  0  0  0  2  0  0  0  0  0  0
  185.9700  179.0420  144.7530 C   0  0  0  0  0  2  0  0  0  0  0  0
  194.0980  176.9310  144.5350 C   0  0  0  0  0  2  0  0  0  0  0  0
  194.4580  176.0270  145.6150 N   0  0  0  0  0  0  0  0  0  0  0  0
  195.5640  175.1360  145.4420 C   0  0  0  0  0  0  0  0  0  0  0  0
  196.2920  174.0120  145.8450 C   0  0  0  0  0  2  0  0  0  0  0  0
  196.7520  174.7190  144.7310 C   0  0  0  0  0  0  0  0  0  0  0  0
  197.6670  174.8940  143.7020 O   0  0  0  0  0  1  0  0  0  0  0  0
  191.5900  175.2390  147.8750 O   0  0  0  0  0  1  0  0  0  0  0  0
  193.6230  175.9600  146.7440 N   0  0  0  0  0  2  0  0  0  0  0  0
  192.4810  174.0000  146.1690 O   0  0  0  0  0  0  0  0  0  0  0  0
  192.5430  175.0320  146.8870 C   0  0  0  0  0  0  0  0  0  0  0  0
  188.8010  174.5950  142.3270 C   0  0  0  0  0  2  0  0  0  0  0  0
  188.2590  175.4040  141.1540 C   0  0  0  0  0  2  0  0  0  0  0  0
  187.1090  177.5910  140.7910 C   0  0  0  0  0  1  0  0  0  0  0  0
  187.0870  176.2860  141.5630 C   0  0  0  0  0  2  0  0  0  0  0  0
  2  1  1  0  0  0  0
  3  1  2  0  0  0  0
  3  9  1  0  0  0  0
  4  3  1  0  0  0  0
  5  8  1  0  0  0  0
  6  2  1  0  0  0  0
  6 19  1  0  0  0  0
  7  6  2  0  0  0  0
  8  4  2  0  0  0  0
  8  2  1  0  0  0  0
  9 10  1  0  0  0  0
 10 15  2  0  0  0  0
 11 17  1  0  0  0  0
 12  9  2  0  0  0  0
 12 16  1  0  0  0  0
 14 15  1  0  0  0  0
 14 13  1  0  0  0  0
 16 14  2  0  0  0  0
 17 13  1  0  0  0  0
 18 16  1  0  0  0  0
 18 11  1  0  0  0  0
 19 20  1  0  0  0  0
 20 26  1  0  0  0  0
 21 20  1  0  0  0  0
 21 22  1  0  0  0  0
 23 21  2  0  0  0  0
 23 22  1  0  0  0  0
 24 23  1  0  0  0  0
 26 28  1  0  0  0  0
 27 28  2  0  0  0  0
 28 25  1  0  0  0  0
 29  4  1  0  0  0  0
 30 32  1  0  0  0  0
 30 29  1  0  0  0  0
 31 32  1  0  0  0  0
M  END
>  <MODEL>
4

>  <REMARK>
 VINA RESULT:      -7.1      3.231      8.344
  Name = 
  8 active torsions:
  status: ('A' for Active; 'I' for Inactive)
    1  A    between atoms: C_2  and  C_5
    2  A    between atoms: C_3  and  N_20
    3  A    between atoms: C_13  and  C_18
    4  A    between atoms: C_13  and  C_29
    5  A    between atoms: C_14  and  C_18
    6  A    between atoms: N_15  and  N_20
    7  A    between atoms: C_16  and  N_20
    8  A    between atoms: C_16  and  C_24
                            x       y       z     vdW  Elec       q    Type
                         _______ _______ _______ _____ _____    ______ ____

>  <TORSDO>
F 8

$$$$
=
 OpenBabel11052419193D

 32 35  0  0  0  0  0  0  0  0999 V2000
  190.9850  176.6870  143.8030 N   0  0  0  0  0  0  0  0  0  0  0  0
  191.8930  175.9710  143.1570 N   0  0  0  0  0  0  0  0  0  0  0  0
  189.7680  176.3810  143.3020 C   0  0  0  0  0  0  0  0  0  0  0  0
  189.9220  175.4390  142.2910 C   0  0  0  0  0  0  0  0  0  0  0  0
  191.9580  174.2480  141.3030 C   0  0  0  0  0  1  0  0  0  0  0  0
  193.2990  176.0460  143.4470 C   0  0  0  0  0  0  0  0  0  0  0  0
  194.1330  175.3900  142.7680 O   0  0  0  0  0  0  0  0  0  0  0  0
  191.2790  175.2010  142.2320 C   0  0  0  0  0  0  0  0  0  0  0  0
  188.5180  176.9990  143.7920 C   0  0  0  0  0  0  0  0  0  0  0  0
  187.7710  177.8740  142.9880 C   0  0  0  0  0  3  0  0  0  0  0  0
  185.5150  178.0630  147.5190 C   0  0  0  0  0  2  0  0  0  0  0  0
  188.0700  176.7180  145.0910 C   0  0  0  0  0  3  0  0  0  0  0  0
  184.9880  178.7720  145.2550 O   0  0  0  0  0  0  0  0  0  0  0  0
  186.1550  178.1720  144.7650 C   0  0  0  0  0  0  0  0  0  0  0  0
  186.5950  178.4590  143.4710 C   0  0  0  0  0  3  0  0  0  0  0  0
  186.9010  177.3050  145.5830 C   0  0  0  0  0  0  0  0  0  0  0  0
  184.4150  178.3860  146.5060 C   0  0  0  0  0  2  0  0  0  0  0  0
  186.4150  176.9600  146.9600 C   0  0  0  0  0  2  0  0  0  0  0  0
  193.7850  176.8750  144.5920 C   0  0  0  0  0  2  0  0  0  0  0  0
  193.9120  176.0520  145.7850 N   0  0  0  0  0  0  0  0  0  0  0  0
  194.7650  174.9030  145.7530 C   0  0  0  0  0  0  0  0  0  0  0  0
  196.0440  174.3410  145.7980 C   0  0  0  0  0  2  0  0  0  0  0  0
  194.9580  173.4740  145.6550 C   0  0  0  0  0  0  0  0  0  0  0  0
  194.4410  172.1930  145.5230 O   0  0  0  0  0  1  0  0  0  0  0  0
  190.9250  176.3390  148.0090 O   0  0  0  0  0  1  0  0  0  0  0  0
  193.0870  176.3320  146.8880 N   0  0  0  0  0  2  0  0  0  0  0  0
  191.4240  174.7480  146.4410 O   0  0  0  0  0  0  0  0  0  0  0  0
  191.7810  175.7760  147.0730 C   0  0  0  0  0  0  0  0  0  0  0  0
  188.8670  174.7770  141.4610 C   0  0  0  0  0  2  0  0  0  0  0  0
  188.1200  173.7130  142.2590 C   0  0  0  0  0  2  0  0  0  0  0  0
  189.4010  172.0910  143.6610 C   0  0  0  0  0  1  0  0  0  0  0  0
  188.8650  172.3840  142.2720 C   0  0  0  0  0  2  0  0  0  0  0  0
  2  6  1  0  0  0  0
  2  1  1  0  0  0  0
  3  9  1  0  0  0  0
  3  1  2  0  0  0  0
  4  3  1  0  0  0  0
  5  8  1  0  0  0  0
  6 19  1  0  0  0  0
  7  6  2  0  0  0  0
  8  4  2  0  0  0  0
  8  2  1  0  0  0  0
  9 12  1  0  0  0  0
 10 15  1  0  0  0  0
 10  9  2  0  0  0  0
 12 16  2  0  0  0  0
 13 17  1  0  0  0  0
 14 13  1  0  0  0  0
 14 16  1  0  0  0  0
 15 14  2  0  0  0  0
 16 18  1  0  0  0  0
 17 11  1  0  0  0  0
 18 11  1  0  0  0  0
 19 20  1  0  0  0  0
 20 26  1  0  0  0  0
 21 20  1  0  0  0  0
 21 22  1  0  0  0  0
 23 21  2  0  0  0  0
 23 22  1  0  0  0  0
 24 23  1  0  0  0  0
 26 28  1  0  0  0  0
 27 28  2  0  0  0  0
 28 25  1  0  0  0  0
 29 30  1  0  0  0  0
 29  4  1  0  0  0  0
 30 32  1  0  0  0  0
 32 31  1  0  0  0  0
M  END
>  <MODEL>
5

>  <REMARK>
 VINA RESULT:      -7.0      2.998      7.907
  Name = 
  8 active torsions:
  status: ('A' for Active; 'I' for Inactive)
    1  A    between atoms: C_2  and  C_5
    2  A    between atoms: C_3  and  N_20
    3  A    between atoms: C_13  and  C_18
    4  A    between atoms: C_13  and  C_29
    5  A    between atoms: C_14  and  C_18
    6  A    between atoms: N_15  and  N_20
    7  A    between atoms: C_16  and  N_20
    8  A    between atoms: C_16  and  C_24
                            x       y       z     vdW  Elec       q    Type
                         _______ _______ _______ _____ _____    ______ ____

>  <TORSDO>
F 8

$$$$
=
 OpenBabel11052419193D

 32 35  0  0  0  0  0  0  0  0999 V2000
  188.2560  175.0200  141.3760 N   0  0  0  0  0  0  0  0  0  0  0  0
  189.3680  174.3700  141.0640 N   0  0  0  0  0  0  0  0  0  0  0  0
  188.5390  175.8970  142.3640 C   0  0  0  0  0  0  0  0  0  0  0  0
  189.8860  175.7860  142.6910 C   0  0  0  0  0  0  0  0  0  0  0  0
  191.7910  174.3330  141.7960 C   0  0  0  0  0  1  0  0  0  0  0  0
  189.4230  173.3630  140.0400 C   0  0  0  0  0  0  0  0  0  0  0  0
  190.4890  172.7300  139.8160 O   0  0  0  0  0  0  0  0  0  0  0  0
  190.3770  174.8140  141.8440 C   0  0  0  0  0  0  0  0  0  0  0  0
  187.5250  176.7910  142.9610 C   0  0  0  0  0  0  0  0  0  0  0  0
  187.1720  178.0060  142.3540 C   0  0  0  0  0  3  0  0  0  0  0  0
  184.7480  178.0520  146.8010 C   0  0  0  0  0  2  0  0  0  0  0  0
  186.9090  176.4280  144.1680 C   0  0  0  0  0  3  0  0  0  0  0  0
  184.6650  179.3250  144.7340 O   0  0  0  0  0  0  0  0  0  0  0  0
  185.6060  178.4760  144.1380 C   0  0  0  0  0  0  0  0  0  0  0  0
  186.2170  178.8450  142.9380 C   0  0  0  0  0  3  0  0  0  0  0  0
  185.9610  177.2660  144.7620 C   0  0  0  0  0  0  0  0  0  0  0  0
  183.9000  178.9170  145.8690 C   0  0  0  0  0  2  0  0  0  0  0  0
  185.2810  176.8420  146.0300 C   0  0  0  0  0  2  0  0  0  0  0  0
  188.2220  173.0860  139.1950 C   0  0  0  0  0  2  0  0  0  0  0  0
  188.3700  173.7180  137.8940 N   0  0  0  0  0  0  0  0  0  0  0  0
  187.6430  174.9190  137.6150 C   0  0  0  0  0  0  0  0  0  0  0  0
  187.0560  175.7960  136.6980 C   0  0  0  0  0  2  0  0  0  0  0  0
  186.9690  176.1210  138.0540 C   0  0  0  0  0  0  0  0  0  0  0  0
  186.5470  176.9640  139.0720 O   0  0  0  0  0  1  0  0  0  0  0  0
  190.8330  173.0080  135.1780 O   0  0  0  0  0  0  0  0  0  0  0  0
  189.1160  173.0560  136.9040 N   0  0  0  0  0  2  0  0  0  0  0  0
  190.9960  174.4470  136.9500 O   0  0  0  0  0  1  0  0  0  0  0  0
  190.3370  173.5580  136.3520 C   0  0  0  0  0  0  0  0  0  0  0  0
  190.6710  176.5620  143.7010 C   0  0  0  0  0  2  0  0  0  0  0  0
  190.8180  175.7850  145.0060 C   0  0  0  0  0  2  0  0  0  0  0  0
  189.1800  175.2430  146.8120 C   0  0  0  0  0  1  0  0  0  0  0  0
  189.9360  176.3550  146.1100 C   0  0  0  0  0  2  0  0  0  0  0  0
  1  3  2  0  0  0  0
  2  1  1  0  0  0  0
  2  8  1  0  0  0  0
  3  4  1  0  0  0  0
  3  9  1  0  0  0  0
  4 29  1  0  0  0  0
  5  8  1  0  0  0  0
  6  2  1  0  0  0  0
  7  6  2  0  0  0  0
  8  4  2  0  0  0  0
  9 12  1  0  0  0  0
 10 15  1  0  0  0  0
 10  9  2  0  0  0  0
 12 16  2  0  0  0  0
 13 17  1  0  0  0  0
 14 13  1  0  0  0  0
 14 16  1  0  0  0  0
 15 14  2  0  0  0  0
 16 18  1  0  0  0  0
 17 11  1  0  0  0  0
 18 11  1  0  0  0  0
 19  6  1  0  0  0  0
 20 19  1  0  0  0  0
 21 20  1  0  0  0  0
 21 23  2  0  0  0  0
 22 21  1  0  0  0  0
 22 23  1  0  0  0  0
 23 24  1  0  0  0  0
 25 28  2  0  0  0  0
 26 20  1  0  0  0  0
 28 26  1  0  0  0  0
 28 27  1  0  0  0  0
 29 30  1  0  0  0  0
 30 32  1  0  0  0  0
 32 31  1  0  0  0  0
M  END
>  <MODEL>
6

>  <REMARK>
 VINA RESULT:      -7.0      3.587      7.085
  Name = 
  8 active torsions:
  status: ('A' for Active; 'I' for Inactive)
    1  A    between atoms: C_2  and  C_5
    2  A    between atoms: C_3  and  N_20
    3  A    between atoms: C_13  and  C_18
    4  A    between atoms: C_13  and  C_29
    5  A    between atoms: C_14  and  C_18
    6  A    between atoms: N_15  and  N_20
    7  A    between atoms: C_16  and  N_20
    8  A    between atoms: C_16  and  C_24
                            x       y       z     vdW  Elec       q    Type
                         _______ _______ _______ _____ _____    ______ ____

>  <TORSDO>
F 8

$$$$
=
 OpenBabel11052419193D

 32 35  0  0  0  0  0  0  0  0999 V2000
  191.2340  177.0060  144.6310 N   0  0  0  0  0  0  0  0  0  0  0  0
  191.8410  176.5680  145.7240 N   0  0  0  0  0  0  0  0  0  0  0  0
  189.8990  176.9300  144.8270 C   0  0  0  0  0  0  0  0  0  0  0  0
  189.6590  176.4130  146.0950 C   0  0  0  0  0  0  0  0  0  0  0  0
  191.1940  175.6590  147.9970 C   0  0  0  0  0  1  0  0  0  0  0  0
  193.2720  176.5210  145.8590 C   0  0  0  0  0  0  0  0  0  0  0  0
  193.8060  176.0430  146.8950 O   0  0  0  0  0  0  0  0  0  0  0  0
  190.9110  176.2010  146.6340 C   0  0  0  0  0  0  0  0  0  0  0  0
  188.9120  177.3370  143.8050 C   0  0  0  0  0  0  0  0  0  0  0  0
  189.3120  177.9040  142.5850 C   0  0  0  0  0  3  0  0  0  0  0  0
  184.2620  178.2920  142.5750 C   0  0  0  0  0  2  0  0  0  0  0  0
  187.5430  177.1660  144.0600 C   0  0  0  0  0  3  0  0  0  0  0  0
  186.0530  178.5250  140.9490 O   0  0  0  0  0  0  0  0  0  0  0  0
  187.0030  178.1180  141.8930 C   0  0  0  0  0  0  0  0  0  0  0  0
  188.3640  178.2930  141.6330 C   0  0  0  0  0  3  0  0  0  0  0  0
  186.5890  177.5610  143.1170 C   0  0  0  0  0  0  0  0  0  0  0  0
  184.6660  178.2190  141.1010 C   0  0  0  0  0  2  0  0  0  0  0  0
  185.1320  177.3320  143.3890 C   0  0  0  0  0  2  0  0  0  0  0  0
  194.1440  177.0820  144.7830 C   0  0  0  0  0  2  0  0  0  0  0  0
  194.5780  176.0210  143.8880 N   0  0  0  0  0  0  0  0  0  0  0  0
  195.8010  175.3310  144.1650 C   0  0  0  0  0  0  0  0  0  0  0  0
  197.0990  174.9670  143.7950 C   0  0  0  0  0  2  0  0  0  0  0  0
  196.6190  174.5020  145.0210 C   0  0  0  0  0  0  0  0  0  0  0  0
  196.7940  173.7820  146.1950 O   0  0  0  0  0  1  0  0  0  0  0  0
  192.5660  174.3750  141.2070 O   0  0  0  0  0  0  0  0  0  0  0  0
  193.8540  175.8000  142.7040 N   0  0  0  0  0  2  0  0  0  0  0  0
  192.5560  174.0080  143.4660 O   0  0  0  0  0  1  0  0  0  0  0  0
  192.9880  174.6810  142.4940 C   0  0  0  0  0  0  0  0  0  0  0  0
  188.3480  176.1670  146.7720 C   0  0  0  0  0  2  0  0  0  0  0  0
  187.7500  177.4640  147.3090 C   0  0  0  0  0  2  0  0  0  0  0  0
  185.5920  178.6510  146.8930 C   0  0  0  0  0  1  0  0  0  0  0  0
  186.2330  177.3850  147.4270 C   0  0  0  0  0  2  0  0  0  0  0  0
  1  3  2  0  0  0  0
  1  2  1  0  0  0  0
  2  6  1  0  0  0  0
  2  8  1  0  0  0  0
  3  4  1  0  0  0  0
  4  8  2  0  0  0  0
  4 29  1  0  0  0  0
  6  7  2  0  0  0  0
  8  5  1  0  0  0  0
  9 12  1  0  0  0  0
  9  3  1  0  0  0  0
 10  9  2  0  0  0  0
 11 18  1  0  0  0  0
 13 17  1  0  0  0  0
 13 14  1  0  0  0  0
 14 16  1  0  0  0  0
 15 14  2  0  0  0  0
 15 10  1  0  0  0  0
 16 18  1  0  0  0  0
 16 12  2  0  0  0  0
 17 11  1  0  0  0  0
 19  6  1  0  0  0  0
 20 21  1  0  0  0  0
 20 19  1  0  0  0  0
 21 23  2  0  0  0  0
 22 21  1  0  0  0  0
 22 23  1  0  0  0  0
 23 24  1  0  0  0  0
 25 28  2  0  0  0  0
 26 20  1  0  0  0  0
 28 26  1  0  0  0  0
 28 27  1  0  0  0  0
 29 30  1  0  0  0  0
 30 32  1  0  0  0  0
 31 32  1  0  0  0  0
M  END
>  <MODEL>
7

>  <REMARK>
 VINA RESULT:      -7.0      2.824      7.797
  Name = 
  8 active torsions:
  status: ('A' for Active; 'I' for Inactive)
    1  A    between atoms: C_2  and  C_5
    2  A    between atoms: C_3  and  N_20
    3  A    between atoms: C_13  and  C_18
    4  A    between atoms: C_13  and  C_29
    5  A    between atoms: C_14  and  C_18
    6  A    between atoms: N_15  and  N_20
    7  A    between atoms: C_16  and  N_20
    8  A    between atoms: C_16  and  C_24
                            x       y       z     vdW  Elec       q    Type
                         _______ _______ _______ _____ _____    ______ ____

>  <TORSDO>
F 8

$$$$
=
 OpenBabel11052419193D

 32 35  0  0  0  0  0  0  0  0999 V2000
  189.2500  174.4690  143.2450 N   0  0  0  0  0  0  0  0  0  0  0  0
  190.4140  173.8450  143.3530 N   0  0  0  0  0  0  0  0  0  0  0  0
  189.3110  175.6100  143.9660 C   0  0  0  0  0  0  0  0  0  0  0  0
  190.5660  175.7000  144.5590 C   0  0  0  0  0  0  0  0  0  0  0  0
  192.6390  174.2040  144.5060 C   0  0  0  0  0  1  0  0  0  0  0  0
  190.6940  172.5950  142.7000 C   0  0  0  0  0  0  0  0  0  0  0  0
  191.7950  172.0090  142.8770 O   0  0  0  0  0  0  0  0  0  0  0  0
  191.2360  174.5680  144.1430 C   0  0  0  0  0  0  0  0  0  0  0  0
  188.1810  176.5570  144.0720 C   0  0  0  0  0  0  0  0  0  0  0  0
  188.0250  177.6140  143.1630 C   0  0  0  0  0  3  0  0  0  0  0  0
  184.4580  178.4090  146.6700 C   0  0  0  0  0  2  0  0  0  0  0  0
  187.2480  176.4060  145.1090 C   0  0  0  0  0  3  0  0  0  0  0  0
  184.9690  179.2550  144.4500 O   0  0  0  0  0  0  0  0  0  0  0  0
  186.0290  178.3490  144.3170 C   0  0  0  0  0  0  0  0  0  0  0  0
  186.9550  178.5070  143.2840 C   0  0  0  0  0  3  0  0  0  0  0  0
  186.1820  177.3000  145.2410 C   0  0  0  0  0  0  0  0  0  0  0  0
  183.9130  179.0400  145.3880 C   0  0  0  0  0  2  0  0  0  0  0  0
  185.1700  177.0980  146.3300 C   0  0  0  0  0  2  0  0  0  0  0  0
  189.6940  171.9980  141.7640 C   0  0  0  0  0  2  0  0  0  0  0  0
  189.9630  172.4320  140.4020 N   0  0  0  0  0  0  0  0  0  0  0  0
  189.0510  173.3320  139.7630 C   0  0  0  0  0  0  0  0  0  0  0  0
  188.2650  173.6820  138.6620 C   0  0  0  0  0  2  0  0  0  0  0  0
  188.2580  174.5400  139.7650 C   0  0  0  0  0  0  0  0  0  0  0  0
  187.8160  175.6930  140.3980 O   0  0  0  0  0  1  0  0  0  0  0  0
  192.1070  169.9650  138.5960 O   0  0  0  0  0  0  0  0  0  0  0  0
  191.0360  171.8480  139.7080 N   0  0  0  0  0  2  0  0  0  0  0  0
  189.8270  170.1590  138.6330 O   0  0  0  0  0  1  0  0  0  0  0  0
  190.9450  170.6200  138.9810 C   0  0  0  0  0  0  0  0  0  0  0  0
  191.1150  176.7900  145.4240 C   0  0  0  0  0  2  0  0  0  0  0  0
  190.4940  176.7580  146.8170 C   0  0  0  0  0  2  0  0  0  0  0  0
  189.2630  174.7450  147.6340 C   0  0  0  0  0  1  0  0  0  0  0  0
  190.6270  175.3880  147.4680 C   0  0  0  0  0  2  0  0  0  0  0  0
  1  2  1  0  0  0  0
  1  3  2  0  0  0  0
  2  8  1  0  0  0  0
  3  9  1  0  0  0  0
  3  4  1  0  0  0  0
  4 29  1  0  0  0  0
  6  7  2  0  0  0  0
  6  2  1  0  0  0  0
  8  5  1  0  0  0  0
  8  4  2  0  0  0  0
  9 12  1  0  0  0  0
 10 15  1  0  0  0  0
 10  9  2  0  0  0  0
 12 16  2  0  0  0  0
 13 17  1  0  0  0  0
 14 13  1  0  0  0  0
 14 16  1  0  0  0  0
 15 14  2  0  0  0  0
 16 18  1  0  0  0  0
 17 11  1  0  0  0  0
 18 11  1  0  0  0  0
 19  6  1  0  0  0  0
 20 19  1  0  0  0  0
 21 23  2  0  0  0  0
 21 20  1  0  0  0  0
 22 21  1  0  0  0  0
 22 23  1  0  0  0  0
 23 24  1  0  0  0  0
 25 28  2  0  0  0  0
 26 20  1  0  0  0  0
 27 28  1  0  0  0  0
 28 26  1  0  0  0  0
 29 30  1  0  0  0  0
 30 32  1  0  0  0  0
 32 31  1  0  0  0  0
M  END
>  <MODEL>
8

>  <REMARK>
 VINA RESULT:      -6.9      3.554      7.182
  Name = 
  8 active torsions:
  status: ('A' for Active; 'I' for Inactive)
    1  A    between atoms: C_2  and  C_5
    2  A    between atoms: C_3  and  N_20
    3  A    between atoms: C_13  and  C_18
    4  A    between atoms: C_13  and  C_29
    5  A    between atoms: C_14  and  C_18
    6  A    between atoms: N_15  and  N_20
    7  A    between atoms: C_16  and  N_20
    8  A    between atoms: C_16  and  C_24
                            x       y       z     vdW  Elec       q    Type
                         _______ _______ _______ _____ _____    ______ ____

>  <TORSDO>
F 8

$$$$
=
 OpenBabel11052419193D

 32 35  0  0  0  0  0  0  0  0999 V2000
  190.7830  176.8690  144.4900 N   0  0  0  0  0  0  0  0  0  0  0  0
  191.3870  176.4500  145.5920 N   0  0  0  0  0  0  0  0  0  0  0  0
  189.4480  176.8100  144.6890 C   0  0  0  0  0  0  0  0  0  0  0  0
  189.2050  176.3240  145.9690 C   0  0  0  0  0  0  0  0  0  0  0  0
  190.7340  175.5980  147.8860 C   0  0  0  0  0  1  0  0  0  0  0  0
  192.8180  176.3900  145.7260 C   0  0  0  0  0  0  0  0  0  0  0  0
  193.3480  175.9310  146.7720 O   0  0  0  0  0  0  0  0  0  0  0  0
  190.4550  176.1130  146.5110 C   0  0  0  0  0  0  0  0  0  0  0  0
  188.4630  177.2050  143.6590 C   0  0  0  0  0  0  0  0  0  0  0  0
  188.8630  177.5560  142.3610 C   0  0  0  0  0  3  0  0  0  0  0  0
  183.9030  178.5710  142.4870 C   0  0  0  0  0  2  0  0  0  0  0  0
  187.1000  177.2410  143.9860 C   0  0  0  0  0  3  0  0  0  0  0  0
  185.6190  178.3680  140.7790 O   0  0  0  0  0  0  0  0  0  0  0  0
  186.5630  177.9680  141.7330 C   0  0  0  0  0  0  0  0  0  0  0  0
  187.9180  177.9370  141.4020 C   0  0  0  0  0  3  0  0  0  0  0  0
  186.1510  177.6290  143.0350 C   0  0  0  0  0  0  0  0  0  0  0  0
  184.2150  178.2610  141.0230 C   0  0  0  0  0  2  0  0  0  0  0  0
  184.6930  177.6210  143.3890 C   0  0  0  0  0  2  0  0  0  0  0  0
  193.6940  176.9190  144.6370 C   0  0  0  0  0  2  0  0  0  0  0  0
  194.3840  175.8220  143.9760 N   0  0  0  0  0  0  0  0  0  0  0  0
  193.6230  174.7120  143.4880 C   0  0  0  0  0  0  0  0  0  0  0  0
  192.9680  174.0570  142.4400 C   0  0  0  0  0  2  0  0  0  0  0  0
  192.9650  173.4420  143.6950 C   0  0  0  0  0  0  0  0  0  0  0  0
  192.6040  172.3910  144.5260 O   0  0  0  0  0  1  0  0  0  0  0  0
  197.9250  175.8220  142.7880 O   0  0  0  0  0  1  0  0  0  0  0  0
  195.7890  175.8230  143.9580 N   0  0  0  0  0  2  0  0  0  0  0  0
  196.0720  176.7760  141.8400 O   0  0  0  0  0  0  0  0  0  0  0  0
  196.5750  176.1470  142.8080 C   0  0  0  0  0  0  0  0  0  0  0  0
  187.8920  176.1080  146.6540 C   0  0  0  0  0  2  0  0  0  0  0  0
  187.3310  177.4150  147.2040 C   0  0  0  0  0  2  0  0  0  0  0  0
  185.2100  178.7270  147.0770 C   0  0  0  0  0  1  0  0  0  0  0  0
  185.8170  177.3650  147.3560 C   0  0  0  0  0  2  0  0  0  0  0  0
  1  3  2  0  0  0  0
  1  2  1  0  0  0  0
  2  6  1  0  0  0  0
  2  8  1  0  0  0  0
  3  4  1  0  0  0  0
  4  8  2  0  0  0  0
  4 29  1  0  0  0  0
  6  7  2  0  0  0  0
  8  5  1  0  0  0  0
  9 12  1  0  0  0  0
  9  3  1  0  0  0  0
 10  9  2  0  0  0  0
 11 18  1  0  0  0  0
 13 17  1  0  0  0  0
 13 14  1  0  0  0  0
 14 16  1  0  0  0  0
 15 14  2  0  0  0  0
 15 10  1  0  0  0  0
 16 18  1  0  0  0  0
 16 12  2  0  0  0  0
 17 11  1  0  0  0  0
 19  6  1  0  0  0  0
 20 19  1  0  0  0  0
 21 23  2  0  0  0  0
 21 20  1  0  0  0  0
 22 21  1  0  0  0  0
 22 23  1  0  0  0  0
 23 24  1  0  0  0  0
 25 28  1  0  0  0  0
 26 20  1  0  0  0  0
 27 28  2  0  0  0  0
 28 26  1  0  0  0  0
 29 30  1  0  0  0  0
 30 32  1  0  0  0  0
 31 32  1  0  0  0  0
M  END
>  <MODEL>
9

>  <REMARK>
 VINA RESULT:      -6.8      2.713      8.009
  Name = 
  8 active torsions:
  status: ('A' for Active; 'I' for Inactive)
    1  A    between atoms: C_2  and  C_5
    2  A    between atoms: C_3  and  N_20
    3  A    between atoms: C_13  and  C_18
    4  A    between atoms: C_13  and  C_29
    5  A    between atoms: C_14  and  C_18
    6  A    between atoms: N_15  and  N_20
    7  A    between atoms: C_16  and  N_20
    8  A    between atoms: C_16  and  C_24
                            x       y       z     vdW  Elec       q    Type
                         _______ _______ _______ _____ _____    ______ ____

>  <TORSDO>
F 8

$$$$
