=
 OpenBabel11052418043D

 28 31  0  0  1  0  0  0  0  0999 V2000
  185.3100  178.2230  144.8790 C   0  0  1  0  0  3  0  0  0  0  0  0
  185.6290  176.8790  144.2140 C   0  0  2  0  0  3  0  0  0  0  0  0
  186.4300  177.9690  147.5790 C   0  0  0  0  0  2  0  0  0  0  0  0
  187.7040  178.2660  144.5130 O   0  0  0  0  0  1  0  0  0  0  0  0
  184.9860  178.4600  147.3720 C   0  0  0  0  0  2  0  0  0  0  0  0
  186.8770  176.9670  146.5130 C   0  0  1  0  0  3  0  0  0  0  0  0
  184.3580  177.9990  146.0530 C   0  0  0  0  0  2  0  0  0  0  0  0
  186.6580  177.5570  145.1140 C   0  0  1  0  0  0  0  0  0  0  0  0
  185.9160  177.0410  142.7430 C   0  0  0  0  0  0  0  0  0  0  0  0
  186.4990  177.4810  140.0320 C   0  0  0  0  0  3  0  0  0  0  0  0
  185.2270  178.0230  142.0160 C   0  0  0  0  0  3  0  0  0  0  0  0
  187.6850  175.3680  142.8080 O   0  0  0  0  0  1  0  0  0  0  0  0
  186.9380  176.3060  142.1060 C   0  0  0  0  0  0  0  0  0  0  0  0
  187.2130  176.5220  140.7520 C   0  0  0  0  0  3  0  0  0  0  0  0
  185.5090  178.2360  140.6650 C   0  0  0  0  0  3  0  0  0  0  0  0
  188.3270  176.5610  146.7260 C   0  0  0  0  0  2  0  0  0  0  0  0
  188.3980  175.2060  147.0860 O   0  0  0  0  0  0  0  0  0  0  0  0
  189.3610  173.2970  146.1730 F   0  0  0  0  0  0  0  0  0  0  0  0
  189.5330  174.6430  146.4680 C   0  0  1  0  0  3  0  0  0  0  0  0
  189.9680  175.4380  145.2390 C   0  0  0  0  0  2  0  0  0  0  0  0
  191.9830  175.2660  146.4100 C   0  0  0  0  0  2  0  0  0  0  0  0
  191.8310  176.6260  144.4980 C   0  0  0  0  0  2  0  0  0  0  0  0
  194.4110  175.7890  145.8110 C   0  0  1  0  0  3  0  0  0  0  0  0
  191.4090  175.3560  145.0730 N   0  0  0  0  0  0  0  0  0  0  0  0
  194.2570  176.0610  144.3360 C   0  0  0  0  0  3  0  0  0  0  0  0
  193.1140  176.4430  143.7470 C   0  0  0  0  0  3  0  0  0  0  0  0
  194.4040  177.0750  146.6250 C   0  0  0  0  0  1  0  0  0  0  0  0
  193.4210  174.7510  146.3490 C   0  0  0  0  0  2  0  0  0  0  0  0
  1  8  1  0  0  0  0
  1  7  1  1  0  0  0
  2  9  1  6  0  0  0
  2  1  1  0  0  0  0
  2  8  1  0  0  0  0
  5  3  1  0  0  0  0
  6 16  1  1  0  0  0
  6  3  1  0  0  0  0
  7  5  1  0  0  0  0
  8  4  1  6  0  0  0
  8  6  1  0  0  0  0
 10 15  2  0  0  0  0
 10 14  1  0  0  0  0
 11  9  2  0  0  0  0
 13  9  1  0  0  0  0
 13 12  1  0  0  0  0
 14 13  2  0  0  0  0
 15 11  1  0  0  0  0
 16 17  1  0  0  0  0
 19 18  1  6  0  0  0
 19 17  1  0  0  0  0
 20 19  1  0  0  0  0
 22 24  1  0  0  0  0
 23 28  1  0  0  0  0
 23 27  1  1  0  0  0
 24 20  1  0  0  0  0
 24 21  1  0  0  0  0
 25 23  1  0  0  0  0
 26 25  2  0  0  0  0
 26 22  1  0  0  0  0
 28 21  1  0  0  0  0
M  END
>  <MODEL>
1

>  <REMARK>
 VINA RESULT:      -8.1      0.000      0.000
  Name = 
  6 active torsions:
  status: ('A' for Active; 'I' for Inactive)
    1  A    between atoms: C_2  and  C_3
    2  A    between atoms: C_5  and  O_20
    3  A    between atoms: C_5  and  C_21
    4  A    between atoms: C_10  and  N_13
    5  A    between atoms: C_10  and  C_25
    6  A    between atoms: O_20  and  C_25
                            x       y       z     vdW  Elec       q    Type
                         _______ _______ _______ _____ _____    ______ ____

>  <TORSDO>
F 6

$$$$
=
 OpenBabel11052418043D

 28 31  0  0  1  0  0  0  0  0999 V2000
  185.2740  178.3980  144.9400 C   0  0  1  0  0  3  0  0  0  0  0  0
  185.4540  177.0720  144.1900 C   0  0  2  0  0  3  0  0  0  0  0  0
  186.3640  177.8620  147.6110 C   0  0  0  0  0  2  0  0  0  0  0  0
  187.6600  178.2180  144.5600 O   0  0  0  0  0  1  0  0  0  0  0  0
  184.9780  178.5100  147.4450 C   0  0  0  0  0  2  0  0  0  0  0  0
  186.7060  176.8890  146.4820 C   0  0  1  0  0  3  0  0  0  0  0  0
  184.3050  178.1990  146.1040 C   0  0  0  0  0  2  0  0  0  0  0  0
  186.5480  177.5840  145.1240 C   0  0  1  0  0  0  0  0  0  0  0  0
  185.7550  177.2960  142.7300 C   0  0  0  0  0  0  0  0  0  0  0  0
  186.3160  177.5670  139.9930 C   0  0  0  0  0  3  0  0  0  0  0  0
  186.9530  176.7990  142.1960 C   0  0  0  0  0  3  0  0  0  0  0  0
  183.5910  178.3460  142.3480 O   0  0  0  0  0  1  0  0  0  0  0  0
  184.8150  177.8960  141.8670 C   0  0  0  0  0  0  0  0  0  0  0  0
  185.1070  178.0390  140.5080 C   0  0  0  0  0  3  0  0  0  0  0  0
  187.2370  176.9420  140.8360 C   0  0  0  0  0  3  0  0  0  0  0  0
  188.1060  176.3230  146.6590 C   0  0  0  0  0  2  0  0  0  0  0  0
  188.4720  175.5810  145.5260 O   0  0  0  0  0  0  0  0  0  0  0  0
  189.3130  173.5450  146.2680 F   0  0  0  0  0  0  0  0  0  0  0  0
  189.6220  174.8300  145.8410 C   0  0  1  0  0  3  0  0  0  0  0  0
  190.6280  174.8150  144.6920 C   0  0  0  0  0  2  0  0  0  0  0  0
  192.8860  175.1480  144.1880 C   0  0  0  0  0  2  0  0  0  0  0  0
  192.1340  175.2690  146.4120 C   0  0  0  0  0  2  0  0  0  0  0  0
  194.8270  176.2230  145.4550 C   0  0  1  0  0  3  0  0  0  0  0  0
  191.7950  175.6100  145.0380 N   0  0  0  0  0  0  0  0  0  0  0  0
  194.0730  176.8280  146.6110 C   0  0  0  0  0  3  0  0  0  0  0  0
  192.8790  176.4020  147.0490 C   0  0  0  0  0  3  0  0  0  0  0  0
  195.4260  174.8720  145.8170 C   0  0  0  0  0  1  0  0  0  0  0  0
  194.0190  176.1740  144.1540 C   0  0  0  0  0  2  0  0  0  0  0  0
  1  8  1  0  0  0  0
  1  7  1  1  0  0  0
  2  9  1  6  0  0  0
  2  1  1  0  0  0  0
  2  8  1  0  0  0  0
  5  3  1  0  0  0  0
  6 16  1  1  0  0  0
  6  3  1  0  0  0  0
  7  5  1  0  0  0  0
  8  4  1  6  0  0  0
  8  6  1  0  0  0  0
 10 14  2  0  0  0  0
 10 15  1  0  0  0  0
 11  9  1  0  0  0  0
 13 12  1  0  0  0  0
 13  9  2  0  0  0  0
 14 13  1  0  0  0  0
 15 11  2  0  0  0  0
 17 19  1  0  0  0  0
 17 16  1  0  0  0  0
 19 18  1  6  0  0  0
 20 24  1  0  0  0  0
 20 19  1  0  0  0  0
 21 24  1  0  0  0  0
 22 26  1  0  0  0  0
 23 27  1  1  0  0  0
 23 25  1  0  0  0  0
 24 22  1  0  0  0  0
 25 26  2  0  0  0  0
 28 21  1  0  0  0  0
 28 23  1  0  0  0  0
M  END
>  <MODEL>
2

>  <REMARK>
 VINA RESULT:      -8.0      1.109      1.853
  Name = 
  6 active torsions:
  status: ('A' for Active; 'I' for Inactive)
    1  A    between atoms: C_2  and  C_3
    2  A    between atoms: C_5  and  O_20
    3  A    between atoms: C_5  and  C_21
    4  A    between atoms: C_10  and  N_13
    5  A    between atoms: C_10  and  C_25
    6  A    between atoms: O_20  and  C_25
                            x       y       z     vdW  Elec       q    Type
                         _______ _______ _______ _____ _____    ______ ____

>  <TORSDO>
F 6

$$$$
=
 OpenBabel11052418043D

 28 31  0  0  1  0  0  0  0  0999 V2000
  192.4630  174.9070  146.6120 C   0  0  1  0  0  3  0  0  0  0  0  0
  193.0400  175.8430  145.5440 C   0  0  2  0  0  3  0  0  0  0  0  0
  189.5980  174.7870  145.9850 C   0  0  0  0  0  2  0  0  0  0  0  0
  192.3790  173.6280  144.5570 O   0  0  0  0  0  1  0  0  0  0  0  0
  190.0760  175.0780  147.4190 C   0  0  0  0  0  2  0  0  0  0  0  0
  190.5510  175.3300  144.9180 C   0  0  1  0  0  3  0  0  0  0  0  0
  191.4830  175.6810  147.4940 C   0  0  0  0  0  2  0  0  0  0  0  0
  191.9730  174.8170  145.1740 C   0  0  1  0  0  0  0  0  0  0  0  0
  194.4340  175.4340  145.1410 C   0  0  0  0  0  0  0  0  0  0  0  0
  196.9910  174.5320  144.4120 C   0  0  0  0  0  3  0  0  0  0  0  0
  195.2430  174.7610  146.0680 C   0  0  0  0  0  3  0  0  0  0  0  0
  194.1080  176.2220  142.8600 O   0  0  0  0  0  1  0  0  0  0  0  0
  194.9040  175.6150  143.8240 C   0  0  0  0  0  0  0  0  0  0  0  0
  196.1830  175.1740  143.4720 C   0  0  0  0  0  3  0  0  0  0  0  0
  196.5190  174.3200  145.7090 C   0  0  0  0  0  3  0  0  0  0  0  0
  190.0670  174.9630  143.5240 C   0  0  0  0  0  2  0  0  0  0  0  0
  190.4830  175.9350  142.6000 O   0  0  0  0  0  0  0  0  0  0  0  0
  191.1220  178.0920  143.1850 F   0  0  0  0  0  0  0  0  0  0  0  0
  190.0660  177.1980  143.0680 C   0  0  1  0  0  3  0  0  0  0  0  0
  188.9300  177.7730  142.2250 C   0  0  0  0  0  2  0  0  0  0  0  0
  186.6950  178.4530  142.2810 C   0  0  0  0  0  2  0  0  0  0  0  0
  187.8170  177.8940  144.2690 C   0  0  0  0  0  2  0  0  0  0  0  0
  184.8330  178.2220  144.0150 C   0  0  1  0  0  3  0  0  0  0  0  0
  187.6520  177.5250  142.8700 N   0  0  0  0  0  0  0  0  0  0  0  0
  185.5040  177.2880  144.9870 C   0  0  0  0  0  3  0  0  0  0  0  0
  186.8320  177.1440  145.1130 C   0  0  0  0  0  3  0  0  0  0  0  0
  184.9640  179.6750  144.4460 C   0  0  0  0  0  1  0  0  0  0  0  0
  185.2600  178.0040  142.5590 C   0  0  0  0  0  2  0  0  0  0  0  0
  1  7  1  1  0  0  0
  2  9  1  6  0  0  0
  2  1  1  0  0  0  0
  3  5  1  0  0  0  0
  5  7  1  0  0  0  0
  6 16  1  6  0  0  0
  6  8  1  0  0  0  0
  6  3  1  0  0  0  0
  8  4  1  6  0  0  0
  8  2  1  0  0  0  0
  8  1  1  0  0  0  0
  9 11  1  0  0  0  0
 10 15  1  0  0  0  0
 12 13  1  0  0  0  0
 13  9  2  0  0  0  0
 14 13  1  0  0  0  0
 14 10  2  0  0  0  0
 15 11  2  0  0  0  0
 17 19  1  0  0  0  0
 17 16  1  0  0  0  0
 19 18  1  6  0  0  0
 20 24  1  0  0  0  0
 20 19  1  0  0  0  0
 21 28  1  0  0  0  0
 21 24  1  0  0  0  0
 22 26  1  0  0  0  0
 23 27  1  1  0  0  0
 23 25  1  0  0  0  0
 24 22  1  0  0  0  0
 25 26  2  0  0  0  0
 28 23  1  0  0  0  0
M  END
>  <MODEL>
3

>  <REMARK>
 VINA RESULT:      -7.7      2.608      7.713
  Name = 
  6 active torsions:
  status: ('A' for Active; 'I' for Inactive)
    1  A    between atoms: C_2  and  C_3
    2  A    between atoms: C_5  and  O_20
    3  A    between atoms: C_5  and  C_21
    4  A    between atoms: C_10  and  N_13
    5  A    between atoms: C_10  and  C_25
    6  A    between atoms: O_20  and  C_25
                            x       y       z     vdW  Elec       q    Type
                         _______ _______ _______ _____ _____    ______ ____

>  <TORSDO>
F 6

$$$$
=
 OpenBabel11052418043D

 28 31  0  0  1  0  0  0  0  0999 V2000
  185.5470  177.6410  142.3650 C   0  0  1  0  0  3  0  0  0  0  0  0
  186.3420  178.5050  143.3510 C   0  0  2  0  0  3  0  0  0  0  0  0
  187.5700  176.6710  140.4730 C   0  0  0  0  0  2  0  0  0  0  0  0
  186.8410  176.0620  143.6690 O   0  0  0  0  0  1  0  0  0  0  0  0
  186.2650  177.3110  139.9660 C   0  0  0  0  0  2  0  0  0  0  0  0
  188.0450  177.2600  141.8020 C   0  0  1  0  0  3  0  0  0  0  0  0
  185.6120  178.2650  140.9720 C   0  0  0  0  0  2  0  0  0  0  0  0
  186.9200  177.1870  142.8410 C   0  0  1  0  0  0  0  0  0  0  0  0
  185.7790  178.4150  144.7470 C   0  0  0  0  0  0  0  0  0  0  0  0
  184.8200  178.3560  147.3850 C   0  0  0  0  0  3  0  0  0  0  0  0
  186.6310  178.0720  145.8070 C   0  0  0  0  0  3  0  0  0  0  0  0
  183.5850  179.1770  144.0120 O   0  0  0  0  0  1  0  0  0  0  0  0
  184.4440  178.7720  145.0270 C   0  0  0  0  0  0  0  0  0  0  0  0
  183.9700  178.7290  146.3420 C   0  0  0  0  0  3  0  0  0  0  0  0
  186.1530  178.0340  147.1180 C   0  0  0  0  0  3  0  0  0  0  0  0
  189.3000  176.5530  142.2890 C   0  0  0  0  0  2  0  0  0  0  0  0
  190.2680  177.4970  142.6670 O   0  0  0  0  0  0  0  0  0  0  0  0
  189.7350  178.2100  144.8140 F   0  0  0  0  0  0  0  0  0  0  0  0
  190.5130  177.3520  144.0470 C   0  0  1  0  0  3  0  0  0  0  0  0
  190.3690  175.9020  144.5040 C   0  0  0  0  0  2  0  0  0  0  0  0
  192.4090  176.6470  145.3670 C   0  0  0  0  0  2  0  0  0  0  0  0
  192.2830  174.6040  144.2100 C   0  0  0  0  0  2  0  0  0  0  0  0
  194.6220  175.4820  145.8930 C   0  0  1  0  0  3  0  0  0  0  0  0
  191.5880  175.4600  145.1610 N   0  0  0  0  0  0  0  0  0  0  0  0
  194.2080  174.0470  145.6970 C   0  0  0  0  0  3  0  0  0  0  0  0
  193.1740  173.6480  144.9410 C   0  0  0  0  0  3  0  0  0  0  0  0
  195.2920  176.0500  144.6510 C   0  0  0  0  0  1  0  0  0  0  0  0
  193.4940  176.3810  146.4110 C   0  0  0  0  0  2  0  0  0  0  0  0
  1  7  1  6  0  0  0
  1  8  1  0  0  0  0
  1  2  1  0  0  0  0
  2  9  1  1  0  0  0
  3  6  1  0  0  0  0
  5  3  1  0  0  0  0
  5  7  1  0  0  0  0
  6 16  1  1  0  0  0
  6  8  1  0  0  0  0
  8  2  1  0  0  0  0
  8  4  1  1  0  0  0
  9 13  2  0  0  0  0
  9 11  1  0  0  0  0
 11 15  2  0  0  0  0
 12 13  1  0  0  0  0
 13 14  1  0  0  0  0
 14 10  2  0  0  0  0
 15 10  1  0  0  0  0
 16 17  1  0  0  0  0
 17 19  1  0  0  0  0
 19 20  1  0  0  0  0
 19 18  1  1  0  0  0
 20 24  1  0  0  0  0
 21 28  1  0  0  0  0
 22 26  1  0  0  0  0
 22 24  1  0  0  0  0
 23 27  1  6  0  0  0
 23 28  1  0  0  0  0
 24 21  1  0  0  0  0
 25 23  1  0  0  0  0
 26 25  2  0  0  0  0
M  END
>  <MODEL>
4

>  <REMARK>
 VINA RESULT:      -7.5      1.779      4.344
  Name = 
  6 active torsions:
  status: ('A' for Active; 'I' for Inactive)
    1  A    between atoms: C_2  and  C_3
    2  A    between atoms: C_5  and  O_20
    3  A    between atoms: C_5  and  C_21
    4  A    between atoms: C_10  and  N_13
    5  A    between atoms: C_10  and  C_25
    6  A    between atoms: O_20  and  C_25
                            x       y       z     vdW  Elec       q    Type
                         _______ _______ _______ _____ _____    ______ ____

>  <TORSDO>
F 6

$$$$
=
 OpenBabel11052418043D

 28 31  0  0  1  0  0  0  0  0999 V2000
  190.9470  173.2050  144.2560 C   0  0  1  0  0  3  0  0  0  0  0  0
  190.7930  174.5890  144.8980 C   0  0  2  0  0  3  0  0  0  0  0  0
  188.7550  173.0740  142.3080 C   0  0  0  0  0  2  0  0  0  0  0  0
  191.6180  174.7670  142.5300 O   0  0  0  0  0  1  0  0  0  0  0  0
  188.9870  171.9250  143.3060 C   0  0  0  0  0  2  0  0  0  0  0  0
  189.1390  174.4420  142.8740 C   0  0  1  0  0  3  0  0  0  0  0  0
  189.7220  172.3510  144.5820 C   0  0  0  0  0  2  0  0  0  0  0  0
  190.5800  174.4080  143.3970 C   0  0  1  0  0  0  0  0  0  0  0  0
  192.1310  175.1900  145.2480 C   0  0  0  0  0  0  0  0  0  0  0  0
  194.6810  176.2300  145.7900 C   0  0  0  0  0  3  0  0  0  0  0  0
  193.1670  174.3480  145.6770 C   0  0  0  0  0  3  0  0  0  0  0  0
  191.4140  177.4160  144.5670 O   0  0  0  0  0  1  0  0  0  0  0  0
  192.3970  176.5600  145.0500 C   0  0  0  0  0  0  0  0  0  0  0  0
  193.6660  177.0730  145.3340 C   0  0  0  0  0  3  0  0  0  0  0  0
  194.4330  174.8660  145.9570 C   0  0  0  0  0  3  0  0  0  0  0  0
  188.9500  175.5320  141.8320 C   0  0  0  0  0  2  0  0  0  0  0  0
  187.5850  175.8280  141.6890 O   0  0  0  0  0  0  0  0  0  0  0  0
  187.4880  178.1320  141.3930 F   0  0  0  0  0  0  0  0  0  0  0  0
  187.3390  177.0800  142.2880 C   0  0  1  0  0  3  0  0  0  0  0  0
  185.9820  177.1230  142.9860 C   0  0  0  0  0  2  0  0  0  0  0  0
  185.1350  177.5690  145.1190 C   0  0  0  0  0  2  0  0  0  0  0  0
  187.4450  177.2750  144.7940 C   0  0  0  0  0  2  0  0  0  0  0  0
  186.0730  177.2720  147.4770 C   0  0  1  0  0  3  0  0  0  0  0  0
  186.1310  176.7900  144.3930 N   0  0  0  0  0  0  0  0  0  0  0  0
  187.3180  176.4860  147.1590 C   0  0  0  0  0  3  0  0  0  0  0  0
  187.9400  176.4900  145.9700 C   0  0  0  0  0  3  0  0  0  0  0  0
  186.3660  178.7590  147.6190 C   0  0  0  0  0  1  0  0  0  0  0  0
  184.9100  176.9940  146.5180 C   0  0  0  0  0  2  0  0  0  0  0  0
  1  7  1  1  0  0  0
  1  2  1  0  0  0  0
  2  9  1  6  0  0  0
  3  6  1  0  0  0  0
  3  5  1  0  0  0  0
  5  7  1  0  0  0  0
  6 16  1  6  0  0  0
  6  8  1  0  0  0  0
  8  4  1  6  0  0  0
  8  1  1  0  0  0  0
  8  2  1  0  0  0  0
  9 11  1  0  0  0  0
 10 15  1  0  0  0  0
 11 15  2  0  0  0  0
 12 13  1  0  0  0  0
 13  9  2  0  0  0  0
 13 14  1  0  0  0  0
 14 10  2  0  0  0  0
 17 16  1  0  0  0  0
 17 19  1  0  0  0  0
 19 18  1  6  0  0  0
 19 20  1  0  0  0  0
 20 24  1  0  0  0  0
 21 28  1  0  0  0  0
 22 26  1  0  0  0  0
 23 27  1  6  0  0  0
 24 22  1  0  0  0  0
 24 21  1  0  0  0  0
 25 23  1  0  0  0  0
 26 25  2  0  0  0  0
 28 23  1  0  0  0  0
M  END
>  <MODEL>
5

>  <REMARK>
 VINA RESULT:      -7.5      2.601      7.123
  Name = 
  6 active torsions:
  status: ('A' for Active; 'I' for Inactive)
    1  A    between atoms: C_2  and  C_3
    2  A    between atoms: C_5  and  O_20
    3  A    between atoms: C_5  and  C_21
    4  A    between atoms: C_10  and  N_13
    5  A    between atoms: C_10  and  C_25
    6  A    between atoms: O_20  and  C_25
                            x       y       z     vdW  Elec       q    Type
                         _______ _______ _______ _____ _____    ______ ____

>  <TORSDO>
F 6

$$$$
=
 OpenBabel11052418043D

 28 31  0  0  1  0  0  0  0  0999 V2000
  184.5960  177.8380  142.9140 C   0  0  1  0  0  3  0  0  0  0  0  0
  185.7560  178.4720  143.6920 C   0  0  2  0  0  3  0  0  0  0  0  0
  185.6390  177.5450  140.1870 C   0  0  0  0  0  2  0  0  0  0  0  0
  186.2450  176.0750  143.1170 O   0  0  0  0  0  1  0  0  0  0  0  0
  184.2670  178.1970  140.4360 C   0  0  0  0  0  2  0  0  0  0  0  0
  186.6350  177.8020  141.3190 C   0  0  1  0  0  3  0  0  0  0  0  0
  184.1150  178.8060  141.8340 C   0  0  0  0  0  2  0  0  0  0  0  0
  186.0250  177.3790  142.6610 C   0  0  1  0  0  0  0  0  0  0  0  0
  185.8040  177.9810  145.1160 C   0  0  0  0  0  0  0  0  0  0  0  0
  186.0100  177.1550  147.7910 C   0  0  0  0  0  3  0  0  0  0  0  0
  186.9370  177.2860  145.5620 C   0  0  0  0  0  3  0  0  0  0  0  0
  183.6770  179.0410  145.6510 O   0  0  0  0  0  1  0  0  0  0  0  0
  184.7870  178.3000  146.0400 C   0  0  0  0  0  0  0  0  0  0  0  0
  184.8900  177.8730  147.3670 C   0  0  0  0  0  3  0  0  0  0  0  0
  187.0360  176.8660  146.8900 C   0  0  0  0  0  3  0  0  0  0  0  0
  187.9510  177.0880  141.0540 C   0  0  0  0  0  2  0  0  0  0  0  0
  188.8950  177.4420  142.0310 O   0  0  0  0  0  0  0  0  0  0  0  0
  189.2520  175.1710  141.6870 F   0  0  0  0  0  0  0  0  0  0  0  0
  189.5000  176.2630  142.5100 C   0  0  1  0  0  3  0  0  0  0  0  0
  190.9940  176.4490  142.7630 C   0  0  0  0  0  2  0  0  0  0  0  0
  190.1560  175.8680  144.8660 C   0  0  0  0  0  2  0  0  0  0  0  0
  192.3080  176.7900  144.6570 C   0  0  0  0  0  2  0  0  0  0  0  0
  191.2510  175.4410  147.1350 C   0  0  1  0  0  3  0  0  0  0  0  0
  191.3600  175.8700  144.0450 N   0  0  0  0  0  0  0  0  0  0  0  0
  192.7010  175.4460  146.7230 C   0  0  0  0  0  3  0  0  0  0  0  0
  193.1800  176.0530  145.6280 C   0  0  0  0  0  3  0  0  0  0  0  0
  190.8140  176.7930  147.6760 C   0  0  0  0  0  1  0  0  0  0  0  0
  190.3070  174.9110  146.0490 C   0  0  0  0  0  2  0  0  0  0  0  0
  1  7  1  6  0  0  0
  1  2  1  0  0  0  0
  2  9  1  1  0  0  0
  3  5  1  0  0  0  0
  3  6  1  0  0  0  0
  5  7  1  0  0  0  0
  6 16  1  6  0  0  0
  6  8  1  0  0  0  0
  8  1  1  0  0  0  0
  8  4  1  1  0  0  0
  8  2  1  0  0  0  0
  9 11  2  0  0  0  0
  9 13  1  0  0  0  0
 11 15  1  0  0  0  0
 12 13  1  0  0  0  0
 13 14  2  0  0  0  0
 14 10  1  0  0  0  0
 15 10  2  0  0  0  0
 16 17  1  0  0  0  0
 17 19  1  0  0  0  0
 19 18  1  6  0  0  0
 19 20  1  0  0  0  0
 20 24  1  0  0  0  0
 21 28  1  0  0  0  0
 22 26  1  0  0  0  0
 23 27  1  6  0  0  0
 24 22  1  0  0  0  0
 24 21  1  0  0  0  0
 25 23  1  0  0  0  0
 26 25  2  0  0  0  0
 28 23  1  0  0  0  0
M  END
>  <MODEL>
6

>  <REMARK>
 VINA RESULT:      -7.5      1.744      4.555
  Name = 
  6 active torsions:
  status: ('A' for Active; 'I' for Inactive)
    1  A    between atoms: C_2  and  C_3
    2  A    between atoms: C_5  and  O_20
    3  A    between atoms: C_5  and  C_21
    4  A    between atoms: C_10  and  N_13
    5  A    between atoms: C_10  and  C_25
    6  A    between atoms: O_20  and  C_25
                            x       y       z     vdW  Elec       q    Type
                         _______ _______ _______ _____ _____    ______ ____

>  <TORSDO>
F 6

$$$$
=
 OpenBabel11052418043D

 28 31  0  0  1  0  0  0  0  0999 V2000
  188.8970  176.6310  146.4000 C   0  0  1  0  0  3  0  0  0  0  0  0
  188.3260  176.3430  145.0060 C   0  0  2  0  0  3  0  0  0  0  0  0
  191.6640  175.6620  146.2520 C   0  0  0  0  0  2  0  0  0  0  0  0
  189.9870  178.2280  144.9400 O   0  0  0  0  0  1  0  0  0  0  0  0
  190.7490  175.2480  147.4190 C   0  0  0  0  0  2  0  0  0  0  0  0
  190.9010  175.8760  144.9430 C   0  0  1  0  0  3  0  0  0  0  0  0
  189.2540  175.3140  147.0870 C   0  0  0  0  0  2  0  0  0  0  0  0
  189.7510  176.8670  145.1610 C   0  0  1  0  0  0  0  0  0  0  0  0
  187.3390  177.4010  144.5810 C   0  0  0  0  0  0  0  0  0  0  0  0
  185.5820  179.4700  143.8630 C   0  0  0  0  0  3  0  0  0  0  0  0
  186.6100  178.0890  145.5620 C   0  0  0  0  0  3  0  0  0  0  0  0
  187.9630  177.1750  142.2370 O   0  0  0  0  0  1  0  0  0  0  0  0
  187.2120  177.7900  143.2320 C   0  0  0  0  0  0  0  0  0  0  0  0
  186.3260  178.8130  142.8800 C   0  0  0  0  0  3  0  0  0  0  0  0
  185.7290  179.1110  145.2050 C   0  0  0  0  0  3  0  0  0  0  0  0
  191.8380  176.3420  143.8400 C   0  0  0  0  0  2  0  0  0  0  0  0
  193.1140  176.5950  144.3690 O   0  0  0  0  0  0  0  0  0  0  0  0
  194.0360  176.3810  142.2460 F   0  0  0  0  0  0  0  0  0  0  0  0
  194.0650  175.9390  143.5630 C   0  0  1  0  0  3  0  0  0  0  0  0
  195.4700  176.0220  144.1540 C   0  0  0  0  0  2  0  0  0  0  0  0
  195.0540  173.7510  143.7890 C   0  0  0  0  0  2  0  0  0  0  0  0
  195.9470  174.4810  145.8370 C   0  0  0  0  0  2  0  0  0  0  0  0
  195.8740  171.6120  144.9210 C   0  0  1  0  0  3  0  0  0  0  0  0
  195.9920  174.6870  144.3960 N   0  0  0  0  0  0  0  0  0  0  0  0
  196.9370  172.1900  145.8190 C   0  0  0  0  0  3  0  0  0  0  0  0
  196.9700  173.4640  146.2390 C   0  0  0  0  0  3  0  0  0  0  0  0
  194.5570  171.4190  145.6580 C   0  0  0  0  0  1  0  0  0  0  0  0
  195.7000  172.3780  143.6040 C   0  0  0  0  0  2  0  0  0  0  0  0
  1  7  1  1  0  0  0
  2  9  1  6  0  0  0
  2  8  1  0  0  0  0
  2  1  1  0  0  0  0
  3  5  1  0  0  0  0
  6 16  1  6  0  0  0
  6  8  1  0  0  0  0
  6  3  1  0  0  0  0
  7  5  1  0  0  0  0
  8  4  1  6  0  0  0
  8  1  1  0  0  0  0
  9 11  1  0  0  0  0
 10 15  1  0  0  0  0
 12 13  1  0  0  0  0
 13  9  2  0  0  0  0
 14 13  1  0  0  0  0
 14 10  2  0  0  0  0
 15 11  2  0  0  0  0
 16 17  1  0  0  0  0
 19 18  1  6  0  0  0
 19 20  1  0  0  0  0
 19 17  1  0  0  0  0
 20 24  1  0  0  0  0
 21 24  1  0  0  0  0
 22 26  1  0  0  0  0
 23 27  1  1  0  0  0
 23 25  1  0  0  0  0
 24 22  1  0  0  0  0
 25 26  2  0  0  0  0
 28 21  1  0  0  0  0
 28 23  1  0  0  0  0
M  END
>  <MODEL>
7

>  <REMARK>
 VINA RESULT:      -7.3      2.810      4.635
  Name = 
  6 active torsions:
  status: ('A' for Active; 'I' for Inactive)
    1  A    between atoms: C_2  and  C_3
    2  A    between atoms: C_5  and  O_20
    3  A    between atoms: C_5  and  C_21
    4  A    between atoms: C_10  and  N_13
    5  A    between atoms: C_10  and  C_25
    6  A    between atoms: O_20  and  C_25
                            x       y       z     vdW  Elec       q    Type
                         _______ _______ _______ _____ _____    ______ ____

>  <TORSDO>
F 6

$$$$
=
 OpenBabel11052418043D

 28 31  0  0  1  0  0  0  0  0999 V2000
  191.0830  174.3690  142.8950 C   0  0  1  0  0  3  0  0  0  0  0  0
  190.3530  174.0760  144.2110 C   0  0  2  0  0  3  0  0  0  0  0  0
  188.9480  174.3970  140.8820 C   0  0  0  0  0  2  0  0  0  0  0  0
  189.8570  176.3990  143.3880 O   0  0  0  0  0  1  0  0  0  0  0  0
  190.2250  173.5680  140.6590 C   0  0  0  0  0  2  0  0  0  0  0  0
  188.5540  174.5000  142.3560 C   0  0  1  0  0  3  0  0  0  0  0  0
  190.9420  173.1730  141.9540 C   0  0  0  0  0  2  0  0  0  0  0  0
  189.7370  175.0200  143.1810 C   0  0  1  0  0  0  0  0  0  0  0  0
  190.9950  174.7900  145.3730 C   0  0  0  0  0  0  0  0  0  0  0  0
  192.1850  176.2420  147.4600 C   0  0  0  0  0  3  0  0  0  0  0  0
  192.2520  175.3870  145.1990 C   0  0  0  0  0  3  0  0  0  0  0  0
  189.0420  174.4410  146.7870 O   0  0  0  0  0  1  0  0  0  0  0  0
  190.3150  174.9650  146.5970 C   0  0  0  0  0  0  0  0  0  0  0  0
  190.9200  175.6790  147.6350 C   0  0  0  0  0  3  0  0  0  0  0  0
  192.8490  176.1010  146.2390 C   0  0  0  0  0  3  0  0  0  0  0  0
  187.3250  175.3770  142.5280 C   0  0  0  0  0  2  0  0  0  0  0  0
  187.3850  176.4680  141.6460 O   0  0  0  0  0  0  0  0  0  0  0  0
  185.1910  176.7700  142.3520 F   0  0  0  0  0  0  0  0  0  0  0  0
  186.3870  177.3910  142.0150 C   0  0  1  0  0  3  0  0  0  0  0  0
  186.8610  178.3350  143.1170 C   0  0  0  0  0  2  0  0  0  0  0  0
  185.5950  179.2420  144.8600 C   0  0  0  0  0  2  0  0  0  0  0  0
  187.2580  177.6420  145.3070 C   0  0  0  0  0  2  0  0  0  0  0  0
  185.1350  178.5050  147.2630 C   0  0  1  0  0  3  0  0  0  0  0  0
  186.2040  178.0110  144.3720 N   0  0  0  0  0  0  0  0  0  0  0  0
  185.7520  177.1310  147.2310 C   0  0  0  0  0  3  0  0  0  0  0  0
  186.7040  176.7430  146.3690 C   0  0  0  0  0  3  0  0  0  0  0  0
  186.0930  179.5400  147.8330 C   0  0  0  0  0  1  0  0  0  0  0  0
  184.5360  178.9400  145.9210 C   0  0  0  0  0  2  0  0  0  0  0  0
  1  7  1  6  0  0  0
  1  8  1  0  0  0  0
  1  2  1  0  0  0  0
  2  9  1  1  0  0  0
  3  6  1  0  0  0  0
  5  3  1  0  0  0  0
  5  7  1  0  0  0  0
  6 16  1  6  0  0  0
  6  8  1  0  0  0  0
  8  4  1  1  0  0  0
  8  2  1  0  0  0  0
  9 13  1  0  0  0  0
 10 14  1  0  0  0  0
 11  9  2  0  0  0  0
 11 15  1  0  0  0  0
 13 12  1  0  0  0  0
 13 14  2  0  0  0  0
 15 10  2  0  0  0  0
 17 19  1  0  0  0  0
 17 16  1  0  0  0  0
 19 18  1  1  0  0  0
 19 20  1  0  0  0  0
 20 24  1  0  0  0  0
 21 28  1  0  0  0  0
 22 26  1  0  0  0  0
 23 27  1  6  0  0  0
 24 21  1  0  0  0  0
 24 22  1  0  0  0  0
 25 23  1  0  0  0  0
 26 25  2  0  0  0  0
 28 23  1  0  0  0  0
M  END
>  <MODEL>
8

>  <REMARK>
 VINA RESULT:      -7.3      2.489      7.194
  Name = 
  6 active torsions:
  status: ('A' for Active; 'I' for Inactive)
    1  A    between atoms: C_2  and  C_3
    2  A    between atoms: C_5  and  O_20
    3  A    between atoms: C_5  and  C_21
    4  A    between atoms: C_10  and  N_13
    5  A    between atoms: C_10  and  C_25
    6  A    between atoms: O_20  and  C_25
                            x       y       z     vdW  Elec       q    Type
                         _______ _______ _______ _____ _____    ______ ____

>  <TORSDO>
F 6

$$$$
=
 OpenBabel11052418043D

 28 31  0  0  1  0  0  0  0  0999 V2000
  188.7290  176.2290  146.3670 C   0  0  1  0  0  3  0  0  0  0  0  0
  188.6040  176.0900  144.8450 C   0  0  2  0  0  3  0  0  0  0  0  0
  191.6080  175.9710  146.8740 C   0  0  0  0  0  2  0  0  0  0  0  0
  189.6540  178.2840  145.4790 O   0  0  0  0  0  1  0  0  0  0  0  0
  190.5920  175.1410  147.6800 C   0  0  0  0  0  2  0  0  0  0  0  0
  191.1470  176.2500  145.4420 C   0  0  1  0  0  3  0  0  0  0  0  0
  189.2580  174.9230  146.9580 C   0  0  0  0  0  2  0  0  0  0  0  0
  189.7530  176.8880  145.4540 C   0  0  1  0  0  0  0  0  0  0  0  0
  187.4950  176.9530  144.2980 C   0  0  0  0  0  0  0  0  0  0  0  0
  185.4580  178.6570  143.3870 C   0  0  0  0  0  3  0  0  0  0  0  0
  186.3790  177.2240  145.1030 C   0  0  0  0  0  3  0  0  0  0  0  0
  188.7230  177.3880  142.2400 O   0  0  0  0  0  1  0  0  0  0  0  0
  187.6030  177.5820  143.0410 C   0  0  0  0  0  0  0  0  0  0  0  0
  186.5790  178.4200  142.5880 C   0  0  0  0  0  3  0  0  0  0  0  0
  185.3610  178.0630  144.6470 C   0  0  0  0  0  3  0  0  0  0  0  0
  192.1540  177.1220  144.7100 C   0  0  0  0  0  2  0  0  0  0  0  0
  191.9530  177.0280  143.3240 O   0  0  0  0  0  0  0  0  0  0  0  0
  194.0290  176.0540  143.7080 F   0  0  0  0  0  0  0  0  0  0  0  0
  193.0850  176.4100  142.7530 C   0  0  1  0  0  3  0  0  0  0  0  0
  192.7050  175.2260  141.8680 C   0  0  0  0  0  2  0  0  0  0  0  0
  191.8720  173.4250  143.1030 C   0  0  0  0  0  2  0  0  0  0  0  0
  190.7490  174.1640  141.1760 C   0  0  0  0  0  2  0  0  0  0  0  0
  189.5870  172.2880  143.2270 C   0  0  1  0  0  3  0  0  0  0  0  0
  191.4800  174.6110  142.3530 N   0  0  0  0  0  0  0  0  0  0  0  0
  188.7760  173.2570  142.4060 C   0  0  0  0  0  3  0  0  0  0  0  0
  189.2850  174.0870  141.4840 C   0  0  0  0  0  3  0  0  0  0  0  0
  190.0580  171.1030  142.3970 C   0  0  0  0  0  1  0  0  0  0  0  0
  190.7310  172.9500  144.0030 C   0  0  0  0  0  2  0  0  0  0  0  0
  1  7  1  1  0  0  0
  2  9  1  6  0  0  0
  2  8  1  0  0  0  0
  2  1  1  0  0  0  0
  3  5  1  0  0  0  0
  6 16  1  1  0  0  0
  6  8  1  0  0  0  0
  6  3  1  0  0  0  0
  7  5  1  0  0  0  0
  8  4  1  6  0  0  0
  8  1  1  0  0  0  0
  9 11  1  0  0  0  0
 10 15  1  0  0  0  0
 12 13  1  0  0  0  0
 13  9  2  0  0  0  0
 14 13  1  0  0  0  0
 14 10  2  0  0  0  0
 15 11  2  0  0  0  0
 17 16  1  0  0  0  0
 19 17  1  0  0  0  0
 19 18  1  1  0  0  0
 20 24  1  0  0  0  0
 20 19  1  0  0  0  0
 21 28  1  0  0  0  0
 22 26  1  0  0  0  0
 22 24  1  0  0  0  0
 23 27  1  6  0  0  0
 23 28  1  0  0  0  0
 24 21  1  0  0  0  0
 25 23  1  0  0  0  0
 26 25  2  0  0  0  0
M  END
>  <MODEL>
9

>  <REMARK>
 VINA RESULT:      -7.2      2.691      4.643
  Name = 
  6 active torsions:
  status: ('A' for Active; 'I' for Inactive)
    1  A    between atoms: C_2  and  C_3
    2  A    between atoms: C_5  and  O_20
    3  A    between atoms: C_5  and  C_21
    4  A    between atoms: C_10  and  N_13
    5  A    between atoms: C_10  and  C_25
    6  A    between atoms: O_20  and  C_25
                            x       y       z     vdW  Elec       q    Type
                         _______ _______ _______ _____ _____    ______ ____

>  <TORSDO>
F 6

$$$$
