=
 OpenBabel11052420393D

 34 40  0  0  1  0  0  0  0  0999 V2000
  196.2450  170.6810  146.1630 C   0  0  2  0  0  3  0  0  0  0  0  0
  194.5040  175.3250  143.9410 C   0  0  0  0  0  2  0  0  0  0  0  0
  190.1300  173.9710  142.9770 C   0  0  2  0  0  3  0  0  0  0  0  0
  195.0460  172.7060  144.4430 C   0  0  1  0  0  0  0  0  0  0  0  0
  197.1420  169.6460  146.4240 O   0  0  0  0  0  1  0  0  0  0  0  0
  195.3310  170.2800  145.0070 C   0  0  0  0  0  2  0  0  0  0  0  0
  197.0200  171.9490  145.8150 C   0  0  0  0  0  2  0  0  0  0  0  0
  196.0590  173.1040  145.5470 C   0  0  1  0  0  3  0  0  0  0  0  0
  192.5200  174.8290  142.6530 C   0  0  2  0  0  3  0  0  0  0  0  0
  196.7810  174.2660  145.2750 O   0  0  0  0  0  1  0  0  0  0  0  0
  195.2550  173.0650  142.9570 C   0  0  0  0  0  0  0  0  0  0  0  0
  194.3170  171.3830  144.7170 C   0  0  0  0  0  2  0  0  0  0  0  0
  196.5530  173.7680  142.5760 C   0  0  0  0  0  1  0  0  0  0  0  0
  194.7100  172.0820  141.9250 C   0  0  0  0  0  1  0  0  0  0  0  0
  193.3200  175.9830  143.2620 C   0  0  0  0  0  2  0  0  0  0  0  0
  190.5170  173.4970  144.3890 C   0  0  2  0  0  3  0  0  0  0  0  0
  190.0710  172.8760  142.1150 O   0  0  0  0  0  1  0  0  0  0  0  0
  191.2820  174.5430  145.1900 C   0  0  0  0  0  2  0  0  0  0  0  0
  191.0210  175.0610  142.3720 C   0  0  2  0  0  3  0  0  0  0  0  0
  194.2120  173.8370  143.8060 C   0  0  2  0  0  0  0  0  0  0  0  0
  192.0210  173.3380  144.6110 C   0  0  2  0  0  3  0  0  0  0  0  0
  192.8320  173.5910  143.3880 N   0  0  1  0  0  0  0  0  0  0  0  0
  190.5240  176.4550  142.7450 C   0  0  0  0  0  2  0  0  0  0  0  0
  188.7370  177.9330  142.3510 C   0  0  0  0  0  2  0  0  0  0  0  0
  189.0730  176.5190  142.6250 N   0  0  0  0  0  0  0  0  0  0  0  0
  189.3530  177.9060  144.6590 O   0  0  0  0  0  1  0  0  0  0  0  0
  188.5000  177.3870  143.6750 C   0  0  1  0  0  0  0  0  0  0  0  0
  187.1350  177.2040  143.9670 O   0  0  0  0  0  0  0  0  0  0  0  0
  186.3120  177.7480  146.2720 C   0  0  0  0  0  2  0  0  0  0  0  0
  183.9740  178.6400  146.0760 C   0  0  0  0  0  2  0  0  0  0  0  0
  186.6680  178.2020  144.8540 C   0  0  2  0  0  3  0  0  0  0  0  0
  185.6890  179.5790  144.1340 S   0  0  0  0  0  0  0  0  0  0  0  0
  184.0600  178.8990  144.5830 C   0  0  0  0  0  2  0  0  0  0  0  0
  184.8300  177.4370  146.4370 C   0  0  0  0  0  2  0  0  0  0  0  0
  1  5  1  6  0  0  0
  3 17  1  6  0  0  0
  3 16  1  0  0  0  0
  4 12  1  1  0  0  0
  4  8  1  0  0  0  0
  6  1  1  0  0  0  0
  7  1  1  0  0  0  0
  8 10  1  6  0  0  0
  8  7  1  0  0  0  0
  9 15  1  1  0  0  0
  9 22  1  0  0  0  0
 11 20  1  0  0  0  0
 11  4  1  0  0  0  0
 12  6  1  0  0  0  0
 13 11  1  0  0  0  0
 14 11  1  0  0  0  0
 15  2  1  0  0  0  0
 16 21  1  0  0  0  0
 16 18  1  1  0  0  0
 19  9  1  0  0  0  0
 19 23  1  1  0  0  0
 19  3  1  0  0  0  0
 20  2  1  1  0  0  0
 20  4  1  0  0  0  0
 21 18  1  1  0  0  0
 22 20  1  0  0  0  0
 22 21  1  0  0  0  0
 24 25  1  0  0  0  0
 24 27  1  0  0  0  0
 25 23  1  0  0  0  0
 25 27  1  0  0  0  0
 27 28  1  0  0  0  0
 27 26  1  0  0  0  0
 28 31  1  0  0  0  0
 29 34  1  0  0  0  0
 30 34  1  0  0  0  0
 31 29  1  0  0  0  0
 32 33  1  0  0  0  0
 32 31  1  0  0  0  0
 33 30  1  0  0  0  0
M  END
>  <MODEL>
1

>  <REMARK>
 VINA RESULT:      -7.9      0.000      0.000
  Name = 
  4 active torsions:
  status: ('A' for Active; 'I' for Inactive)
    1  A    between atoms: C_3  and  N_18
    2  A    between atoms: C_3  and  C_31
    3  A    between atoms: C_14  and  O_16
    4  A    between atoms: O_16  and  C_28
                            x       y       z     vdW  Elec       q    Type
                         _______ _______ _______ _____ _____    ______ ____

>  <TORSDO>
F 4

$$$$
=
 OpenBabel11052420393D

 34 40  0  0  1  0  0  0  0  0999 V2000
  196.9960  172.2600  141.6600 C   0  0  2  0  0  3  0  0  0  0  0  0
  194.8710  175.8550  145.1380 C   0  0  0  0  0  2  0  0  0  0  0  0
  190.4330  175.6090  143.6780 C   0  0  2  0  0  3  0  0  0  0  0  0
  195.5290  174.4520  142.9010 C   0  0  1  0  0  0  0  0  0  0  0  0
  197.9410  171.7430  140.7750 O   0  0  0  0  0  1  0  0  0  0  0  0
  195.9370  173.0330  140.8760 C   0  0  0  0  0  2  0  0  0  0  0  0
  197.6900  173.1770  142.6640 C   0  0  0  0  0  2  0  0  0  0  0  0
  196.6790  173.7390  143.6590 C   0  0  1  0  0  3  0  0  0  0  0  0
  192.7360  176.5650  144.2550 C   0  0  2  0  0  3  0  0  0  0  0  0
  197.3330  174.5380  144.5970 O   0  0  0  0  0  1  0  0  0  0  0  0
  195.5210  175.9740  142.6480 C   0  0  0  0  0  0  0  0  0  0  0  0
  194.8720  173.5880  141.8160 C   0  0  0  0  0  2  0  0  0  0  0  0
  196.7390  176.7720  143.1000 C   0  0  0  0  0  1  0  0  0  0  0  0
  194.8570  176.4570  141.3620 C   0  0  0  0  0  1  0  0  0  0  0  0
  193.5910  176.5680  145.5250 C   0  0  0  0  0  2  0  0  0  0  0  0
  191.0220  174.1910  143.7750 C   0  0  2  0  0  3  0  0  0  0  0  0
  190.2740  175.9610  142.3380 O   0  0  0  0  0  1  0  0  0  0  0  0
  191.8710  173.9730  145.0210 C   0  0  0  0  0  2  0  0  0  0  0  0
  191.2090  176.7060  144.4150 C   0  0  2  0  0  3  0  0  0  0  0  0
  194.5930  175.3590  143.7270 C   0  0  2  0  0  0  0  0  0  0  0  0
  192.5450  174.1330  143.6600 C   0  0  2  0  0  3  0  0  0  0  0  0
  193.1720  175.4560  143.3880 N   0  0  1  0  0  0  0  0  0  0  0  0
  190.7420  176.8410  145.8620 C   0  0  0  0  0  2  0  0  0  0  0  0
  189.0300  177.5080  147.3300 C   0  0  0  0  0  2  0  0  0  0  0  0
  189.3700  177.3320  145.9020 N   0  0  0  0  0  0  0  0  0  0  0  0
  189.0280  175.1410  147.0070 O   0  0  0  0  0  1  0  0  0  0  0  0
  188.4930  176.3720  146.6050 C   0  0  1  0  0  0  0  0  0  0  0  0
  187.1120  176.4760  146.3470 O   0  0  0  0  0  0  0  0  0  0  0  0
  185.8480  178.5690  146.9000 C   0  0  0  0  0  2  0  0  0  0  0  0
  184.1560  178.9620  145.0880 C   0  0  0  0  0  2  0  0  0  0  0  0
  186.7680  177.7910  145.9550 C   0  0  2  0  0  3  0  0  0  0  0  0
  186.6100  178.1200  144.1560 S   0  0  0  0  0  0  0  0  0  0  0  0
  184.7930  177.9950  144.1060 C   0  0  0  0  0  2  0  0  0  0  0  0
  184.3800  178.4690  146.5080 C   0  0  0  0  0  2  0  0  0  0  0  0
  1  5  1  6  0  0  0
  1  7  1  0  0  0  0
  2 15  1  0  0  0  0
  3 17  1  6  0  0  0
  3 16  1  0  0  0  0
  3 19  1  0  0  0  0
  4 12  1  6  0  0  0
  4  8  1  0  0  0  0
  4 20  1  0  0  0  0
  6  1  1  0  0  0  0
  6 12  1  0  0  0  0
  7  8  1  0  0  0  0
  8 10  1  1  0  0  0
  9 19  1  0  0  0  0
  9 15  1  1  0  0  0
 11  4  1  0  0  0  0
 11 13  1  0  0  0  0
 11 20  1  0  0  0  0
 14 11  1  0  0  0  0
 16 18  1  1  0  0  0
 19 23  1  1  0  0  0
 20  2  1  1  0  0  0
 21 16  1  0  0  0  0
 21 18  1  1  0  0  0
 22 21  1  0  0  0  0
 22 20  1  0  0  0  0
 22  9  1  0  0  0  0
 23 25  1  0  0  0  0
 25 27  1  0  0  0  0
 25 24  1  0  0  0  0
 27 26  1  0  0  0  0
 27 24  1  0  0  0  0
 28 27  1  0  0  0  0
 30 34  1  0  0  0  0
 31 28  1  0  0  0  0
 31 29  1  0  0  0  0
 32 31  1  0  0  0  0
 33 32  1  0  0  0  0
 33 30  1  0  0  0  0
 34 29  1  0  0  0  0
M  END
>  <MODEL>
2

>  <REMARK>
 VINA RESULT:      -7.8      2.243      2.904
  Name = 
  4 active torsions:
  status: ('A' for Active; 'I' for Inactive)
    1  A    between atoms: C_3  and  N_18
    2  A    between atoms: C_3  and  C_31
    3  A    between atoms: C_14  and  O_16
    4  A    between atoms: O_16  and  C_28
                            x       y       z     vdW  Elec       q    Type
                         _______ _______ _______ _____ _____    ______ ____

>  <TORSDO>
F 4

$$$$
=
 OpenBabel11052420393D

 34 40  0  0  1  0  0  0  0  0999 V2000
  185.6320  177.2440  145.8300 C   0  0  2  0  0  3  0  0  0  0  0  0
  188.8220  175.2720  141.8970 C   0  0  0  0  0  2  0  0  0  0  0  0
  192.0970  173.3550  144.6330 C   0  0  2  0  0  3  0  0  0  0  0  0
  187.8850  176.5050  144.1340 C   0  0  1  0  0  0  0  0  0  0  0  0
  184.8030  178.1730  146.4580 O   0  0  0  0  0  1  0  0  0  0  0  0
  187.0680  177.4380  146.3120 C   0  0  0  0  0  2  0  0  0  0  0  0
  185.5480  177.4320  144.3170 C   0  0  0  0  0  2  0  0  0  0  0  0
  186.4310  176.4110  143.6040 C   0  0  1  0  0  3  0  0  0  0  0  0
  190.9950  174.8350  142.8580 C   0  0  2  0  0  3  0  0  0  0  0  0
  186.3100  176.5640  142.2230 O   0  0  0  0  0  1  0  0  0  0  0  0
  188.9730  177.3390  143.4280 C   0  0  0  0  0  0  0  0  0  0  0  0
  187.9950  176.4150  145.6620 C   0  0  0  0  0  2  0  0  0  0  0  0
  188.5580  178.1560  142.2090 C   0  0  0  0  0  1  0  0  0  0  0  0
  190.0420  177.9730  144.3130 C   0  0  0  0  0  1  0  0  0  0  0  0
  190.1250  174.5450  141.6330 C   0  0  0  0  0  2  0  0  0  0  0  0
  190.7020  173.0290  145.1930 C   0  0  2  0  0  3  0  0  0  0  0  0
  192.7320  174.2800  145.4620 O   0  0  0  0  0  1  0  0  0  0  0  0
  189.6910  172.6520  144.1180 C   0  0  0  0  0  2  0  0  0  0  0  0
  192.1350  173.8470  143.1820 C   0  0  2  0  0  3  0  0  0  0  0  0
  188.9830  175.7930  143.3170 C   0  0  2  0  0  0  0  0  0  0  0  0
  189.6130  174.0220  144.7900 C   0  0  2  0  0  3  0  0  0  0  0  0
  190.1230  175.1730  143.9960 N   0  0  1  0  0  0  0  0  0  0  0  0
  192.2480  172.6810  142.2030 C   0  0  0  0  0  2  0  0  0  0  0  0
  193.5610  170.9120  141.3790 C   0  0  0  0  0  2  0  0  0  0  0  0
  193.5270  172.0030  142.3760 N   0  0  0  0  0  0  0  0  0  0  0  0
  192.0170  170.1540  143.0370 O   0  0  0  0  0  1  0  0  0  0  0  0
  193.3210  170.5950  142.7750 C   0  0  1  0  0  0  0  0  0  0  0  0
  194.4080  169.9520  143.3960 O   0  0  0  0  0  0  0  0  0  0  0  0
  194.9280  171.0210  145.6030 C   0  0  0  0  0  2  0  0  0  0  0  0
  196.1910  169.3600  146.9980 C   0  0  0  0  0  2  0  0  0  0  0  0
  194.2400  169.9140  144.8000 C   0  0  2  0  0  3  0  0  0  0  0  0
  194.0940  168.2620  145.5870 S   0  0  0  0  0  0  0  0  0  0  0  0
  195.8290  168.1660  146.1350 C   0  0  0  0  0  2  0  0  0  0  0  0
  196.2940  170.6050  146.1320 C   0  0  0  0  0  2  0  0  0  0  0  0
  1  6  1  0  0  0  0
  1  5  1  1  0  0  0
  3 16  1  0  0  0  0
  3 17  1  1  0  0  0
  4 12  1  1  0  0  0
  7  1  1  0  0  0  0
  8 10  1  6  0  0  0
  8  4  1  0  0  0  0
  8  7  1  0  0  0  0
  9 15  1  6  0  0  0
  9 19  1  0  0  0  0
  9 22  1  0  0  0  0
 11  4  1  0  0  0  0
 11 14  1  0  0  0  0
 12  6  1  0  0  0  0
 13 11  1  0  0  0  0
 15  2  1  0  0  0  0
 16 18  1  6  0  0  0
 19 23  1  6  0  0  0
 19  3  1  0  0  0  0
 20  2  1  6  0  0  0
 20 11  1  0  0  0  0
 20 22  1  0  0  0  0
 20  4  1  0  0  0  0
 21 18  1  6  0  0  0
 21 16  1  0  0  0  0
 22 21  1  0  0  0  0
 23 25  1  0  0  0  0
 24 25  1  0  0  0  0
 24 27  1  0  0  0  0
 25 27  1  0  0  0  0
 27 26  1  0  0  0  0
 27 28  1  0  0  0  0
 28 31  1  0  0  0  0
 29 34  1  0  0  0  0
 31 32  1  0  0  0  0
 31 29  1  0  0  0  0
 32 33  1  0  0  0  0
 33 30  1  0  0  0  0
 34 30  1  0  0  0  0
M  END
>  <MODEL>
3

>  <REMARK>
 VINA RESULT:      -7.6      3.271      9.184
  Name = 
  4 active torsions:
  status: ('A' for Active; 'I' for Inactive)
    1  A    between atoms: C_3  and  N_18
    2  A    between atoms: C_3  and  C_31
    3  A    between atoms: C_14  and  O_16
    4  A    between atoms: O_16  and  C_28
                            x       y       z     vdW  Elec       q    Type
                         _______ _______ _______ _____ _____    ______ ____

>  <TORSDO>
F 4

$$$$
=
 OpenBabel11052420393D

 34 40  0  0  1  0  0  0  0  0999 V2000
  187.4170  176.8910  143.3430 C   0  0  2  0  0  3  0  0  0  0  0  0
  191.9150  176.0300  146.2690 C   0  0  0  0  0  2  0  0  0  0  0  0
  194.1070  173.2040  143.2540 C   0  0  2  0  0  3  0  0  0  0  0  0
  189.6970  175.7120  144.7260 C   0  0  1  0  0  0  0  0  0  0  0  0
  186.0520  177.0550  143.1170 O   0  0  0  0  0  1  0  0  0  0  0  0
  187.7980  175.4290  143.1150 C   0  0  0  0  0  2  0  0  0  0  0  0
  187.7490  177.3110  144.7730 C   0  0  0  0  0  2  0  0  0  0  0  0
  189.2440  177.1620  145.0390 C   0  0  1  0  0  3  0  0  0  0  0  0
  192.9960  174.0520  145.3980 C   0  0  2  0  0  3  0  0  0  0  0  0
  189.5390  177.5920  146.3330 O   0  0  0  0  0  1  0  0  0  0  0  0
  189.8050  174.6240  145.8130 C   0  0  0  0  0  0  0  0  0  0  0  0
  189.2940  175.2250  143.3270 C   0  0  0  0  0  2  0  0  0  0  0  0
  189.3680  174.9920  147.2270 C   0  0  0  0  0  1  0  0  0  0  0  0
  189.5130  173.1890  145.3870 C   0  0  0  0  0  1  0  0  0  0  0  0
  193.2250  175.2700  146.2960 C   0  0  0  0  0  2  0  0  0  0  0  0
  193.4930  174.3910  142.4930 C   0  0  2  0  0  3  0  0  0  0  0  0
  193.3900  172.0420  142.9680 O   0  0  0  0  0  1  0  0  0  0  0  0
  193.6720  175.7250  143.2070 C   0  0  0  0  0  2  0  0  0  0  0  0
  194.2330  173.3760  144.7710 C   0  0  2  0  0  3  0  0  0  0  0  0
  191.0860  175.2790  145.2370 C   0  0  2  0  0  0  0  0  0  0  0  0
  192.3040  175.0440  143.1970 C   0  0  2  0  0  3  0  0  0  0  0  0
  191.9050  174.3530  144.4540 N   0  0  1  0  0  0  0  0  0  0  0  0
  195.5600  174.0290  145.1480 C   0  0  0  0  0  2  0  0  0  0  0  0
  197.8750  174.1420  144.7460 C   0  0  0  0  0  2  0  0  0  0  0  0
  196.5950  173.6490  144.1940 N   0  0  0  0  0  0  0  0  0  0  0  0
  196.7600  176.1120  143.9810 O   0  0  0  0  0  1  0  0  0  0  0  0
  197.2570  174.8470  143.6380 C   0  0  1  0  0  0  0  0  0  0  0  0
  197.9410  174.6790  142.4190 O   0  0  0  0  0  0  0  0  0  0  0  0
  197.0480  172.9900  140.7960 C   0  0  0  0  0  2  0  0  0  0  0  0
  197.5160  173.8160  138.4720 C   0  0  0  0  0  2  0  0  0  0  0  0
  197.0380  174.4120  141.3630 C   0  0  2  0  0  3  0  0  0  0  0  0
  196.6670  175.7860  140.2030 S   0  0  0  0  0  0  0  0  0  0  0  0
  197.8170  175.2400  138.9000 C   0  0  0  0  0  2  0  0  0  0  0  0
  197.9390  172.8520  139.5680 C   0  0  0  0  0  2  0  0  0  0  0  0
  1  5  1  1  0  0  0
  1  7  1  0  0  0  0
  2 15  1  0  0  0  0
  3 17  1  1  0  0  0
  3 19  1  0  0  0  0
  4 12  1  6  0  0  0
  4  8  1  0  0  0  0
  4 20  1  0  0  0  0
  4 11  1  0  0  0  0
  6 12  1  0  0  0  0
  6  1  1  0  0  0  0
  7  8  1  0  0  0  0
  8 10  1  1  0  0  0
  9 15  1  6  0  0  0
 11 13  1  0  0  0  0
 14 11  1  0  0  0  0
 16 21  1  0  0  0  0
 16 18  1  1  0  0  0
 16  3  1  0  0  0  0
 19 23  1  6  0  0  0
 19  9  1  0  0  0  0
 20 11  1  0  0  0  0
 20  2  1  1  0  0  0
 21 18  1  1  0  0  0
 21 22  1  0  0  0  0
 22 20  1  0  0  0  0
 22  9  1  0  0  0  0
 25 24  1  0  0  0  0
 25 23  1  0  0  0  0
 27 26  1  0  0  0  0
 27 25  1  0  0  0  0
 27 24  1  0  0  0  0
 28 27  1  0  0  0  0
 29 31  1  0  0  0  0
 30 33  1  0  0  0  0
 30 34  1  0  0  0  0
 31 28  1  0  0  0  0
 32 31  1  0  0  0  0
 33 32  1  0  0  0  0
 34 29  1  0  0  0  0
M  END
>  <MODEL>
4

>  <REMARK>
 VINA RESULT:      -7.3      3.159      8.861
  Name = 
  4 active torsions:
  status: ('A' for Active; 'I' for Inactive)
    1  A    between atoms: C_3  and  N_18
    2  A    between atoms: C_3  and  C_31
    3  A    between atoms: C_14  and  O_16
    4  A    between atoms: O_16  and  C_28
                            x       y       z     vdW  Elec       q    Type
                         _______ _______ _______ _____ _____    ______ ____

>  <TORSDO>
F 4

$$$$
=
 OpenBabel11052420393D

 34 40  0  0  1  0  0  0  0  0999 V2000
  187.3340  176.7860  146.5190 C   0  0  2  0  0  3  0  0  0  0  0  0
  190.5200  175.2120  142.4080 C   0  0  0  0  0  2  0  0  0  0  0  0
  194.5660  175.0720  144.7530 C   0  0  2  0  0  3  0  0  0  0  0  0
  189.4820  176.4970  144.5700 C   0  0  1  0  0  0  0  0  0  0  0  0
  186.3110  177.4990  147.1420 O   0  0  0  0  0  1  0  0  0  0  0  0
  188.6540  177.5330  146.6960 C   0  0  0  0  0  2  0  0  0  0  0  0
  187.0080  176.6240  145.0360 C   0  0  0  0  0  2  0  0  0  0  0  0
  188.1040  175.8260  144.3340 C   0  0  1  0  0  3  0  0  0  0  0  0
  192.8060  175.7150  143.0100 C   0  0  2  0  0  3  0  0  0  0  0  0
  187.7720  175.6480  142.9910 O   0  0  0  0  0  1  0  0  0  0  0  0
  190.1090  177.4790  143.5600 C   0  0  0  0  0  0  0  0  0  0  0  0
  189.7990  176.7610  146.0480 C   0  0  0  0  0  2  0  0  0  0  0  0
  189.2880  177.8500  142.3300 C   0  0  0  0  0  1  0  0  0  0  0  0
  190.9810  178.5950  144.1300 C   0  0  0  0  0  1  0  0  0  0  0  0
  191.9550  174.9140  142.0220 C   0  0  0  0  0  2  0  0  0  0  0  0
  193.4560  174.4280  145.6020 C   0  0  2  0  0  3  0  0  0  0  0  0
  194.9250  176.3020  145.3060 O   0  0  0  0  0  1  0  0  0  0  0  0
  192.5240  173.5310  144.7980 C   0  0  0  0  0  2  0  0  0  0  0  0
  194.2520  175.2430  143.2630 C   0  0  2  0  0  3  0  0  0  0  0  0
  190.6550  176.0340  143.6810 C   0  0  2  0  0  0  0  0  0  0  0  0
  192.0450  174.9050  145.2610 C   0  0  2  0  0  3  0  0  0  0  0  0
  192.0130  175.9730  144.2240 N   0  0  1  0  0  0  0  0  0  0  0  0
  194.6540  174.0060  142.4650 C   0  0  0  0  0  2  0  0  0  0  0  0
  196.6800  172.8410  142.1940 C   0  0  0  0  0  2  0  0  0  0  0  0
  195.6660  173.2480  143.1910 N   0  0  0  0  0  0  0  0  0  0  0  0
  194.8000  171.4400  141.7350 O   0  0  0  0  0  1  0  0  0  0  0  0
  195.7350  171.8580  142.6910 C   0  0  1  0  0  0  0  0  0  0  0  0
  196.3180  170.9090  143.5520 O   0  0  0  0  0  0  0  0  0  0  0  0
  196.7060  171.0000  146.0270 C   0  0  0  0  0  2  0  0  0  0  0  0
  195.6640  168.9620  147.0570 C   0  0  0  0  0  2  0  0  0  0  0  0
  195.7380  170.9690  144.8410 C   0  0  2  0  0  3  0  0  0  0  0  0
  194.1290  170.1190  145.0810 S   0  0  0  0  0  0  0  0  0  0  0  0
  194.8270  168.6160  145.8390 C   0  0  0  0  0  2  0  0  0  0  0  0
  196.9620  169.6190  146.6160 C   0  0  0  0  0  2  0  0  0  0  0  0
  1  6  1  0  0  0  0
  1  5  1  1  0  0  0
  3 17  1  1  0  0  0
  3 16  1  0  0  0  0
  4 12  1  1  0  0  0
  7  1  1  0  0  0  0
  8 10  1  6  0  0  0
  8  4  1  0  0  0  0
  8  7  1  0  0  0  0
  9 15  1  6  0  0  0
  9 19  1  0  0  0  0
  9 22  1  0  0  0  0
 11 20  1  0  0  0  0
 11 14  1  0  0  0  0
 11  4  1  0  0  0  0
 12  6  1  0  0  0  0
 13 11  1  0  0  0  0
 15  2  1  0  0  0  0
 16 18  1  6  0  0  0
 19 23  1  6  0  0  0
 19  3  1  0  0  0  0
 20  2  1  6  0  0  0
 20 22  1  0  0  0  0
 20  4  1  0  0  0  0
 21 18  1  6  0  0  0
 21 16  1  0  0  0  0
 22 21  1  0  0  0  0
 23 25  1  0  0  0  0
 24 27  1  0  0  0  0
 24 25  1  0  0  0  0
 26 27  1  0  0  0  0
 27 25  1  0  0  0  0
 27 28  1  0  0  0  0
 28 31  1  0  0  0  0
 29 34  1  0  0  0  0
 31 32  1  0  0  0  0
 31 29  1  0  0  0  0
 32 33  1  0  0  0  0
 33 30  1  0  0  0  0
 34 30  1  0  0  0  0
M  END
>  <MODEL>
5

>  <REMARK>
 VINA RESULT:      -7.3      2.962      8.855
  Name = 
  4 active torsions:
  status: ('A' for Active; 'I' for Inactive)
    1  A    between atoms: C_3  and  N_18
    2  A    between atoms: C_3  and  C_31
    3  A    between atoms: C_14  and  O_16
    4  A    between atoms: O_16  and  C_28
                            x       y       z     vdW  Elec       q    Type
                         _______ _______ _______ _____ _____    ______ ____

>  <TORSDO>
F 4

$$$$
=
 OpenBabel11052420393D

 34 40  0  0  1  0  0  0  0  0999 V2000
  185.9470  177.2080  146.6240 C   0  0  2  0  0  3  0  0  0  0  0  0
  188.3480  175.2820  142.1450 C   0  0  0  0  0  2  0  0  0  0  0  0
  192.1340  173.4450  144.1900 C   0  0  2  0  0  3  0  0  0  0  0  0
  187.8410  176.5060  144.5220 C   0  0  1  0  0  0  0  0  0  0  0  0
  185.2380  178.1230  147.4010 O   0  0  0  0  0  1  0  0  0  0  0  0
  187.4460  177.4330  146.8170 C   0  0  0  0  0  2  0  0  0  0  0  0
  185.5660  177.3870  145.1560 C   0  0  0  0  0  2  0  0  0  0  0  0
  186.3130  176.3810  144.2860 C   0  0  1  0  0  3  0  0  0  0  0  0
  190.6760  174.8930  142.6640 C   0  0  2  0  0  3  0  0  0  0  0  0
  185.9220  176.5250  142.9550 O   0  0  0  0  0  1  0  0  0  0  0  0
  188.7520  177.3580  143.6160 C   0  0  0  0  0  0  0  0  0  0  0  0
  188.2490  176.4260  145.9990 C   0  0  0  0  0  2  0  0  0  0  0  0
  188.0900  178.1610  142.5010 C   0  0  0  0  0  1  0  0  0  0  0  0
  189.9600  178.0190  144.2750 C   0  0  0  0  0  1  0  0  0  0  0  0
  189.5890  174.5810  141.6330 C   0  0  0  0  0  2  0  0  0  0  0  0
  190.8820  173.0930  145.0130 C   0  0  2  0  0  3  0  0  0  0  0  0
  192.8980  174.3870  144.8790 O   0  0  0  0  0  1  0  0  0  0  0  0
  189.6890  172.6910  144.1560 C   0  0  0  0  0  2  0  0  0  0  0  0
  191.8770  173.9310  142.7600 C   0  0  2  0  0  3  0  0  0  0  0  0
  188.7730  175.8130  143.5070 C   0  0  2  0  0  0  0  0  0  0  0  0
  189.7140  174.0620  144.8290 C   0  0  2  0  0  3  0  0  0  0  0  0
  190.0360  175.2200  143.9500 N   0  0  1  0  0  0  0  0  0  0  0  0
  191.8210  172.7630  141.7790 C   0  0  0  0  0  2  0  0  0  0  0  0
  192.7890  171.7560  139.8860 C   0  0  0  0  0  2  0  0  0  0  0  0
  192.6870  173.0260  140.6350 N   0  0  0  0  0  0  0  0  0  0  0  0
  194.1200  171.4010  141.8380 O   0  0  0  0  0  1  0  0  0  0  0  0
  193.9060  172.1930  140.7020 C   0  0  1  0  0  0  0  0  0  0  0  0
  195.0100  172.6340  139.9470 O   0  0  0  0  0  0  0  0  0  0  0  0
  195.6080  174.8170  138.8700 C   0  0  0  0  0  2  0  0  0  0  0  0
  197.7130  175.6660  139.9420 C   0  0  0  0  0  2  0  0  0  0  0  0
  195.2220  174.0210  140.1200 C   0  0  2  0  0  3  0  0  0  0  0  0
  195.9180  174.5740  141.7260 S   0  0  0  0  0  0  0  0  0  0  0  0
  197.6350  174.7330  141.1360 C   0  0  0  0  0  2  0  0  0  0  0  0
  197.1150  174.9860  138.7210 C   0  0  0  0  0  2  0  0  0  0  0  0
  1  6  1  0  0  0  0
  1  5  1  1  0  0  0
  3 17  1  1  0  0  0
  3 16  1  0  0  0  0
  4 12  1  1  0  0  0
  7  1  1  0  0  0  0
  8 10  1  6  0  0  0
  8  4  1  0  0  0  0
  8  7  1  0  0  0  0
  9 15  1  6  0  0  0
  9 19  1  0  0  0  0
  9 22  1  0  0  0  0
 11 14  1  0  0  0  0
 11  4  1  0  0  0  0
 12  6  1  0  0  0  0
 13 11  1  0  0  0  0
 15  2  1  0  0  0  0
 16 18  1  6  0  0  0
 19 23  1  6  0  0  0
 19  3  1  0  0  0  0
 20  2  1  6  0  0  0
 20 11  1  0  0  0  0
 20 22  1  0  0  0  0
 20  4  1  0  0  0  0
 21 18  1  6  0  0  0
 21 16  1  0  0  0  0
 22 21  1  0  0  0  0
 24 25  1  0  0  0  0
 24 27  1  0  0  0  0
 25 27  1  0  0  0  0
 25 23  1  0  0  0  0
 27 26  1  0  0  0  0
 28 31  1  0  0  0  0
 28 27  1  0  0  0  0
 29 31  1  0  0  0  0
 30 33  1  0  0  0  0
 31 32  1  0  0  0  0
 33 32  1  0  0  0  0
 34 29  1  0  0  0  0
 34 30  1  0  0  0  0
M  END
>  <MODEL>
6

>  <REMARK>
 VINA RESULT:      -7.1      3.449      9.036
  Name = 
  4 active torsions:
  status: ('A' for Active; 'I' for Inactive)
    1  A    between atoms: C_3  and  N_18
    2  A    between atoms: C_3  and  C_31
    3  A    between atoms: C_14  and  O_16
    4  A    between atoms: O_16  and  C_28
                            x       y       z     vdW  Elec       q    Type
                         _______ _______ _______ _____ _____    ______ ____

>  <TORSDO>
F 4

$$$$
=
 OpenBabel11052420393D

 34 40  0  0  1  0  0  0  0  0999 V2000
  186.7790  177.4020  147.0700 C   0  0  2  0  0  3  0  0  0  0  0  0
  187.5710  175.3970  142.0820 C   0  0  0  0  0  2  0  0  0  0  0  0
  191.6920  173.3260  142.8730 C   0  0  2  0  0  3  0  0  0  0  0  0
  187.8910  176.6200  144.4920 C   0  0  1  0  0  0  0  0  0  0  0  0
  186.3970  178.3460  148.0220 O   0  0  0  0  0  1  0  0  0  0  0  0
  188.2750  177.5410  146.7910 C   0  0  0  0  0  2  0  0  0  0  0  0
  185.9760  177.6190  145.7900 C   0  0  0  0  0  2  0  0  0  0  0  0
  186.3600  176.5830  144.7380 C   0  0  1  0  0  3  0  0  0  0  0  0
  189.9200  174.8720  141.8610 C   0  0  2  0  0  3  0  0  0  0  0  0
  185.5870  176.7640  143.5910 O   0  0  0  0  0  1  0  0  0  0  0  0
  188.5260  177.4300  143.3430 C   0  0  0  0  0  0  0  0  0  0  0  0
  188.7290  176.5000  145.7720 C   0  0  0  0  0  2  0  0  0  0  0  0
  187.6000  178.2820  142.4820 C   0  0  0  0  0  1  0  0  0  0  0  0
  189.9140  178.0140  143.5940 C   0  0  0  0  0  1  0  0  0  0  0  0
  188.5530  174.6330  141.2160 C   0  0  0  0  0  2  0  0  0  0  0  0
  190.7360  173.0360  144.0430 C   0  0  2  0  0  3  0  0  0  0  0  0
  192.6840  174.2160  143.2870 O   0  0  0  0  0  1  0  0  0  0  0  0
  189.3160  172.7120  143.5980 C   0  0  0  0  0  2  0  0  0  0  0  0
  191.0350  173.8420  141.5880 C   0  0  2  0  0  3  0  0  0  0  0  0
  188.4240  175.8870  143.2430 C   0  0  2  0  0  0  0  0  0  0  0  0
  189.6260  174.0710  144.2220 C   0  0  2  0  0  3  0  0  0  0  0  0
  189.7260  175.2190  143.2790 N   0  0  1  0  0  0  0  0  0  0  0  0
  190.6140  172.6910  140.6790 C   0  0  0  0  0  2  0  0  0  0  0  0
  190.5130  171.8450  138.4860 C   0  0  0  0  0  2  0  0  0  0  0  0
  190.8180  173.0540  139.2820 N   0  0  0  0  0  0  0  0  0  0  0  0
  192.6180  171.3660  139.5100 O   0  0  0  0  0  1  0  0  0  0  0  0
  191.8970  172.2380  138.6840 C   0  0  1  0  0  0  0  0  0  0  0  0
  192.5030  172.7510  137.5210 O   0  0  0  0  0  0  0  0  0  0  0  0
  191.9410  174.9160  136.3880 C   0  0  0  0  0  2  0  0  0  0  0  0
  194.0880  176.1130  135.8830 C   0  0  0  0  0  2  0  0  0  0  0  0
  192.5680  174.1640  137.5650 C   0  0  2  0  0  3  0  0  0  0  0  0
  194.0390  174.9160  138.3650 S   0  0  0  0  0  0  0  0  0  0  0  0
  194.9320  175.2630  136.8150 C   0  0  0  0  0  2  0  0  0  0  0  0
  192.9560  175.2760  135.3110 C   0  0  0  0  0  2  0  0  0  0  0  0
  1  5  1  1  0  0  0
  3 17  1  1  0  0  0
  3 16  1  0  0  0  0
  4  8  1  0  0  0  0
  4 12  1  1  0  0  0
  6  1  1  0  0  0  0
  7  1  1  0  0  0  0
  8 10  1  6  0  0  0
  8  7  1  0  0  0  0
  9 15  1  1  0  0  0
  9 22  1  0  0  0  0
 11 14  1  0  0  0  0
 11  4  1  0  0  0  0
 12  6  1  0  0  0  0
 13 11  1  0  0  0  0
 15  2  1  0  0  0  0
 16 18  1  6  0  0  0
 16 21  1  0  0  0  0
 19 23  1  1  0  0  0
 19  9  1  0  0  0  0
 19  3  1  0  0  0  0
 20  2  1  6  0  0  0
 20 22  1  0  0  0  0
 20 11  1  0  0  0  0
 20  4  1  0  0  0  0
 21 18  1  6  0  0  0
 22 21  1  0  0  0  0
 24 27  1  0  0  0  0
 24 25  1  0  0  0  0
 25 23  1  0  0  0  0
 27 25  1  0  0  0  0
 27 26  1  0  0  0  0
 28 31  1  0  0  0  0
 28 27  1  0  0  0  0
 29 31  1  0  0  0  0
 30 33  1  0  0  0  0
 31 32  1  0  0  0  0
 33 32  1  0  0  0  0
 34 30  1  0  0  0  0
 34 29  1  0  0  0  0
M  END
>  <MODEL>
7

>  <REMARK>
 VINA RESULT:      -6.9      3.914      8.827
  Name = 
  4 active torsions:
  status: ('A' for Active; 'I' for Inactive)
    1  A    between atoms: C_3  and  N_18
    2  A    between atoms: C_3  and  C_31
    3  A    between atoms: C_14  and  O_16
    4  A    between atoms: O_16  and  C_28
                            x       y       z     vdW  Elec       q    Type
                         _______ _______ _______ _____ _____    ______ ____

>  <TORSDO>
F 4

$$$$
=
 OpenBabel11052420393D

 34 40  0  0  1  0  0  0  0  0999 V2000
  185.2250  178.6960  141.0380 C   0  0  2  0  0  3  0  0  0  0  0  0
  188.3390  177.8710  145.4140 C   0  0  0  0  0  2  0  0  0  0  0  0
  192.1540  176.3140  143.1990 C   0  0  2  0  0  3  0  0  0  0  0  0
  187.0310  177.5970  143.0440 C   0  0  1  0  0  0  0  0  0  0  0  0
  184.0540  178.6840  140.2820 O   0  0  0  0  0  1  0  0  0  0  0  0
  186.0240  177.4260  140.7550 C   0  0  0  0  0  2  0  0  0  0  0  0
  184.8710  178.7850  142.5200 C   0  0  0  0  0  2  0  0  0  0  0  0
  186.1390  178.8220  143.3690 C   0  0  1  0  0  3  0  0  0  0  0  0
  190.1370  176.3890  144.7730 C   0  0  2  0  0  3  0  0  0  0  0  0
  185.8020  178.9490  144.7170 O   0  0  0  0  0  1  0  0  0  0  0  0
  186.9950  176.3000  143.8780 C   0  0  0  0  0  0  0  0  0  0  0  0
  187.3280  177.4240  141.5480 C   0  0  0  0  0  2  0  0  0  0  0  0
  185.9770  176.2160  145.0100 C   0  0  0  0  0  1  0  0  0  0  0  0
  187.2650  174.9940  143.1370 C   0  0  0  0  0  1  0  0  0  0  0  0
  189.6890  177.3570  145.8710 C   0  0  0  0  0  2  0  0  0  0  0  0
  191.5910  177.5380  142.4570 C   0  0  2  0  0  3  0  0  0  0  0  0
  191.9220  175.1620  142.4470 O   0  0  0  0  0  1  0  0  0  0  0  0
  191.1380  178.6550  143.3880 C   0  0  0  0  0  2  0  0  0  0  0  0
  191.6470  176.1110  144.6310 C   0  0  2  0  0  3  0  0  0  0  0  0
  188.1850  177.2830  144.0190 C   0  0  2  0  0  0  0  0  0  0  0  0
  190.1000  177.7830  142.6850 C   0  0  2  0  0  3  0  0  0  0  0  0
  189.4470  176.7370  143.5190 N   0  0  1  0  0  0  0  0  0  0  0  0
  192.5180  176.8550  145.6390 C   0  0  0  0  0  2  0  0  0  0  0  0
  194.3590  176.7120  147.0960 C   0  0  0  0  0  2  0  0  0  0  0  0
  193.3380  175.9110  146.3880 N   0  0  0  0  0  0  0  0  0  0  0  0
  195.0560  176.7470  144.8110 O   0  0  0  0  0  1  0  0  0  0  0  0
  194.7390  175.9510  145.9200 C   0  0  1  0  0  0  0  0  0  0  0  0
  195.5330  174.8270  146.2160 O   0  0  0  0  0  0  0  0  0  0  0  0
  194.3050  173.0710  144.9140 C   0  0  0  0  0  2  0  0  0  0  0  0
  195.6150  170.9340  145.0570 C   0  0  0  0  0  2  0  0  0  0  0  0
  195.5590  173.9230  145.1280 C   0  0  2  0  0  3  0  0  0  0  0  0
  197.1780  173.1750  144.6920 S   0  0  0  0  0  0  0  0  0  0  0  0
  196.8870  171.5960  145.5530 C   0  0  0  0  0  2  0  0  0  0  0  0
  194.4060  171.7000  145.5690 C   0  0  0  0  0  2  0  0  0  0  0  0
  1  5  1  6  0  0  0
  1  7  1  0  0  0  0
  2 15  1  0  0  0  0
  3 17  1  6  0  0  0
  3 19  1  0  0  0  0
  4 12  1  6  0  0  0
  4  8  1  0  0  0  0
  4 11  1  0  0  0  0
  4 20  1  0  0  0  0
  6  1  1  0  0  0  0
  6 12  1  0  0  0  0
  7  8  1  0  0  0  0
  8 10  1  1  0  0  0
  9 15  1  1  0  0  0
 11 20  1  0  0  0  0
 11 13  1  0  0  0  0
 14 11  1  0  0  0  0
 16 21  1  0  0  0  0
 16  3  1  0  0  0  0
 16 18  1  1  0  0  0
 19  9  1  0  0  0  0
 19 23  1  1  0  0  0
 20  2  1  1  0  0  0
 21 18  1  1  0  0  0
 21 22  1  0  0  0  0
 22 20  1  0  0  0  0
 22  9  1  0  0  0  0
 23 25  1  0  0  0  0
 25 24  1  0  0  0  0
 26 27  1  0  0  0  0
 27 28  1  0  0  0  0
 27 25  1  0  0  0  0
 27 24  1  0  0  0  0
 29 31  1  0  0  0  0
 29 34  1  0  0  0  0
 30 33  1  0  0  0  0
 30 34  1  0  0  0  0
 31 28  1  0  0  0  0
 32 31  1  0  0  0  0
 32 33  1  0  0  0  0
M  END
>  <MODEL>
8

>  <REMARK>
 VINA RESULT:      -6.9      3.200      9.395
  Name = 
  4 active torsions:
  status: ('A' for Active; 'I' for Inactive)
    1  A    between atoms: C_3  and  N_18
    2  A    between atoms: C_3  and  C_31
    3  A    between atoms: C_14  and  O_16
    4  A    between atoms: O_16  and  C_28
                            x       y       z     vdW  Elec       q    Type
                         _______ _______ _______ _____ _____    ______ ____

>  <TORSDO>
F 4

$$$$
=
 OpenBabel11052420393D

 34 40  0  0  1  0  0  0  0  0999 V2000
  196.9000  172.2330  139.9780 C   0  0  2  0  0  3  0  0  0  0  0  0
  194.0600  172.1090  144.6100 C   0  0  0  0  0  2  0  0  0  0  0  0
  193.7020  176.7280  145.2640 C   0  0  2  0  0  3  0  0  0  0  0  0
  195.8900  172.6740  142.6770 C   0  0  1  0  0  0  0  0  0  0  0  0
  197.8790  171.8370  139.0690 O   0  0  0  0  0  1  0  0  0  0  0  0
  197.4380  173.3780  140.8360 C   0  0  0  0  0  2  0  0  0  0  0  0
  196.5140  171.0460  140.8570 C   0  0  0  0  0  2  0  0  0  0  0  0
  195.4260  171.4490  141.8480 C   0  0  1  0  0  3  0  0  0  0  0  0
  194.2830  174.2690  145.6720 C   0  0  2  0  0  3  0  0  0  0  0  0
  195.0510  170.3440  142.6130 O   0  0  0  0  0  1  0  0  0  0  0  0
  196.5430  172.5350  144.0680 C   0  0  0  0  0  0  0  0  0  0  0  0
  196.3770  173.8530  141.8230 C   0  0  0  0  0  2  0  0  0  0  0  0
  196.8020  171.1250  144.5890 C   0  0  0  0  0  1  0  0  0  0  0  0
  197.5860  173.5800  144.4500 C   0  0  0  0  0  1  0  0  0  0  0  0
  193.4600  172.9780  145.6960 C   0  0  0  0  0  2  0  0  0  0  0  0
  193.4260  176.3930  143.7870 C   0  0  2  0  0  3  0  0  0  0  0  0
  194.9380  177.3650  145.3770 O   0  0  0  0  0  1  0  0  0  0  0  0
  192.5590  175.1550  143.6000 C   0  0  0  0  0  2  0  0  0  0  0  0
  193.6350  175.5480  146.2390 C   0  0  2  0  0  3  0  0  0  0  0  0
  195.0770  173.0230  143.9410 C   0  0  2  0  0  0  0  0  0  0  0  0
  194.0570  175.0860  143.3080 C   0  0  2  0  0  3  0  0  0  0  0  0
  194.8970  174.4190  144.3410 N   0  0  1  0  0  0  0  0  0  0  0  0
  192.2180  175.3470  146.7700 C   0  0  0  0  0  2  0  0  0  0  0  0
  191.0580  176.7740  148.2370 C   0  0  0  0  0  2  0  0  0  0  0  0
  191.5230  176.6270  146.8410 N   0  0  0  0  0  0  0  0  0  0  0  0
  189.6090  175.1220  147.3010 O   0  0  0  0  0  1  0  0  0  0  0  0
  190.1030  176.4290  147.2010 C   0  0  1  0  0  0  0  0  0  0  0  0
  189.2210  177.4800  146.8820 O   0  0  0  0  0  0  0  0  0  0  0  0
  188.0070  177.0450  144.7320 C   0  0  0  0  0  2  0  0  0  0  0  0
  185.8920  178.3960  144.7430 C   0  0  0  0  0  2  0  0  0  0  0  0
  188.0490  176.9890  146.2620 C   0  0  2  0  0  3  0  0  0  0  0  0
  186.4640  177.2070  147.1620 S   0  0  0  0  0  0  0  0  0  0  0  0
  185.9270  178.6790  146.2330 C   0  0  0  0  0  2  0  0  0  0  0  0
  187.3110  178.2930  144.2070 C   0  0  0  0  0  2  0  0  0  0  0  0
  1  5  1  6  0  0  0
  1  6  1  0  0  0  0
  1  7  1  0  0  0  0
  2 15  1  0  0  0  0
  3 17  1  6  0  0  0
  3 19  1  0  0  0  0
  4 12  1  6  0  0  0
  4 20  1  0  0  0  0
  4 11  1  0  0  0  0
  6 12  1  0  0  0  0
  7  8  1  0  0  0  0
  8 10  1  1  0  0  0
  8  4  1  0  0  0  0
  9 15  1  6  0  0  0
  9 19  1  0  0  0  0
 11 14  1  0  0  0  0
 11 13  1  0  0  0  0
 16 18  1  1  0  0  0
 16  3  1  0  0  0  0
 19 23  1  6  0  0  0
 20 11  1  0  0  0  0
 20 22  1  0  0  0  0
 20  2  1  1  0  0  0
 21 18  1  1  0  0  0
 21 16  1  0  0  0  0
 21 22  1  0  0  0  0
 22  9  1  0  0  0  0
 23 25  1  0  0  0  0
 25 27  1  0  0  0  0
 25 24  1  0  0  0  0
 27 26  1  0  0  0  0
 27 24  1  0  0  0  0
 28 27  1  0  0  0  0
 29 31  1  0  0  0  0
 30 33  1  0  0  0  0
 31 28  1  0  0  0  0
 31 32  1  0  0  0  0
 33 32  1  0  0  0  0
 34 29  1  0  0  0  0
 34 30  1  0  0  0  0
M  END
>  <MODEL>
9

>  <REMARK>
 VINA RESULT:      -6.8      2.579      4.240
  Name = 
  4 active torsions:
  status: ('A' for Active; 'I' for Inactive)
    1  A    between atoms: C_3  and  N_18
    2  A    between atoms: C_3  and  C_31
    3  A    between atoms: C_14  and  O_16
    4  A    between atoms: O_16  and  C_28
                            x       y       z     vdW  Elec       q    Type
                         _______ _______ _______ _____ _____    ______ ____

>  <TORSDO>
F 4

$$$$
