=
 OpenBabel11052418433D

 34 37  0  0  1  0  0  0  0  0999 V2000
  189.6620  173.2450  140.8860 C   0  0  0  0  0  0  0  0  0  0  0  0
  191.5370  172.7070  142.5050 C   0  0  0  0  0  0  0  0  0  0  0  0
  195.0210  174.8000  143.5500 O   0  0  0  0  0  0  0  0  0  0  0  0
  190.2860  174.8140  142.6470 C   0  0  0  0  0  0  0  0  0  0  0  0
  192.9620  175.6640  142.1130 O   0  0  0  0  0  1  0  0  0  0  0  0
  187.8400  173.7950  139.3940 O   0  0  0  0  0  1  0  0  0  0  0  0
  191.8860  171.6590  141.8970 O   0  0  0  0  0  0  0  0  0  0  0  0
  191.5910  174.0230  144.5420 O   0  0  0  0  0  0  0  0  0  0  0  0
  195.5430  173.7590  145.6250 C   0  0  0  0  0  2  0  0  0  0  0  0
  195.0710  173.6850  144.3840 C   0  0  0  0  0  0  0  0  0  0  0  0
  190.4790  173.5890  141.9800 C   0  0  0  0  0  0  0  0  0  0  0  0
  194.9160  176.1360  144.0270 C   0  0  0  0  0  2  0  0  0  0  0  0
  192.4080  176.0630  143.3340 C   0  0  2  0  0  3  0  0  0  0  0  0
  189.8360  172.0410  140.2120 O   0  0  0  0  0  1  0  0  0  0  0  0
  193.1260  172.1730  144.3580 C   0  0  0  0  0  2  0  0  0  0  0  0
  189.2520  175.6860  142.2310 C   0  0  0  0  0  0  0  0  0  0  0  0
  188.6510  174.1210  140.4730 C   0  0  0  0  0  0  0  0  0  0  0  0
  192.1830  173.0930  143.7310 N   0  0  0  0  0  0  0  0  0  0  0  0
  193.4640  176.4910  144.3940 C   0  0  1  0  0  3  0  0  0  0  0  0
  191.2330  175.1630  143.7760 C   0  0  1  0  0  3  0  0  0  0  0  0
  188.4490  175.3260  141.1450 C   0  0  0  0  0  3  0  0  0  0  0  0
  194.5470  172.3950  143.8630 C   0  0  0  0  0  2  0  0  0  0  0  0
  193.1040  176.2130  145.8660 C   0  0  0  0  0  3  0  0  0  0  0  0
  191.7680  176.8410  146.2200 C   0  0  0  0  0  1  0  0  0  0  0  0
  194.1450  176.7880  146.8140 C   0  0  0  0  0  1  0  0  0  0  0  0
  188.8010  178.1310  141.8840 C   0  0  0  0  0  1  0  0  0  0  0  0
  188.9490  177.0020  142.8980 C   0  0  1  0  0  3  0  0  0  0  0  0
  187.1260  176.4050  146.1860 C   0  0  0  0  0  0  0  0  0  0  0  0
  185.8160  176.7690  145.8630 C   0  0  0  0  0  3  0  0  0  0  0  0
  187.8390  176.9170  143.9190 C   0  0  0  0  0  0  0  0  0  0  0  0
  185.5140  177.2170  144.5750 C   0  0  0  0  0  3  0  0  0  0  0  0
  188.1330  176.4850  145.2210 C   0  0  0  0  0  3  0  0  0  0  0  0
  186.5210  177.2950  143.6090 C   0  0  0  0  0  3  0  0  0  0  0  0
  187.4200  175.9770  147.4370 F   0  0  0  0  0  0  0  0  0  0  0  0
  1 11  1  0  0  0  0
  2 18  1  0  0  0  0
  3 12  1  0  0  0  0
  3 10  1  0  0  0  0
  6 17  1  0  0  0  0
  7  2  2  0  0  0  0
 10  9  2  0  0  0  0
 11  2  1  0  0  0  0
 11  4  2  0  0  0  0
 12 19  1  0  0  0  0
 13  5  1  6  0  0  0
 13 20  1  0  0  0  0
 13 19  1  0  0  0  0
 14  1  1  0  0  0  0
 16  4  1  0  0  0  0
 16 27  1  0  0  0  0
 17  1  2  0  0  0  0
 17 21  1  0  0  0  0
 18 15  1  0  0  0  0
 18  8  1  0  0  0  0
 19 23  1  1  0  0  0
 20  4  1  6  0  0  0
 20  8  1  0  0  0  0
 21 16  2  0  0  0  0
 22 15  1  0  0  0  0
 22 10  1  0  0  0  0
 23 24  1  0  0  0  0
 23 25  1  0  0  0  0
 27 26  1  6  0  0  0
 27 30  1  0  0  0  0
 28 34  1  0  0  0  0
 29 28  1  0  0  0  0
 30 32  1  0  0  0  0
 31 29  2  0  0  0  0
 32 28  2  0  0  0  0
 33 30  2  0  0  0  0
 33 31  1  0  0  0  0
M  END
>  <MODEL>
1

>  <REMARK>
 VINA RESULT:      -8.0      0.000      0.000
  Name = 
  3 active torsions:
  status: ('A' for Active; 'I' for Inactive)
    1  A    between atoms: C_12  and  C_28
    2  A    between atoms: C_13  and  C_29
    3  A    between atoms: C_21  and  C_28
                            x       y       z     vdW  Elec       q    Type
                         _______ _______ _______ _____ _____    ______ ____

>  <TORSDO>
F 3

$$$$
=
 OpenBabel11052418433D

 34 37  0  0  1  0  0  0  0  0999 V2000
  189.6140  174.0730  140.6140 C   0  0  0  0  0  0  0  0  0  0  0  0
  188.7920  175.6650  142.4070 C   0  0  0  0  0  0  0  0  0  0  0  0
  188.4070  175.2440  146.5640 O   0  0  0  0  0  0  0  0  0  0  0  0
  190.9990  174.6010  142.5510 C   0  0  0  0  0  0  0  0  0  0  0  0
  189.6340  173.6170  144.8610 O   0  0  0  0  0  1  0  0  0  0  0  0
  190.4660  172.5760  138.9160 O   0  0  0  0  0  1  0  0  0  0  0  0
  187.6320  175.7600  141.9200 O   0  0  0  0  0  0  0  0  0  0  0  0
  190.4920  176.5790  143.8760 O   0  0  0  0  0  0  0  0  0  0  0  0
  188.3080  177.5290  147.2210 C   0  0  0  0  0  2  0  0  0  0  0  0
  188.0180  176.5650  146.3520 C   0  0  0  0  0  0  0  0  0  0  0  0
  189.7980  174.7530  141.8330 C   0  0  0  0  0  0  0  0  0  0  0  0
  189.5420  174.8710  147.3360 C   0  0  0  0  0  2  0  0  0  0  0  0
  190.7710  174.4010  145.0900 C   0  0  2  0  0  3  0  0  0  0  0  0
  188.4350  174.2070  139.8890 O   0  0  0  0  0  1  0  0  0  0  0  0
  188.2530  177.4540  144.0670 C   0  0  0  0  0  2  0  0  0  0  0  0
  192.0310  173.7850  142.0320 C   0  0  0  0  0  0  0  0  0  0  0  0
  190.6350  173.2550  140.1160 C   0  0  0  0  0  0  0  0  0  0  0  0
  189.1680  176.4340  143.5630 N   0  0  0  0  0  0  0  0  0  0  0  0
  190.8430  175.0010  146.5230 C   0  0  1  0  0  3  0  0  0  0  0  0
  191.1200  175.3050  143.8870 C   0  0  1  0  0  3  0  0  0  0  0  0
  191.8320  173.1200  140.8190 C   0  0  0  0  0  3  0  0  0  0  0  0
  187.2890  176.8900  145.0980 C   0  0  0  0  0  2  0  0  0  0  0  0
  191.5290  176.3740  146.6550 C   0  0  0  0  0  3  0  0  0  0  0  0
  193.0130  176.2640  146.3520 C   0  0  0  0  0  1  0  0  0  0  0  0
  191.3900  176.9360  148.0610 C   0  0  0  0  0  1  0  0  0  0  0  0
  193.8300  172.1360  142.6210 C   0  0  0  0  0  1  0  0  0  0  0  0
  193.3610  173.5840  142.7100 C   0  0  1  0  0  3  0  0  0  0  0  0
  195.8840  176.4220  142.9690 C   0  0  0  0  0  0  0  0  0  0  0  0
  196.3460  176.5210  141.6550 C   0  0  0  0  0  3  0  0  0  0  0  0
  194.3970  174.6110  142.3210 C   0  0  0  0  0  0  0  0  0  0  0  0
  195.8450  175.6630  140.6730 C   0  0  0  0  0  3  0  0  0  0  0  0
  194.9190  175.4670  143.3020 C   0  0  0  0  0  3  0  0  0  0  0  0
  194.8790  174.7100  141.0050 C   0  0  0  0  0  3  0  0  0  0  0  0
  196.3730  177.2500  143.9230 F   0  0  0  0  0  0  0  0  0  0  0  0
  1 11  1  0  0  0  0
  2 18  1  0  0  0  0
  3 12  1  0  0  0  0
  6 17  1  0  0  0  0
  7  2  2  0  0  0  0
  8 20  1  0  0  0  0
 10  3  1  0  0  0  0
 10  9  2  0  0  0  0
 11  2  1  0  0  0  0
 11  4  2  0  0  0  0
 13  5  1  6  0  0  0
 13 19  1  0  0  0  0
 14  1  1  0  0  0  0
 15 22  1  0  0  0  0
 16  4  1  0  0  0  0
 16 27  1  0  0  0  0
 17  1  2  0  0  0  0
 17 21  1  0  0  0  0
 18  8  1  0  0  0  0
 18 15  1  0  0  0  0
 19 23  1  6  0  0  0
 19 12  1  0  0  0  0
 20  4  1  6  0  0  0
 20 13  1  0  0  0  0
 21 16  2  0  0  0  0
 22 10  1  0  0  0  0
 23 25  1  0  0  0  0
 24 23  1  0  0  0  0
 27 26  1  6  0  0  0
 28 32  1  0  0  0  0
 28 34  1  0  0  0  0
 29 28  2  0  0  0  0
 30 27  1  0  0  0  0
 30 32  2  0  0  0  0
 31 33  2  0  0  0  0
 31 29  1  0  0  0  0
 33 30  1  0  0  0  0
M  END
>  <MODEL>
2

>  <REMARK>
 VINA RESULT:      -7.7      2.640      6.073
  Name = 
  3 active torsions:
  status: ('A' for Active; 'I' for Inactive)
    1  A    between atoms: C_12  and  C_28
    2  A    between atoms: C_13  and  C_29
    3  A    between atoms: C_21  and  C_28
                            x       y       z     vdW  Elec       q    Type
                         _______ _______ _______ _____ _____    ______ ____

>  <TORSDO>
F 3

$$$$
=
 OpenBabel11052418433D

 34 37  0  0  1  0  0  0  0  0999 V2000
  192.0570  176.6080  146.6330 C   0  0  0  0  0  0  0  0  0  0  0  0
  192.5210  175.6270  144.3410 C   0  0  0  0  0  0  0  0  0  0  0  0
  191.3710  172.0070  142.5590 O   0  0  0  0  0  0  0  0  0  0  0  0
  190.2310  175.8850  145.1860 C   0  0  0  0  0  0  0  0  0  0  0  0
  190.4970  173.0610  144.8340 O   0  0  0  0  0  1  0  0  0  0  0  0
  191.5540  177.5710  148.7930 O   0  0  0  0  0  1  0  0  0  0  0  0
  193.7710  175.5950  144.5070 O   0  0  0  0  0  0  0  0  0  0  0  0
  190.6430  175.5800  142.8070 O   0  0  0  0  0  0  0  0  0  0  0  0
  191.6970  172.5350  140.2620 C   0  0  0  0  0  2  0  0  0  0  0  0
  192.0660  172.6460  141.5350 C   0  0  0  0  0  0  0  0  0  0  0  0
  191.6100  176.0450  145.4220 C   0  0  0  0  0  0  0  0  0  0  0  0
  189.9900  171.6730  142.4850 C   0  0  0  0  0  2  0  0  0  0  0  0
  189.5340  173.7040  144.0490 C   0  0  2  0  0  3  0  0  0  0  0  0
  193.4150  176.7740  146.8870 O   0  0  0  0  0  1  0  0  0  0  0  0
  192.8100  174.9570  141.9510 C   0  0  0  0  0  2  0  0  0  0  0  0
  189.2960  176.3150  146.1570 C   0  0  0  0  0  0  0  0  0  0  0  0
  191.1260  177.0160  147.5940 C   0  0  0  0  0  0  0  0  0  0  0  0
  191.9370  175.2320  143.0880 N   0  0  0  0  0  0  0  0  0  0  0  0
  189.0990  172.8900  142.7970 C   0  0  1  0  0  3  0  0  0  0  0  0
  189.8060  175.2170  143.8950 C   0  0  1  0  0  3  0  0  0  0  0  0
  189.7600  176.8740  147.3520 C   0  0  0  0  0  3  0  0  0  0  0  0
  193.2290  173.4970  141.9000 C   0  0  0  0  0  2  0  0  0  0  0  0
  188.7010  173.7090  141.5540 C   0  0  0  0  0  3  0  0  0  0  0  0
  187.4680  174.5490  141.8380 C   0  0  0  0  0  1  0  0  0  0  0  0
  188.3800  172.8110  140.3700 C   0  0  0  0  0  1  0  0  0  0  0  0
  187.0970  175.9450  147.3080 C   0  0  0  0  0  1  0  0  0  0  0  0
  187.8040  176.2130  145.9840 C   0  0  1  0  0  3  0  0  0  0  0  0
  186.9130  178.4100  143.0070 C   0  0  0  0  0  0  0  0  0  0  0  0
  186.1190  179.3950  143.5980 C   0  0  0  0  0  3  0  0  0  0  0  0
  187.2140  177.3390  145.1680 C   0  0  0  0  0  0  0  0  0  0  0  0
  185.8610  179.3510  144.9710 C   0  0  0  0  0  3  0  0  0  0  0  0
  187.4530  177.3840  143.7860 C   0  0  0  0  0  3  0  0  0  0  0  0
  186.4020  178.3260  145.7510 C   0  0  0  0  0  3  0  0  0  0  0  0
  187.1580  178.4490  141.6750 F   0  0  0  0  0  0  0  0  0  0  0  0
  1 14  1  0  0  0  0
  1 17  1  0  0  0  0
  2  7  2  0  0  0  0
  2 11  1  0  0  0  0
  4 11  1  0  0  0  0
  4 16  2  0  0  0  0
  8 18  1  0  0  0  0
  9 10  2  0  0  0  0
 10 22  1  0  0  0  0
 10  3  1  0  0  0  0
 11  1  2  0  0  0  0
 12  3  1  0  0  0  0
 12 19  1  0  0  0  0
 13  5  1  6  0  0  0
 15 18  1  0  0  0  0
 16 21  1  0  0  0  0
 17  6  1  0  0  0  0
 18  2  1  0  0  0  0
 19 23  1  6  0  0  0
 19 13  1  0  0  0  0
 20  8  1  6  0  0  0
 20 13  1  0  0  0  0
 20  4  1  0  0  0  0
 21 17  2  0  0  0  0
 22 15  1  0  0  0  0
 23 24  1  0  0  0  0
 25 23  1  0  0  0  0
 27 16  1  0  0  0  0
 27 26  1  1  0  0  0
 28 29  2  0  0  0  0
 28 32  1  0  0  0  0
 29 31  1  0  0  0  0
 30 33  1  0  0  0  0
 30 27  1  0  0  0  0
 31 33  2  0  0  0  0
 32 30  2  0  0  0  0
 34 28  1  0  0  0  0
M  END
>  <MODEL>
3

>  <REMARK>
 VINA RESULT:      -7.7      2.264      5.364
  Name = 
  3 active torsions:
  status: ('A' for Active; 'I' for Inactive)
    1  A    between atoms: C_12  and  C_28
    2  A    between atoms: C_13  and  C_29
    3  A    between atoms: C_21  and  C_28
                            x       y       z     vdW  Elec       q    Type
                         _______ _______ _______ _____ _____    ______ ____

>  <TORSDO>
F 3

$$$$
=
 OpenBabel11052418433D

 34 37  0  0  1  0  0  0  0  0999 V2000
  192.9500  176.8070  146.7080 C   0  0  0  0  0  0  0  0  0  0  0  0
  193.4820  175.9800  144.3720 C   0  0  0  0  0  0  0  0  0  0  0  0
  193.1690  172.1870  142.6050 O   0  0  0  0  0  0  0  0  0  0  0  0
  191.2690  175.6420  145.3790 C   0  0  0  0  0  0  0  0  0  0  0  0
  192.2220  172.9800  144.9550 O   0  0  0  0  0  1  0  0  0  0  0  0
  192.3740  177.6070  148.9160 O   0  0  0  0  0  1  0  0  0  0  0  0
  194.7080  176.2690  144.4490 O   0  0  0  0  0  0  0  0  0  0  0  0
  191.5730  175.4540  142.9710 O   0  0  0  0  0  0  0  0  0  0  0  0
  193.1840  172.7820  140.3010 C   0  0  0  0  0  2  0  0  0  0  0  0
  193.6020  172.9830  141.5470 C   0  0  0  0  0  0  0  0  0  0  0  0
  192.5750  176.1490  145.5210 C   0  0  0  0  0  0  0  0  0  0  0  0
  191.9180  171.5100  142.6200 C   0  0  0  0  0  2  0  0  0  0  0  0
  191.0720  173.3560  144.2510 C   0  0  2  0  0  3  0  0  0  0  0  0
  194.2340  177.3150  146.8710 O   0  0  0  0  0  1  0  0  0  0  0  0
  193.7590  175.4080  141.9550 C   0  0  0  0  0  2  0  0  0  0  0  0
  190.3280  175.8170  146.4210 C   0  0  0  0  0  0  0  0  0  0  0  0
  192.0160  176.9630  147.7400 C   0  0  0  0  0  0  0  0  0  0  0  0
  192.9290  175.4490  143.1550 N   0  0  0  0  0  0  0  0  0  0  0  0
  190.7710  172.4580  143.0170 C   0  0  1  0  0  3  0  0  0  0  0  0
  190.9370  174.8880  144.1080 C   0  0  1  0  0  3  0  0  0  0  0  0
  190.7180  176.4760  147.5900 C   0  0  0  0  0  3  0  0  0  0  0  0
  194.5330  174.1030  141.8470 C   0  0  0  0  0  2  0  0  0  0  0  0
  190.0880  173.1490  141.8210 C   0  0  0  0  0  3  0  0  0  0  0  0
  188.6950  173.6200  142.1970 C   0  0  0  0  0  1  0  0  0  0  0  0
  189.9470  172.2060  140.6360 C   0  0  0  0  0  1  0  0  0  0  0  0
  188.5340  174.4760  147.5530 C   0  0  0  0  0  1  0  0  0  0  0  0
  188.9030  175.3370  146.3500 C   0  0  1  0  0  3  0  0  0  0  0  0
  186.0950  177.8760  146.7450 C   0  0  0  0  0  0  0  0  0  0  0  0
  186.0720  178.4830  145.4870 C   0  0  0  0  0  3  0  0  0  0  0  0
  187.9130  176.4310  146.0270 C   0  0  0  0  0  0  0  0  0  0  0  0
  186.9730  178.0760  144.5000 C   0  0  0  0  0  3  0  0  0  0  0  0
  187.0150  176.8600  147.0150 C   0  0  0  0  0  3  0  0  0  0  0  0
  187.8920  177.0590  144.7700 C   0  0  0  0  0  3  0  0  0  0  0  0
  185.2250  178.2740  147.7040 F   0  0  0  0  0  0  0  0  0  0  0  0
  1 14  1  0  0  0  0
  1 17  1  0  0  0  0
  2  7  2  0  0  0  0
  2 11  1  0  0  0  0
  3 12  1  0  0  0  0
  4 11  1  0  0  0  0
  4 16  2  0  0  0  0
  8 18  1  0  0  0  0
  9 10  2  0  0  0  0
 10 22  1  0  0  0  0
 10  3  1  0  0  0  0
 11  1  2  0  0  0  0
 12 19  1  0  0  0  0
 13  5  1  6  0  0  0
 15 18  1  0  0  0  0
 16 21  1  0  0  0  0
 17  6  1  0  0  0  0
 18  2  1  0  0  0  0
 19 23  1  6  0  0  0
 19 13  1  0  0  0  0
 20  8  1  6  0  0  0
 20 13  1  0  0  0  0
 20  4  1  0  0  0  0
 21 17  2  0  0  0  0
 22 15  1  0  0  0  0
 23 24  1  0  0  0  0
 25 23  1  0  0  0  0
 27 16  1  0  0  0  0
 27 26  1  1  0  0  0
 28 32  1  0  0  0  0
 28 34  1  0  0  0  0
 29 28  2  0  0  0  0
 30 27  1  0  0  0  0
 30 32  2  0  0  0  0
 31 33  2  0  0  0  0
 31 29  1  0  0  0  0
 33 30  1  0  0  0  0
M  END
>  <MODEL>
4

>  <REMARK>
 VINA RESULT:      -7.5      2.103      5.188
  Name = 
  3 active torsions:
  status: ('A' for Active; 'I' for Inactive)
    1  A    between atoms: C_12  and  C_28
    2  A    between atoms: C_13  and  C_29
    3  A    between atoms: C_21  and  C_28
                            x       y       z     vdW  Elec       q    Type
                         _______ _______ _______ _____ _____    ______ ____

>  <TORSDO>
F 3

$$$$
=
 OpenBabel11052418433D

 34 37  0  0  1  0  0  0  0  0999 V2000
  189.2520  174.5600  140.9160 C   0  0  0  0  0  0  0  0  0  0  0  0
  191.3140  173.2180  141.5290 C   0  0  0  0  0  0  0  0  0  0  0  0
  195.2900  174.3560  142.2330 O   0  0  0  0  0  0  0  0  0  0  0  0
  190.5760  175.1260  142.8850 C   0  0  0  0  0  0  0  0  0  0  0  0
  193.1630  175.9220  141.9650 O   0  0  0  0  0  1  0  0  0  0  0  0
  187.2740  175.8530  140.4020 O   0  0  0  0  0  1  0  0  0  0  0  0
  191.2910  172.5280  140.4730 O   0  0  0  0  0  0  0  0  0  0  0  0
  192.1110  173.4760  143.8050 O   0  0  0  0  0  0  0  0  0  0  0  0
  196.0730  172.4620  143.4410 C   0  0  0  0  0  2  0  0  0  0  0  0
  195.3140  172.9860  142.4830 C   0  0  0  0  0  0  0  0  0  0  0  0
  190.3580  174.3180  141.7540 C   0  0  0  0  0  0  0  0  0  0  0  0
  195.5700  175.3430  143.2190 C   0  0  0  0  0  2  0  0  0  0  0  0
  193.0060  175.7740  143.3480 C   0  0  2  0  0  3  0  0  0  0  0  0
  189.0180  173.7750  139.7930 O   0  0  0  0  0  1  0  0  0  0  0  0
  193.1590  171.7940  142.4310 C   0  0  0  0  0  2  0  0  0  0  0  0
  189.6680  176.1660  143.1930 C   0  0  0  0  0  0  0  0  0  0  0  0
  188.3670  175.6010  141.2200 C   0  0  0  0  0  0  0  0  0  0  0  0
  192.2960  172.9660  142.5490 N   0  0  0  0  0  0  0  0  0  0  0  0
  194.3470  175.6030  144.1170 C   0  0  1  0  0  3  0  0  0  0  0  0
  191.8150  174.8620  143.7160 C   0  0  1  0  0  3  0  0  0  0  0  0
  188.5740  176.3900  142.3520 C   0  0  0  0  0  3  0  0  0  0  0  0
  194.4360  172.1080  141.6670 C   0  0  0  0  0  2  0  0  0  0  0  0
  194.3000  174.7250  145.3820 C   0  0  0  0  0  3  0  0  0  0  0  0
  193.4190  175.3580  146.4440 C   0  0  0  0  0  1  0  0  0  0  0  0
  195.6840  174.5410  145.9870 C   0  0  0  0  0  1  0  0  0  0  0  0
  190.4500  178.3960  144.0390 C   0  0  0  0  0  1  0  0  0  0  0  0
  189.8000  177.0640  144.3950 C   0  0  1  0  0  3  0  0  0  0  0  0
  186.3980  178.2730  145.6000 C   0  0  0  0  0  0  0  0  0  0  0  0
  186.1410  177.4060  146.6650 C   0  0  0  0  0  3  0  0  0  0  0  0
  188.5310  177.1750  145.2060 C   0  0  0  0  0  0  0  0  0  0  0  0
  187.0690  176.4160  146.9980 C   0  0  0  0  0  3  0  0  0  0  0  0
  187.5840  178.1540  144.8700 C   0  0  0  0  0  3  0  0  0  0  0  0
  188.2550  176.2980  146.2690 C   0  0  0  0  0  3  0  0  0  0  0  0
  185.4950  179.2290  145.2730 F   0  0  0  0  0  0  0  0  0  0  0  0
  1 17  2  0  0  0  0
  1 11  1  0  0  0  0
  2 11  1  0  0  0  0
  2 18  1  0  0  0  0
  3 10  1  0  0  0  0
  3 12  1  0  0  0  0
  4 16  1  0  0  0  0
  6 17  1  0  0  0  0
  7  2  2  0  0  0  0
 10  9  2  0  0  0  0
 11  4  2  0  0  0  0
 12 19  1  0  0  0  0
 13  5  1  6  0  0  0
 13 20  1  0  0  0  0
 13 19  1  0  0  0  0
 14  1  1  0  0  0  0
 15 18  1  0  0  0  0
 16 27  1  0  0  0  0
 17 21  1  0  0  0  0
 18  8  1  0  0  0  0
 19 23  1  1  0  0  0
 20  4  1  6  0  0  0
 20  8  1  0  0  0  0
 21 16  2  0  0  0  0
 22 15  1  0  0  0  0
 22 10  1  0  0  0  0
 23 25  1  0  0  0  0
 23 24  1  0  0  0  0
 27 26  1  6  0  0  0
 27 30  1  0  0  0  0
 28 29  1  0  0  0  0
 29 31  2  0  0  0  0
 30 33  2  0  0  0  0
 32 30  1  0  0  0  0
 32 28  2  0  0  0  0
 33 31  1  0  0  0  0
 34 28  1  0  0  0  0
M  END
>  <MODEL>
5

>  <REMARK>
 VINA RESULT:      -7.4      1.501      1.949
  Name = 
  3 active torsions:
  status: ('A' for Active; 'I' for Inactive)
    1  A    between atoms: C_12  and  C_28
    2  A    between atoms: C_13  and  C_29
    3  A    between atoms: C_21  and  C_28
                            x       y       z     vdW  Elec       q    Type
                         _______ _______ _______ _____ _____    ______ ____

>  <TORSDO>
F 3

$$$$
=
 OpenBabel11052418433D

 34 37  0  0  1  0  0  0  0  0999 V2000
  189.5560  173.8050  140.7590 C   0  0  0  0  0  0  0  0  0  0  0  0
  191.5540  172.5600  141.6980 C   0  0  0  0  0  0  0  0  0  0  0  0
  195.5180  173.7460  142.3970 O   0  0  0  0  0  0  0  0  0  0  0  0
  190.7970  174.6850  142.6650 C   0  0  0  0  0  0  0  0  0  0  0  0
  193.4420  175.2720  141.7550 O   0  0  0  0  0  1  0  0  0  0  0  0
  187.6350  175.0170  139.9290 O   0  0  0  0  0  1  0  0  0  0  0  0
  191.5670  171.6980  140.7770 O   0  0  0  0  0  0  0  0  0  0  0  0
  192.2480  173.1980  143.9330 O   0  0  0  0  0  0  0  0  0  0  0  0
  196.1980  172.0790  143.9530 C   0  0  0  0  0  2  0  0  0  0  0  0
  195.4980  172.4400  142.8810 C   0  0  0  0  0  0  0  0  0  0  0  0
  190.6150  173.6960  141.6810 C   0  0  0  0  0  0  0  0  0  0  0  0
  195.7730  174.8840  143.2110 C   0  0  0  0  0  2  0  0  0  0  0  0
  193.2160  175.3690  143.1320 C   0  0  2  0  0  3  0  0  0  0  0  0
  189.3580  172.8400  139.7770 O   0  0  0  0  0  1  0  0  0  0  0  0
  193.3210  171.2880  142.9260 C   0  0  0  0  0  2  0  0  0  0  0  0
  189.8990  175.7760  142.7420 C   0  0  0  0  0  0  0  0  0  0  0  0
  188.6810  174.8960  140.8330 C   0  0  0  0  0  0  0  0  0  0  0  0
  192.4810  172.4740  142.7950 N   0  0  0  0  0  0  0  0  0  0  0  0
  194.5150  175.3140  143.9870 C   0  0  1  0  0  3  0  0  0  0  0  0
  191.9880  174.5520  143.5910 C   0  0  1  0  0  3  0  0  0  0  0  0
  188.8520  175.8660  141.8200 C   0  0  0  0  0  3  0  0  0  0  0  0
  194.6400  171.4460  142.1850 C   0  0  0  0  0  2  0  0  0  0  0  0
  194.3880  174.6690  145.3800 C   0  0  0  0  0  3  0  0  0  0  0  0
  193.5190  175.5210  146.2890 C   0  0  0  0  0  1  0  0  0  0  0  0
  195.7430  174.5200  146.0540 C   0  0  0  0  0  1  0  0  0  0  0  0
  189.9920  178.2520  143.1410 C   0  0  0  0  0  1  0  0  0  0  0  0
  189.9940  176.8660  143.7760 C   0  0  1  0  0  3  0  0  0  0  0  0
  188.3860  175.5130  146.9490 C   0  0  0  0  0  0  0  0  0  0  0  0
  187.2760  176.3490  147.0920 C   0  0  0  0  0  3  0  0  0  0  0  0
  189.0280  176.6940  144.9240 C   0  0  0  0  0  0  0  0  0  0  0  0
  187.0430  177.3640  146.1620 C   0  0  0  0  0  3  0  0  0  0  0  0
  189.2610  175.6890  145.8740 C   0  0  0  0  0  3  0  0  0  0  0  0
  187.9160  177.5390  145.0860 C   0  0  0  0  0  3  0  0  0  0  0  0
  188.6150  174.5320  147.8560 F   0  0  0  0  0  0  0  0  0  0  0  0
  1 17  2  0  0  0  0
  1 11  1  0  0  0  0
  2 18  1  0  0  0  0
  3 10  1  0  0  0  0
  3 12  1  0  0  0  0
  4 16  1  0  0  0  0
  6 17  1  0  0  0  0
  7  2  2  0  0  0  0
 10  9  2  0  0  0  0
 11  2  1  0  0  0  0
 11  4  2  0  0  0  0
 12 19  1  0  0  0  0
 13  5  1  6  0  0  0
 13 20  1  0  0  0  0
 13 19  1  0  0  0  0
 14  1  1  0  0  0  0
 16 27  1  0  0  0  0
 17 21  1  0  0  0  0
 18 15  1  0  0  0  0
 18  8  1  0  0  0  0
 19 23  1  1  0  0  0
 20  4  1  6  0  0  0
 20  8  1  0  0  0  0
 21 16  2  0  0  0  0
 22 10  1  0  0  0  0
 22 15  1  0  0  0  0
 23 25  1  0  0  0  0
 23 24  1  0  0  0  0
 27 26  1  6  0  0  0
 27 30  1  0  0  0  0
 28 29  1  0  0  0  0
 28 34  1  0  0  0  0
 30 33  2  0  0  0  0
 30 32  1  0  0  0  0
 31 29  2  0  0  0  0
 32 28  2  0  0  0  0
 33 31  1  0  0  0  0
M  END
>  <MODEL>
6

>  <REMARK>
 VINA RESULT:      -7.4      1.304      1.581
  Name = 
  3 active torsions:
  status: ('A' for Active; 'I' for Inactive)
    1  A    between atoms: C_12  and  C_28
    2  A    between atoms: C_13  and  C_29
    3  A    between atoms: C_21  and  C_28
                            x       y       z     vdW  Elec       q    Type
                         _______ _______ _______ _____ _____    ______ ____

>  <TORSDO>
F 3

$$$$
=
 OpenBabel11052418433D

 34 37  0  0  1  0  0  0  0  0999 V2000
  193.6840  176.2400  145.0970 C   0  0  0  0  0  0  0  0  0  0  0  0
  193.7300  175.3570  142.7210 C   0  0  0  0  0  0  0  0  0  0  0  0
  192.8390  171.5840  141.1170 O   0  0  0  0  0  0  0  0  0  0  0  0
  191.7140  175.1900  144.1120 C   0  0  0  0  0  0  0  0  0  0  0  0
  192.3860  172.4630  143.5810 O   0  0  0  0  0  1  0  0  0  0  0  0
  193.5700  177.0970  147.3550 O   0  0  0  0  0  1  0  0  0  0  0  0
  194.9670  175.5560  142.5730 O   0  0  0  0  0  0  0  0  0  0  0  0
  191.5690  174.9620  141.6930 O   0  0  0  0  0  0  0  0  0  0  0  0
  192.4840  172.1590  138.8350 C   0  0  0  0  0  2  0  0  0  0  0  0
  193.1310  172.3380  139.9830 C   0  0  0  0  0  0  0  0  0  0  0  0
  193.0570  175.6020  144.0090 C   0  0  0  0  0  0  0  0  0  0  0  0
  191.5660  171.0010  141.3680 C   0  0  0  0  0  2  0  0  0  0  0  0
  191.1580  172.9160  143.0850 C   0  0  2  0  0  3  0  0  0  0  0  0
  195.0090  176.6540  145.0180 O   0  0  0  0  0  1  0  0  0  0  0  0
  193.5290  174.7480  140.3050 C   0  0  0  0  0  2  0  0  0  0  0  0
  190.9900  175.4430  145.3000 C   0  0  0  0  0  0  0  0  0  0  0  0
  192.9630  176.4710  146.2750 C   0  0  0  0  0  0  0  0  0  0  0  0
  192.9320  174.8590  141.6330 N   0  0  0  0  0  0  0  0  0  0  0  0
  190.5780  172.0330  141.9430 C   0  0  1  0  0  3  0  0  0  0  0  0
  191.1080  174.4530  142.9360 C   0  0  1  0  0  3  0  0  0  0  0  0
  191.6280  176.0800  146.3680 C   0  0  0  0  0  3  0  0  0  0  0  0
  194.1770  173.3890  140.0890 C   0  0  0  0  0  2  0  0  0  0  0  0
  189.7430  172.7630  140.8730 C   0  0  0  0  0  3  0  0  0  0  0  0
  188.4100  173.2100  141.4450 C   0  0  0  0  0  1  0  0  0  0  0  0
  189.4510  171.8650  139.6810 C   0  0  0  0  0  1  0  0  0  0  0  0
  189.3100  174.3860  146.8380 C   0  0  0  0  0  1  0  0  0  0  0  0
  189.5440  175.0670  145.4940 C   0  0  1  0  0  3  0  0  0  0  0  0
  186.9400  177.8060  145.9440 C   0  0  0  0  0  0  0  0  0  0  0  0
  186.8020  178.2940  144.6430 C   0  0  0  0  0  3  0  0  0  0  0  0
  188.5830  176.1880  145.1760 C   0  0  0  0  0  0  0  0  0  0  0  0
  187.5590  177.7410  143.6070 C   0  0  0  0  0  3  0  0  0  0  0  0
  187.8300  176.7630  146.2110 C   0  0  0  0  0  3  0  0  0  0  0  0
  188.4490  176.6970  143.8730 C   0  0  0  0  0  3  0  0  0  0  0  0
  186.2100  178.3460  146.9500 F   0  0  0  0  0  0  0  0  0  0  0  0
  1 17  1  0  0  0  0
  2 11  1  0  0  0  0
  3 12  1  0  0  0  0
  4 16  2  0  0  0  0
  7  2  2  0  0  0  0
  9 10  2  0  0  0  0
 10 22  1  0  0  0  0
 10  3  1  0  0  0  0
 11  4  1  0  0  0  0
 11  1  2  0  0  0  0
 12 19  1  0  0  0  0
 13  5  1  6  0  0  0
 14  1  1  0  0  0  0
 15 18  1  0  0  0  0
 16 27  1  0  0  0  0
 16 21  1  0  0  0  0
 17 21  2  0  0  0  0
 17  6  1  0  0  0  0
 18  8  1  0  0  0  0
 18  2  1  0  0  0  0
 19 23  1  6  0  0  0
 19 13  1  0  0  0  0
 20  8  1  6  0  0  0
 20 13  1  0  0  0  0
 20  4  1  0  0  0  0
 22 15  1  0  0  0  0
 23 24  1  0  0  0  0
 25 23  1  0  0  0  0
 27 26  1  1  0  0  0
 28 32  1  0  0  0  0
 28 34  1  0  0  0  0
 29 28  2  0  0  0  0
 30 27  1  0  0  0  0
 30 32  2  0  0  0  0
 31 33  2  0  0  0  0
 31 29  1  0  0  0  0
 33 30  1  0  0  0  0
M  END
>  <MODEL>
7

>  <REMARK>
 VINA RESULT:      -7.3      2.023      5.200
  Name = 
  3 active torsions:
  status: ('A' for Active; 'I' for Inactive)
    1  A    between atoms: C_12  and  C_28
    2  A    between atoms: C_13  and  C_29
    3  A    between atoms: C_21  and  C_28
                            x       y       z     vdW  Elec       q    Type
                         _______ _______ _______ _____ _____    ______ ____

>  <TORSDO>
F 3

$$$$
=
 OpenBabel11052418433D

 34 37  0  0  1  0  0  0  0  0999 V2000
  194.0920  172.7770  143.9410 C   0  0  0  0  0  0  0  0  0  0  0  0
  192.5860  172.8280  141.9020 C   0  0  0  0  0  0  0  0  0  0  0  0
  188.4090  172.8500  141.5060 O   0  0  0  0  0  0  0  0  0  0  0  0
  192.3780  174.4950  143.6920 C   0  0  0  0  0  0  0  0  0  0  0  0
  189.8450  173.1720  143.7170 O   0  0  0  0  0  1  0  0  0  0  0  0
  195.5250  172.8010  145.8890 O   0  0  0  0  0  1  0  0  0  0  0  0
  193.0100  171.7300  141.4480 O   0  0  0  0  0  0  0  0  0  0  0  0
  191.4230  174.9170  141.4940 O   0  0  0  0  0  0  0  0  0  0  0  0
  188.1910  173.6760  139.2850 C   0  0  0  0  0  2  0  0  0  0  0  0
  188.8430  172.9460  140.1860 C   0  0  0  0  0  0  0  0  0  0  0  0
  193.0370  173.3500  143.2050 C   0  0  0  0  0  0  0  0  0  0  0  0
  187.6510  173.8600  142.1610 C   0  0  0  0  0  2  0  0  0  0  0  0
  189.8390  174.5360  143.4000 C   0  0  2  0  0  3  0  0  0  0  0  0
  194.7560  171.6460  143.4790 O   0  0  0  0  0  1  0  0  0  0  0  0
  191.2650  173.1950  139.8130 C   0  0  0  0  0  2  0  0  0  0  0  0
  192.7960  175.0830  144.9090 C   0  0  0  0  0  0  0  0  0  0  0  0
  194.4880  173.3570  145.1520 C   0  0  0  0  0  0  0  0  0  0  0  0
  191.6220  173.6020  141.1680 N   0  0  0  0  0  0  0  0  0  0  0  0
  188.5510  175.0040  142.6630 C   0  0  1  0  0  3  0  0  0  0  0  0
  191.2100  175.0330  142.8930 C   0  0  1  0  0  3  0  0  0  0  0  0
  193.8470  174.5020  145.6240 C   0  0  0  0  0  3  0  0  0  0  0  0
  190.0890  172.2310  139.8030 C   0  0  0  0  0  2  0  0  0  0  0  0
  188.7240  176.1530  141.6520 C   0  0  0  0  0  3  0  0  0  0  0  0
  189.0990  177.4410  142.3640 C   0  0  0  0  0  1  0  0  0  0  0  0
  187.4410  176.4160  140.8780 C   0  0  0  0  0  1  0  0  0  0  0  0
  192.2880  177.5150  144.5530 C   0  0  0  0  0  1  0  0  0  0  0  0
  192.1740  176.3230  145.4960 C   0  0  1  0  0  3  0  0  0  0  0  0
  188.5090  176.8690  146.3680 C   0  0  0  0  0  0  0  0  0  0  0  0
  188.2000  175.7020  147.0710 C   0  0  0  0  0  3  0  0  0  0  0  0
  190.7920  176.0930  146.0620 C   0  0  0  0  0  0  0  0  0  0  0  0
  189.1780  174.7230  147.2630 C   0  0  0  0  0  3  0  0  0  0  0  0
  189.7970  177.0610  145.8610 C   0  0  0  0  0  3  0  0  0  0  0  0
  190.4670  174.9160  146.7570 C   0  0  0  0  0  3  0  0  0  0  0  0
  187.5590  177.8150  146.1760 F   0  0  0  0  0  0  0  0  0  0  0  0
  1 17  1  0  0  0  0
  2 11  1  0  0  0  0
  3 12  1  0  0  0  0
  4 16  2  0  0  0  0
  7  2  2  0  0  0  0
  9 10  2  0  0  0  0
 10  3  1  0  0  0  0
 11  4  1  0  0  0  0
 11  1  2  0  0  0  0
 12 19  1  0  0  0  0
 13  5  1  6  0  0  0
 14  1  1  0  0  0  0
 15 18  1  0  0  0  0
 16 27  1  0  0  0  0
 16 21  1  0  0  0  0
 17 21  2  0  0  0  0
 17  6  1  0  0  0  0
 18  8  1  0  0  0  0
 18  2  1  0  0  0  0
 19 23  1  6  0  0  0
 19 13  1  0  0  0  0
 20  8  1  6  0  0  0
 20 13  1  0  0  0  0
 20  4  1  0  0  0  0
 22 15  1  0  0  0  0
 22 10  1  0  0  0  0
 23 24  1  0  0  0  0
 25 23  1  0  0  0  0
 27 26  1  6  0  0  0
 27 30  1  0  0  0  0
 28 29  1  0  0  0  0
 29 31  2  0  0  0  0
 30 33  2  0  0  0  0
 32 30  1  0  0  0  0
 32 28  2  0  0  0  0
 33 31  1  0  0  0  0
 34 28  1  0  0  0  0
M  END
>  <MODEL>
8

>  <REMARK>
 VINA RESULT:      -7.1      1.824      5.364
  Name = 
  3 active torsions:
  status: ('A' for Active; 'I' for Inactive)
    1  A    between atoms: C_12  and  C_28
    2  A    between atoms: C_13  and  C_29
    3  A    between atoms: C_21  and  C_28
                            x       y       z     vdW  Elec       q    Type
                         _______ _______ _______ _____ _____    ______ ____

>  <TORSDO>
F 3

$$$$
=
 OpenBabel11052418433D

 34 37  0  0  1  0  0  0  0  0999 V2000
  194.3650  175.3900  145.2380 C   0  0  0  0  0  0  0  0  0  0  0  0
  191.9770  175.6040  146.0620 C   0  0  0  0  0  0  0  0  0  0  0  0
  188.7690  177.9790  144.7680 O   0  0  0  0  0  0  0  0  0  0  0  0
  192.4830  175.0900  143.7160 C   0  0  0  0  0  0  0  0  0  0  0  0
  191.1070  177.5910  143.5690 O   0  0  0  0  0  1  0  0  0  0  0  0
  196.6210  175.1380  144.4040 O   0  0  0  0  0  1  0  0  0  0  0  0
  192.3120  176.0010  147.2120 O   0  0  0  0  0  0  0  0  0  0  0  0
  190.2700  174.6500  144.6280 O   0  0  0  0  0  0  0  0  0  0  0  0
  186.9420  176.7910  145.7220 C   0  0  0  0  0  2  0  0  0  0  0  0
  188.1980  177.2210  145.7880 C   0  0  0  0  0  0  0  0  0  0  0  0
  192.9770  175.3710  145.0040 C   0  0  0  0  0  0  0  0  0  0  0  0
  188.3540  177.9110  143.4090 C   0  0  0  0  0  2  0  0  0  0  0  0
  190.4920  176.4990  142.9480 C   0  0  2  0  0  3  0  0  0  0  0  0
  194.8750  175.6660  146.5020 O   0  0  0  0  0  1  0  0  0  0  0  0
  189.5930  175.4580  146.7960 C   0  0  0  0  0  2  0  0  0  0  0  0
  193.3840  174.8030  142.6640 C   0  0  0  0  0  0  0  0  0  0  0  0
  195.2500  175.1190  144.1870 C   0  0  0  0  0  0  0  0  0  0  0  0
  190.5940  175.3830  145.7360 N   0  0  0  0  0  0  0  0  0  0  0  0
  188.9700  176.6960  142.6930 C   0  0  1  0  0  3  0  0  0  0  0  0
  190.9840  175.1450  143.5050 C   0  0  1  0  0  3  0  0  0  0  0  0
  194.7590  174.8240  142.9160 C   0  0  0  0  0  3  0  0  0  0  0  0
  189.0450  176.8670  146.9580 C   0  0  0  0  0  2  0  0  0  0  0  0
  188.0990  175.4260  142.7510 C   0  0  0  0  0  3  0  0  0  0  0  0
  188.3550  174.5430  141.5430 C   0  0  0  0  0  1  0  0  0  0  0  0
  186.6160  175.7660  142.7630 C   0  0  0  0  0  1  0  0  0  0  0  0
  194.0620  174.7200  140.2480 C   0  0  0  0  0  1  0  0  0  0  0  0
  192.9520  174.4630  141.2610 C   0  0  1  0  0  3  0  0  0  0  0  0
  190.5770  171.7070  140.1440 C   0  0  0  0  0  0  0  0  0  0  0  0
  191.0380  170.6110  140.8760 C   0  0  0  0  0  3  0  0  0  0  0  0
  192.2890  173.1110  141.1470 C   0  0  0  0  0  0  0  0  0  0  0  0
  192.1290  170.7550  141.7370 C   0  0  0  0  0  3  0  0  0  0  0  0
  191.2030  172.9490  140.2730 C   0  0  0  0  0  3  0  0  0  0  0  0
  192.7540  171.9980  141.8680 C   0  0  0  0  0  3  0  0  0  0  0  0
  189.5230  171.5650  139.3040 F   0  0  0  0  0  0  0  0  0  0  0  0
  1 14  1  0  0  0  0
  2  7  2  0  0  0  0
  3 10  1  0  0  0  0
  4 11  2  0  0  0  0
  8 18  1  0  0  0  0
  9 10  2  0  0  0  0
 10 22  1  0  0  0  0
 11  1  1  0  0  0  0
 11  2  1  0  0  0  0
 12  3  1  0  0  0  0
 13 20  1  0  0  0  0
 13  5  1  1  0  0  0
 15 22  1  0  0  0  0
 16 21  2  0  0  0  0
 16  4  1  0  0  0  0
 17  6  1  0  0  0  0
 17  1  2  0  0  0  0
 18  2  1  0  0  0  0
 18 15  1  0  0  0  0
 19 23  1  1  0  0  0
 19 13  1  0  0  0  0
 19 12  1  0  0  0  0
 20  4  1  1  0  0  0
 20  8  1  0  0  0  0
 21 17  1  0  0  0  0
 23 25  1  0  0  0  0
 24 23  1  0  0  0  0
 27 26  1  6  0  0  0
 27 16  1  0  0  0  0
 28 32  2  0  0  0  0
 28 29  1  0  0  0  0
 29 31  2  0  0  0  0
 30 27  1  0  0  0  0
 30 33  2  0  0  0  0
 31 33  1  0  0  0  0
 32 30  1  0  0  0  0
 34 28  1  0  0  0  0
M  END
>  <MODEL>
9

>  <REMARK>
 VINA RESULT:      -7.1      2.737      6.730
  Name = 
  3 active torsions:
  status: ('A' for Active; 'I' for Inactive)
    1  A    between atoms: C_12  and  C_28
    2  A    between atoms: C_13  and  C_29
    3  A    between atoms: C_21  and  C_28
                            x       y       z     vdW  Elec       q    Type
                         _______ _______ _______ _____ _____    ______ ____

>  <TORSDO>
F 3

$$$$
