=
 OpenBabel11052417223D

 30 34  0  0  1  0  0  0  0  0999 V2000
  190.3360  175.7360  144.0560 C   0  0  2  0  0  3  0  0  0  0  0  0
  192.1570  172.4610  144.4850 C   0  0  2  0  0  3  0  0  0  0  0  0
  192.2650  176.4860  146.0440 C   0  0  0  0  0  2  0  0  0  0  0  0
  188.8530  175.5770  144.4470 C   0  0  2  0  0  3  0  0  0  0  0  0
  190.5080  175.8000  142.6670 O   0  0  0  0  0  1  0  0  0  0  0  0
  185.3030  176.6210  146.4510 C   0  0  0  0  0  3  0  0  0  0  0  0
  188.8740  176.7070  146.7700 C   0  0  1  0  0  3  0  0  0  0  0  0
  190.3060  177.2430  146.7160 C   0  0  0  0  0  2  0  0  0  0  0  0
  188.0500  176.7930  143.9210 C   0  0  2  0  0  3  0  0  0  0  0  0
  192.3520  171.3920  143.6140 O   0  0  0  0  0  1  0  0  0  0  0  0
  187.9280  177.8180  146.2760 C   0  0  2  0  0  3  0  0  0  0  0  0
  185.9640  177.1540  147.6930 C   0  0  0  0  0  2  0  0  0  0  0  0
  191.4040  173.5710  143.7670 C   0  0  0  0  0  2  0  0  0  0  0  0
  192.4680  175.2790  145.1120 C   0  0  2  0  0  3  0  0  0  0  0  0
  193.5050  172.9940  144.9460 C   0  0  0  0  0  2  0  0  0  0  0  0
  191.1820  174.7010  144.6780 N   0  0  1  0  0  0  0  0  0  0  0  0
  189.3050  174.3090  146.5200 O   0  0  0  0  0  1  0  0  0  0  0  0
  191.2530  176.2490  146.9820 O   0  0  0  0  0  0  0  0  0  0  0  0
  188.6460  175.4120  145.9700 C   0  0  2  0  0  3  0  0  0  0  0  0
  186.9680  178.2630  147.3780 C   0  0  0  0  0  2  0  0  0  0  0  0
  185.8590  176.7260  145.2350 C   0  0  0  0  0  3  0  0  0  0  0  0
  193.3130  174.2180  145.8330 C   0  0  1  0  0  3  0  0  0  0  0  0
  194.5660  174.7410  146.1600 O   0  0  0  0  0  1  0  0  0  0  0  0
  187.1500  177.4800  144.9800 C   0  0  2  0  0  3  0  0  0  0  0  0
  186.7330  177.6960  142.0020 C   0  0  1  0  0  3  0  0  0  0  0  0
  187.2870  176.4350  142.6460 C   0  0  1  0  0  3  0  0  0  0  0  0
  187.9730  177.0410  141.4380 C   0  0  0  0  0  2  0  0  0  0  0  0
  185.6320  177.3590  141.2170 O   0  0  0  0  0  0  0  0  0  0  0  0
  184.7560  178.4360  141.3570 C   0  0  0  0  0  2  0  0  0  0  0  0
  183.9130  178.2430  142.5990 C   0  0  0  0  0  1  0  0  0  0  0  0
  1  5  1  6  0  0  0
  1  4  1  0  0  0  0
  1 16  1  0  0  0  0
  2 10  1  6  0  0  0
  2 15  1  0  0  0  0
  3 18  1  0  0  0  0
  4 19  1  0  0  0  0
  6 12  1  0  0  0  0
  8  7  1  0  0  0  0
  8 18  1  0  0  0  0
  9  4  1  0  0  0  0
  9 24  1  0  0  0  0
 11  7  1  0  0  0  0
 11 20  1  0  0  0  0
 13  2  1  0  0  0  0
 13 16  1  0  0  0  0
 14 22  1  0  0  0  0
 14  3  1  0  0  0  0
 15 22  1  0  0  0  0
 16 14  1  0  0  0  0
 19 17  1  0  0  0  0
 19  7  1  0  0  0  0
 20 12  1  0  0  0  0
 21  6  2  0  0  0  0
 22 23  1  0  0  0  0
 24 21  1  0  0  0  0
 24 11  1  0  0  0  0
 25 26  1  0  0  0  0
 26  9  1  0  0  0  0
 27 25  1  0  0  0  0
 27 26  1  0  0  0  0
 28 29  1  0  0  0  0
 28 25  1  0  0  0  0
 29 30  1  0  0  0  0
M  END
>  <MODEL>
1

>  <REMARK>
 VINA RESULT:      -8.1      0.000      0.000
  Name = 
  3 active torsions:
  status: ('A' for Active; 'I' for Inactive)
    1  A    between atoms: C_6  and  O_21
    2  A    between atoms: C_8  and  C_13
    3  A    between atoms: C_9  and  O_21
                            x       y       z     vdW  Elec       q    Type
                         _______ _______ _______ _____ _____    ______ ____

>  <TORSDO>
F 3

$$$$
=
 OpenBabel11052417223D

 30 34  0  0  1  0  0  0  0  0999 V2000
  190.3690  175.7270  145.4240 C   0  0  2  0  0  3  0  0  0  0  0  0
  193.9710  176.7760  145.8070 C   0  0  2  0  0  3  0  0  0  0  0  0
  191.6390  173.8110  143.7050 C   0  0  0  0  0  2  0  0  0  0  0  0
  189.5400  176.8750  144.8140 C   0  0  2  0  0  3  0  0  0  0  0  0
  190.1290  175.5790  146.7960 O   0  0  0  0  0  1  0  0  0  0  0  0
  186.8240  178.5950  142.0990 C   0  0  0  0  0  3  0  0  0  0  0  0
  189.3060  176.0230  142.3850 C   0  0  1  0  0  3  0  0  0  0  0  0
  189.9180  174.6370  142.6020 C   0  0  0  0  0  2  0  0  0  0  0  0
  188.0320  176.5790  145.0070 C   0  0  2  0  0  3  0  0  0  0  0  0
  194.6410  177.4130  146.8490 O   0  0  0  0  0  1  0  0  0  0  0  0
  187.7790  175.9020  142.5380 C   0  0  2  0  0  3  0  0  0  0  0  0
  187.1970  177.7340  140.9220 C   0  0  0  0  0  2  0  0  0  0  0  0
  192.5260  176.5230  146.2120 C   0  0  0  0  0  2  0  0  0  0  0  0
  192.3960  174.5410  144.8280 C   0  0  2  0  0  3  0  0  0  0  0  0
  194.6430  175.4440  145.5090 C   0  0  0  0  0  2  0  0  0  0  0  0
  191.8050  175.8610  145.1170 N   0  0  1  0  0  0  0  0  0  0  0  0
  191.1920  177.4330  143.0610 O   0  0  0  0  0  1  0  0  0  0  0  0
  191.3140  174.6780  142.6550 O   0  0  0  0  0  0  0  0  0  0  0  0
  189.8560  177.1160  143.3190 C   0  0  2  0  0  3  0  0  0  0  0  0
  187.0590  176.2440  141.2350 C   0  0  0  0  0  2  0  0  0  0  0  0
  186.8600  178.1470  143.3620 C   0  0  0  0  0  3  0  0  0  0  0  0
  193.8720  174.6940  144.4290 C   0  0  1  0  0  3  0  0  0  0  0  0
  194.4540  173.4390  144.2460 O   0  0  0  0  0  1  0  0  0  0  0  0
  187.1780  176.7070  143.7190 C   0  0  2  0  0  3  0  0  0  0  0  0
  186.0240  176.9660  146.4380 C   0  0  1  0  0  3  0  0  0  0  0  0
  187.4610  177.3870  146.1720 C   0  0  1  0  0  3  0  0  0  0  0  0
  187.1370  176.4710  147.3340 C   0  0  0  0  0  2  0  0  0  0  0  0
  185.3530  178.0140  147.0670 O   0  0  0  0  0  0  0  0  0  0  0  0
  184.0820  178.0130  146.4950 C   0  0  0  0  0  2  0  0  0  0  0  0
  184.0480  178.9870  145.3360 C   0  0  0  0  0  1  0  0  0  0  0  0
  1  5  1  1  0  0  0
  2 13  1  0  0  0  0
  2 10  1  1  0  0  0
  3 14  1  0  0  0  0
  4  9  1  0  0  0  0
  4  1  1  0  0  0  0
  6 21  2  0  0  0  0
  7 11  1  0  0  0  0
  7  8  1  0  0  0  0
  7 19  1  0  0  0  0
  8 18  1  0  0  0  0
  9 26  1  0  0  0  0
 11 24  1  0  0  0  0
 12 20  1  0  0  0  0
 12  6  1  0  0  0  0
 14 16  1  0  0  0  0
 15  2  1  0  0  0  0
 16  1  1  0  0  0  0
 16 13  1  0  0  0  0
 17 19  1  0  0  0  0
 18  3  1  0  0  0  0
 19  4  1  0  0  0  0
 20 11  1  0  0  0  0
 21 24  1  0  0  0  0
 22 14  1  0  0  0  0
 22 15  1  0  0  0  0
 23 22  1  0  0  0  0
 24  9  1  0  0  0  0
 25 28  1  0  0  0  0
 25 27  1  0  0  0  0
 26 25  1  0  0  0  0
 26 27  1  0  0  0  0
 29 28  1  0  0  0  0
 30 29  1  0  0  0  0
M  END
>  <MODEL>
2

>  <REMARK>
 VINA RESULT:      -8.1      1.857      4.194
  Name = 
  3 active torsions:
  status: ('A' for Active; 'I' for Inactive)
    1  A    between atoms: C_6  and  O_21
    2  A    between atoms: C_8  and  C_13
    3  A    between atoms: C_9  and  O_21
                            x       y       z     vdW  Elec       q    Type
                         _______ _______ _______ _____ _____    ______ ____

>  <TORSDO>
F 3

$$$$
=
 OpenBabel11052417223D

 30 34  0  0  1  0  0  0  0  0999 V2000
  187.8340  175.2040  143.2330 C   0  0  2  0  0  3  0  0  0  0  0  0
  186.7530  177.8400  140.7630 C   0  0  2  0  0  3  0  0  0  0  0  0
  185.9250  176.6380  144.8260 C   0  0  0  0  0  2  0  0  0  0  0  0
  189.3410  175.3390  143.5340 C   0  0  2  0  0  3  0  0  0  0  0  0
  187.5630  174.1170  142.3920 O   0  0  0  0  0  1  0  0  0  0  0  0
  192.7230  175.6330  146.0190 C   0  0  0  0  0  3  0  0  0  0  0  0
  189.2390  176.4640  145.8580 C   0  0  1  0  0  3  0  0  0  0  0  0
  187.7260  176.3540  146.0650 C   0  0  0  0  0  2  0  0  0  0  0  0
  189.8420  174.0530  144.2370 C   0  0  2  0  0  3  0  0  0  0  0  0
  186.7250  177.8450  139.3700 O   0  0  0  0  0  1  0  0  0  0  0  0
  189.9030  175.2410  146.5170 C   0  0  2  0  0  3  0  0  0  0  0  0
  192.0490  176.3930  147.1290 C   0  0  0  0  0  2  0  0  0  0  0  0
  187.2150  176.4780  141.2580 C   0  0  0  0  0  2  0  0  0  0  0  0
  185.9130  176.6800  143.2880 C   0  0  2  0  0  3  0  0  0  0  0  0
  185.3580  178.1160  141.3000 C   0  0  0  0  0  2  0  0  0  0  0  0
  187.2600  176.4630  142.7250 N   0  0  1  0  0  0  0  0  0  0  0  0
  189.2930  177.7960  143.8030 O   0  0  0  0  0  1  0  0  0  0  0  0
  187.0230  177.3290  145.3520 O   0  0  0  0  0  0  0  0  0  0  0  0
  189.6740  176.5860  144.3870 C   0  0  2  0  0  3  0  0  0  0  0  0
  190.8210  175.6570  147.6650 C   0  0  0  0  0  2  0  0  0  0  0  0
  192.0810  174.7250  145.2710 C   0  0  0  0  0  3  0  0  0  0  0  0
  185.3510  178.0310  142.8210 C   0  0  1  0  0  3  0  0  0  0  0  0
  184.0420  178.1920  143.2790 O   0  0  0  0  0  1  0  0  0  0  0  0
  190.6490  174.3000  145.5370 C   0  0  2  0  0  3  0  0  0  0  0  0
  190.9270  171.8270  143.9280 C   0  0  1  0  0  3  0  0  0  0  0  0
  190.5770  173.1440  143.2540 C   0  0  1  0  0  3  0  0  0  0  0  0
  189.7560  171.9020  142.9740 C   0  0  0  0  0  2  0  0  0  0  0  0
  192.0210  171.2580  143.2770 O   0  0  0  0  0  0  0  0  0  0  0  0
  192.6950  170.5500  144.2710 C   0  0  0  0  0  2  0  0  0  0  0  0
  193.7440  171.4400  144.9030 C   0  0  0  0  0  1  0  0  0  0  0  0
  1  5  1  6  0  0  0
  1  4  1  0  0  0  0
  2 10  1  6  0  0  0
  2 13  1  0  0  0  0
  2 15  1  0  0  0  0
  3 18  1  0  0  0  0
  4  9  1  0  0  0  0
  4 19  1  0  0  0  0
  6 12  1  0  0  0  0
  7  8  1  0  0  0  0
  7 11  1  0  0  0  0
  9 24  1  0  0  0  0
 11 20  1  0  0  0  0
 12 20  1  0  0  0  0
 13 16  1  0  0  0  0
 14  3  1  0  0  0  0
 15 22  1  0  0  0  0
 16  1  1  0  0  0  0
 16 14  1  0  0  0  0
 17 19  1  0  0  0  0
 18  8  1  0  0  0  0
 19  7  1  0  0  0  0
 21 24  1  0  0  0  0
 21  6  2  0  0  0  0
 22 23  1  0  0  0  0
 22 14  1  0  0  0  0
 24 11  1  0  0  0  0
 26 25  1  0  0  0  0
 26  9  1  0  0  0  0
 27 26  1  0  0  0  0
 27 25  1  0  0  0  0
 28 25  1  0  0  0  0
 28 29  1  0  0  0  0
 29 30  1  0  0  0  0
M  END
>  <MODEL>
3

>  <REMARK>
 VINA RESULT:      -7.7      2.158      6.791
  Name = 
  3 active torsions:
  status: ('A' for Active; 'I' for Inactive)
    1  A    between atoms: C_6  and  O_21
    2  A    between atoms: C_8  and  C_13
    3  A    between atoms: C_9  and  O_21
                            x       y       z     vdW  Elec       q    Type
                         _______ _______ _______ _____ _____    ______ ____

>  <TORSDO>
F 3

$$$$
=
 OpenBabel11052417223D

 30 34  0  0  1  0  0  0  0  0999 V2000
  189.7500  174.1580  144.8930 C   0  0  2  0  0  3  0  0  0  0  0  0
  193.4250  173.3220  144.7460 C   0  0  2  0  0  3  0  0  0  0  0  0
  189.7010  171.9870  143.0150 C   0  0  0  0  0  2  0  0  0  0  0  0
  189.5110  175.6000  144.4050 C   0  0  2  0  0  3  0  0  0  0  0  0
  189.6480  174.0520  146.2870 O   0  0  0  0  0  1  0  0  0  0  0  0
  187.6430  178.5900  142.1070 C   0  0  0  0  0  3  0  0  0  0  0  0
  188.5840  175.1300  142.0400 C   0  0  1  0  0  3  0  0  0  0  0  0
  188.4690  173.6090  142.1710 C   0  0  0  0  0  2  0  0  0  0  0  0
  188.0870  176.0520  144.8160 C   0  0  2  0  0  3  0  0  0  0  0  0
  194.4480  173.4880  145.6770 O   0  0  0  0  0  1  0  0  0  0  0  0
  187.2230  175.7470  142.4130 C   0  0  2  0  0  3  0  0  0  0  0  0
  187.3980  177.7360  140.8920 C   0  0  0  0  0  2  0  0  0  0  0  0
  192.1040  173.7670  145.3570 C   0  0  0  0  0  2  0  0  0  0  0  0
  190.8540  172.1880  144.0140 C   0  0  2  0  0  3  0  0  0  0  0  0
  193.3230  171.8550  144.3590 C   0  0  0  0  0  2  0  0  0  0  0  0
  191.0190  173.6070  144.3810 N   0  0  1  0  0  0  0  0  0  0  0  0
  190.9850  175.4140  142.4300 O   0  0  0  0  0  1  0  0  0  0  0  0
  189.7050  172.9720  142.0200 O   0  0  0  0  0  0  0  0  0  0  0  0
  189.7090  175.7600  142.8800 C   0  0  2  0  0  3  0  0  0  0  0  0
  186.5980  176.4780  141.2270 C   0  0  0  0  0  2  0  0  0  0  0  0
  187.6210  178.0960  143.3530 C   0  0  0  0  0  3  0  0  0  0  0  0
  192.1540  171.6410  143.4050 C   0  0  1  0  0  3  0  0  0  0  0  0
  192.0260  170.2750  143.1440 O   0  0  0  0  0  1  0  0  0  0  0  0
  187.2440  176.6590  143.6650 C   0  0  2  0  0  3  0  0  0  0  0  0
  186.7390  177.1010  146.6360 C   0  0  1  0  0  3  0  0  0  0  0  0
  188.1340  176.9540  146.0490 C   0  0  1  0  0  3  0  0  0  0  0  0
  187.7410  176.1720  147.2850 C   0  0  0  0  0  2  0  0  0  0  0  0
  186.6730  178.2910  147.3600 O   0  0  0  0  0  0  0  0  0  0  0  0
  185.3180  178.6200  147.3740 C   0  0  0  0  0  2  0  0  0  0  0  0
  184.6030  177.8660  146.2740 C   0  0  0  0  0  1  0  0  0  0  0  0
  1  5  1  1  0  0  0
  2 13  1  0  0  0  0
  2 10  1  1  0  0  0
  3 14  1  0  0  0  0
  4  9  1  0  0  0  0
  4  1  1  0  0  0  0
  6 21  2  0  0  0  0
  7  8  1  0  0  0  0
  7 11  1  0  0  0  0
  7 19  1  0  0  0  0
  9 26  1  0  0  0  0
 11 24  1  0  0  0  0
 12 20  1  0  0  0  0
 12  6  1  0  0  0  0
 14 16  1  0  0  0  0
 15  2  1  0  0  0  0
 16  1  1  0  0  0  0
 16 13  1  0  0  0  0
 17 19  1  0  0  0  0
 18  8  1  0  0  0  0
 18  3  1  0  0  0  0
 19  4  1  0  0  0  0
 20 11  1  0  0  0  0
 21 24  1  0  0  0  0
 22 14  1  0  0  0  0
 22 15  1  0  0  0  0
 23 22  1  0  0  0  0
 24  9  1  0  0  0  0
 25 27  1  0  0  0  0
 25 28  1  0  0  0  0
 26 25  1  0  0  0  0
 26 27  1  0  0  0  0
 28 29  1  0  0  0  0
 30 29  1  0  0  0  0
M  END
>  <MODEL>
4

>  <REMARK>
 VINA RESULT:      -7.2      1.903      4.406
  Name = 
  3 active torsions:
  status: ('A' for Active; 'I' for Inactive)
    1  A    between atoms: C_6  and  O_21
    2  A    between atoms: C_8  and  C_13
    3  A    between atoms: C_9  and  O_21
                            x       y       z     vdW  Elec       q    Type
                         _______ _______ _______ _____ _____    ______ ____

>  <TORSDO>
F 3

$$$$
=
 OpenBabel11052417223D

 30 34  0  0  1  0  0  0  0  0999 V2000
  188.7650  175.7150  144.0680 C   0  0  2  0  0  3  0  0  0  0  0  0
  186.4500  178.6370  143.5000 C   0  0  2  0  0  3  0  0  0  0  0  0
  187.8310  176.1490  146.7470 C   0  0  0  0  0  2  0  0  0  0  0  0
  190.2100  176.0960  143.6880 C   0  0  2  0  0  3  0  0  0  0  0  0
  188.1710  174.8880  143.1060 O   0  0  0  0  0  1  0  0  0  0  0  0
  194.3600  176.4170  144.3070 C   0  0  0  0  0  3  0  0  0  0  0  0
  191.2210  176.4420  146.0410 C   0  0  1  0  0  3  0  0  0  0  0  0
  190.0230  175.9340  146.8470 C   0  0  0  0  0  2  0  0  0  0  0  0
  191.0660  174.8110  143.5670 C   0  0  2  0  0  3  0  0  0  0  0  0
  185.7300  179.0400  142.3780 O   0  0  0  0  0  1  0  0  0  0  0  0
  192.1930  175.2660  145.8340 C   0  0  2  0  0  3  0  0  0  0  0  0
  194.2890  176.6470  145.7930 C   0  0  0  0  0  2  0  0  0  0  0  0
  187.1720  177.3320  143.1990 C   0  0  0  0  0  2  0  0  0  0  0  0
  187.0500  176.6320  145.5130 C   0  0  2  0  0  3  0  0  0  0  0  0
  185.4970  178.4190  144.6650 C   0  0  0  0  0  2  0  0  0  0  0  0
  187.9450  176.9020  144.3710 N   0  0  1  0  0  0  0  0  0  0  0  0
  190.1670  178.2900  144.8270 O   0  0  0  0  0  1  0  0  0  0  0  0
  189.0040  176.8880  146.9370 O   0  0  0  0  0  0  0  0  0  0  0  0
  190.8550  177.0820  144.6900 C   0  0  2  0  0  3  0  0  0  0  0  0
  193.5370  175.5270  146.5110 C   0  0  0  0  0  2  0  0  0  0  0  0
  193.4810  175.6440  143.6530 C   0  0  0  0  0  3  0  0  0  0  0  0
  186.2560  177.8960  145.8780 C   0  0  1  0  0  3  0  0  0  0  0  0
  185.3440  177.6140  146.8970 O   0  0  0  0  0  1  0  0  0  0  0  0
  192.4000  174.8460  144.3570 C   0  0  2  0  0  3  0  0  0  0  0  0
  191.7850  172.9950  142.0130 C   0  0  1  0  0  3  0  0  0  0  0  0
  191.2610  174.4190  142.1030 C   0  0  1  0  0  3  0  0  0  0  0  0
  190.3270  173.2840  141.7350 C   0  0  0  0  0  2  0  0  0  0  0  0
  192.4650  172.8360  140.8060 O   0  0  0  0  0  0  0  0  0  0  0  0
  193.3630  171.7960  141.0410 C   0  0  0  0  0  2  0  0  0  0  0  0
  194.1120  172.0570  142.3300 C   0  0  0  0  0  1  0  0  0  0  0  0
  1  5  1  6  0  0  0
  1 16  1  0  0  0  0
  2 10  1  6  0  0  0
  2 15  1  0  0  0  0
  3 18  1  0  0  0  0
  4  1  1  0  0  0  0
  4 19  1  0  0  0  0
  6 12  1  0  0  0  0
  7  8  1  0  0  0  0
  8 18  1  0  0  0  0
  9  4  1  0  0  0  0
  9 24  1  0  0  0  0
 11  7  1  0  0  0  0
 11 20  1  0  0  0  0
 12 20  1  0  0  0  0
 13  2  1  0  0  0  0
 13 16  1  0  0  0  0
 14 22  1  0  0  0  0
 14  3  1  0  0  0  0
 15 22  1  0  0  0  0
 16 14  1  0  0  0  0
 19 17  1  0  0  0  0
 19  7  1  0  0  0  0
 21  6  2  0  0  0  0
 21 24  1  0  0  0  0
 22 23  1  0  0  0  0
 24 11  1  0  0  0  0
 25 26  1  0  0  0  0
 26  9  1  0  0  0  0
 27 25  1  0  0  0  0
 27 26  1  0  0  0  0
 28 29  1  0  0  0  0
 28 25  1  0  0  0  0
 29 30  1  0  0  0  0
M  END
>  <MODEL>
5

>  <REMARK>
 VINA RESULT:      -7.1      2.224      6.686
  Name = 
  3 active torsions:
  status: ('A' for Active; 'I' for Inactive)
    1  A    between atoms: C_6  and  O_21
    2  A    between atoms: C_8  and  C_13
    3  A    between atoms: C_9  and  O_21
                            x       y       z     vdW  Elec       q    Type
                         _______ _______ _______ _____ _____    ______ ____

>  <TORSDO>
F 3

$$$$
=
 OpenBabel11052417223D

 30 34  0  0  1  0  0  0  0  0999 V2000
  192.9250  175.0850  145.0370 C   0  0  2  0  0  3  0  0  0  0  0  0
  196.2730  175.9400  143.5250 C   0  0  2  0  0  3  0  0  0  0  0  0
  194.2590  172.5570  145.2980 C   0  0  0  0  0  2  0  0  0  0  0  0
  191.8060  175.2580  143.9910 C   0  0  2  0  0  3  0  0  0  0  0  0
  192.9340  176.1280  145.9730 O   0  0  0  0  0  1  0  0  0  0  0  0
  188.4220  174.0680  141.7920 C   0  0  0  0  0  3  0  0  0  0  0  0
  191.3680  172.7850  143.3840 C   0  0  1  0  0  3  0  0  0  0  0  0
  192.2610  172.1570  144.4560 C   0  0  0  0  0  2  0  0  0  0  0  0
  190.4320  175.2720  144.7050 C   0  0  2  0  0  3  0  0  0  0  0  0
  196.9610  177.1470  143.4280 O   0  0  0  0  0  1  0  0  0  0  0  0
  189.9350  172.8670  143.9420 C   0  0  2  0  0  3  0  0  0  0  0  0
  188.7670  172.6040  141.7350 C   0  0  0  0  0  2  0  0  0  0  0  0
  194.9840  176.1510  144.3060 C   0  0  0  0  0  2  0  0  0  0  0  0
  195.0260  173.8830  145.1510 C   0  0  2  0  0  3  0  0  0  0  0  0
  197.1340  174.9210  144.2540 C   0  0  0  0  0  2  0  0  0  0  0  0
  194.2430  174.8870  144.4060 N   0  0  1  0  0  0  0  0  0  0  0  0
  193.0280  174.1160  142.1700 O   0  0  0  0  0  1  0  0  0  0  0  0
  193.6140  172.2000  144.1080 O   0  0  0  0  0  0  0  0  0  0  0  0
  191.8340  174.1680  142.8940 C   0  0  2  0  0  3  0  0  0  0  0  0
  188.9700  172.0080  143.1270 C   0  0  0  0  0  2  0  0  0  0  0  0
  188.7400  174.8450  142.8380 C   0  0  0  0  0  3  0  0  0  0  0  0
  196.3650  173.6190  144.4440 C   0  0  1  0  0  3  0  0  0  0  0  0
  197.1420  172.7390  145.1990 O   0  0  0  0  0  1  0  0  0  0  0  0
  189.3810  174.3050  144.1020 C   0  0  2  0  0  3  0  0  0  0  0  0
  188.6670  176.7080  145.7310 C   0  0  1  0  0  3  0  0  0  0  0  0
  189.9040  176.6990  144.8470 C   0  0  1  0  0  3  0  0  0  0  0  0
  190.0000  177.1520  146.2900 C   0  0  0  0  0  2  0  0  0  0  0  0
  187.8960  177.8280  145.4240 O   0  0  0  0  0  0  0  0  0  0  0  0
  186.8510  177.8000  146.3460 C   0  0  0  0  0  2  0  0  0  0  0  0
  185.8330  176.7620  145.9250 C   0  0  0  0  0  1  0  0  0  0  0  0
  1  5  1  1  0  0  0
  2 10  1  1  0  0  0
  2 15  1  0  0  0  0
  2 13  1  0  0  0  0
  4  9  1  0  0  0  0
  4  1  1  0  0  0  0
  6 21  2  0  0  0  0
  7 11  1  0  0  0  0
  7  8  1  0  0  0  0
  9 26  1  0  0  0  0
 11 24  1  0  0  0  0
 12  6  1  0  0  0  0
 12 20  1  0  0  0  0
 13 16  1  0  0  0  0
 14  3  1  0  0  0  0
 15 22  1  0  0  0  0
 16  1  1  0  0  0  0
 16 14  1  0  0  0  0
 17 19  1  0  0  0  0
 18  8  1  0  0  0  0
 18  3  1  0  0  0  0
 19  7  1  0  0  0  0
 19  4  1  0  0  0  0
 20 11  1  0  0  0  0
 21 24  1  0  0  0  0
 22 14  1  0  0  0  0
 22 23  1  0  0  0  0
 24  9  1  0  0  0  0
 25 27  1  0  0  0  0
 26 25  1  0  0  0  0
 26 27  1  0  0  0  0
 28 25  1  0  0  0  0
 28 29  1  0  0  0  0
 30 29  1  0  0  0  0
M  END
>  <MODEL>
6

>  <REMARK>
 VINA RESULT:      -7.0      2.396      4.952
  Name = 
  3 active torsions:
  status: ('A' for Active; 'I' for Inactive)
    1  A    between atoms: C_6  and  O_21
    2  A    between atoms: C_8  and  C_13
    3  A    between atoms: C_9  and  O_21
                            x       y       z     vdW  Elec       q    Type
                         _______ _______ _______ _____ _____    ______ ____

>  <TORSDO>
F 3

$$$$
=
 OpenBabel11052417223D

 30 34  0  0  1  0  0  0  0  0999 V2000
  190.0840  174.6180  142.4080 C   0  0  2  0  0  3  0  0  0  0  0  0
  191.0470  170.9790  142.1730 C   0  0  2  0  0  3  0  0  0  0  0  0
  192.8610  174.7810  143.1190 C   0  0  0  0  0  2  0  0  0  0  0  0
  189.0020  174.8150  143.4890 C   0  0  2  0  0  3  0  0  0  0  0  0
  189.5530  174.6960  141.1140 O   0  0  0  0  0  1  0  0  0  0  0  0
  187.2790  176.6190  146.8770 C   0  0  0  0  0  3  0  0  0  0  0  0
  190.4400  175.8050  145.3930 C   0  0  1  0  0  3  0  0  0  0  0  0
  191.7370  175.9710  144.5960 C   0  0  0  0  0  2  0  0  0  0  0  0
  188.3570  176.2130  143.3200 C   0  0  2  0  0  3  0  0  0  0  0  0
  190.5250  169.9320  141.4150 O   0  0  0  0  0  1  0  0  0  0  0  0
  189.6670  177.1350  145.3320 C   0  0  2  0  0  3  0  0  0  0  0  0
  188.5740  176.9190  147.5830 C   0  0  0  0  0  2  0  0  0  0  0  0
  190.3230  172.2710  141.8220 C   0  0  0  0  0  2  0  0  0  0  0  0
  192.2830  173.6030  142.3170 C   0  0  2  0  0  3  0  0  0  0  0  0
  192.5270  171.1410  141.8630 C   0  0  0  0  0  2  0  0  0  0  0  0
  190.8570  173.3800  142.6220 N   0  0  1  0  0  0  0  0  0  0  0  0
  190.1110  173.3880  145.1750 O   0  0  0  0  0  1  0  0  0  0  0  0
  192.4250  174.7630  144.4490 O   0  0  0  0  0  0  0  0  0  0  0  0
  189.5480  174.6410  144.9250 C   0  0  2  0  0  3  0  0  0  0  0  0
  189.5170  177.7560  146.7200 C   0  0  0  0  0  2  0  0  0  0  0  0
  187.1640  176.6350  145.5410 C   0  0  0  0  0  3  0  0  0  0  0  0
  193.0970  172.3350  142.6190 C   0  0  1  0  0  3  0  0  0  0  0  0
  194.4290  172.5170  142.2420 O   0  0  0  0  0  1  0  0  0  0  0  0
  188.2930  177.0560  144.6200 C   0  0  2  0  0  3  0  0  0  0  0  0
  186.4610  177.5010  142.3320 C   0  0  1  0  0  3  0  0  0  0  0  0
  187.0020  176.1100  142.6210 C   0  0  1  0  0  3  0  0  0  0  0  0
  187.0900  176.6870  141.2230 C   0  0  0  0  0  2  0  0  0  0  0  0
  185.0730  177.4350  142.2260 O   0  0  0  0  0  0  0  0  0  0  0  0
  184.6010  178.2240  143.2740 C   0  0  0  0  0  2  0  0  0  0  0  0
  185.5360  179.3960  143.4850 C   0  0  0  0  0  1  0  0  0  0  0  0
  1  5  1  6  0  0  0
  1 16  1  0  0  0  0
  1  4  1  0  0  0  0
  2 10  1  6  0  0  0
  3 18  1  0  0  0  0
  4 19  1  0  0  0  0
  6 12  1  0  0  0  0
  8  7  1  0  0  0  0
  9  4  1  0  0  0  0
  9 24  1  0  0  0  0
 11  7  1  0  0  0  0
 11 20  1  0  0  0  0
 13  2  1  0  0  0  0
 13 16  1  0  0  0  0
 14 22  1  0  0  0  0
 14 16  1  0  0  0  0
 14  3  1  0  0  0  0
 15  2  1  0  0  0  0
 15 22  1  0  0  0  0
 18  8  1  0  0  0  0
 19 17  1  0  0  0  0
 19  7  1  0  0  0  0
 20 12  1  0  0  0  0
 21  6  2  0  0  0  0
 23 22  1  0  0  0  0
 24 11  1  0  0  0  0
 24 21  1  0  0  0  0
 25 26  1  0  0  0  0
 26  9  1  0  0  0  0
 27 25  1  0  0  0  0
 27 26  1  0  0  0  0
 28 25  1  0  0  0  0
 28 29  1  0  0  0  0
 29 30  1  0  0  0  0
M  END
>  <MODEL>
7

>  <REMARK>
 VINA RESULT:      -6.7      1.843      2.447
  Name = 
  3 active torsions:
  status: ('A' for Active; 'I' for Inactive)
    1  A    between atoms: C_6  and  O_21
    2  A    between atoms: C_8  and  C_13
    3  A    between atoms: C_9  and  O_21
                            x       y       z     vdW  Elec       q    Type
                         _______ _______ _______ _____ _____    ______ ____

>  <TORSDO>
F 3

$$$$
=
 OpenBabel11052417223D

 30 34  0  0  1  0  0  0  0  0999 V2000
  191.0700  176.2180  144.4680 C   0  0  2  0  0  3  0  0  0  0  0  0
  187.8130  177.1560  146.1210 C   0  0  2  0  0  3  0  0  0  0  0  0
  189.4040  176.5450  142.1530 C   0  0  0  0  0  2  0  0  0  0  0  0
  191.5050  174.8060  144.9070 C   0  0  2  0  0  3  0  0  0  0  0  0
  191.8270  177.2180  145.0920 O   0  0  0  0  0  1  0  0  0  0  0  0
  192.8280  170.8580  144.2970 C   0  0  0  0  0  3  0  0  0  0  0  0
  190.8650  173.4580  142.7980 C   0  0  1  0  0  3  0  0  0  0  0  0
  190.5000  174.6470  141.9070 C   0  0  0  0  0  2  0  0  0  0  0  0
  192.9920  174.5850  144.5320 C   0  0  2  0  0  3  0  0  0  0  0  0
  187.5400  177.7770  147.3370 O   0  0  0  0  0  1  0  0  0  0  0  0
  192.3390  173.0990  142.5380 C   0  0  2  0  0  3  0  0  0  0  0  0
  192.1070  170.6410  142.9940 C   0  0  0  0  0  2  0  0  0  0  0  0
  189.3190  177.0870  145.9110 C   0  0  0  0  0  2  0  0  0  0  0  0
  189.0750  177.2000  143.5060 C   0  0  2  0  0  3  0  0  0  0  0  0
  187.1910  177.9600  144.9890 C   0  0  0  0  0  2  0  0  0  0  0  0
  189.6200  176.4250  144.6360 N   0  0  1  0  0  0  0  0  0  0  0  0
  189.2690  173.7890  144.6270 O   0  0  0  0  0  1  0  0  0  0  0  0
  189.2300  175.1560  142.1980 O   0  0  0  0  0  0  0  0  0  0  0  0
  190.6240  173.6890  144.3010 C   0  0  2  0  0  3  0  0  0  0  0  0
  192.4760  171.6950  141.9510 C   0  0  0  0  0  2  0  0  0  0  0  0
  193.3130  172.0530  144.6630 C   0  0  0  0  0  3  0  0  0  0  0  0
  187.5510  177.3430  143.6430 C   0  0  1  0  0  3  0  0  0  0  0  0
  187.0500  178.1540  142.6240 O   0  0  0  0  0  1  0  0  0  0  0  0
  193.2760  173.2720  143.7600 C   0  0  2  0  0  3  0  0  0  0  0  0
  195.3470  174.8480  145.3140 C   0  0  1  0  0  3  0  0  0  0  0  0
  193.8950  174.7560  145.7530 C   0  0  1  0  0  3  0  0  0  0  0  0
  194.5940  176.0990  145.7040 C   0  0  0  0  0  2  0  0  0  0  0  0
  196.1680  174.4520  146.3700 O   0  0  0  0  0  0  0  0  0  0  0  0
  197.1610  173.6760  145.7730 C   0  0  0  0  0  2  0  0  0  0  0  0
  196.8230  172.2100  145.9370 C   0  0  0  0  0  1  0  0  0  0  0  0
  1 16  1  0  0  0  0
  1  4  1  0  0  0  0
  1  5  1  1  0  0  0
  2 10  1  1  0  0  0
  3 18  1  0  0  0  0
  3 14  1  0  0  0  0
  6 21  2  0  0  0  0
  7 19  1  0  0  0  0
  8 18  1  0  0  0  0
  8  7  1  0  0  0  0
  9  4  1  0  0  0  0
  9 26  1  0  0  0  0
 11  7  1  0  0  0  0
 11 24  1  0  0  0  0
 12  6  1  0  0  0  0
 13  2  1  0  0  0  0
 14 22  1  0  0  0  0
 14 16  1  0  0  0  0
 15  2  1  0  0  0  0
 16 13  1  0  0  0  0
 19 17  1  0  0  0  0
 19  4  1  0  0  0  0
 20 11  1  0  0  0  0
 20 12  1  0  0  0  0
 22 15  1  0  0  0  0
 23 22  1  0  0  0  0
 24  9  1  0  0  0  0
 24 21  1  0  0  0  0
 25 27  1  0  0  0  0
 25 26  1  0  0  0  0
 25 28  1  0  0  0  0
 27 26  1  0  0  0  0
 29 30  1  0  0  0  0
 29 28  1  0  0  0  0
M  END
>  <MODEL>
8

>  <REMARK>
 VINA RESULT:      -6.5      1.983      7.726
  Name = 
  3 active torsions:
  status: ('A' for Active; 'I' for Inactive)
    1  A    between atoms: C_6  and  O_21
    2  A    between atoms: C_8  and  C_13
    3  A    between atoms: C_9  and  O_21
                            x       y       z     vdW  Elec       q    Type
                         _______ _______ _______ _____ _____    ______ ____

>  <TORSDO>
F 3

$$$$
=
 OpenBabel11052417223D

 30 34  0  0  1  0  0  0  0  0999 V2000
  193.0450  174.8920  142.7610 C   0  0  2  0  0  3  0  0  0  0  0  0
  195.6110  172.2040  142.1180 C   0  0  2  0  0  3  0  0  0  0  0  0
  195.4250  176.2480  143.6190 C   0  0  0  0  0  2  0  0  0  0  0  0
  192.0180  174.4110  143.8050 C   0  0  2  0  0  3  0  0  0  0  0  0
  192.5180  174.8830  141.4630 O   0  0  0  0  0  1  0  0  0  0  0  0
  189.7050  174.7210  147.3070 C   0  0  0  0  0  3  0  0  0  0  0  0
  192.8490  175.6980  145.8860 C   0  0  1  0  0  3  0  0  0  0  0  0
  193.8980  176.5590  145.1790 C   0  0  0  0  0  2  0  0  0  0  0  0
  190.7850  175.3480  143.7830 C   0  0  2  0  0  3  0  0  0  0  0  0
  195.6340  171.1470  141.2110 O   0  0  0  0  0  1  0  0  0  0  0  0
  191.5370  176.5010  145.9550 C   0  0  2  0  0  3  0  0  0  0  0  0
  190.7160  175.4980  148.1050 C   0  0  0  0  0  2  0  0  0  0  0  0
  194.3560  173.0360  141.8980 C   0  0  0  0  0  2  0  0  0  0  0  0
  195.4600  175.0550  142.6490 C   0  0  2  0  0  3  0  0  0  0  0  0
  196.8330  173.0840  141.9030 C   0  0  0  0  0  2  0  0  0  0  0  0
  194.3150  174.1480  142.8550 N   0  0  1  0  0  0  0  0  0  0  0  0
  193.6990  173.4640  145.3500 O   0  0  0  0  0  1  0  0  0  0  0  0
  195.0730  175.8500  144.9140 O   0  0  0  0  0  0  0  0  0  0  0  0
  192.6060  174.3250  145.2330 C   0  0  2  0  0  3  0  0  0  0  0  0
  191.1350  176.7880  147.4000 C   0  0  0  0  0  2  0  0  0  0  0  0
  189.5730  174.8580  145.9790 C   0  0  0  0  0  3  0  0  0  0  0  0
  196.7820  174.2930  142.8290 C   0  0  1  0  0  3  0  0  0  0  0  0
  197.8630  175.1300  142.5420 O   0  0  0  0  0  1  0  0  0  0  0  0
  190.3520  175.8800  145.1730 C   0  0  2  0  0  3  0  0  0  0  0  0
  188.5510  175.7520  142.7450 C   0  0  1  0  0  3  0  0  0  0  0  0
  189.6280  174.7130  143.0120 C   0  0  1  0  0  3  0  0  0  0  0  0
  189.5020  175.3460  141.6410 C   0  0  0  0  0  2  0  0  0  0  0  0
  187.3290  175.1040  142.5660 O   0  0  0  0  0  0  0  0  0  0  0  0
  186.3710  176.0610  142.9000 C   0  0  0  0  0  2  0  0  0  0  0  0
  186.8040  176.7950  144.1500 C   0  0  0  0  0  1  0  0  0  0  0  0
  1  5  1  6  0  0  0
  1 16  1  0  0  0  0
  1  4  1  0  0  0  0
  2 10  1  6  0  0  0
  3 18  1  0  0  0  0
  4 19  1  0  0  0  0
  6 12  1  0  0  0  0
  7 11  1  0  0  0  0
  8  7  1  0  0  0  0
  9  4  1  0  0  0  0
  9 24  1  0  0  0  0
 11 20  1  0  0  0  0
 13  2  1  0  0  0  0
 13 16  1  0  0  0  0
 14 22  1  0  0  0  0
 14 16  1  0  0  0  0
 14  3  1  0  0  0  0
 15  2  1  0  0  0  0
 15 22  1  0  0  0  0
 18  8  1  0  0  0  0
 19 17  1  0  0  0  0
 19  7  1  0  0  0  0
 20 12  1  0  0  0  0
 21  6  2  0  0  0  0
 23 22  1  0  0  0  0
 24 11  1  0  0  0  0
 24 21  1  0  0  0  0
 25 26  1  0  0  0  0
 26  9  1  0  0  0  0
 27 25  1  0  0  0  0
 27 26  1  0  0  0  0
 28 25  1  0  0  0  0
 28 29  1  0  0  0  0
 29 30  1  0  0  0  0
M  END
>  <MODEL>
9

>  <REMARK>
 VINA RESULT:      -6.4      2.577      3.892
  Name = 
  3 active torsions:
  status: ('A' for Active; 'I' for Inactive)
    1  A    between atoms: C_6  and  O_21
    2  A    between atoms: C_8  and  C_13
    3  A    between atoms: C_9  and  O_21
                            x       y       z     vdW  Elec       q    Type
                         _______ _______ _______ _____ _____    ______ ____

>  <TORSDO>
F 3

$$$$
