=
 OpenBabel11052417553D

 31 35  0  0  1  0  0  0  0  0999 V2000
  190.0210  172.9270  138.2970 C   0  0  2  0  0  3  0  0  0  0  0  0
  190.0090  173.6540  142.0610 C   0  0  0  0  0  0  0  0  0  0  0  0
  191.1340  172.7800  142.6290 C   0  0  1  0  0  3  0  0  0  0  0  0
  193.5210  173.4900  141.7840 C   0  0  0  0  0  2  0  0  0  0  0  0
  189.6100  173.6010  140.6980 C   0  0  0  0  0  0  0  0  0  0  0  0
  188.5700  173.2740  138.0130 C   0  0  0  0  0  2  0  0  0  0  0  0
  192.3120  172.5300  141.6640 C   0  0  0  0  0  2  0  0  0  0  0  0
  188.2410  175.3010  142.4880 C   0  0  0  0  0  0  0  0  0  0  0  0
  190.4430  171.7570  137.4330 C   0  0  0  0  0  1  0  0  0  0  0  0
  190.4160  173.4190  144.9440 C   0  0  0  0  0  2  0  0  0  0  0  0
  194.0440  173.6820  143.0880 O   0  0  0  0  0  0  0  0  0  0  0  0
  187.9190  175.2940  141.1310 C   0  0  0  0  0  3  0  0  0  0  0  0
  189.2570  174.4570  142.9590 C   0  0  0  0  0  0  0  0  0  0  0  0
  190.1640  172.5480  139.7650 C   0  0  0  0  0  2  0  0  0  0  0  0
  193.9910  172.4720  143.8070 C   0  0  0  0  0  2  0  0  0  0  0  0
  188.5670  174.4420  140.2420 C   0  0  0  0  0  0  0  0  0  0  0  0
  188.1890  174.5270  138.7890 C   0  0  0  0  0  2  0  0  0  0  0  0
  189.5190  174.4100  144.3690 N   0  0  0  0  0  2  0  0  0  0  0  0
  191.6000  173.2620  144.0190 C   0  0  1  0  0  3  0  0  0  0  0  0
  192.7040  172.4050  144.6400 C   0  0  0  0  0  2  0  0  0  0  0  0
  189.1410  177.8400  143.6920 O   0  0  0  0  0  0  0  0  0  0  0  0
  188.0010  177.3800  143.9760 C   0  0  0  0  0  0  0  0  0  0  0  0
  187.5400  176.1440  143.4160 N   0  0  0  0  0  2  0  0  0  0  0  0
  184.5810  178.3440  147.1210 C   0  0  0  0  0  2  0  0  0  0  0  0
  185.9300  178.6900  144.1130 C   0  0  0  0  0  2  0  0  0  0  0  0
  187.8220  176.4970  146.7230 C   0  0  0  0  0  1  0  0  0  0  0  0
  184.0500  178.7000  145.7300 C   0  0  0  0  0  2  0  0  0  0  0  0
  185.0040  179.5770  144.9330 C   0  0  0  0  0  2  0  0  0  0  0  0
  186.6570  177.2640  146.1180 C   0  0  2  0  0  3  0  0  0  0  0  0
  187.1050  178.1270  144.9180 C   0  0  1  0  0  3  0  0  0  0  0  0
  186.0970  178.1640  147.2110 C   0  0  0  0  0  2  0  0  0  0  0  0
  1  9  1  6  0  0  0
  1 14  1  0  0  0  0
  2  3  1  0  0  0  0
  2 13  1  0  0  0  0
  3  7  1  6  0  0  0
  3 19  1  0  0  0  0
  4 11  1  0  0  0  0
  5  2  2  0  0  0  0
  6  1  1  0  0  0  0
  6 17  1  0  0  0  0
  7  4  1  0  0  0  0
  8 13  2  0  0  0  0
  8 23  1  0  0  0  0
 11 15  1  0  0  0  0
 12  8  1  0  0  0  0
 13 18  1  0  0  0  0
 14  5  1  0  0  0  0
 15 20  1  0  0  0  0
 16  5  1  0  0  0  0
 16 12  2  0  0  0  0
 17 16  1  0  0  0  0
 18 10  1  0  0  0  0
 19 20  1  1  0  0  0
 19 10  1  0  0  0  0
 21 22  2  0  0  0  0
 23 22  1  0  0  0  0
 24 31  1  0  0  0  0
 25 30  1  0  0  0  0
 25 28  1  0  0  0  0
 27 24  1  0  0  0  0
 28 27  1  0  0  0  0
 29 26  1  1  0  0  0
 29 31  1  0  0  0  0
 30 22  1  6  0  0  0
 30 29  1  0  0  0  0
M  END
>  <MODEL>
1

>  <REMARK>
 VINA RESULT:      -8.4      0.000      0.000
  Name = 
  2 active torsions:
  status: ('A' for Active; 'I' for Inactive)
    1  A    between atoms: C_9  and  C_22
    2  A    between atoms: C_15  and  N_23
                            x       y       z     vdW  Elec       q    Type
                         _______ _______ _______ _____ _____    ______ ____

>  <TORSDO>
F 2

$$$$
=
 OpenBabel11052417553D

 31 35  0  0  1  0  0  0  0  0999 V2000
  185.5170  178.2920  144.6660 C   0  0  2  0  0  3  0  0  0  0  0  0
  188.7960  176.4520  143.9160 C   0  0  0  0  0  0  0  0  0  0  0  0
  189.6350  176.6190  145.1890 C   0  0  1  0  0  3  0  0  0  0  0  0
  188.6040  175.3940  147.2740 C   0  0  0  0  0  2  0  0  0  0  0  0
  187.5340  177.0830  143.7410 C   0  0  0  0  0  0  0  0  0  0  0  0
  185.1260  178.6140  143.2350 C   0  0  0  0  0  2  0  0  0  0  0  0
  188.8200  176.7150  146.4960 C   0  0  0  0  0  2  0  0  0  0  0  0
  188.6210  175.5280  141.6500 C   0  0  0  0  0  0  0  0  0  0  0  0
  185.1140  179.4350  145.5730 C   0  0  0  0  0  1  0  0  0  0  0  0
  191.5830  175.5820  144.0010 C   0  0  0  0  0  2  0  0  0  0  0  0
  189.7620  174.6150  147.5260 O   0  0  0  0  0  0  0  0  0  0  0  0
  187.3490  176.0880  141.5300 C   0  0  0  0  0  3  0  0  0  0  0  0
  189.3580  175.7390  142.8240 C   0  0  0  0  0  0  0  0  0  0  0  0
  187.0260  178.0980  144.7380 C   0  0  0  0  0  2  0  0  0  0  0  0
  190.8560  175.4600  147.7990 C   0  0  0  0  0  2  0  0  0  0  0  0
  186.8130  176.8790  142.5410 C   0  0  0  0  0  0  0  0  0  0  0  0
  185.4190  177.4100  142.3490 C   0  0  0  0  0  2  0  0  0  0  0  0
  190.6980  175.2320  142.9010 N   0  0  0  0  0  2  0  0  0  0  0  0
  190.7730  175.5810  145.2760 C   0  0  1  0  0  3  0  0  0  0  0  0
  191.6560  175.7240  146.5170 C   0  0  0  0  0  2  0  0  0  0  0  0
  188.0560  172.7260  140.9190 O   0  0  0  0  0  0  0  0  0  0  0  0
  188.8920  173.3920  140.2510 C   0  0  0  0  0  0  0  0  0  0  0  0
  189.1960  174.7510  140.5880 N   0  0  0  0  0  2  0  0  0  0  0  0
  189.6620  171.1060  136.1640 C   0  0  0  0  0  2  0  0  0  0  0  0
  189.9410  171.3180  139.4600 C   0  0  0  0  0  2  0  0  0  0  0  0
  188.2080  174.2620  137.5800 C   0  0  0  0  0  1  0  0  0  0  0  0
  189.8410  170.1000  137.3030 C   0  0  0  0  0  2  0  0  0  0  0  0
  190.7670  170.5990  138.4020 C   0  0  0  0  0  2  0  0  0  0  0  0
  188.7750  172.8640  137.7780 C   0  0  2  0  0  3  0  0  0  0  0  0
  189.5920  172.7610  139.0840 C   0  0  1  0  0  3  0  0  0  0  0  0
  189.6800  172.5750  136.5880 C   0  0  0  0  0  2  0  0  0  0  0  0
  1 14  1  0  0  0  0
  1  9  1  1  0  0  0
  2  3  1  0  0  0  0
  3 19  1  0  0  0  0
  3  7  1  1  0  0  0
  4 11  1  0  0  0  0
  5  2  1  0  0  0  0
  5 14  1  0  0  0  0
  6  1  1  0  0  0  0
  7  4  1  0  0  0  0
  8 13  1  0  0  0  0
 11 15  1  0  0  0  0
 12  8  2  0  0  0  0
 12 16  1  0  0  0  0
 13 18  1  0  0  0  0
 13  2  2  0  0  0  0
 16  5  2  0  0  0  0
 17 16  1  0  0  0  0
 17  6  1  0  0  0  0
 18 10  1  0  0  0  0
 19 10  1  6  0  0  0
 19 20  1  0  0  0  0
 20 15  1  0  0  0  0
 22 23  1  0  0  0  0
 22 21  2  0  0  0  0
 23  8  1  0  0  0  0
 24 31  1  0  0  0  0
 24 27  1  0  0  0  0
 27 28  1  0  0  0  0
 28 25  1  0  0  0  0
 29 26  1  6  0  0  0
 29 30  1  0  0  0  0
 30 25  1  0  0  0  0
 30 22  1  1  0  0  0
 31 29  1  0  0  0  0
M  END
>  <MODEL>
2

>  <REMARK>
 VINA RESULT:      -8.4      2.434      7.653
  Name = 
  2 active torsions:
  status: ('A' for Active; 'I' for Inactive)
    1  A    between atoms: C_9  and  C_22
    2  A    between atoms: C_15  and  N_23
                            x       y       z     vdW  Elec       q    Type
                         _______ _______ _______ _____ _____    ______ ____

>  <TORSDO>
F 2

$$$$
=
 OpenBabel11052417553D

 31 35  0  0  1  0  0  0  0  0999 V2000
  185.9420  177.2790  141.2550 C   0  0  2  0  0  3  0  0  0  0  0  0
  188.2210  177.0390  144.3280 C   0  0  0  0  0  0  0  0  0  0  0  0
  187.5170  177.8790  145.4010 C   0  0  1  0  0  3  0  0  0  0  0  0
  185.2100  176.8670  146.1560 C   0  0  0  0  0  2  0  0  0  0  0  0
  187.7500  176.9530  142.9890 C   0  0  0  0  0  0  0  0  0  0  0  0
  186.9960  177.0250  140.1930 C   0  0  0  0  0  2  0  0  0  0  0  0
  185.9770  177.9040  145.2990 C   0  0  0  0  0  2  0  0  0  0  0  0
  190.1260  175.6160  143.7230 C   0  0  0  0  0  0  0  0  0  0  0  0
  184.9380  178.2910  140.7420 C   0  0  0  0  0  1  0  0  0  0  0  0
  189.5180  177.6020  146.8840 C   0  0  0  0  0  2  0  0  0  0  0  0
  185.5660  176.7980  147.5270 O   0  0  0  0  0  0  0  0  0  0  0  0
  189.6030  175.4780  142.4370 C   0  0  0  0  0  3  0  0  0  0  0  0
  189.4580  176.4230  144.6550 C   0  0  0  0  0  0  0  0  0  0  0  0
  186.6180  177.8280  142.5050 C   0  0  0  0  0  2  0  0  0  0  0  0
  185.8500  178.0890  148.0130 C   0  0  0  0  0  2  0  0  0  0  0  0
  188.4480  176.1530  142.0540 C   0  0  0  0  0  0  0  0  0  0  0  0
  187.9290  175.9160  140.6630 C   0  0  0  0  0  2  0  0  0  0  0  0
  190.0520  176.6260  145.9460 N   0  0  0  0  0  2  0  0  0  0  0  0
  188.0100  177.5390  146.8230 C   0  0  1  0  0  3  0  0  0  0  0  0
  187.3550  178.3710  147.9270 C   0  0  0  0  0  2  0  0  0  0  0  0
  192.9030  176.4570  143.1870 O   0  0  0  0  0  0  0  0  0  0  0  0
  192.6820  175.4010  143.8390 C   0  0  0  0  0  0  0  0  0  0  0  0
  191.3450  174.9600  144.1060 N   0  0  0  0  0  2  0  0  0  0  0  0
  196.9950  174.1660  145.3880 C   0  0  0  0  0  2  0  0  0  0  0  0
  194.5680  173.9940  143.1370 C   0  0  0  0  0  2  0  0  0  0  0  0
  193.9620  176.1710  146.3150 C   0  0  0  0  0  1  0  0  0  0  0  0
  196.9230  173.8380  143.8940 C   0  0  0  0  0  2  0  0  0  0  0  0
  195.6870  173.0350  143.5160 C   0  0  0  0  0  2  0  0  0  0  0  0
  194.7560  175.3750  145.2900 C   0  0  2  0  0  3  0  0  0  0  0  0
  193.8300  174.5790  144.3450 C   0  0  1  0  0  3  0  0  0  0  0  0
  195.6450  174.4100  146.0630 C   0  0  0  0  0  2  0  0  0  0  0  0
  1  9  1  6  0  0  0
  1 14  1  0  0  0  0
  2 13  1  0  0  0  0
  2  3  1  0  0  0  0
  3  7  1  1  0  0  0
  3 19  1  0  0  0  0
  4 11  1  0  0  0  0
  5  2  2  0  0  0  0
  6 17  1  0  0  0  0
  6  1  1  0  0  0  0
  7  4  1  0  0  0  0
  8 23  1  0  0  0  0
  8 13  2  0  0  0  0
 11 15  1  0  0  0  0
 12  8  1  0  0  0  0
 13 18  1  0  0  0  0
 14  5  1  0  0  0  0
 16 12  2  0  0  0  0
 16  5  1  0  0  0  0
 17 16  1  0  0  0  0
 18 10  1  0  0  0  0
 19 10  1  6  0  0  0
 19 20  1  0  0  0  0
 20 15  1  0  0  0  0
 21 22  2  0  0  0  0
 22 23  1  0  0  0  0
 24 31  1  0  0  0  0
 25 28  1  0  0  0  0
 25 30  1  0  0  0  0
 27 24  1  0  0  0  0
 28 27  1  0  0  0  0
 29 31  1  0  0  0  0
 29 26  1  1  0  0  0
 30 22  1  6  0  0  0
 30 29  1  0  0  0  0
M  END
>  <MODEL>
3

>  <REMARK>
 VINA RESULT:      -8.4      2.587      7.640
  Name = 
  2 active torsions:
  status: ('A' for Active; 'I' for Inactive)
    1  A    between atoms: C_9  and  C_22
    2  A    between atoms: C_15  and  N_23
                            x       y       z     vdW  Elec       q    Type
                         _______ _______ _______ _____ _____    ______ ____

>  <TORSDO>
F 2

$$$$
=
 OpenBabel11052417553D

 31 35  0  0  1  0  0  0  0  0999 V2000
  194.8930  174.1840  145.5940 C   0  0  2  0  0  3  0  0  0  0  0  0
  191.6580  174.7170  143.6080 C   0  0  0  0  0  0  0  0  0  0  0  0
  191.7190  173.6800  142.4800 C   0  0  1  0  0  3  0  0  0  0  0  0
  191.6080  171.2010  143.3490 C   0  0  0  0  0  2  0  0  0  0  0  0
  192.7290  174.9240  144.5190 C   0  0  0  0  0  0  0  0  0  0  0  0
  195.0160  175.5820  146.1720 C   0  0  0  0  0  2  0  0  0  0  0  0
  192.4700  172.3790  142.8330 C   0  0  0  0  0  2  0  0  0  0  0  0
  190.4150  176.5310  144.6970 C   0  0  0  0  0  0  0  0  0  0  0  0
  196.2710  173.6440  145.2710 C   0  0  0  0  0  1  0  0  0  0  0  0
  189.6720  174.7130  141.4650 C   0  0  0  0  0  2  0  0  0  0  0  0
  190.4730  170.8630  142.5690 O   0  0  0  0  0  0  0  0  0  0  0  0
  191.4430  176.6620  145.6310 C   0  0  0  0  0  3  0  0  0  0  0  0
  190.5370  175.5880  143.6670 C   0  0  0  0  0  0  0  0  0  0  0  0
  194.0640  174.2450  144.3170 C   0  0  0  0  0  2  0  0  0  0  0  0
  190.7730  171.0130  141.2010 C   0  0  0  0  0  2  0  0  0  0  0  0
  192.6000  175.8960  145.5390 C   0  0  0  0  0  0  0  0  0  0  0  0
  193.6410  176.0690  146.6110 C   0  0  0  0  0  2  0  0  0  0  0  0
  189.5140  175.5240  142.6630 N   0  0  0  0  0  2  0  0  0  0  0  0
  190.3310  173.4120  141.8610 C   0  0  1  0  0  3  0  0  0  0  0  0
  190.3440  172.4020  140.7120 C   0  0  0  0  0  2  0  0  0  0  0  0
  187.8530  175.9620  146.0450 O   0  0  0  0  0  0  0  0  0  0  0  0
  188.0120  177.0540  145.4350 C   0  0  0  0  0  0  0  0  0  0  0  0
  189.2410  177.3550  144.7610 N   0  0  0  0  0  2  0  0  0  0  0  0
  183.6700  178.9710  145.4650 C   0  0  0  0  0  2  0  0  0  0  0  0
  186.5400  178.3250  143.9370 C   0  0  0  0  0  2  0  0  0  0  0  0
  186.1180  177.1150  147.6190 C   0  0  0  0  0  1  0  0  0  0  0  0
  184.1180  178.8500  144.0060 C   0  0  0  0  0  2  0  0  0  0  0  0
  185.5040  179.4250  143.7570 C   0  0  0  0  0  2  0  0  0  0  0  0
  185.6890  177.6350  146.2560 C   0  0  2  0  0  3  0  0  0  0  0  0
  186.9020  178.0620  145.4010 C   0  0  1  0  0  3  0  0  0  0  0  0
  184.7890  178.8400  146.4990 C   0  0  0  0  0  2  0  0  0  0  0  0
  1  9  1  6  0  0  0
  1  6  1  0  0  0  0
  2 13  2  0  0  0  0
  2  5  1  0  0  0  0
  3  7  1  1  0  0  0
  3  2  1  0  0  0  0
  5 16  2  0  0  0  0
  6 17  1  0  0  0  0
  7  4  1  0  0  0  0
  8 23  1  0  0  0  0
  8 12  2  0  0  0  0
 10 19  1  0  0  0  0
 10 18  1  0  0  0  0
 11  4  1  0  0  0  0
 13  8  1  0  0  0  0
 14  5  1  0  0  0  0
 14  1  1  0  0  0  0
 15 11  1  0  0  0  0
 16 12  1  0  0  0  0
 16 17  1  0  0  0  0
 18 13  1  0  0  0  0
 19 20  1  6  0  0  0
 19  3  1  0  0  0  0
 20 15  1  0  0  0  0
 22 21  2  0  0  0  0
 23 22  1  0  0  0  0
 24 31  1  0  0  0  0
 25 30  1  0  0  0  0
 27 24  1  0  0  0  0
 28 25  1  0  0  0  0
 28 27  1  0  0  0  0
 29 31  1  0  0  0  0
 29 26  1  1  0  0  0
 30 22  1  6  0  0  0
 30 29  1  0  0  0  0
M  END
>  <MODEL>
4

>  <REMARK>
 VINA RESULT:      -8.4      2.254      4.709
  Name = 
  2 active torsions:
  status: ('A' for Active; 'I' for Inactive)
    1  A    between atoms: C_9  and  C_22
    2  A    between atoms: C_15  and  N_23
                            x       y       z     vdW  Elec       q    Type
                         _______ _______ _______ _____ _____    ______ ____

>  <TORSDO>
F 2

$$$$
=
 OpenBabel11052417553D

 31 35  0  0  1  0  0  0  0  0999 V2000
  185.4560  178.2390  146.1970 C   0  0  2  0  0  3  0  0  0  0  0  0
  187.8380  176.2740  143.9250 C   0  0  0  0  0  0  0  0  0  0  0  0
  187.0760  176.1190  142.6040 C   0  0  1  0  0  3  0  0  0  0  0  0
  186.6620  178.4070  141.3760 C   0  0  0  0  0  2  0  0  0  0  0  0
  187.2570  176.8600  145.0830 C   0  0  0  0  0  0  0  0  0  0  0  0
  185.9900  177.7500  147.5320 C   0  0  0  0  0  2  0  0  0  0  0  0
  186.1070  177.2740  142.2740 C   0  0  0  0  0  2  0  0  0  0  0  0
  189.8860  175.8400  145.2050 C   0  0  0  0  0  0  0  0  0  0  0  0
  183.9540  178.4080  146.2820 C   0  0  0  0  0  1  0  0  0  0  0  0
  188.8870  174.5970  141.7760 C   0  0  0  0  0  2  0  0  0  0  0  0
  187.3010  178.0030  140.1760 O   0  0  0  0  0  0  0  0  0  0  0  0
  189.3270  176.4920  146.3040 C   0  0  0  0  0  3  0  0  0  0  0  0
  189.1320  175.6980  144.0320 C   0  0  0  0  0  0  0  0  0  0  0  0
  185.7880  177.2110  145.1230 C   0  0  0  0  0  2  0  0  0  0  0  0
  186.6300  176.8920  139.6290 C   0  0  0  0  0  2  0  0  0  0  0  0
  188.0230  176.9750  146.2660 C   0  0  0  0  0  0  0  0  0  0  0  0
  187.5120  177.7030  147.4790 C   0  0  0  0  0  2  0  0  0  0  0  0
  189.6860  174.9500  142.9390 N   0  0  0  0  0  2  0  0  0  0  0  0
  188.0140  175.7800  141.4270 C   0  0  1  0  0  3  0  0  0  0  0  0
  187.2960  175.5890  140.0900 C   0  0  0  0  0  2  0  0  0  0  0  0
  191.4770  175.1250  147.5850 O   0  0  0  0  0  0  0  0  0  0  0  0
  191.9580  174.9490  146.4330 C   0  0  0  0  0  0  0  0  0  0  0  0
  191.2150  175.2960  145.2580 N   0  0  0  0  0  2  0  0  0  0  0  0
  196.3320  174.1250  144.7840 C   0  0  0  0  0  2  0  0  0  0  0  0
  193.2290  173.1260  145.3900 C   0  0  0  0  0  2  0  0  0  0  0  0
  194.2320  176.7340  146.4760 C   0  0  0  0  0  1  0  0  0  0  0  0
  195.4020  173.0580  144.1990 C   0  0  0  0  0  2  0  0  0  0  0  0
  194.5440  172.3710  145.2500 C   0  0  0  0  0  2  0  0  0  0  0  0
  194.3520  175.4050  145.7460 C   0  0  2  0  0  3  0  0  0  0  0  0
  193.3330  174.3710  146.2750 C   0  0  1  0  0  3  0  0  0  0  0  0
  195.7660  174.8910  145.9810 C   0  0  0  0  0  2  0  0  0  0  0  0
  1  9  1  1  0  0  0
  1  6  1  0  0  0  0
  2 13  2  0  0  0  0
  2  5  1  0  0  0  0
  3  7  1  6  0  0  0
  3  2  1  0  0  0  0
  4  7  1  0  0  0  0
  5 14  1  0  0  0  0
  5 16  2  0  0  0  0
  8 23  1  0  0  0  0
  8 12  2  0  0  0  0
 10 18  1  0  0  0  0
 11  4  1  0  0  0  0
 13  8  1  0  0  0  0
 14  1  1  0  0  0  0
 15 20  1  0  0  0  0
 15 11  1  0  0  0  0
 16 12  1  0  0  0  0
 16 17  1  0  0  0  0
 17  6  1  0  0  0  0
 18 13  1  0  0  0  0
 19 20  1  6  0  0  0
 19 10  1  0  0  0  0
 19  3  1  0  0  0  0
 22 21  2  0  0  0  0
 23 22  1  0  0  0  0
 24 31  1  0  0  0  0
 25 30  1  0  0  0  0
 27 24  1  0  0  0  0
 27 28  1  0  0  0  0
 28 25  1  0  0  0  0
 29 31  1  0  0  0  0
 29 30  1  0  0  0  0
 29 26  1  1  0  0  0
 30 22  1  6  0  0  0
M  END
>  <MODEL>
5

>  <REMARK>
 VINA RESULT:      -8.3      2.515      8.038
  Name = 
  2 active torsions:
  status: ('A' for Active; 'I' for Inactive)
    1  A    between atoms: C_9  and  C_22
    2  A    between atoms: C_15  and  N_23
                            x       y       z     vdW  Elec       q    Type
                         _______ _______ _______ _____ _____    ______ ____

>  <TORSDO>
F 2

$$$$
=
 OpenBabel11052417553D

 31 35  0  0  1  0  0  0  0  0999 V2000
  186.1870  177.7700  146.4270 C   0  0  2  0  0  3  0  0  0  0  0  0
  189.2350  176.6320  144.3990 C   0  0  0  0  0  0  0  0  0  0  0  0
  190.4420  177.0170  145.2620 C   0  0  1  0  0  3  0  0  0  0  0  0
  190.5630  175.6780  147.5220 C   0  0  0  0  0  2  0  0  0  0  0  0
  187.9010  176.9780  144.7460 C   0  0  0  0  0  0  0  0  0  0  0  0
  185.2220  177.9510  145.2680 C   0  0  0  0  0  2  0  0  0  0  0  0
  190.1880  176.9870  146.7840 C   0  0  0  0  0  2  0  0  0  0  0  0
  188.4030  175.6110  142.3280 C   0  0  0  0  0  0  0  0  0  0  0  0
  185.9330  178.8350  147.4720 C   0  0  0  0  0  1  0  0  0  0  0  0
  191.9580  176.3690  143.3740 C   0  0  0  0  0  2  0  0  0  0  0  0
  191.8640  175.1690  147.2770 O   0  0  0  0  0  0  0  0  0  0  0  0
  187.0950  175.8880  142.7280 C   0  0  0  0  0  3  0  0  0  0  0  0
  189.4710  176.0140  143.1420 C   0  0  0  0  0  0  0  0  0  0  0  0
  187.6140  177.8990  145.9090 C   0  0  0  0  0  2  0  0  0  0  0  0
  192.7780  176.2330  147.1530 C   0  0  0  0  0  2  0  0  0  0  0  0
  186.8350  176.5850  143.9030 C   0  0  0  0  0  0  0  0  0  0  0  0
  185.3960  176.8050  144.2810 C   0  0  0  0  0  2  0  0  0  0  0  0
  190.8130  175.8010  142.6780 N   0  0  0  0  0  2  0  0  0  0  0  0
  191.7150  176.2440  144.8610 C   0  0  1  0  0  3  0  0  0  0  0  0
  192.9550  176.6130  145.6770 C   0  0  0  0  0  2  0  0  0  0  0  0
  187.9140  172.7830  141.6420 O   0  0  0  0  0  0  0  0  0  0  0  0
  188.4170  173.5590  140.7850 C   0  0  0  0  0  0  0  0  0  0  0  0
  188.6770  174.9350  141.0910 N   0  0  0  0  0  2  0  0  0  0  0  0
  190.8630  172.4880  136.8610 C   0  0  0  0  0  2  0  0  0  0  0  0
  188.4390  174.1430  138.4010 C   0  0  0  0  0  2  0  0  0  0  0  0
  190.5850  171.6650  140.5110 C   0  0  0  0  0  1  0  0  0  0  0  0
  190.1030  173.7900  136.5970 C   0  0  0  0  0  2  0  0  0  0  0  0
  188.6270  173.7040  136.9550 C   0  0  0  0  0  2  0  0  0  0  0  0
  190.2160  172.5410  139.3230 C   0  0  2  0  0  3  0  0  0  0  0  0
  188.7590  173.0450  139.4180 C   0  0  1  0  0  3  0  0  0  0  0  0
  190.3790  171.6890  138.0720 C   0  0  0  0  0  2  0  0  0  0  0  0
  1  9  1  1  0  0  0
  2  5  1  0  0  0  0
  2  3  1  0  0  0  0
  3  7  1  1  0  0  0
  5 14  1  0  0  0  0
  6  1  1  0  0  0  0
  7  4  1  0  0  0  0
  8 12  2  0  0  0  0
  8 13  1  0  0  0  0
 11  4  1  0  0  0  0
 12 16  1  0  0  0  0
 13  2  2  0  0  0  0
 14  1  1  0  0  0  0
 15 11  1  0  0  0  0
 16 17  1  0  0  0  0
 16  5  2  0  0  0  0
 17  6  1  0  0  0  0
 18 13  1  0  0  0  0
 18 10  1  0  0  0  0
 19 10  1  6  0  0  0
 19  3  1  0  0  0  0
 19 20  1  0  0  0  0
 20 15  1  0  0  0  0
 22 23  1  0  0  0  0
 22 21  2  0  0  0  0
 23  8  1  0  0  0  0
 24 31  1  0  0  0  0
 25 30  1  0  0  0  0
 27 24  1  0  0  0  0
 27 28  1  0  0  0  0
 28 25  1  0  0  0  0
 29 30  1  0  0  0  0
 29 26  1  1  0  0  0
 30 22  1  1  0  0  0
 31 29  1  0  0  0  0
M  END
>  <MODEL>
6

>  <REMARK>
 VINA RESULT:      -8.2      2.384      7.371
  Name = 
  2 active torsions:
  status: ('A' for Active; 'I' for Inactive)
    1  A    between atoms: C_9  and  C_22
    2  A    between atoms: C_15  and  N_23
                            x       y       z     vdW  Elec       q    Type
                         _______ _______ _______ _____ _____    ______ ____

>  <TORSDO>
F 2

$$$$
=
 OpenBabel11052417553D

 31 35  0  0  1  0  0  0  0  0999 V2000
  191.9000  171.4650  141.2520 C   0  0  2  0  0  3  0  0  0  0  0  0
  191.5580  174.0950  144.0210 C   0  0  0  0  0  0  0  0  0  0  0  0
  192.9070  174.0690  144.7500 C   0  0  1  0  0  3  0  0  0  0  0  0
  194.9070  174.8840  143.2520 C   0  0  0  0  0  2  0  0  0  0  0  0
  191.2310  173.1830  142.9800 C   0  0  0  0  0  0  0  0  0  0  0  0
  190.4260  171.1380  141.0920 C   0  0  0  0  0  2  0  0  0  0  0  0
  194.1170  173.7020  143.8650 C   0  0  0  0  0  2  0  0  0  0  0  0
  189.3150  175.0720  143.8350 C   0  0  0  0  0  0  0  0  0  0  0  0
  192.7240  170.2090  141.0640 C   0  0  0  0  0  1  0  0  0  0  0  0
  191.9630  175.6180  146.4800 C   0  0  0  0  0  2  0  0  0  0  0  0
  195.3040  175.9090  144.1480 O   0  0  0  0  0  0  0  0  0  0  0  0
  189.0440  174.2240  142.7620 C   0  0  0  0  0  3  0  0  0  0  0  0
  190.5530  174.9840  144.4870 C   0  0  0  0  0  0  0  0  0  0  0  0
  192.1370  172.0200  142.6510 C   0  0  0  0  0  2  0  0  0  0  0  0
  195.6650  175.3450  145.3880 C   0  0  0  0  0  2  0  0  0  0  0  0
  189.9680  173.2700  142.3480 C   0  0  0  0  0  0  0  0  0  0  0  0
  189.6130  172.4240  141.1560 C   0  0  0  0  0  2  0  0  0  0  0  0
  190.7870  175.8010  145.6430 N   0  0  0  0  0  2  0  0  0  0  0  0
  193.1450  175.3480  145.5780 C   0  0  1  0  0  3  0  0  0  0  0  0
  194.4680  175.3590  146.3470 C   0  0  0  0  0  2  0  0  0  0  0  0
  189.3390  178.0060  143.5230 O   0  0  0  0  0  0  0  0  0  0  0  0
  188.3790  177.4460  144.1190 C   0  0  0  0  0  0  0  0  0  0  0  0
  188.3440  176.0250  144.2960 N   0  0  0  0  0  2  0  0  0  0  0  0
  184.2670  178.6660  146.1510 C   0  0  0  0  0  2  0  0  0  0  0  0
  186.2750  178.5570  143.5160 C   0  0  0  0  0  2  0  0  0  0  0  0
  187.5940  177.0910  146.8790 C   0  0  0  0  0  1  0  0  0  0  0  0
  184.0660  178.6980  144.6340 C   0  0  0  0  0  2  0  0  0  0  0  0
  185.1390  179.4940  143.9060 C   0  0  0  0  0  2  0  0  0  0  0  0
  186.5710  177.6150  145.8830 C   0  0  2  0  0  3  0  0  0  0  0  0
  187.2500  178.2720  144.6610 C   0  0  1  0  0  3  0  0  0  0  0  0
  185.7250  178.6500  146.6120 C   0  0  0  0  0  2  0  0  0  0  0  0
  1  9  1  1  0  0  0
  1 14  1  0  0  0  0
  2 13  1  0  0  0  0
  2  3  1  0  0  0  0
  3  7  1  6  0  0  0
  3 19  1  0  0  0  0
  4  7  1  0  0  0  0
  4 11  1  0  0  0  0
  5  2  2  0  0  0  0
  6 17  1  0  0  0  0
  6  1  1  0  0  0  0
  8 23  1  0  0  0  0
  8 13  2  0  0  0  0
 11 15  1  0  0  0  0
 12  8  1  0  0  0  0
 13 18  1  0  0  0  0
 14  5  1  0  0  0  0
 15 20  1  0  0  0  0
 16 12  2  0  0  0  0
 16  5  1  0  0  0  0
 17 16  1  0  0  0  0
 18 10  1  0  0  0  0
 19 20  1  1  0  0  0
 19 10  1  0  0  0  0
 21 22  2  0  0  0  0
 22 23  1  0  0  0  0
 24 31  1  0  0  0  0
 25 28  1  0  0  0  0
 25 30  1  0  0  0  0
 27 24  1  0  0  0  0
 28 27  1  0  0  0  0
 29 31  1  0  0  0  0
 29 26  1  1  0  0  0
 30 22  1  6  0  0  0
 30 29  1  0  0  0  0
M  END
>  <MODEL>
7

>  <REMARK>
 VINA RESULT:      -8.0      1.757      2.563
  Name = 
  2 active torsions:
  status: ('A' for Active; 'I' for Inactive)
    1  A    between atoms: C_9  and  C_22
    2  A    between atoms: C_15  and  N_23
                            x       y       z     vdW  Elec       q    Type
                         _______ _______ _______ _____ _____    ______ ____

>  <TORSDO>
F 2

$$$$
=
 OpenBabel11052417553D

 31 35  0  0  1  0  0  0  0  0999 V2000
  191.0890  172.3150  139.1080 C   0  0  2  0  0  3  0  0  0  0  0  0
  191.7010  174.7550  142.0020 C   0  0  0  0  0  0  0  0  0  0  0  0
  193.2130  174.6930  142.2490 C   0  0  1  0  0  3  0  0  0  0  0  0
  194.6270  175.6220  140.2370 C   0  0  0  0  0  2  0  0  0  0  0  0
  191.0410  173.9100  141.0680 C   0  0  0  0  0  0  0  0  0  0  0  0
  189.6400  171.9850  139.4170 C   0  0  0  0  0  2  0  0  0  0  0  0
  194.0640  174.3970  140.9970 C   0  0  0  0  0  2  0  0  0  0  0  0
  189.5320  175.7230  142.6200 C   0  0  0  0  0  0  0  0  0  0  0  0
  191.7910  171.0810  138.5820 C   0  0  0  0  0  1  0  0  0  0  0  0
  192.9040  176.1190  144.2880 C   0  0  0  0  0  2  0  0  0  0  0  0
  195.3070  176.5900  141.0200 O   0  0  0  0  0  0  0  0  0  0  0  0
  188.9150  174.9430  141.6410 C   0  0  0  0  0  3  0  0  0  0  0  0
  190.9140  175.6030  142.8260 C   0  0  0  0  0  0  0  0  0  0  0  0
  191.7760  172.7800  140.3870 C   0  0  0  0  0  2  0  0  0  0  0  0
  196.0450  175.9510  142.0350 C   0  0  0  0  0  2  0  0  0  0  0  0
  189.6420  174.0270  140.8880 C   0  0  0  0  0  0  0  0  0  0  0  0
  188.9080  173.2570  139.8250 C   0  0  0  0  0  2  0  0  0  0  0  0
  191.5210  176.3450  143.8940 N   0  0  0  0  0  2  0  0  0  0  0  0
  193.7240  175.9190  143.0350 C   0  0  1  0  0  3  0  0  0  0  0  0
  195.2250  175.8910  143.3300 C   0  0  0  0  0  2  0  0  0  0  0  0
  186.6270  175.7370  143.1340 O   0  0  0  0  0  0  0  0  0  0  0  0
  187.3630  176.6080  143.6710 C   0  0  0  0  0  0  0  0  0  0  0  0
  188.7760  176.6340  143.4330 N   0  0  0  0  0  2  0  0  0  0  0  0
  184.7600  178.6450  147.0770 C   0  0  0  0  0  2  0  0  0  0  0  0
  185.5260  178.2230  143.8790 C   0  0  0  0  0  2  0  0  0  0  0  0
  187.6220  176.2810  146.5330 C   0  0  0  0  0  1  0  0  0  0  0  0
  184.0130  178.8170  145.7510 C   0  0  0  0  0  2  0  0  0  0  0  0
  184.8890  179.3770  144.6400 C   0  0  0  0  0  2  0  0  0  0  0  0
  186.4590  177.0940  145.9850 C   0  0  2  0  0  3  0  0  0  0  0  0
  186.7620  177.6430  144.5740 C   0  0  1  0  0  3  0  0  0  0  0  0
  186.2320  178.2540  146.9450 C   0  0  0  0  0  2  0  0  0  0  0  0
  1  9  1  1  0  0  0
  1  6  1  0  0  0  0
  1 14  1  0  0  0  0
  2  3  1  0  0  0  0
  2 13  1  0  0  0  0
  3  7  1  6  0  0  0
  3 19  1  0  0  0  0
  4  7  1  0  0  0  0
  4 11  1  0  0  0  0
  5  2  2  0  0  0  0
  6 17  1  0  0  0  0
  8 13  2  0  0  0  0
  8 23  1  0  0  0  0
 11 15  1  0  0  0  0
 12  8  1  0  0  0  0
 13 18  1  0  0  0  0
 14  5  1  0  0  0  0
 15 20  1  0  0  0  0
 16  5  1  0  0  0  0
 16 12  2  0  0  0  0
 17 16  1  0  0  0  0
 18 10  1  0  0  0  0
 19 20  1  1  0  0  0
 19 10  1  0  0  0  0
 21 22  2  0  0  0  0
 23 22  1  0  0  0  0
 25 30  1  0  0  0  0
 25 28  1  0  0  0  0
 27 24  1  0  0  0  0
 28 27  1  0  0  0  0
 29 26  1  1  0  0  0
 29 31  1  0  0  0  0
 30 22  1  6  0  0  0
 30 29  1  0  0  0  0
 31 24  1  0  0  0  0
M  END
>  <MODEL>
8

>  <REMARK>
 VINA RESULT:      -7.9      1.909      2.267
  Name = 
  2 active torsions:
  status: ('A' for Active; 'I' for Inactive)
    1  A    between atoms: C_9  and  C_22
    2  A    between atoms: C_15  and  N_23
                            x       y       z     vdW  Elec       q    Type
                         _______ _______ _______ _____ _____    ______ ____

>  <TORSDO>
F 2

$$$$
=
 OpenBabel11052417553D

 31 35  0  0  1  0  0  0  0  0999 V2000
  195.0440  173.8910  144.6370 C   0  0  2  0  0  3  0  0  0  0  0  0
  191.7680  174.0180  142.6500 C   0  0  0  0  0  0  0  0  0  0  0  0
  192.1150  173.4030  141.2890 C   0  0  1  0  0  3  0  0  0  0  0  0
  192.7460  170.8550  141.4390 C   0  0  0  0  0  2  0  0  0  0  0  0
  192.7440  174.2560  143.6560 C   0  0  0  0  0  0  0  0  0  0  0  0
  194.7590  175.0440  145.5830 C   0  0  0  0  0  2  0  0  0  0  0  0
  193.2180  172.3250  141.3260 C   0  0  0  0  0  2  0  0  0  0  0  0
  190.0630  175.0210  144.1030 C   0  0  0  0  0  0  0  0  0  0  0  0
  196.5140  173.8790  144.2780 C   0  0  0  0  0  1  0  0  0  0  0  0
  189.8430  174.0530  140.4530 C   0  0  0  0  0  2  0  0  0  0  0  0
  191.7490  170.4420  140.5180 O   0  0  0  0  0  0  0  0  0  0  0  0
  191.0200  175.1700  145.1070 C   0  0  0  0  0  3  0  0  0  0  0  0
  190.4420  174.4810  142.8650 C   0  0  0  0  0  0  0  0  0  0  0  0
  194.2160  174.0700  143.3710 C   0  0  0  0  0  2  0  0  0  0  0  0
  191.9740  171.0490  139.2670 C   0  0  0  0  0  2  0  0  0  0  0  0
  192.3490  174.8230  144.8910 C   0  0  0  0  0  0  0  0  0  0  0  0
  193.3070  174.9760  146.0390 C   0  0  0  0  0  2  0  0  0  0  0  0
  189.4690  174.4140  141.8120 N   0  0  0  0  0  2  0  0  0  0  0  0
  190.8590  172.9360  140.5240 C   0  0  1  0  0  3  0  0  0  0  0  0
  191.1510  172.3380  139.1470 C   0  0  0  0  0  2  0  0  0  0  0  0
  189.0450  177.6440  144.9900 O   0  0  0  0  0  0  0  0  0  0  0  0
  188.2360  176.7130  144.7290 C   0  0  0  0  0  0  0  0  0  0  0  0
  188.7000  175.4240  144.3060 N   0  0  0  0  0  2  0  0  0  0  0  0
  184.0320  178.8900  145.0600 C   0  0  0  0  0  2  0  0  0  0  0  0
  186.4190  176.9890  146.3560 C   0  0  0  0  0  2  0  0  0  0  0  0
  186.8740  178.2530  142.6950 C   0  0  0  0  0  1  0  0  0  0  0  0
  184.4940  178.5470  146.4790 C   0  0  0  0  0  2  0  0  0  0  0  0
  184.9260  177.0960  146.6320 C   0  0  0  0  0  2  0  0  0  0  0  0
  186.2840  178.1950  144.0960 C   0  0  2  0  0  3  0  0  0  0  0  0
  186.7600  176.9420  144.8640 C   0  0  1  0  0  3  0  0  0  0  0  0
  184.7690  178.1520  143.9420 C   0  0  0  0  0  2  0  0  0  0  0  0
  1  9  1  6  0  0  0
  1  6  1  0  0  0  0
  2 13  2  0  0  0  0
  2  5  1  0  0  0  0
  3  7  1  1  0  0  0
  3  2  1  0  0  0  0
  5 16  2  0  0  0  0
  6 17  1  0  0  0  0
  7  4  1  0  0  0  0
  8 23  1  0  0  0  0
  8 12  2  0  0  0  0
 10 19  1  0  0  0  0
 10 18  1  0  0  0  0
 11  4  1  0  0  0  0
 13  8  1  0  0  0  0
 14  5  1  0  0  0  0
 14  1  1  0  0  0  0
 15 11  1  0  0  0  0
 16 12  1  0  0  0  0
 16 17  1  0  0  0  0
 18 13  1  0  0  0  0
 19 20  1  6  0  0  0
 19  3  1  0  0  0  0
 20 15  1  0  0  0  0
 22 21  2  0  0  0  0
 23 22  1  0  0  0  0
 24 27  1  0  0  0  0
 25 28  1  0  0  0  0
 27 28  1  0  0  0  0
 29 26  1  6  0  0  0
 29 30  1  0  0  0  0
 30 22  1  1  0  0  0
 30 25  1  0  0  0  0
 31 29  1  0  0  0  0
 31 24  1  0  0  0  0
M  END
>  <MODEL>
9

>  <REMARK>
 VINA RESULT:      -7.8      1.854      4.603
  Name = 
  2 active torsions:
  status: ('A' for Active; 'I' for Inactive)
    1  A    between atoms: C_9  and  C_22
    2  A    between atoms: C_15  and  N_23
                            x       y       z     vdW  Elec       q    Type
                         _______ _______ _______ _____ _____    ______ ____

>  <TORSDO>
F 2

$$$$
