=
 OpenBabel11052417513D

 31 35  0  0  0  0  0  0  0  0999 V2000
  187.5180  176.5810  144.2270 C   0  0  0  0  0  0  0  0  0  0  0  0
  186.8400  177.1260  145.3390 C   0  0  0  0  0  0  0  0  0  0  0  0
  185.1290  178.5440  146.3260 C   0  0  0  0  0  0  0  0  0  0  0  0
  187.1620  176.8470  142.8250 C   0  0  0  0  0  0  0  0  0  0  0  0
  186.3170  177.3350  140.8280 C   0  0  0  0  0  0  0  0  0  0  0  0
  185.7750  178.0290  145.1990 C   0  0  0  0  0  3  0  0  0  0  0  0
  189.3920  175.0890  143.2810 C   0  0  0  0  0  0  0  0  0  0  0  0
  188.2750  175.8690  146.8020 N   0  0  0  0  0  0  0  0  0  0  0  0
  184.1020  179.4150  146.1780 F   0  0  0  0  0  0  0  0  0  0  0  0
  188.8230  175.3540  141.9450 N   0  0  0  0  0  4  0  0  0  0  0  0
  188.5870  175.6800  144.4360 C   0  0  0  0  0  0  0  0  0  0  0  0
  186.1920  177.5690  142.2830 C   0  0  0  0  0  3  0  0  0  0  0  0
  185.5400  178.1620  147.6050 C   0  0  0  0  0  3  0  0  0  0  0  0
  187.8420  176.1800  141.7610 C   0  0  0  0  0  0  0  0  0  0  0  0
  187.2650  176.5070  140.5130 N   0  0  0  0  0  0  0  0  0  0  0  0
  188.9410  175.3400  145.7440 C   0  0  0  0  0  3  0  0  0  0  0  0
  187.2490  176.7440  146.6390 C   0  0  0  0  0  0  0  0  0  0  0  0
  186.5980  177.2630  147.7610 C   0  0  0  0  0  3  0  0  0  0  0  0
  191.7230  173.4900  143.5930 O   0  0  0  0  0  0  0  0  0  0  0  0
  191.8950  174.7340  143.4780 C   0  0  0  0  0  0  0  0  0  0  0  0
  190.7590  175.5920  143.3340 N   0  0  0  0  0  2  0  0  0  0  0  0
  195.8260  176.4160  143.4080 C   0  0  0  0  0  0  0  0  0  0  0  0
  193.9240  175.4880  142.2720 C   0  0  0  0  0  3  0  0  0  0  0  0
  193.3220  175.5940  146.0310 C   0  0  0  0  0  1  0  0  0  0  0  0
  197.1910  176.9990  143.3770 C   0  0  0  0  0  1  0  0  0  0  0  0
  195.2050  176.0340  142.2220 C   0  0  0  0  0  3  0  0  0  0  0  0
  193.9310  175.7250  144.6760 C   0  0  0  0  0  0  0  0  0  0  0  0
  193.2590  175.3220  143.4940 C   0  0  0  0  0  0  0  0  0  0  0  0
  195.1820  176.2550  144.5940 N   0  0  0  0  0  0  0  0  0  0  0  0
  185.3950  177.9170  139.8150 C   0  0  0  0  0  2  0  0  0  0  0  0
  184.3630  178.5990  140.4580 O   0  0  0  0  0  1  0  0  0  0  0  0
  1 11  2  0  0  0  0
  1  2  1  0  0  0  0
  2 17  1  0  0  0  0
  3 13  2  0  0  0  0
  4  1  1  0  0  0  0
  5 12  1  0  0  0  0
  6  2  2  0  0  0  0
  6  3  1  0  0  0  0
  7 21  1  0  0  0  0
  7 11  1  0  0  0  0
  9  3  1  0  0  0  0
 10  7  2  0  0  0  0
 11 16  1  0  0  0  0
 12  4  2  0  0  0  0
 13 18  1  0  0  0  0
 14 10  2  0  0  0  0
 14  4  1  0  0  0  0
 15  5  2  0  0  0  0
 15 14  1  0  0  0  0
 16  8  2  0  0  0  0
 17  8  1  0  0  0  0
 17 18  2  0  0  0  0
 20 28  1  0  0  0  0
 20 19  2  0  0  0  0
 21 20  1  0  0  0  0
 22 29  1  0  0  0  0
 23 28  2  0  0  0  0
 25 22  1  0  0  0  0
 26 23  1  0  0  0  0
 26 22  2  0  0  0  0
 27 24  1  0  0  0  0
 28 27  1  0  0  0  0
 29 27  2  0  0  0  0
 30 31  1  0  0  0  0
 30  5  1  0  0  0  0
M  END
>  <MODEL>
1

>  <REMARK>
 VINA RESULT:      -8.5      0.000      0.000
  Name = 
  3 active torsions:
  status: ('A' for Active; 'I' for Inactive)
    1  A    between atoms: C_2  and  CA_13
    2  A    between atoms: C_9  and  C_22
    3  A    between atoms: C_15  and  N_23
                            x       y       z     vdW  Elec       q    Type
                         _______ _______ _______ _____ _____    ______ ____

>  <TORSDO>
F 3

$$$$
=
 OpenBabel11052417513D

 31 35  0  0  0  0  0  0  0  0999 V2000
  187.8540  176.3580  144.1480 C   0  0  0  0  0  0  0  0  0  0  0  0
  187.2190  177.2170  145.0720 C   0  0  0  0  0  0  0  0  0  0  0  0
  185.7800  179.1030  145.6120 C   0  0  0  0  0  0  0  0  0  0  0  0
  187.6850  176.4360  142.6900 C   0  0  0  0  0  0  0  0  0  0  0  0
  187.1380  176.7200  140.5540 C   0  0  0  0  0  0  0  0  0  0  0  0
  186.3910  178.2760  144.6650 C   0  0  0  0  0  3  0  0  0  0  0  0
  189.4320  174.3770  143.6810 C   0  0  0  0  0  0  0  0  0  0  0  0
  188.2170  175.9810  146.8750 N   0  0  0  0  0  0  0  0  0  0  0  0
  184.9840  180.1200  145.2070 F   0  0  0  0  0  0  0  0  0  0  0  0
  189.0490  174.5090  142.2610 N   0  0  0  0  0  4  0  0  0  0  0  0
  188.6790  175.3140  144.6230 C   0  0  0  0  0  0  0  0  0  0  0  0
  186.9440  177.2290  141.9290 C   0  0  0  0  0  3  0  0  0  0  0  0
  185.9890  178.8800  146.9750 C   0  0  0  0  0  3  0  0  0  0  0  0
  188.2900  175.4670  141.8340 C   0  0  0  0  0  0  0  0  0  0  0  0
  187.9060  175.6750  140.4890 N   0  0  0  0  0  0  0  0  0  0  0  0
  188.8390  175.1490  146.0020 C   0  0  0  0  0  3  0  0  0  0  0  0
  187.4240  177.0000  146.4550 C   0  0  0  0  0  0  0  0  0  0  0  0
  186.8080  177.8300  147.3960 C   0  0  0  0  0  3  0  0  0  0  0  0
  191.3050  172.4670  144.6430 O   0  0  0  0  0  0  0  0  0  0  0  0
  191.7620  173.5900  144.2960 C   0  0  0  0  0  0  0  0  0  0  0  0
  190.8650  174.5980  143.8180 N   0  0  0  0  0  2  0  0  0  0  0  0
  195.9630  174.3740  144.4390 C   0  0  0  0  0  0  0  0  0  0  0  0
  194.0510  173.3890  143.3700 C   0  0  0  0  0  3  0  0  0  0  0  0
  193.0200  175.2080  146.5520 C   0  0  0  0  0  1  0  0  0  0  0  0
  197.4230  174.6420  144.4830 C   0  0  0  0  0  1  0  0  0  0  0  0
  195.4230  173.6310  143.3930 C   0  0  0  0  0  3  0  0  0  0  0  0
  193.8100  174.6350  145.4250 C   0  0  0  0  0  0  0  0  0  0  0  0
  193.2160  173.8830  144.3800 C   0  0  0  0  0  0  0  0  0  0  0  0
  195.1540  174.8540  145.4190 N   0  0  0  0  0  0  0  0  0  0  0  0
  186.4540  177.2830  139.3590 C   0  0  0  0  0  2  0  0  0  0  0  0
  186.6650  176.4500  138.2610 O   0  0  0  0  0  1  0  0  0  0  0  0
  1 11  2  0  0  0  0
  1  2  1  0  0  0  0
  2 17  1  0  0  0  0
  3 13  2  0  0  0  0
  4  1  1  0  0  0  0
  5 12  1  0  0  0  0
  6  2  2  0  0  0  0
  6  3  1  0  0  0  0
  7 21  1  0  0  0  0
  7 11  1  0  0  0  0
  9  3  1  0  0  0  0
 10  7  2  0  0  0  0
 11 16  1  0  0  0  0
 12  4  2  0  0  0  0
 13 18  1  0  0  0  0
 14 10  2  0  0  0  0
 14  4  1  0  0  0  0
 15  5  2  0  0  0  0
 15 14  1  0  0  0  0
 16  8  2  0  0  0  0
 17  8  1  0  0  0  0
 17 18  2  0  0  0  0
 20 28  1  0  0  0  0
 20 19  2  0  0  0  0
 21 20  1  0  0  0  0
 22 25  1  0  0  0  0
 22 29  1  0  0  0  0
 23 26  1  0  0  0  0
 23 28  2  0  0  0  0
 26 22  2  0  0  0  0
 27 24  1  0  0  0  0
 28 27  1  0  0  0  0
 29 27  2  0  0  0  0
 30  5  1  0  0  0  0
 31 30  1  0  0  0  0
M  END
>  <MODEL>
2

>  <REMARK>
 VINA RESULT:      -8.0      1.471      1.471
  Name = 
  3 active torsions:
  status: ('A' for Active; 'I' for Inactive)
    1  A    between atoms: C_2  and  CA_13
    2  A    between atoms: C_9  and  C_22
    3  A    between atoms: C_15  and  N_23
                            x       y       z     vdW  Elec       q    Type
                         _______ _______ _______ _____ _____    ______ ____

>  <TORSDO>
F 3

$$$$
=
 OpenBabel11052417513D

 31 35  0  0  0  0  0  0  0  0999 V2000
  186.4000  177.5030  142.9460 C   0  0  0  0  0  0  0  0  0  0  0  0
  185.2040  177.8650  142.2870 C   0  0  0  0  0  0  0  0  0  0  0  0
  182.8910  178.6170  142.2970 C   0  0  0  0  0  0  0  0  0  0  0  0
  186.5940  177.5540  144.4030 C   0  0  0  0  0  0  0  0  0  0  0  0
  186.6270  177.8520  146.6050 C   0  0  0  0  0  0  0  0  0  0  0  0
  184.0550  178.2650  142.9860 C   0  0  0  0  0  3  0  0  0  0  0  0
  188.8290  176.6560  142.8310 C   0  0  0  0  0  0  0  0  0  0  0  0
  186.2660  177.4420  140.1730 N   0  0  0  0  0  0  0  0  0  0  0  0
  181.7890  179.0030  142.9830 F   0  0  0  0  0  0  0  0  0  0  0  0
  188.8980  176.8910  144.2860 N   0  0  0  0  0  4  0  0  0  0  0  0
  187.5210  177.1030  142.1830 C   0  0  0  0  0  0  0  0  0  0  0  0
  185.7950  177.9410  145.3850 C   0  0  0  0  0  3  0  0  0  0  0  0
  182.8650  178.5730  140.9010 C   0  0  0  0  0  3  0  0  0  0  0  0
  187.8670  177.2600  144.9780 C   0  0  0  0  0  0  0  0  0  0  0  0
  187.8480  177.4750  146.3750 N   0  0  0  0  0  0  0  0  0  0  0  0
  187.4220  177.0860  140.7890 C   0  0  0  0  0  3  0  0  0  0  0  0
  185.1670  177.8230  140.8730 C   0  0  0  0  0  0  0  0  0  0  0  0
  184.0000  178.1770  140.1900 C   0  0  0  0  0  3  0  0  0  0  0  0
  191.3580  175.4430  142.3620 O   0  0  0  0  0  0  0  0  0  0  0  0
  190.3490  174.6850  142.3440 C   0  0  0  0  0  0  0  0  0  0  0  0
  189.0480  175.2410  142.5580 N   0  0  0  0  0  2  0  0  0  0  0  0
  190.7700  170.5100  141.5270 C   0  0  0  0  0  0  0  0  0  0  0  0
  190.6660  172.7900  140.7810 C   0  0  0  0  0  3  0  0  0  0  0  0
  190.2820  172.5980  144.5640 C   0  0  0  0  0  1  0  0  0  0  0  0
  190.9160  169.0610  141.2360 C   0  0  0  0  0  1  0  0  0  0  0  0
  190.8050  171.4350  140.4870 C   0  0  0  0  0  3  0  0  0  0  0  0
  190.4630  172.2480  143.1250 C   0  0  0  0  0  0  0  0  0  0  0  0
  190.4920  173.2270  142.1000 C   0  0  0  0  0  0  0  0  0  0  0  0
  190.6020  170.9320  142.8070 N   0  0  0  0  0  0  0  0  0  0  0  0
  186.1530  178.2390  147.9600 C   0  0  0  0  0  2  0  0  0  0  0  0
  187.0030  179.2060  148.4970 O   0  0  0  0  0  1  0  0  0  0  0  0
  1  4  1  0  0  0  0
  2  1  1  0  0  0  0
  2  6  1  0  0  0  0
  3  9  1  0  0  0  0
  3  6  2  0  0  0  0
  4 14  1  0  0  0  0
  4 12  2  0  0  0  0
  5 30  1  0  0  0  0
  7 10  2  0  0  0  0
  8 16  2  0  0  0  0
  8 17  1  0  0  0  0
 10 14  2  0  0  0  0
 11  7  1  0  0  0  0
 11  1  2  0  0  0  0
 12  5  1  0  0  0  0
 13  3  1  0  0  0  0
 14 15  1  0  0  0  0
 15  5  2  0  0  0  0
 16 11  1  0  0  0  0
 17  2  2  0  0  0  0
 18 17  1  0  0  0  0
 18 13  2  0  0  0  0
 20 19  2  0  0  0  0
 20 21  1  0  0  0  0
 21  7  1  0  0  0  0
 22 29  1  0  0  0  0
 23 28  2  0  0  0  0
 25 22  1  0  0  0  0
 26 23  1  0  0  0  0
 26 22  2  0  0  0  0
 27 24  1  0  0  0  0
 28 20  1  0  0  0  0
 28 27  1  0  0  0  0
 29 27  2  0  0  0  0
 30 31  1  0  0  0  0
M  END
>  <MODEL>
3

>  <REMARK>
 VINA RESULT:      -7.8      3.288      5.419
  Name = 
  3 active torsions:
  status: ('A' for Active; 'I' for Inactive)
    1  A    between atoms: C_2  and  CA_13
    2  A    between atoms: C_9  and  C_22
    3  A    between atoms: C_15  and  N_23
                            x       y       z     vdW  Elec       q    Type
                         _______ _______ _______ _____ _____    ______ ____

>  <TORSDO>
F 3

$$$$
=
 OpenBabel11052417513D

 31 35  0  0  0  0  0  0  0  0999 V2000
  188.7660  175.9680  144.6210 C   0  0  0  0  0  0  0  0  0  0  0  0
  189.5770  176.2260  145.7480 C   0  0  0  0  0  0  0  0  0  0  0  0
  190.2160  177.5730  147.6700 C   0  0  0  0  0  0  0  0  0  0  0  0
  187.6260  176.8020  144.2090 C   0  0  0  0  0  0  0  0  0  0  0  0
  185.9020  178.1720  143.9100 C   0  0  0  0  0  0  0  0  0  0  0  0
  189.3920  177.3550  146.5620 C   0  0  0  0  0  3  0  0  0  0  0  0
  188.1990  174.5000  142.5830 C   0  0  0  0  0  0  0  0  0  0  0  0
  190.8070  174.2110  145.2970 N   0  0  0  0  0  0  0  0  0  0  0  0
  190.0270  178.6660  148.4480 F   0  0  0  0  0  0  0  0  0  0  0  0
  187.0170  175.3620  142.3880 N   0  0  0  0  0  4  0  0  0  0  0  0
  189.0070  174.8160  143.8390 C   0  0  0  0  0  0  0  0  0  0  0  0
  187.0890  177.8880  144.7450 C   0  0  0  0  0  3  0  0  0  0  0  0
  191.2320  176.6660  147.9760 C   0  0  0  0  0  3  0  0  0  0  0  0
  186.8010  176.4150  143.1100 C   0  0  0  0  0  0  0  0  0  0  0  0
  185.7110  177.3040  142.9640 N   0  0  0  0  0  0  0  0  0  0  0  0
  190.0410  173.9500  144.2080 C   0  0  0  0  0  3  0  0  0  0  0  0
  190.6090  175.3130  146.0670 C   0  0  0  0  0  0  0  0  0  0  0  0
  191.4280  175.5370  147.1760 C   0  0  0  0  0  3  0  0  0  0  0  0
  189.1740  172.2910  141.0810 O   0  0  0  0  0  0  0  0  0  0  0  0
  189.5100  173.4410  140.6880 C   0  0  0  0  0  0  0  0  0  0  0  0
  189.0630  174.5910  141.4130 N   0  0  0  0  0  2  0  0  0  0  0  0
  192.0700  173.9470  137.3010 C   0  0  0  0  0  0  0  0  0  0  0  0
  191.7570  173.6190  139.6600 C   0  0  0  0  0  3  0  0  0  0  0  0
  188.3990  173.8090  137.8730 C   0  0  0  0  0  1  0  0  0  0  0  0
  192.9650  174.1220  136.1290 C   0  0  0  0  0  1  0  0  0  0  0  0
  192.6140  173.7820  138.5730 C   0  0  0  0  0  3  0  0  0  0  0  0
  189.8600  173.7910  138.1740 C   0  0  0  0  0  0  0  0  0  0  0  0
  190.3670  173.6200  139.4870 C   0  0  0  0  0  0  0  0  0  0  0  0
  190.7220  173.9470  137.1330 N   0  0  0  0  0  0  0  0  0  0  0  0
  184.9560  179.2900  144.1710 C   0  0  0  0  0  2  0  0  0  0  0  0
  184.2480  179.0410  145.3470 O   0  0  0  0  0  1  0  0  0  0  0  0
  1  2  1  0  0  0  0
  2 17  2  0  0  0  0
  2  6  1  0  0  0  0
  3 13  1  0  0  0  0
  3  9  1  0  0  0  0
  4  1  1  0  0  0  0
  4 12  2  0  0  0  0
  5 30  1  0  0  0  0
  5 12  1  0  0  0  0
  6  3  2  0  0  0  0
  7 11  1  0  0  0  0
  8 17  1  0  0  0  0
 10  7  2  0  0  0  0
 10 14  2  0  0  0  0
 11 16  1  0  0  0  0
 11  1  2  0  0  0  0
 14  4  1  0  0  0  0
 15 14  1  0  0  0  0
 15  5  2  0  0  0  0
 16  8  2  0  0  0  0
 17 18  1  0  0  0  0
 18 13  2  0  0  0  0
 20 19  2  0  0  0  0
 20 21  1  0  0  0  0
 21  7  1  0  0  0  0
 22 26  1  0  0  0  0
 24 27  1  0  0  0  0
 25 22  1  0  0  0  0
 26 23  2  0  0  0  0
 27 28  2  0  0  0  0
 28 23  1  0  0  0  0
 28 20  1  0  0  0  0
 29 22  2  0  0  0  0
 29 27  1  0  0  0  0
 30 31  1  0  0  0  0
M  END
>  <MODEL>
4

>  <REMARK>
 VINA RESULT:      -7.7      3.349      4.916
  Name = 
  3 active torsions:
  status: ('A' for Active; 'I' for Inactive)
    1  A    between atoms: C_2  and  CA_13
    2  A    between atoms: C_9  and  C_22
    3  A    between atoms: C_15  and  N_23
                            x       y       z     vdW  Elec       q    Type
                         _______ _______ _______ _____ _____    ______ ____

>  <TORSDO>
F 3

$$$$
=
 OpenBabel11052417513D

 31 35  0  0  0  0  0  0  0  0999 V2000
  188.6130  177.4920  144.5300 C   0  0  0  0  0  0  0  0  0  0  0  0
  187.3290  178.0160  144.8000 C   0  0  0  0  0  0  0  0  0  0  0  0
  185.5720  178.7080  146.3320 C   0  0  0  0  0  0  0  0  0  0  0  0
  189.5920  177.1190  145.5620 C   0  0  0  0  0  0  0  0  0  0  0  0
  190.8960  176.7660  147.3270 C   0  0  0  0  0  0  0  0  0  0  0  0
  186.8480  178.1840  146.1070 C   0  0  0  0  0  3  0  0  0  0  0  0
  190.3910  176.7410  142.8250 C   0  0  0  0  0  0  0  0  0  0  0  0
  186.9470  178.2370  142.4370 N   0  0  0  0  0  0  0  0  0  0  0  0
  185.1190  178.8650  147.5980 F   0  0  0  0  0  0  0  0  0  0  0  0
  191.2970  176.5440  143.9730 N   0  0  0  0  0  4  0  0  0  0  0  0
  189.0360  177.3430  143.1890 C   0  0  0  0  0  0  0  0  0  0  0  0
  189.5520  177.1960  146.8840 C   0  0  0  0  0  3  0  0  0  0  0  0
  184.7640  179.0700  145.2520 C   0  0  0  0  0  3  0  0  0  0  0  0
  190.9030  176.6850  145.1990 C   0  0  0  0  0  0  0  0  0  0  0  0
  191.7020  176.4860  146.3490 N   0  0  0  0  0  0  0  0  0  0  0  0
  188.1750  177.7300  142.1590 C   0  0  0  0  0  3  0  0  0  0  0  0
  186.5040  178.3860  143.7120 C   0  0  0  0  0  0  0  0  0  0  0  0
  185.2290  178.9100  143.9440 C   0  0  0  0  0  3  0  0  0  0  0  0
  192.4480  175.1450  141.6810 O   0  0  0  0  0  0  0  0  0  0  0  0
  191.2700  174.7020  141.5990 C   0  0  0  0  0  0  0  0  0  0  0  0
  190.1910  175.4690  142.1430 N   0  0  0  0  0  2  0  0  0  0  0  0
  190.4530  171.0090  139.6070 C   0  0  0  0  0  0  0  0  0  0  0  0
  190.8600  173.3750  139.5490 C   0  0  0  0  0  3  0  0  0  0  0  0
  190.9480  172.0870  143.1310 C   0  0  0  0  0  1  0  0  0  0  0  0
  190.1690  169.7290  138.9090 C   0  0  0  0  0  1  0  0  0  0  0  0
  190.5940  172.1850  138.8750 C   0  0  0  0  0  3  0  0  0  0  0  0
  190.8350  172.1780  141.6460 C   0  0  0  0  0  0  0  0  0  0  0  0
  190.9860  173.4000  140.9430 C   0  0  0  0  0  0  0  0  0  0  0  0
  190.5760  171.0320  140.9600 N   0  0  0  0  0  0  0  0  0  0  0  0
  191.3280  176.7380  148.7500 C   0  0  0  0  0  2  0  0  0  0  0  0
  191.5080  178.0420  149.2110 O   0  0  0  0  0  1  0  0  0  0  0  0
  1  2  1  0  0  0  0
  1  4  1  0  0  0  0
  2  6  1  0  0  0  0
  3  9  1  0  0  0  0
  4 12  2  0  0  0  0
  5 30  1  0  0  0  0
  6  3  2  0  0  0  0
  7 11  1  0  0  0  0
  7 10  2  0  0  0  0
  8 17  1  0  0  0  0
 10 14  2  0  0  0  0
 11  1  2  0  0  0  0
 12  5  1  0  0  0  0
 13  3  1  0  0  0  0
 14  4  1  0  0  0  0
 14 15  1  0  0  0  0
 15  5  2  0  0  0  0
 16  8  2  0  0  0  0
 16 11  1  0  0  0  0
 17 18  1  0  0  0  0
 17  2  2  0  0  0  0
 18 13  2  0  0  0  0
 20 19  2  0  0  0  0
 20 21  1  0  0  0  0
 21  7  1  0  0  0  0
 22 29  1  0  0  0  0
 23 28  2  0  0  0  0
 25 22  1  0  0  0  0
 26 23  1  0  0  0  0
 26 22  2  0  0  0  0
 27 24  1  0  0  0  0
 28 20  1  0  0  0  0
 28 27  1  0  0  0  0
 29 27  2  0  0  0  0
 30 31  1  0  0  0  0
M  END
>  <MODEL>
5

>  <REMARK>
 VINA RESULT:      -7.6      3.230      5.543
  Name = 
  3 active torsions:
  status: ('A' for Active; 'I' for Inactive)
    1  A    between atoms: C_2  and  CA_13
    2  A    between atoms: C_9  and  C_22
    3  A    between atoms: C_15  and  N_23
                            x       y       z     vdW  Elec       q    Type
                         _______ _______ _______ _____ _____    ______ ____

>  <TORSDO>
F 3

$$$$
=
 OpenBabel11052417513D

 31 35  0  0  0  0  0  0  0  0999 V2000
  192.1510  174.2370  143.4940 C   0  0  0  0  0  0  0  0  0  0  0  0
  193.3210  174.3100  144.2810 C   0  0  0  0  0  0  0  0  0  0  0  0
  195.2240  173.2860  145.3990 C   0  0  0  0  0  0  0  0  0  0  0  0
  191.6220  172.9980  142.9050 C   0  0  0  0  0  0  0  0  0  0  0  0
  191.1400  171.0040  142.0500 C   0  0  0  0  0  0  0  0  0  0  0  0
  194.0700  173.1720  144.6190 C   0  0  0  0  0  3  0  0  0  0  0  0
  190.1430  175.4100  142.3880 C   0  0  0  0  0  0  0  0  0  0  0  0
  193.0490  176.6940  144.4280 N   0  0  0  0  0  0  0  0  0  0  0  0
  195.9380  172.1810  145.7180 F   0  0  0  0  0  0  0  0  0  0  0  0
  189.8260  174.1100  141.7650 N   0  0  0  0  0  4  0  0  0  0  0  0
  191.4400  175.4210  143.1940 C   0  0  0  0  0  0  0  0  0  0  0  0
  192.0700  171.7520  142.9240 C   0  0  0  0  0  3  0  0  0  0  0  0
  195.6420  174.5410  145.8500 C   0  0  0  0  0  3  0  0  0  0  0  0
  190.4840  173.0300  142.0430 C   0  0  0  0  0  0  0  0  0  0  0  0
  190.2210  171.7460  141.5110 N   0  0  0  0  0  0  0  0  0  0  0  0
  191.9190  176.6420  143.6770 C   0  0  0  0  0  3  0  0  0  0  0  0
  193.7530  175.5760  144.7430 C   0  0  0  0  0  0  0  0  0  0  0  0
  194.9080  175.6840  145.5220 C   0  0  0  0  0  3  0  0  0  0  0  0
  188.8080  177.9170  142.2570 O   0  0  0  0  0  0  0  0  0  0  0  0
  188.3930  177.0940  143.1170 C   0  0  0  0  0  0  0  0  0  0  0  0
  189.0360  175.8210  143.2410 N   0  0  0  0  0  2  0  0  0  0  0  0
  185.1790  178.0490  145.7700 C   0  0  0  0  0  0  0  0  0  0  0  0
  187.4940  177.5410  145.3820 C   0  0  0  0  0  3  0  0  0  0  0  0
  185.5520  177.5410  142.1060 C   0  0  0  0  0  1  0  0  0  0  0  0
  184.0660  178.3800  146.6970 C   0  0  0  0  0  1  0  0  0  0  0  0
  186.4640  177.8510  146.2680 C   0  0  0  0  0  3  0  0  0  0  0  0
  185.9270  177.6370  143.5470 C   0  0  0  0  0  0  0  0  0  0  0  0
  187.2510  177.4270  144.0070 C   0  0  0  0  0  0  0  0  0  0  0  0
  184.9420  177.9390  144.4370 N   0  0  0  0  0  0  0  0  0  0  0  0
  191.2830  169.5570  141.7360 C   0  0  0  0  0  2  0  0  0  0  0  0
  190.8160  169.3090  140.4460 O   0  0  0  0  0  1  0  0  0  0  0  0
  1  2  1  0  0  0  0
  2  6  2  0  0  0  0
  2 17  1  0  0  0  0
  3  9  1  0  0  0  0
  3 13  2  0  0  0  0
  4 12  2  0  0  0  0
  4  1  1  0  0  0  0
  5 12  1  0  0  0  0
  6  3  1  0  0  0  0
  7 11  1  0  0  0  0
  7 21  1  0  0  0  0
  8 17  1  0  0  0  0
 10 14  2  0  0  0  0
 10  7  2  0  0  0  0
 11  1  2  0  0  0  0
 11 16  1  0  0  0  0
 14  4  1  0  0  0  0
 15 14  1  0  0  0  0
 15  5  2  0  0  0  0
 16  8  2  0  0  0  0
 17 18  2  0  0  0  0
 18 13  1  0  0  0  0
 19 20  2  0  0  0  0
 20 21  1  0  0  0  0
 20 28  1  0  0  0  0
 22 26  1  0  0  0  0
 22 25  1  0  0  0  0
 23 26  2  0  0  0  0
 24 27  1  0  0  0  0
 27 28  2  0  0  0  0
 27 29  1  0  0  0  0
 28 23  1  0  0  0  0
 29 22  2  0  0  0  0
 30  5  1  0  0  0  0
 31 30  1  0  0  0  0
M  END
>  <MODEL>
6

>  <REMARK>
 VINA RESULT:      -7.4      3.568      8.140
  Name = 
  3 active torsions:
  status: ('A' for Active; 'I' for Inactive)
    1  A    between atoms: C_2  and  CA_13
    2  A    between atoms: C_9  and  C_22
    3  A    between atoms: C_15  and  N_23
                            x       y       z     vdW  Elec       q    Type
                         _______ _______ _______ _____ _____    ______ ____

>  <TORSDO>
F 3

$$$$
=
 OpenBabel11052417513D

 31 35  0  0  0  0  0  0  0  0999 V2000
  192.4360  174.0570  143.6070 C   0  0  0  0  0  0  0  0  0  0  0  0
  193.6290  174.0520  144.3620 C   0  0  0  0  0  0  0  0  0  0  0  0
  195.5090  172.9080  145.3970 C   0  0  0  0  0  0  0  0  0  0  0  0
  191.8310  172.8620  142.9990 C   0  0  0  0  0  0  0  0  0  0  0  0
  191.2300  170.9180  142.1060 C   0  0  0  0  0  0  0  0  0  0  0  0
  194.3310  172.8700  144.6470 C   0  0  0  0  0  3  0  0  0  0  0  0
  190.4570  175.3550  142.5900 C   0  0  0  0  0  0  0  0  0  0  0  0
  193.4760  176.4410  144.5800 N   0  0  0  0  0  0  0  0  0  0  0  0
  196.1780  171.7610  145.6650 F   0  0  0  0  0  0  0  0  0  0  0  0
  190.0610  174.0900  141.9420 N   0  0  0  0  0  4  0  0  0  0  0  0
  191.7740  175.2820  143.3590 C   0  0  0  0  0  0  0  0  0  0  0  0
  192.2190  171.5950  142.9730 C   0  0  0  0  0  3  0  0  0  0  0  0
  196.0000  174.1270  145.8690 C   0  0  0  0  0  3  0  0  0  0  0  0
  190.6730  172.9720  142.1720 C   0  0  0  0  0  0  0  0  0  0  0  0
  190.3340  171.7180  141.6140 N   0  0  0  0  0  0  0  0  0  0  0  0
  192.3250  176.4640  143.8600 C   0  0  0  0  0  3  0  0  0  0  0  0
  194.1340  175.2820  144.8440 C   0  0  0  0  0  0  0  0  0  0  0  0
  195.3140  175.3130  145.5930 C   0  0  0  0  0  3  0  0  0  0  0  0
  189.2130  177.9110  142.5370 O   0  0  0  0  0  0  0  0  0  0  0  0
  188.7960  177.0910  143.4000 C   0  0  0  0  0  0  0  0  0  0  0  0
  189.3950  175.7940  143.4850 N   0  0  0  0  0  2  0  0  0  0  0  0
  185.5610  178.1440  145.9900 C   0  0  0  0  0  0  0  0  0  0  0  0
  186.4340  177.7270  143.7920 C   0  0  0  0  0  3  0  0  0  0  0  0
  189.1490  177.2700  146.4230 C   0  0  0  0  0  1  0  0  0  0  0  0
  184.4330  178.5110  146.8840 C   0  0  0  0  0  1  0  0  0  0  0  0
  185.3630  178.0720  144.6140 C   0  0  0  0  0  3  0  0  0  0  0  0
  187.8510  177.5390  145.7390 C   0  0  0  0  0  0  0  0  0  0  0  0
  187.6970  177.4530  144.3320 C   0  0  0  0  0  0  0  0  0  0  0  0
  186.7860  177.8780  146.5150 N   0  0  0  0  0  0  0  0  0  0  0  0
  191.2940  169.4750  141.7490 C   0  0  0  0  0  2  0  0  0  0  0  0
  192.0790  168.7960  142.6810 O   0  0  0  0  0  1  0  0  0  0  0  0
  1  2  1  0  0  0  0
  2  6  2  0  0  0  0
  2 17  1  0  0  0  0
  3  9  1  0  0  0  0
  3 13  2  0  0  0  0
  4  1  1  0  0  0  0
  5 12  1  0  0  0  0
  6  3  1  0  0  0  0
  7 11  1  0  0  0  0
  7 21  1  0  0  0  0
  8 17  1  0  0  0  0
 10 14  2  0  0  0  0
 10  7  2  0  0  0  0
 11  1  2  0  0  0  0
 11 16  1  0  0  0  0
 12  4  2  0  0  0  0
 14  4  1  0  0  0  0
 15  5  2  0  0  0  0
 15 14  1  0  0  0  0
 16  8  2  0  0  0  0
 17 18  2  0  0  0  0
 18 13  1  0  0  0  0
 19 20  2  0  0  0  0
 20 21  1  0  0  0  0
 20 28  1  0  0  0  0
 22 29  1  0  0  0  0
 22 25  1  0  0  0  0
 23 28  2  0  0  0  0
 23 26  1  0  0  0  0
 26 22  2  0  0  0  0
 27 24  1  0  0  0  0
 27 29  2  0  0  0  0
 28 27  1  0  0  0  0
 30  5  1  0  0  0  0
 30 31  1  0  0  0  0
M  END
>  <MODEL>
7

>  <REMARK>
 VINA RESULT:      -7.2      3.609      8.121
  Name = 
  3 active torsions:
  status: ('A' for Active; 'I' for Inactive)
    1  A    between atoms: C_2  and  CA_13
    2  A    between atoms: C_9  and  C_22
    3  A    between atoms: C_15  and  N_23
                            x       y       z     vdW  Elec       q    Type
                         _______ _______ _______ _____ _____    ______ ____

>  <TORSDO>
F 3

$$$$
=
 OpenBabel11052417513D

 31 35  0  0  0  0  0  0  0  0999 V2000
  192.1400  173.7990  143.9420 C   0  0  0  0  0  0  0  0  0  0  0  0
  192.1510  172.7700  142.9740 C   0  0  0  0  0  0  0  0  0  0  0  0
  193.1120  171.6530  141.0390 C   0  0  0  0  0  0  0  0  0  0  0  0
  193.1650  174.8480  144.0510 C   0  0  0  0  0  0  0  0  0  0  0  0
  194.9160  176.2170  144.0420 C   0  0  0  0  0  0  0  0  0  0  0  0
  193.1360  172.6880  141.9780 C   0  0  0  0  0  3  0  0  0  0  0  0
  191.0180  174.9350  145.9620 C   0  0  0  0  0  0  0  0  0  0  0  0
  190.1690  171.8430  143.9690 N   0  0  0  0  0  0  0  0  0  0  0  0
  194.0680  171.5840  140.0830 F   0  0  0  0  0  0  0  0  0  0  0  0
  192.1920  175.8280  146.0130 N   0  0  0  0  0  4  0  0  0  0  0  0
  191.1160  173.8280  144.9160 C   0  0  0  0  0  0  0  0  0  0  0  0
  194.2750  175.0700  143.3630 C   0  0  0  0  0  3  0  0  0  0  0  0
  192.1020  170.6890  141.0870 C   0  0  0  0  0  3  0  0  0  0  0  0
  193.1280  175.7940  145.1190 C   0  0  0  0  0  0  0  0  0  0  0  0
  194.2640  176.6350  145.0840 N   0  0  0  0  0  0  0  0  0  0  0  0
  190.1400  172.8270  144.9040 C   0  0  0  0  0  3  0  0  0  0  0  0
  191.1320  171.7890  143.0140 C   0  0  0  0  0  0  0  0  0  0  0  0
  191.1140  170.7560  142.0720 C   0  0  0  0  0  3  0  0  0  0  0  0
  188.6120  174.7720  147.4690 O   0  0  0  0  0  0  0  0  0  0  0  0
  188.6400  175.6100  146.5260 C   0  0  0  0  0  0  0  0  0  0  0  0
  189.8180  175.7260  145.7230 N   0  0  0  0  0  2  0  0  0  0  0  0
  185.2480  178.1110  145.8040 C   0  0  0  0  0  0  0  0  0  0  0  0
  186.7810  177.0450  147.3150 C   0  0  0  0  0  3  0  0  0  0  0  0
  187.6470  176.1980  143.7050 C   0  0  0  0  0  1  0  0  0  0  0  0
  184.0690  178.9810  145.5600 C   0  0  0  0  0  1  0  0  0  0  0  0
  185.6730  177.8640  147.1070 C   0  0  0  0  0  3  0  0  0  0  0  0
  186.9970  176.7530  144.9270 C   0  0  0  0  0  0  0  0  0  0  0  0
  187.4660  176.4730  146.2350 C   0  0  0  0  0  0  0  0  0  0  0  0
  185.9120  177.5570  144.7560 N   0  0  0  0  0  0  0  0  0  0  0  0
  196.2260  176.7920  143.6360 C   0  0  0  0  0  2  0  0  0  0  0  0
  196.3690  176.7030  142.2520 O   0  0  0  0  0  1  0  0  0  0  0  0
  1  4  1  0  0  0  0
  1 11  1  0  0  0  0
  2 17  1  0  0  0  0
  2  1  2  0  0  0  0
  3 13  1  0  0  0  0
  3  6  2  0  0  0  0
  4 14  1  0  0  0  0
  5 15  2  0  0  0  0
  6  2  1  0  0  0  0
  7 10  2  0  0  0  0
  8 16  1  0  0  0  0
  9  3  1  0  0  0  0
 11  7  1  0  0  0  0
 12  5  1  0  0  0  0
 12  4  2  0  0  0  0
 13 18  2  0  0  0  0
 14 10  2  0  0  0  0
 15 14  1  0  0  0  0
 16 11  2  0  0  0  0
 17  8  2  0  0  0  0
 18 17  1  0  0  0  0
 20 19  2  0  0  0  0
 21  7  1  0  0  0  0
 21 20  1  0  0  0  0
 22 26  1  0  0  0  0
 24 27  1  0  0  0  0
 25 22  1  0  0  0  0
 26 23  2  0  0  0  0
 27 28  2  0  0  0  0
 28 20  1  0  0  0  0
 28 23  1  0  0  0  0
 29 27  1  0  0  0  0
 29 22  2  0  0  0  0
 30  5  1  0  0  0  0
 31 30  1  0  0  0  0
M  END
>  <MODEL>
8

>  <REMARK>
 VINA RESULT:      -7.0      3.675      8.516
  Name = 
  3 active torsions:
  status: ('A' for Active; 'I' for Inactive)
    1  A    between atoms: C_2  and  CA_13
    2  A    between atoms: C_9  and  C_22
    3  A    between atoms: C_15  and  N_23
                            x       y       z     vdW  Elec       q    Type
                         _______ _______ _______ _____ _____    ______ ____

>  <TORSDO>
F 3

$$$$
=
 OpenBabel11052417513D

 31 35  0  0  0  0  0  0  0  0999 V2000
  191.7090  173.1410  143.0330 C   0  0  0  0  0  0  0  0  0  0  0  0
  192.5980  172.4090  143.8500 C   0  0  0  0  0  0  0  0  0  0  0  0
  193.7710  170.3650  144.4530 C   0  0  0  0  0  0  0  0  0  0  0  0
  191.0350  172.5980  141.8440 C   0  0  0  0  0  0  0  0  0  0  0  0
  190.2670  171.5440  140.0440 C   0  0  0  0  0  0  0  0  0  0  0  0
  192.8830  171.0540  143.6210 C   0  0  0  0  0  3  0  0  0  0  0  0
  190.4770  175.3400  142.5080 C   0  0  0  0  0  0  0  0  0  0  0  0
  192.9670  174.3790  145.1770 N   0  0  0  0  0  0  0  0  0  0  0  0
  194.0380  169.0570  144.2210 F   0  0  0  0  0  0  0  0  0  0  0  0
  189.9910  174.6840  141.2780 N   0  0  0  0  0  4  0  0  0  0  0  0
  191.4600  174.5020  143.3210 C   0  0  0  0  0  0  0  0  0  0  0  0
  191.0980  171.4110  141.2600 C   0  0  0  0  0  3  0  0  0  0  0  0
  194.3830  171.0240  145.5210 C   0  0  0  0  0  3  0  0  0  0  0  0
  190.2250  173.4360  141.0200 C   0  0  0  0  0  0  0  0  0  0  0  0
  189.7690  172.7320  139.8820 N   0  0  0  0  0  0  0  0  0  0  0  0
  192.1120  175.0970  144.4050 C   0  0  0  0  0  3  0  0  0  0  0  0
  193.2230  173.0670  144.9350 C   0  0  0  0  0  0  0  0  0  0  0  0
  194.1100  172.3720  145.7620 C   0  0  0  0  0  3  0  0  0  0  0  0
  190.0080  177.9170  143.6160 O   0  0  0  0  0  0  0  0  0  0  0  0
  189.1500  177.0250  143.8610 C   0  0  0  0  0  0  0  0  0  0  0  0
  189.3400  175.7050  143.3430 N   0  0  0  0  0  2  0  0  0  0  0  0
  185.6570  177.9600  146.1430 C   0  0  0  0  0  0  0  0  0  0  0  0
  187.0130  178.2360  144.1800 C   0  0  0  0  0  3  0  0  0  0  0  0
  188.6210  175.7590  146.5830 C   0  0  0  0  0  1  0  0  0  0  0  0
  184.4420  178.2890  146.9310 C   0  0  0  0  0  1  0  0  0  0  0  0
  185.8660  178.5580  144.9030 C   0  0  0  0  0  3  0  0  0  0  0  0
  187.6940  176.7400  145.9490 C   0  0  0  0  0  0  0  0  0  0  0  0
  187.9490  177.3240  144.6830 C   0  0  0  0  0  0  0  0  0  0  0  0
  186.5650  177.0750  146.6320 N   0  0  0  0  0  0  0  0  0  0  0  0
  190.0820  170.4580  139.0450 C   0  0  0  0  0  2  0  0  0  0  0  0
  189.6860  171.0050  137.8250 O   0  0  0  0  0  1  0  0  0  0  0  0
  1 11  2  0  0  0  0
  1  2  1  0  0  0  0
  2 17  1  0  0  0  0
  3 13  2  0  0  0  0
  4  1  1  0  0  0  0
  5 12  1  0  0  0  0
  6  2  2  0  0  0  0
  6  3  1  0  0  0  0
  7 11  1  0  0  0  0
  7 21  1  0  0  0  0
  9  3  1  0  0  0  0
 10  7  2  0  0  0  0
 11 16  1  0  0  0  0
 12  4  2  0  0  0  0
 13 18  1  0  0  0  0
 14 10  2  0  0  0  0
 14  4  1  0  0  0  0
 15  5  2  0  0  0  0
 15 14  1  0  0  0  0
 16  8  2  0  0  0  0
 17  8  1  0  0  0  0
 17 18  2  0  0  0  0
 19 20  2  0  0  0  0
 20 28  1  0  0  0  0
 21 20  1  0  0  0  0
 22 29  1  0  0  0  0
 22 25  1  0  0  0  0
 23 28  2  0  0  0  0
 23 26  1  0  0  0  0
 26 22  2  0  0  0  0
 27 24  1  0  0  0  0
 27 29  2  0  0  0  0
 28 27  1  0  0  0  0
 30  5  1  0  0  0  0
 31 30  1  0  0  0  0
M  END
>  <MODEL>
9

>  <REMARK>
 VINA RESULT:      -6.9      4.024      7.799
  Name = 
  3 active torsions:
  status: ('A' for Active; 'I' for Inactive)
    1  A    between atoms: C_2  and  CA_13
    2  A    between atoms: C_9  and  C_22
    3  A    between atoms: C_15  and  N_23
                            x       y       z     vdW  Elec       q    Type
                         _______ _______ _______ _____ _____    ______ ____

>  <TORSDO>
F 3

$$$$
