=
 OpenBabel11052420333D

 34 39  0  0  0  0  0  0  0  0999 V2000
  186.7390  176.9430  144.2620 C   0  0  0  0  0  0  0  0  0  0  0  0
  185.0980  178.0660  141.1210 C   0  0  0  0  0  3  0  0  0  0  0  0
  184.6210  178.5320  143.3200 C   0  0  0  0  0  3  0  0  0  0  0  0
  187.9150  176.0860  146.3740 C   0  0  0  0  0  0  0  0  0  0  0  0
  187.8690  176.1140  144.8500 C   0  0  0  0  0  3  0  0  0  0  0  0
  186.0030  177.6000  146.4450 C   0  0  0  0  0  0  0  0  0  0  0  0
  184.7650  178.5870  147.2960 S   0  0  0  0  0  0  0  0  0  0  0  0
  187.0440  176.7980  147.1020 C   0  0  0  0  0  3  0  0  0  0  0  0
  184.8660  178.4050  144.6800 C   0  0  0  0  0  0  0  0  0  0  0  0
  185.8950  177.6330  145.1320 C   0  0  0  0  0  0  0  0  0  0  0  0
  184.1090  179.0280  145.7060 N   0  0  0  0  0  0  0  0  0  0  0  0
  185.6630  177.5740  139.8610 C   0  0  0  0  0  3  0  0  0  0  0  0
  186.6980  176.7680  139.6420 C   0  0  0  0  0  0  0  0  0  0  0  0
  187.5340  176.1720  140.6900 C   0  0  0  0  0  3  0  0  0  0  0  0
  185.4390  177.8600  142.3920 C   0  0  0  0  0  0  0  0  0  0  0  0
  187.4570  176.2920  142.0090 C   0  0  0  0  0  3  0  0  0  0  0  0
  186.5210  177.0490  142.8620 C   0  0  0  0  0  0  0  0  0  0  0  0
  187.0320  176.4480  138.2400 C   0  0  0  0  0  0  0  0  0  0  0  0
  187.4090  175.1580  137.8810 O   0  0  0  0  0  1  0  0  0  0  0  0
  186.9780  177.3410  137.3530 O   0  0  0  0  0  0  0  0  0  0  0  0
  188.8910  175.3530  147.0670 O   0  0  0  0  0  0  0  0  0  0  0  0
  192.4510  176.4570  147.3000 C   0  0  0  0  0  3  0  0  0  0  0  0
  190.8880  174.5180  146.0160 C   0  0  0  0  0  3  0  0  0  0  0  0
  195.0080  174.6510  145.3350 C   0  0  0  0  0  0  0  0  0  0  0  0
  194.4280  175.5810  146.2080 C   0  0  0  0  0  3  0  0  0  0  0  0
  193.0520  175.5400  146.4380 C   0  0  0  0  0  0  0  0  0  0  0  0
  192.8790  173.6580  144.9290 C   0  0  0  0  0  3  0  0  0  0  0  0
  192.2650  174.5660  145.7910 C   0  0  0  0  0  0  0  0  0  0  0  0
  194.2230  173.7190  144.7210 N   0  0  0  0  0  0  0  0  0  0  0  0
  190.2800  175.4300  146.8880 C   0  0  0  0  0  0  0  0  0  0  0  0
  191.0720  176.4040  147.5220 C   0  0  0  0  0  3  0  0  0  0  0  0
  196.4170  174.6760  145.0850 N   0  0  0  0  0  0  0  0  0  0  0  0
  197.1940  174.0070  145.7970 O   0  0  0  0  0  0  0  0  0  0  0  0
  196.9310  175.4380  144.0600 O   0  0  0  0  0  0  0  0  0  0  0  0
  1  5  2  0  0  0  0
  1 10  1  0  0  0  0
  2 15  1  0  0  0  0
  3  9  1  0  0  0  0
  4 21  1  0  0  0  0
  4  8  2  0  0  0  0
  5  4  1  0  0  0  0
  6  8  1  0  0  0  0
  6  7  1  0  0  0  0
  9 10  1  0  0  0  0
  9 11  2  0  0  0  0
 10  6  2  0  0  0  0
 11  7  1  0  0  0  0
 12  2  2  0  0  0  0
 13 12  1  0  0  0  0
 13 14  2  0  0  0  0
 14 16  1  0  0  0  0
 15 17  1  0  0  0  0
 15  3  2  0  0  0  0
 16 17  2  0  0  0  0
 17  1  1  0  0  0  0
 18 13  1  0  0  0  0
 19 18  1  0  0  0  0
 20 18  2  0  0  0  0
 22 31  1  0  0  0  0
 23 30  1  0  0  0  0
 24 25  2  0  0  0  0
 25 26  1  0  0  0  0
 26 22  2  0  0  0  0
 27 28  1  0  0  0  0
 28 23  2  0  0  0  0
 28 26  1  0  0  0  0
 29 27  2  0  0  0  0
 29 24  1  0  0  0  0
 30 21  1  0  0  0  0
 30 31  2  0  0  0  0
 32 24  1  0  0  0  0
 32 33  2  0  0  0  0
 34 32  2  0  0  0  0
M  END
>  <MODEL>
1

>  <REMARK>
 VINA RESULT:      -9.0      0.000      0.000
  Name = 
  4 active torsions:
  status: ('A' for Active; 'I' for Inactive)
    1  A    between atoms: C_3  and  C_25
    2  A    between atoms: C_7  and  N_11
    3  A    between atoms: C_8  and  O_18
    4  A    between atoms: O_18  and  C_30
                            x       y       z     vdW  Elec       q    Type
                         _______ _______ _______ _____ _____    ______ ____

>  <TORSDO>
F 4

$$$$
=
 OpenBabel11052420333D

 34 39  0  0  0  0  0  0  0  0999 V2000
  191.4030  176.4250  144.4230 C   0  0  0  0  0  0  0  0  0  0  0  0
  194.3370  174.9020  146.1240 C   0  0  0  0  0  3  0  0  0  0  0  0
  192.1510  175.1230  146.7990 C   0  0  0  0  0  3  0  0  0  0  0  0
  189.4470  177.5300  143.1860 C   0  0  0  0  0  0  0  0  0  0  0  0
  190.9180  177.1230  143.1640 C   0  0  0  0  0  3  0  0  0  0  0  0
  189.2140  176.5150  145.3920 C   0  0  0  0  0  0  0  0  0  0  0  0
  188.2840  176.0570  146.8610 S   0  0  0  0  0  0  0  0  0  0  0  0
  188.6650  177.2230  144.2300 C   0  0  0  0  0  3  0  0  0  0  0  0
  190.8440  175.5390  146.5970 C   0  0  0  0  0  0  0  0  0  0  0  0
  190.4850  176.1700  145.4430 C   0  0  0  0  0  0  0  0  0  0  0  0
  189.7820  175.3710  147.5240 N   0  0  0  0  0  0  0  0  0  0  0  0
  195.6130  174.9270  145.4030 C   0  0  0  0  0  3  0  0  0  0  0  0
  195.9110  175.4170  144.2030 C   0  0  0  0  0  0  0  0  0  0  0  0
  194.9550  176.0740  143.3050 C   0  0  0  0  0  3  0  0  0  0  0  0
  193.1230  175.3500  145.8070 C   0  0  0  0  0  0  0  0  0  0  0  0
  193.6600  176.3140  143.4700 C   0  0  0  0  0  3  0  0  0  0  0  0
  192.7520  176.0110  144.5930 C   0  0  0  0  0  0  0  0  0  0  0  0
  197.3060  175.2920  143.7390 C   0  0  0  0  0  0  0  0  0  0  0  0
  197.9380  176.3570  143.1060 O   0  0  0  0  0  0  0  0  0  0  0  0
  197.9410  174.2170  143.9120 O   0  0  0  0  0  1  0  0  0  0  0  0
  188.8530  178.1960  142.1030 O   0  0  0  0  0  0  0  0  0  0  0  0
  185.7270  177.7890  140.1010 C   0  0  0  0  0  3  0  0  0  0  0  0
  186.5390  178.5010  142.6880 C   0  0  0  0  0  3  0  0  0  0  0  0
  182.4740  178.4670  141.7200 C   0  0  0  0  0  0  0  0  0  0  0  0
  183.4140  178.1190  140.7410 C   0  0  0  0  0  3  0  0  0  0  0  0
  184.7720  178.1290  141.0600 C   0  0  0  0  0  0  0  0  0  0  0  0
  184.2160  178.8290  143.3070 C   0  0  0  0  0  3  0  0  0  0  0  0
  185.1810  178.4880  142.3600 C   0  0  0  0  0  0  0  0  0  0  0  0
  182.8970  178.8120  142.9700 N   0  0  0  0  0  0  0  0  0  0  0  0
  187.5010  178.1510  141.7320 C   0  0  0  0  0  0  0  0  0  0  0  0
  187.0840  177.8020  140.4350 C   0  0  0  0  0  3  0  0  0  0  0  0
  181.0760  178.4640  141.4130 N   0  0  0  0  0  0  0  0  0  0  0  0
  180.2520  178.9340  142.2240 O   0  0  0  0  0  0  0  0  0  0  0  0
  180.6250  177.9430  140.2210 O   0  0  0  0  0  0  0  0  0  0  0  0
  1 17  1  0  0  0  0
  1 10  1  0  0  0  0
  4  8  2  0  0  0  0
  5  4  1  0  0  0  0
  5  1  2  0  0  0  0
  6 10  2  0  0  0  0
  6  7  1  0  0  0  0
  7 11  1  0  0  0  0
  8  6  1  0  0  0  0
  9  3  1  0  0  0  0
  9 11  2  0  0  0  0
 10  9  1  0  0  0  0
 12  2  2  0  0  0  0
 13 12  1  0  0  0  0
 14 16  1  0  0  0  0
 14 13  2  0  0  0  0
 15  2  1  0  0  0  0
 15  3  2  0  0  0  0
 16 17  2  0  0  0  0
 17 15  1  0  0  0  0
 18 20  1  0  0  0  0
 18 13  1  0  0  0  0
 19 18  2  0  0  0  0
 21  4  1  0  0  0  0
 22 31  2  0  0  0  0
 22 26  1  0  0  0  0
 24 29  1  0  0  0  0
 25 26  1  0  0  0  0
 25 24  2  0  0  0  0
 26 28  2  0  0  0  0
 28 23  1  0  0  0  0
 28 27  1  0  0  0  0
 29 27  2  0  0  0  0
 30 21  1  0  0  0  0
 30 23  2  0  0  0  0
 31 30  1  0  0  0  0
 32 24  1  0  0  0  0
 32 33  2  0  0  0  0
 34 32  2  0  0  0  0
M  END
>  <MODEL>
2

>  <REMARK>
 VINA RESULT:      -8.4      3.077      9.816
  Name = 
  4 active torsions:
  status: ('A' for Active; 'I' for Inactive)
    1  A    between atoms: C_3  and  C_25
    2  A    between atoms: C_7  and  N_11
    3  A    between atoms: C_8  and  O_18
    4  A    between atoms: O_18  and  C_30
                            x       y       z     vdW  Elec       q    Type
                         _______ _______ _______ _____ _____    ______ ____

>  <TORSDO>
F 4

$$$$
=
 OpenBabel11052420333D

 34 39  0  0  0  0  0  0  0  0999 V2000
  194.4630  173.7080  143.6800 C   0  0  0  0  0  0  0  0  0  0  0  0
  197.2210  171.8250  145.3140 C   0  0  0  0  0  3  0  0  0  0  0  0
  197.2590  173.6820  143.9600 C   0  0  0  0  0  3  0  0  0  0  0  0
  192.4970  174.9200  142.5650 C   0  0  0  0  0  0  0  0  0  0  0  0
  192.9580  173.7970  143.4890 C   0  0  0  0  0  3  0  0  0  0  0  0
  194.8150  175.6330  142.2990 C   0  0  0  0  0  0  0  0  0  0  0  0
  196.1030  176.6980  141.6360 S   0  0  0  0  0  0  0  0  0  0  0  0
  193.3780  175.7770  142.0300 C   0  0  0  0  0  3  0  0  0  0  0  0
  196.6290  174.6510  143.1940 C   0  0  0  0  0  0  0  0  0  0  0  0
  195.2730  174.6600  143.0610 C   0  0  0  0  0  0  0  0  0  0  0  0
  197.2910  175.6910  142.4900 N   0  0  0  0  0  0  0  0  0  0  0  0
  196.8450  170.6650  146.1270 C   0  0  0  0  0  3  0  0  0  0  0  0
  195.6460  170.1530  146.3900 C   0  0  0  0  0  0  0  0  0  0  0  0
  194.3770  170.6860  145.8820 C   0  0  0  0  0  3  0  0  0  0  0  0
  196.4960  172.6940  144.6110 C   0  0  0  0  0  0  0  0  0  0  0  0
  194.1470  171.7320  145.0980 C   0  0  0  0  0  3  0  0  0  0  0  0
  195.0710  172.6990  144.4750 C   0  0  0  0  0  0  0  0  0  0  0  0
  195.5850  168.9600  147.2560 C   0  0  0  0  0  0  0  0  0  0  0  0
  194.3590  168.4330  147.6490 O   0  0  0  0  0  1  0  0  0  0  0  0
  196.6460  168.4040  147.6490 O   0  0  0  0  0  0  0  0  0  0  0  0
  191.1380  175.1240  142.2770 O   0  0  0  0  0  0  0  0  0  0  0  0
  189.6020  177.1280  145.0280 C   0  0  0  0  0  3  0  0  0  0  0  0
  188.8510  175.7260  142.7210 C   0  0  0  0  0  3  0  0  0  0  0  0
  185.9380  177.6180  145.0420 C   0  0  0  0  0  0  0  0  0  0  0  0
  187.2820  177.6970  145.4310 C   0  0  0  0  0  3  0  0  0  0  0  0
  188.2570  177.0670  144.6590 C   0  0  0  0  0  0  0  0  0  0  0  0
  186.5340  176.3030  143.1450 C   0  0  0  0  0  3  0  0  0  0  0  0
  187.8810  176.3600  143.5000 C   0  0  0  0  0  0  0  0  0  0  0  0
  185.6010  176.9260  143.9150 N   0  0  0  0  0  0  0  0  0  0  0  0
  190.2030  175.7920  143.0810 C   0  0  0  0  0  0  0  0  0  0  0  0
  190.5690  176.4930  144.2440 C   0  0  0  0  0  3  0  0  0  0  0  0
  184.9210  178.2580  145.8210 N   0  0  0  0  0  0  0  0  0  0  0  0
  183.9430  178.7920  145.2600 O   0  0  0  0  0  0  0  0  0  0  0  0
  185.0120  178.2920  147.1940 O   0  0  0  0  0  0  0  0  0  0  0  0
  1 17  1  0  0  0  0
  2 12  2  0  0  0  0
  3 15  2  0  0  0  0
  4  5  2  0  0  0  0
  5  1  1  0  0  0  0
  6 10  1  0  0  0  0
  7  6  1  0  0  0  0
  7 11  1  0  0  0  0
  8  6  2  0  0  0  0
  8  4  1  0  0  0  0
  9  3  1  0  0  0  0
 10  9  1  0  0  0  0
 10  1  2  0  0  0  0
 11  9  2  0  0  0  0
 12 13  1  0  0  0  0
 13 18  1  0  0  0  0
 14 13  2  0  0  0  0
 15  2  1  0  0  0  0
 16 14  1  0  0  0  0
 17 15  1  0  0  0  0
 17 16  2  0  0  0  0
 18 20  2  0  0  0  0
 18 19  1  0  0  0  0
 21  4  1  0  0  0  0
 21 30  1  0  0  0  0
 23 30  2  0  0  0  0
 23 28  1  0  0  0  0
 24 25  1  0  0  0  0
 24 32  1  0  0  0  0
 26 22  1  0  0  0  0
 26 25  2  0  0  0  0
 27 28  2  0  0  0  0
 27 29  1  0  0  0  0
 28 26  1  0  0  0  0
 29 24  2  0  0  0  0
 30 31  1  0  0  0  0
 31 22  2  0  0  0  0
 32 34  2  0  0  0  0
 33 32  2  0  0  0  0
M  END
>  <MODEL>
3

>  <REMARK>
 VINA RESULT:      -8.0      4.044     10.465
  Name = 
  4 active torsions:
  status: ('A' for Active; 'I' for Inactive)
    1  A    between atoms: C_3  and  C_25
    2  A    between atoms: C_7  and  N_11
    3  A    between atoms: C_8  and  O_18
    4  A    between atoms: O_18  and  C_30
                            x       y       z     vdW  Elec       q    Type
                         _______ _______ _______ _____ _____    ______ ____

>  <TORSDO>
F 4

$$$$
=
 OpenBabel11052420333D

 34 39  0  0  0  0  0  0  0  0999 V2000
  191.8170  174.1400  145.3550 C   0  0  0  0  0  0  0  0  0  0  0  0
  194.1080  171.9020  143.4670 C   0  0  0  0  0  3  0  0  0  0  0  0
  194.5180  173.8380  144.6370 C   0  0  0  0  0  3  0  0  0  0  0  0
  190.1540  175.6410  146.6030 C   0  0  0  0  0  0  0  0  0  0  0  0
  190.3810  174.3670  145.7940 C   0  0  0  0  0  3  0  0  0  0  0  0
  192.5430  176.1230  146.4870 C   0  0  0  0  0  0  0  0  0  0  0  0
  194.0020  177.1120  146.8380 S   0  0  0  0  0  0  0  0  0  0  0  0
  191.1790  176.4410  146.9280 C   0  0  0  0  0  3  0  0  0  0  0  0
  194.1030  174.9110  145.4110 C   0  0  0  0  0  0  0  0  0  0  0  0
  192.7920  175.0540  145.7570 C   0  0  0  0  0  0  0  0  0  0  0  0
  194.9510  175.9380  145.9030 N   0  0  0  0  0  0  0  0  0  0  0  0
  193.5130  170.7280  142.8240 C   0  0  0  0  0  3  0  0  0  0  0  0
  192.2500  170.3100  142.8000 C   0  0  0  0  0  0  0  0  0  0  0  0
  191.1290  170.9910  143.4580 C   0  0  0  0  0  3  0  0  0  0  0  0
  193.5810  172.8810  144.2010 C   0  0  0  0  0  0  0  0  0  0  0  0
  191.1160  172.1040  144.1800 C   0  0  0  0  0  3  0  0  0  0  0  0
  192.2040  173.0260  144.5620 C   0  0  0  0  0  0  0  0  0  0  0  0
  191.9520  169.0700  142.0570 C   0  0  0  0  0  0  0  0  0  0  0  0
  192.9650  168.1660  141.7580 O   0  0  0  0  0  1  0  0  0  0  0  0
  190.7750  168.8180  141.6850 O   0  0  0  0  0  0  0  0  0  0  0  0
  188.8790  175.9990  147.0690 O   0  0  0  0  0  0  0  0  0  0  0  0
  185.6010  177.4870  146.0760 C   0  0  0  0  0  3  0  0  0  0  0  0
  187.9120  176.4160  144.9060 C   0  0  0  0  0  3  0  0  0  0  0  0
  184.8010  177.7930  142.4810 C   0  0  0  0  0  0  0  0  0  0  0  0
  184.6710  177.8760  143.8730 C   0  0  0  0  0  3  0  0  0  0  0  0
  185.7080  177.4180  144.6860 C   0  0  0  0  0  0  0  0  0  0  0  0
  186.9610  176.8120  142.7090 C   0  0  0  0  0  3  0  0  0  0  0  0
  186.8690  176.8780  144.0990 C   0  0  0  0  0  0  0  0  0  0  0  0
  185.9360  177.2650  141.9380 N   0  0  0  0  0  0  0  0  0  0  0  0
  187.8140  176.4920  146.3010 C   0  0  0  0  0  0  0  0  0  0  0  0
  186.6480  177.0240  146.8790 C   0  0  0  0  0  3  0  0  0  0  0  0
  183.7490  178.2590  141.6290 N   0  0  0  0  0  0  0  0  0  0  0  0
  182.5760  178.3180  142.0530 O   0  0  0  0  0  0  0  0  0  0  0  0
  184.0170  178.6450  140.3350 O   0  0  0  0  0  0  0  0  0  0  0  0
  1 10  2  0  0  0  0
  1  5  1  0  0  0  0
  2 15  1  0  0  0  0
  3  9  1  0  0  0  0
  4  8  1  0  0  0  0
  4 21  1  0  0  0  0
  5  4  2  0  0  0  0
  6  7  1  0  0  0  0
  6  8  2  0  0  0  0
  9 10  1  0  0  0  0
  9 11  2  0  0  0  0
 10  6  1  0  0  0  0
 11  7  1  0  0  0  0
 12  2  2  0  0  0  0
 13 12  1  0  0  0  0
 13 14  2  0  0  0  0
 14 16  1  0  0  0  0
 15 17  1  0  0  0  0
 15  3  2  0  0  0  0
 16 17  2  0  0  0  0
 17  1  1  0  0  0  0
 18 13  1  0  0  0  0
 19 18  1  0  0  0  0
 20 18  2  0  0  0  0
 22 31  1  0  0  0  0
 23 30  1  0  0  0  0
 24 25  2  0  0  0  0
 25 26  1  0  0  0  0
 26 22  2  0  0  0  0
 27 28  1  0  0  0  0
 28 26  1  0  0  0  0
 28 23  2  0  0  0  0
 29 24  1  0  0  0  0
 29 27  2  0  0  0  0
 30 31  2  0  0  0  0
 30 21  1  0  0  0  0
 32 33  2  0  0  0  0
 32 24  1  0  0  0  0
 34 32  2  0  0  0  0
M  END
>  <MODEL>
4

>  <REMARK>
 VINA RESULT:      -8.0      3.521      8.791
  Name = 
  4 active torsions:
  status: ('A' for Active; 'I' for Inactive)
    1  A    between atoms: C_3  and  C_25
    2  A    between atoms: C_7  and  N_11
    3  A    between atoms: C_8  and  O_18
    4  A    between atoms: O_18  and  C_30
                            x       y       z     vdW  Elec       q    Type
                         _______ _______ _______ _____ _____    ______ ____

>  <TORSDO>
F 4

$$$$
=
 OpenBabel11052420333D

 34 39  0  0  0  0  0  0  0  0999 V2000
  187.8690  177.5800  144.4370 C   0  0  0  0  0  0  0  0  0  0  0  0
  189.8910  177.1250  147.5230 C   0  0  0  0  0  3  0  0  0  0  0  0
  187.7030  177.7680  147.2360 C   0  0  0  0  0  3  0  0  0  0  0  0
  186.5660  177.9020  142.2510 C   0  0  0  0  0  0  0  0  0  0  0  0
  187.8750  177.4920  142.9200 C   0  0  0  0  0  3  0  0  0  0  0  0
  185.5770  178.2760  144.4500 C   0  0  0  0  0  0  0  0  0  0  0  0
  184.2320  178.7370  145.5500 S   0  0  0  0  0  0  0  0  0  0  0  0
  185.5000  178.2510  142.9840 C   0  0  0  0  0  3  0  0  0  0  0  0
  186.6070  178.0570  146.4370 C   0  0  0  0  0  0  0  0  0  0  0  0
  186.6920  177.9640  145.0790 C   0  0  0  0  0  0  0  0  0  0  0  0
  185.3350  178.4680  146.9150 N   0  0  0  0  0  0  0  0  0  0  0  0
  191.2830  176.6990  147.3520 C   0  0  0  0  0  3  0  0  0  0  0  0
  191.9700  176.4370  146.2420 C   0  0  0  0  0  0  0  0  0  0  0  0
  191.4310  176.5310  144.8810 C   0  0  0  0  0  3  0  0  0  0  0  0
  188.9190  177.3730  146.6470 C   0  0  0  0  0  0  0  0  0  0  0  0
  190.2180  176.8740  144.4680 C   0  0  0  0  0  3  0  0  0  0  0  0
  189.0140  177.2740  145.2210 C   0  0  0  0  0  0  0  0  0  0  0  0
  193.3780  176.0220  146.3910 C   0  0  0  0  0  0  0  0  0  0  0  0
  193.7610  174.7130  146.1170 O   0  0  0  0  0  0  0  0  0  0  0  0
  194.2490  176.8500  146.7690 O   0  0  0  0  0  1  0  0  0  0  0  0
  186.4180  177.8880  140.8560 O   0  0  0  0  0  0  0  0  0  0  0  0
  187.0150  175.8780  137.7660 C   0  0  0  0  0  3  0  0  0  0  0  0
  187.6580  175.8580  140.4940 C   0  0  0  0  0  3  0  0  0  0  0  0
  189.0550  172.8050  138.0070 C   0  0  0  0  0  0  0  0  0  0  0  0
  188.2700  173.8280  137.4600 C   0  0  0  0  0  3  0  0  0  0  0  0
  187.8020  174.8500  138.2870 C   0  0  0  0  0  0  0  0  0  0  0  0
  188.9060  173.8040  140.1670 C   0  0  0  0  0  3  0  0  0  0  0  0
  188.1230  174.8400  139.6590 C   0  0  0  0  0  0  0  0  0  0  0  0
  189.3500  172.8190  139.3390 N   0  0  0  0  0  0  0  0  0  0  0  0
  186.8770  176.8980  139.9750 C   0  0  0  0  0  0  0  0  0  0  0  0
  186.5540  176.8950  138.6060 C   0  0  0  0  0  3  0  0  0  0  0  0
  189.5460  171.7480  137.1760 N   0  0  0  0  0  0  0  0  0  0  0  0
  189.2940  171.7410  135.9530 O   0  0  0  0  0  0  0  0  0  0  0  0
  190.2990  170.7290  137.7140 O   0  0  0  0  0  0  0  0  0  0  0  0
  1 10  1  0  0  0  0
  1 17  1  0  0  0  0
  4  5  1  0  0  0  0
  4  8  2  0  0  0  0
  5  1  2  0  0  0  0
  6 10  2  0  0  0  0
  6  7  1  0  0  0  0
  7 11  1  0  0  0  0
  8  6  1  0  0  0  0
  9 11  2  0  0  0  0
  9  3  1  0  0  0  0
 10  9  1  0  0  0  0
 12  2  2  0  0  0  0
 13 18  1  0  0  0  0
 13 12  1  0  0  0  0
 14 13  2  0  0  0  0
 15  3  2  0  0  0  0
 15  2  1  0  0  0  0
 16 14  1  0  0  0  0
 16 17  2  0  0  0  0
 17 15  1  0  0  0  0
 18 20  1  0  0  0  0
 19 18  2  0  0  0  0
 21  4  1  0  0  0  0
 22 26  2  0  0  0  0
 22 31  1  0  0  0  0
 24 29  1  0  0  0  0
 25 24  2  0  0  0  0
 25 26  1  0  0  0  0
 26 28  1  0  0  0  0
 28 27  1  0  0  0  0
 28 23  2  0  0  0  0
 29 27  2  0  0  0  0
 30 23  1  0  0  0  0
 30 21  1  0  0  0  0
 31 30  2  0  0  0  0
 32 34  2  0  0  0  0
 32 24  1  0  0  0  0
 33 32  2  0  0  0  0
M  END
>  <MODEL>
5

>  <REMARK>
 VINA RESULT:      -7.9      2.986      7.636
  Name = 
  4 active torsions:
  status: ('A' for Active; 'I' for Inactive)
    1  A    between atoms: C_3  and  C_25
    2  A    between atoms: C_7  and  N_11
    3  A    between atoms: C_8  and  O_18
    4  A    between atoms: O_18  and  C_30
                            x       y       z     vdW  Elec       q    Type
                         _______ _______ _______ _____ _____    ______ ____

>  <TORSDO>
F 4

$$$$
=
 OpenBabel11052420333D

 34 39  0  0  0  0  0  0  0  0999 V2000
  189.5460  175.1220  143.3440 C   0  0  0  0  0  0  0  0  0  0  0  0
  191.2070  171.8050  143.0910 C   0  0  0  0  0  3  0  0  0  0  0  0
  191.1150  173.3170  144.8200 C   0  0  0  0  0  3  0  0  0  0  0  0
  188.3970  177.4140  143.4100 C   0  0  0  0  0  0  0  0  0  0  0  0
  188.6880  176.1440  142.6160 C   0  0  0  0  0  3  0  0  0  0  0  0
  189.6300  176.4960  145.3040 C   0  0  0  0  0  0  0  0  0  0  0  0
  190.2900  176.5580  146.9750 S   0  0  0  0  0  0  0  0  0  0  0  0
  188.8340  177.5530  144.6690 C   0  0  0  0  0  3  0  0  0  0  0  0
  190.7020  174.5200  145.3740 C   0  0  0  0  0  0  0  0  0  0  0  0
  189.9410  175.3920  144.6540 C   0  0  0  0  0  0  0  0  0  0  0  0
  191.0140  174.9620  146.6860 N   0  0  0  0  0  0  0  0  0  0  0  0
  191.0680  171.0850  141.8220 C   0  0  0  0  0  3  0  0  0  0  0  0
  190.4260  171.4260  140.7080 C   0  0  0  0  0  0  0  0  0  0  0  0
  189.6820  172.6760  140.5180 C   0  0  0  0  0  3  0  0  0  0  0  0
  190.7470  172.9870  143.5020 C   0  0  0  0  0  0  0  0  0  0  0  0
  189.4880  173.6860  141.3560 C   0  0  0  0  0  3  0  0  0  0  0  0
  189.9480  173.8990  142.7420 C   0  0  0  0  0  0  0  0  0  0  0  0
  190.4660  170.4780  139.5770 C   0  0  0  0  0  0  0  0  0  0  0  0
  191.3600  169.4130  139.5800 O   0  0  0  0  0  1  0  0  0  0  0  0
  189.6880  170.6240  138.5960 O   0  0  0  0  0  0  0  0  0  0  0  0
  187.6310  178.4580  142.8700 O   0  0  0  0  0  0  0  0  0  0  0  0
  184.0350  178.8820  143.7850 C   0  0  0  0  0  3  0  0  0  0  0  0
  185.6190  178.1950  141.5770 C   0  0  0  0  0  3  0  0  0  0  0  0
  181.4580  178.2720  141.2060 C   0  0  0  0  0  0  0  0  0  0  0  0
  182.0410  178.5930  142.4390 C   0  0  0  0  0  3  0  0  0  0  0  0
  183.4300  178.5690  142.5670 C   0  0  0  0  0  0  0  0  0  0  0  0
  183.6100  177.9070  140.2480 C   0  0  0  0  0  3  0  0  0  0  0  0
  184.2280  178.2220  141.4580 C   0  0  0  0  0  0  0  0  0  0  0  0
  182.2530  177.9380  140.1490 N   0  0  0  0  0  0  0  0  0  0  0  0
  186.2310  178.5180  142.7950 C   0  0  0  0  0  0  0  0  0  0  0  0
  185.4280  178.8540  143.8980 C   0  0  0  0  0  3  0  0  0  0  0  0
  180.0340  178.2910  141.0540 N   0  0  0  0  0  0  0  0  0  0  0  0
  179.5210  178.1510  139.9250 O   0  0  0  0  0  0  0  0  0  0  0  0
  179.2180  178.4640  142.1490 O   0  0  0  0  0  0  0  0  0  0  0  0
  1 10  1  0  0  0  0
  2 15  1  0  0  0  0
  3  9  1  0  0  0  0
  4  8  2  0  0  0  0
  5  1  2  0  0  0  0
  5  4  1  0  0  0  0
  6  7  1  0  0  0  0
  8  6  1  0  0  0  0
  9 11  2  0  0  0  0
 10  6  2  0  0  0  0
 10  9  1  0  0  0  0
 11  7  1  0  0  0  0
 12  2  2  0  0  0  0
 13 12  1  0  0  0  0
 14 13  2  0  0  0  0
 14 16  1  0  0  0  0
 15  3  2  0  0  0  0
 16 17  2  0  0  0  0
 17  1  1  0  0  0  0
 17 15  1  0  0  0  0
 18 19  1  0  0  0  0
 18 13  1  0  0  0  0
 20 18  2  0  0  0  0
 21  4  1  0  0  0  0
 22 31  1  0  0  0  0
 23 30  1  0  0  0  0
 24 25  2  0  0  0  0
 25 26  1  0  0  0  0
 26 22  2  0  0  0  0
 27 28  1  0  0  0  0
 28 23  2  0  0  0  0
 28 26  1  0  0  0  0
 29 27  2  0  0  0  0
 29 24  1  0  0  0  0
 30 21  1  0  0  0  0
 30 31  2  0  0  0  0
 32 24  1  0  0  0  0
 32 34  2  0  0  0  0
 33 32  2  0  0  0  0
M  END
>  <MODEL>
6

>  <REMARK>
 VINA RESULT:      -7.7      4.132      9.277
  Name = 
  4 active torsions:
  status: ('A' for Active; 'I' for Inactive)
    1  A    between atoms: C_3  and  C_25
    2  A    between atoms: C_7  and  N_11
    3  A    between atoms: C_8  and  O_18
    4  A    between atoms: O_18  and  C_30
                            x       y       z     vdW  Elec       q    Type
                         _______ _______ _______ _____ _____    ______ ____

>  <TORSDO>
F 4

$$$$
=
 OpenBabel11052420333D

 34 39  0  0  0  0  0  0  0  0999 V2000
  186.6450  176.9820  144.3250 C   0  0  0  0  0  0  0  0  0  0  0  0
  184.9830  177.8860  141.1240 C   0  0  0  0  0  3  0  0  0  0  0  0
  184.3990  178.3280  143.3020 C   0  0  0  0  0  3  0  0  0  0  0  0
  187.8450  176.2810  146.4800 C   0  0  0  0  0  0  0  0  0  0  0  0
  187.8380  176.2840  144.9540 C   0  0  0  0  0  3  0  0  0  0  0  0
  185.7840  177.5860  146.4770 C   0  0  0  0  0  0  0  0  0  0  0  0
  184.4260  178.4480  147.2790 S   0  0  0  0  0  0  0  0  0  0  0  0
  186.8840  176.9070  147.1730 C   0  0  0  0  0  3  0  0  0  0  0  0
  184.6180  178.2450  144.6700 C   0  0  0  0  0  0  0  0  0  0  0  0
  185.7090  177.5910  145.1610 C   0  0  0  0  0  0  0  0  0  0  0  0
  183.7710  178.7980  145.6660 N   0  0  0  0  0  0  0  0  0  0  0  0
  185.6310  177.4400  139.8870 C   0  0  0  0  0  3  0  0  0  0  0  0
  186.7510  176.7450  139.7080 C   0  0  0  0  0  0  0  0  0  0  0  0
  187.6150  176.2540  140.7860 C   0  0  0  0  0  3  0  0  0  0  0  0
  185.3080  177.7340  142.4070 C   0  0  0  0  0  0  0  0  0  0  0  0
  187.4890  176.3810  142.1010 C   0  0  0  0  0  3  0  0  0  0  0  0
  186.4560  177.0470  142.9180 C   0  0  0  0  0  0  0  0  0  0  0  0
  187.1550  176.4440  138.3210 C   0  0  0  0  0  0  0  0  0  0  0  0
  187.5880  175.1690  137.9720 O   0  0  0  0  0  1  0  0  0  0  0  0
  187.1110  177.3400  137.4360 O   0  0  0  0  0  0  0  0  0  0  0  0
  188.8730  175.6630  147.2090 O   0  0  0  0  0  0  0  0  0  0  0  0
  192.5080  175.1780  146.5050 C   0  0  0  0  0  3  0  0  0  0  0  0
  190.0210  174.1130  145.7710 C   0  0  0  0  0  3  0  0  0  0  0  0
  193.5220  172.5470  144.1160 C   0  0  0  0  0  0  0  0  0  0  0  0
  193.6120  173.6000  145.0340 C   0  0  0  0  0  3  0  0  0  0  0  0
  192.4450  174.1260  145.5900 C   0  0  0  0  0  0  0  0  0  0  0  0
  191.1460  172.5440  144.3020 C   0  0  0  0  0  3  0  0  0  0  0  0
  191.1940  173.5930  145.2210 C   0  0  0  0  0  0  0  0  0  0  0  0
  192.2990  172.0490  143.7740 N   0  0  0  0  0  0  0  0  0  0  0  0
  190.0790  175.1620  146.6970 C   0  0  0  0  0  0  0  0  0  0  0  0
  191.3310  175.6940  147.0540 C   0  0  0  0  0  3  0  0  0  0  0  0
  194.7080  171.9930  143.5340 N   0  0  0  0  0  0  0  0  0  0  0  0
  195.6830  171.6980  144.2550 O   0  0  0  0  0  0  0  0  0  0  0  0
  194.7850  171.7800  142.1760 O   0  0  0  0  0  0  0  0  0  0  0  0
  1  5  2  0  0  0  0
  1 10  1  0  0  0  0
  2 15  1  0  0  0  0
  3  9  1  0  0  0  0
  4  8  2  0  0  0  0
  4 21  1  0  0  0  0
  5  4  1  0  0  0  0
  6  8  1  0  0  0  0
  6  7  1  0  0  0  0
  9 10  1  0  0  0  0
  9 11  2  0  0  0  0
 10  6  2  0  0  0  0
 11  7  1  0  0  0  0
 12  2  2  0  0  0  0
 13 12  1  0  0  0  0
 13 14  2  0  0  0  0
 14 16  1  0  0  0  0
 15 17  1  0  0  0  0
 15  3  2  0  0  0  0
 16 17  2  0  0  0  0
 17  1  1  0  0  0  0
 18 13  1  0  0  0  0
 19 18  1  0  0  0  0
 20 18  2  0  0  0  0
 22 31  1  0  0  0  0
 23 30  1  0  0  0  0
 24 25  2  0  0  0  0
 25 26  1  0  0  0  0
 26 22  2  0  0  0  0
 27 28  1  0  0  0  0
 28 26  1  0  0  0  0
 28 23  2  0  0  0  0
 29 24  1  0  0  0  0
 29 27  2  0  0  0  0
 30 31  2  0  0  0  0
 30 21  1  0  0  0  0
 32 24  1  0  0  0  0
 32 33  2  0  0  0  0
 34 32  2  0  0  0  0
M  END
>  <MODEL>
7

>  <REMARK>
 VINA RESULT:      -7.7      1.287      1.543
  Name = 
  4 active torsions:
  status: ('A' for Active; 'I' for Inactive)
    1  A    between atoms: C_3  and  C_25
    2  A    between atoms: C_7  and  N_11
    3  A    between atoms: C_8  and  O_18
    4  A    between atoms: O_18  and  C_30
                            x       y       z     vdW  Elec       q    Type
                         _______ _______ _______ _____ _____    ______ ____

>  <TORSDO>
F 4

$$$$
=
 OpenBabel11052420333D

 34 39  0  0  0  0  0  0  0  0999 V2000
  193.0810  174.8650  142.1800 C   0  0  0  0  0  0  0  0  0  0  0  0
  193.4860  174.2520  138.5360 C   0  0  0  0  0  3  0  0  0  0  0  0
  194.9050  175.2090  140.0700 C   0  0  0  0  0  3  0  0  0  0  0  0
  192.6950  175.2790  144.6820 C   0  0  0  0  0  0  0  0  0  0  0  0
  192.1560  174.7050  143.3750 C   0  0  0  0  0  3  0  0  0  0  0  0
  194.7580  175.9040  143.5390 C   0  0  0  0  0  0  0  0  0  0  0  0
  196.4060  176.6190  143.4740 S   0  0  0  0  0  0  0  0  0  0  0  0
  193.9190  175.8220  144.7410 C   0  0  0  0  0  3  0  0  0  0  0  0
  195.2180  175.6250  141.3560 C   0  0  0  0  0  0  0  0  0  0  0  0
  194.3300  175.4560  142.3760 C   0  0  0  0  0  0  0  0  0  0  0  0
  196.4340  176.2490  141.7380 N   0  0  0  0  0  0  0  0  0  0  0  0
  192.3680  173.6090  137.8400 C   0  0  0  0  0  3  0  0  0  0  0  0
  191.1930  173.1930  138.3050 C   0  0  0  0  0  0  0  0  0  0  0  0
  190.7570  173.3030  139.7010 C   0  0  0  0  0  3  0  0  0  0  0  0
  193.6610  174.6050  139.8090 C   0  0  0  0  0  0  0  0  0  0  0  0
  191.3900  173.8090  140.7520 C   0  0  0  0  0  3  0  0  0  0  0  0
  192.7250  174.4250  140.8770 C   0  0  0  0  0  0  0  0  0  0  0  0
  190.2580  172.5740  137.3460 C   0  0  0  0  0  0  0  0  0  0  0  0
  190.4150  171.2460  136.9620 O   0  0  0  0  0  1  0  0  0  0  0  0
  189.3050  173.2420  136.8640 O   0  0  0  0  0  0  0  0  0  0  0  0
  191.9530  175.2220  145.8710 O   0  0  0  0  0  0  0  0  0  0  0  0
  188.4470  175.3990  147.1470 C   0  0  0  0  0  3  0  0  0  0  0  0
  190.0670  176.5370  145.1630 C   0  0  0  0  0  3  0  0  0  0  0  0
  186.0670  177.6970  145.4980 C   0  0  0  0  0  0  0  0  0  0  0  0
  186.5790  176.7410  146.3860 C   0  0  0  0  0  3  0  0  0  0  0  0
  187.9150  176.3510  146.2770 C   0  0  0  0  0  0  0  0  0  0  0  0
  188.1830  177.8690  144.4140 C   0  0  0  0  0  3  0  0  0  0  0  0
  188.7290  176.9220  145.2790 C   0  0  0  0  0  0  0  0  0  0  0  0
  186.8770  178.2320  144.5400 N   0  0  0  0  0  0  0  0  0  0  0  0
  190.6090  175.5890  146.0390 C   0  0  0  0  0  0  0  0  0  0  0  0
  189.7870  175.0190  147.0270 C   0  0  0  0  0  3  0  0  0  0  0  0
  184.6990  178.1100  145.5930 N   0  0  0  0  0  0  0  0  0  0  0  0
  184.1160  178.5860  144.5980 O   0  0  0  0  0  0  0  0  0  0  0  0
  184.0140  177.9880  146.7810 O   0  0  0  0  0  0  0  0  0  0  0  0
  1 10  2  0  0  0  0
  1  5  1  0  0  0  0
  2 15  1  0  0  0  0
  3  9  1  0  0  0  0
  4  8  1  0  0  0  0
  4 21  1  0  0  0  0
  5  4  2  0  0  0  0
  6  8  2  0  0  0  0
  7  6  1  0  0  0  0
  9 11  2  0  0  0  0
  9 10  1  0  0  0  0
 10  6  1  0  0  0  0
 11  7  1  0  0  0  0
 12 13  1  0  0  0  0
 12  2  2  0  0  0  0
 13 14  2  0  0  0  0
 14 16  1  0  0  0  0
 15  3  2  0  0  0  0
 15 17  1  0  0  0  0
 16 17  2  0  0  0  0
 17  1  1  0  0  0  0
 18 13  1  0  0  0  0
 19 18  1  0  0  0  0
 20 18  2  0  0  0  0
 21 30  1  0  0  0  0
 23 28  2  0  0  0  0
 23 30  1  0  0  0  0
 24 32  1  0  0  0  0
 24 25  2  0  0  0  0
 26 25  1  0  0  0  0
 26 22  2  0  0  0  0
 27 29  2  0  0  0  0
 27 28  1  0  0  0  0
 28 26  1  0  0  0  0
 29 24  1  0  0  0  0
 30 31  2  0  0  0  0
 31 22  1  0  0  0  0
 32 34  2  0  0  0  0
 33 32  2  0  0  0  0
M  END
>  <MODEL>
8

>  <REMARK>
 VINA RESULT:      -7.6      4.197      8.083
  Name = 
  4 active torsions:
  status: ('A' for Active; 'I' for Inactive)
    1  A    between atoms: C_3  and  C_25
    2  A    between atoms: C_7  and  N_11
    3  A    between atoms: C_8  and  O_18
    4  A    between atoms: O_18  and  C_30
                            x       y       z     vdW  Elec       q    Type
                         _______ _______ _______ _____ _____    ______ ____

>  <TORSDO>
F 4

$$$$
=
 OpenBabel11052420333D

 34 39  0  0  0  0  0  0  0  0999 V2000
  194.5190  174.9600  141.7930 C   0  0  0  0  0  0  0  0  0  0  0  0
  197.8160  175.3930  140.1310 C   0  0  0  0  0  3  0  0  0  0  0  0
  197.2570  175.2540  142.3560 C   0  0  0  0  0  3  0  0  0  0  0  0
  192.1970  174.6950  142.8490 C   0  0  0  0  0  0  0  0  0  0  0  0
  193.0260  174.7850  141.5710 C   0  0  0  0  0  3  0  0  0  0  0  0
  194.2420  174.8540  144.1700 C   0  0  0  0  0  0  0  0  0  0  0  0
  195.1560  174.9100  145.7170 S   0  0  0  0  0  0  0  0  0  0  0  0
  192.7850  174.7150  144.0530 C   0  0  0  0  0  3  0  0  0  0  0  0
  196.3310  175.1130  143.3790 C   0  0  0  0  0  0  0  0  0  0  0  0
  195.0040  174.9700  143.1010 C   0  0  0  0  0  0  0  0  0  0  0  0
  196.6410  175.1070  144.7640 N   0  0  0  0  0  0  0  0  0  0  0  0
  197.8230  175.4440  138.6660 C   0  0  0  0  0  3  0  0  0  0  0  0
  196.8160  175.3570  137.8000 C   0  0  0  0  0  0  0  0  0  0  0  0
  195.4070  175.1830  138.1670 C   0  0  0  0  0  3  0  0  0  0  0  0
  196.8290  175.2500  141.0150 C   0  0  0  0  0  0  0  0  0  0  0  0
  194.8470  175.0770  139.3650 C   0  0  0  0  0  3  0  0  0  0  0  0
  195.4370  175.1000  140.7180 C   0  0  0  0  0  0  0  0  0  0  0  0
  197.1410  175.4430  136.3630 C   0  0  0  0  0  0  0  0  0  0  0  0
  196.9130  176.6200  135.6570 O   0  0  0  0  0  0  0  0  0  0  0  0
  197.6280  174.4500  135.7600 O   0  0  0  0  0  1  0  0  0  0  0  0
  190.8020  174.5460  142.8110 O   0  0  0  0  0  0  0  0  0  0  0  0
  188.4610  177.4450  143.0670 C   0  0  0  0  0  3  0  0  0  0  0  0
  189.3600  175.2740  144.5950 C   0  0  0  0  0  3  0  0  0  0  0  0
  186.5600  177.9260  146.2000 C   0  0  0  0  0  0  0  0  0  0  0  0
  187.0350  178.1370  144.8990 C   0  0  0  0  0  3  0  0  0  0  0  0
  187.9700  177.2540  144.3600 C   0  0  0  0  0  0  0  0  0  0  0  0
  187.9280  175.9870  146.4190 C   0  0  0  0  0  3  0  0  0  0  0  0
  188.4240  176.1630  145.1270 C   0  0  0  0  0  0  0  0  0  0  0  0
  187.0170  176.8630  146.9220 N   0  0  0  0  0  0  0  0  0  0  0  0
  189.8490  175.4550  143.2950 C   0  0  0  0  0  0  0  0  0  0  0  0
  189.3970  176.5510  142.5390 C   0  0  0  0  0  3  0  0  0  0  0  0
  185.6000  178.8210  146.7720 N   0  0  0  0  0  0  0  0  0  0  0  0
  184.4160  178.8100  146.3780 O   0  0  0  0  0  0  0  0  0  0  0  0
  185.9710  179.7030  147.7630 O   0  0  0  0  0  0  0  0  0  0  0  0
  1 10  1  0  0  0  0
  2 15  1  0  0  0  0
  3  9  1  0  0  0  0
  4  8  2  0  0  0  0
  5  1  2  0  0  0  0
  5  4  1  0  0  0  0
  6  7  1  0  0  0  0
  8  6  1  0  0  0  0
  9 11  2  0  0  0  0
 10  9  1  0  0  0  0
 10  6  2  0  0  0  0
 11  7  1  0  0  0  0
 12  2  2  0  0  0  0
 13 14  2  0  0  0  0
 13 12  1  0  0  0  0
 14 16  1  0  0  0  0
 15  3  2  0  0  0  0
 16 17  2  0  0  0  0
 17 15  1  0  0  0  0
 17  1  1  0  0  0  0
 18 13  1  0  0  0  0
 19 18  2  0  0  0  0
 20 18  1  0  0  0  0
 21  4  1  0  0  0  0
 21 30  1  0  0  0  0
 22 26  1  0  0  0  0
 23 28  1  0  0  0  0
 24 32  1  0  0  0  0
 24 29  1  0  0  0  0
 25 24  2  0  0  0  0
 26 25  1  0  0  0  0
 26 28  2  0  0  0  0
 27 29  2  0  0  0  0
 28 27  1  0  0  0  0
 30 23  2  0  0  0  0
 31 22  2  0  0  0  0
 31 30  1  0  0  0  0
 32 34  2  0  0  0  0
 33 32  2  0  0  0  0
M  END
>  <MODEL>
9

>  <REMARK>
 VINA RESULT:      -7.6      4.898      9.345
  Name = 
  4 active torsions:
  status: ('A' for Active; 'I' for Inactive)
    1  A    between atoms: C_3  and  C_25
    2  A    between atoms: C_7  and  N_11
    3  A    between atoms: C_8  and  O_18
    4  A    between atoms: O_18  and  C_30
                            x       y       z     vdW  Elec       q    Type
                         _______ _______ _______ _____ _____    ______ ____

>  <TORSDO>
F 4

$$$$
