=
 OpenBabel11052421233D

 43 47  0  0  1  0  0  0  0  0999 V2000
  188.2990  175.7170  141.9600 C   0  0  1  0  0  3  0  0  0  0  0  0
  189.9580  175.9740  146.9850 C   0  0  1  0  0  3  0  0  0  0  0  0
  189.6310  177.2000  144.8660 C   0  0  1  0  0  3  0  0  0  0  0  0
  189.8700  174.6090  146.2680 C   0  0  0  0  0  2  0  0  0  0  0  0
  190.7500  175.8460  148.1220 O   0  0  0  0  0  1  0  0  0  0  0  0
  189.5120  175.9040  144.1620 C   0  0  0  0  0  0  0  0  0  0  0  0
  190.5380  177.0670  146.0800 C   0  0  0  0  0  2  0  0  0  0  0  0
  189.6280  174.7170  144.7780 C   0  0  0  0  0  3  0  0  0  0  0  0
  189.5980  176.0960  142.6930 C   0  0  2  0  0  3  0  0  0  0  0  0
  189.8880  177.5150  142.4880 N   0  0  0  0  0  2  0  0  0  0  0  0
  190.2300  178.0870  143.7960 C   0  0  0  0  0  2  0  0  0  0  0  0
  187.4240  176.9200  141.5460 C   0  0  1  0  0  3  0  0  0  0  0  0
  187.1160  176.8260  140.1870 O   0  0  0  0  0  1  0  0  0  0  0  0
  186.1860  176.9320  142.3140 N   0  0  0  0  0  2  0  0  0  0  0  0
  186.0510  177.5800  146.0010 C   0  0  0  0  0  0  0  0  0  0  0  0
  185.7540  178.9510  146.0170 C   0  0  0  0  0  0  0  0  0  0  0  0
  185.5590  179.5990  147.1890 F   0  0  0  0  0  0  0  0  0  0  0  0
  185.7840  178.9760  143.5900 C   0  0  0  0  0  3  0  0  0  0  0  0
  186.2020  176.9130  144.7820 C   0  0  0  0  0  3  0  0  0  0  0  0
  186.0580  177.6040  143.5690 C   0  0  0  0  0  0  0  0  0  0  0  0
  186.2100  176.6810  147.4970 Cl  0  0  0  0  0  0  0  0  0  0  0  0
  185.6310  179.6460  144.8100 C   0  0  0  0  0  3  0  0  0  0  0  0
  188.5000  174.6820  141.0100 O   0  0  0  0  0  0  0  0  0  0  0  0
  188.6370  173.4120  141.6120 C   0  0  1  0  0  3  0  0  0  0  0  0
  187.5100  172.6240  141.3470 O   0  0  0  0  0  1  0  0  0  0  0  0
  189.9040  172.6860  141.1240 C   0  0  2  0  0  3  0  0  0  0  0  0
  190.5780  172.0190  142.3130 C   0  0  0  0  0  1  0  0  0  0  0  0
  190.8740  173.6140  140.4500 C   0  0  0  0  0  3  0  0  0  0  0  0
  192.1790  173.3530  140.3260 C   0  0  0  0  0  3  0  0  0  0  0  0
  193.0920  174.3870  139.7260 C   0  0  0  0  0  2  0  0  0  0  0  0
  194.4690  174.3130  140.3970 C   0  0  1  0  0  3  0  0  0  0  0  0
  195.6860  176.2890  141.1750 O   0  0  0  0  0  0  0  0  0  0  0  0
  195.5970  174.3570  139.3670 C   0  0  0  0  0  2  0  0  0  0  0  0
  196.9580  174.5310  140.0500 C   0  0  0  0  0  2  0  0  0  0  0  0
  194.7200  175.3340  141.5440 C   0  0  1  0  0  3  0  0  0  0  0  0
  196.9140  175.6000  141.1620 C   0  0  0  0  0  2  0  0  0  0  0  0
  193.4630  176.0070  142.1040 C   0  0  0  0  0  2  0  0  0  0  0  0
  193.2200  175.6960  143.5870 C   0  0  1  0  0  3  0  0  0  0  0  0
  193.6000  174.7710  146.2750 C   0  0  0  0  0  3  0  0  0  0  0  0
  193.2470  173.8630  145.3500 C   0  0  0  0  0  3  0  0  0  0  0  0
  193.8470  176.2230  145.9290 C   0  0  0  0  0  2  0  0  0  0  0  0
  193.1730  174.1850  143.8740 C   0  0  0  0  0  2  0  0  0  0  0  0
  194.2600  176.3850  144.4660 C   0  0  0  0  0  2  0  0  0  0  0  0
  1 23  1  6  0  0  0
  2  5  1  1  0  0  0
  3 11  1  6  0  0  0
  3  7  1  0  0  0  0
  4  2  1  0  0  0  0
  6  8  2  0  0  0  0
  6  3  1  0  0  0  0
  7  2  1  0  0  0  0
  8  4  1  0  0  0  0
  9  1  1  6  0  0  0
  9  6  1  0  0  0  0
 10  9  1  0  0  0  0
 10 11  1  0  0  0  0
 12 13  1  6  0  0  0
 12  1  1  0  0  0  0
 12 14  1  0  0  0  0
 14 20  1  0  0  0  0
 15 16  1  0  0  0  0
 15 21  1  0  0  0  0
 16 17  1  0  0  0  0
 18 22  1  0  0  0  0
 19 15  2  0  0  0  0
 20 18  2  0  0  0  0
 20 19  1  0  0  0  0
 22 16  2  0  0  0  0
 23 24  1  0  0  0  0
 24 25  1  6  0  0  0
 26 24  1  0  0  0  0
 26 27  1  1  0  0  0
 28 26  1  0  0  0  0
 29 28  2  0  0  0  0
 30 29  1  0  0  0  0
 31 30  1  6  0  0  0
 31 35  1  0  0  0  0
 32 35  1  0  0  0  0
 33 34  1  0  0  0  0
 33 31  1  0  0  0  0
 34 36  1  0  0  0  0
 35 37  1  6  0  0  0
 36 32  1  0  0  0  0
 38 37  1  6  0  0  0
 38 42  1  0  0  0  0
 38 43  1  0  0  0  0
 40 39  2  0  0  0  0
 41 39  1  0  0  0  0
 42 40  1  0  0  0  0
 43 41  1  0  0  0  0
M  END
>  <MODEL>
1

>  <REMARK>
 VINA RESULT:      -7.6      0.000      0.000
  Name = 
  12 active torsions:
  status: ('A' for Active; 'I' for Inactive)
    1  A    between atoms: N_1  and  C_34
    2  A    between atoms: N_1  and  C_35
    3  A    between atoms: C_2  and  C_6
    4  A    between atoms: C_2  and  C_13
    5  A    between atoms: C_3  and  C_4
    6  A    between atoms: C_3  and  C_12
    7  A    between atoms: C_8  and  O_27
    8  A    between atoms: C_8  and  C_30
    9  A    between atoms: C_8  and  C_34
   10  A    between atoms: C_11  and  C_14
   11  A    between atoms: C_13  and  O_27
   12  A    between atoms: C_14  and  C_41
                            x       y       z     vdW  Elec       q    Type
                         _______ _______ _______ _____ _____    ______ ____

>  <TORSDO>
F 12

$$$$
=
 OpenBabel11052421233D

 43 47  0  0  1  0  0  0  0  0999 V2000
  188.3360  175.9130  142.0140 C   0  0  1  0  0  3  0  0  0  0  0  0
  189.9460  175.6480  147.0540 C   0  0  1  0  0  3  0  0  0  0  0  0
  189.5930  177.0970  145.0850 C   0  0  1  0  0  3  0  0  0  0  0  0
  189.9110  174.3720  146.1840 C   0  0  0  0  0  2  0  0  0  0  0  0
  190.7340  175.4170  148.1780 O   0  0  0  0  0  1  0  0  0  0  0  0
  189.5240  175.8870  144.2370 C   0  0  0  0  0  0  0  0  0  0  0  0
  190.4940  176.8560  146.2870 C   0  0  0  0  0  2  0  0  0  0  0  0
  189.6770  174.6410  144.7140 C   0  0  0  0  0  3  0  0  0  0  0  0
  189.6150  176.2500  142.8010 C   0  0  2  0  0  3  0  0  0  0  0  0
  189.8560  177.6920  142.7630 N   0  0  0  0  0  2  0  0  0  0  0  0
  190.1680  178.1210  144.1320 C   0  0  0  0  0  2  0  0  0  0  0  0
  187.3520  177.0930  141.8560 C   0  0  1  0  0  3  0  0  0  0  0  0
  187.1980  177.3930  140.5010 O   0  0  0  0  0  1  0  0  0  0  0  0
  186.0540  176.7470  142.4180 N   0  0  0  0  0  2  0  0  0  0  0  0
  185.6320  177.2850  146.1010 C   0  0  0  0  0  0  0  0  0  0  0  0
  184.6150  178.2510  146.1120 C   0  0  0  0  0  0  0  0  0  0  0  0
  184.1070  178.7020  147.2810 F   0  0  0  0  0  0  0  0  0  0  0  0
  184.5900  178.2370  143.6840 C   0  0  0  0  0  3  0  0  0  0  0  0
  186.1140  176.7920  144.8850 C   0  0  0  0  0  3  0  0  0  0  0  0
  185.5880  177.2570  143.6690 C   0  0  0  0  0  0  0  0  0  0  0  0
  186.2910  176.6630  147.6010 Cl  0  0  0  0  0  0  0  0  0  0  0  0
  184.1040  178.7310  144.9010 C   0  0  0  0  0  3  0  0  0  0  0  0
  188.6010  175.1110  140.8730 O   0  0  0  0  0  0  0  0  0  0  0  0
  188.6850  173.7360  141.1840 C   0  0  1  0  0  3  0  0  0  0  0  0
  187.8470  172.9950  140.3410 O   0  0  0  0  0  1  0  0  0  0  0  0
  190.1290  173.2160  141.0670 C   0  0  2  0  0  3  0  0  0  0  0  0
  190.2080  172.2380  139.9050 C   0  0  0  0  0  1  0  0  0  0  0  0
  190.5990  172.5410  142.3250 C   0  0  0  0  0  3  0  0  0  0  0  0
  191.6330  171.6940  142.3660 C   0  0  0  0  0  3  0  0  0  0  0  0
  191.9680  170.9890  143.6510 C   0  0  0  0  0  2  0  0  0  0  0  0
  193.4700  170.6800  143.6950 C   0  0  1  0  0  3  0  0  0  0  0  0
  195.1960  172.4090  143.5500 O   0  0  0  0  0  0  0  0  0  0  0  0
  194.0230  170.3920  142.3000 C   0  0  0  0  0  2  0  0  0  0  0  0
  195.5540  170.3290  142.3180 C   0  0  0  0  0  2  0  0  0  0  0  0
  194.3550  171.7200  144.4420 C   0  0  1  0  0  3  0  0  0  0  0  0
  196.1700  171.4740  143.1490 C   0  0  0  0  0  2  0  0  0  0  0  0
  193.5930  172.6920  145.3490 C   0  0  0  0  0  2  0  0  0  0  0  0
  193.9460  174.1620  145.0910 C   0  0  1  0  0  3  0  0  0  0  0  0
  193.7410  177.0130  144.8510 C   0  0  0  0  0  3  0  0  0  0  0  0
  193.2600  176.2690  143.8410 C   0  0  0  0  0  3  0  0  0  0  0  0
  194.3240  176.3960  146.1020 C   0  0  0  0  0  2  0  0  0  0  0  0
  193.1600  174.7610  143.9110 C   0  0  0  0  0  2  0  0  0  0  0  0
  193.7560  174.9990  146.3530 C   0  0  0  0  0  2  0  0  0  0  0  0
  1 23  1  6  0  0  0
  2  5  1  1  0  0  0
  3 11  1  6  0  0  0
  3  7  1  0  0  0  0
  4  2  1  0  0  0  0
  6  8  2  0  0  0  0
  6  3  1  0  0  0  0
  7  2  1  0  0  0  0
  8  4  1  0  0  0  0
  9  1  1  6  0  0  0
  9  6  1  0  0  0  0
 10  9  1  0  0  0  0
 10 11  1  0  0  0  0
 12 13  1  6  0  0  0
 12  1  1  0  0  0  0
 12 14  1  0  0  0  0
 14 20  1  0  0  0  0
 15 16  1  0  0  0  0
 15 21  1  0  0  0  0
 16 17  1  0  0  0  0
 18 22  1  0  0  0  0
 19 15  2  0  0  0  0
 20 18  2  0  0  0  0
 20 19  1  0  0  0  0
 22 16  2  0  0  0  0
 23 24  1  0  0  0  0
 24 25  1  6  0  0  0
 26 27  1  6  0  0  0
 26 24  1  0  0  0  0
 26 28  1  0  0  0  0
 28 29  2  0  0  0  0
 29 30  1  0  0  0  0
 31 30  1  6  0  0  0
 31 35  1  0  0  0  0
 32 35  1  0  0  0  0
 33 34  1  0  0  0  0
 33 31  1  0  0  0  0
 34 36  1  0  0  0  0
 35 37  1  6  0  0  0
 36 32  1  0  0  0  0
 38 37  1  1  0  0  0
 38 43  1  0  0  0  0
 39 41  1  0  0  0  0
 40 42  1  0  0  0  0
 40 39  2  0  0  0  0
 41 43  1  0  0  0  0
 42 38  1  0  0  0  0
M  END
>  <MODEL>
2

>  <REMARK>
 VINA RESULT:      -7.3      1.835      2.407
  Name = 
  12 active torsions:
  status: ('A' for Active; 'I' for Inactive)
    1  A    between atoms: N_1  and  C_34
    2  A    between atoms: N_1  and  C_35
    3  A    between atoms: C_2  and  C_6
    4  A    between atoms: C_2  and  C_13
    5  A    between atoms: C_3  and  C_4
    6  A    between atoms: C_3  and  C_12
    7  A    between atoms: C_8  and  O_27
    8  A    between atoms: C_8  and  C_30
    9  A    between atoms: C_8  and  C_34
   10  A    between atoms: C_11  and  C_14
   11  A    between atoms: C_13  and  O_27
   12  A    between atoms: C_14  and  C_41
                            x       y       z     vdW  Elec       q    Type
                         _______ _______ _______ _____ _____    ______ ____

>  <TORSDO>
F 12

$$$$
=
 OpenBabel11052421233D

 43 47  0  0  1  0  0  0  0  0999 V2000
  188.1200  175.9940  142.0100 C   0  0  1  0  0  3  0  0  0  0  0  0
  189.9940  175.6160  146.9510 C   0  0  1  0  0  3  0  0  0  0  0  0
  189.6770  177.0720  144.9820 C   0  0  1  0  0  3  0  0  0  0  0  0
  189.7740  174.3410  146.1070 C   0  0  0  0  0  2  0  0  0  0  0  0
  190.8200  175.3160  148.0310 O   0  0  0  0  0  1  0  0  0  0  0  0
  189.4310  175.8670  144.1600 C   0  0  0  0  0  0  0  0  0  0  0  0
  190.6180  176.7510  146.1320 C   0  0  0  0  0  2  0  0  0  0  0  0
  189.4810  174.6180  144.6490 C   0  0  0  0  0  3  0  0  0  0  0  0
  189.4730  176.2020  142.7150 C   0  0  2  0  0  3  0  0  0  0  0  0
  189.8610  177.6100  142.6380 N   0  0  0  0  0  2  0  0  0  0  0  0
  190.2970  178.0200  143.9780 C   0  0  0  0  0  2  0  0  0  0  0  0
  187.2360  177.2580  141.9360 C   0  0  1  0  0  3  0  0  0  0  0  0
  187.1070  177.6580  140.6050 O   0  0  0  0  0  1  0  0  0  0  0  0
  185.9130  176.9810  142.4800 N   0  0  0  0  0  2  0  0  0  0  0  0
  185.6410  177.3150  146.2020 C   0  0  0  0  0  0  0  0  0  0  0  0
  184.6270  178.2790  146.3060 C   0  0  0  0  0  0  0  0  0  0  0  0
  184.1660  178.6640  147.5190 F   0  0  0  0  0  0  0  0  0  0  0  0
  184.5040  178.3980  143.8850 C   0  0  0  0  0  3  0  0  0  0  0  0
  186.0720  176.8910  144.9420 C   0  0  0  0  0  3  0  0  0  0  0  0
  185.4990  177.4210  143.7750 C   0  0  0  0  0  0  0  0  0  0  0  0
  186.3590  176.6130  147.6370 Cl  0  0  0  0  0  0  0  0  0  0  0  0
  184.0680  178.8240  145.1450 C   0  0  0  0  0  3  0  0  0  0  0  0
  188.2390  175.1960  140.8420 O   0  0  0  0  0  0  0  0  0  0  0  0
  188.7740  173.9170  141.1110 C   0  0  1  0  0  3  0  0  0  0  0  0
  187.7430  172.9930  141.3250 O   0  0  0  0  0  1  0  0  0  0  0  0
  189.6790  173.4280  139.9670 C   0  0  2  0  0  3  0  0  0  0  0  0
  188.8980  172.4480  139.1050 C   0  0  0  0  0  1  0  0  0  0  0  0
  190.9330  172.7690  140.4680 C   0  0  0  0  0  3  0  0  0  0  0  0
  191.4210  172.9530  141.6980 C   0  0  0  0  0  3  0  0  0  0  0  0
  192.7370  172.3300  142.0780 C   0  0  0  0  0  2  0  0  0  0  0  0
  193.4840  173.2530  143.0490 C   0  0  1  0  0  3  0  0  0  0  0  0
  192.9410  173.4120  145.4300 O   0  0  0  0  0  0  0  0  0  0  0  0
  192.8600  174.6470  143.0890 C   0  0  0  0  0  2  0  0  0  0  0  0
  193.4500  175.4810  144.2320 C   0  0  0  0  0  2  0  0  0  0  0  0
  193.6980  172.6950  144.4860 C   0  0  1  0  0  3  0  0  0  0  0  0
  193.5640  174.6700  145.5400 C   0  0  0  0  0  2  0  0  0  0  0  0
  193.4860  171.1850  144.6370 C   0  0  0  0  0  2  0  0  0  0  0  0
  194.7570  170.4340  145.0530 C   0  0  1  0  0  3  0  0  0  0  0  0
  197.0750  169.6070  146.5260 C   0  0  0  0  0  3  0  0  0  0  0  0
  197.1860  170.7050  145.7610 C   0  0  0  0  0  3  0  0  0  0  0  0
  195.7750  168.8470  146.6660 C   0  0  0  0  0  2  0  0  0  0  0  0
  196.0020  171.3390  145.0630 C   0  0  0  0  0  2  0  0  0  0  0  0
  194.5700  169.7510  146.4050 C   0  0  0  0  0  2  0  0  0  0  0  0
  1 23  1  6  0  0  0
  2  5  1  1  0  0  0
  3 11  1  6  0  0  0
  3  7  1  0  0  0  0
  4  2  1  0  0  0  0
  6  8  2  0  0  0  0
  6  3  1  0  0  0  0
  7  2  1  0  0  0  0
  8  4  1  0  0  0  0
  9  1  1  1  0  0  0
  9  6  1  0  0  0  0
 10  9  1  0  0  0  0
 10 11  1  0  0  0  0
 12 13  1  6  0  0  0
 12  1  1  0  0  0  0
 12 14  1  0  0  0  0
 14 20  1  0  0  0  0
 15 16  1  0  0  0  0
 15 21  1  0  0  0  0
 16 17  1  0  0  0  0
 18 22  1  0  0  0  0
 19 15  2  0  0  0  0
 20 18  2  0  0  0  0
 20 19  1  0  0  0  0
 22 16  2  0  0  0  0
 23 24  1  0  0  0  0
 24 25  1  6  0  0  0
 26 27  1  1  0  0  0
 26 28  1  0  0  0  0
 26 24  1  0  0  0  0
 28 29  2  0  0  0  0
 29 30  1  0  0  0  0
 31 30  1  6  0  0  0
 31 33  1  0  0  0  0
 31 35  1  0  0  0  0
 32 36  1  0  0  0  0
 33 34  1  0  0  0  0
 34 36  1  0  0  0  0
 35 37  1  6  0  0  0
 35 32  1  0  0  0  0
 38 37  1  1  0  0  0
 38 42  1  0  0  0  0
 38 43  1  0  0  0  0
 39 41  1  0  0  0  0
 40 39  2  0  0  0  0
 42 40  1  0  0  0  0
 43 41  1  0  0  0  0
M  END
>  <MODEL>
3

>  <REMARK>
 VINA RESULT:      -7.3      2.160      3.184
  Name = 
  12 active torsions:
  status: ('A' for Active; 'I' for Inactive)
    1  A    between atoms: N_1  and  C_34
    2  A    between atoms: N_1  and  C_35
    3  A    between atoms: C_2  and  C_6
    4  A    between atoms: C_2  and  C_13
    5  A    between atoms: C_3  and  C_4
    6  A    between atoms: C_3  and  C_12
    7  A    between atoms: C_8  and  O_27
    8  A    between atoms: C_8  and  C_30
    9  A    between atoms: C_8  and  C_34
   10  A    between atoms: C_11  and  C_14
   11  A    between atoms: C_13  and  O_27
   12  A    between atoms: C_14  and  C_41
                            x       y       z     vdW  Elec       q    Type
                         _______ _______ _______ _____ _____    ______ ____

>  <TORSDO>
F 12

$$$$
=
 OpenBabel11052421233D

 43 47  0  0  1  0  0  0  0  0999 V2000
  188.2530  175.8010  141.7470 C   0  0  1  0  0  3  0  0  0  0  0  0
  189.8370  175.5960  146.7980 C   0  0  1  0  0  3  0  0  0  0  0  0
  189.5290  177.0140  144.7990 C   0  0  1  0  0  3  0  0  0  0  0  0
  189.7730  174.3040  145.9540 C   0  0  0  0  0  2  0  0  0  0  0  0
  190.6150  175.3680  147.9300 O   0  0  0  0  0  1  0  0  0  0  0  0
  189.4320  175.7890  143.9750 C   0  0  0  0  0  0  0  0  0  0  0  0
  190.4190  176.7740  146.0090 C   0  0  0  0  0  2  0  0  0  0  0  0
  189.5510  174.5500  144.4780 C   0  0  0  0  0  3  0  0  0  0  0  0
  189.5380  176.1200  142.5320 C   0  0  2  0  0  3  0  0  0  0  0  0
  189.8170  177.5550  142.4670 N   0  0  0  0  0  2  0  0  0  0  0  0
  190.1340  178.0030  143.8280 C   0  0  0  0  0  2  0  0  0  0  0  0
  187.2830  176.9930  141.5960 C   0  0  1  0  0  3  0  0  0  0  0  0
  186.8250  177.0570  140.2780 O   0  0  0  0  0  1  0  0  0  0  0  0
  186.1430  176.8320  142.4880 N   0  0  0  0  0  2  0  0  0  0  0  0
  186.0080  177.5660  146.1600 C   0  0  0  0  0  0  0  0  0  0  0  0
  185.7320  178.9410  146.1440 C   0  0  0  0  0  0  0  0  0  0  0  0
  185.5440  179.6180  147.2990 F   0  0  0  0  0  0  0  0  0  0  0  0
  185.7690  178.9100  143.7170 C   0  0  0  0  0  3  0  0  0  0  0  0
  186.1510  176.8690  144.9560 C   0  0  0  0  0  3  0  0  0  0  0  0
  186.0210  177.5340  143.7270 C   0  0  0  0  0  0  0  0  0  0  0  0
  186.1490  176.6990  147.6760 Cl  0  0  0  0  0  0  0  0  0  0  0  0
  185.6220  179.6110  144.9200 C   0  0  0  0  0  3  0  0  0  0  0  0
  188.5070  175.0010  140.6020 O   0  0  0  0  0  0  0  0  0  0  0  0
  189.0930  173.7590  140.9280 C   0  0  1  0  0  3  0  0  0  0  0  0
  188.2430  172.7080  140.5610 O   0  0  0  0  0  1  0  0  0  0  0  0
  190.4620  173.5810  140.2470 C   0  0  2  0  0  3  0  0  0  0  0  0
  190.4730  172.2550  139.5020 C   0  0  0  0  0  1  0  0  0  0  0  0
  191.6000  173.6160  141.2270 C   0  0  0  0  0  3  0  0  0  0  0  0
  191.7880  172.6900  142.1730 C   0  0  0  0  0  3  0  0  0  0  0  0
  192.8970  172.8620  143.1740 C   0  0  0  0  0  2  0  0  0  0  0  0
  193.3890  174.3150  143.1550 C   0  0  1  0  0  3  0  0  0  0  0  0
  195.6920  174.9550  143.6800 O   0  0  0  0  0  0  0  0  0  0  0  0
  193.1780  174.9950  144.5080 C   0  0  0  0  0  2  0  0  0  0  0  0
  193.8890  176.3520  144.5580 C   0  0  0  0  0  2  0  0  0  0  0  0
  194.8420  174.5330  142.6420 C   0  0  1  0  0  3  0  0  0  0  0  0
  195.3130  176.2800  143.9660 C   0  0  0  0  0  2  0  0  0  0  0  0
  195.4460  173.3520  141.8760 C   0  0  0  0  0  2  0  0  0  0  0  0
  195.3090  173.4830  140.3540 C   0  0  1  0  0  3  0  0  0  0  0  0
  194.1830  173.8200  137.7380 C   0  0  0  0  0  3  0  0  0  0  0  0
  194.0960  172.6020  138.2990 C   0  0  0  0  0  3  0  0  0  0  0  0
  194.7980  174.9990  138.4580 C   0  0  0  0  0  2  0  0  0  0  0  0
  194.5030  172.3310  139.7300 C   0  0  0  0  0  2  0  0  0  0  0  0
  194.7100  174.8350  139.9750 C   0  0  0  0  0  2  0  0  0  0  0  0
  1 23  1  6  0  0  0
  2  5  1  1  0  0  0
  3 11  1  6  0  0  0
  3  7  1  0  0  0  0
  4  2  1  0  0  0  0
  6  8  2  0  0  0  0
  6  3  1  0  0  0  0
  7  2  1  0  0  0  0
  8  4  1  0  0  0  0
  9  1  1  6  0  0  0
  9  6  1  0  0  0  0
 10  9  1  0  0  0  0
 10 11  1  0  0  0  0
 12 13  1  6  0  0  0
 12  1  1  0  0  0  0
 12 14  1  0  0  0  0
 14 20  1  0  0  0  0
 15 21  1  0  0  0  0
 16 15  1  0  0  0  0
 16 17  1  0  0  0  0
 18 20  2  0  0  0  0
 18 22  1  0  0  0  0
 19 15  2  0  0  0  0
 20 19  1  0  0  0  0
 22 16  2  0  0  0  0
 23 24  1  0  0  0  0
 24 25  1  6  0  0  0
 26 27  1  1  0  0  0
 26 24  1  0  0  0  0
 26 28  1  0  0  0  0
 28 29  2  0  0  0  0
 29 30  1  0  0  0  0
 31 30  1  1  0  0  0
 31 33  1  0  0  0  0
 32 36  1  0  0  0  0
 33 34  1  0  0  0  0
 35 37  1  1  0  0  0
 35 31  1  0  0  0  0
 35 32  1  0  0  0  0
 36 34  1  0  0  0  0
 38 37  1  1  0  0  0
 39 40  2  0  0  0  0
 39 41  1  0  0  0  0
 40 42  1  0  0  0  0
 41 43  1  0  0  0  0
 42 38  1  0  0  0  0
 43 38  1  0  0  0  0
M  END
>  <MODEL>
4

>  <REMARK>
 VINA RESULT:      -7.1      1.064      3.006
  Name = 
  12 active torsions:
  status: ('A' for Active; 'I' for Inactive)
    1  A    between atoms: N_1  and  C_34
    2  A    between atoms: N_1  and  C_35
    3  A    between atoms: C_2  and  C_6
    4  A    between atoms: C_2  and  C_13
    5  A    between atoms: C_3  and  C_4
    6  A    between atoms: C_3  and  C_12
    7  A    between atoms: C_8  and  O_27
    8  A    between atoms: C_8  and  C_30
    9  A    between atoms: C_8  and  C_34
   10  A    between atoms: C_11  and  C_14
   11  A    between atoms: C_13  and  O_27
   12  A    between atoms: C_14  and  C_41
                            x       y       z     vdW  Elec       q    Type
                         _______ _______ _______ _____ _____    ______ ____

>  <TORSDO>
F 12

$$$$
=
 OpenBabel11052421233D

 43 47  0  0  1  0  0  0  0  0999 V2000
  190.2610  175.7680  145.5120 C   0  0  1  0  0  3  0  0  0  0  0  0
  187.3920  177.3890  141.3640 C   0  0  1  0  0  3  0  0  0  0  0  0
  188.1190  175.4650  142.7310 C   0  0  1  0  0  3  0  0  0  0  0  0
  188.5410  178.2700  141.9020 C   0  0  0  0  0  2  0  0  0  0  0  0
  187.0430  177.8180  140.0870 O   0  0  0  0  0  1  0  0  0  0  0  0
  189.2080  176.3000  143.2850 C   0  0  0  0  0  0  0  0  0  0  0  0
  187.7740  175.9060  141.3170 C   0  0  0  0  0  2  0  0  0  0  0  0
  189.4230  177.5720  142.9140 C   0  0  0  0  0  3  0  0  0  0  0  0
  190.1960  175.4590  144.0060 C   0  0  2  0  0  3  0  0  0  0  0  0
  189.7740  174.0740  143.8010 N   0  0  0  0  0  2  0  0  0  0  0  0
  188.7290  174.0810  142.7690 C   0  0  0  0  0  2  0  0  0  0  0  0
  188.9400  175.5240  146.2730 C   0  0  1  0  0  3  0  0  0  0  0  0
  189.1700  174.6460  147.3350 O   0  0  0  0  0  1  0  0  0  0  0  0
  188.4200  176.7790  146.7980 N   0  0  0  0  0  2  0  0  0  0  0  0
  185.7190  178.7670  145.1270 C   0  0  0  0  0  0  0  0  0  0  0  0
  184.5880  178.3100  145.8200 C   0  0  0  0  0  0  0  0  0  0  0  0
  183.3660  178.8270  145.5590 F   0  0  0  0  0  0  0  0  0  0  0  0
  185.9990  176.8230  147.1210 C   0  0  0  0  0  3  0  0  0  0  0  0
  186.9830  178.2590  145.4420 C   0  0  0  0  0  3  0  0  0  0  0  0
  187.1320  177.2920  146.4490 C   0  0  0  0  0  0  0  0  0  0  0  0
  185.5720  179.9930  143.8840 Cl  0  0  0  0  0  0  0  0  0  0  0  0
  184.7320  177.3320  146.8100 C   0  0  0  0  0  3  0  0  0  0  0  0
  191.4650  175.3060  146.1050 O   0  0  0  0  0  0  0  0  0  0  0  0
  192.3020  176.3620  146.5280 C   0  0  1  0  0  3  0  0  0  0  0  0
  191.9410  176.7820  147.8140 O   0  0  0  0  0  1  0  0  0  0  0  0
  193.7860  175.9520  146.5130 C   0  0  2  0  0  3  0  0  0  0  0  0
  194.5560  176.9210  145.6310 C   0  0  0  0  0  1  0  0  0  0  0  0
  193.9890  174.5490  146.0150 C   0  0  0  0  0  3  0  0  0  0  0  0
  193.5100  174.1040  144.8490 C   0  0  0  0  0  3  0  0  0  0  0  0
  193.6770  172.6550  144.4800 C   0  0  0  0  0  2  0  0  0  0  0  0
  195.0440  172.1530  144.9620 C   0  0  1  0  0  3  0  0  0  0  0  0
  196.3990  170.5480  143.7060 O   0  0  0  0  0  0  0  0  0  0  0  0
  194.9040  170.9240  145.8590 C   0  0  0  0  0  2  0  0  0  0  0  0
  196.2710  170.2850  146.1330 C   0  0  0  0  0  2  0  0  0  0  0  0
  196.1100  171.9170  143.8530 C   0  0  1  0  0  3  0  0  0  0  0  0
  197.1310  170.1900  144.8550 C   0  0  0  0  0  2  0  0  0  0  0  0
  195.7970  172.5660  142.5010 C   0  0  0  0  0  2  0  0  0  0  0  0
  196.4070  173.9640  142.3450 C   0  0  1  0  0  3  0  0  0  0  0  0
  197.0190  176.7340  142.7720 C   0  0  0  0  0  3  0  0  0  0  0  0
  195.8770  176.4430  142.1270 C   0  0  0  0  0  3  0  0  0  0  0  0
  197.9380  175.6610  143.3110 C   0  0  0  0  0  2  0  0  0  0  0  0
  195.3580  175.0300  141.9790 C   0  0  0  0  0  2  0  0  0  0  0  0
  197.1770  174.3670  143.5990 C   0  0  0  0  0  2  0  0  0  0  0  0
  1 23  1  1  0  0  0
  1 12  1  0  0  0  0
  2  5  1  6  0  0  0
  2  4  1  0  0  0  0
  3  7  1  6  0  0  0
  3 11  1  0  0  0  0
  3  6  1  0  0  0  0
  4  8  1  0  0  0  0
  6  9  1  0  0  0  0
  7  2  1  0  0  0  0
  8  6  2  0  0  0  0
  9  1  1  1  0  0  0
 10  9  1  0  0  0  0
 11 10  1  0  0  0  0
 12 14  1  0  0  0  0
 12 13  1  1  0  0  0
 15 19  2  0  0  0  0
 15 16  1  0  0  0  0
 16 22  2  0  0  0  0
 17 16  1  0  0  0  0
 19 20  1  0  0  0  0
 20 14  1  0  0  0  0
 20 18  2  0  0  0  0
 21 15  1  0  0  0  0
 22 18  1  0  0  0  0
 23 24  1  0  0  0  0
 24 25  1  1  0  0  0
 26 27  1  6  0  0  0
 26 24  1  0  0  0  0
 28 26  1  0  0  0  0
 29 28  2  0  0  0  0
 30 29  1  0  0  0  0
 31 30  1  6  0  0  0
 31 33  1  0  0  0  0
 32 35  1  0  0  0  0
 32 36  1  0  0  0  0
 33 34  1  0  0  0  0
 35 37  1  6  0  0  0
 35 31  1  0  0  0  0
 36 34  1  0  0  0  0
 38 37  1  1  0  0  0
 38 43  1  0  0  0  0
 39 41  1  0  0  0  0
 40 39  2  0  0  0  0
 41 43  1  0  0  0  0
 42 40  1  0  0  0  0
 42 38  1  0  0  0  0
M  END
>  <MODEL>
5

>  <REMARK>
 VINA RESULT:      -7.0      2.496      5.227
  Name = 
  12 active torsions:
  status: ('A' for Active; 'I' for Inactive)
    1  A    between atoms: N_1  and  C_34
    2  A    between atoms: N_1  and  C_35
    3  A    between atoms: C_2  and  C_6
    4  A    between atoms: C_2  and  C_13
    5  A    between atoms: C_3  and  C_4
    6  A    between atoms: C_3  and  C_12
    7  A    between atoms: C_8  and  O_27
    8  A    between atoms: C_8  and  C_30
    9  A    between atoms: C_8  and  C_34
   10  A    between atoms: C_11  and  C_14
   11  A    between atoms: C_13  and  O_27
   12  A    between atoms: C_14  and  C_41
                            x       y       z     vdW  Elec       q    Type
                         _______ _______ _______ _____ _____    ______ ____

>  <TORSDO>
F 12

$$$$
=
 OpenBabel11052421233D

 43 47  0  0  1  0  0  0  0  0999 V2000
  190.2820  175.4650  145.2350 C   0  0  1  0  0  3  0  0  0  0  0  0
  187.3260  177.0750  141.1440 C   0  0  1  0  0  3  0  0  0  0  0  0
  188.1850  175.1430  142.4210 C   0  0  1  0  0  3  0  0  0  0  0  0
  188.4030  178.0110  141.7370 C   0  0  0  0  0  2  0  0  0  0  0  0
  186.9540  177.5400  139.8860 O   0  0  0  0  0  1  0  0  0  0  0  0
  189.2060  176.0280  143.0260 C   0  0  0  0  0  0  0  0  0  0  0  0
  187.8170  175.6280  141.0270 C   0  0  0  0  0  2  0  0  0  0  0  0
  189.3280  177.3300  142.7210 C   0  0  0  0  0  3  0  0  0  0  0  0
  190.2490  175.2280  143.7140 C   0  0  2  0  0  3  0  0  0  0  0  0
  189.9320  173.8270  143.4370 N   0  0  0  0  0  2  0  0  0  0  0  0
  188.8970  173.8090  142.3970 C   0  0  0  0  0  2  0  0  0  0  0  0
  188.9200  175.2870  145.9400 C   0  0  1  0  0  3  0  0  0  0  0  0
  189.0330  174.3090  146.9310 O   0  0  0  0  0  1  0  0  0  0  0  0
  188.5000  176.5400  146.5530 N   0  0  0  0  0  2  0  0  0  0  0  0
  185.7900  178.6390  145.0430 C   0  0  0  0  0  0  0  0  0  0  0  0
  184.7120  178.3210  145.8820 C   0  0  0  0  0  0  0  0  0  0  0  0
  183.5110  178.9210  145.7160 F   0  0  0  0  0  0  0  0  0  0  0  0
  186.1410  176.8050  147.1270 C   0  0  0  0  0  3  0  0  0  0  0  0
  187.0380  178.0480  145.2570 C   0  0  0  0  0  3  0  0  0  0  0  0
  187.2250  177.1360  146.3070 C   0  0  0  0  0  0  0  0  0  0  0  0
  185.5990  179.7950  143.7390 Cl  0  0  0  0  0  0  0  0  0  0  0  0
  184.8900  177.3970  146.9170 C   0  0  0  0  0  3  0  0  0  0  0  0
  191.4270  174.8880  145.8450 O   0  0  0  0  0  0  0  0  0  0  0  0
  192.0980  175.7900  146.7000 C   0  0  1  0  0  3  0  0  0  0  0  0
  191.8520  175.4660  148.0400 O   0  0  0  0  0  1  0  0  0  0  0  0
  193.6150  175.7980  146.4380 C   0  0  2  0  0  3  0  0  0  0  0  0
  194.1730  177.1620  146.8150 C   0  0  0  0  0  1  0  0  0  0  0  0
  193.9520  175.4960  145.0050 C   0  0  0  0  0  3  0  0  0  0  0  0
  195.0360  175.9730  144.3860 C   0  0  0  0  0  3  0  0  0  0  0  0
  195.2390  175.6990  142.9220 C   0  0  0  0  0  2  0  0  0  0  0  0
  194.2180  174.6580  142.4450 C   0  0  1  0  0  3  0  0  0  0  0  0
  194.6360  173.1310  140.5790 O   0  0  0  0  0  0  0  0  0  0  0  0
  193.2670  175.2430  141.4010 C   0  0  0  0  0  2  0  0  0  0  0  0
  192.4180  174.1440  140.7540 C   0  0  0  0  0  2  0  0  0  0  0  0
  194.8070  173.3000  141.9650 C   0  0  1  0  0  3  0  0  0  0  0  0
  193.2590  172.9010  140.3920 C   0  0  0  0  0  2  0  0  0  0  0  0
  196.2590  173.0370  142.3790 C   0  0  0  0  0  2  0  0  0  0  0  0
  196.3830  172.0740  143.5670 C   0  0  1  0  0  3  0  0  0  0  0  0
  196.0030  170.8460  146.1310 C   0  0  0  0  0  3  0  0  0  0  0  0
  196.8120  171.9170  146.0700 C   0  0  0  0  0  3  0  0  0  0  0  0
  195.2660  170.3200  144.9200 C   0  0  0  0  0  2  0  0  0  0  0  0
  196.9710  172.7510  144.8180 C   0  0  0  0  0  2  0  0  0  0  0  0
  195.0410  171.4200  143.8830 C   0  0  0  0  0  2  0  0  0  0  0  0
  1 23  1  1  0  0  0
  1 12  1  0  0  0  0
  2  5  1  6  0  0  0
  2  4  1  0  0  0  0
  3  7  1  6  0  0  0
  3  6  1  0  0  0  0
  4  8  1  0  0  0  0
  6  9  1  0  0  0  0
  7  2  1  0  0  0  0
  8  6  2  0  0  0  0
  9  1  1  1  0  0  0
 10  9  1  0  0  0  0
 11  3  1  0  0  0  0
 11 10  1  0  0  0  0
 12 14  1  0  0  0  0
 12 13  1  1  0  0  0
 15 19  2  0  0  0  0
 15 16  1  0  0  0  0
 16 22  2  0  0  0  0
 17 16  1  0  0  0  0
 19 20  1  0  0  0  0
 20 14  1  0  0  0  0
 20 18  2  0  0  0  0
 21 15  1  0  0  0  0
 22 18  1  0  0  0  0
 23 24  1  0  0  0  0
 24 25  1  1  0  0  0
 26 24  1  0  0  0  0
 26 27  1  6  0  0  0
 28 26  1  0  0  0  0
 29 28  2  0  0  0  0
 30 29  1  0  0  0  0
 31 30  1  6  0  0  0
 32 35  1  0  0  0  0
 33 31  1  0  0  0  0
 34 33  1  0  0  0  0
 35 37  1  6  0  0  0
 35 31  1  0  0  0  0
 36 32  1  0  0  0  0
 36 34  1  0  0  0  0
 38 37  1  6  0  0  0
 38 43  1  0  0  0  0
 38 42  1  0  0  0  0
 40 39  2  0  0  0  0
 41 39  1  0  0  0  0
 42 40  1  0  0  0  0
 43 41  1  0  0  0  0
M  END
>  <MODEL>
6

>  <REMARK>
 VINA RESULT:      -6.9      2.320      4.879
  Name = 
  12 active torsions:
  status: ('A' for Active; 'I' for Inactive)
    1  A    between atoms: N_1  and  C_34
    2  A    between atoms: N_1  and  C_35
    3  A    between atoms: C_2  and  C_6
    4  A    between atoms: C_2  and  C_13
    5  A    between atoms: C_3  and  C_4
    6  A    between atoms: C_3  and  C_12
    7  A    between atoms: C_8  and  O_27
    8  A    between atoms: C_8  and  C_30
    9  A    between atoms: C_8  and  C_34
   10  A    between atoms: C_11  and  C_14
   11  A    between atoms: C_13  and  O_27
   12  A    between atoms: C_14  and  C_41
                            x       y       z     vdW  Elec       q    Type
                         _______ _______ _______ _____ _____    ______ ____

>  <TORSDO>
F 12

$$$$
=
 OpenBabel11052421233D

 43 47  0  0  1  0  0  0  0  0999 V2000
  195.9670  175.5280  144.3020 C   0  0  1  0  0  3  0  0  0  0  0  0
  194.1330  170.5580  144.2840 C   0  0  1  0  0  3  0  0  0  0  0  0
  195.5000  172.2370  145.4720 C   0  0  1  0  0  3  0  0  0  0  0  0
  194.1920  171.3660  142.9690 C   0  0  0  0  0  2  0  0  0  0  0  0
  193.9850  169.2060  143.9870 O   0  0  0  0  0  1  0  0  0  0  0  0
  195.5430  173.0440  144.2320 C   0  0  0  0  0  0  0  0  0  0  0  0
  195.3870  170.7570  145.1420 C   0  0  0  0  0  2  0  0  0  0  0  0
  194.9650  172.6610  143.0830 C   0  0  0  0  0  3  0  0  0  0  0  0
  196.5690  174.1110  144.3390 C   0  0  2  0  0  3  0  0  0  0  0  0
  197.2470  173.8930  145.6160 N   0  0  0  0  0  2  0  0  0  0  0  0
  196.8220  172.5820  146.1210 C   0  0  0  0  0  2  0  0  0  0  0  0
  196.3960  176.3730  143.0830 C   0  0  1  0  0  3  0  0  0  0  0  0
  197.1610  177.4590  143.5150 O   0  0  0  0  0  1  0  0  0  0  0  0
  197.1880  175.5680  142.1630 N   0  0  0  0  0  2  0  0  0  0  0  0
  195.1930  174.9230  139.0580 C   0  0  0  0  0  0  0  0  0  0  0  0
  196.1970  174.9960  138.0810 C   0  0  0  0  0  0  0  0  0  0  0  0
  195.9080  174.7630  136.7800 F   0  0  0  0  0  0  0  0  0  0  0  0
  197.8310  175.4830  139.8080 C   0  0  0  0  0  3  0  0  0  0  0  0
  195.5160  175.1180  140.4050 C   0  0  0  0  0  3  0  0  0  0  0  0
  196.8380  175.3880  140.7900 C   0  0  0  0  0  0  0  0  0  0  0  0
  193.5370  174.5600  138.6160 Cl  0  0  0  0  0  0  0  0  0  0  0  0
  197.5120  175.2860  138.4590 C   0  0  0  0  0  3  0  0  0  0  0  0
  194.5970  175.5410  144.6720 O   0  0  0  0  0  0  0  0  0  0  0  0
  194.4040  175.9070  146.0220 C   0  0  1  0  0  3  0  0  0  0  0  0
  194.4820  177.2980  146.1660 O   0  0  0  0  0  1  0  0  0  0  0  0
  193.0500  175.4060  146.5580 C   0  0  2  0  0  3  0  0  0  0  0  0
  192.5900  174.2310  145.7100 C   0  0  0  0  0  1  0  0  0  0  0  0
  191.9960  176.4770  146.5470 C   0  0  0  0  0  3  0  0  0  0  0  0
  190.7600  176.3000  147.0220 C   0  0  0  0  0  3  0  0  0  0  0  0
  189.7420  177.3980  146.8770 C   0  0  0  0  0  2  0  0  0  0  0  0
  188.4970  176.8570  146.1620 C   0  0  1  0  0  3  0  0  0  0  0  0
  187.2030  178.1710  144.5530 O   0  0  0  0  0  0  0  0  0  0  0  0
  187.2290  177.1070  146.9780 C   0  0  0  0  0  2  0  0  0  0  0  0
  185.9750  176.7920  146.1550 C   0  0  0  0  0  2  0  0  0  0  0  0
  188.3110  177.3150  144.6860 C   0  0  1  0  0  3  0  0  0  0  0  0
  186.0690  177.3520  144.7200 C   0  0  0  0  0  2  0  0  0  0  0  0
  189.5570  177.9160  144.0280 C   0  0  0  0  0  2  0  0  0  0  0  0
  190.2560  176.9510  143.0620 C   0  0  1  0  0  3  0  0  0  0  0  0
  191.8720  174.8140  142.0380 C   0  0  0  0  0  3  0  0  0  0  0  0
  192.4970  175.9480  142.3960 C   0  0  0  0  0  3  0  0  0  0  0  0
  190.3810  174.6250  142.2090 C   0  0  0  0  0  2  0  0  0  0  0  0
  191.7890  177.0860  143.0960 C   0  0  0  0  0  2  0  0  0  0  0  0
  189.8310  175.5100  143.3270 C   0  0  0  0  0  2  0  0  0  0  0  0
  1 23  1  6  0  0  0
  2  5  1  6  0  0  0
  2  7  1  0  0  0  0
  3  7  1  6  0  0  0
  3 11  1  0  0  0  0
  4  8  1  0  0  0  0
  4  2  1  0  0  0  0
  6  9  1  0  0  0  0
  6  3  1  0  0  0  0
  8  6  2  0  0  0  0
  9  1  1  1  0  0  0
  9 10  1  0  0  0  0
 10 11  1  0  0  0  0
 12 13  1  1  0  0  0
 12  1  1  0  0  0  0
 14 12  1  0  0  0  0
 15 19  1  0  0  0  0
 16 22  1  0  0  0  0
 16 15  2  0  0  0  0
 17 16  1  0  0  0  0
 18 20  1  0  0  0  0
 19 20  2  0  0  0  0
 20 14  1  0  0  0  0
 21 15  1  0  0  0  0
 22 18  2  0  0  0  0
 23 24  1  0  0  0  0
 24 25  1  6  0  0  0
 24 26  1  0  0  0  0
 26 27  1  6  0  0  0
 28 26  1  0  0  0  0
 28 29  2  0  0  0  0
 30 29  1  0  0  0  0
 31 30  1  1  0  0  0
 31 33  1  0  0  0  0
 32 35  1  0  0  0  0
 32 36  1  0  0  0  0
 34 33  1  0  0  0  0
 35 37  1  1  0  0  0
 35 31  1  0  0  0  0
 36 34  1  0  0  0  0
 38 42  1  0  0  0  0
 38 43  1  0  0  0  0
 38 37  1  1  0  0  0
 39 41  1  0  0  0  0
 39 40  2  0  0  0  0
 40 42  1  0  0  0  0
 41 43  1  0  0  0  0
M  END
>  <MODEL>
7

>  <REMARK>
 VINA RESULT:      -6.8      4.220      9.021
  Name = 
  12 active torsions:
  status: ('A' for Active; 'I' for Inactive)
    1  A    between atoms: N_1  and  C_34
    2  A    between atoms: N_1  and  C_35
    3  A    between atoms: C_2  and  C_6
    4  A    between atoms: C_2  and  C_13
    5  A    between atoms: C_3  and  C_4
    6  A    between atoms: C_3  and  C_12
    7  A    between atoms: C_8  and  O_27
    8  A    between atoms: C_8  and  C_30
    9  A    between atoms: C_8  and  C_34
   10  A    between atoms: C_11  and  C_14
   11  A    between atoms: C_13  and  O_27
   12  A    between atoms: C_14  and  C_41
                            x       y       z     vdW  Elec       q    Type
                         _______ _______ _______ _____ _____    ______ ____

>  <TORSDO>
F 12

$$$$
=
 OpenBabel11052421233D

 43 47  0  0  1  0  0  0  0  0999 V2000
  192.0590  176.0310  143.3330 C   0  0  1  0  0  3  0  0  0  0  0  0
  196.2050  173.1410  144.9210 C   0  0  1  0  0  3  0  0  0  0  0  0
  194.5220  174.8350  145.5510 C   0  0  1  0  0  3  0  0  0  0  0  0
  195.9660  173.3900  143.4150 C   0  0  0  0  0  2  0  0  0  0  0  0
  197.5120  172.7000  145.1120 O   0  0  0  0  0  1  0  0  0  0  0  0
  194.2530  175.0670  144.1140 C   0  0  0  0  0  0  0  0  0  0  0  0
  195.9650  174.4000  145.7600 C   0  0  0  0  0  2  0  0  0  0  0  0
  194.9050  174.4300  143.1290 C   0  0  0  0  0  3  0  0  0  0  0  0
  193.4530  176.3030  143.9260 C   0  0  2  0  0  3  0  0  0  0  0  0
  193.3200  176.9040  145.2530 N   0  0  0  0  0  2  0  0  0  0  0  0
  194.2380  176.1940  146.1510 C   0  0  0  0  0  2  0  0  0  0  0  0
  191.0740  177.2150  143.4450 C   0  0  1  0  0  3  0  0  0  0  0  0
  191.7920  178.4110  143.5170 O   0  0  0  0  0  1  0  0  0  0  0  0
  190.1980  177.2560  142.2820 N   0  0  0  0  0  2  0  0  0  0  0  0
  186.6840  178.3770  142.9370 C   0  0  0  0  0  0  0  0  0  0  0  0
  185.9710  177.2140  142.6120 C   0  0  0  0  0  0  0  0  0  0  0  0
  184.6280  177.1650  142.7630 F   0  0  0  0  0  0  0  0  0  0  0  0
  188.0550  176.1090  142.0390 C   0  0  0  0  0  3  0  0  0  0  0  0
  188.0770  178.3970  142.8220 C   0  0  0  0  0  3  0  0  0  0  0  0
  188.7730  177.2590  142.3830 C   0  0  0  0  0  0  0  0  0  0  0  0
  185.8500  179.8060  143.5140 Cl  0  0  0  0  0  0  0  0  0  0  0  0
  186.6600  176.0850  142.1540 C   0  0  0  0  0  3  0  0  0  0  0  0
  192.1250  175.3350  142.0980 O   0  0  0  0  0  0  0  0  0  0  0  0
  191.1100  174.3620  141.9680 C   0  0  1  0  0  3  0  0  0  0  0  0
  191.1790  173.7520  140.7090 O   0  0  0  0  0  1  0  0  0  0  0  0
  191.2060  173.2910  143.0700 C   0  0  2  0  0  3  0  0  0  0  0  0
  191.0320  171.9180  142.4390 C   0  0  0  0  0  1  0  0  0  0  0  0
  190.1760  173.4830  144.1480 C   0  0  0  0  0  3  0  0  0  0  0  0
  190.4750  173.8650  145.3930 C   0  0  0  0  0  3  0  0  0  0  0  0
  189.3890  173.9330  146.4320 C   0  0  0  0  0  2  0  0  0  0  0  0
  189.6680  175.0940  147.3950 C   0  0  1  0  0  3  0  0  0  0  0  0
  190.0550  177.3910  146.6450 O   0  0  0  0  0  0  0  0  0  0  0  0
  191.1610  175.2270  147.6950 C   0  0  0  0  0  2  0  0  0  0  0  0
  191.4550  176.5270  148.4520 C   0  0  0  0  0  2  0  0  0  0  0  0
  189.0540  176.4680  146.9970 C   0  0  1  0  0  3  0  0  0  0  0  0
  190.6990  177.7300  147.8500 C   0  0  0  0  0  2  0  0  0  0  0  0
  187.9560  176.4060  145.9300 C   0  0  0  0  0  2  0  0  0  0  0  0
  186.8250  177.4140  146.1670 C   0  0  1  0  0  3  0  0  0  0  0  0
  184.5440  178.7350  147.3000 C   0  0  0  0  0  3  0  0  0  0  0  0
  184.3170  177.6700  146.5130 C   0  0  0  0  0  3  0  0  0  0  0  0
  185.9410  179.2080  147.6360 C   0  0  0  0  0  2  0  0  0  0  0  0
  185.4290  176.7900  145.9860 C   0  0  0  0  0  2  0  0  0  0  0  0
  186.9540  178.0680  147.5400 C   0  0  0  0  0  2  0  0  0  0  0  0
  1 23  1  6  0  0  0
  1 12  1  0  0  0  0
  2  5  1  6  0  0  0
  2  7  1  0  0  0  0
  3  7  1  6  0  0  0
  3 11  1  0  0  0  0
  4  2  1  0  0  0  0
  6  3  1  0  0  0  0
  8  4  1  0  0  0  0
  8  6  2  0  0  0  0
  9  1  1  1  0  0  0
  9  6  1  0  0  0  0
  9 10  1  0  0  0  0
 10 11  1  0  0  0  0
 12 13  1  6  0  0  0
 14 20  1  0  0  0  0
 14 12  1  0  0  0  0
 15 21  1  0  0  0  0
 16 17  1  0  0  0  0
 16 15  2  0  0  0  0
 18 22  2  0  0  0  0
 18 20  1  0  0  0  0
 19 15  1  0  0  0  0
 20 19  2  0  0  0  0
 22 16  1  0  0  0  0
 24 25  1  6  0  0  0
 24 23  1  0  0  0  0
 24 26  1  0  0  0  0
 26 27  1  6  0  0  0
 26 28  1  0  0  0  0
 28 29  2  0  0  0  0
 29 30  1  0  0  0  0
 31 30  1  6  0  0  0
 31 33  1  0  0  0  0
 32 35  1  0  0  0  0
 32 36  1  0  0  0  0
 33 34  1  0  0  0  0
 35 37  1  6  0  0  0
 35 31  1  0  0  0  0
 36 34  1  0  0  0  0
 38 37  1  1  0  0  0
 38 43  1  0  0  0  0
 39 41  1  0  0  0  0
 40 39  2  0  0  0  0
 42 38  1  0  0  0  0
 42 40  1  0  0  0  0
 43 41  1  0  0  0  0
M  END
>  <MODEL>
8

>  <REMARK>
 VINA RESULT:      -6.8      2.460      6.267
  Name = 
  12 active torsions:
  status: ('A' for Active; 'I' for Inactive)
    1  A    between atoms: N_1  and  C_34
    2  A    between atoms: N_1  and  C_35
    3  A    between atoms: C_2  and  C_6
    4  A    between atoms: C_2  and  C_13
    5  A    between atoms: C_3  and  C_4
    6  A    between atoms: C_3  and  C_12
    7  A    between atoms: C_8  and  O_27
    8  A    between atoms: C_8  and  C_30
    9  A    between atoms: C_8  and  C_34
   10  A    between atoms: C_11  and  C_14
   11  A    between atoms: C_13  and  O_27
   12  A    between atoms: C_14  and  C_41
                            x       y       z     vdW  Elec       q    Type
                         _______ _______ _______ _____ _____    ______ ____

>  <TORSDO>
F 12

$$$$
=
 OpenBabel11052421233D

 43 47  0  0  1  0  0  0  0  0999 V2000
  189.9380  175.7240  142.9380 C   0  0  1  0  0  3  0  0  0  0  0  0
  191.7150  170.7330  142.9140 C   0  0  1  0  0  3  0  0  0  0  0  0
  192.3170  173.1260  143.0260 C   0  0  1  0  0  3  0  0  0  0  0  0
  190.3150  171.0590  142.3470 C   0  0  0  0  0  2  0  0  0  0  0  0
  192.1080  169.4740  142.4710 O   0  0  0  0  0  1  0  0  0  0  0  0
  190.9700  173.4640  142.5140 C   0  0  0  0  0  0  0  0  0  0  0  0
  192.7630  171.7700  142.4990 C   0  0  0  0  0  2  0  0  0  0  0  0
  190.0510  172.5400  142.1900 C   0  0  0  0  0  3  0  0  0  0  0  0
  190.9130  174.8860  142.0920 C   0  0  2  0  0  3  0  0  0  0  0  0
  192.2720  175.4050  142.2400 N   0  0  0  0  0  2  0  0  0  0  0  0
  193.1570  174.2590  142.4810 C   0  0  0  0  0  2  0  0  0  0  0  0
  188.6580  176.1620  142.1930 C   0  0  1  0  0  3  0  0  0  0  0  0
  187.6030  175.3180  142.5460 O   0  0  0  0  0  1  0  0  0  0  0  0
  188.3110  177.5310  142.5470 N   0  0  0  0  0  2  0  0  0  0  0  0
  184.6630  178.2660  142.9850 C   0  0  0  0  0  0  0  0  0  0  0  0
  184.6290  178.6340  144.3380 C   0  0  0  0  0  0  0  0  0  0  0  0
  183.4740  179.0400  144.9110 F   0  0  0  0  0  0  0  0  0  0  0  0
  187.0180  178.2330  144.4970 C   0  0  0  0  0  3  0  0  0  0  0  0
  185.8750  177.8940  142.3930 C   0  0  0  0  0  3  0  0  0  0  0  0
  187.0620  177.8870  143.1420 C   0  0  0  0  0  0  0  0  0  0  0  0
  183.2050  178.2910  142.0130 Cl  0  0  0  0  0  0  0  0  0  0  0  0
  185.8070  178.6070  145.0920 C   0  0  0  0  0  3  0  0  0  0  0  0
  189.8000  175.2200  144.2580 O   0  0  0  0  0  0  0  0  0  0  0  0
  190.6340  175.8860  145.1830 C   0  0  1  0  0  3  0  0  0  0  0  0
  189.9280  176.9120  145.8240 O   0  0  0  0  0  1  0  0  0  0  0  0
  191.2060  174.9160  146.2320 C   0  0  2  0  0  3  0  0  0  0  0  0
  190.6720  175.3020  147.6030 C   0  0  0  0  0  1  0  0  0  0  0  0
  192.7080  174.9190  146.2590 C   0  0  0  0  0  3  0  0  0  0  0  0
  193.4420  176.0350  146.3210 C   0  0  0  0  0  3  0  0  0  0  0  0
  194.9410  175.9450  146.2410 C   0  0  0  0  0  2  0  0  0  0  0  0
  195.3570  175.4620  144.8450 C   0  0  1  0  0  3  0  0  0  0  0  0
  197.6670  174.9160  144.2510 O   0  0  0  0  0  0  0  0  0  0  0  0
  195.6820  176.6360  143.9210 C   0  0  0  0  0  2  0  0  0  0  0  0
  196.3280  176.1480  142.6200 C   0  0  0  0  0  2  0  0  0  0  0  0
  196.4850  174.3920  144.8050 C   0  0  1  0  0  3  0  0  0  0  0  0
  197.4040  175.0720  142.8770 C   0  0  0  0  0  2  0  0  0  0  0  0
  196.7630  173.6880  146.1380 C   0  0  0  0  0  2  0  0  0  0  0  0
  196.4210  172.1930  146.1150 C   0  0  1  0  0  3  0  0  0  0  0  0
  195.6490  169.5870  145.1970 C   0  0  0  0  0  3  0  0  0  0  0  0
  194.6710  170.4770  145.4330 C   0  0  0  0  0  3  0  0  0  0  0  0
  197.1130  169.9360  145.3500 C   0  0  0  0  0  2  0  0  0  0  0  0
  194.9470  171.9270  145.7630 C   0  0  0  0  0  2  0  0  0  0  0  0
  197.3510  171.4350  145.1710 C   0  0  0  0  0  2  0  0  0  0  0  0
  1 23  1  1  0  0  0
  2  5  1  6  0  0  0
  3 11  1  6  0  0  0
  4  2  1  0  0  0  0
  6  3  1  0  0  0  0
  7  2  1  0  0  0  0
  7  3  1  0  0  0  0
  8  4  1  0  0  0  0
  8  6  2  0  0  0  0
  9 10  1  0  0  0  0
  9  6  1  0  0  0  0
  9  1  1  1  0  0  0
 10 11  1  0  0  0  0
 12 13  1  1  0  0  0
 12 14  1  0  0  0  0
 12  1  1  0  0  0  0
 14 20  1  0  0  0  0
 15 16  1  0  0  0  0
 16 17  1  0  0  0  0
 16 22  2  0  0  0  0
 18 22  1  0  0  0  0
 19 15  2  0  0  0  0
 19 20  1  0  0  0  0
 20 18  2  0  0  0  0
 21 15  1  0  0  0  0
 23 24  1  0  0  0  0
 24 25  1  1  0  0  0
 24 26  1  0  0  0  0
 26 28  1  0  0  0  0
 26 27  1  1  0  0  0
 28 29  2  0  0  0  0
 30 29  1  0  0  0  0
 31 30  1  1  0  0  0
 32 35  1  0  0  0  0
 33 31  1  0  0  0  0
 34 36  1  0  0  0  0
 34 33  1  0  0  0  0
 35 31  1  0  0  0  0
 35 37  1  1  0  0  0
 36 32  1  0  0  0  0
 38 37  1  6  0  0  0
 39 41  1  0  0  0  0
 39 40  2  0  0  0  0
 40 42  1  0  0  0  0
 42 38  1  0  0  0  0
 43 41  1  0  0  0  0
 43 38  1  0  0  0  0
M  END
>  <MODEL>
9

>  <REMARK>
 VINA RESULT:      -6.6      2.710      4.726
  Name = 
  12 active torsions:
  status: ('A' for Active; 'I' for Inactive)
    1  A    between atoms: N_1  and  C_34
    2  A    between atoms: N_1  and  C_35
    3  A    between atoms: C_2  and  C_6
    4  A    between atoms: C_2  and  C_13
    5  A    between atoms: C_3  and  C_4
    6  A    between atoms: C_3  and  C_12
    7  A    between atoms: C_8  and  O_27
    8  A    between atoms: C_8  and  C_30
    9  A    between atoms: C_8  and  C_34
   10  A    between atoms: C_11  and  C_14
   11  A    between atoms: C_13  and  O_27
   12  A    between atoms: C_14  and  C_41
                            x       y       z     vdW  Elec       q    Type
                         _______ _______ _______ _____ _____    ______ ____

>  <TORSDO>
F 12

$$$$
