=
 OpenBabel11052417283D

 25 27  0  0  1  0  0  0  0  0999 V2000
  187.9680  176.8040  146.8380 C   0  0  1  0  0  3  0  0  0  0  0  0
  188.2060  175.5570  145.9720 C   0  0  1  0  0  3  0  0  0  0  0  0
  190.5260  176.9280  146.9170 C   0  0  0  0  0  2  0  0  0  0  0  0
  190.3480  175.4890  147.3970 C   0  0  0  0  0  2  0  0  0  0  0  0
  189.9770  174.1230  145.2170 C   0  0  0  0  0  0  0  0  0  0  0  0
  189.6360  172.6480  145.1540 C   0  0  0  0  0  1  0  0  0  0  0  0
  188.4670  175.9100  144.6380 O   0  0  0  0  0  0  0  0  0  0  0  0
  189.2060  177.7060  146.9540 C   0  0  0  0  0  2  0  0  0  0  0  0
  191.4980  174.2610  145.1250 C   0  0  0  0  0  1  0  0  0  0  0  0
  189.2080  174.8440  144.1030 C   0  0  1  0  0  3  0  0  0  0  0  0
  189.3730  174.7060  146.4870 C   0  0  2  0  0  3  0  0  0  0  0  0
  186.7410  177.5720  146.4390 C   0  0  0  0  0  0  0  0  0  0  0  0
  184.3650  178.6710  145.2790 C   0  0  0  0  0  2  0  0  0  0  0  0
  185.3930  177.2410  147.0550 C   0  0  1  0  0  3  0  0  0  0  0  0
  184.3240  178.2930  146.7520 C   0  0  0  0  0  2  0  0  0  0  0  0
  185.7090  179.3230  144.9760 C   0  0  0  0  0  2  0  0  0  0  0  0
  184.9610  176.0060  146.6050 F   0  0  0  0  0  0  0  0  0  0  0  0
  186.8570  178.4680  145.4440 C   0  0  0  0  0  3  0  0  0  0  0  0
  190.1690  175.3630  142.6290 S   0  0  0  0  0  0  0  0  0  0  0  0
  189.2550  176.9210  142.3860 C   0  0  0  0  0  2  0  0  0  0  0  0
  188.1630  176.7410  141.3460 C   0  0  1  0  0  3  0  0  0  0  0  0
  188.0730  175.3940  140.9980 O   0  0  0  0  0  1  0  0  0  0  0  0
  186.8500  177.2090  141.8780 C   0  0  0  0  0  0  0  0  0  0  0  0
  186.0700  176.3700  142.6650 O   0  0  0  0  0  1  0  0  0  0  0  0
  186.4520  178.3750  141.6220 O   0  0  0  0  0  0  0  0  0  0  0  0
  1 12  1  6  0  0  0
  1  8  1  0  0  0  0
  2  7  1  6  0  0  0
  2 11  1  0  0  0  0
  2  1  1  0  0  0  0
  3  8  1  0  0  0  0
  3  4  1  0  0  0  0
  5 11  1  0  0  0  0
  6  5  1  0  0  0  0
  9  5  1  0  0  0  0
 10 19  1  6  0  0  0
 10  7  1  0  0  0  0
 10  5  1  0  0  0  0
 11  4  1  6  0  0  0
 12 14  1  0  0  0  0
 13 15  1  0  0  0  0
 14 17  1  6  0  0  0
 15 14  1  0  0  0  0
 16 13  1  0  0  0  0
 16 18  1  0  0  0  0
 18 12  2  0  0  0  0
 20 19  1  0  0  0  0
 21 22  1  1  0  0  0
 21 23  1  0  0  0  0
 21 20  1  0  0  0  0
 23 24  1  0  0  0  0
 25 23  2  0  0  0  0
M  END
>  <MODEL>
1

>  <REMARK>
 VINA RESULT:      -7.3      0.000      0.000
  Name = 
  5 active torsions:
  status: ('A' for Active; 'I' for Inactive)
    1  A    between atoms: C_1  and  C_5
    2  A    between atoms: C_2  and  C_21
    3  A    between atoms: S_6  and  C_15
    4  A    between atoms: S_6  and  C_23
    5  A    between atoms: C_15  and  C_21
                            x       y       z     vdW  Elec       q    Type
                         _______ _______ _______ _____ _____    ______ ____

>  <TORSDO>
F 5

$$$$
=
 OpenBabel11052417283D

 25 27  0  0  1  0  0  0  0  0999 V2000
  187.9150  176.7470  146.6940 C   0  0  1  0  0  3  0  0  0  0  0  0
  188.2750  175.5600  145.7870 C   0  0  1  0  0  3  0  0  0  0  0  0
  190.4330  176.8340  147.1560 C   0  0  0  0  0  2  0  0  0  0  0  0
  190.1840  175.3680  147.5020 C   0  0  0  0  0  2  0  0  0  0  0  0
  190.1350  174.1620  145.2000 C   0  0  0  0  0  0  0  0  0  0  0  0
  189.8050  172.6980  144.9830 C   0  0  0  0  0  1  0  0  0  0  0  0
  188.7300  176.0020  144.5340 O   0  0  0  0  0  0  0  0  0  0  0  0
  189.1240  177.6240  147.0540 C   0  0  0  0  0  2  0  0  0  0  0  0
  191.6540  174.2870  145.3430 C   0  0  0  0  0  1  0  0  0  0  0  0
  189.5400  174.9670  144.0390 C   0  0  1  0  0  3  0  0  0  0  0  0
  189.3520  174.6620  146.4050 C   0  0  2  0  0  3  0  0  0  0  0  0
  186.7610  177.5560  146.1750 C   0  0  0  0  0  0  0  0  0  0  0  0
  184.4990  178.6890  144.8330 C   0  0  0  0  0  2  0  0  0  0  0  0
  185.3820  177.4150  146.7960 C   0  0  1  0  0  3  0  0  0  0  0  0
  184.4080  178.5030  146.3400 C   0  0  0  0  0  2  0  0  0  0  0  0
  185.8960  179.1860  144.4820 C   0  0  0  0  0  2  0  0  0  0  0  0
  184.8550  176.1720  146.4930 F   0  0  0  0  0  0  0  0  0  0  0  0
  186.9640  178.3070  145.0790 C   0  0  0  0  0  3  0  0  0  0  0  0
  190.7090  175.5760  142.7620 S   0  0  0  0  0  0  0  0  0  0  0  0
  190.0770  174.4910  141.4400 C   0  0  0  0  0  2  0  0  0  0  0  0
  188.5590  174.4830  141.4390 C   0  0  1  0  0  3  0  0  0  0  0  0
  188.0920  175.3680  140.4690 O   0  0  0  0  0  1  0  0  0  0  0  0
  188.0430  173.1120  141.1540 C   0  0  0  0  0  0  0  0  0  0  0  0
  188.0870  172.5970  139.8640 O   0  0  0  0  0  0  0  0  0  0  0  0
  187.5750  172.4140  142.0900 O   0  0  0  0  0  1  0  0  0  0  0  0
  1 12  1  6  0  0  0
  1  8  1  0  0  0  0
  2  7  1  6  0  0  0
  2 11  1  0  0  0  0
  2  1  1  0  0  0  0
  3  4  1  0  0  0  0
  5  9  1  0  0  0  0
  5 11  1  0  0  0  0
  6  5  1  0  0  0  0
  8  3  1  0  0  0  0
 10 19  1  1  0  0  0
 10  7  1  0  0  0  0
 10  5  1  0  0  0  0
 11  4  1  1  0  0  0
 12 14  1  0  0  0  0
 13 15  1  0  0  0  0
 14 17  1  6  0  0  0
 15 14  1  0  0  0  0
 16 13  1  0  0  0  0
 16 18  1  0  0  0  0
 18 12  2  0  0  0  0
 20 19  1  0  0  0  0
 21 22  1  6  0  0  0
 21 20  1  0  0  0  0
 23 21  1  0  0  0  0
 23 25  1  0  0  0  0
 24 23  2  0  0  0  0
M  END
>  <MODEL>
2

>  <REMARK>
 VINA RESULT:      -7.2      1.382      1.970
  Name = 
  5 active torsions:
  status: ('A' for Active; 'I' for Inactive)
    1  A    between atoms: C_1  and  C_5
    2  A    between atoms: C_2  and  C_21
    3  A    between atoms: S_6  and  C_15
    4  A    between atoms: S_6  and  C_23
    5  A    between atoms: C_15  and  C_21
                            x       y       z     vdW  Elec       q    Type
                         _______ _______ _______ _____ _____    ______ ____

>  <TORSDO>
F 5

$$$$
=
 OpenBabel11052417283D

 25 27  0  0  1  0  0  0  0  0999 V2000
  186.8600  177.3170  143.5570 C   0  0  1  0  0  3  0  0  0  0  0  0
  188.3000  177.6590  143.9690 C   0  0  1  0  0  3  0  0  0  0  0  0
  187.9530  175.3980  142.2580 C   0  0  0  0  0  2  0  0  0  0  0  0
  188.7690  176.5570  141.6910 C   0  0  0  0  0  2  0  0  0  0  0  0
  190.5690  177.0290  143.5060 C   0  0  0  0  0  0  0  0  0  0  0  0
  191.5660  178.1700  143.4760 C   0  0  0  0  0  1  0  0  0  0  0  0
  188.7210  176.8580  145.0430 O   0  0  0  0  0  0  0  0  0  0  0  0
  186.7090  175.8920  143.0050 C   0  0  0  0  0  2  0  0  0  0  0  0
  191.2290  175.8070  142.8630 C   0  0  0  0  0  1  0  0  0  0  0  0
  190.1220  176.8180  144.9570 C   0  0  1  0  0  3  0  0  0  0  0  0
  189.2920  177.4840  142.8140 C   0  0  2  0  0  3  0  0  0  0  0  0
  185.8520  177.6210  144.6280 C   0  0  0  0  0  0  0  0  0  0  0  0
  184.3580  178.4000  146.9440 C   0  0  0  0  0  2  0  0  0  0  0  0
  185.0750  178.9260  144.6060 C   0  0  1  0  0  3  0  0  0  0  0  0
  183.9080  178.9430  145.5950 C   0  0  0  0  0  2  0  0  0  0  0  0
  184.7610  176.9400  146.7770 C   0  0  0  0  0  2  0  0  0  0  0  0
  185.9240  179.9830  144.8800 F   0  0  0  0  0  0  0  0  0  0  0  0
  185.7540  176.7630  145.6580 C   0  0  0  0  0  3  0  0  0  0  0  0
  190.8100  175.3620  145.8360 S   0  0  0  0  0  0  0  0  0  0  0  0
  192.1210  176.2980  146.6910 C   0  0  0  0  0  2  0  0  0  0  0  0
  193.4830  175.6930  146.4000 C   0  0  1  0  0  3  0  0  0  0  0  0
  193.3170  174.4350  145.8240 O   0  0  0  0  0  1  0  0  0  0  0  0
  194.2580  176.5690  145.4740 C   0  0  0  0  0  0  0  0  0  0  0  0
  194.7820  177.7770  145.9210 O   0  0  0  0  0  1  0  0  0  0  0  0
  194.4460  176.2090  144.2830 O   0  0  0  0  0  0  0  0  0  0  0  0
  1  2  1  0  0  0  0
  1 12  1  1  0  0  0
  2  7  1  1  0  0  0
  3  8  1  0  0  0  0
  4  3  1  0  0  0  0
  5 10  1  0  0  0  0
  6  5  1  0  0  0  0
  8  1  1  0  0  0  0
  9  5  1  0  0  0  0
 10  7  1  0  0  0  0
 10 19  1  6  0  0  0
 11  4  1  6  0  0  0
 11  5  1  0  0  0  0
 11  2  1  0  0  0  0
 12 18  2  0  0  0  0
 14 12  1  0  0  0  0
 14 17  1  1  0  0  0
 14 15  1  0  0  0  0
 15 13  1  0  0  0  0
 16 13  1  0  0  0  0
 18 16  1  0  0  0  0
 19 20  1  0  0  0  0
 21 22  1  6  0  0  0
 21 20  1  0  0  0  0
 23 24  1  0  0  0  0
 23 21  1  0  0  0  0
 25 23  2  0  0  0  0
M  END
>  <MODEL>
3

>  <REMARK>
 VINA RESULT:      -7.1      2.854      5.001
  Name = 
  5 active torsions:
  status: ('A' for Active; 'I' for Inactive)
    1  A    between atoms: C_1  and  C_5
    2  A    between atoms: C_2  and  C_21
    3  A    between atoms: S_6  and  C_15
    4  A    between atoms: S_6  and  C_23
    5  A    between atoms: C_15  and  C_21
                            x       y       z     vdW  Elec       q    Type
                         _______ _______ _______ _____ _____    ______ ____

>  <TORSDO>
F 5

$$$$
=
 OpenBabel11052417283D

 25 27  0  0  1  0  0  0  0  0999 V2000
  188.6850  177.7300  144.8500 C   0  0  1  0  0  3  0  0  0  0  0  0
  189.5260  176.6120  145.4850 C   0  0  1  0  0  3  0  0  0  0  0  0
  190.3140  177.4970  142.8870 C   0  0  0  0  0  2  0  0  0  0  0  0
  191.3300  177.7020  144.0080 C   0  0  0  0  0  2  0  0  0  0  0  0
  191.5420  175.3630  145.1220 C   0  0  0  0  0  0  0  0  0  0  0  0
  192.3490  175.0550  146.3680 C   0  0  0  0  0  1  0  0  0  0  0  0
  189.1360  175.3520  145.0040 O   0  0  0  0  0  0  0  0  0  0  0  0
  188.8940  177.8600  143.3330 C   0  0  0  0  0  2  0  0  0  0  0  0
  192.4340  175.1020  143.9050 C   0  0  0  0  0  1  0  0  0  0  0  0
  190.2600  174.5240  145.1590 C   0  0  1  0  0  3  0  0  0  0  0  0
  191.0250  176.7910  145.2210 C   0  0  2  0  0  3  0  0  0  0  0  0
  187.2310  177.6560  145.2190 C   0  0  0  0  0  0  0  0  0  0  0  0
  184.5610  177.9690  146.2060 C   0  0  0  0  0  2  0  0  0  0  0  0
  186.1770  178.2830  144.3230 C   0  0  1  0  0  3  0  0  0  0  0  0
  184.7520  177.8720  144.6990 C   0  0  0  0  0  2  0  0  0  0  0  0
  185.4910  176.9720  146.8850 C   0  0  0  0  0  2  0  0  0  0  0  0
  186.2830  179.6610  144.3650 F   0  0  0  0  0  0  0  0  0  0  0  0
  186.9130  177.1300  146.4140 C   0  0  0  0  0  3  0  0  0  0  0  0
  190.1840  173.0680  144.0440 S   0  0  0  0  0  0  0  0  0  0  0  0
  188.9720  173.8080  142.9010 C   0  0  0  0  0  2  0  0  0  0  0  0
  189.6300  174.1500  141.5760 C   0  0  1  0  0  3  0  0  0  0  0  0
  190.3700  173.0560  141.1300 O   0  0  0  0  0  1  0  0  0  0  0  0
  188.6000  174.5050  140.5560 C   0  0  0  0  0  0  0  0  0  0  0  0
  187.9110  175.7100  140.6420 O   0  0  0  0  0  1  0  0  0  0  0  0
  188.3610  173.7150  139.6080 O   0  0  0  0  0  0  0  0  0  0  0  0
  1 12  1  6  0  0  0
  1  2  1  0  0  0  0
  2  7  1  6  0  0  0
  3  8  1  0  0  0  0
  3  4  1  0  0  0  0
  5 10  1  0  0  0  0
  5 11  1  0  0  0  0
  5  6  1  0  0  0  0
  7 10  1  0  0  0  0
  8  1  1  0  0  0  0
  9  5  1  0  0  0  0
 10 19  1  6  0  0  0
 11  4  1  6  0  0  0
 11  2  1  0  0  0  0
 12 18  2  0  0  0  0
 13 16  1  0  0  0  0
 14 17  1  1  0  0  0
 14 15  1  0  0  0  0
 14 12  1  0  0  0  0
 15 13  1  0  0  0  0
 18 16  1  0  0  0  0
 20 19  1  0  0  0  0
 21 22  1  6  0  0  0
 21 20  1  0  0  0  0
 23 24  1  0  0  0  0
 23 21  1  0  0  0  0
 25 23  2  0  0  0  0
M  END
>  <MODEL>
4

>  <REMARK>
 VINA RESULT:      -6.9      1.930      2.997
  Name = 
  5 active torsions:
  status: ('A' for Active; 'I' for Inactive)
    1  A    between atoms: C_1  and  C_5
    2  A    between atoms: C_2  and  C_21
    3  A    between atoms: S_6  and  C_15
    4  A    between atoms: S_6  and  C_23
    5  A    between atoms: C_15  and  C_21
                            x       y       z     vdW  Elec       q    Type
                         _______ _______ _______ _____ _____    ______ ____

>  <TORSDO>
F 5

$$$$
=
 OpenBabel11052417283D

 25 27  0  0  1  0  0  0  0  0999 V2000
  189.9630  177.1570  145.6020 C   0  0  1  0  0  3  0  0  0  0  0  0
  189.4600  177.2100  144.1510 C   0  0  1  0  0  3  0  0  0  0  0  0
  187.5480  176.5000  146.1490 C   0  0  0  0  0  2  0  0  0  0  0  0
  187.2680  177.7840  145.3720 C   0  0  0  0  0  2  0  0  0  0  0  0
  187.4310  177.0750  142.8760 C   0  0  0  0  0  0  0  0  0  0  0  0
  187.3450  178.0150  141.6900 C   0  0  0  0  0  1  0  0  0  0  0  0
  189.4290  175.9270  143.5800 O   0  0  0  0  0  0  0  0  0  0  0  0
  189.0250  176.3830  146.5400 C   0  0  0  0  0  2  0  0  0  0  0  0
  186.0250  176.5400  143.1580 C   0  0  0  0  0  1  0  0  0  0  0  0
  188.4680  175.9920  142.5580 C   0  0  1  0  0  3  0  0  0  0  0  0
  188.0600  177.8230  144.0430 C   0  0  2  0  0  3  0  0  0  0  0  0
  191.3880  176.6960  145.7150 C   0  0  0  0  0  0  0  0  0  0  0  0
  194.1870  176.3010  146.1700 C   0  0  0  0  0  2  0  0  0  0  0  0
  191.8370  175.8720  146.9090 C   0  0  1  0  0  3  0  0  0  0  0  0
  193.2260  175.2590  146.7230 C   0  0  0  0  0  2  0  0  0  0  0  0
  193.7120  176.7220  144.7840 C   0  0  0  0  0  2  0  0  0  0  0  0
  191.8290  176.6540  148.0500 F   0  0  0  0  0  0  0  0  0  0  0  0
  192.2640  177.1370  144.7970 C   0  0  0  0  0  3  0  0  0  0  0  0
  187.8280  174.3260  142.1290 S   0  0  0  0  0  0  0  0  0  0  0  0
  189.4550  173.5080  142.2030 C   0  0  0  0  0  2  0  0  0  0  0  0
  189.3770  172.2430  143.0390 C   0  0  1  0  0  3  0  0  0  0  0  0
  189.9020  171.1750  142.3130 O   0  0  0  0  0  1  0  0  0  0  0  0
  190.1410  172.4070  144.3100 C   0  0  0  0  0  0  0  0  0  0  0  0
  189.5960  173.1200  145.3720 O   0  0  0  0  0  1  0  0  0  0  0  0
  191.2820  171.8900  144.4240 O   0  0  0  0  0  0  0  0  0  0  0  0
  1 12  1  6  0  0  0
  1  8  1  0  0  0  0
  2  7  1  1  0  0  0
  2  1  1  0  0  0  0
  3  8  1  0  0  0  0
  4  3  1  0  0  0  0
  5  9  1  0  0  0  0
  5 11  1  0  0  0  0
  6  5  1  0  0  0  0
 10 19  1  1  0  0  0
 10  5  1  0  0  0  0
 10  7  1  0  0  0  0
 11  2  1  0  0  0  0
 11  4  1  1  0  0  0
 12 14  1  0  0  0  0
 13 15  1  0  0  0  0
 14 17  1  1  0  0  0
 15 14  1  0  0  0  0
 16 18  1  0  0  0  0
 16 13  1  0  0  0  0
 18 12  2  0  0  0  0
 19 20  1  0  0  0  0
 20 21  1  0  0  0  0
 21 22  1  6  0  0  0
 21 23  1  0  0  0  0
 23 25  2  0  0  0  0
 23 24  1  0  0  0  0
M  END
>  <MODEL>
5

>  <REMARK>
 VINA RESULT:      -6.6      2.737      5.629
  Name = 
  5 active torsions:
  status: ('A' for Active; 'I' for Inactive)
    1  A    between atoms: C_1  and  C_5
    2  A    between atoms: C_2  and  C_21
    3  A    between atoms: S_6  and  C_15
    4  A    between atoms: S_6  and  C_23
    5  A    between atoms: C_15  and  C_21
                            x       y       z     vdW  Elec       q    Type
                         _______ _______ _______ _____ _____    ______ ____

>  <TORSDO>
F 5

$$$$
=
 OpenBabel11052417283D

 25 27  0  0  1  0  0  0  0  0999 V2000
  187.9000  176.6670  146.6960 C   0  0  1  0  0  3  0  0  0  0  0  0
  188.2190  175.4260  145.8470 C   0  0  1  0  0  3  0  0  0  0  0  0
  190.4310  176.7350  147.0920 C   0  0  0  0  0  2  0  0  0  0  0  0
  190.1670  175.2940  147.5230 C   0  0  0  0  0  2  0  0  0  0  0  0
  190.0400  173.9660  145.2920 C   0  0  0  0  0  0  0  0  0  0  0  0
  189.6810  172.4990  145.1640 C   0  0  0  0  0  1  0  0  0  0  0  0
  188.6480  175.7920  144.5610 O   0  0  0  0  0  0  0  0  0  0  0  0
  189.1320  177.5410  146.9790 C   0  0  0  0  0  2  0  0  0  0  0  0
  191.5640  174.0730  145.3900 C   0  0  0  0  0  1  0  0  0  0  0  0
  189.4290  174.7170  144.1040 C   0  0  1  0  0  3  0  0  0  0  0  0
  189.2960  174.5450  146.4870 C   0  0  2  0  0  3  0  0  0  0  0  0
  186.7460  177.4660  146.1630 C   0  0  0  0  0  0  0  0  0  0  0  0
  184.4820  178.5730  144.8020 C   0  0  0  0  0  2  0  0  0  0  0  0
  185.3700  177.3460  146.7930 C   0  0  1  0  0  3  0  0  0  0  0  0
  184.3980  178.4260  146.3150 C   0  0  0  0  0  2  0  0  0  0  0  0
  185.8790  179.0560  144.4330 C   0  0  0  0  0  2  0  0  0  0  0  0
  184.8380  176.0980  146.5250 F   0  0  0  0  0  0  0  0  0  0  0  0
  186.9470  178.1880  145.0470 C   0  0  0  0  0  3  0  0  0  0  0  0
  190.5740  175.2360  142.7670 S   0  0  0  0  0  0  0  0  0  0  0  0
  190.3480  177.0230  143.0500 C   0  0  0  0  0  2  0  0  0  0  0  0
  191.6760  177.7510  142.9450 C   0  0  1  0  0  3  0  0  0  0  0  0
  191.5540  179.0210  143.5050 O   0  0  0  0  0  1  0  0  0  0  0  0
  192.7470  176.9920  143.6540 C   0  0  0  0  0  0  0  0  0  0  0  0
  193.6150  176.1700  142.9450 O   0  0  0  0  0  0  0  0  0  0  0  0
  192.8710  177.1040  144.9010 O   0  0  0  0  0  1  0  0  0  0  0  0
  1 12  1  6  0  0  0
  1  8  1  0  0  0  0
  2  7  1  6  0  0  0
  2 11  1  0  0  0  0
  2  1  1  0  0  0  0
  3  4  1  0  0  0  0
  5  9  1  0  0  0  0
  5 11  1  0  0  0  0
  6  5  1  0  0  0  0
  8  3  1  0  0  0  0
 10 19  1  6  0  0  0
 10  7  1  0  0  0  0
 10  5  1  0  0  0  0
 11  4  1  1  0  0  0
 12 14  1  0  0  0  0
 13 15  1  0  0  0  0
 14 17  1  6  0  0  0
 15 14  1  0  0  0  0
 16 13  1  0  0  0  0
 16 18  1  0  0  0  0
 18 12  2  0  0  0  0
 19 20  1  0  0  0  0
 21 20  1  0  0  0  0
 21 22  1  1  0  0  0
 21 23  1  0  0  0  0
 23 25  1  0  0  0  0
 24 23  2  0  0  0  0
M  END
>  <MODEL>
6

>  <REMARK>
 VINA RESULT:      -6.6      1.925      2.827
  Name = 
  5 active torsions:
  status: ('A' for Active; 'I' for Inactive)
    1  A    between atoms: C_1  and  C_5
    2  A    between atoms: C_2  and  C_21
    3  A    between atoms: S_6  and  C_15
    4  A    between atoms: S_6  and  C_23
    5  A    between atoms: C_15  and  C_21
                            x       y       z     vdW  Elec       q    Type
                         _______ _______ _______ _____ _____    ______ ____

>  <TORSDO>
F 5

$$$$
=
 OpenBabel11052417283D

 25 27  0  0  1  0  0  0  0  0999 V2000
  189.3660  177.5420  145.1590 C   0  0  1  0  0  3  0  0  0  0  0  0
  190.1640  176.2960  145.5710 C   0  0  1  0  0  3  0  0  0  0  0  0
  190.9470  177.5790  143.1430 C   0  0  0  0  0  2  0  0  0  0  0  0
  191.9910  177.5440  144.2570 C   0  0  0  0  0  2  0  0  0  0  0  0
  192.1120  175.0400  144.9480 C   0  0  0  0  0  0  0  0  0  0  0  0
  192.9250  174.4880  146.1010 C   0  0  0  0  0  1  0  0  0  0  0  0
  189.7060  175.1550  144.8910 O   0  0  0  0  0  0  0  0  0  0  0  0
  189.5540  177.9210  143.6820 C   0  0  0  0  0  2  0  0  0  0  0  0
  192.9680  174.9540  143.6820 C   0  0  0  0  0  1  0  0  0  0  0  0
  190.7920  174.2650  144.8730 C   0  0  1  0  0  3  0  0  0  0  0  0
  191.6640  176.4510  145.3030 C   0  0  2  0  0  3  0  0  0  0  0  0
  187.9170  177.4690  145.5470 C   0  0  0  0  0  0  0  0  0  0  0  0
  185.1900  176.8120  146.1240 C   0  0  0  0  0  2  0  0  0  0  0  0
  187.5180  177.1440  146.9750 C   0  0  1  0  0  3  0  0  0  0  0  0
  186.0340  177.3890  147.2510 C   0  0  0  0  0  2  0  0  0  0  0  0
  185.5170  177.5560  144.8350 C   0  0  0  0  0  2  0  0  0  0  0  0
  187.8270  175.8270  147.2620 F   0  0  0  0  0  0  0  0  0  0  0  0
  187.0000  177.5810  144.5700 C   0  0  0  0  0  3  0  0  0  0  0  0
  190.6270  173.0280  143.5280 S   0  0  0  0  0  0  0  0  0  0  0  0
  189.3380  173.9470  142.6250 C   0  0  0  0  0  2  0  0  0  0  0  0
  188.6950  173.0640  141.5700 C   0  0  1  0  0  3  0  0  0  0  0  0
  187.4370  172.6570  142.0120 O   0  0  0  0  0  1  0  0  0  0  0  0
  188.5570  173.8030  140.2810 C   0  0  0  0  0  0  0  0  0  0  0  0
  188.1920  175.1440  140.2740 O   0  0  0  0  0  1  0  0  0  0  0  0
  188.7840  173.2110  139.1950 O   0  0  0  0  0  0  0  0  0  0  0  0
  1 12  1  6  0  0  0
  1  2  1  0  0  0  0
  2  7  1  6  0  0  0
  3  8  1  0  0  0  0
  3  4  1  0  0  0  0
  5 11  1  0  0  0  0
  5  6  1  0  0  0  0
  8  1  1  0  0  0  0
  9  5  1  0  0  0  0
 10 19  1  6  0  0  0
 10  7  1  0  0  0  0
 10  5  1  0  0  0  0
 11  4  1  6  0  0  0
 11  2  1  0  0  0  0
 12 14  1  0  0  0  0
 13 15  1  0  0  0  0
 14 15  1  0  0  0  0
 14 17  1  6  0  0  0
 16 13  1  0  0  0  0
 18 16  1  0  0  0  0
 18 12  2  0  0  0  0
 20 19  1  0  0  0  0
 21 22  1  1  0  0  0
 21 20  1  0  0  0  0
 23 21  1  0  0  0  0
 24 23  1  0  0  0  0
 25 23  2  0  0  0  0
M  END
>  <MODEL>
7

>  <REMARK>
 VINA RESULT:      -6.5      2.024      3.013
  Name = 
  5 active torsions:
  status: ('A' for Active; 'I' for Inactive)
    1  A    between atoms: C_1  and  C_5
    2  A    between atoms: C_2  and  C_21
    3  A    between atoms: S_6  and  C_15
    4  A    between atoms: S_6  and  C_23
    5  A    between atoms: C_15  and  C_21
                            x       y       z     vdW  Elec       q    Type
                         _______ _______ _______ _____ _____    ______ ____

>  <TORSDO>
F 5

$$$$
=
 OpenBabel11052417283D

 25 27  0  0  1  0  0  0  0  0999 V2000
  187.7270  176.3460  145.3350 C   0  0  1  0  0  3  0  0  0  0  0  0
  188.8640  175.5560  144.6700 C   0  0  1  0  0  3  0  0  0  0  0  0
  189.3640  176.5710  147.2930 C   0  0  0  0  0  2  0  0  0  0  0  0
  189.3930  175.0520  147.1380 C   0  0  0  0  0  2  0  0  0  0  0  0
  191.0270  174.6370  145.1590 C   0  0  0  0  0  0  0  0  0  0  0  0
  191.3170  173.2890  144.5290 C   0  0  0  0  0  1  0  0  0  0  0  0
  189.8080  176.4200  144.0910 O   0  0  0  0  0  0  0  0  0  0  0  0
  188.1940  177.1970  146.5260 C   0  0  0  0  0  2  0  0  0  0  0  0
  192.0720  174.8840  146.2500 C   0  0  0  0  0  1  0  0  0  0  0  0
  191.0090  175.6930  144.0480 C   0  0  1  0  0  3  0  0  0  0  0  0
  189.5890  174.6380  145.6600 C   0  0  2  0  0  3  0  0  0  0  0  0
  186.9100  177.1400  144.3550 C   0  0  0  0  0  0  0  0  0  0  0  0
  184.9290  178.3950  142.7120 C   0  0  0  0  0  2  0  0  0  0  0  0
  186.4280  178.5360  144.7090 C   0  0  1  0  0  3  0  0  0  0  0  0
  185.8630  179.2950  143.5070 C   0  0  0  0  0  2  0  0  0  0  0  0
  185.7320  177.2290  142.1480 C   0  0  0  0  0  2  0  0  0  0  0  0
  185.4650  178.4640  145.7000 F   0  0  0  0  0  0  0  0  0  0  0  0
  186.5250  176.5310  143.2210 C   0  0  0  0  0  3  0  0  0  0  0  0
  192.4650  176.8040  143.9320 S   0  0  0  0  0  0  0  0  0  0  0  0
  193.2920  175.8430  142.6220 C   0  0  0  0  0  2  0  0  0  0  0  0
  194.3600  174.9420  143.2160 C   0  0  1  0  0  3  0  0  0  0  0  0
  195.0010  174.2470  142.1920 O   0  0  0  0  0  1  0  0  0  0  0  0
  195.3600  175.7470  143.9770 C   0  0  0  0  0  0  0  0  0  0  0  0
  195.5320  175.5470  145.3420 O   0  0  0  0  0  1  0  0  0  0  0  0
  196.0580  176.6050  143.3770 O   0  0  0  0  0  0  0  0  0  0  0  0
  1 12  1  6  0  0  0
  1  8  1  0  0  0  0
  2  7  1  1  0  0  0
  2  1  1  0  0  0  0
  2 11  1  0  0  0  0
  4  3  1  0  0  0  0
  5 11  1  0  0  0  0
  5  9  1  0  0  0  0
  6  5  1  0  0  0  0
  8  3  1  0  0  0  0
 10 19  1  1  0  0  0
 10  7  1  0  0  0  0
 10  5  1  0  0  0  0
 11  4  1  1  0  0  0
 12 14  1  0  0  0  0
 13 15  1  0  0  0  0
 14 17  1  1  0  0  0
 15 14  1  0  0  0  0
 16 13  1  0  0  0  0
 16 18  1  0  0  0  0
 18 12  2  0  0  0  0
 20 21  1  0  0  0  0
 20 19  1  0  0  0  0
 21 22  1  6  0  0  0
 21 23  1  0  0  0  0
 23 24  1  0  0  0  0
 25 23  2  0  0  0  0
M  END
>  <MODEL>
8

>  <REMARK>
 VINA RESULT:      -6.5      3.161      4.392
  Name = 
  5 active torsions:
  status: ('A' for Active; 'I' for Inactive)
    1  A    between atoms: C_1  and  C_5
    2  A    between atoms: C_2  and  C_21
    3  A    between atoms: S_6  and  C_15
    4  A    between atoms: S_6  and  C_23
    5  A    between atoms: C_15  and  C_21
                            x       y       z     vdW  Elec       q    Type
                         _______ _______ _______ _____ _____    ______ ____

>  <TORSDO>
F 5

$$$$
=
 OpenBabel11052417283D

 25 27  0  0  1  0  0  0  0  0999 V2000
  189.8700  177.0670  145.8190 C   0  0  1  0  0  3  0  0  0  0  0  0
  189.2840  177.3040  144.4190 C   0  0  1  0  0  3  0  0  0  0  0  0
  187.4970  176.3020  146.4080 C   0  0  0  0  0  2  0  0  0  0  0  0
  187.1610  177.6730  145.8250 C   0  0  0  0  0  2  0  0  0  0  0  0
  187.1870  177.3030  143.2520 C   0  0  0  0  0  0  0  0  0  0  0  0
  187.0240  178.3910  142.2080 C   0  0  0  0  0  1  0  0  0  0  0  0
  189.2340  176.1070  143.6840 O   0  0  0  0  0  0  0  0  0  0  0  0
  188.9950  176.1600  146.6970 C   0  0  0  0  0  2  0  0  0  0  0  0
  185.8040  176.7120  143.5380 C   0  0  0  0  0  1  0  0  0  0  0  0
  188.2140  176.2900  142.7360 C   0  0  1  0  0  3  0  0  0  0  0  0
  187.8740  177.9010  144.4710 C   0  0  2  0  0  3  0  0  0  0  0  0
  191.3030  176.6200  145.7920 C   0  0  0  0  0  0  0  0  0  0  0  0
  194.1340  176.2390  145.9950 C   0  0  0  0  0  2  0  0  0  0  0  0
  191.8560  175.7380  146.8970 C   0  0  1  0  0  3  0  0  0  0  0  0
  193.2300  175.1550  146.5660 C   0  0  0  0  0  2  0  0  0  0  0  0
  193.5440  176.7280  144.6780 C   0  0  0  0  0  2  0  0  0  0  0  0
  191.9350  176.4570  148.0770 F   0  0  0  0  0  0  0  0  0  0  0  0
  192.0980  177.1230  144.8310 C   0  0  0  0  0  3  0  0  0  0  0  0
  187.5670  174.6850  142.1250 S   0  0  0  0  0  0  0  0  0  0  0  0
  188.4960  174.7270  140.5570 C   0  0  0  0  0  2  0  0  0  0  0  0
  189.6030  173.6880  140.5660 C   0  0  1  0  0  3  0  0  0  0  0  0
  189.8210  173.2560  141.8730 O   0  0  0  0  0  1  0  0  0  0  0  0
  189.2350  172.5230  139.7100 C   0  0  0  0  0  0  0  0  0  0  0  0
  187.9850  172.4610  139.1050 O   0  0  0  0  0  0  0  0  0  0  0  0
  190.0640  171.5950  139.5260 O   0  0  0  0  0  1  0  0  0  0  0  0
  1 12  1  6  0  0  0
  1  8  1  0  0  0  0
  2  7  1  1  0  0  0
  2 11  1  0  0  0  0
  2  1  1  0  0  0  0
  3  8  1  0  0  0  0
  4  3  1  0  0  0  0
  5  9  1  0  0  0  0
  5 11  1  0  0  0  0
  6  5  1  0  0  0  0
 10 19  1  1  0  0  0
 10  5  1  0  0  0  0
 10  7  1  0  0  0  0
 11  4  1  1  0  0  0
 12 14  1  0  0  0  0
 13 15  1  0  0  0  0
 14 17  1  1  0  0  0
 15 14  1  0  0  0  0
 16 18  1  0  0  0  0
 16 13  1  0  0  0  0
 18 12  2  0  0  0  0
 20 21  1  0  0  0  0
 20 19  1  0  0  0  0
 21 22  1  1  0  0  0
 23 21  1  0  0  0  0
 24 23  2  0  0  0  0
 25 23  1  0  0  0  0
M  END
>  <MODEL>
9

>  <REMARK>
 VINA RESULT:      -6.4      2.822      5.460
  Name = 
  5 active torsions:
  status: ('A' for Active; 'I' for Inactive)
    1  A    between atoms: C_1  and  C_5
    2  A    between atoms: C_2  and  C_21
    3  A    between atoms: S_6  and  C_15
    4  A    between atoms: S_6  and  C_23
    5  A    between atoms: C_15  and  C_21
                            x       y       z     vdW  Elec       q    Type
                         _______ _______ _______ _____ _____    ______ ____

>  <TORSDO>
F 5

$$$$
