=
 OpenBabel11052419593D

 37 44  0  0  1  0  0  0  0  0999 V2000
  189.3040  175.1870  145.7070 C   0  0  1  0  0  3  0  0  0  0  0  0
  191.8170  174.7570  143.0500 C   0  0  0  0  0  2  0  0  0  0  0  0
  187.9490  175.7310  145.7580 C   0  0  2  0  0  3  0  0  0  0  0  0
  189.9830  175.5760  144.6410 C   0  0  2  0  0  3  0  0  0  0  0  0
  188.0720  176.9490  144.8480 C   0  0  1  0  0  3  0  0  0  0  0  0
  191.4220  175.3010  144.4000 C   0  0  0  0  0  0  0  0  0  0  0  0
  187.7710  176.0490  147.2290 C   0  0  0  0  0  2  0  0  0  0  0  0
  190.9640  175.7630  147.4300 C   0  0  0  0  0  3  0  0  0  0  0  0
  188.6920  175.0650  147.9570 C   0  0  0  0  0  2  0  0  0  0  0  0
  191.0570  175.3550  141.8660 C   0  0  0  0  0  2  0  0  0  0  0  0
  189.8730  174.8150  147.0260 C   0  0  1  0  0  3  0  0  0  0  0  0
  189.1760  176.5450  143.8290 C   0  0  2  0  0  3  0  0  0  0  0  0
  192.3660  175.4620  145.3670 C   0  0  0  0  0  0  0  0  0  0  0  0
  189.5810  174.9340  141.8170 C   0  0  2  0  0  3  0  0  0  0  0  0
  188.6250  175.9020  142.5320 C   0  0  2  0  0  3  0  0  0  0  0  0
  192.0580  176.0130  146.7080 C   0  0  0  0  0  3  0  0  0  0  0  0
  194.4400  174.0660  145.6020 C   0  0  0  0  0  3  0  0  0  0  0  0
  193.8030  175.2130  145.1010 C   0  0  0  0  0  0  0  0  0  0  0  0
  194.5590  176.1580  144.3920 C   0  0  0  0  0  3  0  0  0  0  0  0
  196.6780  176.9080  143.4360 N   0  0  0  0  0  1  0  0  0  0  0  0
  196.5440  174.7960  144.6540 C   0  0  0  0  0  3  0  0  0  0  0  0
  195.9230  175.9490  144.1650 C   0  0  0  0  0  0  0  0  0  0  0  0
  195.8040  173.8570  145.3750 C   0  0  0  0  0  3  0  0  0  0  0  0
  189.6560  172.5860  141.0790 C   0  0  1  0  0  3  0  0  0  0  0  0
  188.3290  172.9460  141.3680 O   0  0  0  0  0  0  0  0  0  0  0  0
  189.3220  173.4820  142.2060 C   0  0  2  0  0  3  0  0  0  0  0  0
  189.9170  171.1890  141.6000 C   0  0  0  0  0  1  0  0  0  0  0  0
  186.7390  177.4280  144.2500 C   0  0  2  0  0  3  0  0  0  0  0  0
  186.8170  178.7870  143.9330 O   0  0  0  0  0  1  0  0  0  0  0  0
  185.5430  177.1880  145.1730 C   0  0  0  0  0  2  0  0  0  0  0  0
  184.9640  178.4900  145.7060 C   0  0  1  0  0  3  0  0  0  0  0  0
  184.4200  178.2740  147.0640 C   0  0  0  0  0  2  0  0  0  0  0  0
  185.6790  178.8640  146.8590 O   0  0  0  0  0  0  0  0  0  0  0  0
  188.2220  176.9900  141.5450 C   0  0  0  0  0  2  0  0  0  0  0  0
  186.9480  176.6070  140.8110 C   0  0  0  0  0  3  0  0  0  0  0  0
  186.8980  177.3450  139.4900 C   0  0  0  0  0  2  0  0  0  0  0  0
  186.0660  177.8290  140.6590 C   0  0  0  0  0  2  0  0  0  0  0  0
  1  3  1  0  0  0  0
  1 11  1  0  0  0  0
  2  6  1  0  0  0  0
  3  7  1  0  0  0  0
  4  1  1  0  0  0  0
  5  3  1  0  0  0  0
  6  4  1  0  0  0  0
  6 13  2  0  0  0  0
  7  9  1  0  0  0  0
 10  2  1  0  0  0  0
 11  8  1  0  0  0  0
 11  9  1  0  0  0  0
 12  4  1  0  0  0  0
 12  5  1  0  0  0  0
 13 16  1  0  0  0  0
 14 10  1  0  0  0  0
 14 26  1  0  0  0  0
 14 15  1  0  0  0  0
 15 12  1  0  0  0  0
 16  8  2  0  0  0  0
 18 13  1  0  0  0  0
 18 17  2  0  0  0  0
 19 18  1  0  0  0  0
 20 22  1  0  0  0  0
 21 23  2  0  0  0  0
 22 19  2  0  0  0  0
 22 21  1  0  0  0  0
 23 17  1  0  0  0  0
 24 25  1  0  0  0  0
 24 27  1  0  0  0  0
 24 26  1  0  0  0  0
 25 26  1  0  0  0  0
 28  5  1  0  0  0  0
 28 30  1  0  0  0  0
 29 28  1  0  0  0  0
 30 31  1  0  0  0  0
 31 33  1  0  0  0  0
 31 32  1  0  0  0  0
 33 32  1  0  0  0  0
 34 15  1  0  0  0  0
 35 34  1  0  0  0  0
 36 37  1  0  0  0  0
 36 35  1  0  0  0  0
 37 35  1  0  0  0  0
M  END
>  <MODEL>
1

>  <REMARK>
 VINA RESULT:      -7.6      0.000      0.000
  Name = 
  7 active torsions:
  status: ('A' for Active; 'I' for Inactive)
    1  A    between atoms: C_1  and  C_5
    2  A    between atoms: C_1  and  C_36
    3  A    between atoms: C_3  and  C_30
    4  A    between atoms: C_6  and  C_31
    5  A    between atoms: C_13  and  C_20
    6  A    between atoms: C_20  and  C_30
    7  A    between atoms: C_26  and  C_33
                            x       y       z     vdW  Elec       q    Type
                         _______ _______ _______ _____ _____    ______ ____

>  <TORSDO>
F 7

$$$$
=
 OpenBabel11052419593D

 37 44  0  0  1  0  0  0  0  0999 V2000
  191.1390  175.2970  145.9010 C   0  0  1  0  0  3  0  0  0  0  0  0
  193.0470  174.6580  142.8170 C   0  0  0  0  0  2  0  0  0  0  0  0
  189.7800  175.7500  146.1900 C   0  0  2  0  0  3  0  0  0  0  0  0
  191.5290  175.5730  144.6680 C   0  0  2  0  0  3  0  0  0  0  0  0
  189.5830  176.8290  145.1310 C   0  0  1  0  0  3  0  0  0  0  0  0
  192.9020  175.3640  144.1420 C   0  0  0  0  0  0  0  0  0  0  0  0
  189.8950  176.2650  147.6110 C   0  0  0  0  0  2  0  0  0  0  0  0
  193.0680  176.2280  147.1130 C   0  0  0  0  0  3  0  0  0  0  0  0
  191.0440  175.4620  148.2280 C   0  0  0  0  0  2  0  0  0  0  0  0
  191.9940  175.0240  141.7720 C   0  0  0  0  0  2  0  0  0  0  0  0
  192.0140  175.1600  147.0920 C   0  0  1  0  0  3  0  0  0  0  0  0
  190.4740  176.3570  143.9460 C   0  0  2  0  0  3  0  0  0  0  0  0
  194.0120  175.7270  144.8400 C   0  0  0  0  0  0  0  0  0  0  0  0
  190.5910  174.5020  142.1140 C   0  0  2  0  0  3  0  0  0  0  0  0
  189.7210  175.4970  142.9000 C   0  0  2  0  0  3  0  0  0  0  0  0
  193.9500  176.4440  146.1350 C   0  0  0  0  0  3  0  0  0  0  0  0
  196.0130  176.5700  143.5770 C   0  0  0  0  0  3  0  0  0  0  0  0
  195.3750  175.5400  144.2870 C   0  0  0  0  0  0  0  0  0  0  0  0
  196.0200  174.3010  144.4170 C   0  0  0  0  0  3  0  0  0  0  0  0
  197.9410  172.8460  144.0150 N   0  0  0  0  0  1  0  0  0  0  0  0
  197.9240  175.1400  143.1790 C   0  0  0  0  0  3  0  0  0  0  0  0
  197.2920  174.1020  143.8690 C   0  0  0  0  0  0  0  0  0  0  0  0
  197.2840  176.3720  143.0300 C   0  0  0  0  0  3  0  0  0  0  0  0
  190.0990  172.1180  141.7380 C   0  0  1  0  0  3  0  0  0  0  0  0
  189.2470  172.6230  142.7360 O   0  0  0  0  0  0  0  0  0  0  0  0
  190.5660  173.1070  142.7320 C   0  0  2  0  0  3  0  0  0  0  0  0
  190.5680  170.7360  142.1380 C   0  0  0  0  0  1  0  0  0  0  0  0
  188.1110  177.1240  144.7960 C   0  0  2  0  0  3  0  0  0  0  0  0
  187.9540  178.4760  144.4810 O   0  0  0  0  0  1  0  0  0  0  0  0
  187.1490  176.7490  145.9250 C   0  0  0  0  0  2  0  0  0  0  0  0
  186.5250  177.9760  146.5730 C   0  0  1  0  0  3  0  0  0  0  0  0
  185.0860  177.7340  146.8160 C   0  0  0  0  0  2  0  0  0  0  0  0
  186.0380  177.6190  147.8440 O   0  0  0  0  0  0  0  0  0  0  0  0
  189.0090  176.4000  141.9020 C   0  0  0  0  0  2  0  0  0  0  0  0
  187.7000  175.7760  141.4500 C   0  0  0  0  0  3  0  0  0  0  0  0
  187.1310  176.5930  140.3090 C   0  0  0  0  0  2  0  0  0  0  0  0
  186.5640  176.7460  141.7050 C   0  0  0  0  0  2  0  0  0  0  0  0
  1  3  1  0  0  0  0
  1 11  1  0  0  0  0
  2  6  1  0  0  0  0
  3  7  1  0  0  0  0
  4  1  1  0  0  0  0
  5  3  1  0  0  0  0
  6  4  1  0  0  0  0
  6 13  2  0  0  0  0
  7  9  1  0  0  0  0
 10 14  1  0  0  0  0
 10  2  1  0  0  0  0
 11  8  1  0  0  0  0
 11  9  1  0  0  0  0
 12  4  1  0  0  0  0
 12  5  1  0  0  0  0
 13 16  1  0  0  0  0
 14 26  1  0  0  0  0
 14 15  1  0  0  0  0
 15 12  1  0  0  0  0
 16  8  2  0  0  0  0
 17 18  1  0  0  0  0
 18 19  2  0  0  0  0
 18 13  1  0  0  0  0
 21 22  2  0  0  0  0
 22 20  1  0  0  0  0
 22 19  1  0  0  0  0
 23 21  1  0  0  0  0
 23 17  2  0  0  0  0
 24 27  1  0  0  0  0
 24 26  1  0  0  0  0
 24 25  1  0  0  0  0
 26 25  1  0  0  0  0
 28  5  1  0  0  0  0
 28 30  1  0  0  0  0
 29 28  1  0  0  0  0
 30 31  1  0  0  0  0
 31 32  1  0  0  0  0
 31 33  1  0  0  0  0
 32 33  1  0  0  0  0
 34 15  1  0  0  0  0
 35 37  1  0  0  0  0
 35 34  1  0  0  0  0
 36 35  1  0  0  0  0
 36 37  1  0  0  0  0
M  END
>  <MODEL>
2

>  <REMARK>
 VINA RESULT:      -7.4      1.376      1.939
  Name = 
  7 active torsions:
  status: ('A' for Active; 'I' for Inactive)
    1  A    between atoms: C_1  and  C_5
    2  A    between atoms: C_1  and  C_36
    3  A    between atoms: C_3  and  C_30
    4  A    between atoms: C_6  and  C_31
    5  A    between atoms: C_13  and  C_20
    6  A    between atoms: C_20  and  C_30
    7  A    between atoms: C_26  and  C_33
                            x       y       z     vdW  Elec       q    Type
                         _______ _______ _______ _____ _____    ______ ____

>  <TORSDO>
F 7

$$$$
=
 OpenBabel11052419593D

 37 44  0  0  1  0  0  0  0  0999 V2000
  190.3710  173.5200  143.1080 C   0  0  1  0  0  3  0  0  0  0  0  0
  189.9370  176.9490  144.3790 C   0  0  0  0  0  2  0  0  0  0  0  0
  191.5120  172.7390  142.6330 C   0  0  2  0  0  3  0  0  0  0  0  0
  190.5940  174.8230  143.1070 C   0  0  2  0  0  3  0  0  0  0  0  0
  192.2810  173.7790  141.8240 C   0  0  1  0  0  3  0  0  0  0  0  0
  189.5740  175.8620  143.3970 C   0  0  0  0  0  0  0  0  0  0  0  0
  190.8520  171.6510  141.8100 C   0  0  0  0  0  2  0  0  0  0  0  0
  188.2360  173.5120  141.8850 C   0  0  0  0  0  3  0  0  0  0  0  0
  189.4610  171.4800  142.4270 C   0  0  0  0  0  2  0  0  0  0  0  0
  191.3750  177.4530  144.2800 C   0  0  0  0  0  2  0  0  0  0  0  0
  189.0550  172.8520  142.9550 C   0  0  1  0  0  3  0  0  0  0  0  0
  191.9450  175.1250  142.5300 C   0  0  2  0  0  3  0  0  0  0  0  0
  188.3240  175.8250  142.8610 C   0  0  0  0  0  0  0  0  0  0  0  0
  192.4140  176.4210  144.7450 C   0  0  2  0  0  3  0  0  0  0  0  0
  192.9680  175.5320  143.6190 C   0  0  2  0  0  3  0  0  0  0  0  0
  187.9020  174.8040  141.8740 C   0  0  0  0  0  3  0  0  0  0  0  0
  187.2320  178.0190  142.3100 C   0  0  0  0  0  3  0  0  0  0  0  0
  187.3260  176.8870  143.1370 C   0  0  0  0  0  0  0  0  0  0  0  0
  186.5030  176.7990  144.2690 C   0  0  0  0  0  3  0  0  0  0  0  0
  184.7460  177.7090  145.7020 N   0  0  0  0  0  1  0  0  0  0  0  0
  185.4860  178.9270  143.7190 C   0  0  0  0  0  3  0  0  0  0  0  0
  185.5830  177.8120  144.5570 C   0  0  0  0  0  0  0  0  0  0  0  0
  186.3120  179.0310  142.5980 C   0  0  0  0  0  3  0  0  0  0  0  0
  192.2980  176.3560  147.2040 C   0  0  1  0  0  3  0  0  0  0  0  0
  193.1320  175.3210  146.7440 O   0  0  0  0  0  0  0  0  0  0  0  0
  191.9970  175.6070  145.9650 C   0  0  2  0  0  3  0  0  0  0  0  0
  191.4380  175.8340  148.3350 C   0  0  0  0  0  1  0  0  0  0  0  0
  193.7750  173.4620  141.6450 C   0  0  2  0  0  3  0  0  0  0  0  0
  194.0280  173.0820  140.3250 O   0  0  0  0  0  1  0  0  0  0  0  0
  194.2770  172.3730  142.5950 C   0  0  0  0  0  2  0  0  0  0  0  0
  194.8540  171.1830  141.8420 C   0  0  1  0  0  3  0  0  0  0  0  0
  195.2260  170.1190  142.8000 C   0  0  0  0  0  2  0  0  0  0  0  0
  194.0300  170.0640  142.0640 O   0  0  0  0  0  0  0  0  0  0  0  0
  194.1480  176.2520  142.9800 C   0  0  0  0  0  2  0  0  0  0  0  0
  195.3080  176.3560  143.9540 C   0  0  0  0  0  3  0  0  0  0  0  0
  196.5560  176.7560  143.1960 C   0  0  0  0  0  2  0  0  0  0  0  0
  196.3510  175.3140  143.6090 C   0  0  0  0  0  2  0  0  0  0  0  0
  3  1  1  0  0  0  0
  4  1  1  0  0  0  0
  4  6  1  0  0  0  0
  5 12  1  0  0  0  0
  5  3  1  0  0  0  0
  6  2  1  0  0  0  0
  7  9  1  0  0  0  0
  7  3  1  0  0  0  0
  8 11  1  0  0  0  0
  9 11  1  0  0  0  0
 10  2  1  0  0  0  0
 10 14  1  0  0  0  0
 11  1  1  0  0  0  0
 12  4  1  0  0  0  0
 12 15  1  0  0  0  0
 13 18  1  0  0  0  0
 13  6  2  0  0  0  0
 14 26  1  0  0  0  0
 15 14  1  0  0  0  0
 16  8  2  0  0  0  0
 16 13  1  0  0  0  0
 17 23  2  0  0  0  0
 17 18  1  0  0  0  0
 18 19  2  0  0  0  0
 19 22  1  0  0  0  0
 21 22  2  0  0  0  0
 22 20  1  0  0  0  0
 23 21  1  0  0  0  0
 24 27  1  0  0  0  0
 25 24  1  0  0  0  0
 26 25  1  0  0  0  0
 26 24  1  0  0  0  0
 28  5  1  0  0  0  0
 28 30  1  0  0  0  0
 29 28  1  0  0  0  0
 31 33  1  0  0  0  0
 31 30  1  0  0  0  0
 31 32  1  0  0  0  0
 33 32  1  0  0  0  0
 34 15  1  0  0  0  0
 34 35  1  0  0  0  0
 36 37  1  0  0  0  0
 36 35  1  0  0  0  0
 37 35  1  0  0  0  0
M  END
>  <MODEL>
3

>  <REMARK>
 VINA RESULT:      -7.1      3.347      8.180
  Name = 
  7 active torsions:
  status: ('A' for Active; 'I' for Inactive)
    1  A    between atoms: C_1  and  C_5
    2  A    between atoms: C_1  and  C_36
    3  A    between atoms: C_3  and  C_30
    4  A    between atoms: C_6  and  C_31
    5  A    between atoms: C_13  and  C_20
    6  A    between atoms: C_20  and  C_30
    7  A    between atoms: C_26  and  C_33
                            x       y       z     vdW  Elec       q    Type
                         _______ _______ _______ _____ _____    ______ ____

>  <TORSDO>
F 7

$$$$
=
 OpenBabel11052419593D

 37 44  0  0  1  0  0  0  0  0999 V2000
  192.9610  174.9410  144.6560 C   0  0  1  0  0  3  0  0  0  0  0  0
  189.5170  174.5310  143.4190 C   0  0  0  0  0  2  0  0  0  0  0  0
  194.1150  174.0540  144.7890 C   0  0  2  0  0  3  0  0  0  0  0  0
  191.8170  174.2920  144.5240 C   0  0  2  0  0  3  0  0  0  0  0  0
  193.4580  172.7630  145.2670 C   0  0  1  0  0  3  0  0  0  0  0  0
  190.4740  174.9260  144.5160 C   0  0  0  0  0  0  0  0  0  0  0  0
  194.9610  174.7610  145.8290 C   0  0  0  0  0  2  0  0  0  0  0  0
  192.3140  176.4590  146.4820 C   0  0  0  0  0  3  0  0  0  0  0  0
  194.6040  176.2430  145.6840 C   0  0  0  0  0  2  0  0  0  0  0  0
  189.5450  173.0510  143.0400 C   0  0  0  0  0  2  0  0  0  0  0  0
  193.1450  176.2910  145.2440 C   0  0  1  0  0  3  0  0  0  0  0  0
  192.0350  172.8130  144.6370 C   0  0  2  0  0  3  0  0  0  0  0  0
  190.1140  175.8810  145.4160 C   0  0  0  0  0  0  0  0  0  0  0  0
  190.8380  172.6310  142.3250 C   0  0  2  0  0  3  0  0  0  0  0  0
  191.9340  172.1010  143.2650 C   0  0  2  0  0  3  0  0  0  0  0  0
  190.9900  176.3040  146.5340 C   0  0  0  0  0  3  0  0  0  0  0  0
  187.8320  176.1740  146.4230 C   0  0  0  0  0  3  0  0  0  0  0  0
  188.7580  176.4820  145.4140 C   0  0  0  0  0  0  0  0  0  0  0  0
  188.3660  177.3230  144.3620 C   0  0  0  0  0  3  0  0  0  0  0  0
  186.6940  178.7270  143.2670 N   0  0  0  0  0  1  0  0  0  0  0  0
  186.1690  177.5670  145.3500 C   0  0  0  0  0  3  0  0  0  0  0  0
  187.0790  177.8670  144.3320 C   0  0  0  0  0  0  0  0  0  0  0  0
  186.5450  176.7180  146.3940 C   0  0  0  0  0  3  0  0  0  0  0  0
  191.9640  172.9770  140.1630 C   0  0  1  0  0  3  0  0  0  0  0  0
  192.7670  173.4860  141.1980 O   0  0  0  0  0  0  0  0  0  0  0  0
  191.3790  173.6590  141.3370 C   0  0  2  0  0  3  0  0  0  0  0  0
  192.0040  173.9310  138.9890 C   0  0  0  0  0  1  0  0  0  0  0  0
  194.2800  171.4940  144.9870 C   0  0  2  0  0  3  0  0  0  0  0  0
  194.7060  170.9250  146.1900 O   0  0  0  0  0  1  0  0  0  0  0  0
  195.4890  171.7470  144.0850 C   0  0  0  0  0  2  0  0  0  0  0  0
  196.7880  171.2940  144.7350 C   0  0  1  0  0  3  0  0  0  0  0  0
  197.9390  171.8360  143.9800 C   0  0  0  0  0  2  0  0  0  0  0  0
  197.4950  172.4290  145.1740 O   0  0  0  0  0  0  0  0  0  0  0  0
  191.7070  170.6090  143.4700 C   0  0  0  0  0  2  0  0  0  0  0  0
  192.2340  169.8170  142.2860 C   0  0  0  0  0  3  0  0  0  0  0  0
  191.1270  168.9330  141.7500 C   0  0  0  0  0  2  0  0  0  0  0  0
  192.2150  168.3390  142.6200 C   0  0  0  0  0  2  0  0  0  0  0  0
  1  3  1  0  0  0  0
  1 11  1  0  0  0  0
  2  6  1  0  0  0  0
  3  5  1  0  0  0  0
  3  7  1  0  0  0  0
  4 12  1  0  0  0  0
  4  1  1  0  0  0  0
  6  4  1  0  0  0  0
  6 13  2  0  0  0  0
  8 16  2  0  0  0  0
  9  7  1  0  0  0  0
 10  2  1  0  0  0  0
 11  9  1  0  0  0  0
 11  8  1  0  0  0  0
 12  5  1  0  0  0  0
 13 16  1  0  0  0  0
 14 10  1  0  0  0  0
 14 15  1  0  0  0  0
 15 34  1  0  0  0  0
 15 12  1  0  0  0  0
 18 13  1  0  0  0  0
 18 17  2  0  0  0  0
 19 18  1  0  0  0  0
 20 22  1  0  0  0  0
 21 23  2  0  0  0  0
 22 19  2  0  0  0  0
 22 21  1  0  0  0  0
 23 17  1  0  0  0  0
 24 25  1  0  0  0  0
 24 26  1  0  0  0  0
 25 26  1  0  0  0  0
 26 14  1  0  0  0  0
 27 24  1  0  0  0  0
 28  5  1  0  0  0  0
 28 29  1  0  0  0  0
 30 31  1  0  0  0  0
 30 28  1  0  0  0  0
 31 33  1  0  0  0  0
 32 31  1  0  0  0  0
 32 33  1  0  0  0  0
 35 37  1  0  0  0  0
 35 34  1  0  0  0  0
 36 35  1  0  0  0  0
 36 37  1  0  0  0  0
M  END
>  <MODEL>
4

>  <REMARK>
 VINA RESULT:      -7.0      3.387      7.681
  Name = 
  7 active torsions:
  status: ('A' for Active; 'I' for Inactive)
    1  A    between atoms: C_1  and  C_5
    2  A    between atoms: C_1  and  C_36
    3  A    between atoms: C_3  and  C_30
    4  A    between atoms: C_6  and  C_31
    5  A    between atoms: C_13  and  C_20
    6  A    between atoms: C_20  and  C_30
    7  A    between atoms: C_26  and  C_33
                            x       y       z     vdW  Elec       q    Type
                         _______ _______ _______ _____ _____    ______ ____

>  <TORSDO>
F 7

$$$$
=
 OpenBabel11052419593D

 37 44  0  0  1  0  0  0  0  0999 V2000
  190.8610  175.3290  145.6760 C   0  0  1  0  0  3  0  0  0  0  0  0
  191.9320  174.5550  142.2390 C   0  0  0  0  0  2  0  0  0  0  0  0
  189.5910  175.7070  146.2930 C   0  0  2  0  0  3  0  0  0  0  0  0
  190.8820  175.5200  144.3680 C   0  0  2  0  0  3  0  0  0  0  0  0
  189.0200  176.6700  145.2580 C   0  0  1  0  0  3  0  0  0  0  0  0
  192.0790  175.3640  143.5040 C   0  0  0  0  0  0  0  0  0  0  0  0
  190.0300  176.3530  147.5910 C   0  0  0  0  0  2  0  0  0  0  0  0
  192.9460  176.5000  146.2530 C   0  0  0  0  0  3  0  0  0  0  0  0
  191.3710  175.6930  147.9250 C   0  0  0  0  0  2  0  0  0  0  0  0
  190.6110  174.7510  141.4980 C   0  0  0  0  0  2  0  0  0  0  0  0
  192.0290  175.3610  146.5900 C   0  0  1  0  0  3  0  0  0  0  0  0
  189.6050  176.1590  143.9090 C   0  0  2  0  0  3  0  0  0  0  0  0
  193.2960  175.8670  143.8470 C   0  0  0  0  0  0  0  0  0  0  0  0
  189.4040  174.1610  142.2430 C   0  0  2  0  0  3  0  0  0  0  0  0
  188.6850  175.1580  143.1670 C   0  0  2  0  0  3  0  0  0  0  0  0
  193.5130  176.6900  145.0600 C   0  0  0  0  0  3  0  0  0  0  0  0
  194.5390  176.4170  141.7350 C   0  0  0  0  0  3  0  0  0  0  0  0
  194.4750  175.7290  142.9580 C   0  0  0  0  0  0  0  0  0  0  0  0
  195.5170  174.8570  143.3060 C   0  0  0  0  0  3  0  0  0  0  0  0
  197.6730  173.8150  142.8260 N   0  0  0  0  0  1  0  0  0  0  0  0
  196.6790  175.3940  141.2520 C   0  0  0  0  0  3  0  0  0  0  0  0
  196.6170  174.6940  142.4590 C   0  0  0  0  0  0  0  0  0  0  0  0
  195.6400  176.2530  140.8880 C   0  0  0  0  0  3  0  0  0  0  0  0
  189.6810  171.7330  141.9440 C   0  0  1  0  0  3  0  0  0  0  0  0
  188.5660  171.9820  142.7630 O   0  0  0  0  0  0  0  0  0  0  0  0
  189.6740  172.8290  142.9350 C   0  0  2  0  0  3  0  0  0  0  0  0
  190.4500  170.5520  142.4980 C   0  0  0  0  0  1  0  0  0  0  0  0
  187.4910  176.8280  145.3170 C   0  0  2  0  0  3  0  0  0  0  0  0
  187.1150  178.0500  144.7540 O   0  0  0  0  0  1  0  0  0  0  0  0
  186.9290  176.7250  146.7360 C   0  0  0  0  0  2  0  0  0  0  0  0
  186.6180  178.0920  147.3250 C   0  0  1  0  0  3  0  0  0  0  0  0
  185.1530  178.2660  147.4370 C   0  0  0  0  0  2  0  0  0  0  0  0
  185.9410  177.9150  148.5470 O   0  0  0  0  0  0  0  0  0  0  0  0
  187.6520  175.9150  142.3430 C   0  0  0  0  0  2  0  0  0  0  0  0
  188.2890  177.1020  141.6410 C   0  0  0  0  0  3  0  0  0  0  0  0
  187.3550  178.2910  141.7360 C   0  0  0  0  0  2  0  0  0  0  0  0
  187.4410  177.4970  140.4490 C   0  0  0  0  0  2  0  0  0  0  0  0
  1  3  1  0  0  0  0
  1 11  1  0  0  0  0
  2  6  1  0  0  0  0
  3  7  1  0  0  0  0
  4  1  1  0  0  0  0
  5 28  1  0  0  0  0
  5  3  1  0  0  0  0
  6 13  2  0  0  0  0
  6  4  1  0  0  0  0
  7  9  1  0  0  0  0
  8 11  1  0  0  0  0
 10  2  1  0  0  0  0
 10 14  1  0  0  0  0
 11  9  1  0  0  0  0
 12  4  1  0  0  0  0
 12  5  1  0  0  0  0
 13 16  1  0  0  0  0
 14 26  1  0  0  0  0
 14 15  1  0  0  0  0
 15 12  1  0  0  0  0
 16  8  2  0  0  0  0
 17 18  1  0  0  0  0
 18 19  2  0  0  0  0
 18 13  1  0  0  0  0
 21 22  2  0  0  0  0
 22 20  1  0  0  0  0
 22 19  1  0  0  0  0
 23 21  1  0  0  0  0
 23 17  2  0  0  0  0
 24 27  1  0  0  0  0
 24 25  1  0  0  0  0
 24 26  1  0  0  0  0
 25 26  1  0  0  0  0
 28 30  1  0  0  0  0
 29 28  1  0  0  0  0
 30 31  1  0  0  0  0
 31 32  1  0  0  0  0
 31 33  1  0  0  0  0
 32 33  1  0  0  0  0
 34 15  1  0  0  0  0
 35 36  1  0  0  0  0
 35 34  1  0  0  0  0
 37 35  1  0  0  0  0
 37 36  1  0  0  0  0
M  END
>  <MODEL>
5

>  <REMARK>
 VINA RESULT:      -7.0      1.523      2.118
  Name = 
  7 active torsions:
  status: ('A' for Active; 'I' for Inactive)
    1  A    between atoms: C_1  and  C_5
    2  A    between atoms: C_1  and  C_36
    3  A    between atoms: C_3  and  C_30
    4  A    between atoms: C_6  and  C_31
    5  A    between atoms: C_13  and  C_20
    6  A    between atoms: C_20  and  C_30
    7  A    between atoms: C_26  and  C_33
                            x       y       z     vdW  Elec       q    Type
                         _______ _______ _______ _____ _____    ______ ____

>  <TORSDO>
F 7

$$$$
=
 OpenBabel11052419593D

 37 44  0  0  1  0  0  0  0  0999 V2000
  190.1870  173.8030  142.2550 C   0  0  1  0  0  3  0  0  0  0  0  0
  188.7730  176.6040  144.1830 C   0  0  0  0  0  2  0  0  0  0  0  0
  191.5420  173.3170  141.9970 C   0  0  2  0  0  3  0  0  0  0  0  0
  190.1560  175.0550  142.6810 C   0  0  2  0  0  3  0  0  0  0  0  0
  192.3070  174.6220  141.8060 C   0  0  1  0  0  3  0  0  0  0  0  0
  188.9220  175.8550  142.8820 C   0  0  0  0  0  0  0  0  0  0  0  0
  191.3650  172.4900  140.7390 C   0  0  0  0  0  2  0  0  0  0  0  0
  188.5440  173.9940  140.4330 C   0  0  0  0  0  3  0  0  0  0  0  0
  189.9110  172.0110  140.7840 C   0  0  0  0  0  2  0  0  0  0  0  0
  190.0580  177.2380  144.7120 C   0  0  0  0  0  2  0  0  0  0  0  0
  189.1220  173.1050  141.4950 C   0  0  1  0  0  3  0  0  0  0  0  0
  191.5360  175.6410  142.6930 C   0  0  2  0  0  3  0  0  0  0  0  0
  187.9120  175.8790  141.9690 C   0  0  0  0  0  0  0  0  0  0  0  0
  191.0880  176.2080  145.2010 C   0  0  2  0  0  3  0  0  0  0  0  0
  192.1010  175.7720  144.1300 C   0  0  2  0  0  3  0  0  0  0  0  0
  187.9950  175.1890  140.6600 C   0  0  0  0  0  3  0  0  0  0  0  0
  186.0790  176.7830  143.4290 C   0  0  0  0  0  3  0  0  0  0  0  0
  186.6990  176.7080  142.1710 C   0  0  0  0  0  0  0  0  0  0  0  0
  186.1220  177.3810  141.0840 C   0  0  0  0  0  3  0  0  0  0  0  0
  184.3870  178.8250  140.1510 N   0  0  0  0  0  1  0  0  0  0  0  0
  184.3580  178.2200  142.5150 C   0  0  0  0  0  3  0  0  0  0  0  0
  184.9590  178.1380  141.2560 C   0  0  0  0  0  0  0  0  0  0  0  0
  184.9160  177.5400  143.6010 C   0  0  0  0  0  3  0  0  0  0  0  0
  189.9360  175.4520  147.2420 C   0  0  1  0  0  3  0  0  0  0  0  0
  191.1880  174.8210  147.1470 O   0  0  0  0  0  0  0  0  0  0  0  0
  190.4900  175.0170  145.9430 C   0  0  2  0  0  3  0  0  0  0  0  0
  188.9090  174.4480  147.7180 C   0  0  0  0  0  1  0  0  0  0  0  0
  193.8200  174.5100  142.0590 C   0  0  2  0  0  3  0  0  0  0  0  0
  194.5230  174.7890  140.8850 O   0  0  0  0  0  1  0  0  0  0  0  0
  194.2420  173.1400  142.5930 C   0  0  0  0  0  2  0  0  0  0  0  0
  194.9340  173.2440  143.9440 C   0  0  1  0  0  3  0  0  0  0  0  0
  195.4950  171.9280  144.3190 C   0  0  0  0  0  2  0  0  0  0  0  0
  196.2990  172.9450  143.7770 O   0  0  0  0  0  0  0  0  0  0  0  0
  193.2620  176.7580  144.1420 C   0  0  0  0  0  2  0  0  0  0  0  0
  193.6280  177.1410  145.5650 C   0  0  0  0  0  3  0  0  0  0  0  0
  195.0500  177.6630  145.5870 C   0  0  0  0  0  2  0  0  0  0  0  0
  194.7550  176.2530  146.0530 C   0  0  0  0  0  2  0  0  0  0  0  0
  1  4  1  0  0  0  0
  2 10  1  0  0  0  0
  3  1  1  0  0  0  0
  4 12  1  0  0  0  0
  4  6  1  0  0  0  0
  5  3  1  0  0  0  0
  5 28  1  0  0  0  0
  5 12  1  0  0  0  0
  6  2  1  0  0  0  0
  7  9  1  0  0  0  0
  7  3  1  0  0  0  0
  8 16  2  0  0  0  0
  8 11  1  0  0  0  0
  9 11  1  0  0  0  0
 10 14  1  0  0  0  0
 11  1  1  0  0  0  0
 12 15  1  0  0  0  0
 13 18  1  0  0  0  0
 13  6  2  0  0  0  0
 14 26  1  0  0  0  0
 15 34  1  0  0  0  0
 15 14  1  0  0  0  0
 16 13  1  0  0  0  0
 17 23  1  0  0  0  0
 18 17  2  0  0  0  0
 19 22  2  0  0  0  0
 19 18  1  0  0  0  0
 20 22  1  0  0  0  0
 21 23  2  0  0  0  0
 22 21  1  0  0  0  0
 24 27  1  0  0  0  0
 25 24  1  0  0  0  0
 26 25  1  0  0  0  0
 26 24  1  0  0  0  0
 28 30  1  0  0  0  0
 29 28  1  0  0  0  0
 30 31  1  0  0  0  0
 31 32  1  0  0  0  0
 33 31  1  0  0  0  0
 33 32  1  0  0  0  0
 34 35  1  0  0  0  0
 35 36  1  0  0  0  0
 35 37  1  0  0  0  0
 36 37  1  0  0  0  0
M  END
>  <MODEL>
6

>  <REMARK>
 VINA RESULT:      -6.6      3.280      8.160
  Name = 
  7 active torsions:
  status: ('A' for Active; 'I' for Inactive)
    1  A    between atoms: C_1  and  C_5
    2  A    between atoms: C_1  and  C_36
    3  A    between atoms: C_3  and  C_30
    4  A    between atoms: C_6  and  C_31
    5  A    between atoms: C_13  and  C_20
    6  A    between atoms: C_20  and  C_30
    7  A    between atoms: C_26  and  C_33
                            x       y       z     vdW  Elec       q    Type
                         _______ _______ _______ _____ _____    ______ ____

>  <TORSDO>
F 7

$$$$
=
 OpenBabel11052419593D

 37 44  0  0  1  0  0  0  0  0999 V2000
  193.7120  175.0000  144.3460 C   0  0  1  0  0  3  0  0  0  0  0  0
  193.5240  173.6900  140.9090 C   0  0  0  0  0  2  0  0  0  0  0  0
  192.7530  175.6160  145.2620 C   0  0  2  0  0  3  0  0  0  0  0  0
  193.3200  175.0320  143.0830 C   0  0  2  0  0  3  0  0  0  0  0  0
  191.9630  176.5190  144.3200 C   0  0  1  0  0  3  0  0  0  0  0  0
  194.1490  174.6150  141.9240 C   0  0  0  0  0  0  0  0  0  0  0  0
  193.6500  176.3460  146.2410 C   0  0  0  0  0  2  0  0  0  0  0  0
  195.9670  175.9390  144.0550 C   0  0  0  0  0  3  0  0  0  0  0  0
  194.9620  175.5550  146.2380 C   0  0  0  0  0  2  0  0  0  0  0  0
  192.0550  173.9730  140.5970 C   0  0  0  0  0  2  0  0  0  0  0  0
  195.1130  174.9820  144.8330 C   0  0  1  0  0  3  0  0  0  0  0  0
  192.0260  175.7780  142.9520 C   0  0  2  0  0  3  0  0  0  0  0  0
  195.4510  174.9860  141.7880 C   0  0  0  0  0  0  0  0  0  0  0  0
  191.1110  173.6440  141.7620 C   0  0  2  0  0  3  0  0  0  0  0  0
  190.8280  174.8300  142.6990 C   0  0  2  0  0  3  0  0  0  0  0  0
  196.1260  175.9100  142.7300 C   0  0  0  0  0  3  0  0  0  0  0  0
  197.1610  173.5160  140.6830 C   0  0  0  0  0  3  0  0  0  0  0  0
  196.2560  174.5870  140.6080 C   0  0  0  0  0  0  0  0  0  0  0  0
  196.1630  175.3200  139.4160 C   0  0  0  0  0  3  0  0  0  0  0  0
  196.8340  175.7160  137.1010 N   0  0  0  0  0  1  0  0  0  0  0  0
  197.8290  173.8950  138.3880 C   0  0  0  0  0  3  0  0  0  0  0  0
  196.9430  174.9730  138.3080 C   0  0  0  0  0  0  0  0  0  0  0  0
  197.9410  173.1690  139.5750 C   0  0  0  0  0  3  0  0  0  0  0  0
  190.6390  171.2470  142.0760 C   0  0  1  0  0  3  0  0  0  0  0  0
  190.3540  171.9430  143.2640 O   0  0  0  0  0  0  0  0  0  0  0  0
  191.4730  172.3790  142.5330 C   0  0  2  0  0  3  0  0  0  0  0  0
  191.3220  169.9410  142.4170 C   0  0  0  0  0  1  0  0  0  0  0  0
  190.5590  176.8870  144.8280 C   0  0  2  0  0  3  0  0  0  0  0  0
  190.3630  178.2670  144.7320 O   0  0  0  0  0  1  0  0  0  0  0  0
  190.3010  176.4340  146.2660 C   0  0  0  0  0  2  0  0  0  0  0  0
  189.0690  175.5480  146.3700 C   0  0  1  0  0  3  0  0  0  0  0  0
  189.4760  174.1270  146.3810 C   0  0  0  0  0  2  0  0  0  0  0  0
  189.1430  174.8080  147.5650 O   0  0  0  0  0  0  0  0  0  0  0  0
  189.6540  175.6170  142.1310 C   0  0  0  0  0  2  0  0  0  0  0  0
  188.3350  174.9790  142.5300 C   0  0  0  0  0  3  0  0  0  0  0  0
  187.2200  175.5980  141.7120 C   0  0  0  0  0  2  0  0  0  0  0  0
  187.4340  176.0290  143.1480 C   0  0  0  0  0  2  0  0  0  0  0  0
  1 11  1  0  0  0  0
  1  3  1  0  0  0  0
  2  6  1  0  0  0  0
  3  7  1  0  0  0  0
  4  1  1  0  0  0  0
  5 28  1  0  0  0  0
  5  3  1  0  0  0  0
  6  4  1  0  0  0  0
  8 11  1  0  0  0  0
  9  7  1  0  0  0  0
 10  2  1  0  0  0  0
 10 14  1  0  0  0  0
 11  9  1  0  0  0  0
 12  4  1  0  0  0  0
 12  5  1  0  0  0  0
 13  6  2  0  0  0  0
 13 16  1  0  0  0  0
 14 26  1  0  0  0  0
 14 15  1  0  0  0  0
 15 12  1  0  0  0  0
 16  8  2  0  0  0  0
 18 17  1  0  0  0  0
 18 13  1  0  0  0  0
 19 18  2  0  0  0  0
 20 22  1  0  0  0  0
 21 23  1  0  0  0  0
 22 21  2  0  0  0  0
 22 19  1  0  0  0  0
 23 17  2  0  0  0  0
 24 27  1  0  0  0  0
 24 26  1  0  0  0  0
 24 25  1  0  0  0  0
 26 25  1  0  0  0  0
 28 30  1  0  0  0  0
 29 28  1  0  0  0  0
 30 31  1  0  0  0  0
 31 32  1  0  0  0  0
 31 33  1  0  0  0  0
 32 33  1  0  0  0  0
 34 35  1  0  0  0  0
 34 15  1  0  0  0  0
 35 37  1  0  0  0  0
 36 35  1  0  0  0  0
 36 37  1  0  0  0  0
M  END
>  <MODEL>
7

>  <REMARK>
 VINA RESULT:      -6.5      2.954      4.569
  Name = 
  7 active torsions:
  status: ('A' for Active; 'I' for Inactive)
    1  A    between atoms: C_1  and  C_5
    2  A    between atoms: C_1  and  C_36
    3  A    between atoms: C_3  and  C_30
    4  A    between atoms: C_6  and  C_31
    5  A    between atoms: C_13  and  C_20
    6  A    between atoms: C_20  and  C_30
    7  A    between atoms: C_26  and  C_33
                            x       y       z     vdW  Elec       q    Type
                         _______ _______ _______ _____ _____    ______ ____

>  <TORSDO>
F 7

$$$$
=
 OpenBabel11052419593D

 37 44  0  0  1  0  0  0  0  0999 V2000
  190.8450  174.5870  142.8960 C   0  0  1  0  0  3  0  0  0  0  0  0
  192.9010  172.0110  141.2540 C   0  0  0  0  0  2  0  0  0  0  0  0
  190.9750  175.3770  144.1190 C   0  0  2  0  0  3  0  0  0  0  0  0
  191.6160  173.5130  142.8850 C   0  0  2  0  0  3  0  0  0  0  0  0
  191.5320  174.3440  145.0940 C   0  0  1  0  0  3  0  0  0  0  0  0
  191.5850  172.4540  141.8440 C   0  0  0  0  0  0  0  0  0  0  0  0
  189.5470  175.8070  144.3920 C   0  0  0  0  0  2  0  0  0  0  0  0
  188.7110  173.5150  142.3030 C   0  0  0  0  0  3  0  0  0  0  0  0
  188.8760  175.8370  143.0160 C   0  0  0  0  0  2  0  0  0  0  0  0
  194.0560  171.9180  142.2500 C   0  0  0  0  0  2  0  0  0  0  0  0
  189.5530  174.7520  142.1850 C   0  0  1  0  0  3  0  0  0  0  0  0
  192.3440  173.3740  144.1880 C   0  0  2  0  0  3  0  0  0  0  0  0
  190.4220  171.9290  141.3720 C   0  0  0  0  0  0  0  0  0  0  0  0
  194.5280  173.2870  142.7630 C   0  0  2  0  0  3  0  0  0  0  0  0
  193.8430  173.7440  144.0610 C   0  0  2  0  0  3  0  0  0  0  0  0
  189.0940  172.2970  141.9170 C   0  0  0  0  0  3  0  0  0  0  0  0
  190.8110  169.5450  140.6830 C   0  0  0  0  0  3  0  0  0  0  0  0
  190.4110  170.8510  140.3540 C   0  0  0  0  0  0  0  0  0  0  0  0
  190.0550  171.1410  139.0290 C   0  0  0  0  0  3  0  0  0  0  0  0
  189.7010  170.4410  136.7160 N   0  0  0  0  0  1  0  0  0  0  0  0
  190.4580  168.8390  138.3950 C   0  0  0  0  0  3  0  0  0  0  0  0
  190.0730  170.1390  138.0540 C   0  0  0  0  0  0  0  0  0  0  0  0
  190.8300  168.5430  139.7080 C   0  0  0  0  0  3  0  0  0  0  0  0
  195.8970  174.9860  141.6210 C   0  0  1  0  0  3  0  0  0  0  0  0
  194.8530  175.6150  142.3200 O   0  0  0  0  0  0  0  0  0  0  0  0
  194.5480  174.3870  141.7070 C   0  0  2  0  0  3  0  0  0  0  0  0
  196.0700  175.6580  140.2760 C   0  0  0  0  0  1  0  0  0  0  0  0
  192.2870  174.9480  146.2900 C   0  0  2  0  0  3  0  0  0  0  0  0
  191.4820  174.9150  147.4310 O   0  0  0  0  0  1  0  0  0  0  0  0
  192.7610  176.3810  146.0420 C   0  0  0  0  0  2  0  0  0  0  0  0
  194.1930  176.5960  146.5090 C   0  0  1  0  0  3  0  0  0  0  0  0
  195.0530  176.9190  145.3510 C   0  0  0  0  0  2  0  0  0  0  0  0
  194.5720  177.9190  146.2140 O   0  0  0  0  0  0  0  0  0  0  0  0
  194.6200  173.1710  145.2390 C   0  0  0  0  0  2  0  0  0  0  0  0
  196.1150  173.2330  144.9790 C   0  0  0  0  0  3  0  0  0  0  0  0
  196.8170  172.2530  145.8950 C   0  0  0  0  0  2  0  0  0  0  0  0
  196.8230  173.7320  146.2220 C   0  0  0  0  0  2  0  0  0  0  0  0
  1  3  1  0  0  0  0
  2  6  1  0  0  0  0
  2 10  1  0  0  0  0
  3  7  1  0  0  0  0
  3  5  1  0  0  0  0
  4  1  1  0  0  0  0
  4 12  1  0  0  0  0
  5 28  1  0  0  0  0
  6  4  1  0  0  0  0
  9  7  1  0  0  0  0
 10 14  1  0  0  0  0
 11  8  1  0  0  0  0
 11  1  1  0  0  0  0
 11  9  1  0  0  0  0
 12  5  1  0  0  0  0
 13  6  2  0  0  0  0
 13 16  1  0  0  0  0
 14 15  1  0  0  0  0
 15 12  1  0  0  0  0
 15 34  1  0  0  0  0
 16  8  2  0  0  0  0
 18 17  1  0  0  0  0
 18 13  1  0  0  0  0
 19 18  2  0  0  0  0
 20 22  1  0  0  0  0
 21 23  1  0  0  0  0
 22 21  2  0  0  0  0
 22 19  1  0  0  0  0
 23 17  2  0  0  0  0
 24 26  1  0  0  0  0
 24 25  1  0  0  0  0
 26 25  1  0  0  0  0
 26 14  1  0  0  0  0
 27 24  1  0  0  0  0
 28 29  1  0  0  0  0
 30 28  1  0  0  0  0
 30 31  1  0  0  0  0
 32 33  1  0  0  0  0
 32 31  1  0  0  0  0
 33 31  1  0  0  0  0
 35 34  1  0  0  0  0
 35 36  1  0  0  0  0
 35 37  1  0  0  0  0
 36 37  1  0  0  0  0
M  END
>  <MODEL>
8

>  <REMARK>
 VINA RESULT:      -6.5      3.664      7.541
  Name = 
  7 active torsions:
  status: ('A' for Active; 'I' for Inactive)
    1  A    between atoms: C_1  and  C_5
    2  A    between atoms: C_1  and  C_36
    3  A    between atoms: C_3  and  C_30
    4  A    between atoms: C_6  and  C_31
    5  A    between atoms: C_13  and  C_20
    6  A    between atoms: C_20  and  C_30
    7  A    between atoms: C_26  and  C_33
                            x       y       z     vdW  Elec       q    Type
                         _______ _______ _______ _____ _____    ______ ____

>  <TORSDO>
F 7

$$$$
=
 OpenBabel11052419593D

 37 44  0  0  1  0  0  0  0  0999 V2000
  187.6630  176.6560  145.4100 C   0  0  1  0  0  3  0  0  0  0  0  0
  190.4580  175.3370  143.4090 C   0  0  0  0  0  2  0  0  0  0  0  0
  186.4200  177.3600  145.0970 C   0  0  2  0  0  3  0  0  0  0  0  0
  188.5530  176.7100  144.4330 C   0  0  2  0  0  3  0  0  0  0  0  0
  186.8770  178.3190  144.0020 C   0  0  1  0  0  3  0  0  0  0  0  0
  189.9490  176.2140  144.5260 C   0  0  0  0  0  0  0  0  0  0  0  0
  186.0690  178.0190  146.4150 C   0  0  0  0  0  2  0  0  0  0  0  0
  189.1030  177.3960  147.2620 C   0  0  0  0  0  3  0  0  0  0  0  0
  186.6950  177.1180  147.4840 C   0  0  0  0  0  2  0  0  0  0  0  0
  189.9980  175.7420  142.0100 C   0  0  0  0  0  2  0  0  0  0  0  0
  187.9520  176.5230  146.8590 C   0  0  1  0  0  3  0  0  0  0  0  0
  188.0480  177.5640  143.3090 C   0  0  2  0  0  3  0  0  0  0  0  0
  190.7440  176.4710  145.6000 C   0  0  0  0  0  0  0  0  0  0  0  0
  188.5000  175.5050  141.7700 C   0  0  2  0  0  3  0  0  0  0  0  0
  187.6110  176.7200  142.0860 C   0  0  2  0  0  3  0  0  0  0  0  0
  190.3230  177.3410  146.7230 C   0  0  0  0  0  3  0  0  0  0  0  0
  192.4640  174.7670  146.2680 C   0  0  0  0  0  3  0  0  0  0  0  0
  192.1470  175.9930  145.6630 C   0  0  0  0  0  0  0  0  0  0  0  0
  193.1830  176.7980  145.1670 C   0  0  0  0  0  3  0  0  0  0  0  0
  195.5560  177.1910  144.7370 N   0  0  0  0  0  1  0  0  0  0  0  0
  194.8170  175.1430  145.8420 C   0  0  0  0  0  3  0  0  0  0  0  0
  194.5130  176.3730  145.2520 C   0  0  0  0  0  0  0  0  0  0  0  0
  193.7930  174.3420  146.3530 C   0  0  0  0  0  3  0  0  0  0  0  0
  188.7510  173.0610  141.9320 C   0  0  1  0  0  3  0  0  0  0  0  0
  187.5040  173.3690  141.3620 O   0  0  0  0  0  0  0  0  0  0  0  0
  187.9550  174.2210  142.3850 C   0  0  2  0  0  3  0  0  0  0  0  0
  188.5820  171.9160  142.9060 C   0  0  0  0  0  1  0  0  0  0  0  0
  185.7480  178.8110  143.0820 C   0  0  2  0  0  3  0  0  0  0  0  0
  185.2870  180.0570  143.5140 O   0  0  0  0  0  1  0  0  0  0  0  0
  184.5740  177.8350  142.9940 C   0  0  0  0  0  2  0  0  0  0  0  0
  183.3280  178.4930  142.4200 C   0  0  1  0  0  3  0  0  0  0  0  0
  183.3780  178.4520  140.9420 C   0  0  0  0  0  2  0  0  0  0  0  0
  182.6100  177.5350  141.6800 O   0  0  0  0  0  0  0  0  0  0  0  0
  187.5460  177.5990  140.8440 C   0  0  0  0  0  2  0  0  0  0  0  0
  186.4470  177.1290  139.9080 C   0  0  0  0  0  3  0  0  0  0  0  0
  187.0290  176.1350  138.9230 C   0  0  0  0  0  2  0  0  0  0  0  0
  186.7700  177.5640  138.4930 C   0  0  0  0  0  2  0  0  0  0  0  0
  1 11  1  0  0  0  0
  2  6  1  0  0  0  0
  3  1  1  0  0  0  0
  3  7  1  0  0  0  0
  4  6  1  0  0  0  0
  4  1  1  0  0  0  0
  5  3  1  0  0  0  0
  6 13  2  0  0  0  0
  7  9  1  0  0  0  0
 10  2  1  0  0  0  0
 11  8  1  0  0  0  0
 11  9  1  0  0  0  0
 12  5  1  0  0  0  0
 12  4  1  0  0  0  0
 13 18  1  0  0  0  0
 13 16  1  0  0  0  0
 14 10  1  0  0  0  0
 14 15  1  0  0  0  0
 14 26  1  0  0  0  0
 15 12  1  0  0  0  0
 16  8  2  0  0  0  0
 17 23  1  0  0  0  0
 18 17  2  0  0  0  0
 19 22  2  0  0  0  0
 19 18  1  0  0  0  0
 20 22  1  0  0  0  0
 21 23  2  0  0  0  0
 22 21  1  0  0  0  0
 24 26  1  0  0  0  0
 24 27  1  0  0  0  0
 25 24  1  0  0  0  0
 25 26  1  0  0  0  0
 28 29  1  0  0  0  0
 28  5  1  0  0  0  0
 30 28  1  0  0  0  0
 31 30  1  0  0  0  0
 32 33  1  0  0  0  0
 32 31  1  0  0  0  0
 33 31  1  0  0  0  0
 34 15  1  0  0  0  0
 35 34  1  0  0  0  0
 36 35  1  0  0  0  0
 37 36  1  0  0  0  0
 37 35  1  0  0  0  0
M  END
>  <MODEL>
9

>  <REMARK>
 VINA RESULT:      -6.5      1.676      2.430
  Name = 
  7 active torsions:
  status: ('A' for Active; 'I' for Inactive)
    1  A    between atoms: C_1  and  C_5
    2  A    between atoms: C_1  and  C_36
    3  A    between atoms: C_3  and  C_30
    4  A    between atoms: C_6  and  C_31
    5  A    between atoms: C_13  and  C_20
    6  A    between atoms: C_20  and  C_30
    7  A    between atoms: C_26  and  C_33
                            x       y       z     vdW  Elec       q    Type
                         _______ _______ _______ _____ _____    ______ ____

>  <TORSDO>
F 7

$$$$
