=
 OpenBabel11052419273D

 55 61  0  0  1  0  0  0  0  0999 V2000
  188.9280  174.7190  139.9660 C   0  0  0  0  0  2  0  0  0  0  0  0
  188.8840  171.5710  142.9710 C   0  0  0  0  0  1  0  0  0  0  0  0
  191.1130  172.9210  144.5600 O   0  0  0  0  0  1  0  0  0  0  0  0
  190.6870  175.8620  145.6570 C   0  0  0  0  0  3  0  0  0  0  0  0
  190.3820  176.8500  146.5950 C   0  0  0  0  0  3  0  0  0  0  0  0
  189.6710  177.2060  143.9030 C   0  0  0  0  0  0  0  0  0  0  0  0
  189.3800  178.1950  144.8520 C   0  0  0  0  0  3  0  0  0  0  0  0
  192.0560  174.9580  143.0610 O   0  0  0  0  0  1  0  0  0  0  0  0
  189.7280  178.0160  146.1920 C   0  0  0  0  0  3  0  0  0  0  0  0
  189.3960  174.1250  137.5780 C   0  0  0  0  0  2  0  0  0  0  0  0
  190.3300  176.0240  144.3080 C   0  0  0  0  0  0  0  0  0  0  0  0
  190.0130  171.7420  138.8130 C   0  0  1  0  0  3  0  0  0  0  0  0
  187.6740  175.1790  140.6800 C   0  0  0  0  0  2  0  0  0  0  0  0
  188.6860  172.3370  139.2810 C   0  0  0  0  0  2  0  0  0  0  0  0
  187.9330  176.9010  142.0600 C   0  0  1  0  0  3  0  0  0  0  0  0
  191.0010  172.3210  141.6780 C   0  0  0  0  0  2  0  0  0  0  0  0
  189.3010  177.4670  142.4710 C   0  0  0  0  0  2  0  0  0  0  0  0
  189.7930  172.7190  142.5480 C   0  0  2  0  0  3  0  0  0  0  0  0
  190.1860  173.5800  143.7420 C   0  0  2  0  0  3  0  0  0  0  0  0
  189.4240  172.9340  136.6280 C   0  0  0  0  0  2  0  0  0  0  0  0
  191.3060  170.8240  141.6480 C   0  0  1  0  0  3  0  0  0  0  0  0
  188.5500  173.7980  138.8240 C   0  0  1  0  0  3  0  0  0  0  0  0
  190.6870  174.9610  143.3110 C   0  0  2  0  0  3  0  0  0  0  0  0
  187.9610  175.5030  142.0090 O   0  0  0  0  0  0  0  0  0  0  0  0
  191.5220  170.3400  140.2140 C   0  0  0  0  0  2  0  0  0  0  0  0
  190.2280  170.3630  139.4070 C   0  0  0  0  0  2  0  0  0  0  0  0
  190.0860  171.7070  137.2810 C   0  0  0  0  0  2  0  0  0  0  0  0
  186.4830  178.8840  143.1070 C   0  0  0  0  0  3  0  0  0  0  0  0
  186.2570  177.7750  145.1910 N   0  0  0  0  0  0  0  0  0  0  0  0
  185.6720  176.4160  143.2390 C   0  0  0  0  0  2  0  0  0  0  0  0
  186.7330  176.7340  144.2960 C   0  0  1  0  0  3  0  0  0  0  0  0
  186.1080  179.0780  144.5650 C   0  0  0  0  0  3  0  0  0  0  0  0
  186.7870  177.3980  142.9400 C   0  0  1  0  0  0  0  0  0  0  0  0
  185.9940  177.5370  146.5810 C   0  0  0  0  0  0  0  0  0  0  0  0
  186.6660  176.6110  147.2520 C   0  0  0  0  0  2  0  0  0  0  0  0
  184.9190  178.2880  147.2890 C   0  0  0  0  0  1  0  0  0  0  0  0
  192.5630  170.5580  142.4530 C   0  0  0  0  0  2  0  0  0  0  0  0
  193.1350  171.7810  142.8570 O   0  0  0  0  0  0  0  0  0  0  0  0
  194.3160  173.2180  144.6450 O   0  0  0  0  0  1  0  0  0  0  0  0
  195.2000  172.8190  143.6420 C   0  0  2  0  0  0  0  0  0  0  0  0
  194.9810  170.4110  143.2050 O   0  0  0  0  0  1  0  0  0  0  0  0
  195.4530  173.2520  141.3200 C   0  0  1  0  0  3  0  0  0  0  0  0
  195.3370  173.9730  142.6240 C   0  0  2  0  0  3  0  0  0  0  0  0
  194.5520  171.6790  142.7910 C   0  0  1  0  0  0  0  0  0  0  0  0
  195.0290  171.9950  141.3970 C   0  0  0  0  0  2  0  0  0  0  0  0
  196.0300  175.9850  143.9040 C   0  0  0  0  0  2  0  0  0  0  0  0
  196.0850  176.3320  142.4330 C   0  0  0  0  0  2  0  0  0  0  0  0
  196.4790  174.9490  142.9000 C   0  0  0  0  0  3  0  0  0  0  0  0
  195.9270  173.8740  140.0400 C   0  0  0  0  0  2  0  0  0  0  0  0
  195.2900  174.8180  138.1480 C   0  0  0  0  0  1  0  0  0  0  0  0
  194.8970  174.6380  139.4730 O   0  0  0  0  0  0  0  0  0  0  0  0
  196.4330  172.4650  144.2730 O   0  0  0  0  0  0  0  0  0  0  0  0
  196.8260  171.0040  146.1380 C   0  0  0  0  0  1  0  0  0  0  0  0
  197.1900  173.4260  146.3180 C   0  0  0  0  0  1  0  0  0  0  0  0
  196.3260  172.3600  145.6760 C   0  0  0  0  0  3  0  0  0  0  0  0
  1 13  1  0  0  0  0
  4  5  1  0  0  0  0
  6 11  1  0  0  0  0
  6  7  2  0  0  0  0
  7  9  1  0  0  0  0
  9  5  2  0  0  0  0
 11  4  2  0  0  0  0
 12 27  1  6  0  0  0
 12 14  1  0  0  0  0
 12 26  1  0  0  0  0
 13 24  1  0  0  0  0
 15 17  1  1  0  0  0
 15 33  1  0  0  0  0
 16 18  1  0  0  0  0
 17  6  1  0  0  0  0
 18  2  1  1  0  0  0
 18 19  1  0  0  0  0
 19  3  1  6  0  0  0
 20 27  1  0  0  0  0
 20 10  1  0  0  0  0
 21 16  1  0  0  0  0
 21 37  1  1  0  0  0
 22 10  1  6  0  0  0
 22 14  1  0  0  0  0
 22  1  1  0  0  0  0
 23  8  1  1  0  0  0
 23 19  1  0  0  0  0
 23 11  1  0  0  0  0
 24 15  1  0  0  0  0
 25 21  1  0  0  0  0
 26 25  1  0  0  0  0
 28 32  2  0  0  0  0
 29 34  1  0  0  0  0
 31 30  1  6  0  0  0
 31 29  1  0  0  0  0
 32 29  1  0  0  0  0
 33 28  1  6  0  0  0
 33 30  1  0  0  0  0
 33 31  1  0  0  0  0
 34 35  2  0  0  0  0
 34 36  1  0  0  0  0
 37 38  1  0  0  0  0
 40 52  1  0  0  0  0
 40 39  1  1  0  0  0
 42 49  1  6  0  0  0
 42 45  1  0  0  0  0
 42 43  1  0  0  0  0
 43 48  1  1  0  0  0
 43 40  1  0  0  0  0
 44 38  1  0  0  0  0
 44 41  1  1  0  0  0
 44 40  1  0  0  0  0
 45 44  1  0  0  0  0
 47 48  1  0  0  0  0
 47 46  1  0  0  0  0
 48 46  1  0  0  0  0
 50 51  1  0  0  0  0
 51 49  1  0  0  0  0
 52 55  1  0  0  0  0
 55 53  1  0  0  0  0
 55 54  1  0  0  0  0
M  END
>  <MODEL>
1

>  <REMARK>
 VINA RESULT:      -7.4      0.000      0.000
  Name = 
  10 active torsions:
  status: ('A' for Active; 'I' for Inactive)
    1  A    between atoms: C_6  and  O_46
    2  A    between atoms: C_8  and  O_22
    3  A    between atoms: C_8  and  C_43
    4  A    between atoms: C_10  and  N_32
    5  A    between atoms: C_12  and  C_30
    6  A    between atoms: C_14  and  C_38
    7  A    between atoms: C_20  and  O_22
    8  A    between atoms: C_30  and  O_50
    9  A    between atoms: C_33  and  C_52
   10  A    between atoms: O_46  and  C_53
                            x       y       z     vdW  Elec       q    Type
                         _______ _______ _______ _____ _____    ______ ____

>  <TORSDO>
F 10

$$$$
=
 OpenBabel11052419273D

 55 61  0  0  1  0  0  0  0  0999 V2000
  193.9220  174.1860  142.3640 C   0  0  0  0  0  2  0  0  0  0  0  0
  190.8820  171.9470  144.5270 C   0  0  0  0  0  1  0  0  0  0  0  0
  188.6320  173.3390  143.0050 O   0  0  0  0  0  1  0  0  0  0  0  0
  188.5090  173.1100  139.8480 C   0  0  0  0  0  3  0  0  0  0  0  0
  188.0860  172.6150  138.6130 C   0  0  0  0  0  3  0  0  0  0  0  0
  190.7490  173.4300  138.9580 C   0  0  0  0  0  0  0  0  0  0  0  0
  190.3100  172.9420  137.7200 C   0  0  0  0  0  3  0  0  0  0  0  0
  189.7430  175.3350  141.5670 O   0  0  0  0  0  1  0  0  0  0  0  0
  188.9860  172.5310  137.5490 C   0  0  0  0  0  3  0  0  0  0  0  0
  195.5260  175.6230  143.6430 C   0  0  0  0  0  2  0  0  0  0  0  0
  189.8410  173.5140  140.0370 C   0  0  0  0  0  0  0  0  0  0  0  0
  193.7320  174.9880  145.6330 C   0  0  1  0  0  3  0  0  0  0  0  0
  194.0930  172.8860  141.6060 C   0  0  0  0  0  2  0  0  0  0  0  0
  194.1690  173.7780  144.8080 C   0  0  0  0  0  2  0  0  0  0  0  0
  193.1400  172.8130  139.5990 C   0  0  1  0  0  3  0  0  0  0  0  0
  190.9520  174.5330  144.3730 C   0  0  0  0  0  2  0  0  0  0  0  0
  192.1760  173.8870  139.0740 C   0  0  0  0  0  2  0  0  0  0  0  0
  190.9570  173.1800  143.6350 C   0  0  2  0  0  3  0  0  0  0  0  0
  189.9260  173.1160  142.5160 C   0  0  2  0  0  3  0  0  0  0  0  0
  196.0690  175.8450  145.0480 C   0  0  0  0  0  2  0  0  0  0  0  0
  190.5330  174.4620  145.8410 C   0  0  1  0  0  3  0  0  0  0  0  0
  194.8920  174.2230  143.5270 C   0  0  1  0  0  3  0  0  0  0  0  0
  190.2710  174.0640  141.3640 C   0  0  2  0  0  3  0  0  0  0  0  0
  192.9050  172.5430  140.9520 O   0  0  0  0  0  0  0  0  0  0  0  0
  191.5070  175.2420  146.7240 C   0  0  0  0  0  2  0  0  0  0  0  0
  192.8690  174.5610  146.8050 C   0  0  0  0  0  2  0  0  0  0  0  0
  194.9470  175.7980  146.1010 C   0  0  0  0  0  2  0  0  0  0  0  0
  192.3010  170.3130  139.1820 C   0  0  0  0  0  3  0  0  0  0  0  0
  194.4140  169.6170  138.3590 N   0  0  0  0  0  0  0  0  0  0  0  0
  193.5240  171.6450  137.3130 C   0  0  0  0  0  2  0  0  0  0  0  0
  194.4970  171.0680  138.3430 C   0  0  1  0  0  3  0  0  0  0  0  0
  193.1540  169.0970  138.8650 C   0  0  0  0  0  3  0  0  0  0  0  0
  193.1240  171.5300  138.7700 C   0  0  1  0  0  0  0  0  0  0  0  0
  195.4980  168.7760  137.9430 C   0  0  0  0  0  0  0  0  0  0  0  0
  196.3960  168.3410  138.8180 C   0  0  0  0  0  2  0  0  0  0  0  0
  195.6750  168.4180  136.5070 C   0  0  0  0  0  1  0  0  0  0  0  0
  189.1470  175.0590  145.9890 C   0  0  0  0  0  2  0  0  0  0  0  0
  188.7220  175.5870  144.7530 O   0  0  0  0  0  0  0  0  0  0  0  0
  186.4580  176.3820  145.7010 O   0  0  0  0  0  1  0  0  0  0  0  0
  187.1520  177.4260  145.0890 C   0  0  2  0  0  0  0  0  0  0  0  0
  189.4840  177.4830  145.8620 O   0  0  0  0  0  1  0  0  0  0  0  0
  187.8370  177.9530  142.8770 C   0  0  1  0  0  3  0  0  0  0  0  0
  186.6110  177.5970  143.6520 C   0  0  2  0  0  3  0  0  0  0  0  0
  188.6380  177.0040  144.8530 C   0  0  1  0  0  0  0  0  0  0  0  0
  188.9550  177.6360  143.5220 C   0  0  0  0  0  2  0  0  0  0  0  0
  184.2110  178.0290  144.1190 C   0  0  0  0  0  2  0  0  0  0  0  0
  184.3940  178.0130  142.6180 C   0  0  0  0  0  2  0  0  0  0  0  0
  185.4680  178.5990  143.5050 C   0  0  0  0  0  3  0  0  0  0  0  0
  187.8350  178.5400  141.4960 C   0  0  0  0  0  2  0  0  0  0  0  0
  186.4790  177.7960  139.9190 C   0  0  0  0  0  1  0  0  0  0  0  0
  187.6930  177.5180  140.5460 O   0  0  0  0  0  0  0  0  0  0  0  0
  186.9850  178.5880  145.9040 O   0  0  0  0  0  0  0  0  0  0  0  0
  187.2930  178.8210  148.2750 C   0  0  0  0  0  1  0  0  0  0  0  0
  185.0670  179.0100  147.2540 C   0  0  0  0  0  1  0  0  0  0  0  0
  186.4040  178.3040  147.1580 C   0  0  0  0  0  3  0  0  0  0  0  0
  4 11  1  0  0  0  0
  5  4  2  0  0  0  0
  6 17  1  0  0  0  0
  6 11  2  0  0  0  0
  7  6  1  0  0  0  0
  9  7  2  0  0  0  0
  9  5  1  0  0  0  0
 10 20  1  0  0  0  0
 11 23  1  0  0  0  0
 12 14  1  1  0  0  0
 12 27  1  0  0  0  0
 12 26  1  0  0  0  0
 13  1  1  0  0  0  0
 15 17  1  6  0  0  0
 15 24  1  0  0  0  0
 16 21  1  0  0  0  0
 18 16  1  0  0  0  0
 18  2  1  1  0  0  0
 19  3  1  1  0  0  0
 19 18  1  0  0  0  0
 20 27  1  0  0  0  0
 21 37  1  6  0  0  0
 21 25  1  0  0  0  0
 22  1  1  6  0  0  0
 22 10  1  0  0  0  0
 22 14  1  0  0  0  0
 23  8  1  1  0  0  0
 23 19  1  0  0  0  0
 24 13  1  0  0  0  0
 25 26  1  0  0  0  0
 29 32  1  0  0  0  0
 31 30  1  6  0  0  0
 31 29  1  0  0  0  0
 31 33  1  0  0  0  0
 32 28  2  0  0  0  0
 33 30  1  6  0  0  0
 33 28  1  0  0  0  0
 33 15  1  0  0  0  0
 34 29  1  0  0  0  0
 34 35  2  0  0  0  0
 36 34  1  0  0  0  0
 38 44  1  0  0  0  0
 38 37  1  0  0  0  0
 40 39  1  1  0  0  0
 40 52  1  0  0  0  0
 42 49  1  6  0  0  0
 42 45  1  0  0  0  0
 42 43  1  0  0  0  0
 43 48  1  1  0  0  0
 43 40  1  0  0  0  0
 44 40  1  0  0  0  0
 44 41  1  1  0  0  0
 45 44  1  0  0  0  0
 47 48  1  0  0  0  0
 47 46  1  0  0  0  0
 48 46  1  0  0  0  0
 50 51  1  0  0  0  0
 51 49  1  0  0  0  0
 52 55  1  0  0  0  0
 55 54  1  0  0  0  0
 55 53  1  0  0  0  0
M  END
>  <MODEL>
2

>  <REMARK>
 VINA RESULT:      -6.8      3.011      9.387
  Name = 
  10 active torsions:
  status: ('A' for Active; 'I' for Inactive)
    1  A    between atoms: C_6  and  O_46
    2  A    between atoms: C_8  and  O_22
    3  A    between atoms: C_8  and  C_43
    4  A    between atoms: C_10  and  N_32
    5  A    between atoms: C_12  and  C_30
    6  A    between atoms: C_14  and  C_38
    7  A    between atoms: C_20  and  O_22
    8  A    between atoms: C_30  and  O_50
    9  A    between atoms: C_33  and  C_52
   10  A    between atoms: O_46  and  C_53
                            x       y       z     vdW  Elec       q    Type
                         _______ _______ _______ _____ _____    ______ ____

>  <TORSDO>
F 10

$$$$
=
 OpenBabel11052419273D

 55 61  0  0  1  0  0  0  0  0999 V2000
  194.0920  174.3760  141.9780 C   0  0  0  0  0  2  0  0  0  0  0  0
  191.6740  171.5000  144.1740 C   0  0  0  0  0  1  0  0  0  0  0  0
  189.0890  172.6390  143.0160 O   0  0  0  0  0  1  0  0  0  0  0  0
  188.6650  172.6650  139.8770 C   0  0  0  0  0  3  0  0  0  0  0  0
  188.1910  172.2170  138.6430 C   0  0  0  0  0  3  0  0  0  0  0  0
  190.7230  173.4160  138.8210 C   0  0  0  0  0  0  0  0  0  0  0  0
  190.2320  172.9720  137.5850 C   0  0  0  0  0  3  0  0  0  0  0  0
  189.7260  174.9040  141.6910 O   0  0  0  0  0  1  0  0  0  0  0  0
  188.9750  172.3700  137.4970 C   0  0  0  0  0  3  0  0  0  0  0  0
  195.5880  175.9360  143.2430 C   0  0  0  0  0  2  0  0  0  0  0  0
  189.9340  173.2600  139.9820 C   0  0  0  0  0  0  0  0  0  0  0  0
  194.1340  174.8530  145.3160 C   0  0  1  0  0  3  0  0  0  0  0  0
  194.3750  173.1890  141.0800 C   0  0  0  0  0  2  0  0  0  0  0  0
  194.6570  173.8040  144.3350 C   0  0  0  0  0  2  0  0  0  0  0  0
  193.2340  173.1380  139.1720 C   0  0  1  0  0  3  0  0  0  0  0  0
  191.3360  174.0680  144.2780 C   0  0  0  0  0  2  0  0  0  0  0  0
  192.0680  174.0840  138.8500 C   0  0  0  0  0  2  0  0  0  0  0  0
  191.4660  172.8020  143.4090 C   0  0  2  0  0  3  0  0  0  0  0  0
  190.3420  172.6690  142.3890 C   0  0  2  0  0  3  0  0  0  0  0  0
  196.2390  176.1210  144.6070 C   0  0  0  0  0  2  0  0  0  0  0  0
  191.0920  173.8050  145.7630 C   0  0  1  0  0  3  0  0  0  0  0  0
  195.1640  174.4680  143.0440 C   0  0  1  0  0  3  0  0  0  0  0  0
  190.4150  173.7560  141.3130 C   0  0  2  0  0  3  0  0  0  0  0  0
  193.1890  172.7180  140.5070 O   0  0  0  0  0  0  0  0  0  0  0  0
  192.0260  174.6520  146.6270 C   0  0  0  0  0  2  0  0  0  0  0  0
  193.4760  174.1940  146.5120 C   0  0  0  0  0  2  0  0  0  0  0  0
  195.2560  175.8040  145.7490 C   0  0  0  0  0  2  0  0  0  0  0  0
  192.7500  170.5790  138.5860 C   0  0  0  0  0  3  0  0  0  0  0  0
  194.8380  170.3110  137.4950 N   0  0  0  0  0  0  0  0  0  0  0  0
  193.5350  172.2480  136.7520 C   0  0  0  0  0  2  0  0  0  0  0  0
  194.6950  171.7520  137.6190 C   0  0  1  0  0  3  0  0  0  0  0  0
  193.7380  169.5510  138.0660 C   0  0  0  0  0  3  0  0  0  0  0  0
  193.3230  171.9440  138.2220 C   0  0  1  0  0  0  0  0  0  0  0  0
  195.9860  169.6980  136.8920 C   0  0  0  0  0  0  0  0  0  0  0  0
  196.1460  169.7000  135.5750 C   0  0  0  0  0  2  0  0  0  0  0  0
  196.9980  168.9940  137.7300 C   0  0  0  0  0  1  0  0  0  0  0  0
  189.6560  174.1570  146.0990 C   0  0  0  0  0  2  0  0  0  0  0  0
  189.0780  174.8680  145.0280 O   0  0  0  0  0  0  0  0  0  0  0  0
  186.9360  175.7770  143.9140 O   0  0  0  0  0  1  0  0  0  0  0  0
  187.6770  176.7980  144.5090 C   0  0  2  0  0  0  0  0  0  0  0  0
  188.3250  176.1760  146.7960 O   0  0  0  0  0  1  0  0  0  0  0  0
  189.7990  177.8010  144.1440 C   0  0  1  0  0  3  0  0  0  0  0  0
  188.5330  177.4800  143.4180 C   0  0  2  0  0  3  0  0  0  0  0  0
  188.7520  176.1830  145.4610 C   0  0  1  0  0  0  0  0  0  0  0  0
  189.9310  177.1010  145.2650 C   0  0  0  0  0  2  0  0  0  0  0  0
  186.8430  178.2070  141.7500 C   0  0  0  0  0  2  0  0  0  0  0  0
  188.2000  178.6650  141.2630 C   0  0  0  0  0  2  0  0  0  0  0  0
  187.8800  178.6830  142.7400 C   0  0  0  0  0  3  0  0  0  0  0  0
  190.8490  178.7520  143.6500 C   0  0  0  0  0  2  0  0  0  0  0  0
  192.2090  177.2560  142.7630 C   0  0  0  0  0  1  0  0  0  0  0  0
  192.1190  178.1780  143.8040 O   0  0  0  0  0  0  0  0  0  0  0  0
  186.7520  177.6840  145.1460 O   0  0  0  0  0  0  0  0  0  0  0  0
  184.9320  176.9200  146.5130 C   0  0  0  0  0  1  0  0  0  0  0  0
  184.5370  178.2910  144.5140 C   0  0  0  0  0  1  0  0  0  0  0  0
  185.4220  177.2140  145.1070 C   0  0  0  0  0  3  0  0  0  0  0  0
  4 11  1  0  0  0  0
  5  4  2  0  0  0  0
  6 17  1  0  0  0  0
  6 11  2  0  0  0  0
  7  6  1  0  0  0  0
  9  7  2  0  0  0  0
  9  5  1  0  0  0  0
 10 20  1  0  0  0  0
 11 23  1  0  0  0  0
 12 14  1  6  0  0  0
 12 27  1  0  0  0  0
 12 26  1  0  0  0  0
 13  1  1  0  0  0  0
 15 17  1  6  0  0  0
 15 24  1  0  0  0  0
 16 21  1  0  0  0  0
 18  2  1  1  0  0  0
 18 16  1  0  0  0  0
 19  3  1  1  0  0  0
 19 18  1  0  0  0  0
 20 27  1  0  0  0  0
 21 37  1  1  0  0  0
 21 25  1  0  0  0  0
 22  1  1  6  0  0  0
 22 10  1  0  0  0  0
 22 14  1  0  0  0  0
 23  8  1  1  0  0  0
 23 19  1  0  0  0  0
 24 13  1  0  0  0  0
 26 25  1  0  0  0  0
 29 31  1  0  0  0  0
 29 32  1  0  0  0  0
 31 30  1  6  0  0  0
 31 33  1  0  0  0  0
 32 28  2  0  0  0  0
 33 30  1  6  0  0  0
 33 28  1  0  0  0  0
 33 15  1  0  0  0  0
 34 29  1  0  0  0  0
 34 36  1  0  0  0  0
 35 34  2  0  0  0  0
 38 44  1  0  0  0  0
 38 37  1  0  0  0  0
 40 39  1  6  0  0  0
 40 52  1  0  0  0  0
 40 44  1  0  0  0  0
 42 49  1  6  0  0  0
 42 45  1  0  0  0  0
 43 48  1  1  0  0  0
 43 42  1  0  0  0  0
 43 40  1  0  0  0  0
 44 41  1  1  0  0  0
 45 44  1  0  0  0  0
 46 48  1  0  0  0  0
 47 46  1  0  0  0  0
 47 48  1  0  0  0  0
 49 51  1  0  0  0  0
 50 51  1  0  0  0  0
 54 55  1  0  0  0  0
 55 52  1  0  0  0  0
 55 53  1  0  0  0  0
M  END
>  <MODEL>
3

>  <REMARK>
 VINA RESULT:      -6.6      3.063      9.115
  Name = 
  10 active torsions:
  status: ('A' for Active; 'I' for Inactive)
    1  A    between atoms: C_6  and  O_46
    2  A    between atoms: C_8  and  O_22
    3  A    between atoms: C_8  and  C_43
    4  A    between atoms: C_10  and  N_32
    5  A    between atoms: C_12  and  C_30
    6  A    between atoms: C_14  and  C_38
    7  A    between atoms: C_20  and  O_22
    8  A    between atoms: C_30  and  O_50
    9  A    between atoms: C_33  and  C_52
   10  A    between atoms: O_46  and  C_53
                            x       y       z     vdW  Elec       q    Type
                         _______ _______ _______ _____ _____    ______ ____

>  <TORSDO>
F 10

$$$$
=
 OpenBabel11052419273D

 55 61  0  0  1  0  0  0  0  0999 V2000
  189.2110  174.5820  140.0950 C   0  0  0  0  0  2  0  0  0  0  0  0
  188.9890  171.4610  143.1190 C   0  0  0  0  0  1  0  0  0  0  0  0
  191.1740  172.7860  144.7890 O   0  0  0  0  0  1  0  0  0  0  0  0
  190.7530  175.7430  145.8450 C   0  0  0  0  0  3  0  0  0  0  0  0
  190.4260  176.7430  146.7620 C   0  0  0  0  0  3  0  0  0  0  0  0
  189.8330  177.0890  144.0410 C   0  0  0  0  0  0  0  0  0  0  0  0
  189.5200  178.0910  144.9690 C   0  0  0  0  0  3  0  0  0  0  0  0
  192.2120  174.7950  143.3150 O   0  0  0  0  0  1  0  0  0  0  0  0
  189.8100  177.9170  146.3240 C   0  0  0  0  0  3  0  0  0  0  0  0
  189.7670  173.9610  137.7330 C   0  0  0  0  0  2  0  0  0  0  0  0
  190.4550  175.9000  144.4810 C   0  0  0  0  0  0  0  0  0  0  0  0
  190.2920  171.5780  139.0100 C   0  0  1  0  0  3  0  0  0  0  0  0
  187.9360  175.0690  140.7530 C   0  0  0  0  0  2  0  0  0  0  0  0
  188.9560  172.1990  139.4190 C   0  0  0  0  0  2  0  0  0  0  0  0
  188.1680  176.7980  142.1300 C   0  0  1  0  0  3  0  0  0  0  0  0
  191.1710  172.1640  141.9100 C   0  0  0  0  0  2  0  0  0  0  0  0
  189.5270  177.3440  142.5920 C   0  0  0  0  0  2  0  0  0  0  0  0
  189.9350  172.5900  142.7260 C   0  0  2  0  0  3  0  0  0  0  0  0
  190.2930  173.4540  143.9280 C   0  0  2  0  0  3  0  0  0  0  0  0
  189.8140  172.7620  136.7940 C   0  0  0  0  0  2  0  0  0  0  0  0
  191.4510  170.6620  141.9030 C   0  0  1  0  0  3  0  0  0  0  0  0
  188.8650  173.6590  138.9450 C   0  0  1  0  0  3  0  0  0  0  0  0
  190.8350  174.8230  143.5080 C   0  0  2  0  0  3  0  0  0  0  0  0
  188.1740  175.3990  142.0910 O   0  0  0  0  0  0  0  0  0  0  0  0
  191.7170  170.1630  140.4830 C   0  0  0  0  0  2  0  0  0  0  0  0
  190.4580  170.2010  139.6230 C   0  0  0  0  0  2  0  0  0  0  0  0
  190.4270  171.5290  137.4830 C   0  0  0  0  0  2  0  0  0  0  0  0
  186.6120  178.7980  142.9710 C   0  0  0  0  0  3  0  0  0  0  0  0
  186.4410  177.8990  145.1600 N   0  0  0  0  0  0  0  0  0  0  0  0
  185.9340  176.3170  143.3600 C   0  0  0  0  0  2  0  0  0  0  0  0
  186.9730  176.7990  144.3740 C   0  0  1  0  0  3  0  0  0  0  0  0
  186.2240  179.1220  144.4030 C   0  0  0  0  0  3  0  0  0  0  0  0
  186.9940  177.3210  142.9570 C   0  0  1  0  0  0  0  0  0  0  0  0
  186.1880  177.7930  146.5670 C   0  0  0  0  0  0  0  0  0  0  0  0
  186.1450  176.6080  147.1630 C   0  0  0  0  0  2  0  0  0  0  0  0
  185.9110  179.0090  147.3830 C   0  0  0  0  0  1  0  0  0  0  0  0
  192.6690  170.3820  142.7610 C   0  0  0  0  0  2  0  0  0  0  0  0
  193.4730  171.5370  142.8370 O   0  0  0  0  0  0  0  0  0  0  0  0
  195.1310  173.5130  142.8140 O   0  0  0  0  0  1  0  0  0  0  0  0
  195.7860  172.2960  143.0040 C   0  0  2  0  0  0  0  0  0  0  0  0
  194.6690  170.9760  144.7490 O   0  0  0  0  0  1  0  0  0  0  0  0
  196.1560  170.3380  141.7110 C   0  0  1  0  0  3  0  0  0  0  0  0
  196.3360  171.8200  141.6410 C   0  0  2  0  0  3  0  0  0  0  0  0
  194.7460  171.1890  143.3660 C   0  0  1  0  0  0  0  0  0  0  0  0
  195.2890  169.9780  142.6520 C   0  0  0  0  0  2  0  0  0  0  0  0
  197.7670  173.7040  140.8870 C   0  0  0  0  0  2  0  0  0  0  0  0
  197.8800  172.5990  139.8610 C   0  0  0  0  0  2  0  0  0  0  0  0
  197.7650  172.2590  141.3290 C   0  0  0  0  0  3  0  0  0  0  0  0
  196.8130  169.3530  140.7910 C   0  0  0  0  0  2  0  0  0  0  0  0
  197.2950  168.9190  138.6800 C   0  0  0  0  0  1  0  0  0  0  0  0
  196.3350  169.5310  139.4840 O   0  0  0  0  0  0  0  0  0  0  0  0
  196.8020  172.5050  143.9880 O   0  0  0  0  0  0  0  0  0  0  0  0
  196.6200  173.5480  146.1430 C   0  0  0  0  0  1  0  0  0  0  0  0
  197.9200  174.5810  144.3340 C   0  0  0  0  0  1  0  0  0  0  0  0
  196.6900  173.7510  144.6410 C   0  0  0  0  0  3  0  0  0  0  0  0
  1 13  1  0  0  0  0
  4  5  1  0  0  0  0
  6 11  1  0  0  0  0
  6  7  2  0  0  0  0
  7  9  1  0  0  0  0
  9  5  2  0  0  0  0
 11  4  2  0  0  0  0
 12 27  1  6  0  0  0
 12 14  1  0  0  0  0
 12 26  1  0  0  0  0
 13 24  1  0  0  0  0
 15 17  1  1  0  0  0
 15 33  1  0  0  0  0
 16 18  1  0  0  0  0
 17  6  1  0  0  0  0
 18  2  1  1  0  0  0
 18 19  1  0  0  0  0
 19  3  1  6  0  0  0
 20 27  1  0  0  0  0
 20 10  1  0  0  0  0
 21 16  1  0  0  0  0
 21 37  1  1  0  0  0
 22 10  1  6  0  0  0
 22 14  1  0  0  0  0
 22  1  1  0  0  0  0
 23  8  1  1  0  0  0
 23 19  1  0  0  0  0
 23 11  1  0  0  0  0
 24 15  1  0  0  0  0
 25 21  1  0  0  0  0
 26 25  1  0  0  0  0
 28 32  2  0  0  0  0
 29 34  1  0  0  0  0
 31 30  1  6  0  0  0
 31 29  1  0  0  0  0
 32 29  1  0  0  0  0
 33 28  1  6  0  0  0
 33 30  1  0  0  0  0
 33 31  1  0  0  0  0
 34 35  2  0  0  0  0
 34 36  1  0  0  0  0
 37 38  1  0  0  0  0
 38 44  1  0  0  0  0
 40 39  1  6  0  0  0
 40 44  1  0  0  0  0
 40 52  1  0  0  0  0
 42 49  1  6  0  0  0
 42 45  1  0  0  0  0
 43 48  1  1  0  0  0
 43 42  1  0  0  0  0
 43 40  1  0  0  0  0
 44 41  1  1  0  0  0
 45 44  1  0  0  0  0
 46 48  1  0  0  0  0
 47 46  1  0  0  0  0
 47 48  1  0  0  0  0
 50 51  1  0  0  0  0
 51 49  1  0  0  0  0
 52 55  1  0  0  0  0
 54 55  1  0  0  0  0
 55 53  1  0  0  0  0
M  END
>  <MODEL>
4

>  <REMARK>
 VINA RESULT:      -6.5      1.321      1.870
  Name = 
  10 active torsions:
  status: ('A' for Active; 'I' for Inactive)
    1  A    between atoms: C_6  and  O_46
    2  A    between atoms: C_8  and  O_22
    3  A    between atoms: C_8  and  C_43
    4  A    between atoms: C_10  and  N_32
    5  A    between atoms: C_12  and  C_30
    6  A    between atoms: C_14  and  C_38
    7  A    between atoms: C_20  and  O_22
    8  A    between atoms: C_30  and  O_50
    9  A    between atoms: C_33  and  C_52
   10  A    between atoms: O_46  and  C_53
                            x       y       z     vdW  Elec       q    Type
                         _______ _______ _______ _____ _____    ______ ____

>  <TORSDO>
F 10

$$$$
=
 OpenBabel11052419273D

 55 61  0  0  1  0  0  0  0  0999 V2000
  193.8120  174.4170  142.5980 C   0  0  0  0  0  2  0  0  0  0  0  0
  190.7710  172.1070  144.6850 C   0  0  0  0  0  1  0  0  0  0  0  0
  188.5490  173.2840  142.9550 O   0  0  0  0  0  1  0  0  0  0  0  0
  188.6440  172.8930  139.8130 C   0  0  0  0  0  3  0  0  0  0  0  0
  188.3300  172.3130  138.5830 C   0  0  0  0  0  3  0  0  0  0  0  0
  190.9150  173.3030  139.0470 C   0  0  0  0  0  0  0  0  0  0  0  0
  190.5850  172.7290  137.8120 C   0  0  0  0  0  3  0  0  0  0  0  0
  189.6350  175.2710  141.4850 O   0  0  0  0  0  1  0  0  0  0  0  0
  189.3010  172.2320  137.5820 C   0  0  0  0  0  3  0  0  0  0  0  0
  195.2450  176.0090  143.8950 C   0  0  0  0  0  2  0  0  0  0  0  0
  189.9360  173.3850  140.0620 C   0  0  0  0  0  0  0  0  0  0  0  0
  193.3650  175.3650  145.8020 C   0  0  1  0  0  3  0  0  0  0  0  0
  194.1060  173.0930  141.9220 C   0  0  0  0  0  2  0  0  0  0  0  0
  193.9230  174.1450  145.0700 C   0  0  0  0  0  2  0  0  0  0  0  0
  193.2910  172.8640  139.8660 C   0  0  1  0  0  3  0  0  0  0  0  0
  190.7030  174.6820  144.3990 C   0  0  0  0  0  2  0  0  0  0  0  0
  192.3020  173.8510  139.2260 C   0  0  0  0  0  2  0  0  0  0  0  0
  190.8340  173.2970  143.7350 C   0  0  2  0  0  3  0  0  0  0  0  0
  189.8820  173.1160  142.5590 C   0  0  2  0  0  3  0  0  0  0  0  0
  195.6830  176.3320  145.3180 C   0  0  0  0  0  2  0  0  0  0  0  0
  190.1950  174.6580  145.8390 C   0  0  1  0  0  3  0  0  0  0  0  0
  194.7010  174.5700  143.8140 C   0  0  1  0  0  3  0  0  0  0  0  0
  190.2470  174.0250  141.3830 C   0  0  2  0  0  3  0  0  0  0  0  0
  192.9840  172.6480  141.2150 O   0  0  0  0  0  0  0  0  0  0  0  0
  191.0640  175.5380  146.7390 C   0  0  0  0  0  2  0  0  0  0  0  0
  192.4540  174.9450  146.9390 C   0  0  0  0  0  2  0  0  0  0  0  0
  194.4990  176.2690  146.3010 C   0  0  0  0  0  2  0  0  0  0  0  0
  193.6100  171.4950  137.5970 C   0  0  0  0  0  3  0  0  0  0  0  0
  192.0590  169.8240  138.2490 N   0  0  0  0  0  0  0  0  0  0  0  0
  193.7920  170.3180  139.9090 C   0  0  0  0  0  2  0  0  0  0  0  0
  192.3380  170.5380  139.4840 C   0  0  1  0  0  3  0  0  0  0  0  0
  192.7570  170.3480  137.0860 C   0  0  0  0  0  3  0  0  0  0  0  0
  193.4010  171.5430  139.1070 C   0  0  1  0  0  0  0  0  0  0  0  0
  191.1450  168.7210  138.1840 C   0  0  0  0  0  0  0  0  0  0  0  0
  190.8140  168.1800  137.0190 C   0  0  0  0  0  2  0  0  0  0  0  0
  190.5020  168.1940  139.4210 C   0  0  0  0  0  1  0  0  0  0  0  0
  188.7710  175.1770  145.8700 C   0  0  0  0  0  2  0  0  0  0  0  0
  188.4260  175.6950  144.6060 O   0  0  0  0  0  0  0  0  0  0  0  0
  186.1130  176.4550  145.4590 O   0  0  0  0  0  1  0  0  0  0  0  0
  186.8130  177.5080  144.8680 C   0  0  2  0  0  0  0  0  0  0  0  0
  189.1110  177.6090  145.7320 O   0  0  0  0  0  1  0  0  0  0  0  0
  187.5750  178.0350  142.6810 C   0  0  1  0  0  3  0  0  0  0  0  0
  186.3260  177.6620  143.4100 C   0  0  2  0  0  3  0  0  0  0  0  0
  188.3140  177.1100  144.6930 C   0  0  1  0  0  0  0  0  0  0  0  0
  188.6720  177.7410  143.3720 C   0  0  0  0  0  2  0  0  0  0  0  0
  183.8560  177.9210  143.3800 C   0  0  0  0  0  2  0  0  0  0  0  0
  184.3710  178.2430  141.9960 C   0  0  0  0  0  2  0  0  0  0  0  0
  185.1720  178.6440  143.2130 C   0  0  0  0  0  3  0  0  0  0  0  0
  187.6170  178.6140  141.2980 C   0  0  0  0  0  2  0  0  0  0  0  0
  186.6770  177.7620  139.4900 C   0  0  0  0  0  1  0  0  0  0  0  0
  187.7550  177.5840  140.3560 O   0  0  0  0  0  0  0  0  0  0  0  0
  186.5940  178.6710  145.6700 O   0  0  0  0  0  0  0  0  0  0  0  0
  186.6520  179.0400  148.0420 C   0  0  0  0  0  1  0  0  0  0  0  0
  184.5260  178.9710  146.8150 C   0  0  0  0  0  1  0  0  0  0  0  0
  185.9240  178.3910  146.8790 C   0  0  0  0  0  3  0  0  0  0  0  0
  4 11  1  0  0  0  0
  5  4  2  0  0  0  0
  6 17  1  0  0  0  0
  6 11  2  0  0  0  0
  7  6  1  0  0  0  0
  9  7  2  0  0  0  0
  9  5  1  0  0  0  0
 10 20  1  0  0  0  0
 11 23  1  0  0  0  0
 12 14  1  1  0  0  0
 12 27  1  0  0  0  0
 12 26  1  0  0  0  0
 13  1  1  0  0  0  0
 15 17  1  6  0  0  0
 15 24  1  0  0  0  0
 16 21  1  0  0  0  0
 18 16  1  0  0  0  0
 18  2  1  1  0  0  0
 19  3  1  1  0  0  0
 19 18  1  0  0  0  0
 20 27  1  0  0  0  0
 21 37  1  6  0  0  0
 21 25  1  0  0  0  0
 22  1  1  6  0  0  0
 22 10  1  0  0  0  0
 22 14  1  0  0  0  0
 23  8  1  1  0  0  0
 23 19  1  0  0  0  0
 24 13  1  0  0  0  0
 25 26  1  0  0  0  0
 29 31  1  0  0  0  0
 31 30  1  1  0  0  0
 32 28  2  0  0  0  0
 32 29  1  0  0  0  0
 33 28  1  6  0  0  0
 33 31  1  0  0  0  0
 33 15  1  0  0  0  0
 33 30  1  0  0  0  0
 34 29  1  0  0  0  0
 34 36  1  0  0  0  0
 35 34  2  0  0  0  0
 38 44  1  0  0  0  0
 38 37  1  0  0  0  0
 40 39  1  1  0  0  0
 40 52  1  0  0  0  0
 42 49  1  6  0  0  0
 42 45  1  0  0  0  0
 42 43  1  0  0  0  0
 43 48  1  1  0  0  0
 43 40  1  0  0  0  0
 44 40  1  0  0  0  0
 44 41  1  1  0  0  0
 45 44  1  0  0  0  0
 47 48  1  0  0  0  0
 47 46  1  0  0  0  0
 48 46  1  0  0  0  0
 50 51  1  0  0  0  0
 51 49  1  0  0  0  0
 52 55  1  0  0  0  0
 54 55  1  0  0  0  0
 55 53  1  0  0  0  0
M  END
>  <MODEL>
5

>  <REMARK>
 VINA RESULT:      -6.3      2.711      9.212
  Name = 
  10 active torsions:
  status: ('A' for Active; 'I' for Inactive)
    1  A    between atoms: C_6  and  O_46
    2  A    between atoms: C_8  and  O_22
    3  A    between atoms: C_8  and  C_43
    4  A    between atoms: C_10  and  N_32
    5  A    between atoms: C_12  and  C_30
    6  A    between atoms: C_14  and  C_38
    7  A    between atoms: C_20  and  O_22
    8  A    between atoms: C_30  and  O_50
    9  A    between atoms: C_33  and  C_52
   10  A    between atoms: O_46  and  C_53
                            x       y       z     vdW  Elec       q    Type
                         _______ _______ _______ _____ _____    ______ ____

>  <TORSDO>
F 10

$$$$
=
 OpenBabel11052419273D

 55 61  0  0  1  0  0  0  0  0999 V2000
  193.8720  174.4650  144.7710 C   0  0  0  0  0  2  0  0  0  0  0  0
  194.5190  176.0450  140.7680 C   0  0  0  0  0  1  0  0  0  0  0  0
  192.5660  174.0380  139.5530 O   0  0  0  0  0  1  0  0  0  0  0  0
  189.5550  174.0000  140.5360 C   0  0  0  0  0  3  0  0  0  0  0  0
  188.1890  174.2840  140.4960 C   0  0  0  0  0  3  0  0  0  0  0  0
  189.5270  174.1730  142.9610 C   0  0  0  0  0  0  0  0  0  0  0  0
  188.1540  174.4470  142.9100 C   0  0  0  0  0  3  0  0  0  0  0  0
  191.9100  172.2750  141.4890 O   0  0  0  0  0  1  0  0  0  0  0  0
  187.4890  174.5080  141.6840 C   0  0  0  0  0  3  0  0  0  0  0  0
  195.8200  173.5610  146.0600 C   0  0  0  0  0  2  0  0  0  0  0  0
  190.2390  173.9480  141.7620 C   0  0  0  0  0  0  0  0  0  0  0  0
  196.9710  173.8820  143.5790 C   0  0  1  0  0  3  0  0  0  0  0  0
  193.0240  175.7090  144.9370 C   0  0  0  0  0  2  0  0  0  0  0  0
  196.1630  175.0980  144.0290 C   0  0  0  0  0  2  0  0  0  0  0  0
  190.8280  175.4000  144.7800 C   0  0  1  0  0  3  0  0  0  0  0  0
  194.7990  173.5510  141.4120 C   0  0  0  0  0  2  0  0  0  0  0  0
  190.1830  174.0880  144.3100 C   0  0  0  0  0  2  0  0  0  0  0  0
  193.9060  174.8060  141.4090 C   0  0  2  0  0  3  0  0  0  0  0  0
  192.5100  174.5340  140.8620 C   0  0  2  0  0  3  0  0  0  0  0  0
  197.3430  173.5810  146.0910 C   0  0  0  0  0  2  0  0  0  0  0  0
  196.0120  173.6230  140.4860 C   0  0  1  0  0  3  0  0  0  0  0  0
  195.2830  174.7510  145.2410 C   0  0  1  0  0  3  0  0  0  0  0  0
  191.7020  173.6180  141.7850 C   0  0  2  0  0  3  0  0  0  0  0  0
  191.9650  175.7020  144.0220 O   0  0  0  0  0  0  0  0  0  0  0  0
  197.2800  173.1720  141.2110 C   0  0  0  0  0  2  0  0  0  0  0  0
  197.7060  174.1690  142.2830 C   0  0  0  0  0  2  0  0  0  0  0  0
  197.9390  173.4290  144.6800 C   0  0  0  0  0  2  0  0  0  0  0  0
  188.5930  176.5630  145.6650 C   0  0  0  0  0  3  0  0  0  0  0  0
  188.1150  177.5210  143.5480 N   0  0  0  0  0  0  0  0  0  0  0  0
  190.3890  177.9240  144.3650 C   0  0  0  0  0  2  0  0  0  0  0  0
  189.5010  177.0990  143.4320 C   0  0  1  0  0  3  0  0  0  0  0  0
  187.5050  177.2160  144.8320 C   0  0  0  0  0  3  0  0  0  0  0  0
  189.8530  176.5770  144.8050 C   0  0  1  0  0  0  0  0  0  0  0  0
  187.4060  178.1510  142.4730 C   0  0  0  0  0  0  0  0  0  0  0  0
  187.8020  177.9990  141.2150 C   0  0  0  0  0  2  0  0  0  0  0  0
  186.2410  179.0380  142.7480 C   0  0  0  0  0  1  0  0  0  0  0  0
  195.7780  172.7180  139.2920 C   0  0  0  0  0  2  0  0  0  0  0  0
  194.6050  171.9630  139.4900 O   0  0  0  0  0  0  0  0  0  0  0  0
  193.1870  171.0980  137.5170 O   0  0  0  0  0  1  0  0  0  0  0  0
  193.7520  170.0480  138.2420 C   0  0  2  0  0  0  0  0  0  0  0  0
  196.1450  170.4520  138.6260 O   0  0  0  0  0  1  0  0  0  0  0  0
  193.5130  169.1670  140.4340 C   0  0  1  0  0  3  0  0  0  0  0  0
  192.6940  169.5160  139.2340 C   0  0  2  0  0  3  0  0  0  0  0  0
  194.8690  170.5990  139.1850 C   0  0  1  0  0  0  0  0  0  0  0  0
  194.7070  169.7510  140.4200 C   0  0  0  0  0  2  0  0  0  0  0  0
  190.6650  168.9210  137.9320 C   0  0  0  0  0  2  0  0  0  0  0  0
  190.4660  168.4290  139.3480 C   0  0  0  0  0  2  0  0  0  0  0  0
  191.8350  168.3660  138.7110 C   0  0  0  0  0  3  0  0  0  0  0  0
  193.0400  168.3120  141.5730 C   0  0  0  0  0  2  0  0  0  0  0  0
  192.7220  169.2800  143.5320 C   0  0  0  0  0  1  0  0  0  0  0  0
  192.0820  169.0090  142.3240 O   0  0  0  0  0  0  0  0  0  0  0  0
  194.1960  169.0680  137.3000 O   0  0  0  0  0  0  0  0  0  0  0  0
  195.5380  169.2380  135.3160 C   0  0  0  0  0  1  0  0  0  0  0  0
  193.1200  168.8270  135.1880 C   0  0  0  0  0  1  0  0  0  0  0  0
  194.2030  169.5410  135.9710 C   0  0  0  0  0  3  0  0  0  0  0  0
  1 13  1  0  0  0  0
  1 22  1  0  0  0  0
  4 11  1  0  0  0  0
  5  4  2  0  0  0  0
  5  9  1  0  0  0  0
  6 17  1  0  0  0  0
  7  6  1  0  0  0  0
  9  7  2  0  0  0  0
 10 20  1  0  0  0  0
 11 23  1  0  0  0  0
 11  6  2  0  0  0  0
 12 26  1  6  0  0  0
 12 14  1  0  0  0  0
 12 27  1  0  0  0  0
 15 17  1  6  0  0  0
 15 33  1  0  0  0  0
 18  2  1  6  0  0  0
 18 16  1  0  0  0  0
 19  3  1  6  0  0  0
 19 18  1  0  0  0  0
 19 23  1  0  0  0  0
 21 37  1  6  0  0  0
 21 25  1  0  0  0  0
 21 16  1  0  0  0  0
 22 14  1  6  0  0  0
 22 10  1  0  0  0  0
 23  8  1  6  0  0  0
 24 15  1  0  0  0  0
 24 13  1  0  0  0  0
 25 26  1  0  0  0  0
 27 20  1  0  0  0  0
 29 32  1  0  0  0  0
 31 29  1  0  0  0  0
 31 30  1  1  0  0  0
 31 33  1  0  0  0  0
 32 28  2  0  0  0  0
 33 30  1  1  0  0  0
 33 28  1  0  0  0  0
 34 36  1  0  0  0  0
 34 29  1  0  0  0  0
 35 34  2  0  0  0  0
 37 38  1  0  0  0  0
 40 39  1  6  0  0  0
 40 44  1  0  0  0  0
 40 43  1  0  0  0  0
 42 49  1  1  0  0  0
 43 48  1  6  0  0  0
 43 42  1  0  0  0  0
 44 41  1  6  0  0  0
 44 38  1  0  0  0  0
 44 45  1  0  0  0  0
 45 42  1  0  0  0  0
 46 48  1  0  0  0  0
 46 47  1  0  0  0  0
 48 47  1  0  0  0  0
 49 51  1  0  0  0  0
 51 50  1  0  0  0  0
 52 40  1  0  0  0  0
 53 55  1  0  0  0  0
 54 55  1  0  0  0  0
 55 52  1  0  0  0  0
M  END
>  <MODEL>
6

>  <REMARK>
 VINA RESULT:      -6.2      2.425      6.811
  Name = 
  10 active torsions:
  status: ('A' for Active; 'I' for Inactive)
    1  A    between atoms: C_6  and  O_46
    2  A    between atoms: C_8  and  O_22
    3  A    between atoms: C_8  and  C_43
    4  A    between atoms: C_10  and  N_32
    5  A    between atoms: C_12  and  C_30
    6  A    between atoms: C_14  and  C_38
    7  A    between atoms: C_20  and  O_22
    8  A    between atoms: C_30  and  O_50
    9  A    between atoms: C_33  and  C_52
   10  A    between atoms: O_46  and  C_53
                            x       y       z     vdW  Elec       q    Type
                         _______ _______ _______ _____ _____    ______ ____

>  <TORSDO>
F 10

$$$$
=
 OpenBabel11052419273D

 55 61  0  0  1  0  0  0  0  0999 V2000
  194.3090  174.4720  141.7570 C   0  0  0  0  0  2  0  0  0  0  0  0
  191.5970  172.1260  144.2220 C   0  0  0  0  0  1  0  0  0  0  0  0
  189.2410  172.7270  142.3770 O   0  0  0  0  0  1  0  0  0  0  0  0
  189.3910  171.8820  139.3280 C   0  0  0  0  0  3  0  0  0  0  0  0
  189.1580  171.0880  138.2050 C   0  0  0  0  0  3  0  0  0  0  0  0
  191.5890  172.4660  138.4670 C   0  0  0  0  0  0  0  0  0  0  0  0
  191.3400  171.6740  137.3380 C   0  0  0  0  0  3  0  0  0  0  0  0
  190.0570  174.5940  140.6060 O   0  0  0  0  0  1  0  0  0  0  0  0
  190.1330  170.9840  137.2100 C   0  0  0  0  0  3  0  0  0  0  0  0
  195.5170  176.4150  142.7740 C   0  0  0  0  0  2  0  0  0  0  0  0
  190.6060  172.5710  139.4760 C   0  0  0  0  0  0  0  0  0  0  0  0
  193.7360  175.8270  144.7900 C   0  0  1  0  0  3  0  0  0  0  0  0
  194.7760  173.1110  141.2810 C   0  0  0  0  0  2  0  0  0  0  0  0
  194.4510  174.5930  144.2390 C   0  0  0  0  0  2  0  0  0  0  0  0
  194.0010  172.4700  139.2990 C   0  0  1  0  0  3  0  0  0  0  0  0
  191.1900  174.5970  143.5550 C   0  0  0  0  0  2  0  0  0  0  0  0
  192.8910  173.2110  138.5370 C   0  0  0  0  0  2  0  0  0  0  0  0
  191.5030  173.1570  143.1040 C   0  0  2  0  0  3  0  0  0  0  0  0
  190.5850  172.6770  141.9860 C   0  0  2  0  0  3  0  0  0  0  0  0
  195.9060  177.0040  144.1240 C   0  0  0  0  0  2  0  0  0  0  0  0
  190.6870  174.7250  144.9920 C   0  0  1  0  0  3  0  0  0  0  0  0
  195.1680  174.9220  142.9200 C   0  0  1  0  0  3  0  0  0  0  0  0
  190.8280  173.4380  140.6800 C   0  0  2  0  0  3  0  0  0  0  0  0
  193.7240  172.4210  140.6700 O   0  0  0  0  0  0  0  0  0  0  0  0
  191.4300  175.8360  145.7330 C   0  0  0  0  0  2  0  0  0  0  0  0
  192.8870  175.4670  145.9940 C   0  0  0  0  0  2  0  0  0  0  0  0
  194.7400  176.9360  145.1270 C   0  0  0  0  0  2  0  0  0  0  0  0
  193.7580  169.8140  139.4200 C   0  0  0  0  0  3  0  0  0  0  0  0
  195.9820  169.4600  138.6770 N   0  0  0  0  0  0  0  0  0  0  0  0
  194.6650  170.9800  137.2800 C   0  0  0  0  0  2  0  0  0  0  0  0
  195.7330  170.8580  138.3690 C   0  0  1  0  0  3  0  0  0  0  0  0
  194.8680  168.7840  139.3220 C   0  0  0  0  0  3  0  0  0  0  0  0
  194.2860  171.0750  138.7440 C   0  0  1  0  0  0  0  0  0  0  0  0
  197.2340  168.8180  138.3990 C   0  0  0  0  0  0  0  0  0  0  0  0
  197.9410  168.2560  139.3710 C   0  0  0  0  0  2  0  0  0  0  0  0
  197.7980  168.8180  137.0200 C   0  0  0  0  0  1  0  0  0  0  0  0
  189.2060  175.0510  144.9710 C   0  0  0  0  0  2  0  0  0  0  0  0
  188.9380  175.9750  143.9420 O   0  0  0  0  0  0  0  0  0  0  0  0
  188.2150  177.7880  142.2550 O   0  0  0  0  0  1  0  0  0  0  0  0
  187.1160  177.1010  142.7710 C   0  0  2  0  0  0  0  0  0  0  0  0
  187.4890  174.6750  142.6720 O   0  0  0  0  0  1  0  0  0  0  0  0
  186.0830  176.8900  144.9000 C   0  0  1  0  0  3  0  0  0  0  0  0
  186.5160  177.9360  143.9250 C   0  0  2  0  0  3  0  0  0  0  0  0
  187.5990  175.8030  143.4950 C   0  0  1  0  0  0  0  0  0  0  0  0
  186.6660  175.7170  144.6760 C   0  0  0  0  0  2  0  0  0  0  0  0
  185.6770  180.2660  144.1120 C   0  0  0  0  0  2  0  0  0  0  0  0
  184.6510  179.3530  144.7450 C   0  0  0  0  0  2  0  0  0  0  0  0
  185.4070  178.9040  143.5160 C   0  0  0  0  0  3  0  0  0  0  0  0
  185.1510  177.1280  146.0510 C   0  0  0  0  0  2  0  0  0  0  0  0
  186.3240  178.0540  147.6770 C   0  0  0  0  0  1  0  0  0  0  0  0
  185.8010  176.8320  147.2580 O   0  0  0  0  0  0  0  0  0  0  0  0
  186.2040  176.8790  141.6930 O   0  0  0  0  0  0  0  0  0  0  0  0
  186.7860  176.9450  139.3640 C   0  0  0  0  0  1  0  0  0  0  0  0
  185.1380  178.5000  140.3100 C   0  0  0  0  0  1  0  0  0  0  0  0
  186.4190  177.7450  140.6000 C   0  0  0  0  0  3  0  0  0  0  0  0
  4 11  1  0  0  0  0
  5  4  2  0  0  0  0
  6 17  1  0  0  0  0
  6 11  2  0  0  0  0
  7  6  1  0  0  0  0
  9  7  2  0  0  0  0
  9  5  1  0  0  0  0
 10 22  1  0  0  0  0
 10 20  1  0  0  0  0
 11 23  1  0  0  0  0
 12 14  1  1  0  0  0
 12 27  1  0  0  0  0
 12 26  1  0  0  0  0
 13  1  1  0  0  0  0
 15 17  1  6  0  0  0
 15 24  1  0  0  0  0
 16 21  1  0  0  0  0
 18 16  1  0  0  0  0
 18  2  1  1  0  0  0
 19  3  1  1  0  0  0
 19 18  1  0  0  0  0
 20 27  1  0  0  0  0
 21 37  1  6  0  0  0
 21 25  1  0  0  0  0
 22  1  1  6  0  0  0
 22 14  1  0  0  0  0
 23  8  1  6  0  0  0
 23 19  1  0  0  0  0
 24 13  1  0  0  0  0
 25 26  1  0  0  0  0
 29 32  1  0  0  0  0
 31 30  1  6  0  0  0
 31 29  1  0  0  0  0
 31 33  1  0  0  0  0
 32 28  2  0  0  0  0
 33 30  1  6  0  0  0
 33 15  1  0  0  0  0
 33 28  1  0  0  0  0
 34 29  1  0  0  0  0
 34 35  2  0  0  0  0
 36 34  1  0  0  0  0
 38 37  1  0  0  0  0
 40 39  1  6  0  0  0
 40 44  1  0  0  0  0
 40 43  1  0  0  0  0
 42 49  1  1  0  0  0
 43 48  1  6  0  0  0
 43 42  1  0  0  0  0
 44 41  1  6  0  0  0
 44 38  1  0  0  0  0
 44 45  1  0  0  0  0
 45 42  1  0  0  0  0
 46 47  1  0  0  0  0
 48 46  1  0  0  0  0
 48 47  1  0  0  0  0
 49 51  1  0  0  0  0
 51 50  1  0  0  0  0
 52 40  1  0  0  0  0
 53 55  1  0  0  0  0
 54 55  1  0  0  0  0
 55 52  1  0  0  0  0
M  END
>  <MODEL>
7

>  <REMARK>
 VINA RESULT:      -6.0      3.067     10.035
  Name = 
  10 active torsions:
  status: ('A' for Active; 'I' for Inactive)
    1  A    between atoms: C_6  and  O_46
    2  A    between atoms: C_8  and  O_22
    3  A    between atoms: C_8  and  C_43
    4  A    between atoms: C_10  and  N_32
    5  A    between atoms: C_12  and  C_30
    6  A    between atoms: C_14  and  C_38
    7  A    between atoms: C_20  and  O_22
    8  A    between atoms: C_30  and  O_50
    9  A    between atoms: C_33  and  C_52
   10  A    between atoms: O_46  and  C_53
                            x       y       z     vdW  Elec       q    Type
                         _______ _______ _______ _____ _____    ______ ____

>  <TORSDO>
F 10

$$$$
=
 OpenBabel11052419273D

 55 61  0  0  1  0  0  0  0  0999 V2000
  195.2070  173.8570  141.0020 C   0  0  0  0  0  2  0  0  0  0  0  0
  192.8550  170.4240  142.2750 C   0  0  0  0  0  1  0  0  0  0  0  0
  190.2390  171.8270  141.5620 O   0  0  0  0  0  1  0  0  0  0  0  0
  189.7480  172.7920  138.5850 C   0  0  0  0  0  3  0  0  0  0  0  0
  189.2500  172.7310  137.2820 C   0  0  0  0  0  3  0  0  0  0  0  0
  191.7770  173.8510  137.7660 C   0  0  0  0  0  0  0  0  0  0  0  0
  191.2630  173.7940  136.4640 C   0  0  0  0  0  3  0  0  0  0  0  0
  190.8330  174.3930  140.9700 O   0  0  0  0  0  1  0  0  0  0  0  0
  190.0080  173.2320  136.2220 C   0  0  0  0  0  3  0  0  0  0  0  0
  196.7210  174.9830  142.6500 C   0  0  0  0  0  2  0  0  0  0  0  0
  191.0140  173.3430  138.8400 C   0  0  0  0  0  0  0  0  0  0  0  0
  195.3190  173.3070  144.3270 C   0  0  1  0  0  3  0  0  0  0  0  0
  195.4780  173.0000  139.7830 C   0  0  0  0  0  2  0  0  0  0  0  0
  195.8270  172.6100  143.0660 C   0  0  0  0  0  2  0  0  0  0  0  0
  194.2980  173.5110  137.9700 C   0  0  1  0  0  3  0  0  0  0  0  0
  192.5040  172.8370  143.1540 C   0  0  0  0  0  2  0  0  0  0  0  0
  193.1190  174.4960  137.9700 C   0  0  0  0  0  2  0  0  0  0  0  0
  192.6230  171.8930  141.9410 C   0  0  2  0  0  3  0  0  0  0  0  0
  191.4780  172.0600  140.9500 C   0  0  2  0  0  3  0  0  0  0  0  0
  197.4000  174.7560  143.9950 C   0  0  0  0  0  2  0  0  0  0  0  0
  192.2930  172.1360  144.4950 C   0  0  1  0  0  3  0  0  0  0  0  0
  196.3020  173.6370  142.0260 C   0  0  1  0  0  3  0  0  0  0  0  0
  191.5210  173.4210  140.2500 C   0  0  2  0  0  3  0  0  0  0  0  0
  194.2830  172.7090  139.1170 O   0  0  0  0  0  0  0  0  0  0  0  0
  193.2410  172.6950  145.5560 C   0  0  0  0  0  2  0  0  0  0  0  0
  194.6910  172.3100  145.2820 C   0  0  0  0  0  2  0  0  0  0  0  0
  196.4440  174.0980  145.0060 C   0  0  0  0  0  2  0  0  0  0  0  0
  193.6640  171.3150  136.5910 C   0  0  0  0  0  3  0  0  0  0  0  0
  195.8110  171.1800  135.5930 N   0  0  0  0  0  0  0  0  0  0  0  0
  194.7340  173.3730  135.4150 C   0  0  0  0  0  2  0  0  0  0  0  0
  195.7720  172.5220  136.1500 C   0  0  1  0  0  3  0  0  0  0  0  0
  194.6090  170.3990  135.8350 C   0  0  0  0  0  3  0  0  0  0  0  0
  194.3730  172.6610  136.7030 C   0  0  1  0  0  0  0  0  0  0  0  0
  196.9540  170.6660  134.8970 C   0  0  0  0  0  0  0  0  0  0  0  0
  197.9370  171.4710  134.5140 C   0  0  0  0  0  2  0  0  0  0  0  0
  197.0380  169.2220  134.5370 C   0  0  0  0  0  1  0  0  0  0  0  0
  190.8630  172.3530  144.9470 C   0  0  0  0  0  2  0  0  0  0  0  0
  190.3430  173.5140  144.3420 O   0  0  0  0  0  0  0  0  0  0  0  0
  188.9860  175.5100  143.4310 O   0  0  0  0  0  1  0  0  0  0  0  0
  189.5350  175.7920  144.6820 C   0  0  2  0  0  0  0  0  0  0  0  0
  189.0960  173.9550  146.2530 O   0  0  0  0  0  1  0  0  0  0  0  0
  191.7250  176.0650  145.5610 C   0  0  1  0  0  3  0  0  0  0  0  0
  190.8440  176.5870  144.4730 C   0  0  2  0  0  3  0  0  0  0  0  0
  190.0340  174.4700  145.3490 C   0  0  1  0  0  0  0  0  0  0  0  0
  191.2940  174.9080  146.0510 C   0  0  0  0  0  2  0  0  0  0  0  0
  190.1960  178.5660  143.1210 C   0  0  0  0  0  2  0  0  0  0  0  0
  191.6550  178.7140  143.4860 C   0  0  0  0  0  2  0  0  0  0  0  0
  190.6860  178.1060  144.4740 C   0  0  0  0  0  3  0  0  0  0  0  0
  192.9950  176.7190  146.0180 C   0  0  0  0  0  2  0  0  0  0  0  0
  195.0370  177.3720  145.4880 C   0  0  0  0  0  1  0  0  0  0  0  0
  193.8420  176.9330  144.9210 O   0  0  0  0  0  0  0  0  0  0  0  0
  188.5490  176.5040  145.4330 O   0  0  0  0  0  0  0  0  0  0  0  0
  186.1760  176.4040  145.7920 C   0  0  0  0  0  1  0  0  0  0  0  0
  187.1510  177.9240  144.1280 C   0  0  0  0  0  1  0  0  0  0  0  0
  187.2980  176.5660  144.7830 C   0  0  0  0  0  3  0  0  0  0  0  0
  4 11  1  0  0  0  0
  5  4  2  0  0  0  0
  6 17  1  0  0  0  0
  6 11  2  0  0  0  0
  7  6  1  0  0  0  0
  9  7  2  0  0  0  0
  9  5  1  0  0  0  0
 10 20  1  0  0  0  0
 11 23  1  0  0  0  0
 12 14  1  6  0  0  0
 12 27  1  0  0  0  0
 12 26  1  0  0  0  0
 13  1  1  0  0  0  0
 15 17  1  6  0  0  0
 15 24  1  0  0  0  0
 16 21  1  0  0  0  0
 18  2  1  1  0  0  0
 18 16  1  0  0  0  0
 19  3  1  1  0  0  0
 19 18  1  0  0  0  0
 20 27  1  0  0  0  0
 21 37  1  1  0  0  0
 21 25  1  0  0  0  0
 22  1  1  6  0  0  0
 22 10  1  0  0  0  0
 22 14  1  0  0  0  0
 23 19  1  0  0  0  0
 23  8  1  1  0  0  0
 24 13  1  0  0  0  0
 26 25  1  0  0  0  0
 28 33  1  0  0  0  0
 29 32  1  0  0  0  0
 29 31  1  0  0  0  0
 31 30  1  6  0  0  0
 31 33  1  0  0  0  0
 32 28  2  0  0  0  0
 33 30  1  6  0  0  0
 33 15  1  0  0  0  0
 34 29  1  0  0  0  0
 35 34  2  0  0  0  0
 36 34  1  0  0  0  0
 38 37  1  0  0  0  0
 38 44  1  0  0  0  0
 40 39  1  6  0  0  0
 40 44  1  0  0  0  0
 40 52  1  0  0  0  0
 42 49  1  6  0  0  0
 42 45  1  0  0  0  0
 43 48  1  1  0  0  0
 43 40  1  0  0  0  0
 43 42  1  0  0  0  0
 44 45  1  0  0  0  0
 44 41  1  1  0  0  0
 46 47  1  0  0  0  0
 46 48  1  0  0  0  0
 47 48  1  0  0  0  0
 51 50  1  0  0  0  0
 51 49  1  0  0  0  0
 54 55  1  0  0  0  0
 55 52  1  0  0  0  0
 55 53  1  0  0  0  0
M  END
>  <MODEL>
8

>  <REMARK>
 VINA RESULT:      -5.8      3.175      9.046
  Name = 
  10 active torsions:
  status: ('A' for Active; 'I' for Inactive)
    1  A    between atoms: C_6  and  O_46
    2  A    between atoms: C_8  and  O_22
    3  A    between atoms: C_8  and  C_43
    4  A    between atoms: C_10  and  N_32
    5  A    between atoms: C_12  and  C_30
    6  A    between atoms: C_14  and  C_38
    7  A    between atoms: C_20  and  O_22
    8  A    between atoms: C_30  and  O_50
    9  A    between atoms: C_33  and  C_52
   10  A    between atoms: O_46  and  C_53
                            x       y       z     vdW  Elec       q    Type
                         _______ _______ _______ _____ _____    ______ ____

>  <TORSDO>
F 10

$$$$
=
 OpenBabel11052419273D

 55 61  0  0  1  0  0  0  0  0999 V2000
  193.0910  175.6410  143.7710 C   0  0  0  0  0  2  0  0  0  0  0  0
  190.4510  172.1850  143.9470 C   0  0  0  0  0  1  0  0  0  0  0  0
  191.4290  171.1760  141.2380 O   0  0  0  0  0  1  0  0  0  0  0  0
  194.5030  170.5270  140.8310 C   0  0  0  0  0  3  0  0  0  0  0  0
  195.6450  169.7290  140.7490 C   0  0  0  0  0  3  0  0  0  0  0  0
  195.8130  172.3120  141.8330 C   0  0  0  0  0  0  0  0  0  0  0  0
  196.9560  171.5070  141.7360 C   0  0  0  0  0  3  0  0  0  0  0  0
  192.9790  173.1090  140.1650 O   0  0  0  0  0  1  0  0  0  0  0  0
  196.8720  170.2200  141.2020 C   0  0  0  0  0  3  0  0  0  0  0  0
  192.1050  177.9400  143.8690 C   0  0  0  0  0  2  0  0  0  0  0  0
  194.5710  171.8180  141.3780 C   0  0  0  0  0  0  0  0  0  0  0  0
  189.8210  176.4340  143.5620 C   0  0  1  0  0  3  0  0  0  0  0  0
  193.9210  174.8390  144.7530 C   0  0  0  0  0  2  0  0  0  0  0  0
  190.7660  175.8830  144.6290 C   0  0  0  0  0  2  0  0  0  0  0  0
  195.6950  173.8110  143.8950 C   0  0  1  0  0  3  0  0  0  0  0  0
  190.5100  173.8740  141.9820 C   0  0  0  0  0  2  0  0  0  0  0  0
  195.9700  173.7000  142.3870 C   0  0  0  0  0  2  0  0  0  0  0  0
  191.2890  172.9160  142.9050 C   0  0  2  0  0  3  0  0  0  0  0  0
  192.1780  171.9490  142.1340 C   0  0  2  0  0  3  0  0  0  0  0  0
  190.8300  178.6760  144.2620 C   0  0  0  0  0  2  0  0  0  0  0  0
  188.9920  173.7020  142.0120 C   0  0  1  0  0  3  0  0  0  0  0  0
  192.1480  176.5500  144.5310 C   0  0  1  0  0  3  0  0  0  0  0  0
  193.3360  172.6680  141.4360 C   0  0  2  0  0  3  0  0  0  0  0  0
  194.3340  173.6360  144.1730 O   0  0  0  0  0  0  0  0  0  0  0  0
  188.2930  175.0530  142.1600 C   0  0  0  0  0  2  0  0  0  0  0  0
  188.5170  175.6590  143.5420 C   0  0  0  0  0  2  0  0  0  0  0  0
  189.5750  177.9330  143.7700 C   0  0  0  0  0  2  0  0  0  0  0  0
  197.8780  172.3100  144.2220 C   0  0  0  0  0  3  0  0  0  0  0  0
  196.6850  170.6220  145.3850 N   0  0  0  0  0  0  0  0  0  0  0  0
  196.3380  172.8930  146.2350 C   0  0  0  0  0  2  0  0  0  0  0  0
  195.7720  171.7530  145.3850 C   0  0  1  0  0  3  0  0  0  0  0  0
  197.9410  170.8680  144.6950 C   0  0  0  0  0  3  0  0  0  0  0  0
  196.5550  172.8700  144.7360 C   0  0  1  0  0  0  0  0  0  0  0  0
  196.3540  169.3620  145.9850 C   0  0  0  0  0  0  0  0  0  0  0  0
  196.6230  169.1250  147.2630 C   0  0  0  0  0  2  0  0  0  0  0  0
  195.7510  168.2680  145.1710 C   0  0  0  0  0  1  0  0  0  0  0  0
  188.5430  173.0530  140.7170 C   0  0  0  0  0  2  0  0  0  0  0  0
  189.2290  173.6340  139.6320 O   0  0  0  0  0  0  0  0  0  0  0  0
  191.0660  172.7610  138.0440 O   0  0  0  0  0  1  0  0  0  0  0  0
  189.8540  172.9430  137.3760 C   0  0  2  0  0  0  0  0  0  0  0  0
  188.0100  171.9210  138.6380 O   0  0  0  0  0  1  0  0  0  0  0  0
  188.4820  174.7950  136.8040 C   0  0  1  0  0  3  0  0  0  0  0  0
  189.8900  174.3130  136.6630 C   0  0  2  0  0  3  0  0  0  0  0  0
  188.7010  173.1200  138.4150 C   0  0  1  0  0  0  0  0  0  0  0  0
  187.8190  174.1500  137.7580 C   0  0  0  0  0  2  0  0  0  0  0  0
  191.9070  174.3210  135.2150 C   0  0  0  0  0  2  0  0  0  0  0  0
  191.1160  175.5740  134.9130 C   0  0  0  0  0  2  0  0  0  0  0  0
  190.3960  174.2820  135.2230 C   0  0  0  0  0  3  0  0  0  0  0  0
  187.8840  175.9240  136.0180 C   0  0  0  0  0  2  0  0  0  0  0  0
  185.7200  176.0950  135.6120 C   0  0  0  0  0  1  0  0  0  0  0  0
  186.6730  176.3210  136.6040 O   0  0  0  0  0  0  0  0  0  0  0  0
  189.6880  171.8390  136.4820 O   0  0  0  0  0  0  0  0  0  0  0  0
  190.1100  169.5780  137.1730 C   0  0  0  0  0  1  0  0  0  0  0  0
  191.2790  170.5630  135.2510 C   0  0  0  0  0  1  0  0  0  0  0  0
  190.6970  170.8620  136.6170 C   0  0  0  0  0  3  0  0  0  0  0  0
  1 13  1  0  0  0  0
  4 11  1  0  0  0  0
  5  4  2  0  0  0  0
  5  9  1  0  0  0  0
  6 17  1  0  0  0  0
  7  6  1  0  0  0  0
  9  7  2  0  0  0  0
 10 20  1  0  0  0  0
 10 22  1  0  0  0  0
 11 23  1  0  0  0  0
 11  6  2  0  0  0  0
 12 26  1  1  0  0  0
 12 27  1  0  0  0  0
 12 14  1  0  0  0  0
 15 17  1  6  0  0  0
 15 24  1  0  0  0  0
 15 33  1  0  0  0  0
 16 21  1  0  0  0  0
 16 18  1  0  0  0  0
 18  2  1  6  0  0  0
 19  3  1  6  0  0  0
 19 18  1  0  0  0  0
 21 37  1  6  0  0  0
 21 25  1  0  0  0  0
 22  1  1  6  0  0  0
 22 14  1  0  0  0  0
 23  8  1  6  0  0  0
 23 19  1  0  0  0  0
 24 13  1  0  0  0  0
 25 26  1  0  0  0  0
 27 20  1  0  0  0  0
 28 32  2  0  0  0  0
 29 34  1  0  0  0  0
 31 29  1  0  0  0  0
 31 30  1  1  0  0  0
 32 29  1  0  0  0  0
 33 28  1  6  0  0  0
 33 31  1  0  0  0  0
 33 30  1  0  0  0  0
 34 35  2  0  0  0  0
 36 34  1  0  0  0  0
 38 37  1  0  0  0  0
 40 39  1  1  0  0  0
 40 44  1  0  0  0  0
 42 49  1  1  0  0  0
 42 45  1  0  0  0  0
 43 48  1  6  0  0  0
 43 42  1  0  0  0  0
 43 40  1  0  0  0  0
 44 41  1  1  0  0  0
 44 38  1  0  0  0  0
 45 44  1  0  0  0  0
 46 48  1  0  0  0  0
 47 46  1  0  0  0  0
 47 48  1  0  0  0  0
 49 51  1  0  0  0  0
 50 51  1  0  0  0  0
 52 55  1  0  0  0  0
 52 40  1  0  0  0  0
 54 55  1  0  0  0  0
 55 53  1  0  0  0  0
M  END
>  <MODEL>
9

>  <REMARK>
 VINA RESULT:      -5.5      2.949      8.907
  Name = 
  10 active torsions:
  status: ('A' for Active; 'I' for Inactive)
    1  A    between atoms: C_6  and  O_46
    2  A    between atoms: C_8  and  O_22
    3  A    between atoms: C_8  and  C_43
    4  A    between atoms: C_10  and  N_32
    5  A    between atoms: C_12  and  C_30
    6  A    between atoms: C_14  and  C_38
    7  A    between atoms: C_20  and  O_22
    8  A    between atoms: C_30  and  O_50
    9  A    between atoms: C_33  and  C_52
   10  A    between atoms: O_46  and  C_53
                            x       y       z     vdW  Elec       q    Type
                         _______ _______ _______ _____ _____    ______ ____

>  <TORSDO>
F 10

$$$$
