=
 OpenBabel11052419093D

 32 37  0  0  1  0  0  0  0  0999 V2000
  191.6650  176.1080  146.8340 C   0  0  0  0  0  0  0  0  0  0  0  0
  193.1090  175.7010  146.5020 C   0  0  1  0  0  3  0  0  0  0  0  0
  191.5200  177.1550  147.9210 C   0  0  0  0  0  2  0  0  0  0  0  0
  190.5350  173.2800  144.3980 C   0  0  0  0  0  2  0  0  0  0  0  0
  192.9900  171.9680  143.4460 C   0  0  0  0  0  3  0  0  0  0  0  0
  191.5380  174.0730  143.5720 C   0  0  2  0  0  3  0  0  0  0  0  0
  193.8450  175.8130  142.9640 C   0  0  2  0  0  3  0  0  0  0  0  0
  192.9430  173.4460  143.6640 C   0  0  2  0  0  0  0  0  0  0  0  0
  193.0920  174.2940  145.9160 C   0  0  0  0  0  2  0  0  0  0  0  0
  194.1030  174.3090  143.2200 C   0  0  2  0  0  3  0  0  0  0  0  0
  193.7030  176.6340  145.6520 O   0  0  0  0  0  1  0  0  0  0  0  0
  193.9770  173.8850  144.7200 C   0  0  2  0  0  3  0  0  0  0  0  0
  191.0300  176.3530  144.4780 N   0  0  0  0  0  0  0  0  0  0  0  0
  191.8740  171.2330  143.5980 C   0  0  0  0  0  3  0  0  0  0  0  0
  190.5310  175.9320  145.7800 C   0  0  2  0  0  3  0  0  0  0  0  0
  192.4750  176.1180  142.7110 O   0  0  0  0  0  0  0  0  0  0  0  0
  190.5050  171.8320  143.8820 C   0  0  0  0  0  2  0  0  0  0  0  0
  191.2570  175.6880  148.2300 C   0  0  0  0  0  2  0  0  0  0  0  0
  191.5580  175.5740  143.5820 C   0  0  0  0  0  0  0  0  0  0  0  0
  186.8450  176.3320  146.9240 C   0  0  0  0  0  2  0  0  0  0  0  0
  187.4090  178.2090  145.3330 C   0  0  0  0  0  2  0  0  0  0  0  0
  189.2090  176.6420  146.1220 C   0  0  1  0  0  3  0  0  0  0  0  0
  186.3430  177.1830  145.7580 C   0  0  2  0  0  3  0  0  0  0  0  0
  188.6970  177.4910  144.9500 C   0  0  0  0  0  2  0  0  0  0  0  0
  188.1460  175.6250  146.5520 C   0  0  1  0  0  3  0  0  0  0  0  0
  188.5920  174.9090  147.6480 F   0  0  0  0  0  0  0  0  0  0  0  0
  185.1130  178.6100  147.2780 C   0  0  0  0  0  1  0  0  0  0  0  0
  184.6370  178.6420  144.9740 C   0  0  0  0  0  1  0  0  0  0  0  0
  185.0390  177.7830  146.0780 N   0  0  0  0  0  0  0  0  0  0  0  0
  194.7050  176.2880  141.8090 C   0  0  0  0  0  2  0  0  0  0  0  0
  196.7790  176.7700  143.0680 C   0  0  0  0  0  1  0  0  0  0  0  0
  196.1470  175.8730  142.0250 C   0  0  0  0  0  2  0  0  0  0  0  0
  1  3  1  0  0  0  0
  1 18  1  0  0  0  0
  2 11  1  6  0  0  0
  2  1  1  0  0  0  0
  3 18  1  0  0  0  0
  5 14  2  0  0  0  0
  6 19  1  0  0  0  0
  6  8  1  0  0  0  0
  6  4  1  1  0  0  0
  7 30  1  6  0  0  0
  7 10  1  0  0  0  0
  8  5  1  6  0  0  0
  8 12  1  0  0  0  0
  9  2  1  0  0  0  0
 10  8  1  0  0  0  0
 10 12  1  0  0  0  0
 12  9  1  0  0  0  0
 13 15  1  0  0  0  0
 14 17  1  0  0  0  0
 15 22  1  0  0  0  0
 15  1  1  0  0  0  0
 16  7  1  0  0  0  0
 16 19  1  0  0  0  0
 17  4  1  0  0  0  0
 19 13  2  0  0  0  0
 21 23  1  0  0  0  0
 22 25  1  0  0  0  0
 23 29  1  0  0  0  0
 23 20  1  0  0  0  0
 24 21  1  0  0  0  0
 24 22  1  0  0  0  0
 25 20  1  0  0  0  0
 25 26  1  0  0  0  0
 28 29  1  0  0  0  0
 29 27  1  0  0  0  0
 30 32  1  0  0  0  0
 32 31  1  0  0  0  0
M  END
>  <MODEL>
1

>  <REMARK>
 VINA RESULT:      -7.7      0.000      0.000
  Name = 
  4 active torsions:
  status: ('A' for Active; 'I' for Inactive)
    1  A    between atoms: C_11  and  C_12
    2  A    between atoms: C_11  and  C_31
    3  A    between atoms: C_16  and  C_27
    4  A    between atoms: C_19  and  N_26
                            x       y       z     vdW  Elec       q    Type
                         _______ _______ _______ _____ _____    ______ ____

>  <TORSDO>
F 4

$$$$
=
 OpenBabel11052419093D

 32 37  0  0  1  0  0  0  0  0999 V2000
  191.3970  176.0140  145.7820 C   0  0  0  0  0  0  0  0  0  0  0  0
  192.8130  175.8630  146.3610 C   0  0  1  0  0  3  0  0  0  0  0  0
  190.5060  177.0080  146.5000 C   0  0  0  0  0  2  0  0  0  0  0  0
  192.2920  173.0640  143.3940 C   0  0  0  0  0  2  0  0  0  0  0  0
  195.0100  172.2000  144.1150 C   0  0  0  0  0  3  0  0  0  0  0  0
  193.4580  174.0250  143.2130 C   0  0  2  0  0  3  0  0  0  0  0  0
  195.4130  176.1400  143.8660 C   0  0  2  0  0  3  0  0  0  0  0  0
  194.6310  173.6460  144.1380 C   0  0  2  0  0  0  0  0  0  0  0  0
  193.3400  174.4810  145.9950 C   0  0  0  0  0  2  0  0  0  0  0  0
  195.6950  174.6990  144.3530 C   0  0  2  0  0  3  0  0  0  0  0  0
  193.6410  176.8940  145.9180 O   0  0  0  0  0  1  0  0  0  0  0  0
  194.7970  174.2420  145.5500 C   0  0  2  0  0  3  0  0  0  0  0  0
  192.1960  176.1750  143.4690 N   0  0  0  0  0  0  0  0  0  0  0  0
  194.1300  171.2840  143.6740 C   0  0  0  0  0  3  0  0  0  0  0  0
  191.1110  175.6600  144.2920 C   0  0  2  0  0  3  0  0  0  0  0  0
  194.4070  176.2110  142.8570 O   0  0  0  0  0  0  0  0  0  0  0  0
  192.7740  171.6380  143.0810 C   0  0  0  0  0  2  0  0  0  0  0  0
  190.3310  175.5140  146.7340 C   0  0  0  0  0  2  0  0  0  0  0  0
  193.2480  175.5080  143.1000 C   0  0  0  0  0  0  0  0  0  0  0  0
  187.6870  175.4660  142.4770 C   0  0  0  0  0  2  0  0  0  0  0  0
  188.4970  177.8560  142.4290 C   0  0  0  0  0  2  0  0  0  0  0  0
  189.7440  176.1300  143.7630 C   0  0  1  0  0  3  0  0  0  0  0  0
  187.8140  176.7320  141.6290 C   0  0  2  0  0  3  0  0  0  0  0  0
  189.8690  177.3960  142.9040 C   0  0  0  0  0  2  0  0  0  0  0  0
  189.0570  175.0110  142.9720 C   0  0  1  0  0  3  0  0  0  0  0  0
  188.8930  173.8960  143.7750 F   0  0  0  0  0  0  0  0  0  0  0  0
  186.0000  178.3340  141.6830 C   0  0  0  0  0  1  0  0  0  0  0  0
  186.6720  177.3700  139.6450 C   0  0  0  0  0  1  0  0  0  0  0  0
  186.5100  177.1120  141.0670 N   0  0  0  0  0  0  0  0  0  0  0  0
  196.6980  176.7690  143.3620 C   0  0  0  0  0  2  0  0  0  0  0  0
  197.6240  175.5450  141.4220 C   0  0  0  0  0  1  0  0  0  0  0  0
  197.6720  175.6910  142.9290 C   0  0  0  0  0  2  0  0  0  0  0  0
  1  2  1  0  0  0  0
  1  3  1  0  0  0  0
  1 18  1  0  0  0  0
  2 11  1  6  0  0  0
  3 18  1  0  0  0  0
  6  4  1  1  0  0  0
  6  8  1  0  0  0  0
  7 30  1  6  0  0  0
  7 10  1  0  0  0  0
  8  5  1  6  0  0  0
  8 10  1  0  0  0  0
  8 12  1  0  0  0  0
  9  2  1  0  0  0  0
 10 12  1  0  0  0  0
 12  9  1  0  0  0  0
 13 15  1  0  0  0  0
 14  5  2  0  0  0  0
 15  1  1  0  0  0  0
 16 19  1  0  0  0  0
 16  7  1  0  0  0  0
 17  4  1  0  0  0  0
 17 14  1  0  0  0  0
 19  6  1  0  0  0  0
 19 13  2  0  0  0  0
 20 25  1  0  0  0  0
 21 24  1  0  0  0  0
 22 15  1  0  0  0  0
 23 21  1  0  0  0  0
 23 20  1  0  0  0  0
 24 22  1  0  0  0  0
 25 22  1  0  0  0  0
 25 26  1  0  0  0  0
 28 29  1  0  0  0  0
 29 23  1  0  0  0  0
 29 27  1  0  0  0  0
 31 32  1  0  0  0  0
 32 30  1  0  0  0  0
M  END
>  <MODEL>
2

>  <REMARK>
 VINA RESULT:      -7.5      2.340      2.829
  Name = 
  4 active torsions:
  status: ('A' for Active; 'I' for Inactive)
    1  A    between atoms: C_11  and  C_12
    2  A    between atoms: C_11  and  C_31
    3  A    between atoms: C_16  and  C_27
    4  A    between atoms: C_19  and  N_26
                            x       y       z     vdW  Elec       q    Type
                         _______ _______ _______ _____ _____    ______ ____

>  <TORSDO>
F 4

$$$$
=
 OpenBabel11052419093D

 32 37  0  0  1  0  0  0  0  0999 V2000
  190.3870  175.3300  146.0320 C   0  0  0  0  0  0  0  0  0  0  0  0
  191.7940  174.9780  146.5410 C   0  0  1  0  0  3  0  0  0  0  0  0
  189.4980  176.0480  147.0290 C   0  0  0  0  0  2  0  0  0  0  0  0
  191.2750  173.3050  142.8200 C   0  0  0  0  0  2  0  0  0  0  0  0
  193.9760  172.2150  143.2400 C   0  0  0  0  0  3  0  0  0  0  0  0
  192.4540  174.2560  142.9700 C   0  0  2  0  0  3  0  0  0  0  0  0
  194.4250  176.0160  144.2900 C   0  0  2  0  0  3  0  0  0  0  0  0
  193.6120  173.5800  143.7300 C   0  0  2  0  0  0  0  0  0  0  0  0
  192.3100  173.7830  145.7480 C   0  0  0  0  0  2  0  0  0  0  0  0
  194.6850  174.4900  144.2830 C   0  0  2  0  0  3  0  0  0  0  0  0
  192.6390  176.0850  146.4630 O   0  0  0  0  0  1  0  0  0  0  0  0
  193.7690  173.6820  145.2600 C   0  0  2  0  0  3  0  0  0  0  0  0
  191.2130  176.2230  143.9040 N   0  0  0  0  0  0  0  0  0  0  0  0
  193.0910  171.5040  142.5190 C   0  0  0  0  0  3  0  0  0  0  0  0
  190.1130  175.4840  144.5070 C   0  0  2  0  0  3  0  0  0  0  0  0
  193.4310  176.4250  143.3520 O   0  0  0  0  0  0  0  0  0  0  0  0
  191.7450  172.0510  142.0630 C   0  0  0  0  0  2  0  0  0  0  0  0
  189.3050  174.5620  146.7630 C   0  0  0  0  0  2  0  0  0  0  0  0
  192.2620  175.6980  143.3450 C   0  0  0  0  0  0  0  0  0  0  0  0
  186.9410  176.2760  142.4170 C   0  0  0  0  0  2  0  0  0  0  0  0
  187.4400  178.2460  143.9130 C   0  0  0  0  0  2  0  0  0  0  0  0
  188.7580  176.1190  144.1500 C   0  0  1  0  0  3  0  0  0  0  0  0
  186.9900  177.8010  142.5100 C   0  0  2  0  0  3  0  0  0  0  0  0
  188.8050  177.6510  144.2340 C   0  0  0  0  0  2  0  0  0  0  0  0
  188.3020  175.6720  142.7560 C   0  0  1  0  0  3  0  0  0  0  0  0
  188.2010  174.2930  142.7100 F   0  0  0  0  0  0  0  0  0  0  0  0
  185.3730  177.9950  140.7200 C   0  0  0  0  0  1  0  0  0  0  0  0
  184.6580  177.8950  142.9590 C   0  0  0  0  0  1  0  0  0  0  0  0
  185.7110  178.3880  142.0840 N   0  0  0  0  0  0  0  0  0  0  0  0
  195.7230  176.7550  144.0270 C   0  0  0  0  0  2  0  0  0  0  0  0
  196.3480  176.6570  141.6360 C   0  0  0  0  0  1  0  0  0  0  0  0
  196.5470  176.0150  142.9920 C   0  0  0  0  0  2  0  0  0  0  0  0
  1  2  1  0  0  0  0
  1 18  1  0  0  0  0
  1  3  1  0  0  0  0
  2 11  1  6  0  0  0
  6  4  1  1  0  0  0
  6 19  1  0  0  0  0
  6  8  1  0  0  0  0
  7 30  1  6  0  0  0
  8  5  1  6  0  0  0
  8 10  1  0  0  0  0
  8 12  1  0  0  0  0
  9  2  1  0  0  0  0
 10  7  1  0  0  0  0
 10 12  1  0  0  0  0
 12  9  1  0  0  0  0
 13 15  1  0  0  0  0
 14  5  2  0  0  0  0
 15  1  1  0  0  0  0
 16  7  1  0  0  0  0
 17 14  1  0  0  0  0
 17  4  1  0  0  0  0
 18  3  1  0  0  0  0
 19 16  1  0  0  0  0
 19 13  2  0  0  0  0
 20 23  1  0  0  0  0
 20 25  1  0  0  0  0
 21 24  1  0  0  0  0
 22 24  1  0  0  0  0
 22 15  1  0  0  0  0
 23 21  1  0  0  0  0
 25 22  1  0  0  0  0
 26 25  1  0  0  0  0
 27 29  1  0  0  0  0
 29 23  1  0  0  0  0
 29 28  1  0  0  0  0
 31 32  1  0  0  0  0
 32 30  1  0  0  0  0
M  END
>  <MODEL>
3

>  <REMARK>
 VINA RESULT:      -7.4      1.985      2.472
  Name = 
  4 active torsions:
  status: ('A' for Active; 'I' for Inactive)
    1  A    between atoms: C_11  and  C_12
    2  A    between atoms: C_11  and  C_31
    3  A    between atoms: C_16  and  C_27
    4  A    between atoms: C_19  and  N_26
                            x       y       z     vdW  Elec       q    Type
                         _______ _______ _______ _____ _____    ______ ____

>  <TORSDO>
F 4

$$$$
=
 OpenBabel11052419093D

 32 37  0  0  1  0  0  0  0  0999 V2000
  190.8410  173.9590  143.3850 C   0  0  0  0  0  0  0  0  0  0  0  0
  189.3240  174.1080  143.1860 C   0  0  1  0  0  3  0  0  0  0  0  0
  191.4780  172.7910  142.6590 C   0  0  0  0  0  2  0  0  0  0  0  0
  190.5700  176.8610  145.9750 C   0  0  0  0  0  2  0  0  0  0  0  0
  187.7190  177.5680  146.1420 C   0  0  0  0  0  3  0  0  0  0  0  0
  189.8620  177.4200  144.7490 C   0  0  2  0  0  3  0  0  0  0  0  0
  188.3320  177.4480  142.2230 C   0  0  2  0  0  3  0  0  0  0  0  0
  188.3410  177.1850  144.8380 C   0  0  2  0  0  0  0  0  0  0  0  0
  188.7500  174.8520  144.3860 C   0  0  0  0  0  2  0  0  0  0  0  0
  187.5540  177.3360  143.5560 C   0  0  2  0  0  3  0  0  0  0  0  0
  189.0430  174.7360  141.9740 O   0  0  0  0  0  1  0  0  0  0  0  0
  187.6610  175.9360  144.2440 C   0  0  2  0  0  3  0  0  0  0  0  0
  191.2800  176.3390  142.9900 N   0  0  0  0  0  0  0  0  0  0  0  0
  188.4840  177.6810  147.2420 C   0  0  0  0  0  3  0  0  0  0  0  0
  191.7120  175.1900  143.7740 C   0  0  2  0  0  3  0  0  0  0  0  0
  189.6830  177.8730  142.3900 O   0  0  0  0  0  0  0  0  0  0  0  0
  190.0000  177.5450  147.2290 C   0  0  0  0  0  2  0  0  0  0  0  0
  191.1980  172.7040  144.1530 C   0  0  0  0  0  2  0  0  0  0  0  0
  190.4110  177.2280  143.3650 C   0  0  0  0  0  0  0  0  0  0  0  0
  195.4520  175.2300  144.8060 C   0  0  0  0  0  2  0  0  0  0  0  0
  195.3020  175.3980  142.2930 C   0  0  0  0  0  2  0  0  0  0  0  0
  193.2310  174.9770  143.6530 C   0  0  1  0  0  3  0  0  0  0  0  0
  196.0190  175.9040  143.5570 C   0  0  2  0  0  3  0  0  0  0  0  0
  193.8060  175.6590  142.4040 C   0  0  0  0  0  2  0  0  0  0  0  0
  193.9490  175.4730  144.9130 C   0  0  1  0  0  3  0  0  0  0  0  0
  193.4670  174.8060  146.0250 F   0  0  0  0  0  0  0  0  0  0  0  0
  197.9180  174.5420  144.1870 C   0  0  0  0  0  1  0  0  0  0  0  0
  197.8940  175.6570  142.1160 C   0  0  0  0  0  1  0  0  0  0  0  0
  197.4810  175.7570  143.5080 N   0  0  0  0  0  0  0  0  0  0  0  0
  187.6030  178.3890  141.2840 C   0  0  0  0  0  2  0  0  0  0  0  0
  185.1950  178.2500  140.7330 C   0  0  0  0  0  1  0  0  0  0  0  0
  186.5560  177.6310  140.4920 C   0  0  0  0  0  2  0  0  0  0  0  0
  1 15  1  0  0  0  0
  1 18  1  0  0  0  0
  2 11  1  6  0  0  0
  2  1  1  0  0  0  0
  2  9  1  0  0  0  0
  3  1  1  0  0  0  0
  3 18  1  0  0  0  0
  4 17  1  0  0  0  0
  5 14  2  0  0  0  0
  6  8  1  0  0  0  0
  6  4  1  1  0  0  0
  7 30  1  6  0  0  0
  7 16  1  0  0  0  0
  7 10  1  0  0  0  0
  8  5  1  1  0  0  0
 10 12  1  0  0  0  0
 10  8  1  0  0  0  0
 12  9  1  0  0  0  0
 12  8  1  0  0  0  0
 13 19  2  0  0  0  0
 13 15  1  0  0  0  0
 16 19  1  0  0  0  0
 17 14  1  0  0  0  0
 19  6  1  0  0  0  0
 20 25  1  0  0  0  0
 21 24  1  0  0  0  0
 21 23  1  0  0  0  0
 22 15  1  0  0  0  0
 22 25  1  0  0  0  0
 23 20  1  0  0  0  0
 24 22  1  0  0  0  0
 25 26  1  0  0  0  0
 28 29  1  0  0  0  0
 29 23  1  0  0  0  0
 29 27  1  0  0  0  0
 32 31  1  0  0  0  0
 32 30  1  0  0  0  0
M  END
>  <MODEL>
4

>  <REMARK>
 VINA RESULT:      -7.2      2.611      7.502
  Name = 
  4 active torsions:
  status: ('A' for Active; 'I' for Inactive)
    1  A    between atoms: C_11  and  C_12
    2  A    between atoms: C_11  and  C_31
    3  A    between atoms: C_16  and  C_27
    4  A    between atoms: C_19  and  N_26
                            x       y       z     vdW  Elec       q    Type
                         _______ _______ _______ _____ _____    ______ ____

>  <TORSDO>
F 4

$$$$
=
 OpenBabel11052419093D

 32 37  0  0  1  0  0  0  0  0999 V2000
  192.7390  175.8920  144.0480 C   0  0  0  0  0  0  0  0  0  0  0  0
  191.8580  177.1330  144.2650 C   0  0  1  0  0  3  0  0  0  0  0  0
  194.1600  176.0080  144.5630 C   0  0  0  0  0  2  0  0  0  0  0  0
  189.7720  174.4090  141.9980 C   0  0  0  0  0  2  0  0  0  0  0  0
  187.6770  176.4740  141.9460 C   0  0  0  0  0  3  0  0  0  0  0  0
  189.1140  174.8430  143.2990 C   0  0  2  0  0  3  0  0  0  0  0  0
  188.6700  176.3720  145.7870 C   0  0  2  0  0  3  0  0  0  0  0  0
  188.5130  176.2560  143.1660 C   0  0  2  0  0  0  0  0  0  0  0  0
  190.7580  177.1350  143.2100 C   0  0  0  0  0  2  0  0  0  0  0  0
  188.1660  176.9720  144.4530 C   0  0  2  0  0  3  0  0  0  0  0  0
  191.3610  177.1650  145.5670 O   0  0  0  0  0  1  0  0  0  0  0  0
  189.3020  177.5290  143.5340 C   0  0  2  0  0  3  0  0  0  0  0  0
  191.0170  174.3420  144.8500 N   0  0  0  0  0  0  0  0  0  0  0  0
  187.8170  175.6600  140.8850 C   0  0  0  0  0  3  0  0  0  0  0  0
  192.0940  174.4840  143.8810 C   0  0  2  0  0  3  0  0  0  0  0  0
  188.9840  174.9830  145.7010 O   0  0  0  0  0  0  0  0  0  0  0  0
  188.7170  174.4330  140.8790 C   0  0  0  0  0  2  0  0  0  0  0  0
  193.8700  176.1540  143.0760 C   0  0  0  0  0  2  0  0  0  0  0  0
  189.7620  174.5990  144.6320 C   0  0  0  0  0  0  0  0  0  0  0  0
  193.5610  170.9560  143.2030 C   0  0  0  0  0  2  0  0  0  0  0  0
  194.3370  171.7350  145.4750 C   0  0  0  0  0  2  0  0  0  0  0  0
  193.0770  173.3030  143.9680 C   0  0  1  0  0  3  0  0  0  0  0  0
  193.8190  170.5430  144.6520 C   0  0  2  0  0  3  0  0  0  0  0  0
  193.3320  172.8790  145.4210 C   0  0  0  0  0  2  0  0  0  0  0  0
  192.5690  172.1150  143.1440 C   0  0  1  0  0  3  0  0  0  0  0  0
  192.4020  172.4910  141.8230 F   0  0  0  0  0  0  0  0  0  0  0  0
  195.6530  169.4590  145.8010 C   0  0  0  0  0  1  0  0  0  0  0  0
  193.8730  168.1830  144.9410 C   0  0  0  0  0  1  0  0  0  0  0  0
  194.6940  169.3620  144.7060 N   0  0  0  0  0  0  0  0  0  0  0  0
  187.6360  176.6040  146.8720 C   0  0  0  0  0  2  0  0  0  0  0  0
  185.1960  176.7980  146.5120 C   0  0  0  0  0  1  0  0  0  0  0  0
  186.5280  177.5010  146.3560 C   0  0  0  0  0  2  0  0  0  0  0  0
  1  2  1  0  0  0  0
  1  3  1  0  0  0  0
  2 11  1  1  0  0  0
  6  4  1  6  0  0  0
  6 19  1  0  0  0  0
  7 30  1  1  0  0  0
  8  5  1  6  0  0  0
  8  6  1  0  0  0  0
  8 12  1  0  0  0  0
  8 10  1  0  0  0  0
  9 12  1  0  0  0  0
  9  2  1  0  0  0  0
 10  7  1  0  0  0  0
 12 10  1  0  0  0  0
 14  5  2  0  0  0  0
 15 22  1  0  0  0  0
 15  1  1  0  0  0  0
 15 13  1  0  0  0  0
 16  7  1  0  0  0  0
 17 14  1  0  0  0  0
 17  4  1  0  0  0  0
 18  1  1  0  0  0  0
 18  3  1  0  0  0  0
 19 13  2  0  0  0  0
 19 16  1  0  0  0  0
 20 23  1  0  0  0  0
 22 24  1  0  0  0  0
 23 29  1  0  0  0  0
 23 21  1  0  0  0  0
 24 21  1  0  0  0  0
 25 20  1  0  0  0  0
 25 22  1  0  0  0  0
 26 25  1  0  0  0  0
 29 28  1  0  0  0  0
 29 27  1  0  0  0  0
 32 31  1  0  0  0  0
 32 30  1  0  0  0  0
M  END
>  <MODEL>
5

>  <REMARK>
 VINA RESULT:      -7.2      2.958      7.399
  Name = 
  4 active torsions:
  status: ('A' for Active; 'I' for Inactive)
    1  A    between atoms: C_11  and  C_12
    2  A    between atoms: C_11  and  C_31
    3  A    between atoms: C_16  and  C_27
    4  A    between atoms: C_19  and  N_26
                            x       y       z     vdW  Elec       q    Type
                         _______ _______ _______ _____ _____    ______ ____

>  <TORSDO>
F 4

$$$$
=
 OpenBabel11052419093D

 32 37  0  0  1  0  0  0  0  0999 V2000
  191.3590  173.3900  143.2960 C   0  0  0  0  0  0  0  0  0  0  0  0
  189.9490  173.5220  143.8940 C   0  0  1  0  0  3  0  0  0  0  0  0
  191.5270  172.2870  142.2700 C   0  0  0  0  0  2  0  0  0  0  0  0
  192.4710  176.1020  145.8690 C   0  0  0  0  0  2  0  0  0  0  0  0
  190.0990  176.7400  147.4880 C   0  0  0  0  0  3  0  0  0  0  0  0
  191.2550  176.7300  145.2030 C   0  0  2  0  0  3  0  0  0  0  0  0
  188.6670  176.9000  143.7910 C   0  0  2  0  0  3  0  0  0  0  0  0
  189.9790  176.4590  146.0250 C   0  0  2  0  0  0  0  0  0  0  0  0
  190.0660  174.1710  145.2680 C   0  0  0  0  0  2  0  0  0  0  0  0
  188.6580  176.6820  145.3220 C   0  0  2  0  0  3  0  0  0  0  0  0
  189.1100  174.2270  143.0310 O   0  0  0  0  0  1  0  0  0  0  0  0
  189.0710  175.2400  145.7650 C   0  0  2  0  0  3  0  0  0  0  0  0
  191.5830  175.7990  142.9000 N   0  0  0  0  0  0  0  0  0  0  0  0
  191.3140  176.7920  148.0620 C   0  0  0  0  0  3  0  0  0  0  0  0
  192.3290  174.6090  143.2810 C   0  0  2  0  0  3  0  0  0  0  0  0
  189.9270  177.3400  143.2880 O   0  0  0  0  0  0  0  0  0  0  0  0
  192.6170  176.6860  147.2830 C   0  0  0  0  0  2  0  0  0  0  0  0
  192.0310  172.0920  143.6930 C   0  0  0  0  0  2  0  0  0  0  0  0
  191.0330  176.6440  143.7200 C   0  0  0  0  0  0  0  0  0  0  0  0
  196.0910  174.5540  142.3340 C   0  0  0  0  0  2  0  0  0  0  0  0
  194.7410  175.0650  140.2640 C   0  0  0  0  0  2  0  0  0  0  0  0
  193.5800  174.4340  142.4020 C   0  0  1  0  0  3  0  0  0  0  0  0
  196.0120  175.4010  141.0640 C   0  0  2  0  0  3  0  0  0  0  0  0
  193.5070  175.2900  141.1300 C   0  0  0  0  0  2  0  0  0  0  0  0
  194.8490  174.7610  143.1970 C   0  0  1  0  0  3  0  0  0  0  0  0
  194.9370  173.9400  144.3070 F   0  0  0  0  0  0  0  0  0  0  0  0
  197.9410  174.0280  140.5660 C   0  0  0  0  0  1  0  0  0  0  0  0
  196.9140  175.2910  138.8680 C   0  0  0  0  0  1  0  0  0  0  0  0
  197.2520  175.2820  140.2830 N   0  0  0  0  0  0  0  0  0  0  0  0
  187.5820  177.8900  143.4100 C   0  0  0  0  0  2  0  0  0  0  0  0
  185.8300  179.4070  144.2740 C   0  0  0  0  0  1  0  0  0  0  0  0
  186.7870  178.2910  144.6370 C   0  0  0  0  0  2  0  0  0  0  0  0
  1 18  1  0  0  0  0
  1  2  1  0  0  0  0
  2 11  1  6  0  0  0
  2  9  1  0  0  0  0
  3  1  1  0  0  0  0
  3 18  1  0  0  0  0
  4 17  1  0  0  0  0
  5 14  2  0  0  0  0
  6  4  1  1  0  0  0
  6  8  1  0  0  0  0
  7 30  1  1  0  0  0
  7 10  1  0  0  0  0
  8  5  1  1  0  0  0
  9 12  1  0  0  0  0
 10 12  1  0  0  0  0
 10  8  1  0  0  0  0
 12  8  1  0  0  0  0
 13 15  1  0  0  0  0
 13 19  2  0  0  0  0
 15  1  1  0  0  0  0
 16 19  1  0  0  0  0
 16  7  1  0  0  0  0
 17 14  1  0  0  0  0
 19  6  1  0  0  0  0
 20 25  1  0  0  0  0
 21 23  1  0  0  0  0
 21 24  1  0  0  0  0
 22 25  1  0  0  0  0
 22 15  1  0  0  0  0
 23 20  1  0  0  0  0
 24 22  1  0  0  0  0
 25 26  1  0  0  0  0
 28 29  1  0  0  0  0
 29 27  1  0  0  0  0
 29 23  1  0  0  0  0
 30 32  1  0  0  0  0
 31 32  1  0  0  0  0
M  END
>  <MODEL>
6

>  <REMARK>
 VINA RESULT:      -7.1      2.497      7.685
  Name = 
  4 active torsions:
  status: ('A' for Active; 'I' for Inactive)
    1  A    between atoms: C_11  and  C_12
    2  A    between atoms: C_11  and  C_31
    3  A    between atoms: C_16  and  C_27
    4  A    between atoms: C_19  and  N_26
                            x       y       z     vdW  Elec       q    Type
                         _______ _______ _______ _____ _____    ______ ____

>  <TORSDO>
F 4

$$$$
=
 OpenBabel11052419093D

 32 37  0  0  1  0  0  0  0  0999 V2000
  192.0780  175.7970  143.4760 C   0  0  0  0  0  0  0  0  0  0  0  0
  191.5830  177.1610  143.9810 C   0  0  1  0  0  3  0  0  0  0  0  0
  193.5110  175.4540  143.8330 C   0  0  0  0  0  2  0  0  0  0  0  0
  188.6810  175.5060  141.5820 C   0  0  0  0  0  2  0  0  0  0  0  0
  187.2230  178.0100  142.0930 C   0  0  0  0  0  3  0  0  0  0  0  0
  188.2600  175.8530  143.0030 C   0  0  2  0  0  3  0  0  0  0  0  0
  188.4250  176.9740  145.7310 C   0  0  2  0  0  3  0  0  0  0  0  0
  188.0550  177.3730  143.1590 C   0  0  2  0  0  0  0  0  0  0  0  0
  190.4510  177.6310  143.0750 C   0  0  0  0  0  2  0  0  0  0  0  0
  188.0080  177.9110  144.5720 C   0  0  2  0  0  3  0  0  0  0  0  0
  191.2070  177.0850  145.3220 O   0  0  0  0  0  1  0  0  0  0  0  0
  189.1830  178.3170  143.6230 C   0  0  2  0  0  3  0  0  0  0  0  0
  190.0640  174.6170  144.2260 N   0  0  0  0  0  0  0  0  0  0  0  0
  187.0610  177.3910  140.9100 C   0  0  0  0  0  3  0  0  0  0  0  0
  191.0670  174.6520  143.1710 C   0  0  2  0  0  3  0  0  0  0  0  0
  188.3470  175.5900  145.3960 O   0  0  0  0  0  0  0  0  0  0  0  0
  187.5950  175.9970  140.6110 C   0  0  0  0  0  2  0  0  0  0  0  0
  193.1650  175.9330  142.4300 C   0  0  0  0  0  2  0  0  0  0  0  0
  188.9130  175.2190  144.1980 C   0  0  0  0  0  0  0  0  0  0  0  0
  191.7910  171.2400  141.4700 C   0  0  0  0  0  2  0  0  0  0  0  0
  192.1630  171.0040  143.9550 C   0  0  0  0  0  2  0  0  0  0  0  0
  191.6980  173.2640  142.9610 C   0  0  1  0  0  3  0  0  0  0  0  0
  191.5930  170.3400  142.6890 C   0  0  2  0  0  3  0  0  0  0  0  0
  191.4950  172.3540  144.1800 C   0  0  0  0  0  2  0  0  0  0  0  0
  191.1390  172.6020  141.6970 C   0  0  1  0  0  3  0  0  0  0  0  0
  191.3840  173.4020  140.5950 F   0  0  0  0  0  0  0  0  0  0  0  0
  191.1700  168.1660  141.7120 C   0  0  0  0  0  1  0  0  0  0  0  0
  193.3180  169.1180  141.6010 C   0  0  0  0  0  1  0  0  0  0  0  0
  192.1310  168.9950  142.4330 N   0  0  0  0  0  0  0  0  0  0  0  0
  187.5730  177.2630  146.9520 C   0  0  0  0  0  2  0  0  0  0  0  0
  185.1920  176.8340  146.4380 C   0  0  0  0  0  1  0  0  0  0  0  0
  186.2620  177.9000  146.5360 C   0  0  0  0  0  2  0  0  0  0  0  0
  1  3  1  0  0  0  0
  1  2  1  0  0  0  0
  2 11  1  1  0  0  0
  6  4  1  6  0  0  0
  6  8  1  0  0  0  0
  6 19  1  0  0  0  0
  7 30  1  1  0  0  0
  8  5  1  6  0  0  0
  8 12  1  0  0  0  0
  8 10  1  0  0  0  0
  9 12  1  0  0  0  0
  9  2  1  0  0  0  0
 10  7  1  0  0  0  0
 12 10  1  0  0  0  0
 14  5  2  0  0  0  0
 15  1  1  0  0  0  0
 15 13  1  0  0  0  0
 16  7  1  0  0  0  0
 17 14  1  0  0  0  0
 17  4  1  0  0  0  0
 18  1  1  0  0  0  0
 18  3  1  0  0  0  0
 19 13  2  0  0  0  0
 19 16  1  0  0  0  0
 20 25  1  0  0  0  0
 20 23  1  0  0  0  0
 21 24  1  0  0  0  0
 22 15  1  0  0  0  0
 22 24  1  0  0  0  0
 23 21  1  0  0  0  0
 25 22  1  0  0  0  0
 26 25  1  0  0  0  0
 27 29  1  0  0  0  0
 28 29  1  0  0  0  0
 29 23  1  0  0  0  0
 31 32  1  0  0  0  0
 32 30  1  0  0  0  0
M  END
>  <MODEL>
7

>  <REMARK>
 VINA RESULT:      -7.1      3.027      7.472
  Name = 
  4 active torsions:
  status: ('A' for Active; 'I' for Inactive)
    1  A    between atoms: C_11  and  C_12
    2  A    between atoms: C_11  and  C_31
    3  A    between atoms: C_16  and  C_27
    4  A    between atoms: C_19  and  N_26
                            x       y       z     vdW  Elec       q    Type
                         _______ _______ _______ _____ _____    ______ ____

>  <TORSDO>
F 4

$$$$
=
 OpenBabel11052419093D

 32 37  0  0  1  0  0  0  0  0999 V2000
  190.1900  176.5330  142.9420 C   0  0  0  0  0  0  0  0  0  0  0  0
  191.2370  175.6680  142.2220 C   0  0  1  0  0  3  0  0  0  0  0  0
  189.0850  177.0800  142.0600 C   0  0  0  0  0  2  0  0  0  0  0  0
  192.4390  176.2370  146.1140 C   0  0  0  0  0  2  0  0  0  0  0  0
  194.8090  174.6870  145.3170 C   0  0  0  0  0  3  0  0  0  0  0  0
  192.2740  174.7920  145.6670 C   0  0  2  0  0  3  0  0  0  0  0  0
  191.8360  172.5000  143.8560 C   0  0  2  0  0  3  0  0  0  0  0  0
  193.4540  174.3550  144.7770 C   0  0  2  0  0  0  0  0  0  0  0  0
  192.5370  175.7230  143.0160 C   0  0  0  0  0  2  0  0  0  0  0  0
  193.2590  173.1000  143.9560 C   0  0  2  0  0  3  0  0  0  0  0  0
  190.7660  174.3680  142.0440 O   0  0  0  0  0  1  0  0  0  0  0  0
  193.4230  174.4800  143.2400 C   0  0  2  0  0  3  0  0  0  0  0  0
  189.9300  174.9490  144.7950 N   0  0  0  0  0  0  0  0  0  0  0  0
  194.9410  175.6470  146.2490 C   0  0  0  0  0  3  0  0  0  0  0  0
  189.9430  176.3680  144.4710 C   0  0  2  0  0  3  0  0  0  0  0  0
  190.9730  172.9080  144.9160 O   0  0  0  0  0  0  0  0  0  0  0  0
  193.7620  176.3680  146.8870 C   0  0  0  0  0  2  0  0  0  0  0  0
  190.2340  177.9790  142.4930 C   0  0  0  0  0  2  0  0  0  0  0  0
  190.9510  174.2550  145.2010 C   0  0  0  0  0  0  0  0  0  0  0  0
  187.4940  177.8980  147.0630 C   0  0  0  0  0  2  0  0  0  0  0  0
  186.1700  177.1000  145.0680 C   0  0  0  0  0  2  0  0  0  0  0  0
  188.6820  177.0690  145.0070 C   0  0  1  0  0  3  0  0  0  0  0  0
  186.2180  177.1930  146.6030 C   0  0  2  0  0  3  0  0  0  0  0  0
  187.3990  176.3600  144.5540 C   0  0  0  0  0  2  0  0  0  0  0  0
  188.7290  177.1720  146.5350 C   0  0  1  0  0  3  0  0  0  0  0  0
  189.8580  177.8680  146.9290 F   0  0  0  0  0  0  0  0  0  0  0  0
  185.3980  178.9930  147.9990 C   0  0  0  0  0  1  0  0  0  0  0  0
  184.1660  178.2930  146.1210 C   0  0  0  0  0  1  0  0  0  0  0  0
  185.0320  177.8310  147.1950 N   0  0  0  0  0  0  0  0  0  0  0  0
  191.9230  170.9870  143.8100 C   0  0  0  0  0  2  0  0  0  0  0  0
  193.1240  168.9940  144.6490 C   0  0  0  0  0  1  0  0  0  0  0  0
  193.1220  170.5070  144.6050 C   0  0  0  0  0  2  0  0  0  0  0  0
  1 15  1  0  0  0  0
  2 11  1  1  0  0  0
  2  1  1  0  0  0  0
  2  9  1  0  0  0  0
  3 18  1  0  0  0  0
  3  1  1  0  0  0  0
  4 17  1  0  0  0  0
  5 14  2  0  0  0  0
  6  4  1  6  0  0  0
  7 30  1  1  0  0  0
  7 10  1  0  0  0  0
  7 16  1  0  0  0  0
  8  5  1  1  0  0  0
  8  6  1  0  0  0  0
  9 12  1  0  0  0  0
 10  8  1  0  0  0  0
 12 10  1  0  0  0  0
 12  8  1  0  0  0  0
 13 19  2  0  0  0  0
 14 17  1  0  0  0  0
 15 13  1  0  0  0  0
 15 22  1  0  0  0  0
 16 19  1  0  0  0  0
 18  1  1  0  0  0  0
 19  6  1  0  0  0  0
 21 23  1  0  0  0  0
 22 25  1  0  0  0  0
 23 20  1  0  0  0  0
 23 29  1  0  0  0  0
 24 22  1  0  0  0  0
 24 21  1  0  0  0  0
 25 26  1  0  0  0  0
 25 20  1  0  0  0  0
 28 29  1  0  0  0  0
 29 27  1  0  0  0  0
 30 32  1  0  0  0  0
 32 31  1  0  0  0  0
M  END
>  <MODEL>
8

>  <REMARK>
 VINA RESULT:      -7.0      1.887      3.985
  Name = 
  4 active torsions:
  status: ('A' for Active; 'I' for Inactive)
    1  A    between atoms: C_11  and  C_12
    2  A    between atoms: C_11  and  C_31
    3  A    between atoms: C_16  and  C_27
    4  A    between atoms: C_19  and  N_26
                            x       y       z     vdW  Elec       q    Type
                         _______ _______ _______ _____ _____    ______ ____

>  <TORSDO>
F 4

$$$$
=
 OpenBabel11052419093D

 32 37  0  0  1  0  0  0  0  0999 V2000
  190.4560  174.3070  145.1790 C   0  0  0  0  0  0  0  0  0  0  0  0
  191.8990  173.7760  145.1940 C   0  0  1  0  0  3  0  0  0  0  0  0
  189.8480  174.5680  146.5430 C   0  0  0  0  0  2  0  0  0  0  0  0
  190.5130  173.7370  141.3220 C   0  0  0  0  0  2  0  0  0  0  0  0
  193.1350  172.5610  140.6900 C   0  0  0  0  0  3  0  0  0  0  0  0
  191.7790  174.5440  141.5740 C   0  0  2  0  0  3  0  0  0  0  0  0
  194.1200  175.6200  143.0190 C   0  0  2  0  0  3  0  0  0  0  0  0
  192.9980  173.6160  141.7400 C   0  0  2  0  0  0  0  0  0  0  0  0
  192.1400  172.9970  143.9060 C   0  0  0  0  0  2  0  0  0  0  0  0
  194.2360  174.2240  142.3610 C   0  0  2  0  0  3  0  0  0  0  0  0
  192.8080  174.8180  145.3750 O   0  0  0  0  0  1  0  0  0  0  0  0
  193.4610  173.0950  143.1150 C   0  0  2  0  0  3  0  0  0  0  0  0
  190.9260  175.9760  143.4460 N   0  0  0  0  0  0  0  0  0  0  0  0
  192.0650  172.2030  139.9570 C   0  0  0  0  0  3  0  0  0  0  0  0
  189.9040  175.0610  143.9340 C   0  0  2  0  0  3  0  0  0  0  0  0
  193.0020  176.3740  142.5530 O   0  0  0  0  0  0  0  0  0  0  0  0
  190.7120  172.8910  140.0530 C   0  0  0  0  0  2  0  0  0  0  0  0
  189.4740  173.3140  145.7660 C   0  0  0  0  0  2  0  0  0  0  0  0
  191.7940  175.7150  142.5150 C   0  0  0  0  0  0  0  0  0  0  0  0
  186.3800  176.4600  143.1080 C   0  0  0  0  0  2  0  0  0  0  0  0
  187.4380  177.9160  144.8770 C   0  0  0  0  0  2  0  0  0  0  0  0
  188.5670  175.7910  144.1550 C   0  0  1  0  0  3  0  0  0  0  0  0
  186.5940  177.8940  143.5900 C   0  0  2  0  0  3  0  0  0  0  0  0
  188.7770  177.2350  144.6310 C   0  0  0  0  0  2  0  0  0  0  0  0
  187.7200  175.7650  142.8780 C   0  0  1  0  0  3  0  0  0  0  0  0
  187.4840  174.4580  142.4920 F   0  0  0  0  0  0  0  0  0  0  0  0
  184.5590  178.1370  144.8800 C   0  0  0  0  0  1  0  0  0  0  0  0
  185.5660  180.0180  143.8880 C   0  0  0  0  0  1  0  0  0  0  0  0
  185.3080  178.5960  143.7140 N   0  0  0  0  0  0  0  0  0  0  0  0
  195.4020  176.3980  142.7930 C   0  0  0  0  0  2  0  0  0  0  0  0
  196.8160  176.0380  140.7960 C   0  0  0  0  0  1  0  0  0  0  0  0
  196.4530  175.5040  142.1660 C   0  0  0  0  0  2  0  0  0  0  0  0
  1  2  1  0  0  0  0
  1 18  1  0  0  0  0
  1  3  1  0  0  0  0
  2 11  1  6  0  0  0
  6  4  1  1  0  0  0
  6  8  1  0  0  0  0
  6 19  1  0  0  0  0
  7 30  1  6  0  0  0
  8  5  1  6  0  0  0
  8 10  1  0  0  0  0
  8 12  1  0  0  0  0
  9  2  1  0  0  0  0
 10  7  1  0  0  0  0
 10 12  1  0  0  0  0
 12  9  1  0  0  0  0
 13 15  1  0  0  0  0
 14 17  1  0  0  0  0
 14  5  2  0  0  0  0
 15 22  1  0  0  0  0
 15  1  1  0  0  0  0
 16  7  1  0  0  0  0
 17  4  1  0  0  0  0
 18  3  1  0  0  0  0
 19 16  1  0  0  0  0
 19 13  2  0  0  0  0
 20 23  1  0  0  0  0
 22 24  1  0  0  0  0
 23 29  1  0  0  0  0
 23 21  1  0  0  0  0
 24 21  1  0  0  0  0
 25 20  1  0  0  0  0
 25 22  1  0  0  0  0
 26 25  1  0  0  0  0
 29 28  1  0  0  0  0
 29 27  1  0  0  0  0
 31 32  1  0  0  0  0
 32 30  1  0  0  0  0
M  END
>  <MODEL>
9

>  <REMARK>
 VINA RESULT:      -6.8      2.076      2.562
  Name = 
  4 active torsions:
  status: ('A' for Active; 'I' for Inactive)
    1  A    between atoms: C_11  and  C_12
    2  A    between atoms: C_11  and  C_31
    3  A    between atoms: C_16  and  C_27
    4  A    between atoms: C_19  and  N_26
                            x       y       z     vdW  Elec       q    Type
                         _______ _______ _______ _____ _____    ______ ____

>  <TORSDO>
F 4

$$$$
