=
 OpenBabel11052417233D

 30 32  0  0  1  0  0  0  0  0999 V2000
  189.9300  175.5760  142.5500 C   0  0  1  0  0  3  0  0  0  0  0  0
  186.6660  176.0820  142.4910 C   0  0  0  0  0  2  0  0  0  0  0  0
  187.7390  176.3100  147.1200 C   0  0  0  0  0  1  0  0  0  0  0  0
  191.2920  175.8510  143.2560 C   0  0  2  0  0  3  0  0  0  0  0  0
  189.1560  174.3540  143.0830 C   0  0  0  0  0  2  0  0  0  0  0  0
  191.0850  173.6230  144.5580 C   0  0  2  0  0  3  0  0  0  0  0  0
  192.7540  177.0170  145.0130 C   0  0  0  0  0  2  0  0  0  0  0  0
  190.5090  176.2360  146.4930 O   0  0  0  0  0  0  0  0  0  0  0  0
  189.5870  173.9370  144.4850 C   0  0  0  0  0  2  0  0  0  0  0  0
  191.9570  174.5130  143.6520 C   0  0  2  0  0  3  0  0  0  0  0  0
  185.8130  177.2700  142.9280 C   0  0  0  0  0  2  0  0  0  0  0  0
  193.2460  175.6400  145.4380 C   0  0  2  0  0  3  0  0  0  0  0  0
  187.7710  176.4960  141.5250 C   0  0  0  0  0  2  0  0  0  0  0  0
  188.9570  177.2990  145.1050 N   0  0  0  0  0  2  0  0  0  0  0  0
  186.4980  178.1310  143.9830 C   0  0  0  0  0  2  0  0  0  0  0  0
  189.0620  176.8100  142.2730 C   0  0  0  0  0  2  0  0  0  0  0  0
  191.2210  178.3260  143.6780 C   0  0  0  0  0  1  0  0  0  0  0  0
  190.2750  176.8240  145.4020 C   0  0  0  0  0  0  0  0  0  0  0  0
  191.3620  176.9700  144.3550 C   0  0  1  0  0  0  0  0  0  0  0  0
  194.5120  175.7380  146.2690 C   0  0  0  0  0  1  0  0  0  0  0  0
  187.7420  177.0360  145.8200 C   0  0  0  0  0  0  0  0  0  0  0  0
  186.5800  177.4220  145.3000 C   0  0  0  0  0  3  0  0  0  0  0  0
  193.3690  174.6980  144.2300 C   0  0  2  0  0  3  0  0  0  0  0  0
  194.0200  174.5270  141.9420 C   0  0  0  0  0  1  0  0  0  0  0  0
  195.5510  174.8460  143.5390 O   0  0  0  0  0  1  0  0  0  0  0  0
  194.2920  175.2100  143.2000 N   0  0  0  0  0  0  0  0  0  0  0  0
  191.3560  172.1450  144.2990 C   0  0  0  0  0  2  0  0  0  0  0  0
  191.6570  171.9230  142.9530 O   0  0  0  0  0  0  0  0  0  0  0  0
  190.7180  171.0430  142.5320 N   0  0  0  0  0  2  0  0  0  0  0  0
  190.3820  171.4100  141.1680 C   0  0  0  0  0  1  0  0  0  0  0  0
  1 16  1  1  0  0  0
  1  5  1  0  0  0  0
  1  4  1  0  0  0  0
  2 11  1  0  0  0  0
  4 10  1  0  0  0  0
  4 19  1  0  0  0  0
  5  9  1  0  0  0  0
  7 12  1  0  0  0  0
  9  6  1  0  0  0  0
 10 23  1  0  0  0  0
 10  6  1  0  0  0  0
 11 15  1  0  0  0  0
 12 20  1  0  0  0  0
 13 16  1  0  0  0  0
 13  2  1  0  0  0  0
 14 18  1  0  0  0  0
 14 21  1  0  0  0  0
 15 22  1  0  0  0  0
 17 19  1  0  0  0  0
 18  8  2  0  0  0  0
 19  7  1  0  0  0  0
 19 18  1  0  0  0  0
 21  3  1  0  0  0  0
 22 21  2  0  0  0  0
 23 12  1  0  0  0  0
 24 26  1  0  0  0  0
 26 25  1  0  0  0  0
 26 23  1  0  0  0  0
 27  6  1  0  0  0  0
 28 27  1  0  0  0  0
 29 28  1  0  0  0  0
 30 29  1  0  0  0  0
M  END
>  <MODEL>
1

>  <REMARK>
 VINA RESULT:      -7.3      0.000      0.000
  Name = 
  4 active torsions:
  status: ('A' for Active; 'I' for Inactive)
    1  A    between atoms: C_6  and  C_8
    2  A    between atoms: C_6  and  O_21
    3  A    between atoms: N_9  and  O_21
    4  A    between atoms: N_27  and  C_30
                            x       y       z     vdW  Elec       q    Type
                         _______ _______ _______ _____ _____    ______ ____

>  <TORSDO>
F 4

$$$$
=
 OpenBabel11052417233D

 30 32  0  0  1  0  0  0  0  0999 V2000
  190.9240  174.5660  146.0570 C   0  0  1  0  0  3  0  0  0  0  0  0
  188.5590  176.6990  146.9330 C   0  0  0  0  0  2  0  0  0  0  0  0
  189.6380  178.0050  142.4880 C   0  0  0  0  0  1  0  0  0  0  0  0
  191.6170  173.7660  144.9130 C   0  0  2  0  0  3  0  0  0  0  0  0
  191.4940  175.9760  146.3050 C   0  0  0  0  0  2  0  0  0  0  0  0
  193.4240  175.6080  144.7010 C   0  0  2  0  0  3  0  0  0  0  0  0
  191.8080  172.9670  142.4830 C   0  0  0  0  0  2  0  0  0  0  0  0
  191.2740  175.7010  142.1960 O   0  0  0  0  0  0  0  0  0  0  0  0
  192.2680  176.5260  145.1120 C   0  0  0  0  0  2  0  0  0  0  0  0
  193.1250  174.1070  144.8750 C   0  0  2  0  0  3  0  0  0  0  0  0
  187.1680  176.9660  146.3640 C   0  0  0  0  0  2  0  0  0  0  0  0
  193.2460  173.4680  142.4870 C   0  0  2  0  0  3  0  0  0  0  0  0
  188.7660  175.2260  147.2690 C   0  0  0  0  0  2  0  0  0  0  0  0
  189.3200  175.6730  143.4790 N   0  0  0  0  0  2  0  0  0  0  0  0
  187.0390  176.5510  144.9030 C   0  0  0  0  0  2  0  0  0  0  0  0
  189.3920  174.4810  146.0950 C   0  0  0  0  0  2  0  0  0  0  0  0
  189.6780  172.8320  143.6180 C   0  0  0  0  0  1  0  0  0  0  0  0
  190.5250  175.0710  142.9920 C   0  0  0  0  0  0  0  0  0  0  0  0
  190.9230  173.7010  143.5070 C   0  0  1  0  0  0  0  0  0  0  0  0
  194.0390  172.8840  141.3320 C   0  0  0  0  0  1  0  0  0  0  0  0
  188.8940  177.0350  143.3380 C   0  0  0  0  0  0  0  0  0  0  0  0
  187.8230  177.4580  144.0050 C   0  0  0  0  0  3  0  0  0  0  0  0
  193.9030  173.2530  143.8610 C   0  0  2  0  0  3  0  0  0  0  0  0
  194.2880  171.7570  145.6770 C   0  0  0  0  0  1  0  0  0  0  0  0
  194.9090  171.2090  143.6010 O   0  0  0  0  0  1  0  0  0  0  0  0
  193.9150  171.8360  144.2710 N   0  0  0  0  0  0  0  0  0  0  0  0
  194.7190  175.9940  145.4090 C   0  0  0  0  0  2  0  0  0  0  0  0
  195.4110  176.9670  144.6820 O   0  0  0  0  0  0  0  0  0  0  0  0
  195.7110  176.3660  143.5060 N   0  0  0  0  0  2  0  0  0  0  0  0
  197.0640  176.7690  143.1650 C   0  0  0  0  0  1  0  0  0  0  0  0
  1 16  1  6  0  0  0
  1  5  1  0  0  0  0
  2 13  1  0  0  0  0
  3 21  1  0  0  0  0
  4  1  1  0  0  0  0
  6 10  1  0  0  0  0
  6  9  1  0  0  0  0
  6 27  1  0  0  0  0
  7 12  1  0  0  0  0
  7 19  1  0  0  0  0
  8 18  2  0  0  0  0
  9  5  1  0  0  0  0
 10  4  1  0  0  0  0
 11  2  1  0  0  0  0
 12 23  1  0  0  0  0
 15 11  1  0  0  0  0
 16 13  1  0  0  0  0
 18 14  1  0  0  0  0
 18 19  1  0  0  0  0
 19 17  1  0  0  0  0
 19  4  1  0  0  0  0
 20 12  1  0  0  0  0
 21 14  1  0  0  0  0
 21 22  2  0  0  0  0
 22 15  1  0  0  0  0
 23 26  1  0  0  0  0
 23 10  1  0  0  0  0
 25 26  1  0  0  0  0
 26 24  1  0  0  0  0
 28 27  1  0  0  0  0
 29 28  1  0  0  0  0
 30 29  1  0  0  0  0
M  END
>  <MODEL>
2

>  <REMARK>
 VINA RESULT:      -6.8      1.983      4.479
  Name = 
  4 active torsions:
  status: ('A' for Active; 'I' for Inactive)
    1  A    between atoms: C_6  and  C_8
    2  A    between atoms: C_6  and  O_21
    3  A    between atoms: N_9  and  O_21
    4  A    between atoms: N_27  and  C_30
                            x       y       z     vdW  Elec       q    Type
                         _______ _______ _______ _____ _____    ______ ____

>  <TORSDO>
F 4

$$$$
=
 OpenBabel11052417233D

 30 32  0  0  1  0  0  0  0  0999 V2000
  191.6470  175.0190  145.8400 C   0  0  1  0  0  3  0  0  0  0  0  0
  189.5400  177.3780  146.7930 C   0  0  0  0  0  2  0  0  0  0  0  0
  188.6190  176.8800  142.1530 C   0  0  0  0  0  1  0  0  0  0  0  0
  191.9430  173.8310  144.8770 C   0  0  2  0  0  3  0  0  0  0  0  0
  192.0700  176.4050  145.3150 C   0  0  0  0  0  2  0  0  0  0  0  0
  193.2560  175.4140  143.3040 C   0  0  2  0  0  3  0  0  0  0  0  0
  191.2830  172.1670  143.0390 C   0  0  0  0  0  2  0  0  0  0  0  0
  190.3120  174.6000  142.0510 O   0  0  0  0  0  0  0  0  0  0  0  0
  192.2370  176.4450  143.8000 C   0  0  0  0  0  2  0  0  0  0  0  0
  193.2560  174.0980  144.1040 C   0  0  2  0  0  3  0  0  0  0  0  0
  188.0150  177.4420  146.7920 C   0  0  0  0  0  2  0  0  0  0  0  0
  192.5260  172.6000  142.2750 C   0  0  2  0  0  3  0  0  0  0  0  0
  190.0610  176.1390  147.5120 C   0  0  0  0  0  2  0  0  0  0  0  0
  189.0330  175.1040  143.9420 N   0  0  0  0  0  2  0  0  0  0  0  0
  187.3870  176.5070  145.7650 C   0  0  0  0  0  2  0  0  0  0  0  0
  190.2780  174.9900  146.5320 C   0  0  0  0  0  2  0  0  0  0  0  0
  189.8010  172.5200  144.9170 C   0  0  0  0  0  1  0  0  0  0  0  0
  190.0240  174.3360  143.2500 C   0  0  0  0  0  0  0  0  0  0  0  0
  190.7730  173.2540  144.0040 C   0  0  1  0  0  0  0  0  0  0  0  0
  192.8800  171.6040  141.1850 C   0  0  0  0  0  1  0  0  0  0  0  0
  188.4040  176.3210  143.5170 C   0  0  0  0  0  0  0  0  0  0  0  0
  187.6290  176.9890  144.3670 C   0  0  0  0  0  3  0  0  0  0  0  0
  193.6880  172.9060  143.2350 C   0  0  2  0  0  3  0  0  0  0  0  0
  194.6870  172.2360  145.2930 C   0  0  0  0  0  1  0  0  0  0  0  0
  195.0090  171.0410  143.4320 O   0  0  0  0  0  1  0  0  0  0  0  0
  194.0520  171.7500  144.0750 N   0  0  0  0  0  0  0  0  0  0  0  0
  194.6580  176.0100  143.2300 C   0  0  0  0  0  2  0  0  0  0  0  0
  195.3930  175.6940  144.3760 O   0  0  0  0  0  0  0  0  0  0  0  0
  196.6660  175.5500  143.9370 N   0  0  0  0  0  2  0  0  0  0  0  0
  196.9750  176.7340  143.1550 C   0  0  0  0  0  1  0  0  0  0  0  0
  1  5  1  6  0  0  0
  1 16  1  0  0  0  0
  2 13  1  0  0  0  0
  3 21  1  0  0  0  0
  4  1  1  0  0  0  0
  6  9  1  0  0  0  0
  6 10  1  0  0  0  0
  7 19  1  0  0  0  0
  8 18  2  0  0  0  0
  9  5  1  0  0  0  0
 10  4  1  0  0  0  0
 11  2  1  0  0  0  0
 12  7  1  0  0  0  0
 12 23  1  0  0  0  0
 15 11  1  0  0  0  0
 16 13  1  0  0  0  0
 18 14  1  0  0  0  0
 18 19  1  0  0  0  0
 19  4  1  0  0  0  0
 19 17  1  0  0  0  0
 20 12  1  0  0  0  0
 21 14  1  0  0  0  0
 21 22  2  0  0  0  0
 22 15  1  0  0  0  0
 23 26  1  0  0  0  0
 23 10  1  0  0  0  0
 25 26  1  0  0  0  0
 26 24  1  0  0  0  0
 27  6  1  0  0  0  0
 27 28  1  0  0  0  0
 29 28  1  0  0  0  0
 30 29  1  0  0  0  0
M  END
>  <MODEL>
3

>  <REMARK>
 VINA RESULT:      -6.3      2.041      4.629
  Name = 
  4 active torsions:
  status: ('A' for Active; 'I' for Inactive)
    1  A    between atoms: C_6  and  C_8
    2  A    between atoms: C_6  and  O_21
    3  A    between atoms: N_9  and  O_21
    4  A    between atoms: N_27  and  C_30
                            x       y       z     vdW  Elec       q    Type
                         _______ _______ _______ _____ _____    ______ ____

>  <TORSDO>
F 4

$$$$
=
 OpenBabel11052417233D

 30 32  0  0  1  0  0  0  0  0999 V2000
  192.5080  176.8120  143.4700 C   0  0  1  0  0  3  0  0  0  0  0  0
  189.2740  177.4410  143.7110 C   0  0  0  0  0  2  0  0  0  0  0  0
  189.6900  173.0680  145.5340 C   0  0  0  0  0  1  0  0  0  0  0  0
  193.7530  176.0790  144.0530 C   0  0  2  0  0  3  0  0  0  0  0  0
  191.6930  175.9970  142.4460 C   0  0  0  0  0  2  0  0  0  0  0  0
  193.4130  174.1360  142.3760 C   0  0  2  0  0  3  0  0  0  0  0  0
  194.9330  174.6530  145.8300 C   0  0  0  0  0  2  0  0  0  0  0  0
  192.5210  173.2850  145.4400 O   0  0  0  0  0  0  0  0  0  0  0  0
  191.9330  174.4950  142.5490 C   0  0  0  0  0  2  0  0  0  0  0  0
  194.3840  175.1740  142.9690 C   0  0  2  0  0  3  0  0  0  0  0  0
  188.3440  177.5400  144.9170 C   0  0  0  0  0  2  0  0  0  0  0  0
  195.3900  173.7300  144.7090 C   0  0  2  0  0  3  0  0  0  0  0  0
  190.4930  178.3470  143.8520 C   0  0  0  0  0  2  0  0  0  0  0  0
  191.1550  175.1320  145.8760 N   0  0  0  0  0  2  0  0  0  0  0  0
  188.8590  176.7640  146.1240 C   0  0  0  0  0  2  0  0  0  0  0  0
  191.6610  177.5950  144.4810 C   0  0  0  0  0  2  0  0  0  0  0  0
  193.5730  176.5310  146.5180 C   0  0  0  0  0  1  0  0  0  0  0  0
  192.4290  174.5310  145.6150 C   0  0  0  0  0  0  0  0  0  0  0  0
  193.6470  175.4230  145.4760 C   0  0  1  0  0  0  0  0  0  0  0  0
  196.5260  172.8310  145.1610 C   0  0  0  0  0  1  0  0  0  0  0  0
  189.8590  174.5260  145.7860 C   0  0  0  0  0  0  0  0  0  0  0  0
  188.7720  175.2850  145.8990 C   0  0  0  0  0  3  0  0  0  0  0  0
  195.6990  174.5230  143.4290 C   0  0  2  0  0  3  0  0  0  0  0  0
  196.5500  176.6140  142.6610 C   0  0  0  0  0  1  0  0  0  0  0  0
  197.9410  174.9920  143.3180 O   0  0  0  0  0  1  0  0  0  0  0  0
  196.7450  175.5430  143.6300 N   0  0  0  0  0  0  0  0  0  0  0  0
  193.7480  173.8440  140.9170 C   0  0  0  0  0  2  0  0  0  0  0  0
  194.2940  174.9710  140.2980 O   0  0  0  0  0  0  0  0  0  0  0  0
  193.8400  174.9160  139.0240 N   0  0  0  0  0  2  0  0  0  0  0  0
  195.0090  174.8820  138.1640 C   0  0  0  0  0  1  0  0  0  0  0  0
  1  5  1  1  0  0  0
  1  4  1  0  0  0  0
  1 16  1  0  0  0  0
  2 13  1  0  0  0  0
  2 11  1  0  0  0  0
  3 21  1  0  0  0  0
  4 19  1  0  0  0  0
  5  9  1  0  0  0  0
  6  9  1  0  0  0  0
  6 10  1  0  0  0  0
  8 18  2  0  0  0  0
 10 23  1  0  0  0  0
 10  4  1  0  0  0  0
 11 15  1  0  0  0  0
 12 20  1  0  0  0  0
 12  7  1  0  0  0  0
 13 16  1  0  0  0  0
 18 14  1  0  0  0  0
 19 18  1  0  0  0  0
 19  7  1  0  0  0  0
 19 17  1  0  0  0  0
 21 14  1  0  0  0  0
 21 22  2  0  0  0  0
 22 15  1  0  0  0  0
 23 26  1  0  0  0  0
 23 12  1  0  0  0  0
 24 26  1  0  0  0  0
 25 26  1  0  0  0  0
 27  6  1  0  0  0  0
 28 27  1  0  0  0  0
 29 28  1  0  0  0  0
 30 29  1  0  0  0  0
M  END
>  <MODEL>
4

>  <REMARK>
 VINA RESULT:      -6.3      2.330      3.633
  Name = 
  4 active torsions:
  status: ('A' for Active; 'I' for Inactive)
    1  A    between atoms: C_6  and  C_8
    2  A    between atoms: C_6  and  O_21
    3  A    between atoms: N_9  and  O_21
    4  A    between atoms: N_27  and  C_30
                            x       y       z     vdW  Elec       q    Type
                         _______ _______ _______ _____ _____    ______ ____

>  <TORSDO>
F 4

$$$$
=
 OpenBabel11052417233D

 30 32  0  0  1  0  0  0  0  0999 V2000
  188.2820  174.7280  143.0540 C   0  0  1  0  0  3  0  0  0  0  0  0
  189.9290  173.3590  140.5390 C   0  0  0  0  0  2  0  0  0  0  0  0
  193.0720  176.4130  142.3890 C   0  0  0  0  0  1  0  0  0  0  0  0
  188.3440  175.3750  144.4700 C   0  0  2  0  0  3  0  0  0  0  0  0
  188.4480  175.7130  141.8800 C   0  0  0  0  0  2  0  0  0  0  0  0
  188.3610  177.7360  143.4070 C   0  0  2  0  0  3  0  0  0  0  0  0
  189.5830  176.0690  146.6070 C   0  0  0  0  0  2  0  0  0  0  0  0
  191.3310  176.8940  144.5820 O   0  0  0  0  0  0  0  0  0  0  0  0
  189.1210  177.0200  142.2860 C   0  0  0  0  0  2  0  0  0  0  0  0
  187.7100  176.7860  144.4300 C   0  0  2  0  0  3  0  0  0  0  0  0
  191.2060  172.5240  140.4940 C   0  0  0  0  0  2  0  0  0  0  0  0
  189.0300  177.4740  146.4070 C   0  0  2  0  0  3  0  0  0  0  0  0
  188.9020  172.7820  141.5080 C   0  0  0  0  0  2  0  0  0  0  0  0
  191.4740  174.7990  143.5560 N   0  0  0  0  0  2  0  0  0  0  0  0
  192.1120  172.7670  141.6950 C   0  0  0  0  0  2  0  0  0  0  0  0
  189.0460  173.4080  142.8920 C   0  0  0  0  0  2  0  0  0  0  0  0
  189.8750  173.8350  145.7320 C   0  0  0  0  0  1  0  0  0  0  0  0
  190.8870  175.7180  144.4850 C   0  0  0  0  0  0  0  0  0  0  0  0
  189.6790  175.2780  145.2890 C   0  0  1  0  0  0  0  0  0  0  0  0
  189.1450  178.3000  147.6750 C   0  0  0  0  0  1  0  0  0  0  0  0
  192.4300  175.0760  142.5240 C   0  0  0  0  0  0  0  0  0  0  0  0
  192.7370  174.1270  141.6430 C   0  0  0  0  0  3  0  0  0  0  0  0
  187.6100  177.4330  145.8210 C   0  0  2  0  0  3  0  0  0  0  0  0
  185.3630  176.6580  146.0170 C   0  0  0  0  0  1  0  0  0  0  0  0
  186.4700  177.4020  147.8110 O   0  0  0  0  0  1  0  0  0  0  0  0
  186.6630  176.6910  146.6750 N   0  0  0  0  0  0  0  0  0  0  0  0
  187.3400  178.7200  142.8460 C   0  0  0  0  0  2  0  0  0  0  0  0
  186.1270  178.0780  142.5800 O   0  0  0  0  0  0  0  0  0  0  0  0
  185.1870  179.0370  142.7520 N   0  0  0  0  0  2  0  0  0  0  0  0
  185.5730  179.7930  143.9310 C   0  0  0  0  0  1  0  0  0  0  0  0
  1  5  1  6  0  0  0
  1  4  1  0  0  0  0
  2 13  1  0  0  0  0
  3 21  1  0  0  0  0
  4 19  1  0  0  0  0
  5  9  1  0  0  0  0
  6 10  1  0  0  0  0
  9  6  1  0  0  0  0
 10  4  1  0  0  0  0
 10 23  1  0  0  0  0
 11  2  1  0  0  0  0
 11 15  1  0  0  0  0
 12  7  1  0  0  0  0
 12 20  1  0  0  0  0
 13 16  1  0  0  0  0
 14 18  1  0  0  0  0
 16  1  1  0  0  0  0
 18  8  2  0  0  0  0
 18 19  1  0  0  0  0
 19 17  1  0  0  0  0
 19  7  1  0  0  0  0
 21 14  1  0  0  0  0
 22 15  1  0  0  0  0
 22 21  2  0  0  0  0
 23 12  1  0  0  0  0
 23 26  1  0  0  0  0
 24 26  1  0  0  0  0
 26 25  1  0  0  0  0
 27  6  1  0  0  0  0
 28 29  1  0  0  0  0
 28 27  1  0  0  0  0
 29 30  1  0  0  0  0
M  END
>  <MODEL>
5

>  <REMARK>
 VINA RESULT:      -6.2      2.384      6.261
  Name = 
  4 active torsions:
  status: ('A' for Active; 'I' for Inactive)
    1  A    between atoms: C_6  and  C_8
    2  A    between atoms: C_6  and  O_21
    3  A    between atoms: N_9  and  O_21
    4  A    between atoms: N_27  and  C_30
                            x       y       z     vdW  Elec       q    Type
                         _______ _______ _______ _____ _____    ______ ____

>  <TORSDO>
F 4

$$$$
=
 OpenBabel11052417233D

 30 32  0  0  1  0  0  0  0  0999 V2000
  193.1260  173.8640  145.5360 C   0  0  1  0  0  3  0  0  0  0  0  0
  196.0310  172.7720  144.4050 C   0  0  0  0  0  2  0  0  0  0  0  0
  194.1700  175.0470  140.6650 C   0  0  0  0  0  1  0  0  0  0  0  0
  192.0150  174.9550  145.4720 C   0  0  2  0  0  3  0  0  0  0  0  0
  192.9470  172.6930  144.5500 C   0  0  0  0  0  2  0  0  0  0  0  0
  190.6440  173.4830  143.8420 C   0  0  2  0  0  3  0  0  0  0  0  0
  191.0550  177.1840  144.6420 C   0  0  0  0  0  2  0  0  0  0  0  0
  192.0640  176.0330  142.2980 O   0  0  0  0  0  0  0  0  0  0  0  0
  192.0330  173.0320  143.3780 C   0  0  0  0  0  2  0  0  0  0  0  0
  190.6530  174.2970  145.1500 C   0  0  2  0  0  3  0  0  0  0  0  0
  197.2580  173.5080  143.8740 C   0  0  0  0  0  2  0  0  0  0  0  0
  189.8040  176.4270  144.2190 C   0  0  2  0  0  3  0  0  0  0  0  0
  195.6080  173.2800  145.7790 C   0  0  0  0  0  2  0  0  0  0  0  0
  194.2270  175.7170  143.1290 N   0  0  0  0  0  2  0  0  0  0  0  0
  196.9240  174.8910  143.3270 C   0  0  0  0  0  2  0  0  0  0  0  0
  194.5640  174.3850  145.6550 C   0  0  0  0  0  2  0  0  0  0  0  0
  193.3240  177.0990  145.4730 C   0  0  0  0  0  1  0  0  0  0  0  0
  192.8390  176.0310  143.2940 C   0  0  0  0  0  0  0  0  0  0  0  0
  192.3030  176.2840  144.6890 C   0  0  1  0  0  0  0  0  0  0  0  0
  188.6410  177.3710  143.9750 C   0  0  0  0  0  1  0  0  0  0  0  0
  194.8810  175.1950  141.9650 C   0  0  0  0  0  0  0  0  0  0  0  0
  196.1500  174.8020  142.0480 C   0  0  0  0  0  3  0  0  0  0  0  0
  189.4830  175.2920  145.2060 C   0  0  2  0  0  3  0  0  0  0  0  0
  189.2170  174.6320  147.4820 C   0  0  0  0  0  1  0  0  0  0  0  0
  188.0490  176.3470  146.6520 O   0  0  0  0  0  1  0  0  0  0  0  0
  189.2750  175.7770  146.5830 N   0  0  0  0  0  0  0  0  0  0  0  0
  189.6800  172.3050  143.9370 C   0  0  0  0  0  2  0  0  0  0  0  0
  189.1410  172.0030  142.6840 O   0  0  0  0  0  0  0  0  0  0  0  0
  188.5630  173.1560  142.2730 N   0  0  0  0  0  2  0  0  0  0  0  0
  188.2380  172.9840  140.8680 C   0  0  0  0  0  1  0  0  0  0  0  0
  1  5  1  6  0  0  0
  1 16  1  0  0  0  0
  2 13  1  0  0  0  0
  3 21  1  0  0  0  0
  4  1  1  0  0  0  0
  6 27  1  0  0  0  0
  6 10  1  0  0  0  0
  7 19  1  0  0  0  0
  8 18  2  0  0  0  0
  9  6  1  0  0  0  0
  9  5  1  0  0  0  0
 10 23  1  0  0  0  0
 10  4  1  0  0  0  0
 11  2  1  0  0  0  0
 12  7  1  0  0  0  0
 12 23  1  0  0  0  0
 14 18  1  0  0  0  0
 15 11  1  0  0  0  0
 16 13  1  0  0  0  0
 18 19  1  0  0  0  0
 19  4  1  0  0  0  0
 19 17  1  0  0  0  0
 20 12  1  0  0  0  0
 21 22  2  0  0  0  0
 21 14  1  0  0  0  0
 22 15  1  0  0  0  0
 23 26  1  0  0  0  0
 26 25  1  0  0  0  0
 26 24  1  0  0  0  0
 28 27  1  0  0  0  0
 29 28  1  0  0  0  0
 30 29  1  0  0  0  0
M  END
>  <MODEL>
6

>  <REMARK>
 VINA RESULT:      -6.2      2.111      6.233
  Name = 
  4 active torsions:
  status: ('A' for Active; 'I' for Inactive)
    1  A    between atoms: C_6  and  C_8
    2  A    between atoms: C_6  and  O_21
    3  A    between atoms: N_9  and  O_21
    4  A    between atoms: N_27  and  C_30
                            x       y       z     vdW  Elec       q    Type
                         _______ _______ _______ _____ _____    ______ ____

>  <TORSDO>
F 4

$$$$
=
 OpenBabel11052417233D

 30 32  0  0  1  0  0  0  0  0999 V2000
  189.9250  174.6190  143.6050 C   0  0  1  0  0  3  0  0  0  0  0  0
  192.9210  173.3560  143.0230 C   0  0  0  0  0  2  0  0  0  0  0  0
  193.7660  176.7900  146.2030 C   0  0  0  0  0  1  0  0  0  0  0  0
  188.9630  175.3140  144.6150 C   0  0  2  0  0  3  0  0  0  0  0  0
  190.7920  175.5780  142.7660 C   0  0  0  0  0  2  0  0  0  0  0  0
  189.5690  177.6270  143.6220 C   0  0  2  0  0  3  0  0  0  0  0  0
  188.3620  176.2070  146.9440 C   0  0  0  0  0  2  0  0  0  0  0  0
  190.9720  177.1510  146.5730 O   0  0  0  0  0  0  0  0  0  0  0  0
  190.9300  176.9620  143.3900 C   0  0  0  0  0  2  0  0  0  0  0  0
  188.4500  176.6460  144.0180 C   0  0  2  0  0  3  0  0  0  0  0  0
  193.9280  172.6630  143.9370 C   0  0  0  0  0  2  0  0  0  0  0  0
  188.0180  177.5360  146.2860 C   0  0  2  0  0  3  0  0  0  0  0  0
  191.5450  172.7030  143.0890 C   0  0  0  0  0  2  0  0  0  0  0  0
  191.8970  175.0510  146.1270 N   0  0  0  0  0  2  0  0  0  0  0  0
  193.7510  173.0410  145.4030 C   0  0  0  0  0  2  0  0  0  0  0  0
  190.6660  173.3840  144.1330 C   0  0  0  0  0  2  0  0  0  0  0  0
  189.3010  173.9900  146.7220 C   0  0  0  0  0  1  0  0  0  0  0  0
  190.7830  175.9300  146.3160 C   0  0  0  0  0  0  0  0  0  0  0  0
  189.3790  175.3890  146.1270 C   0  0  1  0  0  0  0  0  0  0  0  0
  187.1860  178.4100  147.2070 C   0  0  0  0  0  1  0  0  0  0  0  0
  193.2830  175.3970  145.9980 C   0  0  0  0  0  0  0  0  0  0  0  0
  194.1630  174.4590  145.6560 C   0  0  0  0  0  3  0  0  0  0  0  0
  187.3880  177.3230  144.9000 C   0  0  2  0  0  3  0  0  0  0  0  0
  185.8060  176.1040  143.5980 C   0  0  0  0  0  1  0  0  0  0  0  0
  185.1420  177.3070  145.3620 O   0  0  0  0  0  1  0  0  0  0  0  0
  186.1580  176.5110  144.9520 N   0  0  0  0  0  0  0  0  0  0  0  0
  189.1540  178.4760  142.4250 C   0  0  0  0  0  2  0  0  0  0  0  0
  187.7970  178.3040  142.1410 O   0  0  0  0  0  0  0  0  0  0  0  0
  187.7670  177.8780  140.8560 N   0  0  0  0  0  2  0  0  0  0  0  0
  186.3770  177.9080  140.4380 C   0  0  0  0  0  1  0  0  0  0  0  0
  1  5  1  1  0  0  0
  1 16  1  0  0  0  0
  1  4  1  0  0  0  0
  2 13  1  0  0  0  0
  2 11  1  0  0  0  0
  4 19  1  0  0  0  0
  5  9  1  0  0  0  0
  6 10  1  0  0  0  0
  9  6  1  0  0  0  0
 10  4  1  0  0  0  0
 10 23  1  0  0  0  0
 11 15  1  0  0  0  0
 12  7  1  0  0  0  0
 12 20  1  0  0  0  0
 13 16  1  0  0  0  0
 14 18  1  0  0  0  0
 15 22  1  0  0  0  0
 18  8  2  0  0  0  0
 19 18  1  0  0  0  0
 19 17  1  0  0  0  0
 19  7  1  0  0  0  0
 21 14  1  0  0  0  0
 21  3  1  0  0  0  0
 22 21  2  0  0  0  0
 23 26  1  0  0  0  0
 23 12  1  0  0  0  0
 24 26  1  0  0  0  0
 26 25  1  0  0  0  0
 27  6  1  0  0  0  0
 28 27  1  0  0  0  0
 29 28  1  0  0  0  0
 30 29  1  0  0  0  0
M  END
>  <MODEL>
7

>  <REMARK>
 VINA RESULT:      -6.2      2.433      6.234
  Name = 
  4 active torsions:
  status: ('A' for Active; 'I' for Inactive)
    1  A    between atoms: C_6  and  C_8
    2  A    between atoms: C_6  and  O_21
    3  A    between atoms: N_9  and  O_21
    4  A    between atoms: N_27  and  C_30
                            x       y       z     vdW  Elec       q    Type
                         _______ _______ _______ _____ _____    ______ ____

>  <TORSDO>
F 4

$$$$
=
 OpenBabel11052417233D

 30 32  0  0  1  0  0  0  0  0999 V2000
  190.4890  176.1870  142.6480 C   0  0  1  0  0  3  0  0  0  0  0  0
  187.2320  176.3740  143.1670 C   0  0  0  0  0  2  0  0  0  0  0  0
  188.9260  174.7710  147.3140 C   0  0  0  0  0  1  0  0  0  0  0  0
  191.9250  176.2700  143.2490 C   0  0  2  0  0  3  0  0  0  0  0  0
  189.8410  174.7890  142.6990 C   0  0  0  0  0  2  0  0  0  0  0  0
  191.9810  173.6950  143.5080 C   0  0  2  0  0  3  0  0  0  0  0  0
  193.5720  176.7360  145.1590 C   0  0  0  0  0  2  0  0  0  0  0  0
  191.5840  175.2140  146.4130 O   0  0  0  0  0  0  0  0  0  0  0  0
  190.4770  173.8730  143.7400 C   0  0  0  0  0  2  0  0  0  0  0  0
  192.6870  174.9540  142.9690 C   0  0  2  0  0  3  0  0  0  0  0  0
  186.4050  177.1930  144.1540 C   0  0  0  0  0  2  0  0  0  0  0  0
  194.1680  175.3570  144.9100 C   0  0  2  0  0  3  0  0  0  0  0  0
  188.1770  177.2470  142.3490 C   0  0  0  0  0  2  0  0  0  0  0  0
  189.8170  176.6080  145.7800 N   0  0  0  0  0  2  0  0  0  0  0  0
  187.1970  177.6020  145.3910 C   0  0  0  0  0  2  0  0  0  0  0  0
  189.5470  177.3410  143.0130 C   0  0  0  0  0  2  0  0  0  0  0  0
  191.8230  178.3340  144.6770 C   0  0  0  0  0  1  0  0  0  0  0  0
  191.1800  176.1750  145.7020 C   0  0  0  0  0  0  0  0  0  0  0  0
  192.1050  176.8380  144.7010 C   0  0  1  0  0  0  0  0  0  0  0  0
  195.5330  175.2190  145.5600 C   0  0  0  0  0  1  0  0  0  0  0  0
  188.7230  175.9650  146.4470 C   0  0  0  0  0  0  0  0  0  0  0  0
  187.4860  176.4240  146.2700 C   0  0  0  0  0  3  0  0  0  0  0  0
  194.1580  175.0120  143.4120 C   0  0  2  0  0  3  0  0  0  0  0  0
  194.4740  175.8750  141.2120 C   0  0  0  0  0  1  0  0  0  0  0  0
  196.2120  175.6170  142.5930 O   0  0  0  0  0  1  0  0  0  0  0  0
  194.9100  175.9850  142.5980 N   0  0  0  0  0  0  0  0  0  0  0  0
  192.2680  172.4860  142.6240 C   0  0  0  0  0  2  0  0  0  0  0  0
  192.4020  172.8690  141.2860 O   0  0  0  0  0  0  0  0  0  0  0  0
  193.1110  171.8690  140.7130 N   0  0  0  0  0  2  0  0  0  0  0  0
  194.5060  172.1080  141.0330 C   0  0  0  0  0  1  0  0  0  0  0  0
  1  5  1  1  0  0  0
  1 16  1  0  0  0  0
  1  4  1  0  0  0  0
  2 11  1  0  0  0  0
  4 19  1  0  0  0  0
  5  9  1  0  0  0  0
  6  9  1  0  0  0  0
 10  4  1  0  0  0  0
 10 23  1  0  0  0  0
 10  6  1  0  0  0  0
 11 15  1  0  0  0  0
 12  7  1  0  0  0  0
 12 20  1  0  0  0  0
 13 16  1  0  0  0  0
 13  2  1  0  0  0  0
 14 21  1  0  0  0  0
 15 22  1  0  0  0  0
 17 19  1  0  0  0  0
 18 14  1  0  0  0  0
 18  8  2  0  0  0  0
 19  7  1  0  0  0  0
 19 18  1  0  0  0  0
 21  3  1  0  0  0  0
 22 21  2  0  0  0  0
 23 12  1  0  0  0  0
 24 26  1  0  0  0  0
 25 26  1  0  0  0  0
 26 23  1  0  0  0  0
 27  6  1  0  0  0  0
 28 27  1  0  0  0  0
 29 30  1  0  0  0  0
 29 28  1  0  0  0  0
M  END
>  <MODEL>
8

>  <REMARK>
 VINA RESULT:      -6.0      1.389      1.602
  Name = 
  4 active torsions:
  status: ('A' for Active; 'I' for Inactive)
    1  A    between atoms: C_6  and  C_8
    2  A    between atoms: C_6  and  O_21
    3  A    between atoms: N_9  and  O_21
    4  A    between atoms: N_27  and  C_30
                            x       y       z     vdW  Elec       q    Type
                         _______ _______ _______ _____ _____    ______ ____

>  <TORSDO>
F 4

$$$$
=
 OpenBabel11052417233D

 30 32  0  0  1  0  0  0  0  0999 V2000
  192.9770  172.6810  144.1720 C   0  0  1  0  0  3  0  0  0  0  0  0
  195.9480  171.3270  144.6710 C   0  0  0  0  0  2  0  0  0  0  0  0
  196.9660  175.7980  143.4030 C   0  0  0  0  0  1  0  0  0  0  0  0
  192.0920  173.9630  144.2070 C   0  0  2  0  0  3  0  0  0  0  0  0
  193.7200  172.4380  142.8440 C   0  0  0  0  0  2  0  0  0  0  0  0
  192.5080  174.3370  141.6800 C   0  0  2  0  0  3  0  0  0  0  0  0
  191.6870  176.4380  144.7480 C   0  0  0  0  0  2  0  0  0  0  0  0
  194.2090  176.4740  143.5350 O   0  0  0  0  0  0  0  0  0  0  0  0
  193.8650  173.7000  142.0000 C   0  0  0  0  0  2  0  0  0  0  0  0
  191.4720  174.2100  142.8120 C   0  0  2  0  0  3  0  0  0  0  0  0
  197.0660  171.6600  145.6560 C   0  0  0  0  0  2  0  0  0  0  0  0
  191.2290  176.6220  143.3080 C   0  0  2  0  0  3  0  0  0  0  0  0
  194.6110  171.1150  145.3720 C   0  0  0  0  0  2  0  0  0  0  0  0
  195.1680  174.9120  144.9860 N   0  0  0  0  0  2  0  0  0  0  0  0
  197.0180  173.1070  146.1340 C   0  0  0  0  0  2  0  0  0  0  0  0
  193.8140  172.4140  145.4300 C   0  0  0  0  0  2  0  0  0  0  0  0
  192.6850  175.0000  146.4170 C   0  0  0  0  0  1  0  0  0  0  0  0
  194.0440  175.6130  144.4410 C   0  0  0  0  0  0  0  0  0  0  0  0
  192.6500  175.2480  144.9150 C   0  0  1  0  0  0  0  0  0  0  0  0
  190.4570  177.9180  143.1350 C   0  0  0  0  0  1  0  0  0  0  0  0
  196.5190  174.9040  144.5080 C   0  0  0  0  0  0  0  0  0  0  0  0
  197.3970  174.0570  145.0400 C   0  0  0  0  0  3  0  0  0  0  0  0
  190.4760  175.3810  142.8030 C   0  0  2  0  0  3  0  0  0  0  0  0
  188.9410  173.6630  143.4180 C   0  0  0  0  0  1  0  0  0  0  0  0
  188.2390  175.7650  143.1310 O   0  0  0  0  0  1  0  0  0  0  0  0
  189.2890  175.0630  143.6180 N   0  0  0  0  0  0  0  0  0  0  0  0
  191.9460  173.8130  140.3620 C   0  0  0  0  0  2  0  0  0  0  0  0
  191.0370  172.7760  140.5880 O   0  0  0  0  0  0  0  0  0  0  0  0
  190.2470  172.7680  139.4880 N   0  0  0  0  0  2  0  0  0  0  0  0
  189.2360  173.7910  139.6920 C   0  0  0  0  0  1  0  0  0  0  0  0
  1  5  1  6  0  0  0
  1  4  1  0  0  0  0
  1 16  1  0  0  0  0
  2 13  1  0  0  0  0
  2 11  1  0  0  0  0
  3 21  1  0  0  0  0
  4 19  1  0  0  0  0
  6  9  1  0  0  0  0
  6 10  1  0  0  0  0
  7 19  1  0  0  0  0
  8 18  2  0  0  0  0
  9  5  1  0  0  0  0
 10  4  1  0  0  0  0
 11 15  1  0  0  0  0
 12  7  1  0  0  0  0
 13 16  1  0  0  0  0
 18 19  1  0  0  0  0
 18 14  1  0  0  0  0
 19 17  1  0  0  0  0
 20 12  1  0  0  0  0
 21 14  1  0  0  0  0
 21 22  2  0  0  0  0
 22 15  1  0  0  0  0
 23 10  1  0  0  0  0
 23 12  1  0  0  0  0
 23 26  1  0  0  0  0
 24 26  1  0  0  0  0
 25 26  1  0  0  0  0
 27 28  1  0  0  0  0
 27  6  1  0  0  0  0
 29 30  1  0  0  0  0
 29 28  1  0  0  0  0
M  END
>  <MODEL>
9

>  <REMARK>
 VINA RESULT:      -6.0      2.593      6.523
  Name = 
  4 active torsions:
  status: ('A' for Active; 'I' for Inactive)
    1  A    between atoms: C_6  and  C_8
    2  A    between atoms: C_6  and  O_21
    3  A    between atoms: N_9  and  O_21
    4  A    between atoms: N_27  and  C_30
                            x       y       z     vdW  Elec       q    Type
                         _______ _______ _______ _____ _____    ______ ____

>  <TORSDO>
F 4

$$$$
