=
 OpenBabel11052418293D

 27 31  0  0  1  0  0  0  0  0999 V2000
  190.9330  176.7520  144.7770 C   0  0  0  0  0  3  0  0  0  0  0  0
  189.4810  175.3250  143.2800 C   0  0  0  0  0  0  0  0  0  0  0  0
  191.7530  174.5550  142.9100 N   0  0  0  0  0  0  0  0  0  0  0  0
  188.6210  172.9850  139.4190 S   0  0  0  0  0  0  0  0  0  0  0  0
  190.7330  171.2350  139.4210 C   0  0  0  0  0  1  0  0  0  0  0  0
  188.1470  175.0860  142.8690 C   0  0  0  0  0  3  0  0  0  0  0  0
  191.0860  173.4460  140.3850 N   0  0  0  0  0  0  0  0  0  0  0  0
  194.3620  174.3200  145.6080 C   0  0  0  0  0  3  0  0  0  0  0  0
  192.5120  173.7350  140.3190 C   0  0  0  0  0  1  0  0  0  0  0  0
  194.7670  175.4600  146.1590 C   0  0  0  0  0  3  0  0  0  0  0  0
  190.1770  174.0760  141.2870 C   0  0  0  0  0  0  0  0  0  0  0  0
  189.6590  176.1520  144.3510 C   0  0  0  0  0  0  0  0  0  0  0  0
  190.4340  172.7180  139.3020 C   0  0  2  0  0  3  0  0  0  0  0  0
  188.8640  173.9130  140.9180 C   0  0  0  0  0  0  0  0  0  0  0  0
  192.1600  176.2690  144.6980 C   0  0  0  0  0  0  0  0  0  0  0  0
  190.5270  174.7150  142.5030 C   0  0  0  0  0  0  0  0  0  0  0  0
  193.4020  174.1450  144.5100 C   0  0  0  0  0  3  0  0  0  0  0  0
  187.8310  174.3800  141.7130 C   0  0  0  0  0  3  0  0  0  0  0  0
  194.3340  176.8180  145.8150 C   0  0  0  0  0  3  0  0  0  0  0  0
  193.2110  177.1650  145.1930 C   0  0  0  0  0  3  0  0  0  0  0  0
  192.4370  174.9640  144.0910 C   0  0  0  0  0  0  0  0  0  0  0  0
  186.2780  177.7710  146.4260 C   0  0  0  0  0  3  0  0  0  0  0  0
  188.5060  176.7220  145.0870 C   0  0  0  0  0  0  0  0  0  0  0  0
  188.0920  176.1720  146.3090 C   0  0  0  0  0  3  0  0  0  0  0  0
  186.9840  176.6990  146.9790 C   0  0  0  0  0  3  0  0  0  0  0  0
  186.6770  178.3150  145.2020 C   0  0  0  0  0  3  0  0  0  0  0  0
  187.7860  177.7890  144.5320 C   0  0  0  0  0  3  0  0  0  0  0  0
  2 12  1  0  0  0  0
  3 21  2  0  0  0  0
  4 14  1  0  0  0  0
  6  2  1  0  0  0  0
  7 11  1  0  0  0  0
  8 10  1  0  0  0  0
  9  7  1  0  0  0  0
 11 16  1  0  0  0  0
 12  1  2  0  0  0  0
 12 23  1  0  0  0  0
 13  4  1  0  0  0  0
 13  5  1  1  0  0  0
 13  7  1  0  0  0  0
 14 11  2  0  0  0  0
 14 18  1  0  0  0  0
 15  1  1  0  0  0  0
 15 20  2  0  0  0  0
 16  3  1  0  0  0  0
 16  2  2  0  0  0  0
 17  8  2  0  0  0  0
 18  6  2  0  0  0  0
 19 10  2  0  0  0  0
 20 19  1  0  0  0  0
 21 17  1  0  0  0  0
 21 15  1  0  0  0  0
 22 25  1  0  0  0  0
 23 24  1  0  0  0  0
 24 25  2  0  0  0  0
 26 22  2  0  0  0  0
 27 23  2  0  0  0  0
 27 26  1  0  0  0  0
M  END
>  <MODEL>
1

>  <REMARK>
 VINA RESULT:      -7.9      0.000      0.000
  Name = 
  1 active torsions:
  status: ('A' for Active; 'I' for Inactive)
    1  A    between atoms: C_9  and  C_15
                            x       y       z     vdW  Elec       q    Type
                         _______ _______ _______ _____ _____    ______ ____

>  <TORSDO>
F 1

$$$$
=
 OpenBabel11052418293D

 27 31  0  0  1  0  0  0  0  0999 V2000
  187.7900  174.9100  142.3860 C   0  0  0  0  0  3  0  0  0  0  0  0
  189.1550  176.1500  144.1140 C   0  0  0  0  0  0  0  0  0  0  0  0
  190.6630  174.5150  143.1440 N   0  0  0  0  0  0  0  0  0  0  0  0
  192.3870  176.4160  147.3710 S   0  0  0  0  0  0  0  0  0  0  0  0
  194.5640  175.4890  145.9840 C   0  0  0  0  0  1  0  0  0  0  0  0
  189.1110  177.1790  145.0860 C   0  0  0  0  0  3  0  0  0  0  0  0
  192.3770  174.5840  145.4040 N   0  0  0  0  0  0  0  0  0  0  0  0
  190.6570  173.5400  139.5110 C   0  0  0  0  0  3  0  0  0  0  0  0
  192.5840  173.2760  144.7980 C   0  0  0  0  0  1  0  0  0  0  0  0
  189.5770  172.9140  139.0540 C   0  0  0  0  0  3  0  0  0  0  0  0
  191.2090  175.3830  145.2160 C   0  0  0  0  0  0  0  0  0  0  0  0
  188.0850  176.0460  143.2740 C   0  0  0  0  0  0  0  0  0  0  0  0
  193.2200  175.0230  146.5110 C   0  0  2  0  0  3  0  0  0  0  0  0
  191.0880  176.3780  146.1560 C   0  0  0  0  0  0  0  0  0  0  0  0
  188.6180  174.1030  141.7470 C   0  0  0  0  0  0  0  0  0  0  0  0
  190.3010  175.2800  144.1310 C   0  0  0  0  0  0  0  0  0  0  0  0
  190.9280  173.9760  140.8880 C   0  0  0  0  0  3  0  0  0  0  0  0
  190.0650  177.3080  146.0900 C   0  0  0  0  0  3  0  0  0  0  0  0
  188.3850  172.5260  139.8150 C   0  0  0  0  0  3  0  0  0  0  0  0
  187.9700  173.0420  140.9680 C   0  0  0  0  0  3  0  0  0  0  0  0
  190.0720  174.2300  141.8790 C   0  0  0  0  0  0  0  0  0  0  0  0
  184.8520  178.8470  143.5230 C   0  0  0  0  0  3  0  0  0  0  0  0
  186.9580  177.0060  143.3370 C   0  0  0  0  0  0  0  0  0  0  0  0
  186.9200  178.1260  142.4930 C   0  0  0  0  0  3  0  0  0  0  0  0
  185.8670  179.0410  142.5840 C   0  0  0  0  0  3  0  0  0  0  0  0
  184.8900  177.7400  144.3760 C   0  0  0  0  0  3  0  0  0  0  0  0
  185.9430  176.8240  144.2870 C   0  0  0  0  0  3  0  0  0  0  0  0
  1 12  1  0  0  0  0
  2 16  1  0  0  0  0
  2  6  1  0  0  0  0
  3 16  2  0  0  0  0
  6 18  2  0  0  0  0
  7 13  1  0  0  0  0
  8 17  1  0  0  0  0
  9  7  1  0  0  0  0
 10  8  2  0  0  0  0
 10 19  1  0  0  0  0
 11  7  1  0  0  0  0
 11 14  2  0  0  0  0
 12 23  1  0  0  0  0
 12  2  2  0  0  0  0
 13  5  1  6  0  0  0
 13  4  1  0  0  0  0
 14  4  1  0  0  0  0
 15 21  1  0  0  0  0
 15  1  2  0  0  0  0
 16 11  1  0  0  0  0
 17 21  2  0  0  0  0
 18 14  1  0  0  0  0
 19 20  2  0  0  0  0
 20 15  1  0  0  0  0
 21  3  1  0  0  0  0
 22 26  1  0  0  0  0
 23 27  1  0  0  0  0
 24 25  1  0  0  0  0
 24 23  2  0  0  0  0
 25 22  2  0  0  0  0
 27 26  2  0  0  0  0
M  END
>  <MODEL>
2

>  <REMARK>
 VINA RESULT:      -7.6      2.384      5.517
  Name = 
  1 active torsions:
  status: ('A' for Active; 'I' for Inactive)
    1  A    between atoms: C_9  and  C_15
                            x       y       z     vdW  Elec       q    Type
                         _______ _______ _______ _____ _____    ______ ____

>  <TORSDO>
F 1

$$$$
=
 OpenBabel11052418293D

 27 31  0  0  1  0  0  0  0  0999 V2000
  188.0540  175.7080  143.9760 C   0  0  0  0  0  3  0  0  0  0  0  0
  189.9740  174.3640  143.0320 C   0  0  0  0  0  0  0  0  0  0  0  0
  188.4620  174.7320  141.1710 N   0  0  0  0  0  0  0  0  0  0  0  0
  191.7800  171.1830  140.2490 S   0  0  0  0  0  0  0  0  0  0  0  0
  190.9460  172.1280  137.8130 C   0  0  0  0  0  1  0  0  0  0  0  0
  191.2070  173.7440  143.3550 C   0  0  0  0  0  3  0  0  0  0  0  0
  189.5020  172.5160  139.7380 N   0  0  0  0  0  0  0  0  0  0  0  0
  186.5190  177.9080  140.6330 C   0  0  0  0  0  3  0  0  0  0  0  0
  188.1440  172.6960  139.2440 C   0  0  0  0  0  1  0  0  0  0  0  0
  185.5900  178.2090  141.5360 C   0  0  0  0  0  3  0  0  0  0  0  0
  189.9700  172.9880  141.0010 C   0  0  0  0  0  0  0  0  0  0  0  0
  189.4290  175.1840  143.9760 C   0  0  0  0  0  0  0  0  0  0  0  0
  190.3920  171.5510  139.1020 C   0  0  2  0  0  3  0  0  0  0  0  0
  191.1450  172.3920  141.3900 C   0  0  0  0  0  0  0  0  0  0  0  0
  187.2790  176.0390  142.9580 C   0  0  0  0  0  0  0  0  0  0  0  0
  189.3880  174.0340  141.7600 C   0  0  0  0  0  0  0  0  0  0  0  0
  187.3700  176.7110  140.5860 C   0  0  0  0  0  3  0  0  0  0  0  0
  191.7990  172.7790  142.5460 C   0  0  0  0  0  3  0  0  0  0  0  0
  185.2060  177.4240  142.7140 C   0  0  0  0  0  3  0  0  0  0  0  0
  185.9350  176.4970  143.3280 C   0  0  0  0  0  3  0  0  0  0  0  0
  187.7210  175.8820  141.5700 C   0  0  0  0  0  0  0  0  0  0  0  0
  191.4700  175.9160  147.6720 C   0  0  0  0  0  3  0  0  0  0  0  0
  190.1260  175.4630  145.2540 C   0  0  0  0  0  0  0  0  0  0  0  0
  191.2740  176.2680  145.2850 C   0  0  0  0  0  3  0  0  0  0  0  0
  191.9410  176.4970  146.4910 C   0  0  0  0  0  3  0  0  0  0  0  0
  190.3340  175.1020  147.6460 C   0  0  0  0  0  3  0  0  0  0  0  0
  189.6660  174.8720  146.4390 C   0  0  0  0  0  3  0  0  0  0  0  0
  2  6  1  0  0  0  0
  2 12  2  0  0  0  0
  3 21  1  0  0  0  0
  3 16  2  0  0  0  0
  4 14  1  0  0  0  0
  7 11  1  0  0  0  0
  8 10  2  0  0  0  0
  9  7  1  0  0  0  0
 10 19  1  0  0  0  0
 11 14  2  0  0  0  0
 11 16  1  0  0  0  0
 12  1  1  0  0  0  0
 12 23  1  0  0  0  0
 13  5  1  6  0  0  0
 13  7  1  0  0  0  0
 13  4  1  0  0  0  0
 14 18  1  0  0  0  0
 15 20  1  0  0  0  0
 15  1  2  0  0  0  0
 16  2  1  0  0  0  0
 17  8  1  0  0  0  0
 17 21  2  0  0  0  0
 18  6  2  0  0  0  0
 19 20  2  0  0  0  0
 21 15  1  0  0  0  0
 23 24  2  0  0  0  0
 23 27  1  0  0  0  0
 24 25  1  0  0  0  0
 25 22  2  0  0  0  0
 26 22  1  0  0  0  0
 27 26  2  0  0  0  0
M  END
>  <MODEL>
3

>  <REMARK>
 VINA RESULT:      -7.6      2.227      5.116
  Name = 
  1 active torsions:
  status: ('A' for Active; 'I' for Inactive)
    1  A    between atoms: C_9  and  C_15
                            x       y       z     vdW  Elec       q    Type
                         _______ _______ _______ _____ _____    ______ ____

>  <TORSDO>
F 1

$$$$
=
 OpenBabel11052418293D

 27 31  0  0  1  0  0  0  0  0999 V2000
  188.8100  177.5260  145.6970 C   0  0  0  0  0  3  0  0  0  0  0  0
  187.9820  176.3110  143.6430 C   0  0  0  0  0  0  0  0  0  0  0  0
  190.1160  175.2910  144.1860 N   0  0  0  0  0  0  0  0  0  0  0  0
  188.5830  174.1700  139.6190 S   0  0  0  0  0  0  0  0  0  0  0  0
  190.3230  172.1880  140.3700 C   0  0  0  0  0  1  0  0  0  0  0  0
  186.9230  176.2360  142.7040 C   0  0  0  0  0  3  0  0  0  0  0  0
  190.4560  174.3210  141.5420 N   0  0  0  0  0  0  0  0  0  0  0  0
  191.3320  174.6960  147.6950 C   0  0  0  0  0  3  0  0  0  0  0  0
  191.8010  174.4450  142.0870 C   0  0  0  0  0  1  0  0  0  0  0  0
  191.5780  175.7690  148.4400 C   0  0  0  0  0  3  0  0  0  0  0  0
  189.3190  175.0330  142.0310 C   0  0  0  0  0  0  0  0  0  0  0  0
  187.7780  177.0880  144.7450 C   0  0  0  0  0  0  0  0  0  0  0  0
  190.2460  173.6980  140.2390 C   0  0  2  0  0  3  0  0  0  0  0  0
  188.2690  175.0310  141.1450 C   0  0  0  0  0  0  0  0  0  0  0  0
  189.9060  176.9060  146.0960 C   0  0  0  0  0  0  0  0  0  0  0  0
  189.1920  175.6000  143.3240 C   0  0  0  0  0  0  0  0  0  0  0  0
  190.9030  174.6570  146.2900 C   0  0  0  0  0  3  0  0  0  0  0  0
  187.0500  175.5970  141.4750 C   0  0  0  0  0  3  0  0  0  0  0  0
  191.4610  177.1750  148.0420 C   0  0  0  0  0  3  0  0  0  0  0  0
  190.7370  177.6640  147.0390 C   0  0  0  0  0  3  0  0  0  0  0  0
  190.2830  175.5920  145.5690 C   0  0  0  0  0  0  0  0  0  0  0  0
  184.0110  179.0380  145.3550 C   0  0  0  0  0  3  0  0  0  0  0  0
  186.4840  177.7710  144.9800 C   0  0  0  0  0  0  0  0  0  0  0  0
  185.5760  177.2830  145.9320 C   0  0  0  0  0  3  0  0  0  0  0  0
  184.3450  177.9180  146.1210 C   0  0  0  0  0  3  0  0  0  0  0  0
  184.9060  179.5210  144.3960 C   0  0  0  0  0  3  0  0  0  0  0  0
  186.1370  178.8870  144.2050 C   0  0  0  0  0  3  0  0  0  0  0  0
  1 15  1  0  0  0  0
  2 12  1  0  0  0  0
  3 21  2  0  0  0  0
  4 13  1  0  0  0  0
  4 14  1  0  0  0  0
  6  2  2  0  0  0  0
  7 11  1  0  0  0  0
  7  9  1  0  0  0  0
  8 10  1  0  0  0  0
 11 16  2  0  0  0  0
 12 23  1  0  0  0  0
 12  1  2  0  0  0  0
 13  5  1  1  0  0  0
 13  7  1  0  0  0  0
 14 18  2  0  0  0  0
 14 11  1  0  0  0  0
 15 20  2  0  0  0  0
 16  2  1  0  0  0  0
 16  3  1  0  0  0  0
 17  8  2  0  0  0  0
 18  6  1  0  0  0  0
 19 10  2  0  0  0  0
 20 19  1  0  0  0  0
 21 15  1  0  0  0  0
 21 17  1  0  0  0  0
 22 25  1  0  0  0  0
 23 24  1  0  0  0  0
 24 25  2  0  0  0  0
 26 22  2  0  0  0  0
 27 26  1  0  0  0  0
 27 23  2  0  0  0  0
M  END
>  <MODEL>
4

>  <REMARK>
 VINA RESULT:      -7.5      1.959      2.424
  Name = 
  1 active torsions:
  status: ('A' for Active; 'I' for Inactive)
    1  A    between atoms: C_9  and  C_15
                            x       y       z     vdW  Elec       q    Type
                         _______ _______ _______ _____ _____    ______ ____

>  <TORSDO>
F 1

$$$$
=
 OpenBabel11052418293D

 27 31  0  0  1  0  0  0  0  0999 V2000
  190.0620  175.7040  145.5860 C   0  0  0  0  0  3  0  0  0  0  0  0
  190.9610  174.8550  143.3820 C   0  0  0  0  0  0  0  0  0  0  0  0
  188.5560  174.9960  143.0930 N   0  0  0  0  0  0  0  0  0  0  0  0
  190.7370  172.2940  139.5720 S   0  0  0  0  0  0  0  0  0  0  0  0
  188.3610  173.1740  138.5240 C   0  0  0  0  0  1  0  0  0  0  0  0
  192.1430  174.4960  142.6890 C   0  0  0  0  0  3  0  0  0  0  0  0
  188.5890  173.1360  140.9500 N   0  0  0  0  0  0  0  0  0  0  0  0
  186.4120  177.7080  144.5740 C   0  0  0  0  0  3  0  0  0  0  0  0
  187.2520  173.0490  141.5200 C   0  0  0  0  0  1  0  0  0  0  0  0
  186.3230  177.7530  145.9000 C   0  0  0  0  0  3  0  0  0  0  0  0
  189.7330  173.6260  141.6500 C   0  0  0  0  0  0  0  0  0  0  0  0
  191.1150  175.4860  144.5820 C   0  0  0  0  0  0  0  0  0  0  0  0
  188.9110  172.4210  139.7200 C   0  0  2  0  0  3  0  0  0  0  0  0
  190.9160  173.2740  141.0460 C   0  0  0  0  0  0  0  0  0  0  0  0
  188.7690  175.9170  145.4180 C   0  0  0  0  0  0  0  0  0  0  0  0
  189.7090  174.4800  142.7810 C   0  0  0  0  0  0  0  0  0  0  0  0
  187.1350  176.7250  143.7550 C   0  0  0  0  0  3  0  0  0  0  0  0
  192.1310  173.7270  141.5290 C   0  0  0  0  0  3  0  0  0  0  0  0
  186.9440  176.8400  146.8650 C   0  0  0  0  0  3  0  0  0  0  0  0
  187.9990  176.0570  146.6590 C   0  0  0  0  0  3  0  0  0  0  0  0
  188.1580  175.9370  144.0860 C   0  0  0  0  0  0  0  0  0  0  0  0
  194.9640  176.5490  146.1370 C   0  0  0  0  0  3  0  0  0  0  0  0
  192.4570  175.8350  145.1040 C   0  0  0  0  0  0  0  0  0  0  0  0
  193.1370  174.9690  145.9740 C   0  0  0  0  0  3  0  0  0  0  0  0
  194.3880  175.3240  146.4850 C   0  0  0  0  0  3  0  0  0  0  0  0
  194.2870  177.4220  145.2810 C   0  0  0  0  0  3  0  0  0  0  0  0
  193.0350  177.0680  144.7690 C   0  0  0  0  0  3  0  0  0  0  0  0
  2 12  1  0  0  0  0
  3 21  2  0  0  0  0
  4 13  1  0  0  0  0
  4 14  1  0  0  0  0
  6  2  2  0  0  0  0
  7  9  1  0  0  0  0
  7 11  1  0  0  0  0
  8 10  1  0  0  0  0
 10 19  2  0  0  0  0
 11 16  2  0  0  0  0
 12 23  1  0  0  0  0
 12  1  2  0  0  0  0
 13  5  1  6  0  0  0
 13  7  1  0  0  0  0
 14 18  2  0  0  0  0
 14 11  1  0  0  0  0
 15  1  1  0  0  0  0
 15 20  2  0  0  0  0
 16  3  1  0  0  0  0
 16  2  1  0  0  0  0
 17 21  1  0  0  0  0
 17  8  2  0  0  0  0
 18  6  1  0  0  0  0
 20 19  1  0  0  0  0
 21 15  1  0  0  0  0
 22 25  1  0  0  0  0
 23 24  1  0  0  0  0
 24 25  2  0  0  0  0
 26 22  2  0  0  0  0
 27 23  2  0  0  0  0
 27 26  1  0  0  0  0
M  END
>  <MODEL>
5

>  <REMARK>
 VINA RESULT:      -7.2      1.423      5.070
  Name = 
  1 active torsions:
  status: ('A' for Active; 'I' for Inactive)
    1  A    between atoms: C_9  and  C_15
                            x       y       z     vdW  Elec       q    Type
                         _______ _______ _______ _____ _____    ______ ____

>  <TORSDO>
F 1

$$$$
=
 OpenBabel11052418293D

 27 31  0  0  1  0  0  0  0  0999 V2000
  188.5110  174.6820  143.0860 C   0  0  0  0  0  3  0  0  0  0  0  0
  190.4290  175.7460  144.3410 C   0  0  0  0  0  0  0  0  0  0  0  0
  191.4550  174.2310  142.7470 N   0  0  0  0  0  0  0  0  0  0  0  0
  194.6000  175.6960  146.2710 S   0  0  0  0  0  0  0  0  0  0  0  0
  196.1290  174.9340  144.1250 C   0  0  0  0  0  1  0  0  0  0  0  0
  190.7570  176.6680  145.3650 C   0  0  0  0  0  3  0  0  0  0  0  0
  193.8500  174.0780  144.2600 N   0  0  0  0  0  0  0  0  0  0  0  0
  190.1540  173.6380  139.2690 C   0  0  0  0  0  3  0  0  0  0  0  0
  193.7950  172.8420  143.4930 C   0  0  0  0  0  1  0  0  0  0  0  0
  188.9640  173.0550  139.1580 C   0  0  0  0  0  3  0  0  0  0  0  0
  192.7140  174.8840  144.5730 C   0  0  0  0  0  0  0  0  0  0  0  0
  189.1310  175.7210  143.9230 C   0  0  0  0  0  0  0  0  0  0  0  0
  195.0400  174.4060  145.0400 C   0  0  2  0  0  3  0  0  0  0  0  0
  192.9580  175.7750  145.5900 C   0  0  0  0  0  0  0  0  0  0  0  0
  189.0410  173.9520  142.1210 C   0  0  0  0  0  0  0  0  0  0  0  0
  191.4830  174.8870  143.8700 C   0  0  0  0  0  0  0  0  0  0  0  0
  190.9010  173.9300  140.5000 C   0  0  0  0  0  3  0  0  0  0  0  0
  192.0050  176.6990  145.9790 C   0  0  0  0  0  3  0  0  0  0  0  0
  188.1010  172.5810  140.2460 C   0  0  0  0  0  3  0  0  0  0  0  0
  188.1300  172.9720  141.5170 C   0  0  0  0  0  3  0  0  0  0  0  0
  190.4520  174.0750  141.7470 C   0  0  0  0  0  0  0  0  0  0  0  0
  186.1700  178.4110  145.4600 C   0  0  0  0  0  3  0  0  0  0  0  0
  188.1250  176.6610  144.4720 C   0  0  0  0  0  0  0  0  0  0  0  0
  187.5630  176.4520  145.7410 C   0  0  0  0  0  3  0  0  0  0  0  0
  186.5930  177.3280  146.2340 C   0  0  0  0  0  3  0  0  0  0  0  0
  186.7150  178.6180  144.1890 C   0  0  0  0  0  3  0  0  0  0  0  0
  187.6870  177.7420  143.6950 C   0  0  0  0  0  3  0  0  0  0  0  0
  1 12  1  0  0  0  0
  2  6  1  0  0  0  0
  3 16  2  0  0  0  0
  6 18  2  0  0  0  0
  7 11  1  0  0  0  0
  7 13  1  0  0  0  0
  8 17  1  0  0  0  0
  9  7  1  0  0  0  0
 10  8  2  0  0  0  0
 10 19  1  0  0  0  0
 11 14  2  0  0  0  0
 12  2  2  0  0  0  0
 12 23  1  0  0  0  0
 13  5  1  6  0  0  0
 13  4  1  0  0  0  0
 14 18  1  0  0  0  0
 14  4  1  0  0  0  0
 15  1  2  0  0  0  0
 16  2  1  0  0  0  0
 16 11  1  0  0  0  0
 17 21  2  0  0  0  0
 19 20  2  0  0  0  0
 20 15  1  0  0  0  0
 21 15  1  0  0  0  0
 21  3  1  0  0  0  0
 22 25  1  0  0  0  0
 23 24  1  0  0  0  0
 24 25  2  0  0  0  0
 26 22  2  0  0  0  0
 27 26  1  0  0  0  0
 27 23  2  0  0  0  0
M  END
>  <MODEL>
6

>  <REMARK>
 VINA RESULT:      -7.1      2.178      5.215
  Name = 
  1 active torsions:
  status: ('A' for Active; 'I' for Inactive)
    1  A    between atoms: C_9  and  C_15
                            x       y       z     vdW  Elec       q    Type
                         _______ _______ _______ _____ _____    ______ ____

>  <TORSDO>
F 1

$$$$
=
 OpenBabel11052418293D

 27 31  0  0  1  0  0  0  0  0999 V2000
  191.2690  174.1210  145.4860 C   0  0  0  0  0  3  0  0  0  0  0  0
  191.9000  173.6660  143.0820 C   0  0  0  0  0  0  0  0  0  0  0  0
  189.5470  174.2570  143.0360 N   0  0  0  0  0  0  0  0  0  0  0  0
  191.0490  172.1160  138.8390 S   0  0  0  0  0  0  0  0  0  0  0  0
  188.8200  173.5870  138.2140 C   0  0  0  0  0  1  0  0  0  0  0  0
  192.9660  173.2870  142.2290 C   0  0  0  0  0  3  0  0  0  0  0  0
  189.1500  172.9580  140.5450 N   0  0  0  0  0  0  0  0  0  0  0  0
  187.9890  176.8690  145.2490 C   0  0  0  0  0  3  0  0  0  0  0  0
  187.8470  172.9610  141.1940 C   0  0  0  0  0  1  0  0  0  0  0  0
  187.9720  176.6230  146.5560 C   0  0  0  0  0  3  0  0  0  0  0  0
  190.3940  173.0810  141.2350 C   0  0  0  0  0  0  0  0  0  0  0  0
  192.2190  173.9710  144.3720 C   0  0  0  0  0  0  0  0  0  0  0  0
  189.2820  172.5000  139.1660 C   0  0  2  0  0  3  0  0  0  0  0  0
  191.4670  172.6900  140.4710 C   0  0  0  0  0  0  0  0  0  0  0  0
  190.0280  174.5740  145.4790 C   0  0  0  0  0  0  0  0  0  0  0  0
  190.5740  173.6460  142.5230 C   0  0  0  0  0  0  0  0  0  0  0  0
  188.4880  175.9960  144.1780 C   0  0  0  0  0  3  0  0  0  0  0  0
  192.7640  172.8170  140.9350 C   0  0  0  0  0  3  0  0  0  0  0  0
  188.4650  175.4250  147.2420 C   0  0  0  0  0  3  0  0  0  0  0  0
  189.3540  174.5490  146.7820 C   0  0  0  0  0  3  0  0  0  0  0  0
  189.3690  174.9970  144.2410 C   0  0  0  0  0  0  0  0  0  0  0  0
  196.2610  173.9970  145.7950 C   0  0  0  0  0  3  0  0  0  0  0  0
  193.6250  173.9690  144.8420 C   0  0  0  0  0  0  0  0  0  0  0  0
  194.2530  172.7730  145.2210 C   0  0  0  0  0  3  0  0  0  0  0  0
  195.5690  172.7870  145.6920 C   0  0  0  0  0  3  0  0  0  0  0  0
  195.6360  175.1940  145.4320 C   0  0  0  0  0  3  0  0  0  0  0  0
  194.3200  175.1800  144.9610 C   0  0  0  0  0  3  0  0  0  0  0  0
  2 12  1  0  0  0  0
  3 21  2  0  0  0  0
  4 13  1  0  0  0  0
  4 14  1  0  0  0  0
  6  2  2  0  0  0  0
  7  9  1  0  0  0  0
  7 11  1  0  0  0  0
  8 10  1  0  0  0  0
 10 19  2  0  0  0  0
 11 16  2  0  0  0  0
 12 23  1  0  0  0  0
 12  1  2  0  0  0  0
 13  5  1  6  0  0  0
 13  7  1  0  0  0  0
 14 18  2  0  0  0  0
 14 11  1  0  0  0  0
 15  1  1  0  0  0  0
 15 20  2  0  0  0  0
 16  3  1  0  0  0  0
 16  2  1  0  0  0  0
 17 21  1  0  0  0  0
 17  8  2  0  0  0  0
 18  6  1  0  0  0  0
 20 19  1  0  0  0  0
 21 15  1  0  0  0  0
 23 27  2  0  0  0  0
 23 24  1  0  0  0  0
 24 25  2  0  0  0  0
 25 22  1  0  0  0  0
 26 22  2  0  0  0  0
 27 26  1  0  0  0  0
M  END
>  <MODEL>
7

>  <REMARK>
 VINA RESULT:      -7.0      1.597      5.359
  Name = 
  1 active torsions:
  status: ('A' for Active; 'I' for Inactive)
    1  A    between atoms: C_9  and  C_15
                            x       y       z     vdW  Elec       q    Type
                         _______ _______ _______ _____ _____    ______ ____

>  <TORSDO>
F 1

$$$$
=
 OpenBabel11052418293D

 27 31  0  0  1  0  0  0  0  0999 V2000
  188.6890  177.0340  143.7060 C   0  0  0  0  0  3  0  0  0  0  0  0
  188.6270  175.3030  141.8650 C   0  0  0  0  0  0  0  0  0  0  0  0
  190.3430  174.5520  143.4080 N   0  0  0  0  0  0  0  0  0  0  0  0
  190.5760  172.2490  139.0370 S   0  0  0  0  0  0  0  0  0  0  0  0
  191.7980  170.6010  140.8570 C   0  0  0  0  0  1  0  0  0  0  0  0
  187.9950  174.9470  140.6490 C   0  0  0  0  0  3  0  0  0  0  0  0
  191.5970  172.9640  141.4190 N   0  0  0  0  0  0  0  0  0  0  0  0
  190.1210  174.9160  147.1440 C   0  0  0  0  0  3  0  0  0  0  0  0
  192.6440  173.2820  142.3800 C   0  0  0  0  0  1  0  0  0  0  0  0
  190.1280  176.1520  147.6340 C   0  0  0  0  0  3  0  0  0  0  0  0
  190.4000  173.7230  141.2500 C   0  0  0  0  0  0  0  0  0  0  0  0
  188.0660  176.3230  142.5780 C   0  0  0  0  0  0  0  0  0  0  0  0
  191.8570  172.0240  140.3340 C   0  0  2  0  0  3  0  0  0  0  0  0
  189.7600  173.4510  140.0650 C   0  0  0  0  0  0  0  0  0  0  0  0
  189.5200  176.5840  144.6290 C   0  0  0  0  0  0  0  0  0  0  0  0
  189.8270  174.5910  142.2140 C   0  0  0  0  0  0  0  0  0  0  0  0
  190.2480  174.5050  145.7400 C   0  0  0  0  0  3  0  0  0  0  0  0
  188.5380  174.0250  139.7600 C   0  0  0  0  0  3  0  0  0  0  0  0
  190.2450  177.4060  146.8820 C   0  0  0  0  0  3  0  0  0  0  0  0
  189.9770  177.5920  145.5930 C   0  0  0  0  0  3  0  0  0  0  0  0
  189.9960  175.1980  144.6290 C   0  0  0  0  0  0  0  0  0  0  0  0
  184.4700  178.2910  141.3310 C   0  0  0  0  0  3  0  0  0  0  0  0
  186.8180  176.9830  142.1300 C   0  0  0  0  0  0  0  0  0  0  0  0
  186.7330  177.5720  140.8590 C   0  0  0  0  0  3  0  0  0  0  0  0
  185.5600  178.2190  140.4600 C   0  0  0  0  0  3  0  0  0  0  0  0
  184.5530  177.7180  142.6040 C   0  0  0  0  0  3  0  0  0  0  0  0
  185.7250  177.0710  143.0040 C   0  0  0  0  0  3  0  0  0  0  0  0
  1 15  1  0  0  0  0
  2 16  1  0  0  0  0
  2 12  1  0  0  0  0
  3 21  2  0  0  0  0
  4 14  1  0  0  0  0
  4 13  1  0  0  0  0
  6  2  2  0  0  0  0
  7  9  1  0  0  0  0
  8 10  1  0  0  0  0
 11  7  1  0  0  0  0
 11 16  2  0  0  0  0
 12  1  2  0  0  0  0
 13  5  1  1  0  0  0
 13  7  1  0  0  0  0
 14 11  1  0  0  0  0
 15 21  1  0  0  0  0
 15 20  2  0  0  0  0
 16  3  1  0  0  0  0
 17  8  2  0  0  0  0
 18 14  2  0  0  0  0
 18  6  1  0  0  0  0
 19 10  2  0  0  0  0
 20 19  1  0  0  0  0
 21 17  1  0  0  0  0
 22 26  1  0  0  0  0
 23 12  1  0  0  0  0
 23 27  1  0  0  0  0
 24 23  2  0  0  0  0
 25 24  1  0  0  0  0
 25 22  2  0  0  0  0
 26 27  2  0  0  0  0
M  END
>  <MODEL>
8

>  <REMARK>
 VINA RESULT:      -7.0      2.328      3.253
  Name = 
  1 active torsions:
  status: ('A' for Active; 'I' for Inactive)
    1  A    between atoms: C_9  and  C_15
                            x       y       z     vdW  Elec       q    Type
                         _______ _______ _______ _____ _____    ______ ____

>  <TORSDO>
F 1

$$$$
=
 OpenBabel11052418293D

 27 31  0  0  1  0  0  0  0  0999 V2000
  191.8240  175.9810  144.3710 C   0  0  0  0  0  3  0  0  0  0  0  0
  190.1040  174.7460  142.9920 C   0  0  0  0  0  0  0  0  0  0  0  0
  192.2600  174.0240  142.1420 N   0  0  0  0  0  0  0  0  0  0  0  0
  188.5370  172.8880  139.0900 S   0  0  0  0  0  0  0  0  0  0  0  0
  190.5790  171.1490  138.5170 C   0  0  0  0  0  1  0  0  0  0  0  0
  188.7140  174.5590  142.7940 C   0  0  0  0  0  3  0  0  0  0  0  0
  191.1430  173.2270  139.6590 N   0  0  0  0  0  0  0  0  0  0  0  0
  195.2910  173.4620  144.2970 C   0  0  0  0  0  3  0  0  0  0  0  0
  192.5420  173.5200  139.3800 C   0  0  0  0  0  1  0  0  0  0  0  0
  195.8100  174.5270  144.9010 C   0  0  0  0  0  3  0  0  0  0  0  0
  190.4170  173.7450  140.7740 C   0  0  0  0  0  0  0  0  0  0  0  0
  190.4830  175.4380  144.1050 C   0  0  0  0  0  0  0  0  0  0  0  0
  190.2970  172.6350  138.6270 C   0  0  2  0  0  3  0  0  0  0  0  0
  189.0570  173.6290  140.6230 C   0  0  0  0  0  0  0  0  0  0  0  0
  193.0080  175.5090  144.0220 C   0  0  0  0  0  0  0  0  0  0  0  0
  190.9860  174.2320  141.9780 C   0  0  0  0  0  0  0  0  0  0  0  0
  194.1510  173.4210  143.3710 C   0  0  0  0  0  3  0  0  0  0  0  0
  188.1870  173.9980  141.6350 C   0  0  0  0  0  3  0  0  0  0  0  0
  195.3540  175.9170  144.8000 C   0  0  0  0  0  3  0  0  0  0  0  0
  194.1490  176.3380  144.4290 C   0  0  0  0  0  3  0  0  0  0  0  0
  193.1460  174.2860  143.2260 C   0  0  0  0  0  0  0  0  0  0  0  0
  187.5480  176.8030  146.9130 C   0  0  0  0  0  3  0  0  0  0  0  0
  189.4870  175.9160  145.0930 C   0  0  0  0  0  0  0  0  0  0  0  0
  189.2310  175.1880  146.2640 C   0  0  0  0  0  3  0  0  0  0  0  0
  188.2670  175.6330  147.1730 C   0  0  0  0  0  3  0  0  0  0  0  0
  187.7890  177.5260  145.7410 C   0  0  0  0  0  3  0  0  0  0  0  0
  188.7530  177.0820  144.8310 C   0  0  0  0  0  3  0  0  0  0  0  0
  2 12  2  0  0  0  0
  3 21  1  0  0  0  0
  4 14  1  0  0  0  0
  6  2  1  0  0  0  0
  7 11  1  0  0  0  0
  8 10  2  0  0  0  0
  9  7  1  0  0  0  0
 11 16  1  0  0  0  0
 12  1  1  0  0  0  0
 12 23  1  0  0  0  0
 13  5  1  1  0  0  0
 13  4  1  0  0  0  0
 13  7  1  0  0  0  0
 14 11  2  0  0  0  0
 14 18  1  0  0  0  0
 15  1  2  0  0  0  0
 15 20  1  0  0  0  0
 16  3  2  0  0  0  0
 16  2  1  0  0  0  0
 17  8  1  0  0  0  0
 18  6  2  0  0  0  0
 19 10  1  0  0  0  0
 20 19  2  0  0  0  0
 21 17  2  0  0  0  0
 21 15  1  0  0  0  0
 22 25  1  0  0  0  0
 23 24  1  0  0  0  0
 24 25  2  0  0  0  0
 26 22  2  0  0  0  0
 27 23  2  0  0  0  0
 27 26  1  0  0  0  0
M  END
>  <MODEL>
9

>  <REMARK>
 VINA RESULT:      -6.9      1.047      1.230
  Name = 
  1 active torsions:
  status: ('A' for Active; 'I' for Inactive)
    1  A    between atoms: C_9  and  C_15
                            x       y       z     vdW  Elec       q    Type
                         _______ _______ _______ _____ _____    ______ ____

>  <TORSDO>
F 1

$$$$
