=
 OpenBabel11052419523D

 37 42  0  0  1  0  0  0  0  0999 V2000
  192.5550  174.5000  140.8170 C   0  0  0  0  0  2  0  0  0  0  0  0
  191.1690  176.1460  145.0270 C   0  0  2  0  0  3  0  0  0  0  0  0
  192.7930  173.0870  140.5800 N   0  0  0  0  0  0  0  0  0  0  0  0
  188.4730  174.3680  142.8840 C   0  0  0  0  0  2  0  0  0  0  0  0
  190.4830  175.1150  144.1370 C   0  0  1  0  0  3  0  0  0  0  0  0
  192.6270  175.7400  145.0570 C   0  0  1  0  0  3  0  0  0  0  0  0
  189.1450  175.5890  143.5050 C   0  0  2  0  0  3  0  0  0  0  0  0
  191.8510  172.6500  139.5460 C   0  0  0  0  0  2  0  0  0  0  0  0
  192.9010  175.2600  143.6350 C   0  0  2  0  0  3  0  0  0  0  0  0
  189.3190  177.0600  146.5840 C   0  0  0  0  0  2  0  0  0  0  0  0
  190.8460  175.3950  147.2480 O   0  0  0  0  0  0  0  0  0  0  0  0
  193.2250  176.3520  142.8170 O   0  0  0  0  0  1  0  0  0  0  0  0
  190.3920  173.0690  139.8510 C   0  0  2  0  0  3  0  0  0  0  0  0
  188.8410  174.2400  141.4210 C   0  0  0  0  0  2  0  0  0  0  0  0
  190.5190  176.1870  146.3790 C   0  0  0  0  0  0  0  0  0  0  0  0
  191.5830  174.6040  143.1760 C   0  0  2  0  0  3  0  0  0  0  0  0
  188.1400  176.2280  144.5180 C   0  0  1  0  0  3  0  0  0  0  0  0
  190.2220  173.6260  141.2800 C   0  0  2  0  0  3  0  0  0  0  0  0
  191.2830  174.6770  141.6600 C   0  0  2  0  0  3  0  0  0  0  0  0
  188.6870  177.4550  145.2510 C   0  0  0  0  0  2  0  0  0  0  0  0
  185.8710  177.3490  144.8390 C   0  0  0  0  0  3  0  0  0  0  0  0
  186.8000  176.6370  143.8840 C   0  0  1  0  0  3  0  0  0  0  0  0
  186.9800  177.3520  142.5280 C   0  0  0  0  0  2  0  0  0  0  0  0
  185.5880  178.3170  140.3960 Cl  0  0  0  0  0  0  0  0  0  0  0  0
  184.5400  178.0040  142.8880 C   0  0  0  0  0  2  0  0  0  0  0  0
  185.8470  178.3260  142.1610 C   0  0  1  0  0  3  0  0  0  0  0  0
  184.7950  177.9880  144.3660 C   0  0  0  0  0  3  0  0  0  0  0  0
  193.5380  176.8970  145.4800 C   0  0  1  0  0  3  0  0  0  0  0  0
  193.8260  176.8230  146.8570 O   0  0  0  0  0  0  0  0  0  0  0  0
  194.8910  176.4970  145.9880 C   0  0  1  0  0  3  0  0  0  0  0  0
  195.1400  175.0010  146.0660 C   0  0  0  0  0  2  0  0  0  0  0  0
  196.3580  174.6280  145.2470 C   0  0  0  0  0  2  0  0  0  0  0  0
  196.4430  175.4620  144.1290 O   0  0  0  0  0  1  0  0  0  0  0  0
  189.4510  171.8790  139.6060 C   0  0  0  0  0  2  0  0  0  0  0  0
  188.4700  172.2330  138.6740 O   0  0  0  0  0  1  0  0  0  0  0  0
  194.9700  174.1490  140.5050 C   0  0  0  0  0  1  0  0  0  0  0  0
  194.1320  172.9750  140.0260 C   0  0  0  0  0  2  0  0  0  0  0  0
  1 19  1  0  0  0  0
  2  6  1  0  0  0  0
  2 15  1  1  0  0  0
  3  1  1  0  0  0  0
  4  7  1  0  0  0  0
  5  2  1  0  0  0  0
  6 28  1  0  0  0  0
  7  5  1  0  0  0  0
  7 17  1  0  0  0  0
  8 13  1  0  0  0  0
  8  3  1  0  0  0  0
  9  6  1  0  0  0  0
 12  9  1  0  0  0  0
 13 18  1  0  0  0  0
 14  4  1  0  0  0  0
 15 10  1  0  0  0  0
 15 11  2  0  0  0  0
 16  9  1  0  0  0  0
 16  5  1  0  0  0  0
 17 20  1  0  0  0  0
 18 14  1  0  0  0  0
 18 19  1  0  0  0  0
 19 16  1  0  0  0  0
 20 10  1  0  0  0  0
 22 17  1  0  0  0  0
 22 21  1  0  0  0  0
 23 22  1  0  0  0  0
 24 26  1  0  0  0  0
 25 27  1  0  0  0  0
 26 23  1  0  0  0  0
 26 25  1  0  0  0  0
 27 21  2  0  0  0  0
 28 30  1  0  0  0  0
 28 29  1  0  0  0  0
 30 31  1  0  0  0  0
 30 29  1  0  0  0  0
 32 31  1  0  0  0  0
 33 32  1  0  0  0  0
 34 13  1  0  0  0  0
 35 34  1  0  0  0  0
 37 36  1  0  0  0  0
 37  3  1  0  0  0  0
M  END
>  <MODEL>
1

>  <REMARK>
 VINA RESULT:      -7.6      0.000      0.000
  Name = 
  6 active torsions:
  status: ('A' for Active; 'I' for Inactive)
    1  A    between atoms: C_3  and  C_21
    2  A    between atoms: C_3  and  C_30
    3  A    between atoms: N_5  and  C_23
    4  A    between atoms: C_6  and  C_31
    5  A    between atoms: C_9  and  C_13
    6  A    between atoms: C_11  and  C_26
                            x       y       z     vdW  Elec       q    Type
                         _______ _______ _______ _____ _____    ______ ____

>  <TORSDO>
F 6

$$$$
=
 OpenBabel11052419523D

 37 42  0  0  1  0  0  0  0  0999 V2000
  193.5070  173.4590  145.4610 C   0  0  0  0  0  2  0  0  0  0  0  0
  190.0750  173.6390  142.2140 C   0  0  2  0  0  3  0  0  0  0  0  0
  194.8460  173.9560  145.1980 N   0  0  0  0  0  0  0  0  0  0  0  0
  190.9640  176.9680  143.9870 C   0  0  0  0  0  2  0  0  0  0  0  0
  190.8870  174.7870  142.8020 C   0  0  1  0  0  3  0  0  0  0  0  0
  191.0880  172.5660  141.8740 C   0  0  1  0  0  3  0  0  0  0  0  0
  190.0820  175.7530  143.7140 C   0  0  2  0  0  3  0  0  0  0  0  0
  195.1050  175.0440  146.1440 C   0  0  0  0  0  2  0  0  0  0  0  0
  192.0930  172.6370  143.0190 C   0  0  2  0  0  3  0  0  0  0  0  0
  187.9210  174.7200  141.2790 C   0  0  0  0  0  2  0  0  0  0  0  0
  189.7710  174.1700  139.9280 O   0  0  0  0  0  0  0  0  0  0  0  0
  191.6420  171.8640  144.0980 O   0  0  0  0  0  1  0  0  0  0  0  0
  193.9670  176.0930  146.1750 C   0  0  2  0  0  3  0  0  0  0  0  0
  191.7430  176.7880  145.2730 C   0  0  0  0  0  2  0  0  0  0  0  0
  189.2700  174.1130  141.0400 C   0  0  0  0  0  0  0  0  0  0  0  0
  192.1530  174.1300  143.4020 C   0  0  2  0  0  3  0  0  0  0  0  0
  188.7400  176.2620  143.0960 C   0  0  1  0  0  3  0  0  0  0  0  0
  192.9470  175.8940  145.0350 C   0  0  2  0  0  3  0  0  0  0  0  0
  192.4700  174.4360  144.8850 C   0  0  2  0  0  3  0  0  0  0  0  0
  187.7550  175.1460  142.7350 C   0  0  0  0  0  2  0  0  0  0  0  0
  186.9820  178.1040  143.2400 C   0  0  0  0  0  3  0  0  0  0  0  0
  187.9870  177.2620  143.9890 C   0  0  1  0  0  3  0  0  0  0  0  0
  187.4330  176.6080  145.2720 C   0  0  0  0  0  2  0  0  0  0  0  0
  186.2150  177.1900  147.6380 Cl  0  0  0  0  0  0  0  0  0  0  0  0
  186.0680  178.7580  145.4190 C   0  0  0  0  0  2  0  0  0  0  0  0
  186.1870  177.2970  145.8580 C   0  0  1  0  0  3  0  0  0  0  0  0
  186.0790  178.8210  143.9200 C   0  0  0  0  0  3  0  0  0  0  0  0
  190.4390  171.1850  141.7370 C   0  0  1  0  0  3  0  0  0  0  0  0
  189.8770  171.0260  140.4540 O   0  0  0  0  0  0  0  0  0  0  0  0
  191.0550  170.2860  140.7060 C   0  0  1  0  0  3  0  0  0  0  0  0
  192.1910  170.8960  139.9060 C   0  0  0  0  0  2  0  0  0  0  0  0
  191.8200  170.9700  138.4390 C   0  0  0  0  0  2  0  0  0  0  0  0
  191.8170  172.3050  138.0240 O   0  0  0  0  0  1  0  0  0  0  0  0
  194.5660  177.5080  146.1380 C   0  0  0  0  0  2  0  0  0  0  0  0
  195.3870  177.6460  145.0130 O   0  0  0  0  0  1  0  0  0  0  0  0
  197.0230  173.4540  146.1380 C   0  0  0  0  0  1  0  0  0  0  0  0
  195.7630  172.8750  145.5150 C   0  0  0  0  0  2  0  0  0  0  0  0
  2 15  1  6  0  0  0
  2  5  1  0  0  0  0
  3  1  1  0  0  0  0
  3 37  1  0  0  0  0
  3  8  1  0  0  0  0
  4 14  1  0  0  0  0
  5 16  1  0  0  0  0
  5  7  1  0  0  0  0
  6  2  1  0  0  0  0
  6  9  1  0  0  0  0
  7  4  1  0  0  0  0
  8 13  1  0  0  0  0
  9 16  1  0  0  0  0
  9 12  1  0  0  0  0
 10 20  1  0  0  0  0
 11 15  2  0  0  0  0
 15 10  1  0  0  0  0
 16 19  1  0  0  0  0
 17  7  1  0  0  0  0
 17 22  1  0  0  0  0
 18 14  1  0  0  0  0
 18 13  1  0  0  0  0
 19 18  1  0  0  0  0
 19  1  1  0  0  0  0
 20 17  1  0  0  0  0
 21 27  2  0  0  0  0
 21 22  1  0  0  0  0
 22 23  1  0  0  0  0
 23 26  1  0  0  0  0
 25 26  1  0  0  0  0
 26 24  1  0  0  0  0
 27 25  1  0  0  0  0
 28  6  1  0  0  0  0
 29 30  1  0  0  0  0
 29 28  1  0  0  0  0
 30 28  1  0  0  0  0
 31 30  1  0  0  0  0
 32 31  1  0  0  0  0
 33 32  1  0  0  0  0
 34 13  1  0  0  0  0
 35 34  1  0  0  0  0
 37 36  1  0  0  0  0
M  END
>  <MODEL>
2

>  <REMARK>
 VINA RESULT:      -7.6      2.424      5.908
  Name = 
  6 active torsions:
  status: ('A' for Active; 'I' for Inactive)
    1  A    between atoms: C_3  and  C_21
    2  A    between atoms: C_3  and  C_30
    3  A    between atoms: N_5  and  C_23
    4  A    between atoms: C_6  and  C_31
    5  A    between atoms: C_9  and  C_13
    6  A    between atoms: C_11  and  C_26
                            x       y       z     vdW  Elec       q    Type
                         _______ _______ _______ _____ _____    ______ ____

>  <TORSDO>
F 6

$$$$
=
 OpenBabel11052419523D

 37 42  0  0  1  0  0  0  0  0999 V2000
  185.9280  176.9480  146.0730 C   0  0  0  0  0  2  0  0  0  0  0  0
  190.2370  175.3020  145.0360 C   0  0  2  0  0  3  0  0  0  0  0  0
  185.5860  178.3540  145.9420 N   0  0  0  0  0  0  0  0  0  0  0  0
  187.9360  176.1550  142.0360 C   0  0  0  0  0  2  0  0  0  0  0  0
  189.2640  176.0510  144.1330 C   0  0  1  0  0  3  0  0  0  0  0  0
  190.2510  176.0760  146.3370 C   0  0  1  0  0  3  0  0  0  0  0  0
  188.6560  175.2000  142.9840 C   0  0  2  0  0  3  0  0  0  0  0  0
  184.5120  178.4540  144.9510 C   0  0  0  0  0  2  0  0  0  0  0  0
  188.8000  176.5080  146.5200 C   0  0  2  0  0  3  0  0  0  0  0  0
  191.8400  174.0490  143.4410 C   0  0  0  0  0  2  0  0  0  0  0  0
  192.3910  176.0990  144.4620 O   0  0  0  0  0  0  0  0  0  0  0  0
  188.0720  175.4830  147.1410 O   0  0  0  0  0  1  0  0  0  0  0  0
  184.8320  177.6910  143.6430 C   0  0  2  0  0  3  0  0  0  0  0  0
  186.4710  176.2700  142.4020 C   0  0  0  0  0  2  0  0  0  0  0  0
  191.5810  175.1890  144.3790 C   0  0  0  0  0  0  0  0  0  0  0  0
  188.2780  176.7620  145.0910 C   0  0  2  0  0  3  0  0  0  0  0  0
  189.7040  174.3940  142.1490 C   0  0  1  0  0  3  0  0  0  0  0  0
  186.2980  177.2130  143.5800 C   0  0  2  0  0  3  0  0  0  0  0  0
  186.7690  176.5050  144.8650 C   0  0  2  0  0  3  0  0  0  0  0  0
  190.5350  173.4080  142.9740 C   0  0  0  0  0  2  0  0  0  0  0  0
  188.6230  174.4780  139.8400 C   0  0  0  0  0  3  0  0  0  0  0  0
  189.0890  173.6050  140.9820 C   0  0  1  0  0  3  0  0  0  0  0  0
  189.9660  172.4110  140.5470 C   0  0  0  0  0  2  0  0  0  0  0  0
  189.9850  170.2290  138.9180 Cl  0  0  0  0  0  0  0  0  0  0  0  0
  188.4570  172.4390  138.4900 C   0  0  0  0  0  2  0  0  0  0  0  0
  189.8000  171.9960  139.0740 C   0  0  1  0  0  3  0  0  0  0  0  0
  188.3140  173.9220  138.6630 C   0  0  0  0  0  3  0  0  0  0  0  0
  190.7720  175.2300  147.5040 C   0  0  1  0  0  3  0  0  0  0  0  0
  192.1790  175.2760  147.5590 O   0  0  0  0  0  0  0  0  0  0  0  0
  191.5000  175.9900  148.5730 C   0  0  1  0  0  3  0  0  0  0  0  0
  191.6700  177.4760  148.3130 C   0  0  0  0  0  2  0  0  0  0  0  0
  191.2180  178.2740  149.5190 C   0  0  0  0  0  2  0  0  0  0  0  0
  191.7000  177.6730  150.6850 O   0  0  0  0  0  1  0  0  0  0  0  0
  184.4870  178.5730  142.4320 C   0  0  0  0  0  2  0  0  0  0  0  0
  183.2990  178.1280  141.8440 O   0  0  0  0  0  1  0  0  0  0  0  0
  186.1380  179.4200  148.0470 C   0  0  0  0  0  1  0  0  0  0  0  0
  185.0390  178.7710  147.2220 C   0  0  0  0  0  2  0  0  0  0  0  0
  2 15  1  6  0  0  0
  2  6  1  0  0  0  0
  3  1  1  0  0  0  0
  3 37  1  0  0  0  0
  4 14  1  0  0  0  0
  4  7  1  0  0  0  0
  5  2  1  0  0  0  0
  5 16  1  0  0  0  0
  6  9  1  0  0  0  0
  6 28  1  0  0  0  0
  7  5  1  0  0  0  0
  8  3  1  0  0  0  0
  9 12  1  0  0  0  0
 10 15  1  0  0  0  0
 13  8  1  0  0  0  0
 14 18  1  0  0  0  0
 15 11  2  0  0  0  0
 16  9  1  0  0  0  0
 17 20  1  0  0  0  0
 17  7  1  0  0  0  0
 18 13  1  0  0  0  0
 18 19  1  0  0  0  0
 19 16  1  0  0  0  0
 19  1  1  0  0  0  0
 20 10  1  0  0  0  0
 21 22  1  0  0  0  0
 22 17  1  0  0  0  0
 23 22  1  0  0  0  0
 24 26  1  0  0  0  0
 25 27  1  0  0  0  0
 25 26  1  0  0  0  0
 26 23  1  0  0  0  0
 27 21  2  0  0  0  0
 28 29  1  0  0  0  0
 28 30  1  0  0  0  0
 29 30  1  0  0  0  0
 31 30  1  0  0  0  0
 31 32  1  0  0  0  0
 32 33  1  0  0  0  0
 34 13  1  0  0  0  0
 35 34  1  0  0  0  0
 37 36  1  0  0  0  0
M  END
>  <MODEL>
3

>  <REMARK>
 VINA RESULT:      -7.5      3.376      6.747
  Name = 
  6 active torsions:
  status: ('A' for Active; 'I' for Inactive)
    1  A    between atoms: C_3  and  C_21
    2  A    between atoms: C_3  and  C_30
    3  A    between atoms: N_5  and  C_23
    4  A    between atoms: C_6  and  C_31
    5  A    between atoms: C_9  and  C_13
    6  A    between atoms: C_11  and  C_26
                            x       y       z     vdW  Elec       q    Type
                         _______ _______ _______ _____ _____    ______ ____

>  <TORSDO>
F 6

$$$$
=
 OpenBabel11052419523D

 37 42  0  0  1  0  0  0  0  0999 V2000
  192.2650  173.4120  144.7390 C   0  0  0  0  0  2  0  0  0  0  0  0
  188.6500  174.8750  142.0650 C   0  0  2  0  0  3  0  0  0  0  0  0
  193.6280  173.8570  144.5060 N   0  0  0  0  0  0  0  0  0  0  0  0
  190.0150  177.3990  144.6700 C   0  0  0  0  0  2  0  0  0  0  0  0
  189.6210  175.7120  142.8900 C   0  0  1  0  0  3  0  0  0  0  0  0
  189.5150  173.8850  141.3130 C   0  0  1  0  0  3  0  0  0  0  0  0
  188.9910  176.4050  144.1290 C   0  0  2  0  0  3  0  0  0  0  0  0
  194.0690  174.5700  145.7080 C   0  0  0  0  0  2  0  0  0  0  0  0
  190.6010  173.5130  142.3180 C   0  0  2  0  0  3  0  0  0  0  0  0
  186.5640  176.3640  141.7260 C   0  0  0  0  0  2  0  0  0  0  0  0
  188.2430  176.1180  140.0920 O   0  0  0  0  0  0  0  0  0  0  0  0
  190.1470  172.4800  143.1500 O   0  0  0  0  0  1  0  0  0  0  0  0
  193.0550  175.6440  146.1720 C   0  0  2  0  0  3  0  0  0  0  0  0
  190.8600  176.7630  145.7540 C   0  0  0  0  0  2  0  0  0  0  0  0
  187.8200  175.7560  141.1780 C   0  0  0  0  0  0  0  0  0  0  0  0
  190.8480  174.8010  143.1290 C   0  0  2  0  0  3  0  0  0  0  0  0
  187.6710  177.1880  143.8340 C   0  0  1  0  0  3  0  0  0  0  0  0
  191.9410  175.8940  145.1340 C   0  0  2  0  0  3  0  0  0  0  0  0
  191.3000  174.6000  144.5960 C   0  0  2  0  0  3  0  0  0  0  0  0
  186.5490  176.3240  143.2520 C   0  0  0  0  0  2  0  0  0  0  0  0
  186.0460  178.9450  144.7170 C   0  0  0  0  0  3  0  0  0  0  0  0
  187.0950  177.9140  145.0610 C   0  0  1  0  0  3  0  0  0  0  0  0
  186.6800  176.9410  146.1840 C   0  0  0  0  0  2  0  0  0  0  0  0
  185.8140  176.8680  148.7660 Cl  0  0  0  0  0  0  0  0  0  0  0  0
  185.4610  178.9880  147.0970 C   0  0  0  0  0  2  0  0  0  0  0  0
  185.5600  177.4610  147.1030 C   0  0  1  0  0  3  0  0  0  0  0  0
  185.2800  179.4610  145.6850 C   0  0  0  0  0  3  0  0  0  0  0  0
  188.7130  172.6730  140.8270 C   0  0  1  0  0  3  0  0  0  0  0  0
  187.8170  173.0490  139.8070 O   0  0  0  0  0  0  0  0  0  0  0  0
  188.9350  172.2890  139.3940 C   0  0  1  0  0  3  0  0  0  0  0  0
  189.8750  173.1930  138.6170 C   0  0  0  0  0  2  0  0  0  0  0  0
  189.4470  173.2710  137.1660 C   0  0  0  0  0  2  0  0  0  0  0  0
  188.9030  174.5310  136.9060 O   0  0  0  0  0  1  0  0  0  0  0  0
  193.7990  176.9470  146.5070 C   0  0  0  0  0  2  0  0  0  0  0  0
  194.6020  177.3260  145.4270 O   0  0  0  0  0  1  0  0  0  0  0  0
  194.2440  171.7930  145.6150 C   0  0  0  0  0  1  0  0  0  0  0  0
  194.4430  172.6610  144.3840 C   0  0  0  0  0  2  0  0  0  0  0  0
  2 15  1  6  0  0  0
  2  5  1  0  0  0  0
  3  1  1  0  0  0  0
  3  8  1  0  0  0  0
  4 14  1  0  0  0  0
  5 16  1  0  0  0  0
  5  7  1  0  0  0  0
  6  2  1  0  0  0  0
  6  9  1  0  0  0  0
  7  4  1  0  0  0  0
  8 13  1  0  0  0  0
  9 16  1  0  0  0  0
  9 12  1  0  0  0  0
 10 20  1  0  0  0  0
 11 15  2  0  0  0  0
 13 34  1  0  0  0  0
 15 10  1  0  0  0  0
 16 19  1  0  0  0  0
 17  7  1  0  0  0  0
 17 22  1  0  0  0  0
 18 14  1  0  0  0  0
 18 13  1  0  0  0  0
 19  1  1  0  0  0  0
 19 18  1  0  0  0  0
 20 17  1  0  0  0  0
 21 22  1  0  0  0  0
 21 27  2  0  0  0  0
 22 23  1  0  0  0  0
 23 26  1  0  0  0  0
 25 26  1  0  0  0  0
 26 24  1  0  0  0  0
 27 25  1  0  0  0  0
 28  6  1  0  0  0  0
 29 28  1  0  0  0  0
 30 29  1  0  0  0  0
 30 28  1  0  0  0  0
 31 30  1  0  0  0  0
 32 31  1  0  0  0  0
 33 32  1  0  0  0  0
 35 34  1  0  0  0  0
 37  3  1  0  0  0  0
 37 36  1  0  0  0  0
M  END
>  <MODEL>
4

>  <REMARK>
 VINA RESULT:      -7.2      2.491      6.134
  Name = 
  6 active torsions:
  status: ('A' for Active; 'I' for Inactive)
    1  A    between atoms: C_3  and  C_21
    2  A    between atoms: C_3  and  C_30
    3  A    between atoms: N_5  and  C_23
    4  A    between atoms: C_6  and  C_31
    5  A    between atoms: C_9  and  C_13
    6  A    between atoms: C_11  and  C_26
                            x       y       z     vdW  Elec       q    Type
                         _______ _______ _______ _____ _____    ______ ____

>  <TORSDO>
F 6

$$$$
=
 OpenBabel11052419523D

 37 42  0  0  1  0  0  0  0  0999 V2000
  189.4860  173.2180  140.4780 C   0  0  0  0  0  2  0  0  0  0  0  0
  190.6510  175.7360  144.3080 C   0  0  2  0  0  3  0  0  0  0  0  0
  189.5040  173.7900  139.1430 N   0  0  0  0  0  0  0  0  0  0  0  0
  193.5730  174.5460  142.0570 C   0  0  0  0  0  2  0  0  0  0  0  0
  191.4910  175.4470  143.0690 C   0  0  1  0  0  3  0  0  0  0  0  0
  189.2920  176.1470  143.7810 C   0  0  1  0  0  3  0  0  0  0  0  0
  192.7050  174.5070  143.3110 C   0  0  2  0  0  3  0  0  0  0  0  0
  190.4840  173.0380  138.3560 C   0  0  0  0  0  2  0  0  0  0  0  0
  189.0750  175.2340  142.5780 C   0  0  2  0  0  3  0  0  0  0  0  0
  192.3400  176.3480  146.1660 C   0  0  0  0  0  2  0  0  0  0  0  0
  191.1580  177.9630  144.9250 O   0  0  0  0  0  0  0  0  0  0  0  0
  188.5380  174.0090  143.0000 O   0  0  0  0  0  1  0  0  0  0  0  0
  191.8500  172.9020  139.0740 C   0  0  2  0  0  3  0  0  0  0  0  0
  193.1990  173.4250  141.1110 C   0  0  0  0  0  2  0  0  0  0  0  0
  191.3140  176.7760  145.1610 C   0  0  0  0  0  0  0  0  0  0  0  0
  190.4800  175.0370  141.9720 C   0  0  2  0  0  3  0  0  0  0  0  0
  193.6010  174.9050  144.5290 C   0  0  1  0  0  3  0  0  0  0  0  0
  191.9500  173.7930  140.3300 C   0  0  2  0  0  3  0  0  0  0  0  0
  190.7250  173.6860  141.2590 C   0  0  2  0  0  3  0  0  0  0  0  0
  192.8560  174.9430  145.8660 C   0  0  0  0  0  2  0  0  0  0  0  0
  195.8370  174.5410  145.7000 C   0  0  0  0  0  3  0  0  0  0  0  0
  194.8270  173.9980  144.7160 C   0  0  1  0  0  3  0  0  0  0  0  0
  194.4420  172.5230  144.9550 C   0  0  0  0  0  2  0  0  0  0  0  0
  195.5030  170.0250  145.1870 Cl  0  0  0  0  0  0  0  0  0  0  0  0
  196.8750  172.3200  145.6960 C   0  0  0  0  0  2  0  0  0  0  0  0
  195.4720  171.7130  145.7630 C   0  0  1  0  0  3  0  0  0  0  0  0
  196.8120  173.7470  146.1560 C   0  0  0  0  0  3  0  0  0  0  0  0
  188.1960  176.0020  144.8420 C   0  0  1  0  0  3  0  0  0  0  0  0
  188.1010  177.1740  145.6190 O   0  0  0  0  0  0  0  0  0  0  0  0
  187.0430  176.9530  144.7090 C   0  0  1  0  0  3  0  0  0  0  0  0
  187.1590  177.9610  143.5790 C   0  0  0  0  0  2  0  0  0  0  0  0
  185.8030  178.5630  143.2720 C   0  0  0  0  0  2  0  0  0  0  0  0
  185.6750  179.7870  143.9330 O   0  0  0  0  0  1  0  0  0  0  0  0
  192.9860  173.2100  138.0860 C   0  0  0  0  0  2  0  0  0  0  0  0
  192.9720  174.5700  137.7570 O   0  0  0  0  0  1  0  0  0  0  0  0
  187.8180  174.7040  137.6620 C   0  0  0  0  0  1  0  0  0  0  0  0
  188.1950  173.5400  138.5630 C   0  0  0  0  0  2  0  0  0  0  0  0
  1 19  1  0  0  0  0
  2 15  1  6  0  0  0
  3  1  1  0  0  0  0
  4  7  1  0  0  0  0
  5  7  1  0  0  0  0
  5  2  1  0  0  0  0
  6  2  1  0  0  0  0
  6 28  1  0  0  0  0
  7 17  1  0  0  0  0
  8 13  1  0  0  0  0
  8  3  1  0  0  0  0
  9 12  1  0  0  0  0
  9  6  1  0  0  0  0
 11 15  2  0  0  0  0
 13 18  1  0  0  0  0
 14  4  1  0  0  0  0
 15 10  1  0  0  0  0
 16  9  1  0  0  0  0
 16  5  1  0  0  0  0
 17 22  1  0  0  0  0
 17 20  1  0  0  0  0
 18 14  1  0  0  0  0
 18 19  1  0  0  0  0
 19 16  1  0  0  0  0
 20 10  1  0  0  0  0
 21 27  2  0  0  0  0
 22 23  1  0  0  0  0
 22 21  1  0  0  0  0
 23 26  1  0  0  0  0
 24 26  1  0  0  0  0
 25 26  1  0  0  0  0
 25 27  1  0  0  0  0
 28 29  1  0  0  0  0
 30 28  1  0  0  0  0
 30 29  1  0  0  0  0
 31 30  1  0  0  0  0
 32 31  1  0  0  0  0
 32 33  1  0  0  0  0
 34 13  1  0  0  0  0
 35 34  1  0  0  0  0
 36 37  1  0  0  0  0
 37  3  1  0  0  0  0
M  END
>  <MODEL>
5

>  <REMARK>
 VINA RESULT:      -6.8      3.318      7.000
  Name = 
  6 active torsions:
  status: ('A' for Active; 'I' for Inactive)
    1  A    between atoms: C_3  and  C_21
    2  A    between atoms: C_3  and  C_30
    3  A    between atoms: N_5  and  C_23
    4  A    between atoms: C_6  and  C_31
    5  A    between atoms: C_9  and  C_13
    6  A    between atoms: C_11  and  C_26
                            x       y       z     vdW  Elec       q    Type
                         _______ _______ _______ _____ _____    ______ ____

>  <TORSDO>
F 6

$$$$
=
 OpenBabel11052419523D

 37 42  0  0  1  0  0  0  0  0999 V2000
  187.6240  176.4440  145.7590 C   0  0  0  0  0  2  0  0  0  0  0  0
  191.8060  175.3140  143.8660 C   0  0  2  0  0  3  0  0  0  0  0  0
  187.0390  177.7650  145.6080 N   0  0  0  0  0  0  0  0  0  0  0  0
  188.7930  175.5000  141.4350 C   0  0  0  0  0  2  0  0  0  0  0  0
  190.5490  175.8150  143.1630 C   0  0  1  0  0  3  0  0  0  0  0  0
  191.9810  176.2210  145.0650 C   0  0  1  0  0  3  0  0  0  0  0  0
  189.8490  174.7660  142.2560 C   0  0  2  0  0  3  0  0  0  0  0  0
  185.7700  177.6040  144.8920 C   0  0  0  0  0  2  0  0  0  0  0  0
  190.5550  176.4630  145.5510 C   0  0  2  0  0  3  0  0  0  0  0  0
  193.1980  174.1300  142.0370 C   0  0  0  0  0  2  0  0  0  0  0  0
  193.6220  176.3370  142.7440 O   0  0  0  0  0  0  0  0  0  0  0  0
  190.1580  175.4210  146.4010 O   0  0  0  0  0  1  0  0  0  0  0  0
  185.9130  176.7540  143.6060 C   0  0  2  0  0  3  0  0  0  0  0  0
  187.4460  175.4490  142.1250 C   0  0  0  0  0  2  0  0  0  0  0  0
  192.9720  175.3180  142.9220 C   0  0  0  0  0  0  0  0  0  0  0  0
  189.6980  176.4820  144.2690 C   0  0  2  0  0  3  0  0  0  0  0  0
  190.8030  174.0280  141.2620 C   0  0  1  0  0  3  0  0  0  0  0  0
  187.3870  176.4820  143.2370 C   0  0  2  0  0  3  0  0  0  0  0  0
  188.2380  175.9940  144.4250 C   0  0  2  0  0  3  0  0  0  0  0  0
  191.9440  173.2650  141.9400 C   0  0  0  0  0  2  0  0  0  0  0  0
  189.8060  173.5890  138.9550 C   0  0  0  0  0  3  0  0  0  0  0  0
  190.0820  173.0360  140.3340 C   0  0  1  0  0  3  0  0  0  0  0  0
  190.7380  171.6400  140.3350 C   0  0  0  0  0  2  0  0  0  0  0  0
  190.3990  169.0960  139.4230 Cl  0  0  0  0  0  0  0  0  0  0  0  0
  189.3040  171.2950  138.2530 C   0  0  0  0  0  2  0  0  0  0  0  0
  190.5320  170.8330  139.0400 C   0  0  1  0  0  3  0  0  0  0  0  0
  189.4270  172.7640  137.9730 C   0  0  0  0  0  3  0  0  0  0  0  0
  192.8760  175.5900  146.1370 C   0  0  1  0  0  3  0  0  0  0  0  0
  194.1510  175.3020  145.6110 O   0  0  0  0  0  0  0  0  0  0  0  0
  194.0890  176.3890  146.5130 C   0  0  1  0  0  3  0  0  0  0  0  0
  194.2860  177.6770  145.7330 C   0  0  0  0  0  2  0  0  0  0  0  0
  195.7520  177.8700  145.4020 C   0  0  0  0  0  2  0  0  0  0  0  0
  196.0660  177.1640  144.2380 O   0  0  0  0  0  1  0  0  0  0  0  0
  185.1720  177.4400  142.4470 C   0  0  0  0  0  2  0  0  0  0  0  0
  185.8990  178.5540  142.0120 O   0  0  0  0  0  1  0  0  0  0  0  0
  185.9410  177.1710  147.6850 C   0  0  0  0  0  1  0  0  0  0  0  0
  186.7270  178.2410  146.9450 C   0  0  0  0  0  2  0  0  0  0  0  0
  2 15  1  6  0  0  0
  2  6  1  0  0  0  0
  3  1  1  0  0  0  0
  3 37  1  0  0  0  0
  4 14  1  0  0  0  0
  4  7  1  0  0  0  0
  5  2  1  0  0  0  0
  5 16  1  0  0  0  0
  6  9  1  0  0  0  0
  6 28  1  0  0  0  0
  7  5  1  0  0  0  0
  8  3  1  0  0  0  0
  9 12  1  0  0  0  0
 10 15  1  0  0  0  0
 11 15  2  0  0  0  0
 13  8  1  0  0  0  0
 14 18  1  0  0  0  0
 16 19  1  0  0  0  0
 16  9  1  0  0  0  0
 17 20  1  0  0  0  0
 17  7  1  0  0  0  0
 18 13  1  0  0  0  0
 18 19  1  0  0  0  0
 19  1  1  0  0  0  0
 20 10  1  0  0  0  0
 21 22  1  0  0  0  0
 22 23  1  0  0  0  0
 22 17  1  0  0  0  0
 25 26  1  0  0  0  0
 26 24  1  0  0  0  0
 26 23  1  0  0  0  0
 27 25  1  0  0  0  0
 27 21  2  0  0  0  0
 28 30  1  0  0  0  0
 29 28  1  0  0  0  0
 29 30  1  0  0  0  0
 31 30  1  0  0  0  0
 32 31  1  0  0  0  0
 33 32  1  0  0  0  0
 34 13  1  0  0  0  0
 35 34  1  0  0  0  0
 37 36  1  0  0  0  0
M  END
>  <MODEL>
6

>  <REMARK>
 VINA RESULT:      -6.3      2.910      6.291
  Name = 
  6 active torsions:
  status: ('A' for Active; 'I' for Inactive)
    1  A    between atoms: C_3  and  C_21
    2  A    between atoms: C_3  and  C_30
    3  A    between atoms: N_5  and  C_23
    4  A    between atoms: C_6  and  C_31
    5  A    between atoms: C_9  and  C_13
    6  A    between atoms: C_11  and  C_26
                            x       y       z     vdW  Elec       q    Type
                         _______ _______ _______ _____ _____    ______ ____

>  <TORSDO>
F 6

$$$$
=
 OpenBabel11052419523D

 37 42  0  0  1  0  0  0  0  0999 V2000
  193.8120  175.3710  144.1660 C   0  0  0  0  0  2  0  0  0  0  0  0
  189.6630  174.8570  141.9580 C   0  0  2  0  0  3  0  0  0  0  0  0
  194.0460  174.8480  145.5010 N   0  0  0  0  0  0  0  0  0  0  0  0
  191.9470  171.7300  142.1120 C   0  0  0  0  0  2  0  0  0  0  0  0
  190.5920  173.7760  142.4980 C   0  0  1  0  0  3  0  0  0  0  0  0
  189.5650  175.8870  143.0640 C   0  0  1  0  0  3  0  0  0  0  0  0
  191.2850  172.9110  141.4080 C   0  0  2  0  0  3  0  0  0  0  0  0
  195.1280  173.8650  145.4030 C   0  0  0  0  0  2  0  0  0  0  0  0
  190.9750  175.9350  143.6430 C   0  0  2  0  0  3  0  0  0  0  0  0
  188.1920  173.6860  140.1840 C   0  0  0  0  0  2  0  0  0  0  0  0
  187.4650  174.0900  142.3880 O   0  0  0  0  0  0  0  0  0  0  0  0
  191.7680  176.8170  142.8960 O   0  0  0  0  0  1  0  0  0  0  0  0
  194.8920  172.8260  144.2800 C   0  0  2  0  0  3  0  0  0  0  0  0
  193.3910  172.0430  142.4420 C   0  0  0  0  0  2  0  0  0  0  0  0
  188.3440  174.2640  141.5580 C   0  0  0  0  0  0  0  0  0  0  0  0
  191.5010  174.4900  143.5250 C   0  0  2  0  0  3  0  0  0  0  0  0
  190.3180  172.3420  140.3200 C   0  0  1  0  0  3  0  0  0  0  0  0
  193.4690  172.9060  143.6890 C   0  0  2  0  0  3  0  0  0  0  0  0
  193.0300  174.3410  143.3360 C   0  0  2  0  0  3  0  0  0  0  0  0
  189.5510  173.4150  139.5430 C   0  0  0  0  0  2  0  0  0  0  0  0
  190.0880  170.4420  138.6330 C   0  0  0  0  0  3  0  0  0  0  0  0
  191.0140  171.4420  139.2850 C   0  0  1  0  0  3  0  0  0  0  0  0
  191.8800  172.2440  138.2900 C   0  0  0  0  0  2  0  0  0  0  0  0
  193.6840  171.9440  136.2720 Cl  0  0  0  0  0  0  0  0  0  0  0  0
  191.8460  170.0620  136.9670 C   0  0  0  0  0  2  0  0  0  0  0  0
  192.0620  171.5760  136.9150 C   0  0  1  0  0  3  0  0  0  0  0  0
  190.4880  169.7820  137.5410 C   0  0  0  0  0  3  0  0  0  0  0  0
  189.0890  177.2470  142.5420 C   0  0  1  0  0  3  0  0  0  0  0  0
  187.7260  177.1930  142.1890 O   0  0  0  0  0  0  0  0  0  0  0  0
  188.0280  177.9160  143.3650 C   0  0  1  0  0  3  0  0  0  0  0  0
  187.5370  177.1210  144.5610 C   0  0  0  0  0  2  0  0  0  0  0  0
  186.5570  177.9440  145.3720 C   0  0  0  0  0  2  0  0  0  0  0  0
  186.1420  179.0480  144.6230 O   0  0  0  0  0  1  0  0  0  0  0  0
  195.1900  171.4150  144.8100 C   0  0  0  0  0  2  0  0  0  0  0  0
  194.2320  171.0530  145.7630 O   0  0  0  0  0  1  0  0  0  0  0  0
  194.5660  177.2150  145.4540 C   0  0  0  0  0  1  0  0  0  0  0  0
  194.5350  175.9560  146.3040 C   0  0  0  0  0  2  0  0  0  0  0  0
  1  3  1  0  0  0  0
  2 15  1  1  0  0  0
  2  5  1  0  0  0  0
  2  6  1  0  0  0  0
  3 37  1  0  0  0  0
  4 14  1  0  0  0  0
  5 16  1  0  0  0  0
  6  9  1  0  0  0  0
  7  4  1  0  0  0  0
  7  5  1  0  0  0  0
  8  3  1  0  0  0  0
 10 15  1  0  0  0  0
 12  9  1  0  0  0  0
 13 34  1  0  0  0  0
 13  8  1  0  0  0  0
 14 18  1  0  0  0  0
 15 11  2  0  0  0  0
 16  9  1  0  0  0  0
 17  7  1  0  0  0  0
 18 13  1  0  0  0  0
 19 16  1  0  0  0  0
 19 18  1  0  0  0  0
 19  1  1  0  0  0  0
 20 10  1  0  0  0  0
 20 17  1  0  0  0  0
 21 22  1  0  0  0  0
 22 17  1  0  0  0  0
 23 22  1  0  0  0  0
 24 26  1  0  0  0  0
 25 27  1  0  0  0  0
 26 25  1  0  0  0  0
 26 23  1  0  0  0  0
 27 21  2  0  0  0  0
 28  6  1  0  0  0  0
 28 30  1  0  0  0  0
 29 28  1  0  0  0  0
 29 30  1  0  0  0  0
 30 31  1  0  0  0  0
 31 32  1  0  0  0  0
 33 32  1  0  0  0  0
 34 35  1  0  0  0  0
 36 37  1  0  0  0  0
M  END
>  <MODEL>
7

>  <REMARK>
 VINA RESULT:      -6.2      3.181      7.155
  Name = 
  6 active torsions:
  status: ('A' for Active; 'I' for Inactive)
    1  A    between atoms: C_3  and  C_21
    2  A    between atoms: C_3  and  C_30
    3  A    between atoms: N_5  and  C_23
    4  A    between atoms: C_6  and  C_31
    5  A    between atoms: C_9  and  C_13
    6  A    between atoms: C_11  and  C_26
                            x       y       z     vdW  Elec       q    Type
                         _______ _______ _______ _____ _____    ______ ____

>  <TORSDO>
F 6

$$$$
=
 OpenBabel11052419523D

 37 42  0  0  1  0  0  0  0  0999 V2000
  188.9950  175.5650  145.1990 C   0  0  0  0  0  2  0  0  0  0  0  0
  192.8550  174.2220  142.8210 C   0  0  2  0  0  3  0  0  0  0  0  0
  188.4830  176.9230  145.1370 N   0  0  0  0  0  0  0  0  0  0  0  0
  189.6050  174.6550  140.7540 C   0  0  0  0  0  2  0  0  0  0  0  0
  191.5620  174.8180  142.2750 C   0  0  1  0  0  3  0  0  0  0  0  0
  193.2220  175.0880  144.0080 C   0  0  1  0  0  3  0  0  0  0  0  0
  190.6970  173.8360  141.4360 C   0  0  2  0  0  3  0  0  0  0  0  0
  187.1340  176.8580  144.5680 C   0  0  0  0  0  2  0  0  0  0  0  0
  191.8790  175.4060  144.6570 C   0  0  2  0  0  3  0  0  0  0  0  0
  193.9530  172.9990  140.8260 C   0  0  0  0  0  2  0  0  0  0  0  0
  194.5950  175.1570  141.5170 O   0  0  0  0  0  0  0  0  0  0  0  0
  191.5140  174.3710  145.5290 O   0  0  0  0  0  1  0  0  0  0  0  0
  187.0760  176.0320  143.2600 C   0  0  2  0  0  3  0  0  0  0  0  0
  188.3440  174.6700  141.5920 C   0  0  0  0  0  2  0  0  0  0  0  0
  193.9050  174.1780  141.7500 C   0  0  0  0  0  0  0  0  0  0  0  0
  190.8860  175.5100  143.4820 C   0  0  2  0  0  3  0  0  0  0  0  0
  191.4840  173.0650  140.3270 C   0  0  1  0  0  3  0  0  0  0  0  0
  188.4780  175.6780  142.7210 C   0  0  2  0  0  3  0  0  0  0  0  0
  189.4240  175.1090  143.7950 C   0  0  2  0  0  3  0  0  0  0  0  0
  192.6420  172.2170  140.8580 C   0  0  0  0  0  2  0  0  0  0  0  0
  190.3280  172.6810  138.0860 C   0  0  0  0  0  3  0  0  0  0  0  0
  190.6000  172.1430  139.4710 C   0  0  1  0  0  3  0  0  0  0  0  0
  191.0760  170.6750  139.4960 C   0  0  0  0  0  2  0  0  0  0  0  0
  190.3790  168.1660  138.6990 Cl  0  0  0  0  0  0  0  0  0  0  0  0
  189.5100  170.4470  137.4950 C   0  0  0  0  0  2  0  0  0  0  0  0
  190.7080  169.8590  138.2440 C   0  0  1  0  0  3  0  0  0  0  0  0
  189.8010  171.8790  137.1540 C   0  0  0  0  0  3  0  0  0  0  0  0
  194.1900  174.3770  144.9600 C   0  0  1  0  0  3  0  0  0  0  0  0
  195.5240  174.5860  144.5570 O   0  0  0  0  0  0  0  0  0  0  0  0
  195.1180  175.2770  145.7220 C   0  0  1  0  0  3  0  0  0  0  0  0
  195.0060  176.7550  145.3940 C   0  0  0  0  0  2  0  0  0  0  0  0
  194.5610  177.5310  146.6170 C   0  0  0  0  0  2  0  0  0  0  0  0
  193.4640  176.8940  147.2020 O   0  0  0  0  0  1  0  0  0  0  0  0
  186.2540  176.7910  142.2050 C   0  0  0  0  0  2  0  0  0  0  0  0
  185.0870  177.2970  142.7870 O   0  0  0  0  0  1  0  0  0  0  0  0
  189.6980  177.2510  147.2080 C   0  0  0  0  0  1  0  0  0  0  0  0
  188.3550  177.3850  146.5090 C   0  0  0  0  0  2  0  0  0  0  0  0
  2 15  1  6  0  0  0
  2  6  1  0  0  0  0
  3  1  1  0  0  0  0
  3 37  1  0  0  0  0
  4  7  1  0  0  0  0
  4 14  1  0  0  0  0
  5  2  1  0  0  0  0
  5 16  1  0  0  0  0
  6  9  1  0  0  0  0
  6 28  1  0  0  0  0
  7  5  1  0  0  0  0
  8  3  1  0  0  0  0
  9 12  1  0  0  0  0
 10 20  1  0  0  0  0
 10 15  1  0  0  0  0
 11 15  2  0  0  0  0
 13  8  1  0  0  0  0
 14 18  1  0  0  0  0
 16 19  1  0  0  0  0
 16  9  1  0  0  0  0
 17 20  1  0  0  0  0
 17  7  1  0  0  0  0
 18 13  1  0  0  0  0
 18 19  1  0  0  0  0
 19  1  1  0  0  0  0
 21 22  1  0  0  0  0
 22 23  1  0  0  0  0
 22 17  1  0  0  0  0
 25 26  1  0  0  0  0
 26 24  1  0  0  0  0
 26 23  1  0  0  0  0
 27 25  1  0  0  0  0
 27 21  2  0  0  0  0
 28 30  1  0  0  0  0
 29 28  1  0  0  0  0
 29 30  1  0  0  0  0
 31 30  1  0  0  0  0
 31 32  1  0  0  0  0
 32 33  1  0  0  0  0
 34 35  1  0  0  0  0
 34 13  1  0  0  0  0
 37 36  1  0  0  0  0
M  END
>  <MODEL>
8

>  <REMARK>
 VINA RESULT:      -6.2      2.855      6.404
  Name = 
  6 active torsions:
  status: ('A' for Active; 'I' for Inactive)
    1  A    between atoms: C_3  and  C_21
    2  A    between atoms: C_3  and  C_30
    3  A    between atoms: N_5  and  C_23
    4  A    between atoms: C_6  and  C_31
    5  A    between atoms: C_9  and  C_13
    6  A    between atoms: C_11  and  C_26
                            x       y       z     vdW  Elec       q    Type
                         _______ _______ _______ _____ _____    ______ ____

>  <TORSDO>
F 6

$$$$
=
 OpenBabel11052419523D

 37 42  0  0  1  0  0  0  0  0999 V2000
  185.9100  178.1820  142.4390 C   0  0  0  0  0  2  0  0  0  0  0  0
  189.3160  175.0180  141.5790 C   0  0  2  0  0  3  0  0  0  0  0  0
  184.6680  177.8200  143.0980 N   0  0  0  0  0  0  0  0  0  0  0  0
  188.9820  176.2590  145.2350 C   0  0  0  0  0  2  0  0  0  0  0  0
  188.7010  175.4110  142.9170 C   0  0  1  0  0  3  0  0  0  0  0  0
  188.1420  174.8180  140.6440 C   0  0  1  0  0  3  0  0  0  0  0  0
  189.6550  176.1870  143.8680 C   0  0  2  0  0  3  0  0  0  0  0  0
  184.5910  178.5900  144.3430 C   0  0  0  0  0  2  0  0  0  0  0  0
  187.1650  175.9190  141.0450 C   0  0  2  0  0  3  0  0  0  0  0  0
  191.6130  173.9770  142.1490 C   0  0  0  0  0  2  0  0  0  0  0  0
  189.6940  172.6850  141.7070 O   0  0  0  0  0  0  0  0  0  0  0  0
  187.4890  177.1100  140.3800 O   0  0  0  0  0  1  0  0  0  0  0  0
  185.8840  178.4890  145.1890 C   0  0  2  0  0  3  0  0  0  0  0  0
  188.1880  177.5400  145.3760 C   0  0  0  0  0  2  0  0  0  0  0  0
  190.1830  173.8030  141.7370 C   0  0  0  0  0  0  0  0  0  0  0  0
  187.3480  176.0750  142.5690 C   0  0  2  0  0  3  0  0  0  0  0  0
  191.0600  175.5280  144.0570 C   0  0  1  0  0  3  0  0  0  0  0  0
  186.8550  177.4120  144.6600 C   0  0  2  0  0  3  0  0  0  0  0  0
  187.0900  177.4900  143.1400 C   0  0  2  0  0  3  0  0  0  0  0  0
  191.8500  175.3580  142.7570 C   0  0  0  0  0  2  0  0  0  0  0  0
  191.9620  175.6920  146.4370 C   0  0  0  0  0  3  0  0  0  0  0  0
  191.9670  176.2800  145.0450 C   0  0  1  0  0  3  0  0  0  0  0  0
  193.3760  176.5410  144.4740 C   0  0  0  0  0  2  0  0  0  0  0  0
  195.7070  177.8510  144.9950 Cl  0  0  0  0  0  0  0  0  0  0  0  0
  193.9370  177.0660  146.9070 C   0  0  0  0  0  2  0  0  0  0  0  0
  194.4850  176.6690  145.5350 C   0  0  1  0  0  3  0  0  0  0  0  0
  192.8900  176.0740  147.3210 C   0  0  0  0  0  3  0  0  0  0  0  0
  188.5590  174.9010  139.1720 C   0  0  1  0  0  3  0  0  0  0  0  0
  189.7420  174.1680  138.9500 O   0  0  0  0  0  0  0  0  0  0  0  0
  188.5590  173.5960  138.4300 C   0  0  1  0  0  3  0  0  0  0  0  0
  188.2060  172.3760  139.2610 C   0  0  0  0  0  2  0  0  0  0  0  0
  188.8980  171.1470  138.7100 C   0  0  0  0  0  2  0  0  0  0  0  0
  190.2530  171.1810  139.0520 O   0  0  0  0  0  1  0  0  0  0  0  0
  185.5200  178.2300  146.6600 C   0  0  0  0  0  2  0  0  0  0  0  0
  184.9840  176.9450  146.7970 O   0  0  0  0  0  1  0  0  0  0  0  0
  183.9770  178.0450  140.7860 C   0  0  0  0  0  1  0  0  0  0  0  0
  183.5890  178.2750  142.2380 C   0  0  0  0  0  2  0  0  0  0  0  0
  1  3  1  0  0  0  0
  1 19  1  0  0  0  0
  2 15  1  1  0  0  0
  2  5  1  0  0  0  0
  3  8  1  0  0  0  0
  4 14  1  0  0  0  0
  5  7  1  0  0  0  0
  6  9  1  0  0  0  0
  6  2  1  0  0  0  0
  7 17  1  0  0  0  0
  7  4  1  0  0  0  0
  8 13  1  0  0  0  0
  9 16  1  0  0  0  0
 10 20  1  0  0  0  0
 11 15  2  0  0  0  0
 12  9  1  0  0  0  0
 13 34  1  0  0  0  0
 15 10  1  0  0  0  0
 16  5  1  0  0  0  0
 16 19  1  0  0  0  0
 17 22  1  0  0  0  0
 18 13  1  0  0  0  0
 18 14  1  0  0  0  0
 19 18  1  0  0  0  0
 20 17  1  0  0  0  0
 21 27  2  0  0  0  0
 22 21  1  0  0  0  0
 23 22  1  0  0  0  0
 23 26  1  0  0  0  0
 24 26  1  0  0  0  0
 25 27  1  0  0  0  0
 26 25  1  0  0  0  0
 28  6  1  0  0  0  0
 29 28  1  0  0  0  0
 30 29  1  0  0  0  0
 30 28  1  0  0  0  0
 30 31  1  0  0  0  0
 32 33  1  0  0  0  0
 32 31  1  0  0  0  0
 34 35  1  0  0  0  0
 36 37  1  0  0  0  0
 37  3  1  0  0  0  0
M  END
>  <MODEL>
9

>  <REMARK>
 VINA RESULT:      -6.1      3.609      7.869
  Name = 
  6 active torsions:
  status: ('A' for Active; 'I' for Inactive)
    1  A    between atoms: C_3  and  C_21
    2  A    between atoms: C_3  and  C_30
    3  A    between atoms: N_5  and  C_23
    4  A    between atoms: C_6  and  C_31
    5  A    between atoms: C_9  and  C_13
    6  A    between atoms: C_11  and  C_26
                            x       y       z     vdW  Elec       q    Type
                         _______ _______ _______ _____ _____    ______ ____

>  <TORSDO>
F 6

$$$$
