=
 OpenBabel11052419053D

 32 36  0  0  1  0  0  0  0  0999 V2000
  190.1110  174.1090  143.9350 C   0  0  1  0  0  3  0  0  0  0  0  0
  189.2330  176.2230  144.8300 N   0  0  2  0  0  0  0  0  0  0  0  0
  191.3600  173.3250  143.5680 C   0  0  0  0  0  2  0  0  0  0  0  0
  190.4270  175.5570  144.2960 C   0  0  1  0  0  3  0  0  0  0  0  0
  188.6100  175.5070  145.9670 C   0  0  1  0  0  3  0  0  0  0  0  0
  188.2470  176.2690  143.7380 C   0  0  1  0  0  3  0  0  0  0  0  0
  185.4050  177.2780  145.9730 C   0  0  0  0  0  0  0  0  0  0  0  0
  186.5390  176.7890  145.5470 C   0  0  0  0  0  0  0  0  0  0  0  0
  189.5880  174.8840  146.9800 C   0  0  2  0  0  3  0  0  0  0  0  0
  191.6810  175.7730  145.1640 C   0  0  1  0  0  3  0  0  0  0  0  0
  187.5310  176.3760  146.5970 C   0  0  0  0  0  2  0  0  0  0  0  0
  191.5020  176.5340  146.4820 C   0  0  0  0  0  2  0  0  0  0  0  0
  192.7860  174.7100  145.1120 C   0  0  0  0  0  2  0  0  0  0  0  0
  187.8360  174.9100  143.3150 N   0  0  0  0  0  2  0  0  0  0  0  0
  188.9020  174.2710  148.0110 F   0  0  0  0  0  0  0  0  0  0  0  0
  188.9860  174.0860  142.8920 C   0  0  1  0  0  3  0  0  0  0  0  0
  187.0370  177.1300  144.1510 C   0  0  2  0  0  3  0  0  0  0  0  0
  190.6540  175.8220  147.5390 C   0  0  0  0  0  2  0  0  0  0  0  0
  192.2680  173.3070  144.7920 C   0  0  0  0  0  2  0  0  0  0  0  0
  184.3300  177.7410  146.3760 O   0  0  0  0  0  0  0  0  0  0  0  0
  188.3820  173.6570  139.1610 C   0  0  2  0  0  3  0  0  0  0  0  0
  187.9660  172.3460  139.3950 O   0  0  0  0  0  1  0  0  0  0  0  0
  190.8100  173.5370  139.5500 C   0  0  0  0  0  3  0  0  0  0  0  0
  189.4160  174.3580  141.4390 C   0  0  1  0  0  3  0  0  0  0  0  0
  189.8050  173.6600  138.6720 C   0  0  0  0  0  0  0  0  0  0  0  0
  190.4940  173.3580  141.0040 C   0  0  0  0  0  2  0  0  0  0  0  0
  188.2300  174.4830  140.4490 C   0  0  1  0  0  3  0  0  0  0  0  0
  188.0360  175.8260  140.1260 O   0  0  0  0  0  1  0  0  0  0  0  0
  190.0930  173.8980  137.2270 C   0  0  0  0  0  2  0  0  0  0  0  0
  189.0180  174.5560  136.6300 O   0  0  0  0  0  1  0  0  0  0  0  0
  186.1940  178.0450  142.1020 O   0  0  0  0  0  1  0  0  0  0  0  0
  185.9480  177.0800  143.0790 C   0  0  0  0  0  2  0  0  0  0  0  0
  1  3  1  6  0  0  0
  1  4  1  0  0  0  0
  2  5  1  0  0  0  0
  3 19  1  0  0  0  0
  4  2  1  0  0  0  0
  4 10  1  0  0  0  0
  5 11  1  0  0  0  0
  5  9  1  0  0  0  0
  6 17  1  0  0  0  0
  6  2  1  0  0  0  0
  7 20  2  0  0  0  0
  8  7  2  0  0  0  0
  8 11  1  0  0  0  0
  9 18  1  0  0  0  0
  9 15  1  0  0  0  0
 10 12  1  0  0  0  0
 12 18  1  0  0  0  0
 13 10  1  0  0  0  0
 14  6  1  0  0  0  0
 16 14  1  0  0  0  0
 16  1  1  0  0  0  0
 17  8  1  0  0  0  0
 19 13  1  0  0  0  0
 21 22  1  0  0  0  0
 21 27  1  0  0  0  0
 23 26  1  0  0  0  0
 24 16  1  0  0  0  0
 25 21  1  0  0  0  0
 25 23  2  0  0  0  0
 26 24  1  0  0  0  0
 27 24  1  0  0  0  0
 28 27  1  0  0  0  0
 29 25  1  0  0  0  0
 30 29  1  0  0  0  0
 31 32  1  0  0  0  0
 32 17  1  0  0  0  0
M  END
>  <MODEL>
1

>  <REMARK>
 VINA RESULT:      -8.0      0.000      0.000
  Name = 
  3 active torsions:
  status: ('A' for Active; 'I' for Inactive)
    1  A    between atoms: C_7  and  C_19
    2  A    between atoms: C_16  and  C_27
    3  A    between atoms: C_28  and  C_32
                            x       y       z     vdW  Elec       q    Type
                         _______ _______ _______ _____ _____    ______ ____

>  <TORSDO>
F 3

$$$$
=
 OpenBabel11052419053D

 32 36  0  0  1  0  0  0  0  0999 V2000
  191.8830  173.2630  144.6810 C   0  0  1  0  0  3  0  0  0  0  0  0
  191.2470  175.6350  144.5640 N   0  0  2  0  0  0  0  0  0  0  0  0
  193.0290  172.2680  144.6270 C   0  0  0  0  0  2  0  0  0  0  0  0
  192.3280  174.6750  144.3110 C   0  0  1  0  0  3  0  0  0  0  0  0
  190.7140  175.5820  145.9440 C   0  0  1  0  0  3  0  0  0  0  0  0
  190.1470  175.2880  143.6480 C   0  0  1  0  0  3  0  0  0  0  0  0
  187.6490  177.5000  145.3690 C   0  0  0  0  0  0  0  0  0  0  0  0
  188.6930  176.7520  145.1340 C   0  0  0  0  0  0  0  0  0  0  0  0
  191.7610  175.3830  147.0560 C   0  0  2  0  0  3  0  0  0  0  0  0
  193.6840  175.1220  144.8880 C   0  0  1  0  0  3  0  0  0  0  0  0
  189.7720  176.7540  146.1800 C   0  0  0  0  0  2  0  0  0  0  0  0
  193.7050  176.4110  145.7160 C   0  0  0  0  0  2  0  0  0  0  0  0
  194.7070  174.0380  145.2500 C   0  0  0  0  0  2  0  0  0  0  0  0
  189.6060  173.9390  143.9300 N   0  0  0  0  0  2  0  0  0  0  0  0
  191.1610  175.3800  148.3010 F   0  0  0  0  0  0  0  0  0  0  0  0
  190.6460  172.8930  143.8520 C   0  0  1  0  0  3  0  0  0  0  0  0
  189.0490  176.3680  143.7050 C   0  0  2  0  0  3  0  0  0  0  0  0
  192.9410  176.3510  147.0410 C   0  0  0  0  0  2  0  0  0  0  0  0
  194.0690  172.7070  145.6510 C   0  0  0  0  0  2  0  0  0  0  0  0
  186.6580  178.2080  145.5900 O   0  0  0  0  0  0  0  0  0  0  0  0
  189.6620  172.8510  140.1780 C   0  0  2  0  0  3  0  0  0  0  0  0
  188.3210  172.7670  140.5540 O   0  0  0  0  0  1  0  0  0  0  0  0
  190.5300  170.6190  140.7520 C   0  0  0  0  0  3  0  0  0  0  0  0
  190.9230  172.4300  142.4100 C   0  0  1  0  0  3  0  0  0  0  0  0
  190.1690  171.4860  139.7960 C   0  0  0  0  0  0  0  0  0  0  0  0
  190.3830  171.0120  142.1900 C   0  0  0  0  0  2  0  0  0  0  0  0
  190.4830  173.4510  141.3300 C   0  0  1  0  0  3  0  0  0  0  0  0
  191.6080  174.0980  140.8180 O   0  0  0  0  0  1  0  0  0  0  0  0
  190.3610  171.1430  138.3560 C   0  0  0  0  0  2  0  0  0  0  0  0
  189.5950  170.0240  138.0260 O   0  0  0  0  0  1  0  0  0  0  0  0
  188.1350  176.1110  141.5040 O   0  0  0  0  0  1  0  0  0  0  0  0
  187.8430  175.9570  142.8600 C   0  0  0  0  0  2  0  0  0  0  0  0
  1  3  1  6  0  0  0
  2  5  1  0  0  0  0
  3 19  1  0  0  0  0
  4  2  1  0  0  0  0
  4  1  1  0  0  0  0
  4 10  1  0  0  0  0
  5 11  1  0  0  0  0
  5  9  1  0  0  0  0
  6 17  1  0  0  0  0
  6 14  1  0  0  0  0
  6  2  1  0  0  0  0
  7 20  2  0  0  0  0
  8  7  2  0  0  0  0
  8 11  1  0  0  0  0
  9 15  1  0  0  0  0
 10 13  1  0  0  0  0
 10 12  1  0  0  0  0
 12 18  1  0  0  0  0
 13 19  1  0  0  0  0
 16 14  1  0  0  0  0
 16  1  1  0  0  0  0
 17  8  1  0  0  0  0
 18  9  1  0  0  0  0
 21 22  1  0  0  0  0
 21 27  1  0  0  0  0
 23 26  1  0  0  0  0
 24 16  1  0  0  0  0
 25 21  1  0  0  0  0
 25 23  2  0  0  0  0
 26 24  1  0  0  0  0
 27 24  1  0  0  0  0
 28 27  1  0  0  0  0
 29 25  1  0  0  0  0
 30 29  1  0  0  0  0
 31 32  1  0  0  0  0
 32 17  1  0  0  0  0
M  END
>  <MODEL>
2

>  <REMARK>
 VINA RESULT:      -7.7      1.882      2.511
  Name = 
  3 active torsions:
  status: ('A' for Active; 'I' for Inactive)
    1  A    between atoms: C_7  and  C_19
    2  A    between atoms: C_16  and  C_27
    3  A    between atoms: C_28  and  C_32
                            x       y       z     vdW  Elec       q    Type
                         _______ _______ _______ _____ _____    ______ ____

>  <TORSDO>
F 3

$$$$
=
 OpenBabel11052419053D

 32 36  0  0  1  0  0  0  0  0999 V2000
  191.5630  174.7810  142.2630 C   0  0  1  0  0  3  0  0  0  0  0  0
  189.7980  174.4820  143.9480 N   0  0  2  0  0  0  0  0  0  0  0  0
  192.3370  174.1300  141.1290 C   0  0  0  0  0  2  0  0  0  0  0  0
  190.6700  173.7840  142.9970 C   0  0  1  0  0  3  0  0  0  0  0  0
  189.0020  175.5720  143.3380 C   0  0  1  0  0  3  0  0  0  0  0  0
  190.6750  175.0870  144.9650 C   0  0  1  0  0  3  0  0  0  0  0  0
  187.9610  177.2240  146.4360 C   0  0  0  0  0  0  0  0  0  0  0  0
  188.6570  176.4940  145.6050 C   0  0  0  0  0  0  0  0  0  0  0  0
  188.4340  175.2780  141.9370 C   0  0  2  0  0  3  0  0  0  0  0  0
  189.9150  172.7800  142.1060 C   0  0  1  0  0  3  0  0  0  0  0  0
  187.9700  176.0790  144.3350 C   0  0  0  0  0  2  0  0  0  0  0  0
  188.3900  172.7220  142.2470 C   0  0  0  0  0  2  0  0  0  0  0  0
  190.5050  172.4510  140.7290 C   0  0  0  0  0  2  0  0  0  0  0  0
  191.5780  176.1030  144.3740 N   0  0  0  0  0  2  0  0  0  0  0  0
  187.6840  176.3450  141.4780 F   0  0  0  0  0  0  0  0  0  0  0  0
  192.4100  175.5460  143.2890 C   0  0  1  0  0  3  0  0  0  0  0  0
  189.8310  175.6720  146.1140 C   0  0  2  0  0  3  0  0  0  0  0  0
  187.6430  173.9800  141.7980 C   0  0  0  0  0  2  0  0  0  0  0  0
  191.3220  173.5950  140.1260 C   0  0  0  0  0  2  0  0  0  0  0  0
  187.3030  177.9140  147.2240 O   0  0  0  0  0  0  0  0  0  0  0  0
  194.7880  174.7420  146.1460 C   0  0  2  0  0  3  0  0  0  0  0  0
  194.6880  176.0630  146.5810 O   0  0  0  0  0  1  0  0  0  0  0  0
  196.1240  174.9440  144.0880 C   0  0  0  0  0  3  0  0  0  0  0  0
  193.6570  174.8070  143.8080 C   0  0  1  0  0  3  0  0  0  0  0  0
  196.0640  174.5570  145.3690 C   0  0  0  0  0  0  0  0  0  0  0  0
  194.9270  175.5930  143.4620 C   0  0  0  0  0  2  0  0  0  0  0  0
  193.5580  174.3850  145.2960 C   0  0  1  0  0  3  0  0  0  0  0  0
  193.3160  173.0130  145.3730 O   0  0  0  0  0  1  0  0  0  0  0  0
  197.2210  173.8560  145.9990 C   0  0  0  0  0  2  0  0  0  0  0  0
  196.9030  172.5150  146.2200 O   0  0  0  0  0  1  0  0  0  0  0  0
  191.3410  175.5090  147.9690 O   0  0  0  0  0  1  0  0  0  0  0  0
  190.7190  176.4170  147.1110 C   0  0  0  0  0  2  0  0  0  0  0  0
  1  3  1  6  0  0  0
  1  4  1  0  0  0  0
  1 16  1  0  0  0  0
  2  6  1  0  0  0  0
  4  2  1  0  0  0  0
  5  2  1  0  0  0  0
  5 11  1  0  0  0  0
  6 17  1  0  0  0  0
  7 20  2  0  0  0  0
  8 17  1  0  0  0  0
  8  7  2  0  0  0  0
  9  5  1  0  0  0  0
 10 12  1  0  0  0  0
 10  4  1  0  0  0  0
 11  8  1  0  0  0  0
 13 10  1  0  0  0  0
 14  6  1  0  0  0  0
 15  9  1  0  0  0  0
 16 24  1  0  0  0  0
 16 14  1  0  0  0  0
 17 32  1  0  0  0  0
 18  9  1  0  0  0  0
 18 12  1  0  0  0  0
 19 13  1  0  0  0  0
 19  3  1  0  0  0  0
 21 22  1  0  0  0  0
 23 25  2  0  0  0  0
 24 27  1  0  0  0  0
 25 29  1  0  0  0  0
 25 21  1  0  0  0  0
 26 24  1  0  0  0  0
 26 23  1  0  0  0  0
 27 28  1  0  0  0  0
 27 21  1  0  0  0  0
 29 30  1  0  0  0  0
 32 31  1  0  0  0  0
M  END
>  <MODEL>
3

>  <REMARK>
 VINA RESULT:      -7.7      3.917      6.237
  Name = 
  3 active torsions:
  status: ('A' for Active; 'I' for Inactive)
    1  A    between atoms: C_7  and  C_19
    2  A    between atoms: C_16  and  C_27
    3  A    between atoms: C_28  and  C_32
                            x       y       z     vdW  Elec       q    Type
                         _______ _______ _______ _____ _____    ______ ____

>  <TORSDO>
F 3

$$$$
=
 OpenBabel11052419053D

 32 36  0  0  1  0  0  0  0  0999 V2000
  190.8370  176.2050  144.5730 C   0  0  1  0  0  3  0  0  0  0  0  0
  191.1320  174.1160  143.3110 N   0  0  2  0  0  0  0  0  0  0  0  0
  190.8830  176.8590  145.9440 C   0  0  0  0  0  2  0  0  0  0  0  0
  190.9850  174.6880  144.6540 C   0  0  1  0  0  3  0  0  0  0  0  0
  192.2270  174.7230  142.5210 C   0  0  1  0  0  3  0  0  0  0  0  0
  189.8700  174.3760  142.5970 C   0  0  1  0  0  3  0  0  0  0  0  0
  191.2530  173.4270  139.2380 C   0  0  0  0  0  0  0  0  0  0  0  0
  191.1650  173.8170  140.4810 C   0  0  0  0  0  0  0  0  0  0  0  0
  193.5160  175.0410  143.3020 C   0  0  2  0  0  3  0  0  0  0  0  0
  192.0380  174.1700  145.6520 C   0  0  1  0  0  3  0  0  0  0  0  0
  192.4530  173.9210  141.2480 C   0  0  0  0  0  2  0  0  0  0  0  0
  193.1300  173.2440  145.1060 C   0  0  0  0  0  2  0  0  0  0  0  0
  192.4080  175.0680  146.8400 C   0  0  0  0  0  2  0  0  0  0  0  0
  189.6270  175.8270  142.4280 N   0  0  0  0  0  2  0  0  0  0  0  0
  194.4790  175.5730  142.4650 F   0  0  0  0  0  0  0  0  0  0  0  0
  189.6070  176.5440  143.7200 C   0  0  1  0  0  3  0  0  0  0  0  0
  189.8620  173.6350  141.2460 C   0  0  2  0  0  3  0  0  0  0  0  0
  194.1010  173.8900  144.1160 C   0  0  0  0  0  2  0  0  0  0  0  0
  192.2500  176.5610  146.5500 C   0  0  0  0  0  2  0  0  0  0  0  0
  191.3350  173.0570  138.0600 O   0  0  0  0  0  0  0  0  0  0  0  0
  186.0600  177.8270  144.2090 C   0  0  2  0  0  3  0  0  0  0  0  0
  186.5280  179.1320  144.0510 O   0  0  0  0  0  1  0  0  0  0  0  0
  186.9450  177.1950  146.4180 C   0  0  0  0  0  3  0  0  0  0  0  0
  188.2490  176.4460  144.4380 C   0  0  1  0  0  3  0  0  0  0  0  0
  185.8810  177.5250  145.6730 C   0  0  0  0  0  0  0  0  0  0  0  0
  188.3040  177.1730  145.7870 C   0  0  0  0  0  2  0  0  0  0  0  0
  187.0430  176.8460  143.5500 C   0  0  1  0  0  3  0  0  0  0  0  0
  186.3610  175.6960  143.1500 O   0  0  0  0  0  1  0  0  0  0  0  0
  184.5100  177.4980  146.2620 C   0  0  0  0  0  2  0  0  0  0  0  0
  183.8060  178.6420  145.8850 O   0  0  0  0  0  1  0  0  0  0  0  0
  187.9480  172.8410  140.0410 O   0  0  0  0  0  1  0  0  0  0  0  0
  188.6170  173.9990  140.4370 C   0  0  0  0  0  2  0  0  0  0  0  0
  1  4  1  0  0  0  0
  1  3  1  1  0  0  0
  2  4  1  0  0  0  0
  3 19  1  0  0  0  0
  4 10  1  0  0  0  0
  5  9  1  0  0  0  0
  5  2  1  0  0  0  0
  6  2  1  0  0  0  0
  7  8  2  0  0  0  0
  8 17  1  0  0  0  0
  8 11  1  0  0  0  0
  9 18  1  0  0  0  0
 10 13  1  0  0  0  0
 11  5  1  0  0  0  0
 12 10  1  0  0  0  0
 14  6  1  0  0  0  0
 14 16  1  0  0  0  0
 15  9  1  0  0  0  0
 16 24  1  0  0  0  0
 16  1  1  0  0  0  0
 17  6  1  0  0  0  0
 18 12  1  0  0  0  0
 19 13  1  0  0  0  0
 20  7  2  0  0  0  0
 21 25  1  0  0  0  0
 22 21  1  0  0  0  0
 24 26  1  0  0  0  0
 25 29  1  0  0  0  0
 25 23  2  0  0  0  0
 26 23  1  0  0  0  0
 27 21  1  0  0  0  0
 27 24  1  0  0  0  0
 28 27  1  0  0  0  0
 30 29  1  0  0  0  0
 31 32  1  0  0  0  0
 32 17  1  0  0  0  0
M  END
>  <MODEL>
4

>  <REMARK>
 VINA RESULT:      -7.4      2.094      6.337
  Name = 
  3 active torsions:
  status: ('A' for Active; 'I' for Inactive)
    1  A    between atoms: C_7  and  C_19
    2  A    between atoms: C_16  and  C_27
    3  A    between atoms: C_28  and  C_32
                            x       y       z     vdW  Elec       q    Type
                         _______ _______ _______ _____ _____    ______ ____

>  <TORSDO>
F 3

$$$$
=
 OpenBabel11052419053D

 32 36  0  0  1  0  0  0  0  0999 V2000
  188.5730  175.6200  144.9280 C   0  0  1  0  0  3  0  0  0  0  0  0
  187.2670  177.6720  144.5670 N   0  0  2  0  0  0  0  0  0  0  0  0
  189.7290  174.9860  145.6810 C   0  0  0  0  0  2  0  0  0  0  0  0
  188.5020  177.1290  145.1450 C   0  0  1  0  0  3  0  0  0  0  0  0
  186.0380  177.0000  145.0470 C   0  0  1  0  0  3  0  0  0  0  0  0
  187.3510  177.4620  143.1120 C   0  0  1  0  0  3  0  0  0  0  0  0
  183.7400  178.2910  142.5050 C   0  0  0  0  0  0  0  0  0  0  0  0
  184.8510  177.9250  143.0860 C   0  0  0  0  0  0  0  0  0  0  0  0
  186.0200  176.6330  146.5420 C   0  0  2  0  0  3  0  0  0  0  0  0
  188.7600  177.6100  146.5850 C   0  0  1  0  0  3  0  0  0  0  0  0
  184.8120  177.7700  144.5800 C   0  0  0  0  0  2  0  0  0  0  0  0
  187.6780  178.4740  147.2430 C   0  0  0  0  0  2  0  0  0  0  0  0
  189.5990  176.7150  147.5060 C   0  0  0  0  0  2  0  0  0  0  0  0
  187.3960  176.0220  142.7690 N   0  0  0  0  0  2  0  0  0  0  0  0
  184.8190  176.0420  146.8880 F   0  0  0  0  0  0  0  0  0  0  0  0
  188.5240  175.3280  143.4220 C   0  0  1  0  0  3  0  0  0  0  0  0
  186.1870  178.1820  142.4040 C   0  0  2  0  0  3  0  0  0  0  0  0
  186.3480  177.7660  147.5100 C   0  0  0  0  0  2  0  0  0  0  0  0
  189.4970  175.2270  147.1680 C   0  0  0  0  0  2  0  0  0  0  0  0
  182.6880  178.6370  141.9540 O   0  0  0  0  0  0  0  0  0  0  0  0
  192.0120  174.0570  142.5900 C   0  0  2  0  0  3  0  0  0  0  0  0
  192.1610  173.6470  143.9140 O   0  0  0  0  0  1  0  0  0  0  0  0
  192.1240  176.5110  142.7620 C   0  0  0  0  0  3  0  0  0  0  0  0
  189.8530  175.5020  142.6650 C   0  0  1  0  0  3  0  0  0  0  0  0
  192.7160  175.3710  142.3810 C   0  0  0  0  0  0  0  0  0  0  0  0
  190.7830  176.4530  143.4290 C   0  0  0  0  0  2  0  0  0  0  0  0
  190.5160  174.1640  142.2500 C   0  0  1  0  0  3  0  0  0  0  0  0
  190.3290  173.9590  140.8820 O   0  0  0  0  0  1  0  0  0  0  0  0
  194.0240  175.4050  141.6630 C   0  0  0  0  0  2  0  0  0  0  0  0
  195.0430  174.9620  142.5070 O   0  0  0  0  0  1  0  0  0  0  0  0
  187.4870  177.9160  140.4070 O   0  0  0  0  0  1  0  0  0  0  0  0
  186.1850  177.8660  140.9080 C   0  0  0  0  0  2  0  0  0  0  0  0
  1  4  1  0  0  0  0
  1  3  1  6  0  0  0
  2  5  1  0  0  0  0
  2  4  1  0  0  0  0
  3 19  1  0  0  0  0
  4 10  1  0  0  0  0
  5  9  1  0  0  0  0
  6  2  1  0  0  0  0
  7  8  2  0  0  0  0
  8 11  1  0  0  0  0
  9 15  1  0  0  0  0
  9 18  1  0  0  0  0
 10 12  1  0  0  0  0
 10 13  1  0  0  0  0
 11  5  1  0  0  0  0
 12 18  1  0  0  0  0
 14  6  1  0  0  0  0
 14 16  1  0  0  0  0
 16  1  1  0  0  0  0
 17  8  1  0  0  0  0
 17  6  1  0  0  0  0
 19 13  1  0  0  0  0
 20  7  2  0  0  0  0
 21 22  1  0  0  0  0
 23 26  1  0  0  0  0
 24 16  1  0  0  0  0
 24 26  1  0  0  0  0
 25 21  1  0  0  0  0
 25 23  2  0  0  0  0
 27 21  1  0  0  0  0
 27 24  1  0  0  0  0
 28 27  1  0  0  0  0
 29 25  1  0  0  0  0
 29 30  1  0  0  0  0
 31 32  1  0  0  0  0
 32 17  1  0  0  0  0
M  END
>  <MODEL>
5

>  <REMARK>
 VINA RESULT:      -7.3      2.646      3.979
  Name = 
  3 active torsions:
  status: ('A' for Active; 'I' for Inactive)
    1  A    between atoms: C_7  and  C_19
    2  A    between atoms: C_16  and  C_27
    3  A    between atoms: C_28  and  C_32
                            x       y       z     vdW  Elec       q    Type
                         _______ _______ _______ _____ _____    ______ ____

>  <TORSDO>
F 3

$$$$
=
 OpenBabel11052419053D

 32 36  0  0  1  0  0  0  0  0999 V2000
  191.8730  176.1210  143.6890 C   0  0  1  0  0  3  0  0  0  0  0  0
  191.3990  173.7090  143.7400 N   0  0  2  0  0  0  0  0  0  0  0  0
  192.2980  177.3330  144.5000 C   0  0  0  0  0  2  0  0  0  0  0  0
  191.6140  174.9020  144.5680 C   0  0  1  0  0  3  0  0  0  0  0  0
  192.4880  173.4530  142.7700 C   0  0  1  0  0  3  0  0  0  0  0  0
  190.1640  173.9420  142.9730 C   0  0  1  0  0  3  0  0  0  0  0  0
  190.7220  171.0330  140.6650 C   0  0  0  0  0  0  0  0  0  0  0  0
  190.9290  172.0100  141.5070 C   0  0  0  0  0  0  0  0  0  0  0  0
  193.9160  173.7110  143.2860 C   0  0  2  0  0  3  0  0  0  0  0  0
  192.6240  174.6730  145.7090 C   0  0  1  0  0  3  0  0  0  0  0  0
  192.2960  172.0890  142.1250 C   0  0  0  0  0  2  0  0  0  0  0  0
  193.3300  173.3140  145.7630 C   0  0  0  0  0  2  0  0  0  0  0  0
  193.3960  175.8870  146.2430 C   0  0  0  0  0  2  0  0  0  0  0  0
  190.3010  175.0930  142.0510 N   0  0  0  0  0  2  0  0  0  0  0  0
  194.8520  173.4110  142.3140 F   0  0  0  0  0  0  0  0  0  0  0  0
  190.6680  176.3350  142.7620 C   0  0  1  0  0  3  0  0  0  0  0  0
  189.7550  172.6580  142.2250 C   0  0  2  0  0  3  0  0  0  0  0  0
  194.2820  173.0250  144.6000 C   0  0  0  0  0  2  0  0  0  0  0  0
  193.6070  176.9830  145.1980 C   0  0  0  0  0  2  0  0  0  0  0  0
  190.5250  170.1080  139.8670 O   0  0  0  0  0  0  0  0  0  0  0  0
  186.9620  176.3550  143.6170 C   0  0  2  0  0  3  0  0  0  0  0  0
  186.6910  175.7540  142.3880 O   0  0  0  0  0  1  0  0  0  0  0  0
  187.6000  178.6450  142.9760 C   0  0  0  0  0  3  0  0  0  0  0  0
  189.4570  177.0440  143.3940 C   0  0  1  0  0  3  0  0  0  0  0  0
  186.6910  177.8330  143.5320 C   0  0  0  0  0  0  0  0  0  0  0  0
  188.8580  178.0590  142.4120 C   0  0  0  0  0  2  0  0  0  0  0  0
  188.4200  176.0750  144.0160 C   0  0  1  0  0  3  0  0  0  0  0  0
  188.5400  176.0990  145.4060 O   0  0  0  0  0  1  0  0  0  0  0  0
  185.4570  178.3970  144.1540 C   0  0  0  0  0  2  0  0  0  0  0  0
  185.5020  179.7910  144.1230 O   0  0  0  0  0  1  0  0  0  0  0  0
  187.3670  172.6510  142.0130 O   0  0  0  0  0  1  0  0  0  0  0  0
  188.5490  172.9200  141.3220 C   0  0  0  0  0  2  0  0  0  0  0  0
  1  3  1  1  0  0  0
  1  4  1  0  0  0  0
  2  4  1  0  0  0  0
  3 19  1  0  0  0  0
  4 10  1  0  0  0  0
  5  9  1  0  0  0  0
  5  2  1  0  0  0  0
  6  2  1  0  0  0  0
  7  8  2  0  0  0  0
  8 11  1  0  0  0  0
  8 17  1  0  0  0  0
  9 18  1  0  0  0  0
 10 12  1  0  0  0  0
 10 13  1  0  0  0  0
 11  5  1  0  0  0  0
 14 16  1  0  0  0  0
 14  6  1  0  0  0  0
 15  9  1  0  0  0  0
 16 24  1  0  0  0  0
 16  1  1  0  0  0  0
 17  6  1  0  0  0  0
 18 12  1  0  0  0  0
 19 13  1  0  0  0  0
 20  7  2  0  0  0  0
 21 27  1  0  0  0  0
 22 21  1  0  0  0  0
 23 25  2  0  0  0  0
 24 27  1  0  0  0  0
 25 21  1  0  0  0  0
 25 29  1  0  0  0  0
 26 23  1  0  0  0  0
 26 24  1  0  0  0  0
 27 28  1  0  0  0  0
 30 29  1  0  0  0  0
 32 31  1  0  0  0  0
 32 17  1  0  0  0  0
M  END
>  <MODEL>
6

>  <REMARK>
 VINA RESULT:      -7.2      2.815      5.918
  Name = 
  3 active torsions:
  status: ('A' for Active; 'I' for Inactive)
    1  A    between atoms: C_7  and  C_19
    2  A    between atoms: C_16  and  C_27
    3  A    between atoms: C_28  and  C_32
                            x       y       z     vdW  Elec       q    Type
                         _______ _______ _______ _____ _____    ______ ____

>  <TORSDO>
F 3

$$$$
=
 OpenBabel11052419053D

 32 36  0  0  1  0  0  0  0  0999 V2000
  190.0750  173.6540  143.6310 C   0  0  1  0  0  3  0  0  0  0  0  0
  189.8860  175.9960  144.3550 N   0  0  2  0  0  0  0  0  0  0  0  0
  191.0200  172.4900  143.3840 C   0  0  0  0  0  2  0  0  0  0  0  0
  190.8240  174.9490  143.9320 C   0  0  1  0  0  3  0  0  0  0  0  0
  189.0200  175.5980  145.4880 C   0  0  1  0  0  3  0  0  0  0  0  0
  189.0120  176.2750  143.2030 C   0  0  1  0  0  3  0  0  0  0  0  0
  186.5550  178.2900  145.2030 C   0  0  0  0  0  0  0  0  0  0  0  0
  187.4890  177.4380  144.8740 C   0  0  0  0  0  0  0  0  0  0  0  0
  189.7050  174.7690  146.5910 C   0  0  2  0  0  3  0  0  0  0  0  0
  192.0440  174.8160  144.8620 C   0  0  1  0  0  3  0  0  0  0  0  0
  188.2530  176.8060  146.0040 C   0  0  0  0  0  2  0  0  0  0  0  0
  192.0660  175.6860  146.1230 C   0  0  0  0  0  2  0  0  0  0  0  0
  192.7510  173.4570  144.9350 C   0  0  0  0  0  2  0  0  0  0  0  0
  188.2040  175.0910  142.8300 N   0  0  0  0  0  2  0  0  0  0  0  0
  188.8170  174.4800  147.6110 F   0  0  0  0  0  0  0  0  0  0  0  0
  189.0450  173.9160  142.5240 C   0  0  1  0  0  3  0  0  0  0  0  0
  188.1260  177.5020  143.4950 C   0  0  2  0  0  3  0  0  0  0  0  0
  190.9920  175.3570  147.1630 C   0  0  0  0  0  2  0  0  0  0  0  0
  191.8240  172.2720  144.6600 C   0  0  0  0  0  2  0  0  0  0  0  0
  185.6710  179.0980  145.5140 O   0  0  0  0  0  0  0  0  0  0  0  0
  189.9710  172.0420  139.3460 C   0  0  2  0  0  3  0  0  0  0  0  0
  190.4460  170.9870  140.1250 O   0  0  0  0  0  1  0  0  0  0  0  0
  191.6630  173.7930  139.7090 C   0  0  0  0  0  3  0  0  0  0  0  0
  189.5980  173.9330  141.0870 C   0  0  1  0  0  3  0  0  0  0  0  0
  191.1240  172.8890  138.8790 C   0  0  0  0  0  0  0  0  0  0  0  0
  191.1310  173.9160  141.1040 C   0  0  0  0  0  2  0  0  0  0  0  0
  188.9610  172.8680  140.1590 C   0  0  1  0  0  3  0  0  0  0  0  0
  188.0570  173.4870  139.2960 O   0  0  0  0  0  1  0  0  0  0  0  0
  191.5950  172.7870  137.4670 C   0  0  0  0  0  2  0  0  0  0  0  0
  191.7940  174.0620  136.9380 O   0  0  0  0  0  1  0  0  0  0  0  0
  187.7980  177.9330  141.1590 O   0  0  0  0  0  1  0  0  0  0  0  0
  187.1230  177.7250  142.3630 C   0  0  0  0  0  2  0  0  0  0  0  0
  1  3  1  6  0  0  0
  1  4  1  0  0  0  0
  2  5  1  0  0  0  0
  3 19  1  0  0  0  0
  4  2  1  0  0  0  0
  4 10  1  0  0  0  0
  5 11  1  0  0  0  0
  5  9  1  0  0  0  0
  6 17  1  0  0  0  0
  6  2  1  0  0  0  0
  7 20  2  0  0  0  0
  8  7  2  0  0  0  0
  8 11  1  0  0  0  0
  9 18  1  0  0  0  0
  9 15  1  0  0  0  0
 10 13  1  0  0  0  0
 10 12  1  0  0  0  0
 12 18  1  0  0  0  0
 14  6  1  0  0  0  0
 16 14  1  0  0  0  0
 16  1  1  0  0  0  0
 17  8  1  0  0  0  0
 19 13  1  0  0  0  0
 21 22  1  0  0  0  0
 21 27  1  0  0  0  0
 23 26  1  0  0  0  0
 24 26  1  0  0  0  0
 24 16  1  0  0  0  0
 25 21  1  0  0  0  0
 25 23  2  0  0  0  0
 27 24  1  0  0  0  0
 28 27  1  0  0  0  0
 29 25  1  0  0  0  0
 30 29  1  0  0  0  0
 31 32  1  0  0  0  0
 32 17  1  0  0  0  0
M  END
>  <MODEL>
7

>  <REMARK>
 VINA RESULT:      -7.2      1.296      1.448
  Name = 
  3 active torsions:
  status: ('A' for Active; 'I' for Inactive)
    1  A    between atoms: C_7  and  C_19
    2  A    between atoms: C_16  and  C_27
    3  A    between atoms: C_28  and  C_32
                            x       y       z     vdW  Elec       q    Type
                         _______ _______ _______ _____ _____    ______ ____

>  <TORSDO>
F 3

$$$$
=
 OpenBabel11052419053D

 32 36  0  0  1  0  0  0  0  0999 V2000
  191.6930  174.9950  142.7730 C   0  0  1  0  0  3  0  0  0  0  0  0
  189.5680  174.8780  144.0040 N   0  0  2  0  0  0  0  0  0  0  0  0
  192.7510  174.2080  142.0200 C   0  0  0  0  0  2  0  0  0  0  0  0
  190.6760  174.0860  143.4580 C   0  0  1  0  0  3  0  0  0  0  0  0
  188.9170  175.7600  143.0090 C   0  0  1  0  0  3  0  0  0  0  0  0
  190.1370  175.7360  145.0560 C   0  0  1  0  0  3  0  0  0  0  0  0
  187.0690  177.8800  145.3530 C   0  0  0  0  0  0  0  0  0  0  0  0
  187.9770  177.0660  144.8840 C   0  0  0  0  0  0  0  0  0  0  0  0
  188.7340  175.1580  141.6030 C   0  0  2  0  0  3  0  0  0  0  0  0
  190.2060  172.8710  142.6360 C   0  0  1  0  0  3  0  0  0  0  0  0
  187.6500  176.3610  143.5990 C   0  0  0  0  0  2  0  0  0  0  0  0
  188.6980  172.7140  142.4120 C   0  0  0  0  0  2  0  0  0  0  0  0
  191.1380  172.3360  141.5410 C   0  0  0  0  0  2  0  0  0  0  0  0
  191.1260  176.6930  144.5070 N   0  0  0  0  0  2  0  0  0  0  0  0
  188.0920  176.0520  140.7660 F   0  0  0  0  0  0  0  0  0  0  0  0
  192.2250  176.0100  143.7940 C   0  0  1  0  0  3  0  0  0  0  0  0
  189.0090  176.4570  145.8210 C   0  0  2  0  0  3  0  0  0  0  0  0
  188.0490  173.7960  141.5470 C   0  0  0  0  0  2  0  0  0  0  0  0
  192.0430  173.4080  140.9330 C   0  0  0  0  0  2  0  0  0  0  0  0
  186.2090  178.6510  145.7980 O   0  0  0  0  0  0  0  0  0  0  0  0
  195.8750  175.1380  144.4140 C   0  0  2  0  0  3  0  0  0  0  0  0
  195.9580  174.6320  143.1170 O   0  0  0  0  0  1  0  0  0  0  0  0
  194.4920  173.4590  145.5670 C   0  0  0  0  0  3  0  0  0  0  0  0
  193.3220  175.4920  144.7410 C   0  0  1  0  0  3  0  0  0  0  0  0
  195.7020  174.0070  145.3910 C   0  0  0  0  0  0  0  0  0  0  0  0
  193.3370  173.9580  144.7540 C   0  0  0  0  0  2  0  0  0  0  0  0
  194.7100  176.1380  144.5030 C   0  0  1  0  0  3  0  0  0  0  0  0
  194.9670  177.0700  145.5090 O   0  0  0  0  0  1  0  0  0  0  0  0
  196.8570  173.5680  146.2290 C   0  0  0  0  0  2  0  0  0  0  0  0
  196.9820  172.1800  146.1790 O   0  0  0  0  0  1  0  0  0  0  0  0
  190.5210  176.8120  147.6470 O   0  0  0  0  0  1  0  0  0  0  0  0
  189.5880  177.4500  146.8280 C   0  0  0  0  0  2  0  0  0  0  0  0
  1  3  1  1  0  0  0
  1  4  1  0  0  0  0
  1 16  1  0  0  0  0
  2  6  1  0  0  0  0
  4  2  1  0  0  0  0
  5 11  1  0  0  0  0
  5  2  1  0  0  0  0
  6 17  1  0  0  0  0
  7 20  2  0  0  0  0
  8  7  2  0  0  0  0
  8 17  1  0  0  0  0
  9  5  1  0  0  0  0
 10  4  1  0  0  0  0
 11  8  1  0  0  0  0
 12 10  1  0  0  0  0
 13 10  1  0  0  0  0
 14  6  1  0  0  0  0
 15  9  1  0  0  0  0
 16 14  1  0  0  0  0
 16 24  1  0  0  0  0
 17 32  1  0  0  0  0
 18  9  1  0  0  0  0
 18 12  1  0  0  0  0
 19 13  1  0  0  0  0
 19  3  1  0  0  0  0
 21 27  1  0  0  0  0
 21 25  1  0  0  0  0
 22 21  1  0  0  0  0
 24 26  1  0  0  0  0
 25 23  2  0  0  0  0
 25 29  1  0  0  0  0
 26 23  1  0  0  0  0
 27 24  1  0  0  0  0
 27 28  1  0  0  0  0
 30 29  1  0  0  0  0
 32 31  1  0  0  0  0
M  END
>  <MODEL>
8

>  <REMARK>
 VINA RESULT:      -7.2      3.842      6.036
  Name = 
  3 active torsions:
  status: ('A' for Active; 'I' for Inactive)
    1  A    between atoms: C_7  and  C_19
    2  A    between atoms: C_16  and  C_27
    3  A    between atoms: C_28  and  C_32
                            x       y       z     vdW  Elec       q    Type
                         _______ _______ _______ _____ _____    ______ ____

>  <TORSDO>
F 3

$$$$
=
 OpenBabel11052419053D

 32 36  0  0  1  0  0  0  0  0999 V2000
  190.2710  175.0670  144.6560 C   0  0  1  0  0  3  0  0  0  0  0  0
  190.3800  175.4300  142.2270 N   0  0  2  0  0  0  0  0  0  0  0  0
  190.2650  175.7280  146.0230 C   0  0  0  0  0  2  0  0  0  0  0  0
  190.5760  176.0590  143.5380 C   0  0  1  0  0  3  0  0  0  0  0  0
  189.0430  174.8160  142.0540 C   0  0  1  0  0  3  0  0  0  0  0  0
  191.3810  174.3550  142.1180 C   0  0  1  0  0  3  0  0  0  0  0  0
  189.7960  172.8090  139.0850 C   0  0  0  0  0  0  0  0  0  0  0  0
  189.9710  173.4890  140.1870 C   0  0  0  0  0  0  0  0  0  0  0  0
  187.8630  175.6120  142.6420 C   0  0  2  0  0  3  0  0  0  0  0  0
  189.8920  177.4340  143.6580 C   0  0  1  0  0  3  0  0  0  0  0  0
  188.8500  174.3980  140.6040 C   0  0  0  0  0  2  0  0  0  0  0  0
  189.0350  177.9000  142.4760 C   0  0  0  0  0  2  0  0  0  0  0  0
  189.4810  177.9150  145.0560 C   0  0  0  0  0  2  0  0  0  0  0  0
  191.1700  173.3050  143.1410 N   0  0  0  0  0  2  0  0  0  0  0  0
  186.6650  174.9670  142.3980 F   0  0  0  0  0  0  0  0  0  0  0  0
  191.1960  173.8510  144.5130 C   0  0  1  0  0  3  0  0  0  0  0  0
  191.3780  173.7710  140.6910 C   0  0  2  0  0  3  0  0  0  0  0  0
  187.7710  177.0760  142.2200 C   0  0  0  0  0  2  0  0  0  0  0  0
  189.1580  176.7760  146.0230 C   0  0  0  0  0  2  0  0  0  0  0  0
  189.6310  172.1660  138.0420 O   0  0  0  0  0  0  0  0  0  0  0  0
  194.8360  174.7860  143.9230 C   0  0  2  0  0  3  0  0  0  0  0  0
  194.7780  174.1600  142.6770 O   0  0  0  0  0  1  0  0  0  0  0  0
  194.7890  172.8860  145.4890 C   0  0  0  0  0  3  0  0  0  0  0  0
  192.6240  174.0310  145.0590 C   0  0  1  0  0  3  0  0  0  0  0  0
  195.4960  173.8720  144.9200 C   0  0  0  0  0  0  0  0  0  0  0  0
  193.3590  172.6850  145.0900 C   0  0  0  0  0  2  0  0  0  0  0  0
  193.4170  175.1720  144.3710 C   0  0  1  0  0  3  0  0  0  0  0  0
  193.4770  176.2740  145.2250 O   0  0  0  0  0  1  0  0  0  0  0  0
  196.9040  174.1300  145.3430 C   0  0  0  0  0  2  0  0  0  0  0  0
  197.1910  173.4170  146.5070 O   0  0  0  0  0  1  0  0  0  0  0  0
  193.3660  172.8480  139.7200 O   0  0  0  0  0  1  0  0  0  0  0  0
  192.3180  172.5690  140.5980 C   0  0  0  0  0  2  0  0  0  0  0  0
  1  3  1  1  0  0  0
  2  4  1  0  0  0  0
  4 10  1  0  0  0  0
  4  1  1  0  0  0  0
  5  2  1  0  0  0  0
  5  9  1  0  0  0  0
  6  2  1  0  0  0  0
  6 14  1  0  0  0  0
  7  8  2  0  0  0  0
  8 11  1  0  0  0  0
  8 17  1  0  0  0  0
 10 13  1  0  0  0  0
 11  5  1  0  0  0  0
 12 10  1  0  0  0  0
 13 19  1  0  0  0  0
 14 16  1  0  0  0  0
 15  9  1  0  0  0  0
 16  1  1  0  0  0  0
 16 24  1  0  0  0  0
 17  6  1  0  0  0  0
 18 12  1  0  0  0  0
 18  9  1  0  0  0  0
 19  3  1  0  0  0  0
 20  7  2  0  0  0  0
 21 27  1  0  0  0  0
 21 25  1  0  0  0  0
 22 21  1  0  0  0  0
 24 26  1  0  0  0  0
 25 29  1  0  0  0  0
 25 23  2  0  0  0  0
 26 23  1  0  0  0  0
 27 24  1  0  0  0  0
 27 28  1  0  0  0  0
 29 30  1  0  0  0  0
 31 32  1  0  0  0  0
 32 17  1  0  0  0  0
M  END
>  <MODEL>
9

>  <REMARK>
 VINA RESULT:      -7.1      3.591      6.679
  Name = 
  3 active torsions:
  status: ('A' for Active; 'I' for Inactive)
    1  A    between atoms: C_7  and  C_19
    2  A    between atoms: C_16  and  C_27
    3  A    between atoms: C_28  and  C_32
                            x       y       z     vdW  Elec       q    Type
                         _______ _______ _______ _____ _____    ______ ____

>  <TORSDO>
F 3

$$$$
