=
 OpenBabel11052421073D

 43 48  0  0  1  0  0  0  0  0999 V2000
  185.0230  177.9610  146.8700 C   0  0  0  0  0  0  0  0  0  0  0  0
  187.6850  176.0770  143.0530 C   0  0  0  0  0  0  0  0  0  0  0  0
  185.7890  177.3080  144.6680 C   0  0  0  0  0  0  0  0  0  0  0  0
  186.1560  177.3760  147.4460 C   0  0  0  0  0  3  0  0  0  0  0  0
  184.1010  178.5630  147.6580 F   0  0  0  0  0  0  0  0  0  0  0  0
  186.9400  176.7180  145.2510 C   0  0  0  0  0  0  0  0  0  0  0  0
  184.8390  177.9270  145.4840 C   0  0  0  0  0  3  0  0  0  0  0  0
  187.1140  176.7550  146.6400 C   0  0  0  0  0  3  0  0  0  0  0  0
  189.1300  175.3950  144.7710 C   0  0  0  0  0  2  0  0  0  0  0  0
  187.8730  176.1070  144.4080 C   0  0  0  0  0  0  0  0  0  0  0  0
  186.5570  176.6430  142.4530 C   0  0  0  0  0  3  0  0  0  0  0  0
  188.7370  175.4000  142.3940 N   0  0  0  0  0  0  0  0  0  0  0  0
  189.6810  174.9240  143.4080 C   0  0  1  0  0  3  0  0  0  0  0  0
  185.6050  177.2650  143.2740 C   0  0  0  0  0  3  0  0  0  0  0  0
  191.0780  176.7320  142.5680 O   0  0  0  0  0  1  0  0  0  0  0  0
  191.0910  175.4860  143.2050 C   0  0  2  0  0  3  0  0  0  0  0  0
  191.9410  174.4980  142.4140 C   0  0  0  0  0  2  0  0  0  0  0  0
  193.2350  175.1380  141.9270 C   0  0  0  0  0  2  0  0  0  0  0  0
  194.3510  174.1090  141.8930 C   0  0  2  0  0  3  0  0  0  0  0  0
  193.8200  172.7290  142.2350 C   0  0  0  0  0  1  0  0  0  0  0  0
  195.5660  174.4910  142.7580 C   0  0  0  0  0  2  0  0  0  0  0  0
  195.5640  174.0190  144.2230 C   0  0  2  0  0  3  0  0  0  0  0  0
  193.1010  175.6630  146.6660 N   0  0  0  0  0  0  0  0  0  0  0  0
  193.6750  174.6860  145.7880 C   0  0  0  0  0  0  0  0  0  0  0  0
  194.8900  174.9760  145.0910 N   0  0  0  0  0  2  0  0  0  0  0  0
  193.7820  176.9230  146.9130 C   0  0  0  0  0  1  0  0  0  0  0  0
  193.1020  173.5740  145.6190 O   0  0  0  0  0  0  0  0  0  0  0  0
  191.8160  175.4260  147.3130 C   0  0  0  0  0  2  0  0  0  0  0  0
  191.3430  176.6780  148.0350 C   0  0  0  0  0  2  0  0  0  0  0  0
  189.9690  178.3280  148.0530 F   0  0  0  0  0  0  0  0  0  0  0  0
  190.3160  177.2880  147.3150 O   0  0  0  0  0  0  0  0  0  0  0  0
  196.9610  173.5970  146.2390 C   0  0  0  0  0  2  0  0  0  0  0  0
  196.9720  173.7320  144.7290 C   0  0  0  0  0  3  0  0  0  0  0  0
  197.0140  172.3590  145.3710 C   0  0  0  0  0  2  0  0  0  0  0  0
  188.5790  174.7310  141.1090 C   0  0  0  0  0  2  0  0  0  0  0  0
  188.3280  173.2480  141.3240 C   0  0  0  0  0  2  0  0  0  0  0  0
  190.7690  171.7310  138.9880 C   0  0  1  0  0  3  0  0  0  0  0  0
  190.7320  171.0520  140.1710 N   0  0  0  0  0  0  0  0  0  0  0  0
  190.4460  170.4090  138.8180 C   0  0  0  0  0  0  0  0  0  0  0  0
  189.6650  172.6160  139.3600 N   0  0  0  0  0  0  0  0  0  0  0  0
  189.3860  172.4520  140.6480 C   0  0  0  0  0  0  0  0  0  0  0  0
  189.9100  169.4710  138.1120 N   0  0  0  0  0  2  0  0  0  0  0  0
  190.1280  171.4160  141.3480 N   0  0  0  0  0  2  0  0  0  0  0  0
  1  4  1  0  0  0  0
  1  5  1  0  0  0  0
  2 10  1  0  0  0  0
  3  6  1  0  0  0  0
  3  7  1  0  0  0  0
  6  8  1  0  0  0  0
  7  1  2  0  0  0  0
  8  4  2  0  0  0  0
 10  9  1  0  0  0  0
 10  6  2  0  0  0  0
 11  2  2  0  0  0  0
 11 14  1  0  0  0  0
 12  2  1  0  0  0  0
 12 13  1  0  0  0  0
 13 16  1  6  0  0  0
 13  9  1  0  0  0  0
 14  3  2  0  0  0  0
 16 15  1  6  0  0  0
 17 16  1  0  0  0  0
 18 17  1  0  0  0  0
 19 18  1  0  0  0  0
 19 20  1  1  0  0  0
 19 21  1  0  0  0  0
 22 21  1  6  0  0  0
 22 33  1  0  0  0  0
 22 25  1  0  0  0  0
 23 26  1  0  0  0  0
 23 28  1  0  0  0  0
 24 23  1  0  0  0  0
 25 24  1  0  0  0  0
 27 24  2  0  0  0  0
 28 29  1  0  0  0  0
 31 29  1  0  0  0  0
 31 30  1  0  0  0  0
 33 34  1  0  0  0  0
 33 32  1  0  0  0  0
 34 32  1  0  0  0  0
 35 36  1  0  0  0  0
 35 12  1  0  0  0  0
 37 39  1  6  0  0  0
 37 40  1  0  0  0  0
 37 38  1  0  0  0  0
 38 43  1  0  0  0  0
 39 38  1  0  0  0  0
 40 41  2  0  0  0  0
 41 36  1  0  0  0  0
 41 43  1  0  0  0  0
 42 39  2  0  0  0  0
M  END
>  <MODEL>
1

>  <REMARK>
 VINA RESULT:      -7.3      0.000      0.000
  Name = 
  14 active torsions:
  status: ('A' for Active; 'I' for Inactive)
    1  A    between atoms: C_1  and  C_28
    2  A    between atoms: C_1  and  N_34
    3  A    between atoms: C_2  and  C_6
    4  A    between atoms: C_2  and  C_13
    5  A    between atoms: C_3  and  C_4
    6  A    between atoms: C_3  and  C_12
    7  A    between atoms: C_4  and  C_15
    8  A    between atoms: C_4  and  N_22
    9  A    between atoms: C_6  and  C_12
   10  A    between atoms: N_11  and  C_40
   11  A    between atoms: C_13  and  C_38
   12  A    between atoms: C_26  and  O_31
   13  A    between atoms: C_26  and  C_40
   14  A    between atoms: C_28  and  C_35
                            x       y       z     vdW  Elec       q    Type
                         _______ _______ _______ _____ _____    ______ ____

>  <TORSDO>
F 14

$$$$
=
 OpenBabel11052421073D

 43 48  0  0  1  0  0  0  0  0999 V2000
  185.7620  177.7290  145.7570 C   0  0  0  0  0  0  0  0  0  0  0  0
  190.3370  175.6780  146.0010 C   0  0  0  0  0  0  0  0  0  0  0  0
  187.6980  176.4360  146.4200 C   0  0  0  0  0  0  0  0  0  0  0  0
  186.4770  178.2620  144.6780 C   0  0  0  0  0  3  0  0  0  0  0  0
  184.4740  178.0980  145.9590 F   0  0  0  0  0  0  0  0  0  0  0  0
  188.4220  176.9730  145.3250 C   0  0  0  0  0  0  0  0  0  0  0  0
  186.3700  176.8190  146.6270 C   0  0  0  0  0  3  0  0  0  0  0  0
  187.8060  177.8850  144.4610 C   0  0  0  0  0  3  0  0  0  0  0  0
  190.7220  177.0070  144.1050 C   0  0  0  0  0  2  0  0  0  0  0  0
  189.7490  176.5690  145.1450 C   0  0  0  0  0  0  0  0  0  0  0  0
  189.6500  175.1420  147.0930 C   0  0  0  0  0  3  0  0  0  0  0  0
  191.6820  175.4210  145.6450 N   0  0  0  0  0  0  0  0  0  0  0  0
  192.0070  176.2330  144.4700 C   0  0  1  0  0  3  0  0  0  0  0  0
  188.3160  175.5270  147.2970 C   0  0  0  0  0  3  0  0  0  0  0  0
  191.7380  175.6950  142.1110 O   0  0  0  0  0  1  0  0  0  0  0  0
  192.4480  175.3820  143.2750 C   0  0  2  0  0  3  0  0  0  0  0  0
  192.2990  173.9010  143.6040 C   0  0  0  0  0  2  0  0  0  0  0  0
  191.3490  173.2070  142.6340 C   0  0  0  0  0  2  0  0  0  0  0  0
  189.9320  173.2310  143.1790 C   0  0  2  0  0  3  0  0  0  0  0  0
  189.8180  172.3690  144.4220 C   0  0  0  0  0  1  0  0  0  0  0  0
  188.8650  172.8740  142.1290 C   0  0  0  0  0  2  0  0  0  0  0  0
  188.5440  173.9360  141.0610 C   0  0  2  0  0  3  0  0  0  0  0  0
  190.0820  173.8320  137.5450 N   0  0  0  0  0  0  0  0  0  0  0  0
  189.0900  173.8300  138.5810 C   0  0  0  0  0  0  0  0  0  0  0  0
  189.4900  173.8820  139.9530 N   0  0  0  0  0  2  0  0  0  0  0  0
  191.4920  173.9590  137.8750 C   0  0  0  0  0  1  0  0  0  0  0  0
  187.8650  173.7700  138.2830 O   0  0  0  0  0  0  0  0  0  0  0  0
  189.7020  173.6850  136.1450 C   0  0  0  0  0  2  0  0  0  0  0  0
  189.4910  175.0470  135.5040 C   0  0  0  0  0  2  0  0  0  0  0  0
  188.0740  176.6340  135.8030 F   0  0  0  0  0  0  0  0  0  0  0  0
  188.1310  175.3560  135.4690 O   0  0  0  0  0  0  0  0  0  0  0  0
  187.5620  176.2110  140.8310 C   0  0  0  0  0  2  0  0  0  0  0  0
  188.4900  175.3390  141.6530 C   0  0  0  0  0  3  0  0  0  0  0  0
  187.0850  175.6320  142.1440 C   0  0  0  0  0  2  0  0  0  0  0  0
  192.6980  175.0020  146.6010 C   0  0  0  0  0  2  0  0  0  0  0  0
  193.8490  175.9940  146.6040 C   0  0  0  0  0  2  0  0  0  0  0  0
  196.5860  175.4800  144.1630 C   0  0  1  0  0  3  0  0  0  0  0  0
  196.2650  174.3150  144.7950 N   0  0  0  0  0  0  0  0  0  0  0  0
  196.2060  174.5000  143.2820 C   0  0  0  0  0  0  0  0  0  0  0  0
  195.4990  176.2270  144.7960 N   0  0  0  0  0  0  0  0  0  0  0  0
  194.9580  175.4850  145.7560 C   0  0  0  0  0  0  0  0  0  0  0  0
  195.7530  174.1490  142.1260 N   0  0  0  0  0  2  0  0  0  0  0  0
  195.4680  174.1310  145.8960 N   0  0  0  0  0  2  0  0  0  0  0  0
  1  5  1  0  0  0  0
  1  7  1  0  0  0  0
  2 11  1  0  0  0  0
  3  7  2  0  0  0  0
  3 14  1  0  0  0  0
  4  1  2  0  0  0  0
  6  3  1  0  0  0  0
  8  4  1  0  0  0  0
  8  6  2  0  0  0  0
  9 13  1  0  0  0  0
  9 10  1  0  0  0  0
 10  6  1  0  0  0  0
 10  2  2  0  0  0  0
 11 14  2  0  0  0  0
 12  2  1  0  0  0  0
 12 35  1  0  0  0  0
 13 16  1  6  0  0  0
 13 12  1  0  0  0  0
 16 15  1  6  0  0  0
 16 17  1  0  0  0  0
 18 19  1  0  0  0  0
 18 17  1  0  0  0  0
 19 20  1  1  0  0  0
 21 19  1  0  0  0  0
 22 33  1  0  0  0  0
 22 21  1  1  0  0  0
 23 26  1  0  0  0  0
 23 24  1  0  0  0  0
 24 25  1  0  0  0  0
 25 22  1  0  0  0  0
 27 24  2  0  0  0  0
 28 23  1  0  0  0  0
 29 28  1  0  0  0  0
 31 29  1  0  0  0  0
 31 30  1  0  0  0  0
 32 33  1  0  0  0  0
 32 34  1  0  0  0  0
 33 34  1  0  0  0  0
 35 36  1  0  0  0  0
 37 39  1  6  0  0  0
 37 38  1  0  0  0  0
 37 40  1  0  0  0  0
 38 43  1  0  0  0  0
 39 38  1  0  0  0  0
 40 41  2  0  0  0  0
 41 43  1  0  0  0  0
 41 36  1  0  0  0  0
 42 39  2  0  0  0  0
M  END
>  <MODEL>
2

>  <REMARK>
 VINA RESULT:      -7.2      3.036      7.210
  Name = 
  14 active torsions:
  status: ('A' for Active; 'I' for Inactive)
    1  A    between atoms: C_1  and  C_28
    2  A    between atoms: C_1  and  N_34
    3  A    between atoms: C_2  and  C_6
    4  A    between atoms: C_2  and  C_13
    5  A    between atoms: C_3  and  C_4
    6  A    between atoms: C_3  and  C_12
    7  A    between atoms: C_4  and  C_15
    8  A    between atoms: C_4  and  N_22
    9  A    between atoms: C_6  and  C_12
   10  A    between atoms: N_11  and  C_40
   11  A    between atoms: C_13  and  C_38
   12  A    between atoms: C_26  and  O_31
   13  A    between atoms: C_26  and  C_40
   14  A    between atoms: C_28  and  C_35
                            x       y       z     vdW  Elec       q    Type
                         _______ _______ _______ _____ _____    ______ ____

>  <TORSDO>
F 14

$$$$
=
 OpenBabel11052421073D

 43 48  0  0  1  0  0  0  0  0999 V2000
  189.1490  172.6770  140.2170 C   0  0  0  0  0  0  0  0  0  0  0  0
  191.3210  175.4910  143.7620 C   0  0  0  0  0  0  0  0  0  0  0  0
  190.6790  174.0920  141.4490 C   0  0  0  0  0  0  0  0  0  0  0  0
  188.2710  172.6640  141.3060 C   0  0  0  0  0  3  0  0  0  0  0  0
  188.8340  171.9960  139.0890 F   0  0  0  0  0  0  0  0  0  0  0  0
  189.7870  174.0830  142.5530 C   0  0  0  0  0  0  0  0  0  0  0  0
  190.3520  173.3880  140.2880 C   0  0  0  0  0  3  0  0  0  0  0  0
  188.5870  173.3660  142.4730 C   0  0  0  0  0  3  0  0  0  0  0  0
  189.4050  174.9170  144.9890 C   0  0  0  0  0  2  0  0  0  0  0  0
  190.1430  174.7980  143.7000 C   0  0  0  0  0  0  0  0  0  0  0  0
  192.2220  175.5100  142.6940 C   0  0  0  0  0  3  0  0  0  0  0  0
  191.4880  176.1270  145.0140 N   0  0  0  0  0  0  0  0  0  0  0  0
  190.3320  175.8010  145.8510 C   0  0  1  0  0  3  0  0  0  0  0  0
  191.8900  174.8030  141.5280 C   0  0  0  0  0  3  0  0  0  0  0  0
  190.0800  177.5780  147.4970 O   0  0  0  0  0  1  0  0  0  0  0  0
  189.5690  177.0480  146.3070 C   0  0  2  0  0  3  0  0  0  0  0  0
  188.0870  176.7280  146.4640 C   0  0  0  0  0  2  0  0  0  0  0  0
  187.2160  177.9330  146.1300 C   0  0  0  0  0  2  0  0  0  0  0  0
  185.8550  177.4780  145.6320 C   0  0  2  0  0  3  0  0  0  0  0  0
  185.1190  176.7060  146.7110 C   0  0  0  0  0  1  0  0  0  0  0  0
  185.9170  176.7000  144.3050 C   0  0  0  0  0  2  0  0  0  0  0  0
  186.2440  177.5020  143.0330 C   0  0  2  0  0  3  0  0  0  0  0  0
  182.8230  178.1970  141.4360 N   0  0  0  0  0  0  0  0  0  0  0  0
  183.8710  178.1680  142.4150 C   0  0  0  0  0  0  0  0  0  0  0  0
  185.1140  177.5290  142.1130 N   0  0  0  0  0  2  0  0  0  0  0  0
  183.0400  177.6450  140.1090 C   0  0  0  0  0  1  0  0  0  0  0  0
  183.6910  178.6940  143.5480 O   0  0  0  0  0  0  0  0  0  0  0  0
  181.5160  178.7590  141.7540 C   0  0  0  0  0  2  0  0  0  0  0  0
  180.6060  178.7140  140.5370 C   0  0  0  0  0  2  0  0  0  0  0  0
  178.9610  177.4040  140.9790 F   0  0  0  0  0  0  0  0  0  0  0  0
  179.2700  178.6890  140.9380 O   0  0  0  0  0  0  0  0  0  0  0  0
  187.9320  177.9490  141.2590 C   0  0  0  0  0  2  0  0  0  0  0  0
  187.4930  176.9760  142.3350 C   0  0  0  0  0  3  0  0  0  0  0  0
  188.6540  177.9170  142.5890 C   0  0  0  0  0  2  0  0  0  0  0  0
  192.7910  176.4450  145.5830 C   0  0  0  0  0  2  0  0  0  0  0  0
  193.2620  175.3040  146.4700 C   0  0  0  0  0  2  0  0  0  0  0  0
  194.8180  172.4810  144.6470 C   0  0  1  0  0  3  0  0  0  0  0  0
  195.6870  173.5240  144.7740 N   0  0  0  0  0  0  0  0  0  0  0  0
  195.9680  172.1200  145.3020 C   0  0  0  0  0  0  0  0  0  0  0  0
  193.7900  173.1220  145.4680 N   0  0  0  0  0  0  0  0  0  0  0  0
  194.1340  174.3850  145.6930 C   0  0  0  0  0  0  0  0  0  0  0  0
  196.5980  171.3280  146.1010 N   0  0  0  0  0  2  0  0  0  0  0  0
  195.4310  174.8060  145.1880 N   0  0  0  0  0  2  0  0  0  0  0  0
  1  7  2  0  0  0  0
  1  4  1  0  0  0  0
  2 12  1  0  0  0  0
  3 14  2  0  0  0  0
  3  6  1  0  0  0  0
  4  8  2  0  0  0  0
  5  1  1  0  0  0  0
  6 10  2  0  0  0  0
  7  3  1  0  0  0  0
  8  6  1  0  0  0  0
  9 13  1  0  0  0  0
 10  2  1  0  0  0  0
 10  9  1  0  0  0  0
 11  2  2  0  0  0  0
 12 35  1  0  0  0  0
 12 13  1  0  0  0  0
 13 16  1  6  0  0  0
 14 11  1  0  0  0  0
 16 17  1  0  0  0  0
 16 15  1  1  0  0  0
 18 17  1  0  0  0  0
 19 18  1  0  0  0  0
 19 20  1  1  0  0  0
 21 19  1  0  0  0  0
 22 21  1  1  0  0  0
 23 28  1  0  0  0  0
 23 24  1  0  0  0  0
 24 27  2  0  0  0  0
 25 24  1  0  0  0  0
 25 22  1  0  0  0  0
 26 23  1  0  0  0  0
 29 31  1  0  0  0  0
 29 28  1  0  0  0  0
 31 30  1  0  0  0  0
 32 33  1  0  0  0  0
 32 34  1  0  0  0  0
 33 34  1  0  0  0  0
 33 22  1  0  0  0  0
 35 36  1  0  0  0  0
 37 38  1  0  0  0  0
 37 39  1  1  0  0  0
 37 40  1  0  0  0  0
 38 43  1  0  0  0  0
 38 39  1  0  0  0  0
 39 42  2  0  0  0  0
 40 41  2  0  0  0  0
 41 36  1  0  0  0  0
 43 41  1  0  0  0  0
M  END
>  <MODEL>
3

>  <REMARK>
 VINA RESULT:      -7.1      3.777      8.812
  Name = 
  14 active torsions:
  status: ('A' for Active; 'I' for Inactive)
    1  A    between atoms: C_1  and  C_28
    2  A    between atoms: C_1  and  N_34
    3  A    between atoms: C_2  and  C_6
    4  A    between atoms: C_2  and  C_13
    5  A    between atoms: C_3  and  C_4
    6  A    between atoms: C_3  and  C_12
    7  A    between atoms: C_4  and  C_15
    8  A    between atoms: C_4  and  N_22
    9  A    between atoms: C_6  and  C_12
   10  A    between atoms: N_11  and  C_40
   11  A    between atoms: C_13  and  C_38
   12  A    between atoms: C_26  and  O_31
   13  A    between atoms: C_26  and  C_40
   14  A    between atoms: C_28  and  C_35
                            x       y       z     vdW  Elec       q    Type
                         _______ _______ _______ _____ _____    ______ ____

>  <TORSDO>
F 14

$$$$
=
 OpenBabel11052421073D

 43 48  0  0  1  0  0  0  0  0999 V2000
  184.3280  178.6440  145.2890 C   0  0  0  0  0  0  0  0  0  0  0  0
  188.9490  176.8220  146.0150 C   0  0  0  0  0  0  0  0  0  0  0  0
  186.2640  177.5120  146.2000 C   0  0  0  0  0  0  0  0  0  0  0  0
  185.0870  179.0850  144.2000 C   0  0  0  0  0  3  0  0  0  0  0  0
  183.0180  178.9800  145.3770 F   0  0  0  0  0  0  0  0  0  0  0  0
  187.0340  177.9560  145.0940 C   0  0  0  0  0  0  0  0  0  0  0  0
  184.9140  177.8600  146.2880 C   0  0  0  0  0  3  0  0  0  0  0  0
  186.4390  178.7420  144.1010 C   0  0  0  0  0  3  0  0  0  0  0  0
  189.4010  177.9510  144.0080 C   0  0  0  0  0  2  0  0  0  0  0  0
  188.3830  177.5890  145.0330 C   0  0  0  0  0  0  0  0  0  0  0  0
  188.2160  176.3800  147.1190 C   0  0  0  0  0  3  0  0  0  0  0  0
  190.3200  176.5830  145.7650 N   0  0  0  0  0  0  0  0  0  0  0  0
  190.6880  177.2750  144.5280 C   0  0  1  0  0  3  0  0  0  0  0  0
  186.8600  176.7290  147.2050 C   0  0  0  0  0  3  0  0  0  0  0  0
  192.3230  176.8540  142.7740 O   0  0  0  0  0  1  0  0  0  0  0  0
  191.2280  176.3180  143.4610 C   0  0  2  0  0  3  0  0  0  0  0  0
  190.1210  175.9440  142.4830 C   0  0  0  0  0  2  0  0  0  0  0  0
  189.6250  174.5220  142.7170 C   0  0  0  0  0  2  0  0  0  0  0  0
  188.7380  174.0780  141.5670 C   0  0  2  0  0  3  0  0  0  0  0  0
  187.9210  172.8600  141.9570 C   0  0  0  0  0  1  0  0  0  0  0  0
  189.5040  173.8620  140.2500 C   0  0  0  0  0  2  0  0  0  0  0  0
  190.8070  173.0460  140.3180 C   0  0  2  0  0  3  0  0  0  0  0  0
  194.1670  174.8410  139.8400 N   0  0  0  0  0  0  0  0  0  0  0  0
  193.0820  174.1660  140.4920 C   0  0  0  0  0  0  0  0  0  0  0  0
  191.9270  173.7800  139.7420 N   0  0  0  0  0  2  0  0  0  0  0  0
  194.1350  175.0730  138.4060 C   0  0  0  0  0  1  0  0  0  0  0  0
  193.1410  173.9240  141.7290 O   0  0  0  0  0  0  0  0  0  0  0  0
  195.3110  175.3270  140.6010 C   0  0  0  0  0  2  0  0  0  0  0  0
  196.4990  174.3920  140.4350 C   0  0  0  0  0  2  0  0  0  0  0  0
  196.9360  175.6310  142.1340 F   0  0  0  0  0  0  0  0  0  0  0  0
  197.4340  174.6190  141.4450 O   0  0  0  0  0  0  0  0  0  0  0  0
  191.9670  170.9200  139.7430 C   0  0  0  0  0  2  0  0  0  0  0  0
  190.6600  171.6830  139.6540 C   0  0  0  0  0  3  0  0  0  0  0  0
  190.8350  170.5890  140.6910 C   0  0  0  0  0  2  0  0  0  0  0  0
  191.2910  176.3120  146.8180 C   0  0  0  0  0  2  0  0  0  0  0  0
  191.9080  174.9380  146.6120 C   0  0  0  0  0  2  0  0  0  0  0  0
  195.1280  174.6290  144.8090 C   0  0  1  0  0  3  0  0  0  0  0  0
  195.2000  175.5780  145.7860 N   0  0  0  0  0  0  0  0  0  0  0  0
  196.1150  174.3590  145.7230 C   0  0  0  0  0  0  0  0  0  0  0  0
  193.7770  174.2140  145.1880 N   0  0  0  0  0  0  0  0  0  0  0  0
  193.2850  175.0780  146.0690 C   0  0  0  0  0  0  0  0  0  0  0  0
  196.9050  173.5180  146.3010 N   0  0  0  0  0  2  0  0  0  0  0  0
  194.1800  176.1310  146.5180 N   0  0  0  0  0  2  0  0  0  0  0  0
  1  5  1  0  0  0  0
  1  7  1  0  0  0  0
  2 11  1  0  0  0  0
  3  7  2  0  0  0  0
  3 14  1  0  0  0  0
  4  1  2  0  0  0  0
  6  3  1  0  0  0  0
  8  4  1  0  0  0  0
  8  6  2  0  0  0  0
  9 13  1  0  0  0  0
  9 10  1  0  0  0  0
 10  6  1  0  0  0  0
 10  2  2  0  0  0  0
 11 14  2  0  0  0  0
 12  2  1  0  0  0  0
 12 35  1  0  0  0  0
 13 16  1  6  0  0  0
 13 12  1  0  0  0  0
 16 15  1  6  0  0  0
 17 18  1  0  0  0  0
 17 16  1  0  0  0  0
 19 20  1  1  0  0  0
 19 18  1  0  0  0  0
 21 19  1  0  0  0  0
 22 21  1  6  0  0  0
 23 24  1  0  0  0  0
 23 28  1  0  0  0  0
 24 27  2  0  0  0  0
 25 22  1  0  0  0  0
 25 24  1  0  0  0  0
 26 23  1  0  0  0  0
 29 28  1  0  0  0  0
 29 31  1  0  0  0  0
 31 30  1  0  0  0  0
 32 34  1  0  0  0  0
 33 32  1  0  0  0  0
 33 22  1  0  0  0  0
 33 34  1  0  0  0  0
 36 35  1  0  0  0  0
 37 40  1  1  0  0  0
 37 39  1  0  0  0  0
 37 38  1  0  0  0  0
 38 43  1  0  0  0  0
 39 38  1  0  0  0  0
 39 42  2  0  0  0  0
 40 41  2  0  0  0  0
 41 43  1  0  0  0  0
 41 36  1  0  0  0  0
M  END
>  <MODEL>
4

>  <REMARK>
 VINA RESULT:      -7.1      2.549      6.211
  Name = 
  14 active torsions:
  status: ('A' for Active; 'I' for Inactive)
    1  A    between atoms: C_1  and  C_28
    2  A    between atoms: C_1  and  N_34
    3  A    between atoms: C_2  and  C_6
    4  A    between atoms: C_2  and  C_13
    5  A    between atoms: C_3  and  C_4
    6  A    between atoms: C_3  and  C_12
    7  A    between atoms: C_4  and  C_15
    8  A    between atoms: C_4  and  N_22
    9  A    between atoms: C_6  and  C_12
   10  A    between atoms: N_11  and  C_40
   11  A    between atoms: C_13  and  C_38
   12  A    between atoms: C_26  and  O_31
   13  A    between atoms: C_26  and  C_40
   14  A    between atoms: C_28  and  C_35
                            x       y       z     vdW  Elec       q    Type
                         _______ _______ _______ _____ _____    ______ ____

>  <TORSDO>
F 14

$$$$
=
 OpenBabel11052421073D

 43 48  0  0  1  0  0  0  0  0999 V2000
  184.6220  178.5730  144.6260 C   0  0  0  0  0  0  0  0  0  0  0  0
  189.1640  176.8580  145.9050 C   0  0  0  0  0  0  0  0  0  0  0  0
  186.4700  177.5260  145.7890 C   0  0  0  0  0  0  0  0  0  0  0  0
  185.4790  178.9500  143.5860 C   0  0  0  0  0  3  0  0  0  0  0  0
  183.3080  178.8980  144.5680 F   0  0  0  0  0  0  0  0  0  0  0  0
  187.3390  177.9050  144.7330 C   0  0  0  0  0  0  0  0  0  0  0  0
  185.1150  177.8640  145.7260 C   0  0  0  0  0  3  0  0  0  0  0  0
  186.8360  178.6170  143.6370 C   0  0  0  0  0  3  0  0  0  0  0  0
  189.7970  177.8560  143.8770 C   0  0  0  0  0  2  0  0  0  0  0  0
  188.6890  177.5510  144.8250 C   0  0  0  0  0  0  0  0  0  0  0  0
  188.3320  176.4810  146.9620 C   0  0  0  0  0  3  0  0  0  0  0  0
  190.5540  176.6190  145.8020 N   0  0  0  0  0  0  0  0  0  0  0  0
  191.0330  177.2320  144.5600 C   0  0  1  0  0  3  0  0  0  0  0  0
  186.9720  176.8200  146.8960 C   0  0  0  0  0  3  0  0  0  0  0  0
  192.8850  176.6740  143.0810 O   0  0  0  0  0  1  0  0  0  0  0  0
  191.6770  176.2120  143.6160 C   0  0  2  0  0  3  0  0  0  0  0  0
  190.7080  175.8490  142.4970 C   0  0  0  0  0  2  0  0  0  0  0  0
  189.8540  174.6420  142.8680 C   0  0  0  0  0  2  0  0  0  0  0  0
  188.7180  174.4760  141.8740 C   0  0  2  0  0  3  0  0  0  0  0  0
  187.4100  174.9700  142.4650 C   0  0  0  0  0  1  0  0  0  0  0  0
  188.5960  173.0480  141.3130 C   0  0  0  0  0  2  0  0  0  0  0  0
  189.3770  172.7280  140.0260 C   0  0  2  0  0  3  0  0  0  0  0  0
  192.7740  171.1110  140.7890 N   0  0  0  0  0  0  0  0  0  0  0  0
  191.3600  171.2400  140.5840 C   0  0  0  0  0  0  0  0  0  0  0  0
  190.7940  172.5220  140.2980 N   0  0  0  0  0  2  0  0  0  0  0  0
  193.6490  172.2620  140.6390 C   0  0  0  0  0  1  0  0  0  0  0  0
  190.6150  170.2250  140.6670 O   0  0  0  0  0  0  0  0  0  0  0  0
  193.3610  169.8330  141.1730 C   0  0  0  0  0  2  0  0  0  0  0  0
  194.0090  169.9350  142.5450 C   0  0  0  0  0  2  0  0  0  0  0  0
  192.3720  169.0810  143.6440 F   0  0  0  0  0  0  0  0  0  0  0  0
  193.0430  170.2130  143.5130 O   0  0  0  0  0  0  0  0  0  0  0  0
  190.1490  173.5720  137.8150 C   0  0  0  0  0  2  0  0  0  0  0  0
  189.1850  173.8020  138.9620 C   0  0  0  0  0  3  0  0  0  0  0  0
  188.6980  173.1640  137.6750 C   0  0  0  0  0  2  0  0  0  0  0  0
  191.4220  176.4300  146.9560 C   0  0  0  0  0  2  0  0  0  0  0  0
  192.0210  175.0330  146.9310 C   0  0  0  0  0  2  0  0  0  0  0  0
  195.0840  174.3980  144.9490 C   0  0  1  0  0  3  0  0  0  0  0  0
  195.2400  175.4820  145.7620 N   0  0  0  0  0  0  0  0  0  0  0  0
  196.1400  174.2510  145.8130 C   0  0  0  0  0  0  0  0  0  0  0  0
  193.7660  174.0700  145.4910 N   0  0  0  0  0  0  0  0  0  0  0  0
  193.3510  175.0650  146.2670 C   0  0  0  0  0  0  0  0  0  0  0  0
  196.9680  173.4930  146.4480 N   0  0  0  0  0  2  0  0  0  0  0  0
  194.2860  176.1570  146.4800 N   0  0  0  0  0  2  0  0  0  0  0  0
  1  7  1  0  0  0  0
  2 11  1  0  0  0  0
  3 14  1  0  0  0  0
  4  8  1  0  0  0  0
  4  1  2  0  0  0  0
  5  1  1  0  0  0  0
  6 10  1  0  0  0  0
  6  3  1  0  0  0  0
  7  3  2  0  0  0  0
  8  6  2  0  0  0  0
  9 13  1  0  0  0  0
  9 10  1  0  0  0  0
 10  2  2  0  0  0  0
 12  2  1  0  0  0  0
 12 35  1  0  0  0  0
 13 16  1  6  0  0  0
 13 12  1  0  0  0  0
 14 11  2  0  0  0  0
 16 15  1  6  0  0  0
 17 18  1  0  0  0  0
 17 16  1  0  0  0  0
 19 20  1  1  0  0  0
 19 18  1  0  0  0  0
 21 19  1  0  0  0  0
 22 25  1  0  0  0  0
 22 21  1  1  0  0  0
 23 28  1  0  0  0  0
 24 27  2  0  0  0  0
 24 23  1  0  0  0  0
 25 24  1  0  0  0  0
 26 23  1  0  0  0  0
 28 29  1  0  0  0  0
 29 31  1  0  0  0  0
 31 30  1  0  0  0  0
 32 33  1  0  0  0  0
 33 22  1  0  0  0  0
 34 32  1  0  0  0  0
 34 33  1  0  0  0  0
 36 35  1  0  0  0  0
 37 40  1  1  0  0  0
 37 38  1  0  0  0  0
 37 39  1  0  0  0  0
 38 39  1  0  0  0  0
 38 43  1  0  0  0  0
 39 42  2  0  0  0  0
 40 41  2  0  0  0  0
 41 43  1  0  0  0  0
 41 36  1  0  0  0  0
M  END
>  <MODEL>
5

>  <REMARK>
 VINA RESULT:      -7.0      2.605      6.653
  Name = 
  14 active torsions:
  status: ('A' for Active; 'I' for Inactive)
    1  A    between atoms: C_1  and  C_28
    2  A    between atoms: C_1  and  N_34
    3  A    between atoms: C_2  and  C_6
    4  A    between atoms: C_2  and  C_13
    5  A    between atoms: C_3  and  C_4
    6  A    between atoms: C_3  and  C_12
    7  A    between atoms: C_4  and  C_15
    8  A    between atoms: C_4  and  N_22
    9  A    between atoms: C_6  and  C_12
   10  A    between atoms: N_11  and  C_40
   11  A    between atoms: C_13  and  C_38
   12  A    between atoms: C_26  and  O_31
   13  A    between atoms: C_26  and  C_40
   14  A    between atoms: C_28  and  C_35
                            x       y       z     vdW  Elec       q    Type
                         _______ _______ _______ _____ _____    ______ ____

>  <TORSDO>
F 14

$$$$
=
 OpenBabel11052421073D

 43 48  0  0  1  0  0  0  0  0999 V2000
  184.3120  178.5080  145.7340 C   0  0  0  0  0  0  0  0  0  0  0  0
  188.8810  176.6290  144.8420 C   0  0  0  0  0  0  0  0  0  0  0  0
  186.4510  177.9720  144.7360 C   0  0  0  0  0  0  0  0  0  0  0  0
  184.6120  177.6960  146.8330 C   0  0  0  0  0  3  0  0  0  0  0  0
  183.1280  179.1640  145.6840 F   0  0  0  0  0  0  0  0  0  0  0  0
  186.7580  177.1510  145.8520 C   0  0  0  0  0  0  0  0  0  0  0  0
  185.2280  178.6450  144.6860 C   0  0  0  0  0  3  0  0  0  0  0  0
  185.8330  177.0170  146.8940 C   0  0  0  0  0  3  0  0  0  0  0  0
  188.5280  175.5550  146.8990 C   0  0  0  0  0  2  0  0  0  0  0  0
  187.9900  176.4900  145.8720 C   0  0  0  0  0  0  0  0  0  0  0  0
  188.6010  177.4240  143.7280 C   0  0  0  0  0  3  0  0  0  0  0  0
  190.0520  175.8650  145.0580 N   0  0  0  0  0  0  0  0  0  0  0  0
  189.9020  175.1450  146.3250 C   0  0  1  0  0  3  0  0  0  0  0  0
  187.3730  178.1010  143.6820 C   0  0  0  0  0  3  0  0  0  0  0  0
  191.1040  176.8760  147.5450 O   0  0  0  0  0  1  0  0  0  0  0  0
  191.0020  175.4970  147.3310 C   0  0  2  0  0  3  0  0  0  0  0  0
  192.3390  174.9340  146.8640 C   0  0  0  0  0  2  0  0  0  0  0  0
  193.3800  176.0340  146.6940 C   0  0  0  0  0  2  0  0  0  0  0  0
  194.5460  175.5310  145.8610 C   0  0  2  0  0  3  0  0  0  0  0  0
  194.9660  176.5730  144.8400 C   0  0  0  0  0  1  0  0  0  0  0  0
  194.2900  174.1580  145.2130 C   0  0  0  0  0  2  0  0  0  0  0  0
  195.5210  173.2920  144.8910 C   0  0  2  0  0  3  0  0  0  0  0  0
  196.8860  173.5300  141.3110 N   0  0  0  0  0  0  0  0  0  0  0  0
  196.7430  173.7780  142.7160 C   0  0  0  0  0  0  0  0  0  0  0  0
  195.7000  173.1340  143.4530 N   0  0  0  0  0  2  0  0  0  0  0  0
  196.0230  172.5720  140.6400 C   0  0  0  0  0  1  0  0  0  0  0  0
  197.5290  174.5730  143.3000 O   0  0  0  0  0  0  0  0  0  0  0  0
  197.8810  174.2460  140.5220 C   0  0  0  0  0  2  0  0  0  0  0  0
  197.4200  175.6680  140.2450 C   0  0  0  0  0  2  0  0  0  0  0  0
  195.3950  176.2810  140.6210 F   0  0  0  0  0  0  0  0  0  0  0  0
  196.1300  175.6600  139.7140 O   0  0  0  0  0  0  0  0  0  0  0  0
  196.3530  170.9470  144.8580 C   0  0  0  0  0  2  0  0  0  0  0  0
  195.4540  171.9330  145.5770 C   0  0  0  0  0  3  0  0  0  0  0  0
  196.8140  171.5840  146.1500 C   0  0  0  0  0  2  0  0  0  0  0  0
  190.8920  175.3650  143.9790 C   0  0  0  0  0  2  0  0  0  0  0  0
  190.8110  173.8480  143.9190 C   0  0  0  0  0  2  0  0  0  0  0  0
  189.4700  172.2730  140.8470 C   0  0  1  0  0  3  0  0  0  0  0  0
  188.7180  173.3500  141.2170 N   0  0  0  0  0  0  0  0  0  0  0  0
  189.4070  173.2250  139.8610 C   0  0  0  0  0  0  0  0  0  0  0  0
  190.4700  172.5010  141.8910 N   0  0  0  0  0  0  0  0  0  0  0  0
  190.0240  173.4300  142.7290 C   0  0  0  0  0  0  0  0  0  0  0  0
  189.8950  173.7670  138.7970 N   0  0  0  0  0  2  0  0  0  0  0  0
  188.7570  174.0580  142.3910 N   0  0  0  0  0  2  0  0  0  0  0  0
  1  4  1  0  0  0  0
  2 12  1  0  0  0  0
  2 10  1  0  0  0  0
  3  6  1  0  0  0  0
  4  8  2  0  0  0  0
  5  1  1  0  0  0  0
  6 10  2  0  0  0  0
  6  8  1  0  0  0  0
  7  3  1  0  0  0  0
  7  1  2  0  0  0  0
 10  9  1  0  0  0  0
 11  2  2  0  0  0  0
 12 13  1  0  0  0  0
 13  9  1  0  0  0  0
 13 16  1  1  0  0  0
 14 11  1  0  0  0  0
 14  3  2  0  0  0  0
 16 15  1  6  0  0  0
 17 16  1  0  0  0  0
 18 17  1  0  0  0  0
 19 20  1  6  0  0  0
 19 18  1  0  0  0  0
 21 19  1  0  0  0  0
 22 21  1  6  0  0  0
 22 33  1  0  0  0  0
 23 24  1  0  0  0  0
 24 27  2  0  0  0  0
 24 25  1  0  0  0  0
 25 22  1  0  0  0  0
 26 23  1  0  0  0  0
 28 23  1  0  0  0  0
 29 28  1  0  0  0  0
 31 29  1  0  0  0  0
 31 30  1  0  0  0  0
 32 33  1  0  0  0  0
 32 34  1  0  0  0  0
 33 34  1  0  0  0  0
 35 12  1  0  0  0  0
 36 35  1  0  0  0  0
 37 39  1  6  0  0  0
 37 38  1  0  0  0  0
 37 40  1  0  0  0  0
 38 43  1  0  0  0  0
 39 38  1  0  0  0  0
 40 41  2  0  0  0  0
 41 36  1  0  0  0  0
 42 39  2  0  0  0  0
 43 41  1  0  0  0  0
M  END
>  <MODEL>
6

>  <REMARK>
 VINA RESULT:      -6.9      2.543      4.396
  Name = 
  14 active torsions:
  status: ('A' for Active; 'I' for Inactive)
    1  A    between atoms: C_1  and  C_28
    2  A    between atoms: C_1  and  N_34
    3  A    between atoms: C_2  and  C_6
    4  A    between atoms: C_2  and  C_13
    5  A    between atoms: C_3  and  C_4
    6  A    between atoms: C_3  and  C_12
    7  A    between atoms: C_4  and  C_15
    8  A    between atoms: C_4  and  N_22
    9  A    between atoms: C_6  and  C_12
   10  A    between atoms: N_11  and  C_40
   11  A    between atoms: C_13  and  C_38
   12  A    between atoms: C_26  and  O_31
   13  A    between atoms: C_26  and  C_40
   14  A    between atoms: C_28  and  C_35
                            x       y       z     vdW  Elec       q    Type
                         _______ _______ _______ _____ _____    ______ ____

>  <TORSDO>
F 14

$$$$
=
 OpenBabel11052421073D

 43 48  0  0  1  0  0  0  0  0999 V2000
  184.4400  178.5360  145.7620 C   0  0  0  0  0  0  0  0  0  0  0  0
  188.8030  176.3030  144.6790 C   0  0  0  0  0  0  0  0  0  0  0  0
  186.4370  177.7580  144.6370 C   0  0  0  0  0  0  0  0  0  0  0  0
  184.8170  177.8520  146.9230 C   0  0  0  0  0  3  0  0  0  0  0  0
  183.2860  179.2470  145.7440 F   0  0  0  0  0  0  0  0  0  0  0  0
  186.8220  177.0660  145.8150 C   0  0  0  0  0  0  0  0  0  0  0  0
  185.2460  178.4880  144.6210 C   0  0  0  0  0  3  0  0  0  0  0  0
  186.0060  177.1180  146.9520 C   0  0  0  0  0  3  0  0  0  0  0  0
  188.6210  175.5160  146.8830 C   0  0  0  0  0  2  0  0  0  0  0  0
  188.0200  176.3440  145.8010 C   0  0  0  0  0  0  0  0  0  0  0  0
  188.4430  176.9660  143.5040 C   0  0  0  0  0  3  0  0  0  0  0  0
  189.9550  175.5060  144.8770 N   0  0  0  0  0  0  0  0  0  0  0  0
  189.9070  174.9600  146.2350 C   0  0  1  0  0  3  0  0  0  0  0  0
  187.2480  177.7010  143.4900 C   0  0  0  0  0  3  0  0  0  0  0  0
  190.8010  176.3460  148.0270 O   0  0  0  0  0  1  0  0  0  0  0  0
  191.1210  175.3710  147.0740 C   0  0  2  0  0  3  0  0  0  0  0  0
  192.2420  175.8660  146.1670 C   0  0  0  0  0  2  0  0  0  0  0  0
  193.4070  174.8840  146.1340 C   0  0  0  0  0  2  0  0  0  0  0  0
  194.7270  175.6330  146.1850 C   0  0  2  0  0  3  0  0  0  0  0  0
  194.5650  177.0460  145.6570 C   0  0  0  0  0  1  0  0  0  0  0  0
  195.8830  174.8870  145.4940 C   0  0  0  0  0  2  0  0  0  0  0  0
  195.9200  174.9150  143.9560 C   0  0  2  0  0  3  0  0  0  0  0  0
  194.4270  171.8670  142.1610 N   0  0  0  0  0  0  0  0  0  0  0  0
  194.5220  173.1780  142.7360 C   0  0  0  0  0  0  0  0  0  0  0  0
  195.7250  173.5850  143.3930 N   0  0  0  0  0  2  0  0  0  0  0  0
  195.5720  170.9720  142.1760 C   0  0  0  0  0  1  0  0  0  0  0  0
  193.5390  173.9670  142.6740 O   0  0  0  0  0  0  0  0  0  0  0  0
  193.1800  171.3970  141.5700 C   0  0  0  0  0  2  0  0  0  0  0  0
  192.3430  170.6640  142.6060 C   0  0  0  0  0  2  0  0  0  0  0  0
  190.3670  170.4300  141.7960 F   0  0  0  0  0  0  0  0  0  0  0  0
  191.4890  169.7570  141.9790 O   0  0  0  0  0  0  0  0  0  0  0  0
  197.2140  175.5060  141.9140 C   0  0  0  0  0  2  0  0  0  0  0  0
  197.2060  175.5390  143.4290 C   0  0  0  0  0  3  0  0  0  0  0  0
  196.8790  176.7910  142.6380 C   0  0  0  0  0  2  0  0  0  0  0  0
  190.6550  174.8270  143.7940 C   0  0  0  0  0  2  0  0  0  0  0  0
  189.9060  173.5640  143.4050 C   0  0  0  0  0  2  0  0  0  0  0  0
  188.4050  173.2750  140.0310 C   0  0  1  0  0  3  0  0  0  0  0  0
  189.6910  173.7250  139.9610 N   0  0  0  0  0  0  0  0  0  0  0  0
  189.2010  172.4570  139.2690 C   0  0  0  0  0  0  0  0  0  0  0  0
  188.4660  173.0580  141.4770 N   0  0  0  0  0  0  0  0  0  0  0  0
  189.5840  173.5940  141.9540 C   0  0  0  0  0  0  0  0  0  0  0  0
  189.4380  171.3050  138.7400 N   0  0  0  0  0  2  0  0  0  0  0  0
  190.5010  174.1600  140.9780 N   0  0  0  0  0  2  0  0  0  0  0  0
  1  4  1  0  0  0  0
  2 12  1  0  0  0  0
  2 10  1  0  0  0  0
  3  6  1  0  0  0  0
  4  8  2  0  0  0  0
  5  1  1  0  0  0  0
  6  8  1  0  0  0  0
  7  3  1  0  0  0  0
  7  1  2  0  0  0  0
 10  6  2  0  0  0  0
 10  9  1  0  0  0  0
 11  2  2  0  0  0  0
 12 13  1  0  0  0  0
 13  9  1  0  0  0  0
 13 16  1  1  0  0  0
 14 11  1  0  0  0  0
 14  3  2  0  0  0  0
 16 15  1  1  0  0  0
 17 16  1  0  0  0  0
 18 17  1  0  0  0  0
 18 19  1  0  0  0  0
 19 20  1  6  0  0  0
 21 19  1  0  0  0  0
 22 21  1  1  0  0  0
 23 26  1  0  0  0  0
 23 24  1  0  0  0  0
 24 25  1  0  0  0  0
 25 22  1  0  0  0  0
 27 24  2  0  0  0  0
 28 23  1  0  0  0  0
 28 29  1  0  0  0  0
 30 31  1  0  0  0  0
 31 29  1  0  0  0  0
 32 34  1  0  0  0  0
 32 33  1  0  0  0  0
 33 22  1  0  0  0  0
 34 33  1  0  0  0  0
 35 12  1  0  0  0  0
 36 35  1  0  0  0  0
 37 39  1  6  0  0  0
 37 40  1  0  0  0  0
 38 37  1  0  0  0  0
 38 43  1  0  0  0  0
 39 38  1  0  0  0  0
 40 41  2  0  0  0  0
 41 36  1  0  0  0  0
 42 39  2  0  0  0  0
 43 41  1  0  0  0  0
M  END
>  <MODEL>
7

>  <REMARK>
 VINA RESULT:      -6.9      2.467      4.131
  Name = 
  14 active torsions:
  status: ('A' for Active; 'I' for Inactive)
    1  A    between atoms: C_1  and  C_28
    2  A    between atoms: C_1  and  N_34
    3  A    between atoms: C_2  and  C_6
    4  A    between atoms: C_2  and  C_13
    5  A    between atoms: C_3  and  C_4
    6  A    between atoms: C_3  and  C_12
    7  A    between atoms: C_4  and  C_15
    8  A    between atoms: C_4  and  N_22
    9  A    between atoms: C_6  and  C_12
   10  A    between atoms: N_11  and  C_40
   11  A    between atoms: C_13  and  C_38
   12  A    between atoms: C_26  and  O_31
   13  A    between atoms: C_26  and  C_40
   14  A    between atoms: C_28  and  C_35
                            x       y       z     vdW  Elec       q    Type
                         _______ _______ _______ _____ _____    ______ ____

>  <TORSDO>
F 14

$$$$
=
 OpenBabel11052421073D

 43 48  0  0  1  0  0  0  0  0999 V2000
  188.4420  172.8420  140.1480 C   0  0  0  0  0  0  0  0  0  0  0  0
  191.5580  174.6330  143.6520 C   0  0  0  0  0  0  0  0  0  0  0  0
  190.3310  173.8340  141.2920 C   0  0  0  0  0  0  0  0  0  0  0  0
  187.7900  172.6510  141.3710 C   0  0  0  0  0  3  0  0  0  0  0  0
  187.8410  172.4530  138.9970 F   0  0  0  0  0  0  0  0  0  0  0  0
  189.6690  173.6440  142.5330 C   0  0  0  0  0  0  0  0  0  0  0  0
  189.7100  173.4300  140.1070 C   0  0  0  0  0  3  0  0  0  0  0  0
  188.4010  173.0510  142.5630 C   0  0  0  0  0  3  0  0  0  0  0  0
  189.8560  173.9410  145.1130 C   0  0  0  0  0  2  0  0  0  0  0  0
  190.3170  174.0590  143.7010 C   0  0  0  0  0  0  0  0  0  0  0  0
  192.2350  174.8230  142.4460 C   0  0  0  0  0  3  0  0  0  0  0  0
  192.0320  174.9610  144.9440 N   0  0  0  0  0  0  0  0  0  0  0  0
  191.0250  174.5420  145.9220 C   0  0  1  0  0  3  0  0  0  0  0  0
  191.6090  174.4190  141.2570 C   0  0  0  0  0  3  0  0  0  0  0  0
  191.0440  175.6970  148.0650 O   0  0  0  0  0  1  0  0  0  0  0  0
  190.5130  175.7090  146.7710 C   0  0  2  0  0  3  0  0  0  0  0  0
  188.9890  175.6890  146.8240 C   0  0  0  0  0  2  0  0  0  0  0  0
  188.4230  177.0670  147.1480 C   0  0  0  0  0  2  0  0  0  0  0  0
  187.1940  177.3440  146.3000 C   0  0  2  0  0  3  0  0  0  0  0  0
  185.9330  176.9050  147.0210 C   0  0  0  0  0  1  0  0  0  0  0  0
  187.2830  176.7540  144.8810 C   0  0  0  0  0  2  0  0  0  0  0  0
  187.8990  177.6430  143.7860 C   0  0  2  0  0  3  0  0  0  0  0  0
  185.0300  178.2000  141.2960 N   0  0  0  0  0  0  0  0  0  0  0  0
  185.7530  178.1820  142.5340 C   0  0  0  0  0  0  0  0  0  0  0  0
  187.0800  177.6500  142.5800 N   0  0  0  0  0  2  0  0  0  0  0  0
  185.6620  177.7470  140.0670 C   0  0  0  0  0  1  0  0  0  0  0  0
  185.2140  178.6240  143.5870 O   0  0  0  0  0  0  0  0  0  0  0  0
  183.6450  178.6500  141.2440 C   0  0  0  0  0  2  0  0  0  0  0  0
  182.8870  177.9180  140.1480 C   0  0  0  0  0  2  0  0  0  0  0  0
  181.4150  177.9380  141.7130 F   0  0  0  0  0  0  0  0  0  0  0  0
  181.5150  177.9710  140.3950 O   0  0  0  0  0  0  0  0  0  0  0  0
  189.9760  178.2790  142.5720 C   0  0  0  0  0  2  0  0  0  0  0  0
  189.3300  177.2350  143.4610 C   0  0  0  0  0  3  0  0  0  0  0  0
  190.2950  178.2460  144.0510 C   0  0  0  0  0  2  0  0  0  0  0  0
  193.4470  175.0500  145.2790 C   0  0  0  0  0  2  0  0  0  0  0  0
  193.9480  173.7010  145.7700 C   0  0  0  0  0  2  0  0  0  0  0  0
  197.5330  174.1370  144.9470 C   0  0  1  0  0  3  0  0  0  0  0  0
  197.1650  172.8260  144.8640 N   0  0  0  0  0  0  0  0  0  0  0  0
  197.7610  173.6110  143.7000 C   0  0  0  0  0  0  0  0  0  0  0  0
  196.1680  174.5960  145.2060 N   0  0  0  0  0  0  0  0  0  0  0  0
  195.3890  173.5450  145.4370 C   0  0  0  0  0  0  0  0  0  0  0  0
  197.9410  173.7760  142.4330 N   0  0  0  0  0  2  0  0  0  0  0  0
  196.0020  172.2350  145.2900 N   0  0  0  0  0  2  0  0  0  0  0  0
  1  4  1  0  0  0  0
  2 10  1  0  0  0  0
  2 12  1  0  0  0  0
  3  6  1  0  0  0  0
  4  8  2  0  0  0  0
  5  1  1  0  0  0  0
  6  8  1  0  0  0  0
  6 10  2  0  0  0  0
  7  1  2  0  0  0  0
  7  3  1  0  0  0  0
  9 13  1  0  0  0  0
 10  9  1  0  0  0  0
 11  2  2  0  0  0  0
 12 35  1  0  0  0  0
 12 13  1  0  0  0  0
 13 16  1  6  0  0  0
 14  3  2  0  0  0  0
 14 11  1  0  0  0  0
 16 17  1  0  0  0  0
 16 15  1  1  0  0  0
 17 18  1  0  0  0  0
 19 20  1  1  0  0  0
 19 18  1  0  0  0  0
 21 19  1  0  0  0  0
 22 21  1  1  0  0  0
 23 24  1  0  0  0  0
 24 25  1  0  0  0  0
 24 27  2  0  0  0  0
 25 22  1  0  0  0  0
 26 23  1  0  0  0  0
 28 23  1  0  0  0  0
 29 31  1  0  0  0  0
 29 28  1  0  0  0  0
 31 30  1  0  0  0  0
 32 33  1  0  0  0  0
 32 34  1  0  0  0  0
 33 22  1  0  0  0  0
 33 34  1  0  0  0  0
 35 36  1  0  0  0  0
 37 39  1  6  0  0  0
 37 40  1  0  0  0  0
 38 37  1  0  0  0  0
 38 43  1  0  0  0  0
 39 38  1  0  0  0  0
 40 41  2  0  0  0  0
 41 36  1  0  0  0  0
 42 39  2  0  0  0  0
 43 41  1  0  0  0  0
M  END
>  <MODEL>
8

>  <REMARK>
 VINA RESULT:      -6.9      3.409      8.164
  Name = 
  14 active torsions:
  status: ('A' for Active; 'I' for Inactive)
    1  A    between atoms: C_1  and  C_28
    2  A    between atoms: C_1  and  N_34
    3  A    between atoms: C_2  and  C_6
    4  A    between atoms: C_2  and  C_13
    5  A    between atoms: C_3  and  C_4
    6  A    between atoms: C_3  and  C_12
    7  A    between atoms: C_4  and  C_15
    8  A    between atoms: C_4  and  N_22
    9  A    between atoms: C_6  and  C_12
   10  A    between atoms: N_11  and  C_40
   11  A    between atoms: C_13  and  C_38
   12  A    between atoms: C_26  and  O_31
   13  A    between atoms: C_26  and  C_40
   14  A    between atoms: C_28  and  C_35
                            x       y       z     vdW  Elec       q    Type
                         _______ _______ _______ _____ _____    ______ ____

>  <TORSDO>
F 14

$$$$
=
 OpenBabel11052421073D

 43 48  0  0  1  0  0  0  0  0999 V2000
  184.4650  178.3550  145.5550 C   0  0  0  0  0  0  0  0  0  0  0  0
  188.8840  176.0420  144.9860 C   0  0  0  0  0  0  0  0  0  0  0  0
  186.5210  177.4600  144.6410 C   0  0  0  0  0  0  0  0  0  0  0  0
  184.7820  177.8240  146.8090 C   0  0  0  0  0  3  0  0  0  0  0  0
  183.3130  179.0480  145.3880 F   0  0  0  0  0  0  0  0  0  0  0  0
  186.8440  176.9240  145.9140 C   0  0  0  0  0  0  0  0  0  0  0  0
  185.3310  178.1730  144.4710 C   0  0  0  0  0  3  0  0  0  0  0  0
  185.9700  177.1090  146.9910 C   0  0  0  0  0  3  0  0  0  0  0  0
  188.5880  175.5340  147.2580 C   0  0  0  0  0  2  0  0  0  0  0  0
  188.0430  176.2160  146.0510 C   0  0  0  0  0  0  0  0  0  0  0  0
  188.5860  176.5510  143.7200 C   0  0  0  0  0  3  0  0  0  0  0  0
  190.0260  175.2860  145.3410 N   0  0  0  0  0  0  0  0  0  0  0  0
  189.9070  174.9120  146.7520 C   0  0  1  0  0  3  0  0  0  0  0  0
  187.3910  177.2690  143.5530 C   0  0  0  0  0  3  0  0  0  0  0  0
  190.9500  176.7970  147.8860 O   0  0  0  0  0  1  0  0  0  0  0  0
  191.0740  175.4350  147.5950 C   0  0  2  0  0  3  0  0  0  0  0  0
  192.3960  175.1630  146.8860 C   0  0  0  0  0  2  0  0  0  0  0  0
  193.2970  176.3930  146.8940 C   0  0  0  0  0  2  0  0  0  0  0  0
  194.2360  176.3650  145.7010 C   0  0  2  0  0  3  0  0  0  0  0  0
  193.4600  176.1860  144.4100 C   0  0  0  0  0  1  0  0  0  0  0  0
  195.3730  175.3360  145.8390 C   0  0  0  0  0  2  0  0  0  0  0  0
  195.8490  174.6360  144.5540 C   0  0  2  0  0  3  0  0  0  0  0  0
  195.8900  170.8140  144.9040 N   0  0  0  0  0  0  0  0  0  0  0  0
  195.3920  172.1400  144.6790 C   0  0  0  0  0  0  0  0  0  0  0  0
  196.2650  173.2640  144.8160 N   0  0  0  0  0  2  0  0  0  0  0  0
  197.2960  170.5950  145.2010 C   0  0  0  0  0  1  0  0  0  0  0  0
  194.1800  172.3150  144.3730 O   0  0  0  0  0  0  0  0  0  0  0  0
  194.9980  169.6610  144.8630 C   0  0  0  0  0  2  0  0  0  0  0  0
  195.3050  168.7080  146.0070 C   0  0  0  0  0  2  0  0  0  0  0  0
  194.5260  168.7140  148.0090 F   0  0  0  0  0  0  0  0  0  0  0  0
  194.1550  168.4790  146.7620 O   0  0  0  0  0  0  0  0  0  0  0  0
  197.1740  174.8780  142.4610 C   0  0  0  0  0  2  0  0  0  0  0  0
  196.9640  175.4130  143.8630 C   0  0  0  0  0  3  0  0  0  0  0  0
  196.4010  176.1620  142.6710 C   0  0  0  0  0  2  0  0  0  0  0  0
  190.7830  174.4840  144.3890 C   0  0  0  0  0  2  0  0  0  0  0  0
  190.0430  173.1890  144.0970 C   0  0  0  0  0  2  0  0  0  0  0  0
  189.3990  173.6400  140.4780 C   0  0  1  0  0  3  0  0  0  0  0  0
  188.2970  173.1500  141.1170 N   0  0  0  0  0  0  0  0  0  0  0  0
  188.3070  174.4560  140.3280 C   0  0  0  0  0  0  0  0  0  0  0  0
  190.1550  173.8060  141.7190 N   0  0  0  0  0  0  0  0  0  0  0  0
  189.4990  173.2180  142.7140 C   0  0  0  0  0  0  0  0  0  0  0  0
  187.8050  175.6180  140.0750 N   0  0  0  0  0  2  0  0  0  0  0  0
  188.1980  172.6560  142.3920 N   0  0  0  0  0  2  0  0  0  0  0  0
  1  4  1  0  0  0  0
  2 12  1  0  0  0  0
  2 10  1  0  0  0  0
  3  6  1  0  0  0  0
  4  8  2  0  0  0  0
  5  1  1  0  0  0  0
  6 10  2  0  0  0  0
  6  8  1  0  0  0  0
  7  3  1  0  0  0  0
  7  1  2  0  0  0  0
 10  9  1  0  0  0  0
 11  2  2  0  0  0  0
 12 13  1  0  0  0  0
 13  9  1  0  0  0  0
 13 16  1  1  0  0  0
 14 11  1  0  0  0  0
 14  3  2  0  0  0  0
 16 15  1  6  0  0  0
 17 18  1  0  0  0  0
 17 16  1  0  0  0  0
 19 20  1  6  0  0  0
 19 21  1  0  0  0  0
 19 18  1  0  0  0  0
 22 25  1  0  0  0  0
 22 21  1  1  0  0  0
 23 26  1  0  0  0  0
 24 25  1  0  0  0  0
 24 23  1  0  0  0  0
 27 24  2  0  0  0  0
 28 23  1  0  0  0  0
 28 29  1  0  0  0  0
 29 31  1  0  0  0  0
 31 30  1  0  0  0  0
 32 34  1  0  0  0  0
 32 33  1  0  0  0  0
 33 22  1  0  0  0  0
 34 33  1  0  0  0  0
 35 12  1  0  0  0  0
 36 35  1  0  0  0  0
 37 39  1  1  0  0  0
 37 38  1  0  0  0  0
 37 40  1  0  0  0  0
 38 43  1  0  0  0  0
 39 38  1  0  0  0  0
 40 41  2  0  0  0  0
 41 36  1  0  0  0  0
 42 39  2  0  0  0  0
 43 41  1  0  0  0  0
M  END
>  <MODEL>
9

>  <REMARK>
 VINA RESULT:      -6.9      2.611      4.378
  Name = 
  14 active torsions:
  status: ('A' for Active; 'I' for Inactive)
    1  A    between atoms: C_1  and  C_28
    2  A    between atoms: C_1  and  N_34
    3  A    between atoms: C_2  and  C_6
    4  A    between atoms: C_2  and  C_13
    5  A    between atoms: C_3  and  C_4
    6  A    between atoms: C_3  and  C_12
    7  A    between atoms: C_4  and  C_15
    8  A    between atoms: C_4  and  N_22
    9  A    between atoms: C_6  and  C_12
   10  A    between atoms: N_11  and  C_40
   11  A    between atoms: C_13  and  C_38
   12  A    between atoms: C_26  and  O_31
   13  A    between atoms: C_26  and  C_40
   14  A    between atoms: C_28  and  C_35
                            x       y       z     vdW  Elec       q    Type
                         _______ _______ _______ _____ _____    ______ ____

>  <TORSDO>
F 14

$$$$
